0:0:0
     RDKit          3D

 99110  0  0  1  0  0  0  0  0999 V2000
  -31.8930  -20.5480   17.7880 C   0  0  0  0  0  2  0  0  0  0  0  0
  -31.1200  -21.9260   19.8640 C   0  0  0  0  0  2  0  0  0  0  0  0
  -29.7370  -21.9530   18.2820 C   0  0  0  0  0  2  0  0  0  0  0  0
  -30.7790  -20.9440   18.7470 C   0  0  0  0  0  3  0  0  0  0  0  0
  -29.9430  -22.7140   19.5120 N   0  0  2  0  0  4  0  0  0  0  0  0
  -29.2030  -22.5380   20.1760 H   0  0  0  0  0  0  0  0  0  0  0  0
  -30.2090  -24.1590   19.3300 C   0  0  0  0  0  2  0  0  0  0  0  0
  -28.9760  -24.9550   18.8660 C   0  0  0  0  0  2  0  0  0  0  0  0
  -28.0070  -25.3090   20.0010 C   0  0  0  0  0  2  0  0  0  0  0  0
  -28.0140  -26.7190   20.1460 O   0  0  0  0  0  0  0  0  0  0  0  0
  -24.4780  -31.9510   23.2780 C   0  0  0  0  0  0  0  0  0  0  0  0
  -26.8300  -27.4140   20.1540 C   0  0  0  0  0  0  0  0  0  0  0  0
  -23.1570  -30.5950   21.6860 C   0  0  0  0  0  3  0  0  0  0  0  0
  -24.4890  -28.9860   20.2310 C   0  0  0  0  0  0  0  0  0  0  0  0
  -25.6810  -30.8550   21.3950 C   0  0  0  0  0  2  0  0  0  0  0  0
  -25.6850  -29.4780   20.7680 C   0  0  0  0  0  0  0  0  0  0  0  0
  -26.8530  -28.6990   20.7240 C   0  0  0  0  0  3  0  0  0  0  0  0
  -25.6200  -26.9250   19.6010 C   0  0  0  0  0  3  0  0  0  0  0  0
  -24.4500  -27.7030   19.6530 C   0  0  0  0  0  3  0  0  0  0  0  0
  -23.2860  -29.8950   20.3050 C   0  0  0  0  0  2  0  0  0  0  0  0
  -24.4590  -31.1480   22.1770 N   0  0  0  0  0  0  0  0  0  0  0  0
  -23.4290  -32.2740   23.8520 O   0  0  0  0  0  0  0  0  0  0  0  0
  -22.4990  -29.6070   22.6750 C   0  0  0  0  0  0  0  0  0  0  0  0
  -21.1800  -29.4120   22.5340 N   0  0  0  0  0  0  0  0  0  0  0  0
  -23.1730  -29.0210   23.5290 O   0  0  0  0  0  0  0  0  0  0  0  0
  -20.7020  -29.9310   21.8090 H   0  0  0  0  0  0  0  0  0  0  0  0
  -17.8130  -28.1750   22.9650 C   0  0  0  0  0  0  0  0  0  0  0  0
  -20.3520  -28.5050   23.3250 C   0  0  0  0  0  3  0  0  0  0  0  0
  -20.5050  -27.0460   22.8380 C   0  0  0  0  0  2  0  0  0  0  0  0
  -19.4530  -26.6430   21.8010 C   0  0  0  0  0  2  0  0  0  0  0  0
  -18.0440  -26.7940   22.3790 C   0  0  0  0  0  2  0  0  0  0  0  0
  -18.8990  -28.9850   23.3960 C   0  0  0  0  0  0  0  0  0  0  0  0
  -18.6310  -30.2750   23.9040 C   0  0  0  0  0  3  0  0  0  0  0  0
  -17.3110  -30.7580   23.9790 C   0  0  0  0  0  3  0  0  0  0  0  0
  -16.2410  -29.9450   23.5660 C   0  0  0  0  0  3  0  0  0  0  0  0
  -16.4920  -28.6540   23.0700 C   0  0  0  0  0  3  0  0  0  0  0  0
  -25.8130  -32.5220   23.8520 C   0  0  0  0  0  3  0  0  0  0  0  0
  -25.5760  -33.9290   24.1950 N   0  0  0  0  0  0  0  0  0  0  0  0
  -25.9400  -34.9680   23.4330 C   0  0  0  0  0  0  0  0  0  0  0  0
  -26.5810  -34.8380   22.3860 O   0  0  0  0  0  0  0  0  0  0  0  0
  -24.9980  -34.1060   25.0030 H   0  0  0  0  0  0  0  0  0  0  0  0
  -24.2800  -36.8280   23.1150 C   0  0  0  0  0  1  0  0  0  0  0  0
  -25.5220  -36.3750   23.9000 C   0  0  0  0  0  3  0  0  0  0  0  0
  -27.7120  -37.1570   24.6840 C   0  0  0  0  0  1  0  0  0  0  0  0
  -26.5970  -37.3820   23.7670 N   0  0  0  0  0  0  0  0  0  0  0  0
  -26.2350  -38.3180   23.9330 H   0  0  0  0  0  0  0  0  0  0  0  0
  -26.3490  -31.7220   25.1010 C   0  0  1  0  0  0  0  0  0  0  0  0
  -25.2870  -31.4980   26.2030 C   0  0  0  0  0  1  0  0  0  0  0  0
  -26.8770  -30.3340   24.6700 C   0  0  0  0  0  1  0  0  0  0  0  0
  -27.5520  -32.4660   25.7270 C   0  0  0  0  0  1  0  0  0  0  0  0
  -31.3150  -17.9080   15.5220 C   0  0  0  0  0  0  0  0  0  0  0  0
  -31.4610  -19.6090   16.7100 C   0  0  0  0  0  0  0  0  0  0  0  0
  -30.8730  -18.9210   14.7640 N   0  0  0  0  0  0  0  0  0  0  0  0
  -30.9730  -20.0390   15.5420 N   0  0  0  0  0  0  0  0  0  0  0  0
  -31.5720  -18.2630   16.8080 N   0  0  0  0  0  0  0  0  0  0  0  0
  -31.6510  -14.6170   19.9890 C   0  0  0  0  0  0  0  0  0  0  0  0
  -31.1660  -12.3850   19.1770 C   0  0  0  0  0  2  0  0  0  0  0  0
  -30.2410  -12.5350   17.9480 C   0  0  0  0  0  2  0  0  0  0  0  0
  -28.7700  -12.5680   18.3880 C   0  0  0  0  0  2  0  0  0  0  0  0
  -28.4870  -13.5310   19.5760 C   0  0  0  0  0  3  0  0  0  0  0  0
  -29.5490  -13.4080   20.6920 C   0  0  0  0  0  2  0  0  0  0  0  0
  -30.8770  -13.5050   20.0710 N   0  0  0  0  0  0  0  0  0  0  0  0
  -32.8040  -14.6610   20.3970 O   0  0  0  0  0  0  0  0  0  0  0  0
  -33.1380  -16.5400   17.6640 C   0  0  0  0  0  2  0  0  0  0  0  0
  -32.4990  -15.1700   17.8060 C   0  0  0  0  0  2  0  0  0  0  0  0
  -30.9370  -16.6680   18.7470 C   0  0  0  0  0  2  0  0  0  0  0  0
  -32.0120  -17.5010   17.9920 C   0  0  0  0  0  3  0  0  0  0  0  0
  -31.4410  -15.2870   18.8280 N   0  0  0  0  0  0  0  0  0  0  0  0
  -26.1370  -14.2910   20.2970 C   0  0  0  0  0  0  0  0  0  0  0  0
  -25.0180  -13.5850   20.6530 C   0  0  0  0  0  0  0  0  0  0  0  0
  -25.3930  -12.2080   20.6280 C   0  0  0  0  0  0  0  0  0  0  0  0
  -27.1270  -13.3460   20.0770 N   0  0  0  0  0  0  0  0  0  0  0  0
  -26.6830  -12.0900   20.3440 N   0  0  0  0  0  0  0  0  0  0  0  0
  -24.5850  -10.9930   20.8050 C   0  0  0  0  0  0  0  0  0  0  0  0
  -24.9200  -10.0180   21.7710 C   0  0  0  0  0  3  0  0  0  0  0  0
  -24.1190   -8.8690   21.9370 C   0  0  0  0  0  3  0  0  0  0  0  0
  -22.9670   -8.6860   21.1340 C   0  0  0  0  0  0  0  0  0  0  0  0
  -22.6510   -9.6460   20.1570 C   0  0  0  0  0  3  0  0  0  0  0  0
  -23.4550  -10.7870   19.9900 C   0  0  0  0  0  3  0  0  0  0  0  0
  -22.1430   -7.5880   21.2080 O   0  0  0  0  0  0  0  0  0  0  0  0
  -21.9470   -6.9120   22.3860 C   0  0  0  0  0  0  0  0  0  0  0  0
  -21.4710   -7.5600   23.5460 C   0  0  0  0  0  3  0  0  0  0  0  0
  -21.2180   -6.8150   24.7150 C   0  0  0  0  0  3  0  0  0  0  0  0
  -21.4340   -5.4230   24.7240 C   0  0  0  0  0  0  0  0  0  0  0  0
  -21.9030   -4.7750   23.5670 C   0  0  0  0  0  3  0  0  0  0  0  0
  -22.1560   -5.5190   22.4010 C   0  0  0  0  0  0  0  0  0  0  0  0
  -22.5890   -4.8860   21.2830 F   0  0  0  0  0  0  0  0  0  0  0  0
  -21.1840   -4.7050   25.8440 F   0  0  0  0  0  0  0  0  0  0  0  0
  -23.6500  -14.1480   20.9090 C   0  0  0  0  0  0  0  0  0  0  0  0
  -22.8840  -13.5170   21.7930 N   0  0  0  0  0  0  0  0  0  0  0  0
  -23.2690  -15.1820   20.3610 O   0  0  0  0  0  0  0  0  0  0  0  0
  -23.2070  -12.6820   22.2590 H   0  0  0  0  0  0  0  0  0  0  0  0
  -21.9640  -13.8740   22.0110 H   0  0  0  0  0  0  0  0  0  0  0  0
  -26.3880  -15.6480   20.1160 N   0  0  0  0  0  0  0  0  0  0  0  0
  -25.6670  -16.3520   20.2260 H   0  0  0  0  0  0  0  0  0  0  0  0
  -27.2770  -16.0330   19.8200 H   0  0  0  0  0  0  0  0  0  0  0  0
  -32.9660  -16.1980   14.4290 C   0  0  0  0  0  2  0  0  0  0  0  0
  -31.8580  -16.4100   13.4380 C   0  0  0  0  0  2  0  0  0  0  0  0
  -31.5760  -16.5560   14.9280 C   0  0  0  0  0  3  0  0  0  0  0  0
  3  4  1  0
  3  5  1  0
  4  1  1  0
  4  2  1  0
  5  2  1  0
  5  6  1  1
  7  5  1  0
  8  7  1  0
  8  9  1  0
  9 10  1  0
 10 12  1  0
 11 22  2  0
 12 17  1  0
 13 21  1  0
 13 23  1  0
 14 20  1  0
 14 16  1  0
 15 21  1  0
 16 15  1  0
 17 16  2  0
 18 19  1  0
 18 12  2  0
 19 14  2  0
 20 13  1  0
 21 11  1  0
 23 25  2  0
 24 23  1  0
 26 24  1  0
 27 36  2  0
 27 32  1  0
 28 24  1  0
 28 32  1  0
 29 28  1  0
 30 31  1  0
 30 29  1  0
 31 27  1  0
 32 33  2  0
 33 34  1  0
 35 34  2  0
 36 35  1  0
 37 11  1  0
 37 38  1  0
 37 47  1  0
 38 41  1  0
 39 43  1  0
 39 38  1  0
 40 39  2  0
 43 42  1  0
 45 43  1  0
 45 46  1  0
 45 44  1  0
 47 50  1  1
 47 48  1  0
 49 47  1  0
 51 55  1  0
 52 55  1  0
 52  1  1  0
 53 51  2  0
 53 54  1  0
 54 52  2  0
 56 62  1  0
 56 63  2  0
 57 62  1  0
 58 59  1  0
 58 57  1  0
 60 59  1  0
 60 72  1  0
 60 61  1  0
 62 61  1  0
 64 65  1  0
 64 67  1  0
 65 68  1  0
 66 68  1  0
 67 55  1  0
 67 66  1  0
 68 56  1  0
 69 70  2  0
 70 89  1  0
 71 70  1  0
 71 74  1  0
 72 69  1  0
 72 73  1  0
 73 71  2  0
 74 75  1  0
 75 76  2  0
 77 80  1  0
 77 76  1  0
 78 77  2  0
 79 78  1  0
 79 74  2  0
 80 81  1  0
 81 86  2  0
 81 82  1  0
 82 83  2  0
 83 84  1  0
 84 88  1  0
 85 84  2  0
 86 85  1  0
 87 86  1  0
 89 90  1  0
 90 93  1  0
 90 92  1  0
 91 89  2  0
 94 95  1  0
 94 69  1  0
 96 94  1  0
 97 99  1  0
 98 97  1  0
 98 99  1  0
 99 51  1  0
M  ISO  4   9 101  10 101  56 100  68 100
M  END
>  <TORSDO>  (1) 
F 22

>  <SCORE>  (1) 
-12.277

>  <name>  (1) 
0

>  <ligand_id>  (1) 
0

>  <original_smiles>  (1) 
[H]c1c([H])c([H])c2c(c1[H])C([H])([H])C([H])([H])C([H])([H])C2([H])N([H])C(=O)C1([H])N(C(=O)C([H])(N([H])C(=O)C([H])(N([H])C([H])([H])[H])C([H])([H])[H])C(C([H])([H])[H])(C([H])([H])[H])C([H])([H])[H])C([H])([H])c2c([H])c(OC([H])([H])C([H])([H])C([H])([H])[N+]3([H])C([H])([H])C([H])(C([H])([H])c4nnc(C5([H])C([H])([H])C5([H])[H])n4C4([H])C([H])([H])N(C(=O)N5C([H])([H])C([H])([H])C([H])([H])C([H])(n6nc(-c7c([H])c([H])c(Oc8c([H])c([H])c(F)c([H])c8F)c([H])c7[H])c(C(=O)N([H])[H])c6N([H])[H])C5([H])[H])C([H])([H])C4([H])[H])C3([H])[H])c([H])c([H])c2C1([H])[H]

>  <smiles>  (1) 
[H]c1c([H])c([H])c2c(c1[H])C([H])([H])C([H])([H])C([H])([H])C2([H])N([H])C(=O)C1([H])N(C(=O)C([H])(N([H])C(=O)C([H])(N([H])C([H])([H])[H])C([H])([H])[H])C(C([H])([H])[H])(C([H])([H])[H])C([H])([H])[H])C([H])([H])c2c([H])c(OC([H])([H])C([H])([H])C([H])([H])[N+]3([H])C([H])([H])C([H])(C([H])([H])c4nnc(C5([H])C([H])([H])C5([H])[H])n4C4([H])C([H])([H])N(C(=O)N5C([H])([H])C([H])([H])C([H])([H])C([H])(n6nc(-c7c([H])c([H])c(Oc8c([H])c([H])c(F)c([H])c8F)c([H])c7[H])c(C(=O)N([H])[H])c6N([H])[H])C5([H])[H])C([H])([H])C4([H])[H])C3([H])[H])c([H])c([H])c2C1([H])[H]

$$$$
1:0:0
     RDKit          3D

101111  0  0  1  0  0  0  0  0999 V2000
  -29.4570  -22.9790   19.7680 C   0  0  0  0  0  3  0  0  0  0  0  0
  -30.3710  -22.8810   20.7880 C   0  0  0  0  0  3  0  0  0  0  0  0
  -30.0310  -21.7430   19.1490 C   0  0  0  0  0  3  0  0  0  0  0  0
  -30.2110  -23.5210   22.1150 C   0  0  0  0  0  0  0  0  0  0  0  0
  -28.7020  -25.1200   20.9760 C   0  0  0  0  0  2  0  0  0  0  0  0
  -29.2290  -24.6050   19.6010 C   0  0  0  0  0  3  0  0  0  0  0  0
  -31.3230  -21.9820   18.9890 N   0  0  0  0  0  2  0  0  0  0  0  0
  -31.5790  -22.5350   20.1970 N   0  0  0  0  0  0  0  0  0  0  0  0
  -29.2690  -24.4900   22.1920 N   0  0  0  0  0  0  0  0  0  0  0  0
  -30.8860  -23.1430   23.0770 O   0  0  0  0  0  0  0  0  0  0  0  0
  -31.1570  -15.8920   20.7290 C   0  0  0  0  0  0  0  0  0  0  0  0
  -31.1850  -13.4050   20.3570 C   0  0  0  0  0  2  0  0  0  0  0  0
  -30.5090  -13.0680   19.0110 C   0  0  0  0  0  2  0  0  0  0  0  0
  -28.9890  -12.8980   19.2030 C   0  0  0  0  0  2  0  0  0  0  0  0
  -28.3620  -14.0340   20.0590 C   0  0  0  0  0  3  0  0  0  0  0  0
  -29.1920  -14.3540   21.3200 C   0  0  0  0  0  2  0  0  0  0  0  0
  -30.5540  -14.6510   20.8690 N   0  0  0  0  0  0  0  0  0  0  0  0
  -32.3870  -15.9240   20.6360 O   0  0  0  0  0  0  0  0  0  0  0  0
  -30.7040  -19.1430   18.6240 C   0  0  0  0  0  2  0  0  0  0  0  0
  -29.8890  -19.5640   20.8450 C   0  0  0  0  0  2  0  0  0  0  0  0
  -30.5530  -17.5650   18.8750 C   0  0  0  0  0  2  0  0  0  0  0  0
  -29.6440  -17.9940   21.0900 C   0  0  0  0  0  2  0  0  0  0  0  0
  -29.7580  -20.1450   19.3810 C   0  0  0  0  0  3  0  0  0  0  0  0
  -30.4160  -17.0070   20.2670 N   0  0  0  0  0  0  0  0  0  0  0  0
  -25.9160  -14.6660   20.4630 C   0  0  0  0  0  0  0  0  0  0  0  0
  -24.7940  -13.9160   20.6910 C   0  0  0  0  0  0  0  0  0  0  0  0
  -25.2300  -12.5570   20.7400 C   0  0  0  0  0  0  0  0  0  0  0  0
  -26.9640  -13.7650   20.3770 N   0  0  0  0  0  0  0  0  0  0  0  0
  -26.5510  -12.4920   20.6080 N   0  0  0  0  0  0  0  0  0  0  0  0
  -24.4580  -11.3120   20.8450 C   0  0  0  0  0  0  0  0  0  0  0  0
  -24.7390  -10.3480   21.8390 C   0  0  0  0  0  3  0  0  0  0  0  0
  -23.9670   -9.1690   21.9340 C   0  0  0  0  0  3  0  0  0  0  0  0
  -22.8970   -8.9480   21.0350 C   0  0  0  0  0  0  0  0  0  0  0  0
  -22.6330   -9.9010   20.0340 C   0  0  0  0  0  3  0  0  0  0  0  0
  -23.4080  -11.0690   19.9380 C   0  0  0  0  0  3  0  0  0  0  0  0
  -22.1100   -7.8220   21.0350 O   0  0  0  0  0  0  0  0  0  0  0  0
  -21.9070   -7.0870   22.1760 C   0  0  0  0  0  0  0  0  0  0  0  0
  -21.3270   -7.6510   23.3340 C   0  0  0  0  0  3  0  0  0  0  0  0
  -21.0680   -6.8430   24.4590 C   0  0  0  0  0  3  0  0  0  0  0  0
  -21.3790   -5.4700   24.4260 C   0  0  0  0  0  0  0  0  0  0  0  0
  -21.9530   -4.9050   23.2730 C   0  0  0  0  0  3  0  0  0  0  0  0
  -22.2110   -5.7110   22.1490 C   0  0  0  0  0  0  0  0  0  0  0  0
  -22.7430   -5.1550   21.0330 F   0  0  0  0  0  0  0  0  0  0  0  0
  -21.1260   -4.6920   25.5040 F   0  0  0  0  0  0  0  0  0  0  0  0
  -23.3840  -14.4270   20.7590 C   0  0  0  0  0  0  0  0  0  0  0  0
  -22.5340  -13.7740   21.5450 N   0  0  0  0  0  0  0  0  0  0  0  0
  -23.0400  -15.4400   20.1530 O   0  0  0  0  0  0  0  0  0  0  0  0
  -22.8260  -12.9580   22.0620 H   0  0  0  0  0  0  0  0  0  0  0  0
  -21.5820  -14.0990   21.6310 H   0  0  0  0  0  0  0  0  0  0  0  0
  -26.1290  -16.0310   20.2930 N   0  0  0  0  0  0  0  0  0  0  0  0
  -25.3680  -16.7020   20.3030 H   0  0  0  0  0  0  0  0  0  0  0  0
  -27.0280  -16.4510   20.0920 H   0  0  0  0  0  0  0  0  0  0  0  0
  -27.2350  -25.1970   23.5150 C   0  0  0  0  0  1  0  0  0  0  0  0
  -28.7640  -24.9550   23.5040 C   0  0  0  0  0  3  0  0  0  0  0  0
  -28.8920  -26.9020   25.1720 C   0  0  0  0  0  1  0  0  0  0  0  0
  -29.5720  -26.1670   24.0070 C   0  0  0  0  0  2  0  0  0  0  0  0
  -28.3450  -25.4530   18.5140 C   0  0  0  0  0  2  0  0  0  0  0  0
  -28.3470  -26.9910   18.5620 O   0  0  0  0  0  0  0  0  0  0  0  0
  -24.5830  -31.5480   22.8410 C   0  0  0  0  0  0  0  0  0  0  0  0
  -27.1870  -27.8030   18.7450 C   0  0  0  0  0  0  0  0  0  0  0  0
  -23.3270  -30.3880   21.0610 C   0  0  0  0  0  3  0  0  0  0  0  0
  -24.7390  -29.2550   19.2400 C   0  0  0  0  0  0  0  0  0  0  0  0
  -25.8190  -30.9270   20.7390 C   0  0  0  0  0  2  0  0  0  0  0  0
  -25.9300  -29.6980   19.8290 C   0  0  0  0  0  0  0  0  0  0  0  0
  -27.1520  -28.9870   19.5730 C   0  0  0  0  0  3  0  0  0  0  0  0
  -25.9650  -27.4550   18.1300 C   0  0  0  0  0  3  0  0  0  0  0  0
  -24.7630  -28.1460   18.3810 C   0  0  0  0  0  3  0  0  0  0  0  0
  -23.4590  -30.0050   19.5610 C   0  0  0  0  0  2  0  0  0  0  0  0
  -24.6000  -30.9670   21.6020 N   0  0  0  0  0  0  0  0  0  0  0  0
  -23.5400  -31.6200   23.5080 O   0  0  0  0  0  0  0  0  0  0  0  0
  -22.8300  -29.1560   21.8580 C   0  0  0  0  0  0  0  0  0  0  0  0
  -21.5240  -28.8540   21.7640 N   0  0  0  0  0  0  0  0  0  0  0  0
  -23.6190  -28.4790   22.5220 O   0  0  0  0  0  0  0  0  0  0  0  0
  -20.9330  -29.4600   21.2100 H   0  0  0  0  0  0  0  0  0  0  0  0
  -18.3530  -27.1430   22.1140 C   0  0  0  0  0  0  0  0  0  0  0  0
  -20.8610  -27.7120   22.3960 C   0  0  0  0  0  3  0  0  0  0  0  0
  -21.1390  -26.4070   21.6150 C   0  0  0  0  0  2  0  0  0  0  0  0
  -20.0640  -26.0870   20.5730 C   0  0  0  0  0  2  0  0  0  0  0  0
  -18.6940  -25.9450   21.2430 C   0  0  0  0  0  2  0  0  0  0  0  0
  -19.3720  -27.9820   22.6430 C   0  0  0  0  0  0  0  0  0  0  0  0
  -19.0000  -29.1000   23.4220 C   0  0  0  0  0  3  0  0  0  0  0  0
  -17.6450  -29.3860   23.6730 C   0  0  0  0  0  3  0  0  0  0  0  0
  -16.6420  -28.5440   23.1580 C   0  0  0  0  0  3  0  0  0  0  0  0
  -16.9990  -27.4240   22.3840 C   0  0  0  0  0  3  0  0  0  0  0  0
  -25.8710  -32.1680   23.4680 C   0  0  0  0  0  3  0  0  0  0  0  0
  -25.4950  -33.4490   24.0840 N   0  0  0  0  0  0  0  0  0  0  0  0
  -25.7660  -34.6540   23.5660 C   0  0  0  0  0  0  0  0  0  0  0  0
  -26.4250  -34.8030   22.5330 O   0  0  0  0  0  0  0  0  0  0  0  0
  -24.9080  -33.4000   24.9050 H   0  0  0  0  0  0  0  0  0  0  0  0
  -23.9650  -36.4100   23.5900 C   0  0  0  0  0  1  0  0  0  0  0  0
  -25.2210  -35.8900   24.3090 C   0  0  0  0  0  3  0  0  0  0  0  0
  -27.3170  -36.6600   25.3330 C   0  0  0  0  0  1  0  0  0  0  0  0
  -26.2080  -36.9850   24.4400 N   0  0  0  0  0  0  0  0  0  0  0  0
  -25.7620  -37.8330   24.7790 H   0  0  0  0  0  0  0  0  0  0  0  0
  -26.5570  -31.2240   24.5310 C   0  0  1  0  0  0  0  0  0  0  0  0
  -25.5930  -30.7130   25.6270 C   0  0  0  0  0  1  0  0  0  0  0  0
  -27.1840  -29.9890   23.8460 C   0  0  0  0  0  1  0  0  0  0  0  0
  -27.7170  -31.9750   25.2270 C   0  0  0  0  0  1  0  0  0  0  0  0
  -32.9560  -22.7490   20.6170 C   0  0  0  0  0  2  0  0  0  0  0  0
  -35.2610  -21.6740   20.8140 C   0  0  0  0  0  1  0  0  0  0  0  0
  -33.7580  -21.4410   20.6350 C   0  0  0  0  0  2  0  0  0  0  0  0
  1  2  1  0
  2  4  1  0
  3 23  1  0
  3  1  1  0
  4  9  1  0
  4 10  2  0
  5  9  1  0
  6  1  1  0
  6  5  1  0
  7  3  1  0
  7  8  1  0
  8 99  1  0
  8  2  1  0
  9 54  1  0
 11 17  1  0
 12 17  1  0
 13 14  1  0
 13 12  1  0
 14 15  1  0
 15 28  1  0
 15 16  1  0
 17 16  1  0
 18 11  2  0
 19 21  1  0
 19 23  1  0
 20 22  1  0
 21 24  1  0
 23 20  1  0
 24 11  1  0
 24 22  1  0
 25 26  2  0
 26 27  1  0
 26 45  1  0
 27 30  1  0
 28 25  1  0
 28 29  1  0
 29 27  2  0
 30 31  1  0
 31 32  2  0
 33 32  1  0
 34 33  2  0
 35 34  1  0
 35 30  2  0
 36 33  1  0
 36 37  1  0
 37 38  1  0
 38 39  2  0
 40 39  1  0
 40 44  1  0
 41 40  2  0
 42 37  2  0
 42 41  1  0
 43 42  1  0
 45 46  1  0
 46 49  1  0
 46 48  1  0
 47 45  2  0
 50 51  1  0
 50 25  1  0
 52 50  1  0
 54 53  1  0
 54 56  1  0
 56 55  1  0
 57 58  1  0
 57  6  1  0
 58 60  1  0
 59 85  1  0
 59 70  2  0
 60 65  1  0
 61 69  1  0
 61 71  1  0
 62 68  1  0
 62 64  1  0
 63 69  1  0
 64 63  1  0
 65 64  2  0
 66 67  1  0
 66 60  2  0
 67 62  2  0
 68 61  1  0
 69 59  1  0
 71 73  2  0
 72 71  1  0
 72 76  1  0
 74 72  1  0
 75 84  2  0
 75 80  1  0
 76 80  1  0
 77 76  1  0
 78 79  1  0
 78 77  1  0
 79 75  1  0
 80 81  2  0
 81 82  1  0
 83 82  2  0
 84 83  1  0
 85 86  1  0
 85 95  1  0
 86 89  1  0
 87 86  1  0
 87 91  1  0
 88 87  2  0
 90 91  1  0
 91 93  1  0
 93 94  1  0
 93 92  1  0
 95 98  1  1
 95 96  1  0
 97 95  1  0
 99101  1  0
101100  1  0
M  ISO  4  11 100  24 100  57 101  58 101
M  END
>  <TORSDO>  (2) 
F 21

>  <SCORE>  (2) 
-8.242

>  <name>  (2) 
1

>  <ligand_id>  (2) 
1

>  <original_smiles>  (2) 
[H]c1c([H])c([H])c2c(c1[H])C([H])([H])C([H])([H])C([H])([H])C2([H])N([H])C(=O)C1([H])N(C(=O)C([H])(N([H])C(=O)C([H])(N([H])C([H])([H])[H])C([H])([H])[H])C(C([H])([H])[H])(C([H])([H])[H])C([H])([H])[H])C([H])([H])c2c([H])c(OC([H])([H])C3([H])c4c(C5([H])C([H])([H])C([H])([H])N(C(=O)N6C([H])([H])C([H])([H])C([H])([H])C([H])(n7nc(-c8c([H])c([H])c(Oc9c([H])c([H])c(F)c([H])c9F)c([H])c8[H])c(C(=O)N([H])[H])c7N([H])[H])C6([H])[H])C([H])([H])C5([H])[H])nn(C([H])([H])C([H])([H])C([H])([H])[H])c4C(=O)N(C([H])(C([H])([H])[H])C([H])([H])C([H])([H])[H])C3([H])[H])c([H])c([H])c2C1([H])[H]

>  <smiles>  (2) 
[H]c1c([H])c([H])c2c(c1[H])C([H])([H])C([H])([H])C([H])([H])C2([H])N([H])C(=O)C1([H])N(C(=O)C([H])(N([H])C(=O)C([H])(N([H])C([H])([H])[H])C([H])([H])[H])C(C([H])([H])[H])(C([H])([H])[H])C([H])([H])[H])C([H])([H])c2c([H])c(OC([H])([H])C3([H])c4c(C5([H])C([H])([H])C([H])([H])N(C(=O)N6C([H])([H])C([H])([H])C([H])([H])C([H])(n7nc(-c8c([H])c([H])c(Oc9c([H])c([H])c(F)c([H])c9F)c([H])c8[H])c(C(=O)N([H])[H])c7N([H])[H])C6([H])[H])C([H])([H])C5([H])[H])nn(C([H])([H])C([H])([H])C([H])([H])[H])c4C(=O)N(C([H])(C([H])([H])[H])C([H])([H])C([H])([H])[H])C3([H])[H])c([H])c([H])c2C1([H])[H]

$$$$
2:0:0
     RDKit          3D

 92101  0  0  1  0  0  0  0  0999 V2000
  -29.2040  -18.9070   19.7350 C   0  0  0  0  0  2  0  0  0  0  0  0
  -30.1470  -20.0020   21.4810 C   0  0  0  0  0  2  0  0  0  0  0  0
  -30.2820  -17.7640   20.2080 C   0  0  0  0  0  3  0  0  0  0  0  0
  -30.6910  -18.5050   21.5160 C   0  0  0  0  0  3  0  0  0  0  0  0
  -29.6160  -20.3310   20.1480 N   0  0  0  0  0  0  0  0  0  0  0  0
  -30.7910  -15.0240   20.2210 C   0  0  0  0  0  0  0  0  0  0  0  0
  -30.7260  -12.6160   19.4130 C   0  0  0  0  0  2  0  0  0  0  0  0
  -29.7910  -12.4660   18.1910 C   0  0  0  0  0  2  0  0  0  0  0  0
  -28.3320  -12.2560   18.6370 C   0  0  0  0  0  2  0  0  0  0  0  0
  -27.9070  -13.2400   19.7580 C   0  0  0  0  0  3  0  0  0  0  0  0
  -28.9630  -13.3430   20.8790 C   0  0  0  0  0  2  0  0  0  0  0  0
  -30.2200  -13.7510   20.2380 N   0  0  0  0  0  0  0  0  0  0  0  0
  -31.9930  -15.0980   19.9480 O   0  0  0  0  0  0  0  0  0  0  0  0
  -29.9860  -16.1980   20.3180 N   0  0  0  0  0  0  0  0  0  0  0  0
  -29.0070  -15.9790   20.4300 H   0  0  0  0  0  0  0  0  0  0  0  0
  -25.5510  -13.8280   20.5640 C   0  0  0  0  0  0  0  0  0  0  0  0
  -24.4870  -13.0570   20.9400 C   0  0  0  0  0  0  0  0  0  0  0  0
  -24.9330  -11.7020   20.8650 C   0  0  0  0  0  0  0  0  0  0  0  0
  -26.5770  -12.9440   20.2780 N   0  0  0  0  0  0  0  0  0  0  0  0
  -26.2180  -11.6580   20.5260 N   0  0  0  0  0  0  0  0  0  0  0  0
  -24.1940  -10.4450   21.0380 C   0  0  0  0  0  0  0  0  0  0  0  0
  -24.5990   -9.4730   21.9790 C   0  0  0  0  0  3  0  0  0  0  0  0
  -23.8600   -8.2820   22.1420 C   0  0  0  0  0  3  0  0  0  0  0  0
  -22.7000   -8.0540   21.3620 C   0  0  0  0  0  0  0  0  0  0  0  0
  -22.3140   -9.0140   20.4100 C   0  0  0  0  0  3  0  0  0  0  0  0
  -23.0550  -10.1960   20.2460 C   0  0  0  0  0  3  0  0  0  0  0  0
  -21.9340   -6.9160   21.4340 O   0  0  0  0  0  0  0  0  0  0  0  0
  -21.7960   -6.2130   22.6050 C   0  0  0  0  0  0  0  0  0  0  0  0
  -21.2650   -6.8070   23.7710 C   0  0  0  0  0  3  0  0  0  0  0  0
  -21.0750   -6.0310   24.9320 C   0  0  0  0  0  3  0  0  0  0  0  0
  -21.4040   -4.6620   24.9260 C   0  0  0  0  0  0  0  0  0  0  0  0
  -21.9270   -4.0680   23.7640 C   0  0  0  0  0  3  0  0  0  0  0  0
  -22.1190   -4.8410   22.6060 C   0  0  0  0  0  0  0  0  0  0  0  0
  -22.6030   -4.2590   21.4810 F   0  0  0  0  0  0  0  0  0  0  0  0
  -21.2140   -3.9140   26.0380 F   0  0  0  0  0  0  0  0  0  0  0  0
  -23.1020  -13.5460   21.2480 C   0  0  0  0  0  0  0  0  0  0  0  0
  -22.3840  -12.8440   22.1180 N   0  0  0  0  0  0  0  0  0  0  0  0
  -22.6650  -14.5830   20.7510 O   0  0  0  0  0  0  0  0  0  0  0  0
  -22.7510  -12.0040   22.5420 H   0  0  0  0  0  0  0  0  0  0  0  0
  -21.4540  -13.1520   22.3660 H   0  0  0  0  0  0  0  0  0  0  0  0
  -25.7250  -15.2020   20.4130 N   0  0  0  0  0  0  0  0  0  0  0  0
  -24.9530  -15.8470   20.5320 H   0  0  0  0  0  0  0  0  0  0  0  0
  -26.5270  -15.6250   19.9660 H   0  0  0  0  0  0  0  0  0  0  0  0
  -30.2130  -17.7900   22.7130 N   0  0  0  0  0  4  0  0  0  0  0  0
  -29.2100  -17.7630   22.7480 H   0  0  0  0  0  0  0  0  0  0  0  0
  -30.5480  -18.2450   23.5440 H   0  0  0  0  0  0  0  0  0  0  0  0
  -30.5630  -16.8500   22.7120 H   0  0  0  0  0  0  0  0  0  0  0  0
  -28.6860  -21.5960   20.0170 C   0  0  0  0  0  2  0  0  0  0  0  0
  -28.0860  -23.9090   21.3510 C   0  0  0  0  0  2  0  0  0  0  0  0
  -28.9980  -23.2130   20.3540 C   0  0  0  0  0  3  0  0  0  0  0  0
  -28.1220  -24.6160   20.0220 C   0  0  0  0  0  3  0  0  0  0  0  0
  -28.3720  -26.1540   20.2400 O   0  0  0  0  0  0  0  0  0  0  0  0
  -24.7890  -31.8680   23.2690 C   0  0  0  0  0  0  0  0  0  0  0  0
  -27.3230  -27.1530   20.1840 C   0  0  0  0  0  0  0  0  0  0  0  0
  -23.5820  -30.5080   21.6090 C   0  0  0  0  0  3  0  0  0  0  0  0
  -25.0170  -28.9390   20.1680 C   0  0  0  0  0  0  0  0  0  0  0  0
  -26.1400  -30.7440   21.4580 C   0  0  0  0  0  2  0  0  0  0  0  0
  -26.2000  -29.3590   20.7870 C   0  0  0  0  0  0  0  0  0  0  0  0
  -27.3530  -28.4830   20.7780 C   0  0  0  0  0  3  0  0  0  0  0  0
  -26.1120  -26.8460   19.5230 C   0  0  0  0  0  3  0  0  0  0  0  0
  -24.9880  -27.6970   19.5190 C   0  0  0  0  0  3  0  0  0  0  0  0
  -23.8000  -29.8470   20.2230 C   0  0  0  0  0  2  0  0  0  0  0  0
  -24.8580  -31.0610   22.1680 N   0  0  0  0  0  0  0  0  0  0  0  0
  -23.7040  -32.1580   23.7970 O   0  0  0  0  0  0  0  0  0  0  0  0
  -22.8890  -29.4950   22.5560 C   0  0  0  0  0  0  0  0  0  0  0  0
  -21.5640  -29.3140   22.4010 N   0  0  0  0  0  0  0  0  0  0  0  0
  -23.5460  -28.8730   23.3950 O   0  0  0  0  0  0  0  0  0  0  0  0
  -21.0880  -29.8670   21.7000 H   0  0  0  0  0  0  0  0  0  0  0  0
  -18.1870  -28.0690   22.8160 C   0  0  0  0  0  0  0  0  0  0  0  0
  -20.7330  -28.3700   23.1560 C   0  0  0  0  0  3  0  0  0  0  0  0
  -20.8710  -26.9350   22.5960 C   0  0  0  0  0  2  0  0  0  0  0  0
  -19.8050  -26.5900   21.5520 C   0  0  0  0  0  2  0  0  0  0  0  0
  -18.4030  -26.7180   22.1540 C   0  0  0  0  0  2  0  0  0  0  0  0
  -19.2820  -28.8520   23.2710 C   0  0  0  0  0  0  0  0  0  0  0  0
  -19.0250  -30.1140   23.8510 C   0  0  0  0  0  3  0  0  0  0  0  0
  -17.7090  -30.5940   23.9780 C   0  0  0  0  0  3  0  0  0  0  0  0
  -16.6280  -29.8110   23.5370 C   0  0  0  0  0  3  0  0  0  0  0  0
  -16.8680  -28.5490   22.9630 C   0  0  0  0  0  3  0  0  0  0  0  0
  -26.0720  -32.4850   23.9080 C   0  0  0  0  0  3  0  0  0  0  0  0
  -26.5640  -31.7020   25.1880 C   0  0  1  0  0  0  0  0  0  0  0  0
  -25.4560  -31.4710   26.2420 C   0  0  0  0  0  1  0  0  0  0  0  0
  -27.1380  -30.3190   24.8010 C   0  0  0  0  0  1  0  0  0  0  0  0
  -27.7150  -32.4810   25.8650 C   0  0  0  0  0  1  0  0  0  0  0  0
  -25.7740  -33.8860   24.2480 N   0  0  0  0  0  0  0  0  0  0  0  0
  -26.0890  -34.9420   23.4880 C   0  0  0  0  0  0  0  0  0  0  0  0
  -26.7280  -34.8400   22.4370 O   0  0  0  0  0  0  0  0  0  0  0  0
  -25.2040  -34.0390   25.0680 H   0  0  0  0  0  0  0  0  0  0  0  0
  -24.3460  -36.7370   23.2160 C   0  0  0  0  0  1  0  0  0  0  0  0
  -25.6250  -36.3320   23.9660 C   0  0  0  0  0  3  0  0  0  0  0  0
  -27.7930  -37.2230   24.6980 C   0  0  0  0  0  1  0  0  0  0  0  0
  -26.6510  -37.3860   23.8030 N   0  0  0  0  0  0  0  0  0  0  0  0
  -26.2510  -38.3060   23.9630 H   0  0  0  0  0  0  0  0  0  0  0  0
  1  5  1  0
  1  3  1  0
  2  4  1  0
  3 14  1  0
  3  4  1  0
  4 44  1  0
  5  2  1  0
  6 12  1  0
  6 14  1  0
  7 12  1  0
  8  9  1  0
  8  7  1  0
 10  9  1  0
 10 19  1  0
 10 11  1  0
 12 11  1  0
 13  6  2  0
 14 15  1  0
 16 17  2  0
 17 36  1  0
 18 17  1  0
 18 21  1  0
 19 20  1  0
 19 16  1  0
 20 18  2  0
 21 22  1  0
 22 23  2  0
 24 27  1  0
 24 23  1  0
 25 24  2  0
 26 25  1  0
 26 21  2  0
 27 28  1  0
 28 33  2  0
 28 29  1  0
 29 30  2  0
 31 30  1  0
 31 35  1  0
 32 31  2  0
 33 32  1  0
 34 33  1  0
 36 37  1  0
 37 40  1  0
 37 39  1  0
 38 36  2  0
 41 42  1  0
 41 16  1  0
 43 41  1  0
 44 45  1  0
 44 46  1  0
 47 44  1  0
 48  5  1  0
 50 48  1  0
 50 49  1  0
 51 52  1  0
 51 50  1  0
 51 49  1  0
 53 64  2  0
 54 52  1  0
 54 59  1  0
 55 63  1  0
 55 65  1  0
 56 62  1  0
 56 58  1  0
 57 63  1  0
 58 57  1  0
 59 58  2  0
 60 54  2  0
 61 60  1  0
 61 56  2  0
 62 55  1  0
 63 53  1  0
 65 67  2  0
 66 65  1  0
 68 66  1  0
 69 78  2  0
 69 74  1  0
 70 66  1  0
 70 74  1  0
 71 70  1  0
 72 73  1  0
 72 71  1  0
 73 69  1  0
 74 75  2  0
 75 76  1  0
 77 76  2  0
 78 77  1  0
 79 53  1  0
 79 84  1  0
 79 80  1  0
 80 83  1  1
 80 81  1  0
 82 80  1  0
 84 87  1  0
 85 89  1  0
 85 84  1  0
 86 85  2  0
 89 88  1  0
 91 92  1  0
 91 89  1  0
 91 90  1  0
M  ISO  4   6 100  14 100  51 101  52 101
M  END
>  <TORSDO>  (3) 
F 19

>  <SCORE>  (3) 
-13.897

>  <name>  (3) 
2

>  <ligand_id>  (3) 
2

>  <original_smiles>  (3) 
[H]c1c([H])c([H])c2c(c1[H])C([H])([H])C([H])([H])C([H])([H])C2([H])N([H])C(=O)C1([H])N(C(=O)C([H])(N([H])C(=O)C([H])(N([H])C([H])([H])[H])C([H])([H])[H])C(C([H])([H])[H])(C([H])([H])[H])C([H])([H])[H])C([H])([H])c2c([H])c(OC3([H])C([H])([H])C3([H])C([H])([H])N3C([H])([H])C([H])(N([H])C(=O)N4C([H])([H])C([H])([H])C([H])([H])C([H])(n5nc(-c6c([H])c([H])c(Oc7c([H])c([H])c(F)c([H])c7F)c([H])c6[H])c(C(=O)N([H])[H])c5N([H])[H])C4([H])[H])C([H])([N+]([H])([H])[H])C3([H])[H])c([H])c([H])c2C1([H])[H]

>  <smiles>  (3) 
[H]c1c([H])c([H])c2c(c1[H])C([H])([H])C([H])([H])C([H])([H])C2([H])N([H])C(=O)C1([H])N(C(=O)C([H])(N([H])C(=O)C([H])(N([H])C([H])([H])[H])C([H])([H])[H])C(C([H])([H])[H])(C([H])([H])[H])C([H])([H])[H])C([H])([H])c2c([H])c(OC3([H])C([H])([H])C3([H])C([H])([H])N3C([H])([H])C([H])(N([H])C(=O)N4C([H])([H])C([H])([H])C([H])([H])C([H])(n5nc(-c6c([H])c([H])c(Oc7c([H])c([H])c(F)c([H])c7F)c([H])c6[H])c(C(=O)N([H])[H])c5N([H])[H])C4([H])[H])C([H])([N+]([H])([H])[H])C3([H])[H])c([H])c([H])c2C1([H])[H]

$$$$
3:0:0
     RDKit          3D

 92101  0  0  1  0  0  0  0  0999 V2000
  -29.7870  -23.7490   21.2820 C   0  0  0  0  0  2  0  0  0  0  0  0
  -30.1410  -22.2330   21.2630 C   0  0  0  0  0  2  0  0  0  0  0  0
  -28.4510  -22.6300   19.6220 C   0  0  0  0  0  2  0  0  0  0  0  0
  -28.5300  -23.9740   20.4110 C   0  0  0  0  0  3  0  0  0  0  0  0
  -28.9990  -21.4930   20.5430 C   0  0  0  0  0  3  0  0  0  0  0  0
  -29.4200  -20.2450   19.8030 N   0  0  0  0  0  4  0  0  0  0  0  0
  -30.3290  -20.3740   19.3910 H   0  0  0  0  0  0  0  0  0  0  0  0
  -28.7740  -20.2060   19.0310 H   0  0  0  0  0  0  0  0  0  0  0  0
  -30.6820  -14.6580   20.3870 C   0  0  0  0  0  0  0  0  0  0  0  0
  -30.3750  -12.4260   19.3330 C   0  0  0  0  0  2  0  0  0  0  0  0
  -29.4260  -12.5120   18.1200 C   0  0  0  0  0  2  0  0  0  0  0  0
  -27.9670  -12.3190   18.5710 C   0  0  0  0  0  2  0  0  0  0  0  0
  -27.5950  -13.2220   19.7730 C   0  0  0  0  0  3  0  0  0  0  0  0
  -28.6680  -13.1850   20.8870 C   0  0  0  0  0  2  0  0  0  0  0  0
  -29.9720  -13.4870   20.2800 N   0  0  0  0  0  0  0  0  0  0  0  0
  -31.8820  -14.6960   20.1110 O   0  0  0  0  0  0  0  0  0  0  0  0
  -30.5970  -18.3540   21.1270 C   0  0  0  0  0  2  0  0  0  0  0  0
  -29.0330  -17.8090   19.3340 C   0  0  0  0  0  2  0  0  0  0  0  0
  -30.5420  -16.8600   21.6270 C   0  0  0  0  0  2  0  0  0  0  0  0
  -28.9180  -16.3420   19.8350 C   0  0  0  0  0  2  0  0  0  0  0  0
  -29.3120  -18.8660   20.4250 C   0  0  0  0  0  3  0  0  0  0  0  0
  -30.0160  -15.8330   20.6820 N   0  0  0  0  0  0  0  0  0  0  0  0
  -25.2180  -13.8410   20.5090 C   0  0  0  0  0  0  0  0  0  0  0  0
  -24.1510  -13.0730   20.8830 C   0  0  0  0  0  0  0  0  0  0  0  0
  -24.6120  -11.7210   20.8620 C   0  0  0  0  0  0  0  0  0  0  0  0
  -26.2580  -12.9530   20.2790 N   0  0  0  0  0  0  0  0  0  0  0  0
  -25.9020  -11.6760   20.5560 N   0  0  0  0  0  0  0  0  0  0  0  0
  -23.8880  -10.4630   21.0540 C   0  0  0  0  0  0  0  0  0  0  0  0
  -24.3340   -9.4910   21.9780 C   0  0  0  0  0  3  0  0  0  0  0  0
  -23.6110   -8.2940   22.1600 C   0  0  0  0  0  3  0  0  0  0  0  0
  -22.4290   -8.0600   21.4160 C   0  0  0  0  0  0  0  0  0  0  0  0
  -22.0050   -9.0190   20.4810 C   0  0  0  0  0  3  0  0  0  0  0  0
  -22.7280  -10.2090   20.2980 C   0  0  0  0  0  3  0  0  0  0  0  0
  -21.6750   -6.9160   21.5100 O   0  0  0  0  0  0  0  0  0  0  0  0
  -21.6540   -6.1600   22.6540 C   0  0  0  0  0  0  0  0  0  0  0  0
  -21.2730   -6.7050   23.9000 C   0  0  0  0  0  3  0  0  0  0  0  0
  -21.1990   -5.8760   25.0370 C   0  0  0  0  0  3  0  0  0  0  0  0
  -21.4950   -4.5040   24.9300 C   0  0  0  0  0  0  0  0  0  0  0  0
  -21.8720   -3.9600   23.6900 C   0  0  0  0  0  3  0  0  0  0  0  0
  -21.9480   -4.7850   22.5540 C   0  0  0  0  0  0  0  0  0  0  0  0
  -22.2910   -4.2510   21.3570 F   0  0  0  0  0  0  0  0  0  0  0  0
  -21.4160   -3.7060   26.0210 F   0  0  0  0  0  0  0  0  0  0  0  0
  -22.7540  -13.5530   21.1480 C   0  0  0  0  0  0  0  0  0  0  0  0
  -22.0260  -12.8640   22.0170 N   0  0  0  0  0  0  0  0  0  0  0  0
  -22.3180  -14.5740   20.6170 O   0  0  0  0  0  0  0  0  0  0  0  0
  -22.3920  -12.0370   22.4660 H   0  0  0  0  0  0  0  0  0  0  0  0
  -21.0880  -13.1650   22.2400 H   0  0  0  0  0  0  0  0  0  0  0  0
  -25.3800  -15.2110   20.3190 N   0  0  0  0  0  0  0  0  0  0  0  0
  -24.6080  -15.8620   20.4170 H   0  0  0  0  0  0  0  0  0  0  0  0
  -26.2220  -15.6460   19.9700 H   0  0  0  0  0  0  0  0  0  0  0  0
  -28.5270  -25.2880   19.5240 C   0  0  0  0  0  2  0  0  0  0  0  0
  -28.3990  -26.5970   20.1750 O   0  0  0  0  0  0  0  0  0  0  0  0
  -24.6170  -31.8820   23.2190 C   0  0  0  0  0  0  0  0  0  0  0  0
  -27.2260  -27.3590   20.1330 C   0  0  0  0  0  0  0  0  0  0  0  0
  -23.4020  -30.4840   21.5840 C   0  0  0  0  0  3  0  0  0  0  0  0
  -24.8440  -28.9350   20.1530 C   0  0  0  0  0  0  0  0  0  0  0  0
  -25.9330  -30.8170   21.3750 C   0  0  0  0  0  2  0  0  0  0  0  0
  -26.0110  -29.4370   20.7370 C   0  0  0  0  0  0  0  0  0  0  0  0
  -27.2010  -28.6570   20.7210 C   0  0  0  0  0  3  0  0  0  0  0  0
  -26.0240  -26.8870   19.5510 C   0  0  0  0  0  3  0  0  0  0  0  0
  -24.8490  -27.6640   19.5560 C   0  0  0  0  0  3  0  0  0  0  0  0
  -23.6060  -29.8060   20.2040 C   0  0  0  0  0  2  0  0  0  0  0  0
  -24.6700  -31.0780   22.1180 N   0  0  0  0  0  0  0  0  0  0  0  0
  -23.5370  -32.1560   23.7620 O   0  0  0  0  0  0  0  0  0  0  0  0
  -22.7490  -29.4640   22.5470 C   0  0  0  0  0  0  0  0  0  0  0  0
  -21.4220  -29.2850   22.4250 N   0  0  0  0  0  0  0  0  0  0  0  0
  -23.4330  -28.8390   23.3610 O   0  0  0  0  0  0  0  0  0  0  0  0
  -20.9280  -29.8460   21.7450 H   0  0  0  0  0  0  0  0  0  0  0  0
  -18.0530  -28.0770   22.9270 C   0  0  0  0  0  0  0  0  0  0  0  0
  -20.6090  -28.3470   23.2020 C   0  0  0  0  0  3  0  0  0  0  0  0
  -20.7170  -26.9140   22.6300 C   0  0  0  0  0  2  0  0  0  0  0  0
  -19.6180  -26.5840   21.6170 C   0  0  0  0  0  2  0  0  0  0  0  0
  -18.2360  -26.7260   22.2590 C   0  0  0  0  0  2  0  0  0  0  0  0
  -19.1680  -28.8450   23.3560 C   0  0  0  0  0  0  0  0  0  0  0  0
  -18.9420  -30.1100   23.9420 C   0  0  0  0  0  3  0  0  0  0  0  0
  -17.6350  -30.6060   24.1050 C   0  0  0  0  0  3  0  0  0  0  0  0
  -16.5350  -29.8360   23.6930 C   0  0  0  0  0  3  0  0  0  0  0  0
  -16.7450  -28.5740   23.1080 C   0  0  0  0  0  3  0  0  0  0  0  0
  -25.9030  -32.5130   23.8350 C   0  0  0  0  0  3  0  0  0  0  0  0
  -25.5930  -33.9090   24.1750 N   0  0  0  0  0  0  0  0  0  0  0  0
  -25.9200  -34.9660   23.4200 C   0  0  0  0  0  0  0  0  0  0  0  0
  -26.5850  -34.8680   22.3850 O   0  0  0  0  0  0  0  0  0  0  0  0
  -24.9960  -34.0580   24.9750 H   0  0  0  0  0  0  0  0  0  0  0  0
  -24.1870  -36.7590   23.0860 C   0  0  0  0  0  1  0  0  0  0  0  0
  -25.4340  -36.3520   23.8870 C   0  0  0  0  0  3  0  0  0  0  0  0
  -27.5720  -37.2360   24.7080 C   0  0  0  0  0  1  0  0  0  0  0  0
  -26.4640  -37.4070   23.7720 N   0  0  0  0  0  0  0  0  0  0  0  0
  -26.0560  -38.3260   23.9290 H   0  0  0  0  0  0  0  0  0  0  0  0
  -26.4330  -31.7360   25.1020 C   0  0  1  0  0  0  0  0  0  0  0  0
  -25.3490  -31.4830   26.1770 C   0  0  0  0  0  1  0  0  0  0  0  0
  -27.0130  -30.3630   24.6900 C   0  0  0  0  0  1  0  0  0  0  0  0
  -27.5890  -32.5250   25.7590 C   0  0  0  0  0  1  0  0  0  0  0  0
  2  1  1  0
  3  4  1  0
  3  5  1  0
  4 51  1  0
  4  1  1  0
  5  6  1  0
  5  2  1  0
  7  6  1  0
  8  6  1  0
  9 22  1  0
 10 15  1  0
 11 12  1  0
 11 10  1  0
 13 12  1  0
 13 26  1  0
 13 14  1  0
 15  9  1  0
 15 14  1  0
 16  9  2  0
 17 19  1  0
 18 20  1  0
 18 21  1  0
 20 22  1  0
 21  6  1  0
 21 17  1  0
 22 19  1  0
 23 24  2  0
 24 43  1  0
 25 24  1  0
 25 28  1  0
 26 23  1  0
 26 27  1  0
 27 25  2  0
 28 29  1  0
 29 30  2  0
 31 34  1  0
 31 30  1  0
 32 31  2  0
 33 32  1  0
 33 28  2  0
 34 35  1  0
 35 36  1  0
 36 37  2  0
 38 37  1  0
 38 42  1  0
 39 38  2  0
 40 35  2  0
 40 39  1  0
 41 40  1  0
 43 44  1  0
 44 47  1  0
 44 46  1  0
 45 43  2  0
 48 49  1  0
 48 23  1  0
 50 48  1  0
 51 52  1  0
 53 64  2  0
 54 52  1  0
 54 59  1  0
 55 63  1  0
 55 65  1  0
 56 62  1  0
 56 58  1  0
 57 63  1  0
 58 57  1  0
 59 58  2  0
 60 61  1  0
 60 54  2  0
 61 56  2  0
 62 55  1  0
 63 53  1  0
 65 67  2  0
 66 65  1  0
 68 66  1  0
 69 78  2  0
 69 74  1  0
 70 66  1  0
 70 74  1  0
 71 70  1  0
 72 73  1  0
 72 71  1  0
 73 69  1  0
 74 75  2  0
 75 76  1  0
 77 76  2  0
 78 77  1  0
 79 53  1  0
 79 80  1  0
 79 89  1  0
 80 83  1  0
 81 85  1  0
 81 80  1  0
 82 81  2  0
 85 84  1  0
 87 85  1  0
 87 88  1  0
 87 86  1  0
 89 92  1  1
 89 90  1  0
 91 89  1  0
M  ISO  4   9 100  22 100  51 101  52 101
M  END
>  <TORSDO>  (4) 
F 18

>  <SCORE>  (4) 
-14.898

>  <name>  (4) 
3

>  <ligand_id>  (4) 
3

>  <original_smiles>  (4) 
[H]c1c([H])c([H])c2c(c1[H])C([H])([H])C([H])([H])C([H])([H])C2([H])N([H])C(=O)C1([H])N(C(=O)C([H])(N([H])C(=O)C([H])(N([H])C([H])([H])[H])C([H])([H])[H])C(C([H])([H])[H])(C([H])([H])[H])C([H])([H])[H])C([H])([H])c2c([H])c(OC([H])([H])C3([H])C([H])([H])C([H])([H])C([H])([N+]([H])([H])C4([H])C([H])([H])C([H])([H])N(C(=O)N5C([H])([H])C([H])([H])C([H])([H])C([H])(n6nc(-c7c([H])c([H])c(Oc8c([H])c([H])c(F)c([H])c8F)c([H])c7[H])c(C(=O)N([H])[H])c6N([H])[H])C5([H])[H])C([H])([H])C4([H])[H])C3([H])[H])c([H])c([H])c2C1([H])[H]

>  <smiles>  (4) 
[H]c1c([H])c([H])c2c(c1[H])C([H])([H])C([H])([H])C([H])([H])C2([H])N([H])C(=O)C1([H])N(C(=O)C([H])(N([H])C(=O)C([H])(N([H])C([H])([H])[H])C([H])([H])[H])C(C([H])([H])[H])(C([H])([H])[H])C([H])([H])[H])C([H])([H])c2c([H])c(OC([H])([H])C3([H])C([H])([H])C([H])([H])C([H])([N+]([H])([H])C4([H])C([H])([H])C([H])([H])N(C(=O)N5C([H])([H])C([H])([H])C([H])([H])C([H])(n6nc(-c7c([H])c([H])c(Oc8c([H])c([H])c(F)c([H])c8F)c([H])c7[H])c(C(=O)N([H])[H])c6N([H])[H])C5([H])[H])C([H])([H])C4([H])[H])C3([H])[H])c([H])c([H])c2C1([H])[H]

$$$$
4:0:0
     RDKit          3D

 94103  0  0  1  0  0  0  0  0999 V2000
  -30.7170  -14.6040   20.4580 C   0  0  0  0  0  0  0  0  0  0  0  0
  -30.4230  -12.3550   19.4810 C   0  0  0  0  0  2  0  0  0  0  0  0
  -29.5300  -12.4860   18.2280 C   0  0  0  0  0  2  0  0  0  0  0  0
  -28.0420  -12.3810   18.6170 C   0  0  0  0  0  2  0  0  0  0  0  0
  -27.6680  -13.2950   19.8160 C   0  0  0  0  0  3  0  0  0  0  0  0
  -28.6910  -13.1720   20.9700 C   0  0  0  0  0  2  0  0  0  0  0  0
  -30.0280  -13.4270   20.4140 N   0  0  0  0  0  0  0  0  0  0  0  0
  -31.9000  -14.6480   20.1090 O   0  0  0  0  0  0  0  0  0  0  0  0
  -29.3260  -18.1160   20.5070 C   0  0  0  0  0  3  0  0  0  0  0  0
  -31.0170  -19.8180   20.1470 C   0  0  0  0  0  0  0  0  0  0  0  0
  -29.6800  -19.4830   20.3060 C   0  0  0  0  0  0  0  0  0  0  0  0
  -31.9910  -18.8060   20.1950 C   0  0  0  0  0  0  0  0  0  0  0  0
  -30.3560  -17.1200   20.5320 C   0  0  0  0  0  0  0  0  0  0  0  0
  -31.1560  -21.2750   19.9410 C   0  0  0  0  0  0  0  0  0  0  0  0
  -29.8020  -21.8820   19.9680 C   0  0  0  0  0  0  0  0  0  0  0  0
  -29.6400  -23.2180   19.7290 C   0  0  0  0  0  3  0  0  0  0  0  0
  -28.7960  -20.7380   20.2350 C   0  0  0  0  0  3  0  0  0  0  0  0
  -33.4720  -19.0910   20.0230 C   0  0  0  0  0  1  0  0  0  0  0  0
  -27.9970  -20.9290   21.5350 C   0  0  0  0  0  1  0  0  0  0  0  0
  -31.6530  -17.5080   20.3900 N   0  0  0  0  0  0  0  0  0  0  0  0
  -29.9840  -15.7310   20.7020 N   0  0  0  0  0  0  0  0  0  0  0  0
  -32.2170  -21.8810   19.7730 O   0  0  0  0  0  0  0  0  0  0  0  0
  -29.0180  -15.5640   20.9280 H   0  0  0  0  0  0  0  0  0  0  0  0
  -25.2710  -13.9590   20.4580 C   0  0  0  0  0  0  0  0  0  0  0  0
  -24.1800  -13.2160   20.8180 C   0  0  0  0  0  0  0  0  0  0  0  0
  -24.6140  -11.8560   20.8280 C   0  0  0  0  0  0  0  0  0  0  0  0
  -26.3030  -13.0520   20.2710 N   0  0  0  0  0  0  0  0  0  0  0  0
  -25.9110  -11.7830   20.5540 N   0  0  0  0  0  0  0  0  0  0  0  0
  -23.8570  -10.6130   21.0250 C   0  0  0  0  0  0  0  0  0  0  0  0
  -24.2640   -9.6390   21.9640 C   0  0  0  0  0  3  0  0  0  0  0  0
  -23.5110   -8.4620   22.1490 C   0  0  0  0  0  3  0  0  0  0  0  0
  -22.3330   -8.2470   21.3940 C   0  0  0  0  0  0  0  0  0  0  0  0
  -21.9430   -9.2080   20.4430 C   0  0  0  0  0  3  0  0  0  0  0  0
  -22.6980  -10.3770   20.2570 C   0  0  0  0  0  3  0  0  0  0  0  0
  -21.5500   -7.1220   21.4870 O   0  0  0  0  0  0  0  0  0  0  0  0
  -21.5020   -6.3720   22.6350 C   0  0  0  0  0  0  0  0  0  0  0  0
  -21.1320   -6.9320   23.8770 C   0  0  0  0  0  3  0  0  0  0  0  0
  -21.0290   -6.1110   25.0180 C   0  0  0  0  0  3  0  0  0  0  0  0
  -21.2850   -4.7300   24.9170 C   0  0  0  0  0  0  0  0  0  0  0  0
  -21.6490   -4.1690   23.6800 C   0  0  0  0  0  3  0  0  0  0  0  0
  -21.7540   -4.9880   22.5420 C   0  0  0  0  0  0  0  0  0  0  0  0
  -22.0830   -4.4390   21.3480 F   0  0  0  0  0  0  0  0  0  0  0  0
  -21.1790   -3.9380   26.0100 F   0  0  0  0  0  0  0  0  0  0  0  0
  -22.7860  -13.7280   21.0430 C   0  0  0  0  0  0  0  0  0  0  0  0
  -22.0250  -13.0730   21.9130 N   0  0  0  0  0  0  0  0  0  0  0  0
  -22.3810  -14.7440   20.4810 O   0  0  0  0  0  0  0  0  0  0  0  0
  -22.3660  -12.2510   22.3900 H   0  0  0  0  0  0  0  0  0  0  0  0
  -21.0890  -13.3980   22.1030 H   0  0  0  0  0  0  0  0  0  0  0  0
  -25.4690  -15.3220   20.2550 N   0  0  0  0  0  0  0  0  0  0  0  0
  -24.7050  -15.9880   20.3160 H   0  0  0  0  0  0  0  0  0  0  0  0
  -26.3210  -15.7310   19.8960 H   0  0  0  0  0  0  0  0  0  0  0  0
  -28.3750  -24.0900   19.6280 C   0  0  0  0  0  2  0  0  0  0  0  0
  -28.4140  -25.4010   20.4870 C   0  0  0  0  0  2  0  0  0  0  0  0
  -28.4700  -26.6690   19.7790 O   0  0  0  0  0  0  0  0  0  0  0  0
  -24.5170  -31.6750   23.0240 C   0  0  0  0  0  0  0  0  0  0  0  0
  -27.3030  -27.4120   19.7940 C   0  0  0  0  0  0  0  0  0  0  0  0
  -23.3600  -30.2920   21.3340 C   0  0  0  0  0  3  0  0  0  0  0  0
  -24.8640  -28.8560   19.8510 C   0  0  0  0  0  0  0  0  0  0  0  0
  -25.8730  -30.7410   21.1470 C   0  0  0  0  0  2  0  0  0  0  0  0
  -26.0080  -29.3960   20.4540 C   0  0  0  0  0  0  0  0  0  0  0  0
  -27.2340  -28.6850   20.4160 C   0  0  0  0  0  3  0  0  0  0  0  0
  -26.1430  -26.8940   19.1820 C   0  0  0  0  0  3  0  0  0  0  0  0
  -24.9290  -27.6070   19.2080 C   0  0  0  0  0  3  0  0  0  0  0  0
  -23.5910  -29.6690   19.9310 C   0  0  0  0  0  2  0  0  0  0  0  0
  -24.6020  -30.9170   21.8930 N   0  0  0  0  0  0  0  0  0  0  0  0
  -23.4280  -31.8880   23.5740 O   0  0  0  0  0  0  0  0  0  0  0  0
  -22.7460  -29.2140   22.2580 C   0  0  0  0  0  0  0  0  0  0  0  0
  -21.4220  -29.0150   22.1530 N   0  0  0  0  0  0  0  0  0  0  0  0
  -23.4590  -28.5630   23.0270 O   0  0  0  0  0  0  0  0  0  0  0  0
  -20.9060  -29.5940   21.5040 H   0  0  0  0  0  0  0  0  0  0  0  0
  -18.0770  -27.7570   22.6890 C   0  0  0  0  0  0  0  0  0  0  0  0
  -20.6400  -28.0250   22.8950 C   0  0  0  0  0  3  0  0  0  0  0  0
  -20.7360  -26.6320   22.2330 C   0  0  0  0  0  2  0  0  0  0  0  0
  -19.6040  -26.3570   21.2370 C   0  0  0  0  0  2  0  0  0  0  0  0
  -18.2420  -26.4520   21.9310 C   0  0  0  0  0  2  0  0  0  0  0  0
  -19.2020  -28.5040   23.1270 C   0  0  0  0  0  0  0  0  0  0  0  0
  -18.9930  -29.7300   23.7950 C   0  0  0  0  0  3  0  0  0  0  0  0
  -17.6900  -30.2080   24.0310 C   0  0  0  0  0  3  0  0  0  0  0  0
  -16.5790  -29.4550   23.6100 C   0  0  0  0  0  3  0  0  0  0  0  0
  -16.7740  -28.2330   22.9440 C   0  0  0  0  0  3  0  0  0  0  0  0
  -25.7810  -32.3290   23.6660 C   0  0  0  0  0  3  0  0  0  0  0  0
  -25.4190  -33.6970   24.0610 N   0  0  0  0  0  0  0  0  0  0  0  0
  -25.6970  -34.7940   23.3440 C   0  0  0  0  0  0  0  0  0  0  0  0
  -26.3570  -34.7640   22.3020 O   0  0  0  0  0  0  0  0  0  0  0  0
  -24.8300  -33.7920   24.8760 H   0  0  0  0  0  0  0  0  0  0  0  0
  -23.8840  -36.5180   23.0940 C   0  0  0  0  0  1  0  0  0  0  0  0
  -25.1570  -36.1390   23.8670 C   0  0  0  0  0  3  0  0  0  0  0  0
  -27.2670  -37.0820   24.6940 C   0  0  0  0  0  1  0  0  0  0  0  0
  -26.1390  -37.2410   23.7800 N   0  0  0  0  0  0  0  0  0  0  0  0
  -25.6960  -38.1340   23.9740 H   0  0  0  0  0  0  0  0  0  0  0  0
  -26.3400  -31.5210   24.9020 C   0  0  1  0  0  0  0  0  0  0  0  0
  -25.2690  -31.1970   25.9670 C   0  0  0  0  0  1  0  0  0  0  0  0
  -26.9680  -30.1850   24.4410 C   0  0  0  0  0  1  0  0  0  0  0  0
  -27.4690  -32.3270   25.5870 C   0  0  0  0  0  1  0  0  0  0  0  0
  1 21  1  0
  2  7  1  0
  3  4  1  0
  3  2  1  0
  5  4  1  0
  5 27  1  0
  5  6  1  0
  7  1  1  0
  7  6  1  0
  8  1  2  0
  9 13  1  0
 10 12  2  0
 10 11  1  0
 11  9  2  0
 12 20  1  0
 13 21  1  0
 14 15  1  0
 14 10  1  0
 15 17  1  0
 16 15  2  0
 17 11  1  0
 17 19  1  0
 18 12  1  0
 20 13  2  0
 21 23  1  0
 22 14  2  0
 24 25  2  0
 25 26  1  0
 25 44  1  0
 26 29  1  0
 27 24  1  0
 27 28  1  0
 28 26  2  0
 29 30  1  0
 30 31  2  0
 32 35  1  0
 32 31  1  0
 33 32  2  0
 34 33  1  0
 34 29  2  0
 35 36  1  0
 36 37  1  0
 37 38  2  0
 39 38  1  0
 39 43  1  0
 40 39  2  0
 41 36  2  0
 41 40  1  0
 42 41  1  0
 44 45  1  0
 45 48  1  0
 45 47  1  0
 46 44  2  0
 49 50  1  0
 49 24  1  0
 51 49  1  0
 52 16  1  0
 52 53  1  0
 54 56  1  0
 54 53  1  0
 55 66  2  0
 56 61  1  0
 57 65  1  0
 57 67  1  0
 58 64  1  0
 58 60  1  0
 59 65  1  0
 60 59  1  0
 61 60  2  0
 62 63  1  0
 62 56  2  0
 63 58  2  0
 64 57  1  0
 65 55  1  0
 67 69  2  0
 68 67  1  0
 70 68  1  0
 71 80  2  0
 71 76  1  0
 72 68  1  0
 72 76  1  0
 73 72  1  0
 74 75  1  0
 74 73  1  0
 75 71  1  0
 76 77  2  0
 77 78  1  0
 79 78  2  0
 80 79  1  0
 81 55  1  0
 81 82  1  0
 81 91  1  0
 82 85  1  0
 83 87  1  0
 83 82  1  0
 84 83  2  0
 87 86  1  0
 89 87  1  0
 89 90  1  0
 89 88  1  0
 91 94  1  1
 91 92  1  0
 93 91  1  0
M  ISO  4   1 100  21 100  53 101  54 101
M  END
>  <TORSDO>  (5) 
F 17

>  <SCORE>  (5) 
-14.274

>  <name>  (5) 
4

>  <ligand_id>  (5) 
4

>  <original_smiles>  (5) 
[H]C(=C1C(=O)c2c(C([H])([H])[H])nc(N([H])C(=O)N3C([H])([H])C([H])([H])C([H])([H])C([H])(n4nc(-c5c([H])c([H])c(Oc6c([H])c([H])c(F)c([H])c6F)c([H])c5[H])c(C(=O)N([H])[H])c4N([H])[H])C3([H])[H])c([H])c2C1([H])C([H])([H])[H])C([H])([H])C([H])([H])Oc1c([H])c([H])c2c(c1[H])C([H])([H])N(C(=O)C([H])(N([H])C(=O)C([H])(N([H])C([H])([H])[H])C([H])([H])[H])C(C([H])([H])[H])(C([H])([H])[H])C([H])([H])[H])C([H])(C(=O)N([H])C1([H])c3c([H])c([H])c([H])c([H])c3C([H])([H])C([H])([H])C1([H])[H])C2([H])[H]

>  <smiles>  (5) 
[H]C(=C1C(=O)c2c(C([H])([H])[H])nc(N([H])C(=O)N3C([H])([H])C([H])([H])C([H])([H])C([H])(n4nc(-c5c([H])c([H])c(Oc6c([H])c([H])c(F)c([H])c6F)c([H])c5[H])c(C(=O)N([H])[H])c4N([H])[H])C3([H])[H])c([H])c2C1([H])C([H])([H])[H])C([H])([H])C([H])([H])Oc1c([H])c([H])c2c(c1[H])C([H])([H])N(C(=O)C([H])(N([H])C(=O)C([H])(N([H])C([H])([H])[H])C([H])([H])[H])C(C([H])([H])[H])(C([H])([H])[H])C([H])([H])[H])C([H])(C(=O)N([H])C1([H])c3c([H])c([H])c([H])c([H])c3C([H])([H])C([H])([H])C1([H])[H])C2([H])[H]

$$$$
5:0:0
     RDKit          3D

 99108  0  0  1  0  0  0  0  0999 V2000
  -29.7590  -19.8870   16.9890 C   0  0  0  0  0  3  0  0  0  0  0  0
  -30.7200  -20.7990   17.2320 C   0  0  0  0  0  3  0  0  0  0  0  0
  -29.5460  -19.3550   19.2670 C   0  0  0  0  0  0  0  0  0  0  0  0
  -30.7070  -20.3120   19.5790 C   0  0  0  0  0  0  0  0  0  0  0  0
  -29.1660  -19.1690   18.0360 N   0  0  0  0  0  0  0  0  0  0  0  0
  -31.1870  -21.0490   18.5390 N   0  0  0  0  0  0  0  0  0  0  0  0
  -29.0700  -18.7050   20.4020 N   0  0  0  0  0  0  0  0  0  0  0  0
  -31.1470  -20.3680   20.7330 O   0  0  0  0  0  0  0  0  0  0  0  0
  -29.1770  -19.1580   21.2950 H   0  0  0  0  0  0  0  0  0  0  0  0
  -30.7560  -14.1430   19.8110 C   0  0  0  0  0  0  0  0  0  0  0  0
  -30.2400  -12.1800   18.4140 C   0  0  0  0  0  2  0  0  0  0  0  0
  -29.1320  -12.6180   17.4370 C   0  0  0  0  0  2  0  0  0  0  0  0
  -27.7130  -12.5060   18.0580 C   0  0  0  0  0  2  0  0  0  0  0  0
  -27.6280  -13.1000   19.4870 C   0  0  0  0  0  3  0  0  0  0  0  0
  -28.8210  -12.5650   20.3140 C   0  0  0  0  0  2  0  0  0  0  0  0
  -30.0620  -12.9770   19.6340 N   0  0  0  0  0  0  0  0  0  0  0  0
  -31.8000  -14.3860   19.1880 O   0  0  0  0  0  0  0  0  0  0  0  0
  -29.2980  -16.7640   21.9150 C   0  0  0  0  0  2  0  0  0  0  0  0
  -29.6180  -15.2850   21.7220 C   0  0  0  0  0  2  0  0  0  0  0  0
  -29.9950  -16.4560   19.6810 C   0  0  0  0  0  2  0  0  0  0  0  0
  -28.9680  -17.2530   20.5050 C   0  0  0  0  0  3  0  0  0  0  0  0
  -30.0420  -15.1530   20.3270 N   0  0  0  0  0  0  0  0  0  0  0  0
  -25.3540  -13.6950   20.5430 C   0  0  0  0  0  0  0  0  0  0  0  0
  -24.3260  -12.9170   21.0060 C   0  0  0  0  0  0  0  0  0  0  0  0
  -24.7360  -11.5640   20.8000 C   0  0  0  0  0  0  0  0  0  0  0  0
  -26.3370  -12.8160   20.1140 N   0  0  0  0  0  0  0  0  0  0  0  0
  -25.9690  -11.5220   20.3080 N   0  0  0  0  0  0  0  0  0  0  0  0
  -24.0010  -10.3030   20.9860 C   0  0  0  0  0  0  0  0  0  0  0  0
  -24.4880   -9.2770   21.8260 C   0  0  0  0  0  3  0  0  0  0  0  0
  -23.7520   -8.0850   22.0020 C   0  0  0  0  0  3  0  0  0  0  0  0
  -22.5100   -7.9120   21.3470 C   0  0  0  0  0  0  0  0  0  0  0  0
  -22.0420   -8.9270   20.4920 C   0  0  0  0  0  3  0  0  0  0  0  0
  -22.7820  -10.1080   20.3130 C   0  0  0  0  0  3  0  0  0  0  0  0
  -21.7410   -6.7770   21.4420 O   0  0  0  0  0  0  0  0  0  0  0  0
  -21.7250   -6.0130   22.5860 C   0  0  0  0  0  0  0  0  0  0  0  0
  -21.3620   -6.5550   23.8370 C   0  0  0  0  0  3  0  0  0  0  0  0
  -21.2870   -5.7200   24.9700 C   0  0  0  0  0  3  0  0  0  0  0  0
  -21.5680   -4.3430   24.8520 C   0  0  0  0  0  0  0  0  0  0  0  0
  -21.9250   -3.8020   23.6080 C   0  0  0  0  0  3  0  0  0  0  0  0
  -22.0010   -4.6320   22.4740 C   0  0  0  0  0  0  0  0  0  0  0  0
  -22.3240   -4.1040   21.2710 F   0  0  0  0  0  0  0  0  0  0  0  0
  -21.4900   -3.5400   25.9390 F   0  0  0  0  0  0  0  0  0  0  0  0
  -22.9940  -13.3980   21.5110 C   0  0  0  0  0  0  0  0  0  0  0  0
  -22.3820  -12.6540   22.4270 N   0  0  0  0  0  0  0  0  0  0  0  0
  -22.5110  -14.4620   21.1340 O   0  0  0  0  0  0  0  0  0  0  0  0
  -22.7930  -11.7930   22.7610 H   0  0  0  0  0  0  0  0  0  0  0  0
  -21.4920  -12.9500   22.8130 H   0  0  0  0  0  0  0  0  0  0  0  0
  -25.5350  -15.0730   20.4360 N   0  0  0  0  0  0  0  0  0  0  0  0
  -24.8170  -15.7470   20.6720 H   0  0  0  0  0  0  0  0  0  0  0  0
  -26.3130  -15.4770   19.9330 H   0  0  0  0  0  0  0  0  0  0  0  0
  -32.2420  -22.0750   18.7100 C   0  0  0  0  0  2  0  0  0  0  0  0
  -32.1700  -23.3960   20.9610 C   0  0  0  0  0  1  0  0  0  0  0  0
  -31.8250  -23.3780   19.4570 C   0  0  0  0  0  3  0  0  0  0  0  0
  -30.3980  -23.7020   19.2390 N   0  0  0  0  0  4  0  0  0  0  0  0
  -30.1690  -23.5660   18.2650 H   0  0  0  0  0  0  0  0  0  0  0  0
  -29.8310  -23.0710   19.7830 H   0  0  0  0  0  0  0  0  0  0  0  0
  -30.0530  -25.0880   19.5900 C   0  0  0  0  0  2  0  0  0  0  0  0
  -28.5750  -25.3950   19.3990 C   0  0  0  0  0  2  0  0  0  0  0  0
  -28.4830  -26.7120   19.8930 O   0  0  0  0  0  0  0  0  0  0  0  0
  -24.5660  -31.6140   23.0980 C   0  0  0  0  0  0  0  0  0  0  0  0
  -27.2640  -27.3290   19.8990 C   0  0  0  0  0  0  0  0  0  0  0  0
  -23.3660  -30.2240   21.4390 C   0  0  0  0  0  3  0  0  0  0  0  0
  -24.8340  -28.7460   19.9750 C   0  0  0  0  0  0  0  0  0  0  0  0
  -25.8820  -30.6420   21.2360 C   0  0  0  0  0  2  0  0  0  0  0  0
  -25.9830  -29.2960   20.5550 C   0  0  0  0  0  0  0  0  0  0  0  0
  -27.1990  -28.5920   20.5110 C   0  0  0  0  0  3  0  0  0  0  0  0
  -26.0960  -26.7750   19.3180 C   0  0  0  0  0  3  0  0  0  0  0  0
  -24.8820  -27.4840   19.3600 C   0  0  0  0  0  3  0  0  0  0  0  0
  -23.5730  -29.5760   20.0440 C   0  0  0  0  0  2  0  0  0  0  0  0
  -24.6210  -30.8400   21.9790 N   0  0  0  0  0  0  0  0  0  0  0  0
  -23.4850  -31.8570   23.6520 O   0  0  0  0  0  0  0  0  0  0  0  0
  -22.7470  -29.1690   22.3810 C   0  0  0  0  0  0  0  0  0  0  0  0
  -21.4260  -28.9590   22.2430 N   0  0  0  0  0  0  0  0  0  0  0  0
  -23.4460  -28.5500   23.1830 O   0  0  0  0  0  0  0  0  0  0  0  0
  -20.9330  -29.5000   21.5520 H   0  0  0  0  0  0  0  0  0  0  0  0
  -18.0790  -27.6980   22.7200 C   0  0  0  0  0  0  0  0  0  0  0  0
  -20.6310  -27.9990   23.0040 C   0  0  0  0  0  3  0  0  0  0  0  0
  -20.7620  -26.5800   22.4080 C   0  0  0  0  0  2  0  0  0  0  0  0
  -19.6670  -26.2500   21.3860 C   0  0  0  0  0  2  0  0  0  0  0  0
  -18.2810  -26.3600   22.0300 C   0  0  0  0  0  2  0  0  0  0  0  0
  -19.1850  -28.4710   23.1630 C   0  0  0  0  0  0  0  0  0  0  0  0
  -18.9410  -29.7240   23.7700 C   0  0  0  0  0  3  0  0  0  0  0  0
  -17.6290  -30.2020   23.9320 C   0  0  0  0  0  3  0  0  0  0  0  0
  -16.5370  -29.4250   23.5060 C   0  0  0  0  0  3  0  0  0  0  0  0
  -16.7660  -28.1720   22.9060 C   0  0  0  0  0  3  0  0  0  0  0  0
  -25.8540  -32.2430   23.7180 C   0  0  0  0  0  3  0  0  0  0  0  0
  -25.5290  -33.6280   24.0770 N   0  0  0  0  0  0  0  0  0  0  0  0
  -25.8290  -34.6960   23.3270 C   0  0  0  0  0  0  0  0  0  0  0  0
  -26.4780  -34.6210   22.2810 O   0  0  0  0  0  0  0  0  0  0  0  0
  -24.9460  -33.7620   24.8910 H   0  0  0  0  0  0  0  0  0  0  0  0
  -24.0460  -36.4410   23.0400 C   0  0  0  0  0  1  0  0  0  0  0  0
  -25.3230  -36.0660   23.8110 C   0  0  0  0  0  3  0  0  0  0  0  0
  -27.4590  -36.9900   24.5860 C   0  0  0  0  0  1  0  0  0  0  0  0
  -26.3250  -37.1440   23.6780 N   0  0  0  0  0  0  0  0  0  0  0  0
  -25.9050  -38.0540   23.8480 H   0  0  0  0  0  0  0  0  0  0  0  0
  -26.3980  -31.4470   24.9680 C   0  0  1  0  0  0  0  0  0  0  0  0
  -25.3180  -31.1700   26.0380 C   0  0  0  0  0  1  0  0  0  0  0  0
  -26.9950  -30.0820   24.5430 C   0  0  0  0  0  1  0  0  0  0  0  0
  -27.5470  -32.2420   25.6270 C   0  0  0  0  0  1  0  0  0  0  0  0
  1  2  2  0
  1  5  1  0
  2  6  1  0
  3  4  1  0
  3  7  1  0
  4  8  2  0
  5  3  2  0
  6 51  1  0
  6  4  1  0
  7  9  1  0
 10 22  1  0
 11 16  1  0
 12 13  1  0
 12 11  1  0
 14 13  1  0
 14 26  1  0
 14 15  1  0
 16 10  1  0
 16 15  1  0
 17 10  2  0
 19 18  1  0
 20 22  1  0
 20 21  1  0
 21  7  1  0
 21 18  1  0
 22 19  1  0
 23 24  2  0
 24 43  1  0
 25 28  1  0
 25 24  1  0
 26 27  1  0
 26 23  1  0
 27 25  2  0
 28 29  1  0
 29 30  2  0
 31 34  1  0
 31 30  1  0
 32 31  2  0
 33 32  1  0
 33 28  2  0
 34 35  1  0
 35 36  1  0
 36 37  2  0
 38 37  1  0
 38 42  1  0
 39 38  2  0
 40 35  2  0
 40 39  1  0
 41 40  1  0
 43 44  1  0
 44 46  1  0
 44 47  1  0
 45 43  2  0
 48 23  1  0
 48 49  1  0
 50 48  1  0
 51 53  1  0
 53 52  1  0
 54 53  1  0
 54 57  1  0
 54 56  1  0
 55 54  1  0
 58 57  1  0
 58 59  1  0
 59 61  1  0
 60 71  2  0
 61 66  1  0
 62 70  1  0
 62 72  1  0
 63 69  1  0
 63 65  1  0
 64 70  1  0
 65 64  1  0
 66 65  2  0
 67 68  1  0
 67 61  2  0
 68 63  2  0
 69 62  1  0
 70 60  1  0
 72 74  2  0
 73 72  1  0
 75 73  1  0
 76 85  2  0
 76 81  1  0
 77 73  1  0
 77 81  1  0
 78 77  1  0
 79 80  1  0
 79 78  1  0
 80 76  1  0
 81 82  2  0
 82 83  1  0
 84 83  2  0
 85 84  1  0
 86 60  1  0
 86 87  1  0
 86 96  1  0
 87 90  1  0
 88 92  1  0
 88 87  1  0
 89 88  2  0
 92 91  1  0
 94 92  1  0
 94 95  1  0
 94 93  1  0
 96 99  1  1
 96 97  1  0
 98 96  1  0
M  ISO  4  10 100  22 100  58 101  59 101
M  END
>  <TORSDO>  (6) 
F 21

>  <SCORE>  (6) 
-11.013

>  <name>  (6) 
5

>  <ligand_id>  (6) 
5

>  <original_smiles>  (6) 
[H]c1nc(N([H])C2([H])C([H])([H])N(C(=O)N3C([H])([H])C([H])([H])C([H])([H])C([H])(n4nc(-c5c([H])c([H])c(Oc6c([H])c([H])c(F)c([H])c6F)c([H])c5[H])c(C(=O)N([H])[H])c4N([H])[H])C3([H])[H])C([H])([H])C2([H])[H])c(=O)n(C([H])([H])C([H])(C([H])([H])[H])[N+]([H])([H])C([H])([H])C([H])([H])Oc2c([H])c([H])c3c(c2[H])C([H])([H])N(C(=O)C([H])(N([H])C(=O)C([H])(N([H])C([H])([H])[H])C([H])([H])[H])C(C([H])([H])[H])(C([H])([H])[H])C([H])([H])[H])C([H])(C(=O)N([H])C2([H])c4c([H])c([H])c([H])c([H])c4C([H])([H])C([H])([H])C2([H])[H])C3([H])[H])c1[H]

>  <smiles>  (6) 
[H]c1nc(N([H])C2([H])C([H])([H])N(C(=O)N3C([H])([H])C([H])([H])C([H])([H])C([H])(n4nc(-c5c([H])c([H])c(Oc6c([H])c([H])c(F)c([H])c6F)c([H])c5[H])c(C(=O)N([H])[H])c4N([H])[H])C3([H])[H])C([H])([H])C2([H])[H])c(=O)n(C([H])([H])C([H])(C([H])([H])[H])[N+]([H])([H])C([H])([H])C([H])([H])Oc2c([H])c([H])c3c(c2[H])C([H])([H])N(C(=O)C([H])(N([H])C(=O)C([H])(N([H])C([H])([H])[H])C([H])([H])[H])C(C([H])([H])[H])(C([H])([H])[H])C([H])([H])[H])C([H])(C(=O)N([H])C2([H])c4c([H])c([H])c([H])c([H])c4C([H])([H])C([H])([H])C2([H])[H])C3([H])[H])c1[H]

$$$$
6:0:0
     RDKit          3D

 93102  0  0  1  0  0  0  0  0999 V2000
  -28.8990  -21.2850   22.0170 C   0  0  0  0  0  3  0  0  0  0  0  0
  -28.5400  -20.7820   19.7240 C   0  0  0  0  0  3  0  0  0  0  0  0
  -28.8040  -20.2910   21.0230 C   0  0  0  0  0  0  0  0  0  0  0  0
  -28.3300  -22.9230   20.5280 C   0  0  0  0  0  0  0  0  0  0  0  0
  -28.6880  -22.5880   21.7620 N   0  0  0  0  0  0  0  0  0  0  0  0
  -28.2780  -22.0860   19.4910 N   0  0  0  0  0  0  0  0  0  0  0  0
  -26.7560  -24.8010   21.5090 C   0  0  0  0  0  2  0  0  0  0  0  0
  -26.1060  -24.0790   20.3710 C   0  0  0  0  0  2  0  0  0  0  0  0
  -27.6270  -24.2640   20.3740 C   0  0  2  0  0  0  0  0  0  0  0  0
  -28.3780  -25.2520   19.4310 C   0  0  0  0  0  2  0  0  0  0  0  0
  -28.4620  -26.6700   19.7540 O   0  0  0  0  0  0  0  0  0  0  0  0
  -24.6650  -31.7150   23.0870 C   0  0  0  0  0  0  0  0  0  0  0  0
  -27.3180  -27.4460   19.7290 C   0  0  0  0  0  0  0  0  0  0  0  0
  -23.4610  -30.3730   21.4060 C   0  0  0  0  0  3  0  0  0  0  0  0
  -24.9160  -28.9430   19.8700 C   0  0  0  0  0  0  0  0  0  0  0  0
  -25.9890  -30.7650   21.1910 C   0  0  0  0  0  2  0  0  0  0  0  0
  -26.0810  -29.4330   20.4750 C   0  0  0  0  0  0  0  0  0  0  0  0
  -27.2820  -28.6850   20.4150 C   0  0  0  0  0  3  0  0  0  0  0  0
  -26.1520  -27.0210   19.0620 C   0  0  0  0  0  3  0  0  0  0  0  0
  -24.9430  -27.7320   19.1680 C   0  0  0  0  0  3  0  0  0  0  0  0
  -23.6630  -29.7830   19.9890 C   0  0  0  0  0  2  0  0  0  0  0  0
  -24.7240  -30.9700   21.9470 N   0  0  0  0  0  0  0  0  0  0  0  0
  -23.5880  -31.9360   23.6570 O   0  0  0  0  0  0  0  0  0  0  0  0
  -22.8610  -29.2780   22.3210 C   0  0  0  0  0  0  0  0  0  0  0  0
  -21.5450  -29.0520   22.1920 N   0  0  0  0  0  0  0  0  0  0  0  0
  -23.5730  -28.6440   23.1070 O   0  0  0  0  0  0  0  0  0  0  0  0
  -21.0410  -29.6230   21.5310 H   0  0  0  0  0  0  0  0  0  0  0  0
  -18.2100  -27.7250   22.6550 C   0  0  0  0  0  0  0  0  0  0  0  0
  -20.7600  -28.0580   22.9200 C   0  0  0  0  0  3  0  0  0  0  0  0
  -20.9010  -26.6570   22.2790 C   0  0  0  0  0  2  0  0  0  0  0  0
  -19.8020  -26.3470   21.2560 C   0  0  0  0  0  2  0  0  0  0  0  0
  -18.4260  -26.4120   21.9200 C   0  0  0  0  0  2  0  0  0  0  0  0
  -19.3060  -28.5060   23.1080 C   0  0  0  0  0  0  0  0  0  0  0  0
  -19.0500  -29.7320   23.7590 C   0  0  0  0  0  3  0  0  0  0  0  0
  -17.7300  -30.1820   23.9550 C   0  0  0  0  0  3  0  0  0  0  0  0
  -16.6490  -29.4010   23.5140 C   0  0  0  0  0  3  0  0  0  0  0  0
  -16.8900  -28.1720   22.8760 C   0  0  0  0  0  3  0  0  0  0  0  0
  -25.9440  -32.3490   23.7130 C   0  0  0  0  0  3  0  0  0  0  0  0
  -25.6120  -33.7310   24.0890 N   0  0  0  0  0  0  0  0  0  0  0  0
  -25.9120  -34.8140   23.3590 C   0  0  0  0  0  0  0  0  0  0  0  0
  -26.5750  -34.7520   22.3190 O   0  0  0  0  0  0  0  0  0  0  0  0
  -25.0170  -33.8410   24.8990 H   0  0  0  0  0  0  0  0  0  0  0  0
  -24.1460  -36.5820   23.0640 C   0  0  0  0  0  1  0  0  0  0  0  0
  -25.4010  -36.1790   23.8600 C   0  0  0  0  0  3  0  0  0  0  0  0
  -27.5190  -37.0770   24.7160 C   0  0  0  0  0  1  0  0  0  0  0  0
  -26.4150  -37.2550   23.7740 N   0  0  0  0  0  0  0  0  0  0  0  0
  -25.9940  -38.1650   23.9440 H   0  0  0  0  0  0  0  0  0  0  0  0
  -26.4850  -31.5480   24.9620 C   0  0  1  0  0  0  0  0  0  0  0  0
  -25.4060  -31.2440   26.0270 C   0  0  0  0  0  1  0  0  0  0  0  0
  -27.0950  -30.2000   24.5180 C   0  0  0  0  0  1  0  0  0  0  0  0
  -27.6250  -32.3460   25.6390 C   0  0  0  0  0  1  0  0  0  0  0  0
  -28.9060  -18.9160   21.3580 N   0  0  0  0  0  0  0  0  0  0  0  0
  -28.0130  -18.4830   21.5980 H   0  0  0  0  0  0  0  0  0  0  0  0
  -29.7400  -18.0660   20.5120 C   0  0  0  0  0  2  0  0  0  0  0  0
  -29.7180  -16.5720   20.9320 C   0  0  0  0  0  2  0  0  0  0  0  0
  -31.0730  -14.6420   20.0040 C   0  0  0  0  0  0  0  0  0  0  0  0
  -30.6680  -12.4700   18.9280 C   0  0  0  0  0  2  0  0  0  0  0  0
  -29.6720  -12.6810   17.7690 C   0  0  0  0  0  2  0  0  0  0  0  0
  -28.2230  -12.5610   18.2810 C   0  0  0  0  0  2  0  0  0  0  0  0
  -27.9640  -13.4140   19.5510 C   0  0  0  0  0  3  0  0  0  0  0  0
  -29.0770  -13.2290   20.6050 C   0  0  0  0  0  2  0  0  0  0  0  0
  -30.3610  -13.4860   19.9460 N   0  0  0  0  0  0  0  0  0  0  0  0
  -32.2380  -14.7220   19.6210 O   0  0  0  0  0  0  0  0  0  0  0  0
  -30.3430  -15.7650   19.8850 N   0  0  0  0  0  0  0  0  0  0  0  0
  -30.8140  -16.3780   19.2370 H   0  0  0  0  0  0  0  0  0  0  0  0
  -25.6400  -14.0520   20.4410 C   0  0  0  0  0  0  0  0  0  0  0  0
  -24.5760  -13.2970   20.8490 C   0  0  0  0  0  0  0  0  0  0  0  0
  -24.9930  -11.9340   20.7380 C   0  0  0  0  0  0  0  0  0  0  0  0
  -26.6410  -13.1540   20.1090 N   0  0  0  0  0  0  0  0  0  0  0  0
  -26.2610  -11.8710   20.3470 N   0  0  0  0  0  0  0  0  0  0  0  0
  -24.2430  -10.6860   20.9240 C   0  0  0  0  0  0  0  0  0  0  0  0
  -24.6510   -9.7090   21.8590 C   0  0  0  0  0  3  0  0  0  0  0  0
  -23.9000   -8.5260   22.0290 C   0  0  0  0  0  3  0  0  0  0  0  0
  -22.7290   -8.3120   21.2640 C   0  0  0  0  0  0  0  0  0  0  0  0
  -22.3440   -9.2770   20.3130 C   0  0  0  0  0  3  0  0  0  0  0  0
  -23.0960  -10.4490   20.1420 C   0  0  0  0  0  3  0  0  0  0  0  0
  -21.9520   -7.1800   21.3430 O   0  0  0  0  0  0  0  0  0  0  0  0
  -21.8080   -6.4880   22.5190 C   0  0  0  0  0  0  0  0  0  0  0  0
  -21.2940   -7.1000   23.6830 C   0  0  0  0  0  3  0  0  0  0  0  0
  -21.0940   -6.3340   24.8500 C   0  0  0  0  0  3  0  0  0  0  0  0
  -21.4040   -4.9610   24.8540 C   0  0  0  0  0  0  0  0  0  0  0  0
  -21.9100   -4.3500   23.6930 C   0  0  0  0  0  3  0  0  0  0  0  0
  -22.1090   -5.1110   22.5290 C   0  0  0  0  0  0  0  0  0  0  0  0
  -22.5790   -4.5150   21.4060 F   0  0  0  0  0  0  0  0  0  0  0  0
  -21.2060   -4.2220   25.9710 F   0  0  0  0  0  0  0  0  0  0  0  0
  -23.2110  -13.8000   21.2240 C   0  0  0  0  0  0  0  0  0  0  0  0
  -22.5180  -13.0910   22.1060 N   0  0  0  0  0  0  0  0  0  0  0  0
  -22.7730  -14.8580   20.7700 O   0  0  0  0  0  0  0  0  0  0  0  0
  -22.8860  -12.2310   22.4900 H   0  0  0  0  0  0  0  0  0  0  0  0
  -21.6070  -13.4110   22.4050 H   0  0  0  0  0  0  0  0  0  0  0  0
  -25.8380  -15.4240   20.3040 N   0  0  0  0  0  0  0  0  0  0  0  0
  -25.1110  -16.1030   20.4980 H   0  0  0  0  0  0  0  0  0  0  0  0
  -26.6750  -15.8360   19.9120 H   0  0  0  0  0  0  0  0  0  0  0  0
  2  3  1  0
  3 52  1  0
  3  1  2  0
  4  5  2  0
  5  1  1  0
  6  2  2  0
  6  4  1  0
  8  9  1  0
  8  7  1  0
  9  4  1  0
  9  7  1  0
 10 11  1  0
  9 10  1  6
 12 23  2  0
 13 11  1  0
 13 18  1  0
 14 22  1  0
 14 24  1  0
 15 21  1  0
 15 17  1  0
 16 22  1  0
 17 16  1  0
 18 17  2  0
 19 20  1  0
 19 13  2  0
 20 15  2  0
 21 14  1  0
 22 12  1  0
 24 26  2  0
 25 24  1  0
 27 25  1  0
 28 37  2  0
 28 33  1  0
 29 25  1  0
 29 33  1  0
 30 29  1  0
 31 32  1  0
 31 30  1  0
 32 28  1  0
 33 34  2  0
 34 35  1  0
 36 35  2  0
 37 36  1  0
 38 12  1  0
 38 39  1  0
 38 48  1  0
 39 42  1  0
 40 44  1  0
 40 39  1  0
 41 40  2  0
 44 43  1  0
 46 44  1  0
 46 47  1  0
 46 45  1  0
 48 51  1  1
 48 49  1  0
 50 48  1  0
 52 53  1  0
 54 55  1  0
 54 52  1  0
 57 62  1  0
 58 59  1  0
 58 57  1  0
 60 59  1  0
 60 69  1  0
 60 61  1  0
 62 56  1  0
 62 61  1  0
 63 56  2  0
 64 56  1  0
 64 55  1  0
 65 64  1  0
 66 67  2  0
 67 86  1  0
 68 67  1  0
 68 71  1  0
 69 70  1  0
 69 66  1  0
 70 68  2  0
 71 72  1  0
 72 73  2  0
 74 77  1  0
 74 73  1  0
 75 74  2  0
 76 75  1  0
 76 71  2  0
 77 78  1  0
 78 83  2  0
 78 79  1  0
 79 80  2  0
 80 81  1  0
 81 85  1  0
 82 81  2  0
 83 82  1  0
 84 83  1  0
 86 87  1  0
 87 90  1  0
 87 89  1  0
 88 86  2  0
 91 66  1  0
 91 92  1  0
 93 91  1  0
M  ISO  4  10 101  11 101  56 100  64 100
M  END
>  <TORSDO>  (7) 
F 21

>  <SCORE>  (7) 
-12.547

>  <name>  (7) 
6

>  <ligand_id>  (7) 
6

>  <original_smiles>  (7) 
[H]c1nc(C2(C([H])([H])Oc3c([H])c([H])c4c(c3[H])C([H])([H])N(C(=O)C([H])(N([H])C(=O)C([H])(N([H])C([H])([H])[H])C([H])([H])[H])C(C([H])([H])[H])(C([H])([H])[H])C([H])([H])[H])C([H])(C(=O)N([H])C3([H])c5c([H])c([H])c([H])c([H])c5C([H])([H])C([H])([H])C3([H])[H])C4([H])[H])C([H])([H])C2([H])[H])nc([H])c1N([H])C([H])([H])C([H])([H])N([H])C(=O)N1C([H])([H])C([H])([H])C([H])([H])C([H])(n2nc(-c3c([H])c([H])c(Oc4c([H])c([H])c(F)c([H])c4F)c([H])c3[H])c(C(=O)N([H])[H])c2N([H])[H])C1([H])[H]

>  <smiles>  (7) 
[H]c1nc(C2(C([H])([H])Oc3c([H])c([H])c4c(c3[H])C([H])([H])N(C(=O)C([H])(N([H])C(=O)C([H])(N([H])C([H])([H])[H])C([H])([H])[H])C(C([H])([H])[H])(C([H])([H])[H])C([H])([H])[H])C([H])(C(=O)N([H])C3([H])c5c([H])c([H])c([H])c([H])c5C([H])([H])C([H])([H])C3([H])[H])C4([H])[H])C([H])([H])C2([H])[H])nc([H])c1N([H])C([H])([H])C([H])([H])N([H])C(=O)N1C([H])([H])C([H])([H])C([H])([H])C([H])(n2nc(-c3c([H])c([H])c(Oc4c([H])c([H])c(F)c([H])c4F)c([H])c3[H])c(C(=O)N([H])[H])c2N([H])[H])C1([H])[H]

$$$$
7:0:0
     RDKit          3D

 98108  0  0  1  0  0  0  0  0999 V2000
  -29.4980  -19.7090   22.1650 C   0  0  0  0  0  3  0  0  0  0  0  0
  -29.8250  -18.8780   21.1270 C   0  0  0  0  0  0  0  0  0  0  0  0
  -30.2230  -20.9910   20.5060 C   0  0  0  0  0  3  0  0  0  0  0  0
  -30.2710  -19.7010   20.1050 N   0  0  0  0  0  0  0  0  0  0  0  0
  -29.8250  -20.9700   21.7820 N   0  0  0  0  0  0  0  0  0  0  0  0
  -29.7800  -21.7710   22.3980 H   0  0  0  0  0  0  0  0  0  0  0  0
  -30.9590  -14.4840   20.0120 C   0  0  0  0  0  0  0  0  0  0  0  0
  -30.6120  -12.3070   18.9380 C   0  0  0  0  0  2  0  0  0  0  0  0
  -29.6050  -12.4950   17.7820 C   0  0  0  0  0  2  0  0  0  0  0  0
  -28.1470  -12.3710   18.2770 C   0  0  0  0  0  2  0  0  0  0  0  0
  -27.8740  -13.2300   19.5380 C   0  0  0  0  0  3  0  0  0  0  0  0
  -28.9870  -13.0230   20.5940 C   0  0  0  0  0  2  0  0  0  0  0  0
  -30.2850  -13.3080   19.9580 N   0  0  0  0  0  0  0  0  0  0  0  0
  -32.0400  -14.6800   19.4540 O   0  0  0  0  0  0  0  0  0  0  0  0
  -29.5140  -16.4710   19.9430 C   0  0  0  0  0  2  0  0  0  0  0  0
  -31.0720  -16.5780   21.2840 C   0  0  0  0  0  2  0  0  0  0  0  0
  -29.7870  -17.3820   21.1350 C   0  0  0  0  0  3  0  0  0  0  0  0
  -30.3260  -15.4700   20.6690 N   0  0  0  0  0  0  0  0  0  0  0  0
  -25.5390  -13.8750   20.4080 C   0  0  0  0  0  0  0  0  0  0  0  0
  -24.4790  -13.1110   20.8220 C   0  0  0  0  0  0  0  0  0  0  0  0
  -24.9100  -11.7520   20.7270 C   0  0  0  0  0  0  0  0  0  0  0  0
  -26.5480  -12.9770   20.0940 N   0  0  0  0  0  0  0  0  0  0  0  0
  -26.1760  -11.6970   20.3430 N   0  0  0  0  0  0  0  0  0  0  0  0
  -24.1730  -10.5010   20.9220 C   0  0  0  0  0  0  0  0  0  0  0  0
  -24.5880   -9.5410   21.8680 C   0  0  0  0  0  3  0  0  0  0  0  0
  -23.8520   -8.3490   22.0500 C   0  0  0  0  0  3  0  0  0  0  0  0
  -22.6840   -8.1140   21.2850 C   0  0  0  0  0  0  0  0  0  0  0  0
  -22.2910   -9.0640   20.3280 C   0  0  0  0  0  3  0  0  0  0  0  0
  -23.0270  -10.2430   20.1410 C   0  0  0  0  0  3  0  0  0  0  0  0
  -21.9200   -6.9760   21.3780 O   0  0  0  0  0  0  0  0  0  0  0  0
  -21.7880   -6.2950   22.5620 C   0  0  0  0  0  0  0  0  0  0  0  0
  -21.2260   -6.8970   23.7110 C   0  0  0  0  0  3  0  0  0  0  0  0
  -21.0480   -6.1370   24.8840 C   0  0  0  0  0  3  0  0  0  0  0  0
  -21.4140   -4.7780   24.9110 C   0  0  0  0  0  0  0  0  0  0  0  0
  -21.9690   -4.1760   23.7660 C   0  0  0  0  0  3  0  0  0  0  0  0
  -22.1520   -4.9320   22.5940 C   0  0  0  0  0  0  0  0  0  0  0  0
  -22.6660   -4.3400   21.4920 F   0  0  0  0  0  0  0  0  0  0  0  0
  -21.2280   -4.0480   26.0350 F   0  0  0  0  0  0  0  0  0  0  0  0
  -23.1110  -13.6040   21.1940 C   0  0  0  0  0  0  0  0  0  0  0  0
  -22.4250  -12.8910   22.0830 N   0  0  0  0  0  0  0  0  0  0  0  0
  -22.6630  -14.6520   20.7320 O   0  0  0  0  0  0  0  0  0  0  0  0
  -22.7950  -12.0300   22.4570 H   0  0  0  0  0  0  0  0  0  0  0  0
  -21.5150  -13.2030   22.3940 H   0  0  0  0  0  0  0  0  0  0  0  0
  -25.7230  -15.2440   20.2540 N   0  0  0  0  0  0  0  0  0  0  0  0
  -24.9760  -15.9190   20.3850 H   0  0  0  0  0  0  0  0  0  0  0  0
  -26.5720  -15.6560   19.8880 H   0  0  0  0  0  0  0  0  0  0  0  0
  -31.8810  -22.9390   19.9730 C   0  0  0  0  0  2  0  0  0  0  0  0
  -31.6370  -24.3900   19.5060 C   0  0  0  0  0  2  0  0  0  0  0  0
  -29.5580  -23.3900   20.0720 C   0  0  0  0  0  2  0  0  0  0  0  0
  -30.5290  -22.2560   19.7350 C   0  0  0  0  0  3  0  0  0  0  0  0
  -30.1660  -24.6300   19.5490 N   0  0  2  0  0  4  0  0  0  0  0  0
  -29.9940  -25.3610   20.2270 H   0  0  0  0  0  0  0  0  0  0  0  0
  -29.5870  -25.1160   18.2660 C   0  0  0  0  0  2  0  0  0  0  0  0
  -28.1440  -25.6230   18.4190 C   0  0  0  0  0  2  0  0  0  0  0  0
  -28.1420  -26.7100   19.3470 O   0  0  0  0  0  0  0  0  0  0  0  0
  -24.7410  -31.6800   23.1420 C   0  0  0  0  0  0  0  0  0  0  0  0
  -26.9720  -27.4200   19.5110 C   0  0  0  0  0  0  0  0  0  0  0  0
  -23.3600  -30.4470   21.5040 C   0  0  0  0  0  3  0  0  0  0  0  0
  -24.6380  -28.9760   19.8630 C   0  0  0  0  0  0  0  0  0  0  0  0
  -25.8770  -30.7340   21.1350 C   0  0  0  0  0  2  0  0  0  0  0  0
  -25.8560  -29.4150   20.3950 C   0  0  0  0  0  0  0  0  0  0  0  0
  -27.0210  -28.6350   20.2310 C   0  0  0  0  0  3  0  0  0  0  0  0
  -25.7290  -26.9860   18.9920 C   0  0  0  0  0  3  0  0  0  0  0  0
  -24.5660  -27.7570   19.1740 C   0  0  0  0  0  3  0  0  0  0  0  0
  -23.4360  -29.8680   20.0680 C   0  0  0  0  0  2  0  0  0  0  0  0
  -24.6850  -30.9660   21.9820 N   0  0  0  0  0  0  0  0  0  0  0  0
  -23.7170  -31.9390   23.7840 O   0  0  0  0  0  0  0  0  0  0  0  0
  -22.7540  -29.3700   22.4310 C   0  0  0  0  0  0  0  0  0  0  0  0
  -21.4250  -29.1920   22.3490 N   0  0  0  0  0  0  0  0  0  0  0  0
  -23.4720  -28.7000   23.1760 O   0  0  0  0  0  0  0  0  0  0  0  0
  -20.9100  -29.7850   21.7140 H   0  0  0  0  0  0  0  0  0  0  0  0
  -18.0790  -27.9250   22.8580 C   0  0  0  0  0  0  0  0  0  0  0  0
  -20.6380  -28.2110   23.0950 C   0  0  0  0  0  3  0  0  0  0  0  0
  -20.7490  -26.8040   22.4660 C   0  0  0  0  0  2  0  0  0  0  0  0
  -19.6370  -26.4990   21.4590 C   0  0  0  0  0  2  0  0  0  0  0  0
  -18.2640  -26.6050   22.1260 C   0  0  0  0  0  2  0  0  0  0  0  0
  -19.1940  -28.6870   23.2950 C   0  0  0  0  0  0  0  0  0  0  0  0
  -18.9700  -29.9250   23.9340 C   0  0  0  0  0  3  0  0  0  0  0  0
  -17.6630  -30.4050   24.1370 C   0  0  0  0  0  3  0  0  0  0  0  0
  -16.5610  -29.6360   23.7220 C   0  0  0  0  0  3  0  0  0  0  0  0
  -16.7710  -28.3980   23.0900 C   0  0  0  0  0  3  0  0  0  0  0  0
  -26.0920  -32.2230   23.7030 C   0  0  0  0  0  3  0  0  0  0  0  0
  -25.8680  -33.6100   24.1270 N   0  0  0  0  0  0  0  0  0  0  0  0
  -26.1920  -34.6910   23.4060 C   0  0  0  0  0  0  0  0  0  0  0  0
  -26.7900  -34.6210   22.3270 O   0  0  0  0  0  0  0  0  0  0  0  0
  -25.3320  -33.7430   24.9740 H   0  0  0  0  0  0  0  0  0  0  0  0
  -24.5170  -36.5590   23.2610 C   0  0  0  0  0  1  0  0  0  0  0  0
  -25.7890  -36.0660   23.9680 C   0  0  0  0  0  3  0  0  0  0  0  0
  -28.0040  -36.8250   24.7070 C   0  0  0  0  0  1  0  0  0  0  0  0
  -26.8500  -37.0900   23.8500 N   0  0  0  0  0  0  0  0  0  0  0  0
  -26.4880  -38.0110   24.0810 H   0  0  0  0  0  0  0  0  0  0  0  0
  -26.6610  -31.3600   24.8980 C   0  0  1  0  0  0  0  0  0  0  0  0
  -25.6320  -31.1030   26.0240 C   0  0  0  0  0  1  0  0  0  0  0  0
  -27.1550  -29.9880   24.3870 C   0  0  0  0  0  1  0  0  0  0  0  0
  -27.8850  -32.0720   25.5210 C   0  0  0  0  0  1  0  0  0  0  0  0
  -30.7660  -19.2950   18.7740 C   0  0  0  0  0  2  0  0  0  0  0  0
  -30.2100  -18.7270   16.3480 C   0  0  0  0  0  1  0  0  0  0  0  0
  -29.6850  -19.2900   17.6790 C   0  0  0  0  0  2  0  0  0  0  0  0
  2  1  2  0
  3  4  1  0
  3  5  1  0
  4  2  1  0
  5  1  1  0
  5  6  1  0
  7 18  1  0
  8 13  1  0
  9 10  1  0
  9  8  1  0
 11 10  1  0
 11 22  1  0
 11 12  1  0
 13  7  1  0
 13 12  1  0
 14  7  2  0
 15 18  1  0
 15 17  1  0
 17  2  1  0
 17 16  1  0
 18 16  1  0
 19 20  2  0
 20 39  1  0
 21 20  1  0
 21 24  1  0
 22 23  1  0
 22 19  1  0
 23 21  2  0
 24 25  1  0
 25 26  2  0
 27 30  1  0
 27 26  1  0
 28 27  2  0
 29 28  1  0
 29 24  2  0
 30 31  1  0
 31 36  2  0
 31 32  1  0
 32 33  2  0
 33 34  1  0
 34 38  1  0
 35 34  2  0
 36 35  1  0
 37 36  1  0
 39 40  1  0
 40 43  1  0
 40 42  1  0
 41 39  2  0
 44 45  1  0
 44 19  1  0
 46 44  1  0
 48 51  1  0
 48 47  1  0
 50 47  1  0
 50 49  1  0
 50  3  1  0
 51 49  1  0
 51 52  1  1
 53 54  1  0
 53 51  1  0
 54 55  1  0
 55 57  1  0
 56 67  2  0
 57 62  1  0
 58 66  1  0
 58 68  1  0
 59 65  1  0
 59 61  1  0
 60 66  1  0
 61 60  1  0
 62 61  2  0
 63 64  1  0
 63 57  2  0
 64 59  2  0
 65 58  1  0
 66 56  1  0
 68 70  2  0
 69 68  1  0
 71 69  1  0
 72 81  2  0
 72 77  1  0
 73 69  1  0
 73 77  1  0
 74 73  1  0
 75 76  1  0
 75 74  1  0
 76 72  1  0
 77 78  2  0
 78 79  1  0
 80 79  2  0
 81 80  1  0
 82 56  1  0
 82 83  1  0
 82 92  1  0
 83 86  1  0
 84 88  1  0
 84 83  1  0
 85 84  2  0
 88 87  1  0
 90 88  1  0
 90 91  1  0
 90 89  1  0
 92 95  1  1
 92 93  1  0
 94 92  1  0
 96  4  1  0
 97 98  1  0
 98 96  1  0
M  ISO  4   7 100  18 100  54 101  55 101
M  END
>  <TORSDO>  (8) 
F 21

>  <SCORE>  (8) 
-12.146

>  <name>  (8) 
7

>  <ligand_id>  (8) 
7

>  <original_smiles>  (8) 
[H]c1c([H])c([H])c2c(c1[H])C([H])([H])C([H])([H])C([H])([H])C2([H])N([H])C(=O)C1([H])N(C(=O)C([H])(N([H])C(=O)C([H])(N([H])C([H])([H])[H])C([H])([H])[H])C(C([H])([H])[H])(C([H])([H])[H])C([H])([H])[H])C([H])([H])c2c([H])c(OC([H])([H])C([H])([H])[N+]3([H])C([H])([H])C([H])([H])C([H])(c4n(C([H])([H])C([H])([H])C([H])([H])[H])c(C5([H])C([H])([H])N(C(=O)N6C([H])([H])C([H])([H])C([H])([H])C([H])(n7nc(-c8c([H])c([H])c(Oc9c([H])c([H])c(F)c([H])c9F)c([H])c8[H])c(C(=O)N([H])[H])c7N([H])[H])C6([H])[H])C5([H])[H])c([H])[n+]4[H])C3([H])[H])c([H])c([H])c2C1([H])[H]

>  <smiles>  (8) 
[H]c1c([H])c([H])c2c(c1[H])C([H])([H])C([H])([H])C([H])([H])C2([H])N([H])C(=O)C1([H])N(C(=O)C([H])(N([H])C(=O)C([H])(N([H])C([H])([H])[H])C([H])([H])[H])C(C([H])([H])[H])(C([H])([H])[H])C([H])([H])[H])C([H])([H])c2c([H])c(OC([H])([H])C([H])([H])[N+]3([H])C([H])([H])C([H])([H])C([H])(c4n(C([H])([H])C([H])([H])C([H])([H])[H])c(C5([H])C([H])([H])N(C(=O)N6C([H])([H])C([H])([H])C([H])([H])C([H])(n7nc(-c8c([H])c([H])c(Oc9c([H])c([H])c(F)c([H])c9F)c([H])c8[H])c(C(=O)N([H])[H])c7N([H])[H])C6([H])[H])C5([H])[H])c([H])[n+]4[H])C3([H])[H])c([H])c([H])c2C1([H])[H]

$$$$
8:0:0
     RDKit          3D

 91 99  0  0  1  0  0  0  0  0999 V2000
  -29.0680  -22.9140   19.8830 N   0  0  0  0  0  4  0  0  0  0  0  0
  -28.6410  -22.6790   18.9980 H   0  0  0  0  0  0  0  0  0  0  0  0
  -30.0380  -23.1130   19.6930 H   0  0  0  0  0  0  0  0  0  0  0  0
  -26.9730  -23.9200   20.8830 C   0  0  0  0  0  1  0  0  0  0  0  0
  -28.4360  -24.1610   20.4470 C   0  0  0  0  0  3  0  0  0  0  0  0
  -28.5580  -25.3940   19.4840 C   0  0  0  0  0  2  0  0  0  0  0  0
  -28.4100  -26.6960   20.1010 O   0  0  0  0  0  0  0  0  0  0  0  0
  -24.6360  -31.9140   23.1520 C   0  0  0  0  0  0  0  0  0  0  0  0
  -27.2200  -27.4090   20.0680 C   0  0  0  0  0  0  0  0  0  0  0  0
  -23.3980  -30.4950   21.5480 C   0  0  0  0  0  3  0  0  0  0  0  0
  -24.8240  -28.9360   20.1120 C   0  0  0  0  0  0  0  0  0  0  0  0
  -25.9230  -30.8370   21.3070 C   0  0  0  0  0  2  0  0  0  0  0  0
  -25.9930  -29.4570   20.6790 C   0  0  0  0  0  0  0  0  0  0  0  0
  -27.1870  -28.6950   20.6600 C   0  0  0  0  0  3  0  0  0  0  0  0
  -26.0270  -26.9130   19.4850 C   0  0  0  0  0  3  0  0  0  0  0  0
  -24.8360  -27.6630   19.5180 C   0  0  0  0  0  3  0  0  0  0  0  0
  -23.5820  -29.7990   20.1730 C   0  0  0  0  0  2  0  0  0  0  0  0
  -24.6730  -31.0980   22.0610 N   0  0  0  0  0  0  0  0  0  0  0  0
  -23.5640  -32.1980   23.7050 O   0  0  0  0  0  0  0  0  0  0  0  0
  -22.7630  -29.4890   22.5320 C   0  0  0  0  0  0  0  0  0  0  0  0
  -21.4360  -29.3060   22.4270 N   0  0  0  0  0  0  0  0  0  0  0  0
  -23.4580  -28.8740   23.3450 O   0  0  0  0  0  0  0  0  0  0  0  0
  -20.9420  -29.8580   21.7400 H   0  0  0  0  0  0  0  0  0  0  0  0
  -18.0660  -28.1210   22.9810 C   0  0  0  0  0  0  0  0  0  0  0  0
  -20.6280  -28.3780   23.2160 C   0  0  0  0  0  3  0  0  0  0  0  0
  -20.7210  -26.9420   22.6520 C   0  0  0  0  0  2  0  0  0  0  0  0
  -19.6040  -26.6100   21.6580 C   0  0  0  0  0  2  0  0  0  0  0  0
  -18.2300  -26.7640   22.3200 C   0  0  0  0  0  2  0  0  0  0  0  0
  -19.1920  -28.8860   23.3870 C   0  0  0  0  0  0  0  0  0  0  0  0
  -18.9850  -30.1560   23.9680 C   0  0  0  0  0  3  0  0  0  0  0  0
  -17.6830  -30.6620   24.1470 C   0  0  0  0  0  3  0  0  0  0  0  0
  -16.5720  -29.8940   23.7560 C   0  0  0  0  0  3  0  0  0  0  0  0
  -16.7650  -28.6270   23.1790 C   0  0  0  0  0  3  0  0  0  0  0  0
  -25.9340  -32.5460   23.7480 C   0  0  0  0  0  3  0  0  0  0  0  0
  -25.6110  -33.9230   24.1410 N   0  0  0  0  0  0  0  0  0  0  0  0
  -25.9050  -35.0100   23.4160 C   0  0  0  0  0  0  0  0  0  0  0  0
  -26.5400  -34.9590   22.3600 O   0  0  0  0  0  0  0  0  0  0  0  0
  -25.0350  -34.0360   24.9630 H   0  0  0  0  0  0  0  0  0  0  0  0
  -24.1430  -36.7920   23.1760 C   0  0  0  0  0  1  0  0  0  0  0  0
  -25.4070  -36.3690   23.9420 C   0  0  0  0  0  3  0  0  0  0  0  0
  -27.5440  -37.2480   24.7700 C   0  0  0  0  0  1  0  0  0  0  0  0
  -26.4240  -37.4410   23.8540 N   0  0  0  0  0  0  0  0  0  0  0  0
  -26.0080  -38.3480   24.0470 H   0  0  0  0  0  0  0  0  0  0  0  0
  -26.5200  -31.7380   24.9710 C   0  0  1  0  0  0  0  0  0  0  0  0
  -25.4740  -31.4280   26.0690 C   0  0  0  0  0  1  0  0  0  0  0  0
  -27.1210  -30.3930   24.4970 C   0  0  0  0  0  1  0  0  0  0  0  0
  -27.6740  -32.5370   25.6230 C   0  0  0  0  0  1  0  0  0  0  0  0
  -29.0180  -21.7020   20.7590 C   0  0  0  0  0  2  0  0  0  0  0  0
  -29.8660  -20.4720   20.2950 C   0  0  0  0  0  2  0  0  0  0  0  0
  -29.5500  -19.2180   21.1620 C   0  0  0  0  0  2  0  0  0  0  0  0
  -30.9320  -14.5410   19.8090 C   0  0  0  0  0  0  0  0  0  0  0  0
  -30.4750  -12.4350   18.5990 C   0  0  0  0  0  2  0  0  0  0  0  0
  -29.3840  -12.6680   17.5330 C   0  0  0  0  0  2  0  0  0  0  0  0
  -27.9760  -12.5130   18.1440 C   0  0  0  0  0  2  0  0  0  0  0  0
  -27.8040  -13.3020   19.4670 C   0  0  0  0  0  3  0  0  0  0  0  0
  -28.9880  -13.0390   20.4230 C   0  0  0  0  0  2  0  0  0  0  0  0
  -30.2330  -13.3730   19.7070 N   0  0  0  0  0  0  0  0  0  0  0  0
  -31.9520  -14.7600   19.1460 O   0  0  0  0  0  0  0  0  0  0  0  0
  -30.3860  -17.1240   22.3340 C   0  0  0  0  0  2  0  0  0  0  0  0
  -30.7470  -15.6930   21.9340 C   0  0  0  0  0  2  0  0  0  0  0  0
  -30.0710  -16.8820   19.9780 C   0  0  0  0  0  2  0  0  0  0  0  0
  -30.4450  -17.9420   21.0450 C   0  0  0  0  0  3  0  0  0  0  0  0
  -30.3540  -15.5350   20.5340 N   0  0  0  0  0  0  0  0  0  0  0  0
  -25.5370  -13.8870   20.5370 C   0  0  0  0  0  0  0  0  0  0  0  0
  -24.5040  -13.1040   20.9800 C   0  0  0  0  0  0  0  0  0  0  0  0
  -24.9200  -11.7530   20.7770 C   0  0  0  0  0  0  0  0  0  0  0  0
  -26.5180  -13.0110   20.0980 N   0  0  0  0  0  0  0  0  0  0  0  0
  -26.1570  -11.7170   20.2990 N   0  0  0  0  0  0  0  0  0  0  0  0
  -24.1910  -10.4900   20.9550 C   0  0  0  0  0  0  0  0  0  0  0  0
  -24.6460   -9.4940   21.8460 C   0  0  0  0  0  3  0  0  0  0  0  0
  -23.9190   -8.2960   22.0150 C   0  0  0  0  0  3  0  0  0  0  0  0
  -22.7190   -8.0870   21.2930 C   0  0  0  0  0  0  0  0  0  0  0  0
  -22.2820   -9.0720   20.3910 C   0  0  0  0  0  3  0  0  0  0  0  0
  -23.0100  -10.2620   20.2210 C   0  0  0  0  0  3  0  0  0  0  0  0
  -21.9590   -6.9460   21.3740 O   0  0  0  0  0  0  0  0  0  0  0  0
  -21.8580   -6.2310   22.5400 C   0  0  0  0  0  0  0  0  0  0  0  0
  -21.3640   -6.8090   23.7290 C   0  0  0  0  0  3  0  0  0  0  0  0
  -21.2100   -6.0190   24.8860 C   0  0  0  0  0  3  0  0  0  0  0  0
  -21.5410   -4.6500   24.8550 C   0  0  0  0  0  0  0  0  0  0  0  0
  -22.0280   -4.0710   23.6690 C   0  0  0  0  0  3  0  0  0  0  0  0
  -22.1830   -4.8590   22.5140 C   0  0  0  0  0  0  0  0  0  0  0  0
  -22.6320   -4.2900   21.3700 F   0  0  0  0  0  0  0  0  0  0  0  0
  -21.3860   -3.8890   25.9630 F   0  0  0  0  0  0  0  0  0  0  0  0
  -23.1680  -13.5780   21.4740 C   0  0  0  0  0  0  0  0  0  0  0  0
  -22.5620  -12.8460   22.4030 N   0  0  0  0  0  0  0  0  0  0  0  0
  -22.6740  -14.6310   21.0730 O   0  0  0  0  0  0  0  0  0  0  0  0
  -22.9760  -11.9940   22.7490 H   0  0  0  0  0  0  0  0  0  0  0  0
  -21.6720  -13.1440   22.7740 H   0  0  0  0  0  0  0  0  0  0  0  0
  -25.7180  -15.2650   20.4530 N   0  0  0  0  0  0  0  0  0  0  0  0
  -25.0000  -15.9280   20.7250 H   0  0  0  0  0  0  0  0  0  0  0  0
  -26.5500  -15.7090   20.0840 H   0  0  0  0  0  0  0  0  0  0  0  0
  1  5  1  0
  1 48  1  0
  2  1  1  0
  3  1  1  0
  5  4  1  0
  6  7  1  0
  6  5  1  0
  8 19  2  0
  9  7  1  0
  9 14  1  0
 10 18  1  0
 10 20  1  0
 11 17  1  0
 11 13  1  0
 12 18  1  0
 13 12  1  0
 14 13  2  0
 15 16  1  0
 15  9  2  0
 16 11  2  0
 17 10  1  0
 18  8  1  0
 20 22  2  0
 21 20  1  0
 23 21  1  0
 24 33  2  0
 24 29  1  0
 25 21  1  0
 25 29  1  0
 26 25  1  0
 27 28  1  0
 27 26  1  0
 28 24  1  0
 29 30  2  0
 30 31  1  0
 32 31  2  0
 33 32  1  0
 34  8  1  0
 34 35  1  0
 34 44  1  0
 35 38  1  0
 36 40  1  0
 36 35  1  0
 37 36  2  0
 40 39  1  0
 42 40  1  0
 42 43  1  0
 42 41  1  0
 44 47  1  1
 44 45  1  0
 46 44  1  0
 49 48  1  0
 49 50  1  0
 51 63  1  0
 52 57  1  0
 53 54  1  0
 53 52  1  0
 55 54  1  0
 55 67  1  0
 55 56  1  0
 57 51  1  0
 57 56  1  0
 58 51  2  0
 60 59  1  0
 61 63  1  0
 61 62  1  0
 62 50  1  0
 62 59  1  0
 63 60  1  0
 64 65  2  0
 65 84  1  0
 66 69  1  0
 66 65  1  0
 67 68  1  0
 67 64  1  0
 68 66  2  0
 69 70  1  0
 70 71  2  0
 72 75  1  0
 72 71  1  0
 73 72  2  0
 74 73  1  0
 74 69  2  0
 75 76  1  0
 76 77  1  0
 77 78  2  0
 79 78  1  0
 79 83  1  0
 80 79  2  0
 81 76  2  0
 81 80  1  0
 82 81  1  0
 84 85  1  0
 85 87  1  0
 85 88  1  0
 86 84  2  0
 89 64  1  0
 89 90  1  0
 91 89  1  0
M  ISO  4   6 101   7 101  51 100  63 100
M  END
>  <TORSDO>  (9) 
F 21

>  <SCORE>  (9) 
-12.419

>  <name>  (9) 
8

>  <ligand_id>  (9) 
8

>  <original_smiles>  (9) 
[H]c1c([H])c([H])c2c(c1[H])C([H])([H])C([H])([H])C([H])([H])C2([H])N([H])C(=O)C1([H])N(C(=O)C([H])(N([H])C(=O)C([H])(N([H])C([H])([H])[H])C([H])([H])[H])C(C([H])([H])[H])(C([H])([H])[H])C([H])([H])[H])C([H])([H])c2c([H])c(OC([H])([H])C([H])(C([H])([H])[H])[N+]([H])([H])C([H])([H])C([H])([H])C([H])([H])C3([H])C([H])([H])N(C(=O)N4C([H])([H])C([H])([H])C([H])([H])C([H])(n5nc(-c6c([H])c([H])c(Oc7c([H])c([H])c(F)c([H])c7F)c([H])c6[H])c(C(=O)N([H])[H])c5N([H])[H])C4([H])[H])C([H])([H])C3([H])[H])c([H])c([H])c2C1([H])[H]

>  <smiles>  (9) 
[H]c1c([H])c([H])c2c(c1[H])C([H])([H])C([H])([H])C([H])([H])C2([H])N([H])C(=O)C1([H])N(C(=O)C([H])(N([H])C(=O)C([H])(N([H])C([H])([H])[H])C([H])([H])[H])C(C([H])([H])[H])(C([H])([H])[H])C([H])([H])[H])C([H])([H])c2c([H])c(OC([H])([H])C([H])(C([H])([H])[H])[N+]([H])([H])C([H])([H])C([H])([H])C([H])([H])C3([H])C([H])([H])N(C(=O)N4C([H])([H])C([H])([H])C([H])([H])C([H])(n5nc(-c6c([H])c([H])c(Oc7c([H])c([H])c(F)c([H])c7F)c([H])c6[H])c(C(=O)N([H])[H])c5N([H])[H])C4([H])[H])C([H])([H])C3([H])[H])c([H])c([H])c2C1([H])[H]

$$$$
9:0:0
     RDKit          3D

 93102  0  0  1  0  0  0  0  0999 V2000
  -29.1780  -22.5970   20.0290 C   0  0  0  0  0  2  0  0  0  0  0  0
  -27.2410  -21.8240   20.9820 C   0  0  0  0  0  2  0  0  0  0  0  0
  -28.2070  -23.8920   20.1000 C   0  0  0  0  0  3  0  0  0  0  0  0
  -27.2150  -23.3590   21.1450 C   0  0  0  0  0  3  0  0  0  0  0  0
  -28.6210  -21.3850   20.7500 N   0  0  0  0  0  0  0  0  0  0  0  0
  -24.9680  -23.7170   22.1480 C   0  0  0  0  0  1  0  0  0  0  0  0
  -25.8520  -23.9160   20.9810 N   0  0  0  0  0  4  0  0  0  0  0  0
  -25.4120  -23.5080   20.1710 H   0  0  0  0  0  0  0  0  0  0  0  0
  -25.9220  -24.9090   20.8290 H   0  0  0  0  0  0  0  0  0  0  0  0
  -28.5470  -19.9750   20.1620 C   0  0  0  0  0  2  0  0  0  0  0  0
  -30.6690  -15.0320   20.5700 C   0  0  0  0  0  0  0  0  0  0  0  0
  -30.5080  -12.7320   19.6160 C   0  0  0  0  0  2  0  0  0  0  0  0
  -29.6190  -12.7440   18.3560 C   0  0  0  0  0  2  0  0  0  0  0  0
  -28.1430  -12.5430   18.7440 C   0  0  0  0  0  2  0  0  0  0  0  0
  -27.6990  -13.4740   19.9040 C   0  0  0  0  0  3  0  0  0  0  0  0
  -28.7140  -13.4800   21.0660 C   0  0  0  0  0  2  0  0  0  0  0  0
  -30.0180  -13.8210   20.4920 N   0  0  0  0  0  0  0  0  0  0  0  0
  -31.9010  -15.0410   20.4620 O   0  0  0  0  0  0  0  0  0  0  0  0
  -29.7690  -18.1960   18.7710 C   0  0  0  0  0  2  0  0  0  0  0  0
  -30.3520  -16.7760   18.8880 C   0  0  0  0  0  2  0  0  0  0  0  0
  -29.5020  -17.3990   20.9780 C   0  0  0  0  0  2  0  0  0  0  0  0
  -29.6720  -18.7950   20.1780 C   0  0  0  0  0  3  0  0  0  0  0  0
  -29.9710  -16.1850   20.1810 N   0  0  0  0  0  0  0  0  0  0  0  0
  -25.2830  -14.0370   20.5360 C   0  0  0  0  0  0  0  0  0  0  0  0
  -24.2140  -13.2520   20.8750 C   0  0  0  0  0  0  0  0  0  0  0  0
  -24.6970  -11.9080   20.8860 C   0  0  0  0  0  0  0  0  0  0  0  0
  -26.3460  -13.1690   20.3550 N   0  0  0  0  0  0  0  0  0  0  0  0
  -26.0010  -11.8850   20.6300 N   0  0  0  0  0  0  0  0  0  0  0  0
  -23.9820  -10.6390   21.0650 C   0  0  0  0  0  0  0  0  0  0  0  0
  -24.3890   -9.6880   22.0260 C   0  0  0  0  0  3  0  0  0  0  0  0
  -23.6710   -8.4830   22.1920 C   0  0  0  0  0  3  0  0  0  0  0  0
  -22.5320   -8.2200   21.3960 C   0  0  0  0  0  0  0  0  0  0  0  0
  -22.1440   -9.1600   20.4250 C   0  0  0  0  0  3  0  0  0  0  0  0
  -22.8620  -10.3560   20.2570 C   0  0  0  0  0  3  0  0  0  0  0  0
  -21.7880   -7.0660   21.4700 O   0  0  0  0  0  0  0  0  0  0  0  0
  -21.7140   -6.3300   22.6240 C   0  0  0  0  0  0  0  0  0  0  0  0
  -21.2340   -6.8850   23.8320 C   0  0  0  0  0  3  0  0  0  0  0  0
  -21.1080   -6.0740   24.9760 C   0  0  0  0  0  3  0  0  0  0  0  0
  -21.4530   -4.7100   24.9160 C   0  0  0  0  0  0  0  0  0  0  0  0
  -21.9250   -4.1560   23.7140 C   0  0  0  0  0  3  0  0  0  0  0  0
  -22.0540   -4.9630   22.5710 C   0  0  0  0  0  0  0  0  0  0  0  0
  -22.4880   -4.4180   21.4090 F   0  0  0  0  0  0  0  0  0  0  0  0
  -21.3280   -3.9280   26.0150 F   0  0  0  0  0  0  0  0  0  0  0  0
  -22.7990  -13.7120   21.0760 C   0  0  0  0  0  0  0  0  0  0  0  0
  -22.0430  -13.0200   21.9210 N   0  0  0  0  0  0  0  0  0  0  0  0
  -22.3710  -14.7240   20.5220 O   0  0  0  0  0  0  0  0  0  0  0  0
  -22.4000  -12.1990   22.3890 H   0  0  0  0  0  0  0  0  0  0  0  0
  -21.0940  -13.3130   22.0990 H   0  0  0  0  0  0  0  0  0  0  0  0
  -25.4370  -15.4060   20.3450 N   0  0  0  0  0  0  0  0  0  0  0  0
  -24.6670  -16.0600   20.4160 H   0  0  0  0  0  0  0  0  0  0  0  0
  -26.3040  -15.8480   20.0620 H   0  0  0  0  0  0  0  0  0  0  0  0
  -28.7400  -25.3900   20.4820 C   0  0  0  0  0  2  0  0  0  0  0  0
  -28.4880  -26.6910   19.7740 O   0  0  0  0  0  0  0  0  0  0  0  0
  -24.6720  -31.9010   23.1930 C   0  0  0  0  0  0  0  0  0  0  0  0
  -27.3350  -27.4830   19.9340 C   0  0  0  0  0  0  0  0  0  0  0  0
  -23.4820  -30.5650   21.4940 C   0  0  0  0  0  3  0  0  0  0  0  0
  -24.9500  -29.0800   20.0080 C   0  0  0  0  0  0  0  0  0  0  0  0
  -26.0210  -30.9110   21.3190 C   0  0  0  0  0  2  0  0  0  0  0  0
  -26.1180  -29.5560   20.6200 C   0  0  0  0  0  0  0  0  0  0  0  0
  -27.3150  -28.7730   20.5680 C   0  0  0  0  0  3  0  0  0  0  0  0
  -26.1430  -27.0620   19.3140 C   0  0  0  0  0  3  0  0  0  0  0  0
  -24.9640  -27.8390   19.3480 C   0  0  0  0  0  3  0  0  0  0  0  0
  -23.7080  -29.9480   20.0880 C   0  0  0  0  0  2  0  0  0  0  0  0
  -24.7450  -31.1420   22.0600 N   0  0  0  0  0  0  0  0  0  0  0  0
  -23.5850  -32.1350   23.7440 O   0  0  0  0  0  0  0  0  0  0  0  0
  -22.8350  -29.4980   22.4090 C   0  0  0  0  0  0  0  0  0  0  0  0
  -21.5090  -29.3210   22.2900 N   0  0  0  0  0  0  0  0  0  0  0  0
  -23.5260  -28.8320   23.1840 O   0  0  0  0  0  0  0  0  0  0  0  0
  -21.0070  -29.9120   21.6420 H   0  0  0  0  0  0  0  0  0  0  0  0
  -18.1380  -28.1020   22.7920 C   0  0  0  0  0  0  0  0  0  0  0  0
  -20.7030  -28.3400   23.0200 C   0  0  0  0  0  3  0  0  0  0  0  0
  -20.7910  -26.9450   22.3590 C   0  0  0  0  0  2  0  0  0  0  0  0
  -19.6650  -26.6870   21.3520 C   0  0  0  0  0  2  0  0  0  0  0  0
  -18.2980  -26.7950   22.0340 C   0  0  0  0  0  2  0  0  0  0  0  0
  -19.2690  -28.8360   23.2430 C   0  0  0  0  0  0  0  0  0  0  0  0
  -19.0650  -30.0600   23.9170 C   0  0  0  0  0  3  0  0  0  0  0  0
  -17.7660  -30.5510   24.1430 C   0  0  0  0  0  3  0  0  0  0  0  0
  -16.6500  -29.8140   23.7090 C   0  0  0  0  0  3  0  0  0  0  0  0
  -16.8370  -28.5910   23.0370 C   0  0  0  0  0  3  0  0  0  0  0  0
  -25.9460  -32.5240   23.8430 C   0  0  0  0  0  3  0  0  0  0  0  0
  -26.4750  -31.7040   25.0850 C   0  0  1  0  0  0  0  0  0  0  0  0
  -25.3900  -31.4090   26.1460 C   0  0  0  0  0  1  0  0  0  0  0  0
  -27.0690  -30.3510   24.6300 C   0  0  0  0  0  1  0  0  0  0  0  0
  -27.6210  -32.4780   25.7740 C   0  0  0  0  0  1  0  0  0  0  0  0
  -25.6150  -33.9010   24.2400 N   0  0  0  0  0  0  0  0  0  0  0  0
  -25.9300  -34.9950   23.5330 C   0  0  0  0  0  0  0  0  0  0  0  0
  -26.5980  -34.9500   22.4960 O   0  0  0  0  0  0  0  0  0  0  0  0
  -25.0240  -34.0060   25.0500 H   0  0  0  0  0  0  0  0  0  0  0  0
  -24.1780  -36.7810   23.2730 C   0  0  0  0  0  1  0  0  0  0  0  0
  -25.4270  -36.3530   24.0600 C   0  0  0  0  0  3  0  0  0  0  0  0
  -27.5510  -37.2300   24.9270 C   0  0  0  0  0  1  0  0  0  0  0  0
  -26.4440  -37.4250   23.9940 N   0  0  0  0  0  0  0  0  0  0  0  0
  -26.0260  -38.3320   24.1820 H   0  0  0  0  0  0  0  0  0  0  0  0
  1  3  1  0
  1  5  1  0
  2  4  1  0
  3 52  1  0
  3  4  1  0
  4  7  1  0
  5  2  1  0
  7  6  1  0
  8  7  1  0
  9  7  1  0
 10  5  1  0
 12 17  1  0
 13 14  1  0
 13 12  1  0
 15 14  1  0
 15 27  1  0
 15 16  1  0
 17 11  1  0
 17 16  1  0
 18 11  2  0
 19 20  1  0
 19 22  1  0
 20 23  1  0
 22 10  1  0
 22 21  1  0
 23 11  1  0
 23 21  1  0
 24 25  2  0
 25 26  1  0
 25 44  1  0
 26 29  1  0
 27 24  1  0
 27 28  1  0
 28 26  2  0
 29 30  1  0
 30 31  2  0
 32 35  1  0
 32 31  1  0
 33 32  2  0
 34 33  1  0
 34 29  2  0
 35 36  1  0
 36 37  1  0
 37 38  2  0
 39 38  1  0
 39 43  1  0
 40 39  2  0
 41 36  2  0
 41 40  1  0
 42 41  1  0
 44 45  1  0
 45 48  1  0
 45 47  1  0
 46 44  2  0
 49 50  1  0
 49 24  1  0
 51 49  1  0
 53 55  1  0
 53 52  1  0
 54 65  2  0
 55 60  1  0
 56 64  1  0
 56 66  1  0
 57 63  1  0
 57 59  1  0
 58 64  1  0
 59 58  1  0
 60 59  2  0
 61 62  1  0
 61 55  2  0
 62 57  2  0
 63 56  1  0
 64 54  1  0
 66 68  2  0
 67 66  1  0
 69 67  1  0
 70 79  2  0
 70 75  1  0
 71 67  1  0
 71 75  1  0
 72 71  1  0
 73 74  1  0
 73 72  1  0
 74 70  1  0
 75 76  2  0
 76 77  1  0
 78 77  2  0
 79 78  1  0
 80 54  1  0
 80 85  1  0
 80 81  1  0
 81 84  1  1
 81 82  1  0
 83 81  1  0
 85 88  1  0
 86 90  1  0
 86 85  1  0
 87 86  2  0
 90 89  1  0
 92 90  1  0
 92 93  1  0
 92 91  1  0
M  ISO  4  11 100  23 100  52 101  53 101
M  END
>  <TORSDO>  (10) 
F 19

>  <SCORE>  (10) 
-14.127

>  <name>  (10) 
9

>  <ligand_id>  (10) 
9

>  <original_smiles>  (10) 
[H]c1c([H])c([H])c2c(c1[H])C([H])([H])C([H])([H])C([H])([H])C2([H])N([H])C(=O)C1([H])N(C(=O)C([H])(N([H])C(=O)C([H])(N([H])C([H])([H])[H])C([H])([H])[H])C(C([H])([H])[H])(C([H])([H])[H])C([H])([H])[H])C([H])([H])c2c([H])c(OC([H])([H])C3([H])C([H])([H])N(C([H])([H])C4([H])C([H])([H])N(C(=O)N5C([H])([H])C([H])([H])C([H])([H])C([H])(n6nc(-c7c([H])c([H])c(Oc8c([H])c([H])c(F)c([H])c8F)c([H])c7[H])c(C(=O)N([H])[H])c6N([H])[H])C5([H])[H])C([H])([H])C4([H])[H])C([H])([H])C3([H])[N+]([H])([H])C([H])([H])[H])c([H])c([H])c2C1([H])[H]

>  <smiles>  (10) 
[H]c1c([H])c([H])c2c(c1[H])C([H])([H])C([H])([H])C([H])([H])C2([H])N([H])C(=O)C1([H])N(C(=O)C([H])(N([H])C(=O)C([H])(N([H])C([H])([H])[H])C([H])([H])[H])C(C([H])([H])[H])(C([H])([H])[H])C([H])([H])[H])C([H])([H])c2c([H])c(OC([H])([H])C3([H])C([H])([H])N(C([H])([H])C4([H])C([H])([H])N(C(=O)N5C([H])([H])C([H])([H])C([H])([H])C([H])(n6nc(-c7c([H])c([H])c(Oc8c([H])c([H])c(F)c([H])c8F)c([H])c7[H])c(C(=O)N([H])[H])c6N([H])[H])C5([H])[H])C([H])([H])C4([H])[H])C([H])([H])C3([H])[N+]([H])([H])C([H])([H])[H])c([H])c([H])c2C1([H])[H]

$$$$
10:0:0
     RDKit          3D

 88 97  0  0  1  0  0  0  0  0999 V2000
  -29.8430  -21.0250   20.4610 C   0  0  0  0  0  3  0  0  0  0  0  0
  -27.8550  -21.4200   19.7820 C   0  0  0  0  0  3  0  0  0  0  0  0
  -29.2720  -19.7530   20.2090 C   0  0  0  0  0  0  0  0  0  0  0  0
  -27.9780  -20.0710   19.7650 N   0  0  0  0  0  0  0  0  0  0  0  0
  -28.9330  -22.1130   20.1980 N   0  0  0  0  0  0  0  0  0  0  0  0
  -30.5730  -14.8630   20.2950 C   0  0  0  0  0  0  0  0  0  0  0  0
  -30.3970  -12.5450   19.3490 C   0  0  0  0  0  2  0  0  0  0  0  0
  -29.4600  -12.5680   18.1220 C   0  0  0  0  0  2  0  0  0  0  0  0
  -27.9920  -12.3900   18.5600 C   0  0  0  0  0  2  0  0  0  0  0  0
  -27.6100  -13.2990   19.7600 C   0  0  0  0  0  3  0  0  0  0  0  0
  -28.6740  -13.2680   20.8780 C   0  0  0  0  0  2  0  0  0  0  0  0
  -29.9520  -13.6290   20.2580 N   0  0  0  0  0  0  0  0  0  0  0  0
  -31.7750  -14.9240   20.0180 O   0  0  0  0  0  0  0  0  0  0  0  0
  -29.3090  -17.0320   21.1850 C   0  0  0  0  0  2  0  0  0  0  0  0
  -29.9510  -17.1600   19.2060 C   0  0  0  0  0  2  0  0  0  0  0  0
  -29.8420  -18.2390   20.3300 C   0  0  0  0  0  3  0  0  0  0  0  0
  -29.7810  -16.0200   20.1740 N   0  0  0  0  0  0  0  0  0  0  0  0
  -25.2350  -13.8850   20.5170 C   0  0  0  0  0  0  0  0  0  0  0  0
  -24.1700  -13.1090   20.8910 C   0  0  0  0  0  0  0  0  0  0  0  0
  -24.6310  -11.7580   20.8470 C   0  0  0  0  0  0  0  0  0  0  0  0
  -26.2740  -13.0050   20.2660 N   0  0  0  0  0  0  0  0  0  0  0  0
  -25.9210  -11.7200   20.5280 N   0  0  0  0  0  0  0  0  0  0  0  0
  -23.9030  -10.4960   21.0310 C   0  0  0  0  0  0  0  0  0  0  0  0
  -24.3250   -9.5280   21.9680 C   0  0  0  0  0  3  0  0  0  0  0  0
  -23.5980   -8.3300   22.1390 C   0  0  0  0  0  3  0  0  0  0  0  0
  -22.4300   -8.0940   21.3760 C   0  0  0  0  0  0  0  0  0  0  0  0
  -22.0260   -9.0510   20.4290 C   0  0  0  0  0  3  0  0  0  0  0  0
  -22.7560  -10.2400   20.2550 C   0  0  0  0  0  3  0  0  0  0  0  0
  -21.6720   -6.9500   21.4580 O   0  0  0  0  0  0  0  0  0  0  0  0
  -21.5920   -6.2220   22.6180 C   0  0  0  0  0  0  0  0  0  0  0  0
  -21.1190   -6.7870   23.8230 C   0  0  0  0  0  3  0  0  0  0  0  0
  -20.9880   -5.9840   24.9730 C   0  0  0  0  0  3  0  0  0  0  0  0
  -21.3200   -4.6160   24.9190 C   0  0  0  0  0  0  0  0  0  0  0  0
  -21.7860   -4.0510   23.7190 C   0  0  0  0  0  3  0  0  0  0  0  0
  -21.9190   -4.8520   22.5710 C   0  0  0  0  0  0  0  0  0  0  0  0
  -22.3480   -4.2970   21.4120 F   0  0  0  0  0  0  0  0  0  0  0  0
  -21.1890   -3.8410   26.0210 F   0  0  0  0  0  0  0  0  0  0  0  0
  -22.7750  -13.5880   21.1720 C   0  0  0  0  0  0  0  0  0  0  0  0
  -22.0520  -12.8930   22.0430 N   0  0  0  0  0  0  0  0  0  0  0  0
  -22.3350  -14.6140   20.6540 O   0  0  0  0  0  0  0  0  0  0  0  0
  -22.4190  -12.0650   22.4860 H   0  0  0  0  0  0  0  0  0  0  0  0
  -21.1160  -13.1970   22.2730 H   0  0  0  0  0  0  0  0  0  0  0  0
  -25.4010  -15.2570   20.3480 N   0  0  0  0  0  0  0  0  0  0  0  0
  -24.6370  -15.9130   20.4670 H   0  0  0  0  0  0  0  0  0  0  0  0
  -26.2530  -15.6940   20.0220 H   0  0  0  0  0  0  0  0  0  0  0  0
  -29.1600  -23.6470   20.3550 C   0  0  0  0  0  3  0  0  0  0  0  0
  -28.0400  -24.8110   20.0400 C   0  0  0  0  0  3  0  0  0  0  0  0
  -28.2910  -26.3090   20.2490 O   0  0  0  0  0  0  0  0  0  0  0  0
  -24.6520  -31.9050   23.2510 C   0  0  0  0  0  0  0  0  0  0  0  0
  -27.2160  -27.2460   20.1920 C   0  0  0  0  0  0  0  0  0  0  0  0
  -23.4440  -30.5210   21.6070 C   0  0  0  0  0  3  0  0  0  0  0  0
  -24.8830  -28.9550   20.1730 C   0  0  0  0  0  0  0  0  0  0  0  0
  -25.9950  -30.7920   21.4370 C   0  0  0  0  0  2  0  0  0  0  0  0
  -26.0610  -29.4070   20.7820 C   0  0  0  0  0  0  0  0  0  0  0  0
  -27.2300  -28.5670   20.7770 C   0  0  0  0  0  3  0  0  0  0  0  0
  -26.0120  -26.8790   19.5530 C   0  0  0  0  0  3  0  0  0  0  0  0
  -24.8680  -27.7010   19.5450 C   0  0  0  0  0  3  0  0  0  0  0  0
  -23.6570  -29.8500   20.2240 C   0  0  0  0  0  2  0  0  0  0  0  0
  -24.7170  -31.0930   22.1540 N   0  0  0  0  0  0  0  0  0  0  0  0
  -23.5670  -32.1930   23.7800 O   0  0  0  0  0  0  0  0  0  0  0  0
  -22.7650  -29.5090   22.5630 C   0  0  0  0  0  0  0  0  0  0  0  0
  -21.4380  -29.3430   22.4350 N   0  0  0  0  0  0  0  0  0  0  0  0
  -23.4360  -28.8760   23.3830 O   0  0  0  0  0  0  0  0  0  0  0  0
  -20.9550  -29.9060   21.7490 H   0  0  0  0  0  0  0  0  0  0  0  0
  -18.0480  -28.1750   22.9410 C   0  0  0  0  0  0  0  0  0  0  0  0
  -20.6100  -28.4100   23.2020 C   0  0  0  0  0  3  0  0  0  0  0  0
  -20.6960  -26.9810   22.6180 C   0  0  0  0  0  2  0  0  0  0  0  0
  -19.5890  -26.6740   21.6050 C   0  0  0  0  0  2  0  0  0  0  0  0
  -18.2090  -26.8280   22.2550 C   0  0  0  0  0  2  0  0  0  0  0  0
  -19.1750  -28.9240   23.3710 C   0  0  0  0  0  0  0  0  0  0  0  0
  -18.9690  -30.1840   23.9740 C   0  0  0  0  0  3  0  0  0  0  0  0
  -17.6680  -30.6940   24.1490 C   0  0  0  0  0  3  0  0  0  0  0  0
  -16.5570  -29.9430   23.7330 C   0  0  0  0  0  3  0  0  0  0  0  0
  -16.7470  -28.6850   23.1350 C   0  0  0  0  0  3  0  0  0  0  0  0
  -25.9340  -32.5310   23.8800 C   0  0  0  0  0  3  0  0  0  0  0  0
  -25.6270  -33.9280   24.2200 N   0  0  0  0  0  0  0  0  0  0  0  0
  -25.9330  -34.9860   23.4570 C   0  0  0  0  0  0  0  0  0  0  0  0
  -26.5710  -34.8870   22.4060 O   0  0  0  0  0  0  0  0  0  0  0  0
  -25.0560  -34.0790   25.0400 H   0  0  0  0  0  0  0  0  0  0  0  0
  -24.1760  -36.7680   23.1780 C   0  0  0  0  0  1  0  0  0  0  0  0
  -25.4560  -36.3730   23.9330 C   0  0  0  0  0  3  0  0  0  0  0  0
  -27.6170  -37.2800   24.6680 C   0  0  0  0  0  1  0  0  0  0  0  0
  -26.4740  -37.4340   23.7710 N   0  0  0  0  0  0  0  0  0  0  0  0
  -26.0670  -38.3510   23.9300 H   0  0  0  0  0  0  0  0  0  0  0  0
  -26.4420  -31.7520   25.1550 C   0  0  1  0  0  0  0  0  0  0  0  0
  -25.3450  -31.5120   26.2190 C   0  0  0  0  0  1  0  0  0  0  0  0
  -27.0220  -30.3740   24.7590 C   0  0  0  0  0  1  0  0  0  0  0  0
  -27.5930  -32.5400   25.8240 C   0  0  0  0  0  1  0  0  0  0  0  0
  2  5  1  0
  3  1  2  0
  4  2  2  0
  4  3  1  0
  5 46  1  0
  5  1  1  0
  7 12  1  0
  8  9  1  0
  8  7  1  0
 10  9  1  0
 10 21  1  0
 10 11  1  0
 12  6  1  0
 12 11  1  0
 13  6  2  0
 15 17  1  0
 15 16  1  0
 16  3  1  0
 16 14  1  0
 17  6  1  0
 17 14  1  0
 18 19  2  0
 19 38  1  0
 20 19  1  0
 20 23  1  0
 21 18  1  0
 21 22  1  0
 22 20  2  0
 23 24  1  0
 24 25  2  0
 26 29  1  0
 26 25  1  0
 27 26  2  0
 28 27  1  0
 28 23  2  0
 29 30  1  0
 30 31  1  0
 31 32  2  0
 33 32  1  0
 33 37  1  0
 34 33  2  0
 35 30  2  0
 35 34  1  0
 36 35  1  0
 38 39  1  0
 39 42  1  0
 39 41  1  0
 40 38  2  0
 43 44  1  0
 43 18  1  0
 45 43  1  0
 47 48  1  0
 47 46  2  0
 49 60  2  0
 50 48  1  0
 50 55  1  0
 51 59  1  0
 51 61  1  0
 52 58  1  0
 52 54  1  0
 53 59  1  0
 54 53  1  0
 55 54  2  0
 56 50  2  0
 57 56  1  0
 57 52  2  0
 58 51  1  0
 59 49  1  0
 61 63  2  0
 62 61  1  0
 64 62  1  0
 65 74  2  0
 65 70  1  0
 66 62  1  0
 66 70  1  0
 67 66  1  0
 68 69  1  0
 68 67  1  0
 69 65  1  0
 70 71  2  0
 71 72  1  0
 73 72  2  0
 74 73  1  0
 75 49  1  0
 75 76  1  0
 75 85  1  0
 76 79  1  0
 77 81  1  0
 77 76  1  0
 78 77  2  0
 81 80  1  0
 83 84  1  0
 83 81  1  0
 83 82  1  0
 85 88  1  1
 85 86  1  0
 87 85  1  0
M  ISO  4   6 100  17 100  47 101  48 101
M  END
>  <TORSDO>  (11) 
F 18

>  <SCORE>  (11) 
-14.634

>  <name>  (11) 
10

>  <ligand_id>  (11) 
10

>  <original_smiles>  (11) 
[H]c1c([H])c([H])c2c(c1[H])C([H])([H])C([H])([H])C([H])([H])C2([H])N([H])C(=O)C1([H])N(C(=O)C([H])(N([H])C(=O)C([H])(N([H])C([H])([H])[H])C([H])([H])[H])C(C([H])([H])[H])(C([H])([H])[H])C([H])([H])[H])C([H])([H])c2c([H])c(OC([H])([H])C([H])([H])n3c([H])nc(C4([H])C([H])([H])N(C(=O)N5C([H])([H])C([H])([H])C([H])([H])C([H])(n6nc(-c7c([H])c([H])c(Oc8c([H])c([H])c(F)c([H])c8F)c([H])c7[H])c(C(=O)N([H])[H])c6N([H])[H])C5([H])[H])C4([H])[H])c3[H])c([H])c([H])c2C1([H])[H]

>  <smiles>  (11) 
[H]c1c([H])c([H])c2c(c1[H])C([H])([H])C([H])([H])C([H])([H])C2([H])N([H])C(=O)C1([H])N(C(=O)C([H])(N([H])C(=O)C([H])(N([H])C([H])([H])[H])C([H])([H])[H])C(C([H])([H])[H])(C([H])([H])[H])C([H])([H])[H])C([H])([H])c2c([H])c(OC([H])([H])C([H])([H])n3c([H])nc(C4([H])C([H])([H])N(C(=O)N5C([H])([H])C([H])([H])C([H])([H])C([H])(n6nc(-c7c([H])c([H])c(Oc8c([H])c([H])c(F)c([H])c8F)c([H])c7[H])c(C(=O)N([H])[H])c6N([H])[H])C5([H])[H])C4([H])[H])c3[H])c([H])c([H])c2C1([H])[H]

$$$$
11:0:0
     RDKit          3D

 96104  0  0  1  0  0  0  0  0999 V2000
  -26.2480  -21.5870   21.7630 C   0  0  0  0  0  1  0  0  0  0  0  0
  -27.6300  -21.7030   21.0930 C   0  0  0  0  0  3  0  0  0  0  0  0
  -27.5640  -22.6440   19.9430 N   0  0  0  0  0  4  0  0  0  0  0  0
  -28.2340  -22.3740   19.2430 H   0  0  0  0  0  0  0  0  0  0  0  0
  -26.6490  -22.5830   19.5230 H   0  0  0  0  0  0  0  0  0  0  0  0
  -27.8550  -24.0520   20.2960 C   0  0  0  0  0  2  0  0  0  0  0  0
  -27.9580  -24.9700   19.0660 C   0  0  0  0  0  2  0  0  0  0  0  0
  -28.3720  -26.3970   19.4650 C   0  0  0  0  0  2  0  0  0  0  0  0
  -27.9550  -27.3380   18.4840 O   0  0  0  0  0  0  0  0  0  0  0  0
  -24.4720  -31.6130   22.9620 C   0  0  0  0  0  0  0  0  0  0  0  0
  -26.7730  -27.9530   18.8020 C   0  0  0  0  0  0  0  0  0  0  0  0
  -23.0760  -30.4090   21.3110 C   0  0  0  0  0  3  0  0  0  0  0  0
  -24.3440  -29.2220   19.4480 C   0  0  0  0  0  0  0  0  0  0  0  0
  -25.5120  -30.9800   20.7910 C   0  0  0  0  0  2  0  0  0  0  0  0
  -25.5540  -29.7380   19.9310 C   0  0  0  0  0  0  0  0  0  0  0  0
  -26.7720  -29.1060   19.6100 C   0  0  0  0  0  3  0  0  0  0  0  0
  -25.5520  -27.4370   18.3210 C   0  0  0  0  0  3  0  0  0  0  0  0
  -24.3350  -28.0640   18.6480 C   0  0  0  0  0  3  0  0  0  0  0  0
  -23.0850  -29.9700   19.8220 C   0  0  0  0  0  2  0  0  0  0  0  0
  -24.3800  -31.0070   21.7460 N   0  0  0  0  0  0  0  0  0  0  0  0
  -23.4820  -31.7190   23.6990 O   0  0  0  0  0  0  0  0  0  0  0  0
  -22.6330  -29.2050   22.1750 C   0  0  0  0  0  0  0  0  0  0  0  0
  -21.3360  -28.8690   22.1110 N   0  0  0  0  0  0  0  0  0  0  0  0
  -23.4530  -28.5830   22.8560 O   0  0  0  0  0  0  0  0  0  0  0  0
  -20.7280  -29.4320   21.5310 H   0  0  0  0  0  0  0  0  0  0  0  0
  -18.2180  -27.0950   22.5350 C   0  0  0  0  0  0  0  0  0  0  0  0
  -20.7010  -27.7500   22.8080 C   0  0  0  0  0  3  0  0  0  0  0  0
  -21.0300  -26.4100   22.1130 C   0  0  0  0  0  2  0  0  0  0  0  0
  -19.9760  -25.9860   21.0860 C   0  0  0  0  0  2  0  0  0  0  0  0
  -18.6030  -25.8520   21.7500 C   0  0  0  0  0  2  0  0  0  0  0  0
  -19.2030  -27.9950   23.0190 C   0  0  0  0  0  0  0  0  0  0  0  0
  -18.7890  -29.1550   23.7100 C   0  0  0  0  0  3  0  0  0  0  0  0
  -17.4230  -29.4190   23.9220 C   0  0  0  0  0  3  0  0  0  0  0  0
  -16.4530  -28.5160   23.4550 C   0  0  0  0  0  3  0  0  0  0  0  0
  -16.8520  -27.3550   22.7680 C   0  0  0  0  0  3  0  0  0  0  0  0
  -25.8150  -32.2240   23.4730 C   0  0  0  0  0  3  0  0  0  0  0  0
  -26.5070  -31.3560   24.5950 C   0  0  1  0  0  0  0  0  0  0  0  0
  -25.5650  -30.9950   25.7680 C   0  0  0  0  0  1  0  0  0  0  0  0
  -27.0530  -30.0360   24.0020 C   0  0  0  0  0  1  0  0  0  0  0  0
  -27.7250  -32.1150   25.1730 C   0  0  0  0  0  1  0  0  0  0  0  0
  -25.5260  -33.5750   23.9660 N   0  0  0  0  0  0  0  0  0  0  0  0
  -25.7690  -34.7010   23.2820 C   0  0  0  0  0  0  0  0  0  0  0  0
  -26.3310  -34.7110   22.1830 O   0  0  0  0  0  0  0  0  0  0  0  0
  -25.0180  -33.6420   24.8360 H   0  0  0  0  0  0  0  0  0  0  0  0
  -23.9920  -36.4820   23.2690 C   0  0  0  0  0  1  0  0  0  0  0  0
  -25.3110  -36.0280   23.9170 C   0  0  0  0  0  3  0  0  0  0  0  0
  -27.5060  -36.8710   24.6210 C   0  0  0  0  0  1  0  0  0  0  0  0
  -26.3160  -37.1070   23.8080 N   0  0  0  0  0  0  0  0  0  0  0  0
  -25.9170  -38.0000   24.0830 H   0  0  0  0  0  0  0  0  0  0  0  0
  -28.1490  -20.3040   20.6840 C   0  0  0  0  0  2  0  0  0  0  0  0
  -29.5870  -20.2230   20.0890 C   0  0  0  0  0  3  0  0  0  0  0  0
  -31.2950  -14.8240   19.5770 C   0  0  0  0  0  0  0  0  0  0  0  0
  -30.9700  -12.4630   18.9770 C   0  0  0  0  0  2  0  0  0  0  0  0
  -29.9870  -12.3640   17.7960 C   0  0  0  0  0  2  0  0  0  0  0  0
  -28.5380  -12.2880   18.3110 C   0  0  0  0  0  2  0  0  0  0  0  0
  -28.2130  -13.3940   19.3510 C   0  0  0  0  0  3  0  0  0  0  0  0
  -29.3140  -13.4910   20.4290 C   0  0  0  0  0  2  0  0  0  0  0  0
  -30.6070  -13.6620   19.7500 N   0  0  0  0  0  0  0  0  0  0  0  0
  -32.3970  -14.8620   19.0220 O   0  0  0  0  0  0  0  0  0  0  0  0
  -30.7050  -16.9000   18.5810 C   0  0  0  0  0  2  0  0  0  0  0  0
  -30.6360  -16.6310   21.0510 C   0  0  0  0  0  2  0  0  0  0  0  0
  -29.8360  -18.1540   18.7050 C   0  0  0  0  0  2  0  0  0  0  0  0
  -29.7660  -17.9090   21.1290 C   0  0  0  0  0  2  0  0  0  0  0  0
  -30.5970  -15.9740   19.7290 N   0  0  0  0  0  0  0  0  0  0  0  0
  -30.0900  -18.8180   20.0020 N   0  0  2  0  0  4  0  0  0  0  0  0
  -31.0940  -18.9220   20.0340 H   0  0  0  0  0  0  0  0  0  0  0  0
  -25.9490  -14.1400   20.3200 C   0  0  0  0  0  0  0  0  0  0  0  0
  -24.8620  -13.4300   20.7570 C   0  0  0  0  0  0  0  0  0  0  0  0
  -25.2060  -12.0510   20.6120 C   0  0  0  0  0  0  0  0  0  0  0  0
  -26.8940  -13.1970   19.9470 N   0  0  0  0  0  0  0  0  0  0  0  0
  -26.4560  -11.9320   20.1780 N   0  0  0  0  0  0  0  0  0  0  0  0
  -24.4000  -10.8400   20.8050 C   0  0  0  0  0  0  0  0  0  0  0  0
  -24.7670   -9.8510   21.7450 C   0  0  0  0  0  3  0  0  0  0  0  0
  -23.9670   -8.7030   21.9260 C   0  0  0  0  0  3  0  0  0  0  0  0
  -22.7850   -8.5350   21.1660 C   0  0  0  0  0  0  0  0  0  0  0  0
  -22.4360   -9.5100   20.2160 C   0  0  0  0  0  3  0  0  0  0  0  0
  -23.2360  -10.6510   20.0330 C   0  0  0  0  0  3  0  0  0  0  0  0
  -21.9580   -7.4410   21.2560 O   0  0  0  0  0  0  0  0  0  0  0  0
  -21.7660   -6.7800   22.4430 C   0  0  0  0  0  0  0  0  0  0  0  0
  -21.2730   -7.4380   23.5910 C   0  0  0  0  0  3  0  0  0  0  0  0
  -21.0250   -6.7050   24.7690 C   0  0  0  0  0  3  0  0  0  0  0  0
  -21.2600   -5.3180   24.7990 C   0  0  0  0  0  0  0  0  0  0  0  0
  -21.7460   -4.6600   23.6560 C   0  0  0  0  0  3  0  0  0  0  0  0
  -21.9950   -5.3890   22.4800 C   0  0  0  0  0  0  0  0  0  0  0  0
  -22.4440   -4.7470   21.3740 F   0  0  0  0  0  0  0  0  0  0  0  0
  -21.0140   -4.6130   25.9280 F   0  0  0  0  0  0  0  0  0  0  0  0
  -23.5420  -13.9960   21.1920 C   0  0  0  0  0  0  0  0  0  0  0  0
  -22.8660  -13.3300   22.1230 N   0  0  0  0  0  0  0  0  0  0  0  0
  -23.1270  -15.0630   20.7430 O   0  0  0  0  0  0  0  0  0  0  0  0
  -23.2190  -12.4660   22.5080 H   0  0  0  0  0  0  0  0  0  0  0  0
  -21.9830  -13.6920   22.4560 H   0  0  0  0  0  0  0  0  0  0  0  0
  -26.2020  -15.5020   20.1850 N   0  0  0  0  0  0  0  0  0  0  0  0
  -25.4700  -16.1890   20.3240 H   0  0  0  0  0  0  0  0  0  0  0  0
  -27.0190  -15.8790   19.7240 H   0  0  0  0  0  0  0  0  0  0  0  0
  -30.7630  -22.5620   20.2060 C   0  0  0  0  0  1  0  0  0  0  0  0
  -30.6390  -21.1360   20.7760 C   0  0  0  0  0  2  0  0  0  0  0  0
  2  1  1  0
  3  6  1  0
  3  2  1  0
  4  3  1  0
  5  3  1  0
  7  8  1  0
  7  6  1  0
  9 11  1  0
  9  8  1  0
 10 21  2  0
 11 16  1  0
 12 20  1  0
 12 22  1  0
 13 19  1  0
 13 15  1  0
 14 20  1  0
 15 14  1  0
 16 15  2  0
 17 18  1  0
 17 11  2  0
 18 13  2  0
 19 12  1  0
 20 10  1  0
 22 24  2  0
 23 22  1  0
 25 23  1  0
 26 35  2  0
 26 31  1  0
 27 23  1  0
 27 31  1  0
 28 27  1  0
 29 30  1  0
 29 28  1  0
 30 26  1  0
 31 32  2  0
 32 33  1  0
 34 33  2  0
 35 34  1  0
 36 10  1  0
 36 41  1  0
 36 37  1  0
 37 40  1  1
 37 38  1  0
 39 37  1  0
 41 44  1  0
 42 46  1  0
 42 41  1  0
 43 42  2  0
 46 45  1  0
 48 46  1  0
 48 49  1  0
 48 47  1  0
 50  2  1  0
 51 50  1  0
 51 96  1  0
 52 64  1  0
 52 58  1  0
 53 58  1  0
 54 55  1  0
 54 53  1  0
 56 55  1  0
 56 70  1  0
 56 57  1  0
 58 57  1  0
 59 52  2  0
 60 62  1  0
 60 64  1  0
 61 63  1  0
 62 65  1  0
 64 61  1  0
 65 66  1  6
 65 51  1  0
 65 63  1  0
 67 68  2  0
 68 87  1  0
 69 68  1  0
 69 72  1  0
 70 71  1  0
 70 67  1  0
 71 69  2  0
 72 73  1  0
 73 74  2  0
 75 78  1  0
 75 74  1  0
 76 75  2  0
 77 76  1  0
 77 72  2  0
 78 79  1  0
 79 84  2  0
 79 80  1  0
 80 81  2  0
 81 82  1  0
 82 86  1  0
 83 82  2  0
 84 83  1  0
 85 84  1  0
 87 88  1  0
 88 91  1  0
 88 90  1  0
 89 87  2  0
 92 67  1  0
 92 93  1  0
 94 92  1  0
 95 96  1  0
M  ISO  4   8 101   9 101  52 100  64 100
M  END
>  <TORSDO>  (12) 
F 23

>  <SCORE>  (12) 
-7.802

>  <name>  (12) 
11

>  <ligand_id>  (12) 
11

>  <original_smiles>  (12) 
[H]c1c([H])c([H])c2c(c1[H])C([H])([H])C([H])([H])C([H])([H])C2([H])N([H])C(=O)C1([H])N(C(=O)C([H])(N([H])C(=O)C([H])(N([H])C([H])([H])[H])C([H])([H])[H])C(C([H])([H])[H])(C([H])([H])[H])C([H])([H])[H])C([H])([H])c2c([H])c(OC([H])([H])C([H])([H])C([H])([H])[N+]([H])([H])C([H])(C([H])([H])[H])C([H])([H])C([H])(C([H])([H])C([H])([H])[H])[N+]3([H])C([H])([H])C([H])([H])N(C(=O)N4C([H])([H])C([H])([H])C([H])([H])C([H])(n5nc(-c6c([H])c([H])c(Oc7c([H])c([H])c(F)c([H])c7F)c([H])c6[H])c(C(=O)N([H])[H])c5N([H])[H])C4([H])[H])C([H])([H])C3([H])[H])c([H])c([H])c2C1([H])[H]

>  <smiles>  (12) 
[H]c1c([H])c([H])c2c(c1[H])C([H])([H])C([H])([H])C([H])([H])C2([H])N([H])C(=O)C1([H])N(C(=O)C([H])(N([H])C(=O)C([H])(N([H])C([H])([H])[H])C([H])([H])[H])C(C([H])([H])[H])(C([H])([H])[H])C([H])([H])[H])C([H])([H])c2c([H])c(OC([H])([H])C([H])([H])C([H])([H])[N+]([H])([H])C([H])(C([H])([H])[H])C([H])([H])C([H])(C([H])([H])C([H])([H])[H])[N+]3([H])C([H])([H])C([H])([H])N(C(=O)N4C([H])([H])C([H])([H])C([H])([H])C([H])(n5nc(-c6c([H])c([H])c(Oc7c([H])c([H])c(F)c([H])c7F)c([H])c6[H])c(C(=O)N([H])[H])c5N([H])[H])C4([H])[H])C([H])([H])C3([H])[H])c([H])c([H])c2C1([H])[H]

$$$$
12:0:0
     RDKit          3D

 96106  0  0  1  0  0  0  0  0999 V2000
  -29.7620  -21.4300   22.8710 C   0  0  0  0  0  3  0  0  0  0  0  0
  -29.2780  -21.4610   21.5310 C   0  0  0  0  0  0  0  0  0  0  0  0
  -29.2410  -22.8170   21.2430 C   0  0  0  0  0  0  0  0  0  0  0  0
  -30.0330  -24.8890   22.5810 C   0  0  0  0  0  1  0  0  0  0  0  0
  -30.1090  -22.6170   23.3300 N   0  0  0  0  0  0  0  0  0  0  0  0
  -29.7920  -23.4760   22.3410 N   0  0  0  0  0  0  0  0  0  0  0  0
  -28.5540  -20.2380   19.2720 C   0  0  0  0  0  2  0  0  0  0  0  0
  -29.9350  -19.6170   19.0940 C   0  0  0  0  0  2  0  0  0  0  0  0
  -28.8270  -20.2040   20.7730 C   0  0  0  0  0  3  0  0  0  0  0  0
  -29.9030  -19.2020   20.5040 N   0  0  1  0  0  4  0  0  0  0  0  0
  -30.7570  -19.4720   20.9670 H   0  0  0  0  0  0  0  0  0  0  0  0
  -30.7580  -14.6100   20.3830 C   0  0  0  0  0  0  0  0  0  0  0  0
  -30.4430  -12.4110   19.3090 C   0  0  0  0  0  2  0  0  0  0  0  0
  -29.5190  -12.5890   18.0870 C   0  0  0  0  0  2  0  0  0  0  0  0
  -28.0380  -12.4620   18.5060 C   0  0  0  0  0  2  0  0  0  0  0  0
  -27.6910  -13.3080   19.7640 C   0  0  0  0  0  3  0  0  0  0  0  0
  -28.7500  -13.1530   20.8790 C   0  0  0  0  0  2  0  0  0  0  0  0
  -30.0670  -13.4400   20.2920 N   0  0  0  0  0  0  0  0  0  0  0  0
  -31.9220  -14.7190   19.9870 O   0  0  0  0  0  0  0  0  0  0  0  0
  -29.6120  -16.6890   19.7030 C   0  0  0  0  0  2  0  0  0  0  0  0
  -30.7560  -16.8940   21.3510 C   0  0  0  0  0  2  0  0  0  0  0  0
  -29.6040  -17.7470   20.8140 C   0  0  0  0  0  3  0  0  0  0  0  0
  -30.0630  -15.7230   20.7410 N   0  0  0  0  0  0  0  0  0  0  0  0
  -25.2840  -13.8940   20.4670 C   0  0  0  0  0  0  0  0  0  0  0  0
  -24.2240  -13.1140   20.8380 C   0  0  0  0  0  0  0  0  0  0  0  0
  -24.7010  -11.7670   20.8230 C   0  0  0  0  0  0  0  0  0  0  0  0
  -26.3420  -13.0230   20.2480 N   0  0  0  0  0  0  0  0  0  0  0  0
  -25.9940  -11.7400   20.5250 N   0  0  0  0  0  0  0  0  0  0  0  0
  -23.9830  -10.4980   21.0200 C   0  0  0  0  0  0  0  0  0  0  0  0
  -24.4110   -9.5550   21.9790 C   0  0  0  0  0  3  0  0  0  0  0  0
  -23.7010   -8.3500   22.1640 C   0  0  0  0  0  3  0  0  0  0  0  0
  -22.5480   -8.0800   21.3890 C   0  0  0  0  0  0  0  0  0  0  0  0
  -22.1380   -9.0150   20.4210 C   0  0  0  0  0  3  0  0  0  0  0  0
  -22.8500  -10.2130   20.2330 C   0  0  0  0  0  3  0  0  0  0  0  0
  -21.8080   -6.9270   21.4830 O   0  0  0  0  0  0  0  0  0  0  0  0
  -21.7280   -6.2150   22.6530 C   0  0  0  0  0  0  0  0  0  0  0  0
  -21.2280   -6.7870   23.8420 C   0  0  0  0  0  3  0  0  0  0  0  0
  -21.0920   -5.9980   25.0010 C   0  0  0  0  0  3  0  0  0  0  0  0
  -21.4530   -4.6380   24.9760 C   0  0  0  0  0  0  0  0  0  0  0  0
  -21.9550   -4.0650   23.7930 C   0  0  0  0  0  3  0  0  0  0  0  0
  -22.0850   -4.8510   22.6350 C   0  0  0  0  0  0  0  0  0  0  0  0
  -22.5420   -4.2880   21.4920 F   0  0  0  0  0  0  0  0  0  0  0  0
  -21.3220   -3.8790   26.0880 F   0  0  0  0  0  0  0  0  0  0  0  0
  -22.8190  -13.5780   21.0950 C   0  0  0  0  0  0  0  0  0  0  0  0
  -22.0880  -12.8830   21.9610 N   0  0  0  0  0  0  0  0  0  0  0  0
  -22.3780  -14.5950   20.5630 O   0  0  0  0  0  0  0  0  0  0  0  0
  -22.4610  -12.0690   22.4230 H   0  0  0  0  0  0  0  0  0  0  0  0
  -21.1440  -13.1790   22.1700 H   0  0  0  0  0  0  0  0  0  0  0  0
  -25.4330  -15.2630   20.2770 N   0  0  0  0  0  0  0  0  0  0  0  0
  -24.6530  -15.9030   20.3760 H   0  0  0  0  0  0  0  0  0  0  0  0
  -26.2790  -15.7090   19.9490 H   0  0  0  0  0  0  0  0  0  0  0  0
  -28.6710  -23.5320   20.1740 N   0  0  0  0  0  0  0  0  0  0  0  0
  -27.7830  -23.9200   20.4720 H   0  0  0  0  0  0  0  0  0  0  0  0
  -29.4370  -24.5190   19.3960 C   0  0  0  0  0  2  0  0  0  0  0  0
  -28.6170  -25.7850   18.9670 C   0  0  0  0  0  2  0  0  0  0  0  0
  -28.3180  -26.7390   20.0170 O   0  0  0  0  0  0  0  0  0  0  0  0
  -24.5410  -31.9220   23.2120 C   0  0  0  0  0  0  0  0  0  0  0  0
  -27.1340  -27.4730   20.0130 C   0  0  0  0  0  0  0  0  0  0  0  0
  -23.3020  -30.5380   21.5820 C   0  0  0  0  0  3  0  0  0  0  0  0
  -24.7240  -29.0020   20.1120 C   0  0  0  0  0  0  0  0  0  0  0  0
  -25.8250  -30.8710   21.3450 C   0  0  0  0  0  2  0  0  0  0  0  0
  -25.8940  -29.5010   20.6930 C   0  0  0  0  0  0  0  0  0  0  0  0
  -27.0920  -28.7410   20.6540 C   0  0  0  0  0  3  0  0  0  0  0  0
  -25.9310  -26.9940   19.4370 C   0  0  0  0  0  3  0  0  0  0  0  0
  -24.7410  -27.7450   19.4850 C   0  0  0  0  0  3  0  0  0  0  0  0
  -23.4780  -29.8630   20.1950 C   0  0  0  0  0  2  0  0  0  0  0  0
  -24.5760  -31.1240   22.1050 N   0  0  0  0  0  0  0  0  0  0  0  0
  -23.4700  -32.1960   23.7710 O   0  0  0  0  0  0  0  0  0  0  0  0
  -22.6570  -29.5180   22.5440 C   0  0  0  0  0  0  0  0  0  0  0  0
  -21.3360  -29.3250   22.4130 N   0  0  0  0  0  0  0  0  0  0  0  0
  -23.3440  -28.8970   23.3620 O   0  0  0  0  0  0  0  0  0  0  0  0
  -20.8410  -29.8660   21.7170 H   0  0  0  0  0  0  0  0  0  0  0  0
  -17.9770  -28.0900   22.9050 C   0  0  0  0  0  0  0  0  0  0  0  0
  -20.5280  -28.3830   23.1850 C   0  0  0  0  0  3  0  0  0  0  0  0
  -20.6540  -26.9530   22.6150 C   0  0  0  0  0  2  0  0  0  0  0  0
  -19.5610  -26.6100   21.5970 C   0  0  0  0  0  2  0  0  0  0  0  0
  -18.1750  -26.7400   22.2370 C   0  0  0  0  0  2  0  0  0  0  0  0
  -19.0830  -28.8680   23.3370 C   0  0  0  0  0  0  0  0  0  0  0  0
  -18.8460  -30.1310   23.9210 C   0  0  0  0  0  3  0  0  0  0  0  0
  -17.5350  -30.6190   24.0770 C   0  0  0  0  0  3  0  0  0  0  0  0
  -16.4430  -29.8370   23.6620 C   0  0  0  0  0  3  0  0  0  0  0  0
  -16.6650  -28.5740   23.0830 C   0  0  0  0  0  3  0  0  0  0  0  0
  -25.8380  -32.5450   23.8150 C   0  0  0  0  0  3  0  0  0  0  0  0
  -26.3620  -31.7720   25.0870 C   0  0  1  0  0  0  0  0  0  0  0  0
  -25.2740  -31.5390   26.1630 C   0  0  0  0  0  1  0  0  0  0  0  0
  -26.9290  -30.3910   24.6850 C   0  0  0  0  0  1  0  0  0  0  0  0
  -27.5220  -32.5580   25.7430 C   0  0  0  0  0  1  0  0  0  0  0  0
  -25.5400  -33.9440   24.1500 N   0  0  0  0  0  0  0  0  0  0  0  0
  -25.8860  -34.9990   23.3970 C   0  0  0  0  0  0  0  0  0  0  0  0
  -26.5590  -34.8950   22.3690 O   0  0  0  0  0  0  0  0  0  0  0  0
  -24.9370  -34.0980   24.9420 H   0  0  0  0  0  0  0  0  0  0  0  0
  -24.1910  -36.8240   23.0270 C   0  0  0  0  0  1  0  0  0  0  0  0
  -25.4070  -36.3880   23.8590 C   0  0  0  0  0  3  0  0  0  0  0  0
  -27.5320  -37.2370   24.7490 C   0  0  0  0  0  1  0  0  0  0  0  0
  -26.4540  -37.4290   23.7840 N   0  0  0  0  0  0  0  0  0  0  0  0
  -26.0560  -38.3520   23.9340 H   0  0  0  0  0  0  0  0  0  0  0  0
  1  5  2  0
  2  1  1  0
  3  2  2  0
  3  6  1  0
  6  4  1  0
  6  5  1  0
  7  9  1  0
  8  7  1  0
  8 10  1  0
  9  2  1  0
 10  9  1  0
 10 22  1  0
 10 11  1  1
 12 23  1  0
 13 18  1  0
 14 15  1  0
 14 13  1  0
 16 15  1  0
 16 27  1  0
 16 17  1  0
 18 12  1  0
 18 17  1  0
 19 12  2  0
 20 23  1  0
 22 20  1  0
 22 21  1  0
 23 21  1  0
 24 25  2  0
 25 44  1  0
 26 25  1  0
 26 29  1  0
 27 24  1  0
 27 28  1  0
 28 26  2  0
 29 30  1  0
 30 31  2  0
 32 35  1  0
 32 31  1  0
 33 32  2  0
 34 33  1  0
 34 29  2  0
 35 36  1  0
 36 37  1  0
 37 38  2  0
 39 38  1  0
 39 43  1  0
 40 39  2  0
 41 36  2  0
 41 40  1  0
 42 41  1  0
 44 45  1  0
 45 48  1  0
 45 47  1  0
 46 44  2  0
 49 50  1  0
 49 24  1  0
 51 49  1  0
 52 53  1  0
 52  3  1  0
 54 52  1  0
 55 54  1  0
 55 56  1  0
 57 68  2  0
 58 56  1  0
 58 63  1  0
 59 67  1  0
 59 69  1  0
 60 66  1  0
 60 62  1  0
 61 67  1  0
 62 61  1  0
 63 62  2  0
 64 65  1  0
 64 58  2  0
 65 60  2  0
 66 59  1  0
 67 57  1  0
 69 71  2  0
 70 69  1  0
 72 70  1  0
 73 82  2  0
 73 78  1  0
 74 70  1  0
 74 78  1  0
 75 74  1  0
 76 77  1  0
 76 75  1  0
 77 73  1  0
 78 79  2  0
 79 80  1  0
 81 80  2  0
 82 81  1  0
 83 57  1  0
 83 88  1  0
 83 84  1  0
 84 87  1  1
 84 85  1  0
 86 84  1  0
 88 91  1  0
 89 93  1  0
 89 88  1  0
 90 89  2  0
 93 92  1  0
 95 93  1  0
 95 96  1  0
 95 94  1  0
M  ISO  4  12 100  23 100  55 101  56 101
M  END
>  <TORSDO>  (13) 
F 20

>  <SCORE>  (13) 
-14.332

>  <name>  (13) 
12

>  <ligand_id>  (13) 
12

>  <original_smiles>  (13) 
[H]c1nn(C([H])([H])[H])c(N([H])C([H])([H])C([H])([H])Oc2c([H])c([H])c3c(c2[H])C([H])([H])N(C(=O)C([H])(N([H])C(=O)C([H])(N([H])C([H])([H])[H])C([H])([H])[H])C(C([H])([H])[H])(C([H])([H])[H])C([H])([H])[H])C([H])(C(=O)N([H])C2([H])c4c([H])c([H])c([H])c([H])c4C([H])([H])C([H])([H])C2([H])[H])C3([H])[H])c1C1([H])C([H])([H])C([H])([H])[N+]1([H])C1([H])C([H])([H])N(C(=O)N2C([H])([H])C([H])([H])C([H])([H])C([H])(n3nc(-c4c([H])c([H])c(Oc5c([H])c([H])c(F)c([H])c5F)c([H])c4[H])c(C(=O)N([H])[H])c3N([H])[H])C2([H])[H])C1([H])[H]

>  <smiles>  (13) 
[H]c1nn(C([H])([H])[H])c(N([H])C([H])([H])C([H])([H])Oc2c([H])c([H])c3c(c2[H])C([H])([H])N(C(=O)C([H])(N([H])C(=O)C([H])(N([H])C([H])([H])[H])C([H])([H])[H])C(C([H])([H])[H])(C([H])([H])[H])C([H])([H])[H])C([H])(C(=O)N([H])C2([H])c4c([H])c([H])c([H])c([H])c4C([H])([H])C([H])([H])C2([H])[H])C3([H])[H])c1C1([H])C([H])([H])C([H])([H])[N+]1([H])C1([H])C([H])([H])N(C(=O)N2C([H])([H])C([H])([H])C([H])([H])C([H])(n3nc(-c4c([H])c([H])c(Oc5c([H])c([H])c(F)c([H])c5F)c([H])c4[H])c(C(=O)N([H])[H])c3N([H])[H])C2([H])[H])C1([H])[H]

$$$$
13:0:0
     RDKit          3D

 95104  0  0  1  0  0  0  0  0999 V2000
  -31.4990  -19.1620   21.7100 C   0  0  0  0  0  3  0  0  0  0  0  0
  -30.7480  -20.2800   21.3390 C   0  0  0  0  0  0  0  0  0  0  0  0
  -29.7320  -20.1170   20.4390 C   0  0  0  0  0  0  0  0  0  0  0  0
  -30.1760  -17.9070   20.3000 C   0  0  0  0  0  0  0  0  0  0  0  0
  -30.8230  -21.7140   21.7830 C   0  0  0  0  0  2  0  0  0  0  0  0
  -29.0370  -21.4200   20.1660 C   0  0  0  0  0  2  0  0  0  0  0  0
  -31.1900  -17.9600   21.1720 N   0  0  0  0  0  0  0  0  0  0  0  0
  -29.4190  -18.9290   19.9020 N   0  0  0  0  0  0  0  0  0  0  0  0
  -29.5690  -22.3290   21.2310 N   0  0  2  0  0  4  0  0  0  0  0  0
  -28.8980  -22.2400   21.9770 H   0  0  0  0  0  0  0  0  0  0  0  0
  -29.8270  -16.5690   19.6900 C   0  0  0  0  0  2  0  0  0  0  0  0
  -30.6680  -14.4290   20.4600 C   0  0  0  0  0  0  0  0  0  0  0  0
  -30.3860  -12.2650   19.3710 C   0  0  0  0  0  2  0  0  0  0  0  0
  -29.4760  -12.5160   18.1480 C   0  0  0  0  0  2  0  0  0  0  0  0
  -27.9890  -12.4040   18.5450 C   0  0  0  0  0  2  0  0  0  0  0  0
  -27.6380  -13.2300   19.8110 C   0  0  0  0  0  3  0  0  0  0  0  0
  -28.6710  -12.9800   20.9390 C   0  0  0  0  0  2  0  0  0  0  0  0
  -30.0190  -13.2420   20.4020 N   0  0  0  0  0  0  0  0  0  0  0  0
  -31.8190  -14.6090   20.0560 O   0  0  0  0  0  0  0  0  0  0  0  0
  -29.8340  -15.4540   20.6300 N   0  0  0  0  0  0  0  0  0  0  0  0
  -28.9530  -15.2540   21.0710 H   0  0  0  0  0  0  0  0  0  0  0  0
  -25.2220  -13.8630   20.4490 C   0  0  0  0  0  0  0  0  0  0  0  0
  -24.1440  -13.0990   20.8080 C   0  0  0  0  0  0  0  0  0  0  0  0
  -24.6020  -11.7470   20.8080 C   0  0  0  0  0  0  0  0  0  0  0  0
  -26.2710  -12.9740   20.2590 N   0  0  0  0  0  0  0  0  0  0  0  0
  -25.8970  -11.6990   20.5300 N   0  0  0  0  0  0  0  0  0  0  0  0
  -23.8690  -10.4890   21.0030 C   0  0  0  0  0  0  0  0  0  0  0  0
  -24.2860   -9.5330   21.9550 C   0  0  0  0  0  3  0  0  0  0  0  0
  -23.5540   -8.3390   22.1350 C   0  0  0  0  0  3  0  0  0  0  0  0
  -22.3940   -8.0940   21.3640 C   0  0  0  0  0  0  0  0  0  0  0  0
  -21.9970   -9.0400   20.4040 C   0  0  0  0  0  3  0  0  0  0  0  0
  -22.7280  -10.2250   20.2210 C   0  0  0  0  0  3  0  0  0  0  0  0
  -21.6350   -6.9530   21.4550 O   0  0  0  0  0  0  0  0  0  0  0  0
  -21.5680   -6.2240   22.6140 C   0  0  0  0  0  0  0  0  0  0  0  0
  -21.1250   -6.7940   23.8270 C   0  0  0  0  0  3  0  0  0  0  0  0
  -21.0020   -5.9910   24.9800 C   0  0  0  0  0  3  0  0  0  0  0  0
  -21.3160   -4.6190   24.9190 C   0  0  0  0  0  0  0  0  0  0  0  0
  -21.7510   -4.0490   23.7100 C   0  0  0  0  0  3  0  0  0  0  0  0
  -21.8750   -4.8490   22.5600 C   0  0  0  0  0  0  0  0  0  0  0  0
  -22.2760   -4.2900   21.3930 F   0  0  0  0  0  0  0  0  0  0  0  0
  -21.1910   -3.8450   26.0220 F   0  0  0  0  0  0  0  0  0  0  0  0
  -22.7430  -13.5840   21.0410 C   0  0  0  0  0  0  0  0  0  0  0  0
  -21.9950  -12.9050   21.9030 N   0  0  0  0  0  0  0  0  0  0  0  0
  -22.3200  -14.6030   20.4960 O   0  0  0  0  0  0  0  0  0  0  0  0
  -22.3500  -12.0820   22.3680 H   0  0  0  0  0  0  0  0  0  0  0  0
  -21.0540  -13.2140   22.1030 H   0  0  0  0  0  0  0  0  0  0  0  0
  -25.3920  -15.2300   20.2510 N   0  0  0  0  0  0  0  0  0  0  0  0
  -24.6130  -15.8760   20.3240 H   0  0  0  0  0  0  0  0  0  0  0  0
  -26.2340  -15.6680   19.9020 H   0  0  0  0  0  0  0  0  0  0  0  0
  -29.6600  -23.7900   20.8930 C   0  0  0  0  0  3  0  0  0  0  0  0
  -30.6090  -26.0150   21.9620 C   0  0  0  0  0  1  0  0  0  0  0  0
  -30.0970  -24.5830   22.1640 C   0  0  0  0  0  2  0  0  0  0  0  0
  -28.3330  -24.3400   20.2690 C   0  0  0  0  0  2  0  0  0  0  0  0
  -28.4720  -25.5750   19.3500 C   0  0  0  0  0  2  0  0  0  0  0  0
  -28.3040  -26.7980   20.0600 O   0  0  0  0  0  0  0  0  0  0  0  0
  -24.5230  -31.9000   23.2250 C   0  0  0  0  0  0  0  0  0  0  0  0
  -27.0870  -27.4470   20.0980 C   0  0  0  0  0  0  0  0  0  0  0  0
  -23.2810  -30.5100   21.6000 C   0  0  0  0  0  3  0  0  0  0  0  0
  -24.6940  -28.9550   20.1660 C   0  0  0  0  0  0  0  0  0  0  0  0
  -25.8040  -30.8470   21.3660 C   0  0  0  0  0  2  0  0  0  0  0  0
  -25.8640  -29.4750   20.7310 C   0  0  0  0  0  0  0  0  0  0  0  0
  -27.0590  -28.7260   20.6960 C   0  0  0  0  0  3  0  0  0  0  0  0
  -25.8880  -26.9220   19.5580 C   0  0  0  0  0  3  0  0  0  0  0  0
  -24.7000  -27.6740   19.5860 C   0  0  0  0  0  3  0  0  0  0  0  0
  -23.4620  -29.8270   20.2200 C   0  0  0  0  0  2  0  0  0  0  0  0
  -24.5550  -31.0990   22.1220 N   0  0  0  0  0  0  0  0  0  0  0  0
  -23.4530  -32.1860   23.7780 O   0  0  0  0  0  0  0  0  0  0  0  0
  -22.6320  -29.4980   22.5710 C   0  0  0  0  0  0  0  0  0  0  0  0
  -21.3050  -29.3280   22.4550 N   0  0  0  0  0  0  0  0  0  0  0  0
  -23.3150  -28.8660   23.3810 O   0  0  0  0  0  0  0  0  0  0  0  0
  -20.8140  -29.8890   21.7740 H   0  0  0  0  0  0  0  0  0  0  0  0
  -17.9250  -28.1620   22.9660 C   0  0  0  0  0  0  0  0  0  0  0  0
  -20.4840  -28.4000   23.2330 C   0  0  0  0  0  3  0  0  0  0  0  0
  -20.5760  -26.9660   22.6630 C   0  0  0  0  0  2  0  0  0  0  0  0
  -19.4690  -26.6470   21.6530 C   0  0  0  0  0  2  0  0  0  0  0  0
  -18.0910  -26.8060   22.3010 C   0  0  0  0  0  2  0  0  0  0  0  0
  -19.0500  -28.9170   23.3890 C   0  0  0  0  0  0  0  0  0  0  0  0
  -18.8420  -30.1860   23.9720 C   0  0  0  0  0  3  0  0  0  0  0  0
  -17.5420  -30.6990   24.1380 C   0  0  0  0  0  3  0  0  0  0  0  0
  -16.4310  -29.9390   23.7330 C   0  0  0  0  0  3  0  0  0  0  0  0
  -16.6240  -28.6730   23.1530 C   0  0  0  0  0  3  0  0  0  0  0  0
  -25.8240  -32.5140   23.8280 C   0  0  0  0  0  3  0  0  0  0  0  0
  -25.5360  -33.9160   24.1590 N   0  0  0  0  0  0  0  0  0  0  0  0
  -25.8840  -34.9660   23.4030 C   0  0  0  0  0  0  0  0  0  0  0  0
  -26.5530  -34.8570   22.3720 O   0  0  0  0  0  0  0  0  0  0  0  0
  -24.9360  -34.0780   24.9540 H   0  0  0  0  0  0  0  0  0  0  0  0
  -24.1860  -36.7920   23.0590 C   0  0  0  0  0  1  0  0  0  0  0  0
  -25.4190  -36.3590   23.8680 C   0  0  0  0  0  3  0  0  0  0  0  0
  -27.5620  -37.2070   24.7120 C   0  0  0  0  0  1  0  0  0  0  0  0
  -26.4670  -37.3970   23.7650 N   0  0  0  0  0  0  0  0  0  0  0  0
  -26.0760  -38.3210   23.9210 H   0  0  0  0  0  0  0  0  0  0  0  0
  -26.3530  -31.7350   25.0970 C   0  0  1  0  0  0  0  0  0  0  0  0
  -25.2740  -31.5080   26.1810 C   0  0  0  0  0  1  0  0  0  0  0  0
  -26.9130  -30.3520   24.6890 C   0  0  0  0  0  1  0  0  0  0  0  0
  -27.5210  -32.5160   25.7410 C   0  0  0  0  0  1  0  0  0  0  0  0
  2  1  2  0
  2  5  1  0
  3  2  1  0
  4  7  2  0
  6  3  1  0
  6  9  1  0
  7  1  1  0
  8  4  1  0
  8  3  2  0
  9  5  1  0
  9 10  1  1
 11  4  1  0
 11 20  1  0
 12 20  1  0
 13 18  1  0
 14 15  1  0
 14 13  1  0
 16 15  1  0
 16 25  1  0
 16 17  1  0
 18 12  1  0
 18 17  1  0
 19 12  2  0
 20 21  1  0
 22 23  2  0
 23 42  1  0
 24 23  1  0
 24 27  1  0
 25 22  1  0
 25 26  1  0
 26 24  2  0
 27 28  1  0
 28 29  2  0
 30 33  1  0
 30 29  1  0
 31 30  2  0
 32 31  1  0
 32 27  2  0
 33 34  1  0
 34 35  1  0
 35 36  2  0
 37 36  1  0
 37 41  1  0
 38 37  2  0
 39 34  2  0
 39 38  1  0
 40 39  1  0
 42 43  1  0
 43 46  1  0
 43 45  1  0
 44 42  2  0
 47 48  1  0
 47 22  1  0
 49 47  1  0
 50 53  1  0
 50  9  1  0
 50 52  1  0
 51 52  1  0
 54 55  1  0
 54 53  1  0
 55 57  1  0
 56 67  2  0
 57 62  1  0
 58 66  1  0
 58 68  1  0
 59 65  1  0
 59 61  1  0
 60 66  1  0
 61 60  1  0
 62 61  2  0
 63 64  1  0
 63 57  2  0
 64 59  2  0
 65 58  1  0
 66 56  1  0
 68 70  2  0
 69 68  1  0
 71 69  1  0
 72 81  2  0
 72 77  1  0
 73 69  1  0
 73 77  1  0
 74 73  1  0
 75 76  1  0
 75 74  1  0
 76 72  1  0
 77 78  2  0
 78 79  1  0
 80 79  2  0
 81 80  1  0
 82 56  1  0
 82 83  1  0
 82 92  1  0
 83 86  1  0
 84 88  1  0
 84 83  1  0
 85 84  2  0
 88 87  1  0
 90 88  1  0
 90 91  1  0
 90 89  1  0
 92 95  1  1
 92 93  1  0
 94 92  1  0
M  ISO  4  12 100  20 100  54 101  55 101
M  END
>  <TORSDO>  (14) 
F 21

>  <SCORE>  (14) 
-13.675

>  <name>  (14) 
13

>  <ligand_id>  (14) 
13

>  <original_smiles>  (14) 
[H]c1nc(C([H])([H])N([H])C(=O)N2C([H])([H])C([H])([H])C([H])([H])C([H])(n3nc(-c4c([H])c([H])c(Oc5c([H])c([H])c(F)c([H])c5F)c([H])c4[H])c(C(=O)N([H])[H])c3N([H])[H])C2([H])[H])nc2c1C([H])([H])[N+]([H])(C([H])(C([H])([H])C([H])([H])[H])C([H])([H])C([H])([H])Oc1c([H])c([H])c3c(c1[H])C([H])([H])N(C(=O)C([H])(N([H])C(=O)C([H])(N([H])C([H])([H])[H])C([H])([H])[H])C(C([H])([H])[H])(C([H])([H])[H])C([H])([H])[H])C([H])(C(=O)N([H])C1([H])c4c([H])c([H])c([H])c([H])c4C([H])([H])C([H])([H])C1([H])[H])C3([H])[H])C2([H])[H]

>  <smiles>  (14) 
[H]c1nc(C([H])([H])N([H])C(=O)N2C([H])([H])C([H])([H])C([H])([H])C([H])(n3nc(-c4c([H])c([H])c(Oc5c([H])c([H])c(F)c([H])c5F)c([H])c4[H])c(C(=O)N([H])[H])c3N([H])[H])C2([H])[H])nc2c1C([H])([H])[N+]([H])(C([H])(C([H])([H])C([H])([H])[H])C([H])([H])C([H])([H])Oc1c([H])c([H])c3c(c1[H])C([H])([H])N(C(=O)C([H])(N([H])C(=O)C([H])(N([H])C([H])([H])[H])C([H])([H])[H])C(C([H])([H])[H])(C([H])([H])[H])C([H])([H])[H])C([H])(C(=O)N([H])C1([H])c4c([H])c([H])c([H])c([H])c4C([H])([H])C([H])([H])C1([H])[H])C3([H])[H])C2([H])[H]

$$$$
14:0:0
     RDKit          3D

 93102  0  0  1  0  0  0  0  0999 V2000
  -30.5810  -23.0650   19.2270 C   0  0  0  0  0  3  0  0  0  0  0  0
  -28.4360  -22.7840   20.8020 C   0  0  0  0  0  0  0  0  0  0  0  0
  -29.1760  -21.6500   20.3650 C   0  0  0  0  0  0  0  0  0  0  0  0
  -28.8660  -24.0710   20.3700 C   0  0  0  0  0  0  0  0  0  0  0  0
  -30.2630  -21.8150   19.5790 N   0  0  0  0  0  0  0  0  0  0  0  0
  -29.9500  -24.1860   19.5730 N   0  0  0  0  0  0  0  0  0  0  0  0
  -27.0560  -22.5950   21.8290 Cl  0  0  0  0  0  0  0  0  0  0  0  0
  -28.7710  -20.2030   20.7490 C   0  0  0  0  0  2  0  0  0  0  0  0
  -30.0310  -18.0990   21.4420 C   0  0  0  0  0  2  0  0  0  0  0  0
  -29.3010  -18.0020   19.5510 C   0  0  0  0  0  2  0  0  0  0  0  0
  -30.3280  -17.1230   20.2910 C   0  0  0  0  0  3  0  0  0  0  0  0
  -29.7580  -19.1270   20.4060 N   0  0  1  0  0  4  0  0  0  0  0  0
  -30.5970  -19.5570   20.0460 H   0  0  0  0  0  0  0  0  0  0  0  0
  -30.7070  -14.6170   20.0660 C   0  0  0  0  0  0  0  0  0  0  0  0
  -30.3880  -12.4200   18.9780 C   0  0  0  0  0  2  0  0  0  0  0  0
  -29.3870  -12.5960   17.8160 C   0  0  0  0  0  2  0  0  0  0  0  0
  -27.9390  -12.4420   18.3200 C   0  0  0  0  0  2  0  0  0  0  0  0
  -27.6530  -13.2850   19.5910 C   0  0  0  0  0  3  0  0  0  0  0  0
  -28.7680  -13.1040   20.6480 C   0  0  0  0  0  2  0  0  0  0  0  0
  -30.0530  -13.4210   20.0070 N   0  0  0  0  0  0  0  0  0  0  0  0
  -31.8290  -14.7740   19.5780 O   0  0  0  0  0  0  0  0  0  0  0  0
  -29.9810  -15.6840   20.4910 N   0  0  0  0  0  0  0  0  0  0  0  0
  -29.0710  -15.4690   20.8710 H   0  0  0  0  0  0  0  0  0  0  0  0
  -25.3050  -13.8760   20.4540 C   0  0  0  0  0  0  0  0  0  0  0  0
  -24.2560  -13.0980   20.8640 C   0  0  0  0  0  0  0  0  0  0  0  0
  -24.7100  -11.7460   20.7750 C   0  0  0  0  0  0  0  0  0  0  0  0
  -26.3310  -12.9990   20.1410 N   0  0  0  0  0  0  0  0  0  0  0  0
  -25.9810  -11.7110   20.3930 N   0  0  0  0  0  0  0  0  0  0  0  0
  -23.9890  -10.4820   20.9760 C   0  0  0  0  0  0  0  0  0  0  0  0
  -24.4440   -9.5130   21.8970 C   0  0  0  0  0  3  0  0  0  0  0  0
  -23.7250   -8.3130   22.0870 C   0  0  0  0  0  3  0  0  0  0  0  0
  -22.5380   -8.0740   21.3540 C   0  0  0  0  0  0  0  0  0  0  0  0
  -22.1020   -9.0330   20.4220 C   0  0  0  0  0  3  0  0  0  0  0  0
  -22.8210  -10.2240   20.2310 C   0  0  0  0  0  3  0  0  0  0  0  0
  -21.7880   -6.9270   21.4540 O   0  0  0  0  0  0  0  0  0  0  0  0
  -21.7420   -6.1960   22.6140 C   0  0  0  0  0  0  0  0  0  0  0  0
  -21.2710   -6.7490   23.8240 C   0  0  0  0  0  3  0  0  0  0  0  0
  -21.1740   -5.9430   24.9770 C   0  0  0  0  0  3  0  0  0  0  0  0
  -21.5380   -4.5840   24.9180 C   0  0  0  0  0  0  0  0  0  0  0  0
  -22.0010   -4.0300   23.7110 C   0  0  0  0  0  3  0  0  0  0  0  0
  -22.1000   -4.8340   22.5620 C   0  0  0  0  0  0  0  0  0  0  0  0
  -22.5270   -4.2910   21.3970 F   0  0  0  0  0  0  0  0  0  0  0  0
  -21.4370   -3.8060   26.0210 F   0  0  0  0  0  0  0  0  0  0  0  0
  -22.8790  -13.5740   21.2240 C   0  0  0  0  0  0  0  0  0  0  0  0
  -22.1920  -12.8540   22.1050 N   0  0  0  0  0  0  0  0  0  0  0  0
  -22.4210  -14.6170   20.7620 O   0  0  0  0  0  0  0  0  0  0  0  0
  -22.5740  -12.0080   22.5000 H   0  0  0  0  0  0  0  0  0  0  0  0
  -21.2700  -13.1530   22.3870 H   0  0  0  0  0  0  0  0  0  0  0  0
  -25.4650  -15.2500   20.3040 N   0  0  0  0  0  0  0  0  0  0  0  0
  -24.7040  -15.8990   20.4730 H   0  0  0  0  0  0  0  0  0  0  0  0
  -26.2890  -15.6960   19.9200 H   0  0  0  0  0  0  0  0  0  0  0  0
  -28.1470  -25.3730   20.8230 C   0  0  0  0  0  2  0  0  0  0  0  0
  -28.3840  -26.6190   20.0920 O   0  0  0  0  0  0  0  0  0  0  0  0
  -24.6280  -31.8720   23.2070 C   0  0  0  0  0  0  0  0  0  0  0  0
  -27.2740  -27.4520   20.0600 C   0  0  0  0  0  0  0  0  0  0  0  0
  -23.4310  -30.5010   21.5350 C   0  0  0  0  0  3  0  0  0  0  0  0
  -24.8930  -28.9970   20.0780 C   0  0  0  0  0  0  0  0  0  0  0  0
  -25.9620  -30.8570   21.3550 C   0  0  0  0  0  2  0  0  0  0  0  0
  -26.0530  -29.4970   20.6840 C   0  0  0  0  0  0  0  0  0  0  0  0
  -27.2520  -28.7340   20.6680 C   0  0  0  0  0  3  0  0  0  0  0  0
  -26.1010  -26.9910   19.4250 C   0  0  0  0  0  3  0  0  0  0  0  0
  -24.9150  -27.7460   19.4410 C   0  0  0  0  0  3  0  0  0  0  0  0
  -23.6480  -29.8550   20.1420 C   0  0  0  0  0  2  0  0  0  0  0  0
  -24.6920  -31.0910   22.0910 N   0  0  0  0  0  0  0  0  0  0  0  0
  -23.5440  -32.1300   23.7490 O   0  0  0  0  0  0  0  0  0  0  0  0
  -22.7760  -29.4600   22.4720 C   0  0  0  0  0  0  0  0  0  0  0  0
  -21.4490  -29.2910   22.3530 N   0  0  0  0  0  0  0  0  0  0  0  0
  -23.4600  -28.8080   23.2670 O   0  0  0  0  0  0  0  0  0  0  0  0
  -20.9580  -29.8690   21.6870 H   0  0  0  0  0  0  0  0  0  0  0  0
  -18.0660  -28.1270   22.8710 C   0  0  0  0  0  0  0  0  0  0  0  0
  -20.6320  -28.3390   23.1050 C   0  0  0  0  0  3  0  0  0  0  0  0
  -20.7020  -26.9270   22.4790 C   0  0  0  0  0  2  0  0  0  0  0  0
  -19.5780  -26.6560   21.4730 C   0  0  0  0  0  2  0  0  0  0  0  0
  -18.2100  -26.7980   22.1470 C   0  0  0  0  0  2  0  0  0  0  0  0
  -19.2030  -28.8560   23.3080 C   0  0  0  0  0  0  0  0  0  0  0  0
  -19.0140  -30.1010   23.9450 C   0  0  0  0  0  3  0  0  0  0  0  0
  -17.7210  -30.6160   24.1520 C   0  0  0  0  0  3  0  0  0  0  0  0
  -16.5980  -29.8830   23.7320 C   0  0  0  0  0  3  0  0  0  0  0  0
  -16.7710  -28.6390   23.0980 C   0  0  0  0  0  3  0  0  0  0  0  0
  -25.9090  -32.4960   23.8430 C   0  0  0  0  0  3  0  0  0  0  0  0
  -26.4080  -31.7190   25.1230 C   0  0  1  0  0  0  0  0  0  0  0  0
  -25.3040  -31.4850   26.1790 C   0  0  0  0  0  1  0  0  0  0  0  0
  -26.9890  -30.3400   24.7340 C   0  0  0  0  0  1  0  0  0  0  0  0
  -27.5560  -32.5070   25.7990 C   0  0  0  0  0  1  0  0  0  0  0  0
  -25.6060  -33.8960   24.1700 N   0  0  0  0  0  0  0  0  0  0  0  0
  -25.9580  -34.9460   23.4150 C   0  0  0  0  0  0  0  0  0  0  0  0
  -26.6400  -34.8380   22.3920 O   0  0  0  0  0  0  0  0  0  0  0  0
  -25.0050  -34.0540   24.9640 H   0  0  0  0  0  0  0  0  0  0  0  0
  -24.2600  -36.7590   23.0230 C   0  0  0  0  0  1  0  0  0  0  0  0
  -25.4730  -36.3370   23.8650 C   0  0  0  0  0  3  0  0  0  0  0  0
  -27.5910  -37.1970   24.7610 C   0  0  0  0  0  1  0  0  0  0  0  0
  -26.5200  -37.3790   23.7850 N   0  0  0  0  0  0  0  0  0  0  0  0
  -26.1190  -38.3040   23.9220 H   0  0  0  0  0  0  0  0  0  0  0  0
  1  6  2  0
  1  5  1  0
  2  7  1  0
  3  8  1  0
  3  2  1  0
  4  2  2  0
  4 52  1  0
  5  3  2  0
  6  4  1  0
 10 11  1  0
 10 12  1  0
 11 22  1  0
 11  9  1  0
 12  8  1  0
 12  9  1  0
 12 13  1  6
 14 22  1  0
 15 20  1  0
 16 17  1  0
 16 15  1  0
 18 17  1  0
 18 27  1  0
 18 19  1  0
 20 14  1  0
 20 19  1  0
 21 14  2  0
 22 23  1  0
 24 25  2  0
 25 44  1  0
 26 25  1  0
 26 29  1  0
 27 28  1  0
 27 24  1  0
 28 26  2  0
 29 30  1  0
 30 31  2  0
 32 35  1  0
 32 31  1  0
 33 32  2  0
 34 33  1  0
 34 29  2  0
 35 36  1  0
 36 37  1  0
 37 38  2  0
 39 38  1  0
 39 43  1  0
 40 39  2  0
 41 36  2  0
 41 40  1  0
 42 41  1  0
 44 45  1  0
 45 48  1  0
 45 47  1  0
 46 44  2  0
 49 24  1  0
 49 50  1  0
 51 49  1  0
 53 52  1  0
 54 65  2  0
 55 53  1  0
 55 60  1  0
 56 64  1  0
 56 66  1  0
 57 63  1  0
 57 59  1  0
 58 64  1  0
 59 58  1  0
 60 59  2  0
 61 62  1  0
 61 55  2  0
 62 57  2  0
 63 56  1  0
 64 54  1  0
 66 68  2  0
 67 66  1  0
 69 67  1  0
 70 79  2  0
 70 75  1  0
 71 67  1  0
 71 75  1  0
 72 71  1  0
 73 74  1  0
 73 72  1  0
 74 70  1  0
 75 76  2  0
 76 77  1  0
 78 77  2  0
 79 78  1  0
 80 54  1  0
 80 85  1  0
 80 81  1  0
 81 84  1  1
 81 82  1  0
 83 81  1  0
 85 88  1  0
 86 90  1  0
 86 85  1  0
 87 86  2  0
 90 89  1  0
 92 90  1  0
 92 93  1  0
 92 91  1  0
M  ISO  4  14 100  22 100  52 101  53 101
M  END
>  <TORSDO>  (15) 
F 19

>  <SCORE>  (15) 
-13.969

>  <name>  (15) 
14

>  <ligand_id>  (15) 
14

>  <original_smiles>  (15) 
[H]c1nc(C([H])([H])Oc2c([H])c([H])c3c(c2[H])C([H])([H])N(C(=O)C([H])(N([H])C(=O)C([H])(N([H])C([H])([H])[H])C([H])([H])[H])C(C([H])([H])[H])(C([H])([H])[H])C([H])([H])[H])C([H])(C(=O)N([H])C2([H])c4c([H])c([H])c([H])c([H])c4C([H])([H])C([H])([H])C2([H])[H])C3([H])[H])c(Cl)c(C([H])([H])[N+]2([H])C([H])([H])C([H])(N([H])C(=O)N3C([H])([H])C([H])([H])C([H])([H])C([H])(n4nc(-c5c([H])c([H])c(Oc6c([H])c([H])c(F)c([H])c6F)c([H])c5[H])c(C(=O)N([H])[H])c4N([H])[H])C3([H])[H])C2([H])[H])n1

>  <smiles>  (15) 
[H]c1nc(C([H])([H])Oc2c([H])c([H])c3c(c2[H])C([H])([H])N(C(=O)C([H])(N([H])C(=O)C([H])(N([H])C([H])([H])[H])C([H])([H])[H])C(C([H])([H])[H])(C([H])([H])[H])C([H])([H])[H])C([H])(C(=O)N([H])C2([H])c4c([H])c([H])c([H])c([H])c4C([H])([H])C([H])([H])C2([H])[H])C3([H])[H])c(Cl)c(C([H])([H])[N+]2([H])C([H])([H])C([H])(N([H])C(=O)N3C([H])([H])C([H])([H])C([H])([H])C([H])(n4nc(-c5c([H])c([H])c(Oc6c([H])c([H])c(F)c([H])c6F)c([H])c5[H])c(C(=O)N([H])[H])c4N([H])[H])C3([H])[H])C2([H])[H])n1

$$$$
15:0:0
     RDKit          3D

 89 98  0  0  1  0  0  0  0  0999 V2000
  -29.2210  -21.6640   20.9190 C   0  0  0  0  0  2  0  0  0  0  0  0
  -29.7520  -22.0610   18.9900 C   0  0  0  0  0  2  0  0  0  0  0  0
  -29.4090  -23.0940   20.1780 C   0  0  0  0  0  3  0  0  0  0  0  0
  -29.4220  -20.7590   19.7100 N   0  0  1  0  0  4  0  0  0  0  0  0
  -28.5020  -20.5000   19.3850 H   0  0  0  0  0  0  0  0  0  0  0  0
  -28.3710  -24.4860   20.1290 C   0  0  0  0  0  2  0  0  0  0  0  0
  -28.6220  -26.0440   20.3740 O   0  0  0  0  0  0  0  0  0  0  0  0
  -24.9720  -31.8530   23.2870 C   0  0  0  0  0  0  0  0  0  0  0  0
  -27.5820  -27.0720   20.2980 C   0  0  0  0  0  0  0  0  0  0  0  0
  -23.8000  -30.4680   21.6210 C   0  0  0  0  0  3  0  0  0  0  0  0
  -25.2670  -28.8760   20.2230 C   0  0  0  0  0  0  0  0  0  0  0  0
  -26.3630  -30.6990   21.5140 C   0  0  0  0  0  2  0  0  0  0  0  0
  -26.4410  -29.3020   20.8590 C   0  0  0  0  0  0  0  0  0  0  0  0
  -27.5960  -28.4180   20.8740 C   0  0  0  0  0  3  0  0  0  0  0  0
  -26.3770  -26.7650   19.6250 C   0  0  0  0  0  3  0  0  0  0  0  0
  -25.2540  -27.6240   19.5890 C   0  0  0  0  0  3  0  0  0  0  0  0
  -24.0470  -29.7870   20.2470 C   0  0  0  0  0  2  0  0  0  0  0  0
  -25.0650  -31.0310   22.1950 N   0  0  0  0  0  0  0  0  0  0  0  0
  -23.8760  -32.1460   23.7890 O   0  0  0  0  0  0  0  0  0  0  0  0
  -23.0890  -29.4700   22.5690 C   0  0  0  0  0  0  0  0  0  0  0  0
  -21.7660  -29.2910   22.3970 N   0  0  0  0  0  0  0  0  0  0  0  0
  -23.7320  -28.8570   23.4240 O   0  0  0  0  0  0  0  0  0  0  0  0
  -21.3030  -29.8350   21.6820 H   0  0  0  0  0  0  0  0  0  0  0  0
  -18.3860  -28.0310   22.7570 C   0  0  0  0  0  0  0  0  0  0  0  0
  -20.9230  -28.3560   23.1470 C   0  0  0  0  0  3  0  0  0  0  0  0
  -21.0820  -26.9140   22.6130 C   0  0  0  0  0  2  0  0  0  0  0  0
  -20.0420  -26.5440   21.5520 C   0  0  0  0  0  2  0  0  0  0  0  0
  -18.6260  -26.6730   22.1210 C   0  0  0  0  0  2  0  0  0  0  0  0
  -19.4660  -28.8290   23.2240 C   0  0  0  0  0  0  0  0  0  0  0  0
  -19.1880  -30.0970   23.7770 C   0  0  0  0  0  3  0  0  0  0  0  0
  -17.8650  -30.5690   23.8710 C   0  0  0  0  0  3  0  0  0  0  0  0
  -16.8000  -29.7700   23.4190 C   0  0  0  0  0  3  0  0  0  0  0  0
  -17.0610  -28.5030   22.8660 C   0  0  0  0  0  3  0  0  0  0  0  0
  -26.2390  -32.4810   23.9450 C   0  0  0  0  0  3  0  0  0  0  0  0
  -25.9010  -33.8570   24.3480 N   0  0  0  0  0  0  0  0  0  0  0  0
  -26.2330  -34.9590   23.6640 C   0  0  0  0  0  0  0  0  0  0  0  0
  -26.9230  -34.9270   22.6420 O   0  0  0  0  0  0  0  0  0  0  0  0
  -25.2900  -33.9530   25.1460 H   0  0  0  0  0  0  0  0  0  0  0  0
  -24.5020  -36.7660   23.3840 C   0  0  0  0  0  1  0  0  0  0  0  0
  -25.7250  -36.3140   24.1990 C   0  0  0  0  0  3  0  0  0  0  0  0
  -27.8320  -37.1560   25.1380 C   0  0  0  0  0  1  0  0  0  0  0  0
  -26.7530  -37.3790   24.1810 N   0  0  0  0  0  0  0  0  0  0  0  0
  -26.3370  -38.2850   24.3770 H   0  0  0  0  0  0  0  0  0  0  0  0
  -26.7640  -31.6600   25.1870 C   0  0  1  0  0  0  0  0  0  0  0  0
  -25.6680  -31.3360   26.2280 C   0  0  0  0  0  1  0  0  0  0  0  0
  -27.3920  -30.3200   24.7360 C   0  0  0  0  0  1  0  0  0  0  0  0
  -27.8840  -32.4520   25.9020 C   0  0  0  0  0  1  0  0  0  0  0  0
  -30.3180  -19.4000   19.5840 C   0  0  0  0  0  2  0  0  0  0  0  0
  -30.9410  -15.1720   19.6210 C   0  0  0  0  0  0  0  0  0  0  0  0
  -30.7810  -12.8650   18.4640 C   0  0  0  0  0  2  0  0  0  0  0  0
  -29.6490  -12.8220   17.3990 C   0  0  0  0  0  2  0  0  0  0  0  0
  -28.2630  -12.5480   18.0230 C   0  0  0  0  0  2  0  0  0  0  0  0
  -28.0510  -13.3640   19.3210 C   0  0  0  0  0  3  0  0  0  0  0  0
  -29.2730  -13.2030   20.2400 C   0  0  0  0  0  2  0  0  0  0  0  0
  -30.4120  -13.8500   19.5420 N   0  0  0  0  0  0  0  0  0  0  0  0
  -32.0000  -15.3330   18.9970 O   0  0  0  0  0  0  0  0  0  0  0  0
  -29.6000  -17.0320   22.5630 C   0  0  0  0  0  2  0  0  0  0  0  0
  -30.0260  -18.2550   21.8050 C   0  0  0  0  0  2  0  0  0  0  0  0
  -29.6690  -15.8840   21.5680 C   0  0  0  0  0  2  0  0  0  0  0  0
  -29.8860  -17.9100   20.3200 C   0  0  0  0  0  3  0  0  0  0  0  0
  -30.2250  -16.2890   20.2580 N   0  0  0  0  0  0  0  0  0  0  0  0
  -25.8530  -13.9070   20.5130 C   0  0  0  0  0  0  0  0  0  0  0  0
  -24.8280  -13.1190   20.9580 C   0  0  0  0  0  0  0  0  0  0  0  0
  -25.2120  -11.7720   20.6710 C   0  0  0  0  0  0  0  0  0  0  0  0
  -26.7980  -13.0400   19.9900 N   0  0  0  0  0  0  0  0  0  0  0  0
  -26.4310  -11.7430   20.1410 N   0  0  0  0  0  0  0  0  0  0  0  0
  -24.4640  -10.5170   20.8160 C   0  0  0  0  0  0  0  0  0  0  0  0
  -24.9490   -9.4590   21.6140 C   0  0  0  0  0  3  0  0  0  0  0  0
  -24.2030   -8.2690   21.7550 C   0  0  0  0  0  3  0  0  0  0  0  0
  -22.9570   -8.1300   21.0980 C   0  0  0  0  0  0  0  0  0  0  0  0
  -22.4890   -9.1790   20.2860 C   0  0  0  0  0  3  0  0  0  0  0  0
  -23.2360  -10.3610   20.1430 C   0  0  0  0  0  3  0  0  0  0  0  0
  -22.1770   -7.0010   21.1540 O   0  0  0  0  0  0  0  0  0  0  0  0
  -22.1500   -6.2000   22.2660 C   0  0  0  0  0  0  0  0  0  0  0  0
  -21.8020   -6.7030   23.5390 C   0  0  0  0  0  3  0  0  0  0  0  0
  -21.7200   -5.8320   24.6430 C   0  0  0  0  0  3  0  0  0  0  0  0
  -21.9760   -4.4570   24.4750 C   0  0  0  0  0  0  0  0  0  0  0  0
  -22.3180   -3.9540   23.2080 C   0  0  0  0  0  3  0  0  0  0  0  0
  -22.4010   -4.8230   22.1070 C   0  0  0  0  0  0  0  0  0  0  0  0
  -22.7130   -4.3290   20.8840 F   0  0  0  0  0  0  0  0  0  0  0  0
  -21.8890   -3.6180   25.5340 F   0  0  0  0  0  0  0  0  0  0  0  0
  -23.5220  -13.5930   21.5250 C   0  0  0  0  0  0  0  0  0  0  0  0
  -22.9310  -12.8160   22.4250 N   0  0  0  0  0  0  0  0  0  0  0  0
  -23.0430  -14.6810   21.2070 O   0  0  0  0  0  0  0  0  0  0  0  0
  -23.3370  -11.9340   22.6970 H   0  0  0  0  0  0  0  0  0  0  0  0
  -22.0610  -13.1070   22.8490 H   0  0  0  0  0  0  0  0  0  0  0  0
  -26.0530  -15.2840   20.4860 N   0  0  0  0  0  0  0  0  0  0  0  0
  -25.3450  -15.9400   20.7980 H   0  0  0  0  0  0  0  0  0  0  0  0
  -26.8460  -15.7350   20.0500 H   0  0  0  0  0  0  0  0  0  0  0  0
  2  4  1  0
  2  3  1  0
  3  6  1  0
  3  1  1  0
  4  1  1  0
  4  5  1  6
  6  7  1  0
  8 19  2  0
  9  7  1  0
  9 14  1  0
 10 18  1  0
 10 20  1  0
 11 17  1  0
 11 13  1  0
 12 18  1  0
 13 14  2  0
 13 12  1  0
 15  9  2  0
 16 15  1  0
 16 11  2  0
 17 10  1  0
 18  8  1  0
 20 22  2  0
 21 20  1  0
 23 21  1  0
 24 33  2  0
 24 29  1  0
 25 21  1  0
 25 29  1  0
 26 25  1  0
 27 28  1  0
 27 26  1  0
 28 24  1  0
 29 30  2  0
 30 31  1  0
 32 31  2  0
 33 32  1  0
 34  8  1  0
 34 35  1  0
 34 44  1  0
 35 38  1  0
 36 40  1  0
 36 35  1  0
 37 36  2  0
 40 39  1  0
 42 40  1  0
 42 43  1  0
 42 41  1  0
 44 47  1  1
 44 45  1  0
 46 44  1  0
 48  4  1  0
 49 61  1  0
 50 55  1  0
 51 52  1  0
 51 50  1  0
 53 52  1  0
 53 65  1  0
 53 54  1  0
 55 49  1  0
 55 54  1  0
 56 49  2  0
 58 57  1  0
 59 57  1  0
 60 48  1  0
 60 58  1  0
 61 60  1  0
 61 59  1  0
 62 63  2  0
 63 82  1  0
 64 67  1  0
 64 63  1  0
 65 66  1  0
 65 62  1  0
 66 64  2  0
 67 68  1  0
 68 69  2  0
 70 73  1  0
 70 69  1  0
 71 70  2  0
 72 71  1  0
 72 67  2  0
 73 74  1  0
 74 75  1  0
 75 76  2  0
 77 76  1  0
 77 81  1  0
 78 77  2  0
 79 74  2  0
 79 78  1  0
 80 79  1  0
 82 83  1  0
 83 85  1  0
 83 86  1  0
 84 82  2  0
 87 62  1  0
 87 88  1  0
 89 87  1  0
M  ISO  4   6 101   7 101  49 100  61 100
M  END
>  <TORSDO>  (16) 
F 18

>  <SCORE>  (16) 
-11.464

>  <name>  (16) 
15

>  <ligand_id>  (16) 
15

>  <original_smiles>  (16) 
[H]c1c([H])c([H])c2c(c1[H])C([H])([H])C([H])([H])C([H])([H])C2([H])N([H])C(=O)C1([H])N(C(=O)C([H])(N([H])C(=O)C([H])(N([H])C([H])([H])[H])C([H])([H])[H])C(C([H])([H])[H])(C([H])([H])[H])C([H])([H])[H])C([H])([H])c2c([H])c(OC([H])([H])C3([H])C([H])([H])[N+]([H])(C([H])([H])C4([H])N(C(=O)N5C([H])([H])C([H])([H])C([H])([H])C([H])(n6nc(-c7c([H])c([H])c(Oc8c([H])c([H])c(F)c([H])c8F)c([H])c7[H])c(C(=O)N([H])[H])c6N([H])[H])C5([H])[H])C([H])([H])C([H])([H])C4([H])[H])C3([H])[H])c([H])c([H])c2C1([H])[H]

>  <smiles>  (16) 
[H]c1c([H])c([H])c2c(c1[H])C([H])([H])C([H])([H])C([H])([H])C2([H])N([H])C(=O)C1([H])N(C(=O)C([H])(N([H])C(=O)C([H])(N([H])C([H])([H])[H])C([H])([H])[H])C(C([H])([H])[H])(C([H])([H])[H])C([H])([H])[H])C([H])([H])c2c([H])c(OC([H])([H])C3([H])C([H])([H])[N+]([H])(C([H])([H])C4([H])N(C(=O)N5C([H])([H])C([H])([H])C([H])([H])C([H])(n6nc(-c7c([H])c([H])c(Oc8c([H])c([H])c(F)c([H])c8F)c([H])c7[H])c(C(=O)N([H])[H])c6N([H])[H])C5([H])[H])C([H])([H])C([H])([H])C4([H])[H])C3([H])[H])c([H])c([H])c2C1([H])[H]

$$$$
16:0:0
     RDKit          3D

 91100  0  0  1  0  0  0  0  0999 V2000
  -29.3320  -21.2200   19.5860 N   0  0  1  0  0  4  0  0  0  0  0  0
  -28.7770  -21.4770   18.7820 H   0  0  0  0  0  0  0  0  0  0  0  0
  -31.8100  -21.3490   20.0980 C   0  0  0  0  0  2  0  0  0  0  0  0
  -31.7490  -20.7870   18.6870 C   0  0  0  0  0  2  0  0  0  0  0  0
  -30.6770  -21.7340   19.1740 C   0  0  0  0  0  3  0  0  0  0  0  0
  -29.0010  -19.7010   19.5140 C   0  0  0  0  0  2  0  0  0  0  0  0
  -30.7360  -14.7140   20.0010 C   0  0  0  0  0  0  0  0  0  0  0  0
  -30.4430  -12.4720   18.9270 C   0  0  0  0  0  2  0  0  0  0  0  0
  -29.4330  -12.5870   17.7640 C   0  0  0  0  0  2  0  0  0  0  0  0
  -27.9890  -12.4140   18.2730 C   0  0  0  0  0  2  0  0  0  0  0  0
  -27.6980  -13.2550   19.5480 C   0  0  0  0  0  3  0  0  0  0  0  0
  -28.8250  -13.0940   20.5890 C   0  0  0  0  0  2  0  0  0  0  0  0
  -30.0760  -13.4990   19.9310 N   0  0  0  0  0  0  0  0  0  0  0  0
  -31.8880  -14.7850   19.5570 O   0  0  0  0  0  0  0  0  0  0  0  0
  -28.8890  -17.7740   21.3170 C   0  0  0  0  0  2  0  0  0  0  0  0
  -29.3240  -16.2910   21.4200 C   0  0  0  0  0  2  0  0  0  0  0  0
  -30.2400  -17.2070   19.4530 C   0  0  0  0  0  2  0  0  0  0  0  0
  -29.7720  -18.4860   20.2830 C   0  0  0  0  0  3  0  0  0  0  0  0
  -30.0090  -15.8990   20.1810 N   0  0  0  0  0  0  0  0  0  0  0  0
  -25.3660  -13.8400   20.4330 C   0  0  0  0  0  0  0  0  0  0  0  0
  -24.3150  -13.0630   20.8370 C   0  0  0  0  0  0  0  0  0  0  0  0
  -24.7660  -11.7080   20.7450 C   0  0  0  0  0  0  0  0  0  0  0  0
  -26.3850  -12.9620   20.1080 N   0  0  0  0  0  0  0  0  0  0  0  0
  -26.0360  -11.6730   20.3610 N   0  0  0  0  0  0  0  0  0  0  0  0
  -24.0460  -10.4460   20.9480 C   0  0  0  0  0  0  0  0  0  0  0  0
  -24.4900   -9.4900   21.8900 C   0  0  0  0  0  3  0  0  0  0  0  0
  -23.7740   -8.2920   22.0870 C   0  0  0  0  0  3  0  0  0  0  0  0
  -22.5970   -8.0390   21.3420 C   0  0  0  0  0  0  0  0  0  0  0  0
  -22.1690   -8.9850   20.3930 C   0  0  0  0  0  3  0  0  0  0  0  0
  -22.8890  -10.1740   20.1940 C   0  0  0  0  0  3  0  0  0  0  0  0
  -21.8490   -6.8920   21.4470 O   0  0  0  0  0  0  0  0  0  0  0  0
  -21.7660   -6.1920   22.6240 C   0  0  0  0  0  0  0  0  0  0  0  0
  -21.2940   -6.7870   23.8130 C   0  0  0  0  0  3  0  0  0  0  0  0
  -21.1560   -6.0120   24.9820 C   0  0  0  0  0  3  0  0  0  0  0  0
  -21.4800   -4.6420   24.9610 C   0  0  0  0  0  0  0  0  0  0  0  0
  -21.9470   -4.0450   23.7760 C   0  0  0  0  0  3  0  0  0  0  0  0
  -22.0840   -4.8170   22.6090 C   0  0  0  0  0  0  0  0  0  0  0  0
  -22.5130   -4.2350   21.4640 F   0  0  0  0  0  0  0  0  0  0  0  0
  -21.3420   -3.8950   26.0810 F   0  0  0  0  0  0  0  0  0  0  0  0
  -22.9340  -13.5360   21.1940 C   0  0  0  0  0  0  0  0  0  0  0  0
  -22.2500  -12.8320   22.0880 N   0  0  0  0  0  0  0  0  0  0  0  0
  -22.4730  -14.5720   20.7140 O   0  0  0  0  0  0  0  0  0  0  0  0
  -22.6360  -11.9960   22.5030 H   0  0  0  0  0  0  0  0  0  0  0  0
  -21.3240  -13.1310   22.3600 H   0  0  0  0  0  0  0  0  0  0  0  0
  -25.5420  -15.2150   20.2990 N   0  0  0  0  0  0  0  0  0  0  0  0
  -24.8280  -15.8810   20.5780 H   0  0  0  0  0  0  0  0  0  0  0  0
  -26.4280  -15.6470   20.0790 H   0  0  0  0  0  0  0  0  0  0  0  0
  -28.7150  -22.1410   20.6470 C   0  0  0  0  0  2  0  0  0  0  0  0
  -28.0670  -23.6220   20.2780 C   0  0  0  0  0  2  0  0  0  0  0  0
  -28.5310  -25.0550   19.6450 C   0  0  0  0  0  2  0  0  0  0  0  0
  -28.3710  -26.3970   20.2980 O   0  0  0  0  0  0  0  0  0  0  0  0
  -24.6200  -31.8380   23.2340 C   0  0  0  0  0  0  0  0  0  0  0  0
  -27.2400  -27.2380   20.1990 C   0  0  0  0  0  0  0  0  0  0  0  0
  -23.4160  -30.4280   21.6010 C   0  0  0  0  0  3  0  0  0  0  0  0
  -24.8730  -28.8690   20.1730 C   0  0  0  0  0  0  0  0  0  0  0  0
  -25.9530  -30.7400   21.4180 C   0  0  0  0  0  2  0  0  0  0  0  0
  -26.0370  -29.3560   20.7770 C   0  0  0  0  0  0  0  0  0  0  0  0
  -27.2180  -28.5480   20.7850 C   0  0  0  0  0  3  0  0  0  0  0  0
  -26.0550  -26.8090   19.5670 C   0  0  0  0  0  3  0  0  0  0  0  0
  -24.8860  -27.6020   19.5630 C   0  0  0  0  0  3  0  0  0  0  0  0
  -23.6340  -29.7450   20.2210 C   0  0  0  0  0  2  0  0  0  0  0  0
  -24.6830  -31.0190   22.1430 N   0  0  0  0  0  0  0  0  0  0  0  0
  -23.5380  -32.1200   23.7690 O   0  0  0  0  0  0  0  0  0  0  0  0
  -22.7540  -29.4160   22.5690 C   0  0  0  0  0  0  0  0  0  0  0  0
  -21.4250  -29.2400   22.4550 N   0  0  0  0  0  0  0  0  0  0  0  0
  -23.4380  -28.7910   23.3850 O   0  0  0  0  0  0  0  0  0  0  0  0
  -20.9260  -29.8020   21.7790 H   0  0  0  0  0  0  0  0  0  0  0  0
  -18.0500  -28.0520   22.9580 C   0  0  0  0  0  0  0  0  0  0  0  0
  -20.6090  -28.3020   23.2260 C   0  0  0  0  0  3  0  0  0  0  0  0
  -20.7090  -26.8700   22.6490 C   0  0  0  0  0  2  0  0  0  0  0  0
  -19.6060  -26.5520   21.6350 C   0  0  0  0  0  2  0  0  0  0  0  0
  -18.2250  -26.7020   22.2810 C   0  0  0  0  0  2  0  0  0  0  0  0
  -19.1700  -28.8100   23.3850 C   0  0  0  0  0  0  0  0  0  0  0  0
  -18.9560  -30.0770   23.9700 C   0  0  0  0  0  3  0  0  0  0  0  0
  -17.6530  -30.5840   24.1310 C   0  0  0  0  0  3  0  0  0  0  0  0
  -16.5460  -29.8170   23.7280 C   0  0  0  0  0  3  0  0  0  0  0  0
  -16.7450  -28.5540   23.1450 C   0  0  0  0  0  3  0  0  0  0  0  0
  -25.9050  -32.4780   23.8490 C   0  0  0  0  0  3  0  0  0  0  0  0
  -25.5980  -33.8760   24.1760 N   0  0  0  0  0  0  0  0  0  0  0  0
  -25.9240  -34.9280   23.4140 C   0  0  0  0  0  0  0  0  0  0  0  0
  -26.5870  -34.8250   22.3780 O   0  0  0  0  0  0  0  0  0  0  0  0
  -25.0210  -34.0350   24.9870 H   0  0  0  0  0  0  0  0  0  0  0  0
  -24.1950  -36.7220   23.0730 C   0  0  0  0  0  1  0  0  0  0  0  0
  -25.4380  -36.3140   23.8770 C   0  0  0  0  0  3  0  0  0  0  0  0
  -27.5680  -37.2070   24.7060 C   0  0  0  0  0  1  0  0  0  0  0  0
  -26.4650  -37.3710   23.7650 N   0  0  0  0  0  0  0  0  0  0  0  0
  -26.0530  -38.2870   23.9230 H   0  0  0  0  0  0  0  0  0  0  0  0
  -26.4210  -31.7190   25.1350 C   0  0  1  0  0  0  0  0  0  0  0  0
  -25.3300  -31.4950   26.2080 C   0  0  0  0  0  1  0  0  0  0  0  0
  -27.0040  -30.3390   24.7530 C   0  0  0  0  0  1  0  0  0  0  0  0
  -27.5640  -32.5200   25.8030 C   0  0  0  0  0  1  0  0  0  0  0  0
  1 48  1  0
  1  2  1  6
  4  5  1  0
  4  3  1  0
  5  1  1  0
  5  3  1  0
  6  1  1  0
  7 19  1  0
  8 13  1  0
  9 10  1  0
  9  8  1  0
 11 10  1  0
 11 23  1  0
 11 12  1  0
 13  7  1  0
 13 12  1  0
 14  7  2  0
 15 16  1  0
 17 19  1  0
 17 18  1  0
 18  6  1  0
 18 15  1  0
 19 16  1  0
 20 21  2  0
 21 40  1  0
 22 21  1  0
 22 25  1  0
 23 24  1  0
 23 20  1  0
 24 22  2  0
 25 26  1  0
 26 27  2  0
 28 31  1  0
 28 27  1  0
 29 28  2  0
 30 29  1  0
 30 25  2  0
 31 32  1  0
 32 33  1  0
 33 34  2  0
 35 34  1  0
 35 39  1  0
 36 35  2  0
 37 32  2  0
 37 36  1  0
 38 37  1  0
 40 41  1  0
 41 44  1  0
 41 43  1  0
 42 40  2  0
 45 20  1  0
 45 46  1  0
 47 45  1  0
 49 48  1  0
 50 49  1  0
 50 51  1  0
 52 63  2  0
 53 51  1  0
 53 58  1  0
 54 62  1  0
 54 64  1  0
 55 61  1  0
 55 57  1  0
 56 62  1  0
 57 58  2  0
 57 56  1  0
 59 53  2  0
 60 59  1  0
 60 55  2  0
 61 54  1  0
 62 52  1  0
 64 66  2  0
 65 64  1  0
 67 65  1  0
 68 77  2  0
 68 73  1  0
 69 65  1  0
 69 73  1  0
 70 69  1  0
 71 72  1  0
 71 70  1  0
 72 68  1  0
 73 74  2  0
 74 75  1  0
 76 75  2  0
 77 76  1  0
 78 52  1  0
 78 79  1  0
 78 88  1  0
 79 82  1  0
 80 84  1  0
 80 79  1  0
 81 80  2  0
 84 83  1  0
 86 84  1  0
 86 87  1  0
 86 85  1  0
 88 91  1  1
 88 89  1  0
 90 88  1  0
M  ISO  4   7 100  19 100  50 101  51 101
M  END
>  <TORSDO>  (17) 
F 21

>  <SCORE>  (17) 
-12.703

>  <name>  (17) 
16

>  <ligand_id>  (17) 
16

>  <original_smiles>  (17) 
[H]c1c([H])c([H])c2c(c1[H])C([H])([H])C([H])([H])C([H])([H])C2([H])N([H])C(=O)C1([H])N(C(=O)C([H])(N([H])C(=O)C([H])(N([H])C([H])([H])[H])C([H])([H])[H])C(C([H])([H])[H])(C([H])([H])[H])C([H])([H])[H])C([H])([H])c2c([H])c(OC([H])([H])C([H])([H])C([H])([H])[N+]([H])(C([H])([H])C3([H])C([H])([H])N(C(=O)N4C([H])([H])C([H])([H])C([H])([H])C([H])(n5nc(-c6c([H])c([H])c(Oc7c([H])c([H])c(F)c([H])c7F)c([H])c6[H])c(C(=O)N([H])[H])c5N([H])[H])C4([H])[H])C([H])([H])C3([H])[H])C3([H])C([H])([H])C3([H])[H])c([H])c([H])c2C1([H])[H]

>  <smiles>  (17) 
[H]c1c([H])c([H])c2c(c1[H])C([H])([H])C([H])([H])C([H])([H])C2([H])N([H])C(=O)C1([H])N(C(=O)C([H])(N([H])C(=O)C([H])(N([H])C([H])([H])[H])C([H])([H])[H])C(C([H])([H])[H])(C([H])([H])[H])C([H])([H])[H])C([H])([H])c2c([H])c(OC([H])([H])C([H])([H])C([H])([H])[N+]([H])(C([H])([H])C3([H])C([H])([H])N(C(=O)N4C([H])([H])C([H])([H])C([H])([H])C([H])(n5nc(-c6c([H])c([H])c(Oc7c([H])c([H])c(F)c([H])c7F)c([H])c6[H])c(C(=O)N([H])[H])c5N([H])[H])C4([H])[H])C([H])([H])C3([H])[H])C3([H])C([H])([H])C3([H])[H])c([H])c([H])c2C1([H])[H]

$$$$
17:0:0
     RDKit          3D

102111  0  0  1  0  0  0  0  0999 V2000
  -25.7120  -22.8190   19.9680 C   0  0  0  0  0  2  0  0  0  0  0  0
  -27.4730  -26.0370   22.1060 C   0  0  0  0  0  3  0  0  0  0  0  0
  -27.8180  -25.7420   20.7670 C   0  0  0  0  0  0  0  0  0  0  0  0
  -25.9400  -24.3130   22.1020 C   0  0  0  0  0  0  0  0  0  0  0  0
  -26.3100  -23.9800   20.7660 C   0  0  0  0  0  0  0  0  0  0  0  0
  -26.5390  -25.3250   22.7740 N   0  0  0  0  0  0  0  0  0  0  0  0
  -27.2710  -24.6820   20.1120 N   0  0  0  0  0  0  0  0  0  0  0  0
  -23.5420  -24.4670   22.8730 C   0  0  0  0  0  1  0  0  0  0  0  0
  -24.8250  -23.6250   22.8760 C   0  0  0  0  0  2  0  0  0  0  0  0
  -28.8000  -26.6390   20.0150 C   0  0  0  0  0  2  0  0  0  0  0  0
  -28.2300  -27.2720   18.8690 O   0  0  0  0  0  0  0  0  0  0  0  0
  -24.6290  -31.7340   23.1140 C   0  0  0  0  0  0  0  0  0  0  0  0
  -27.0820  -27.9770   19.1220 C   0  0  0  0  0  0  0  0  0  0  0  0
  -23.3210  -30.6300   21.3300 C   0  0  0  0  0  3  0  0  0  0  0  0
  -24.6850  -29.3880   19.5690 C   0  0  0  0  0  0  0  0  0  0  0  0
  -25.8260  -31.0580   21.0350 C   0  0  0  0  0  2  0  0  0  0  0  0
  -25.8730  -29.8200   20.1700 C   0  0  0  0  0  0  0  0  0  0  0  0
  -27.0770  -29.1160   19.9570 C   0  0  0  0  0  3  0  0  0  0  0  0
  -25.8800  -27.5580   18.5160 C   0  0  0  0  0  3  0  0  0  0  0  0
  -24.6790  -28.2480   18.7480 C   0  0  0  0  0  3  0  0  0  0  0  0
  -23.4440  -30.2050   19.8420 C   0  0  0  0  0  2  0  0  0  0  0  0
  -24.6140  -31.1470   21.8840 N   0  0  0  0  0  0  0  0  0  0  0  0
  -23.5850  -31.8820   23.7650 O   0  0  0  0  0  0  0  0  0  0  0  0
  -22.7400  -29.4410   22.1300 C   0  0  0  0  0  0  0  0  0  0  0  0
  -21.4120  -29.2560   22.0490 N   0  0  0  0  0  0  0  0  0  0  0  0
  -23.4780  -28.6940   22.7790 O   0  0  0  0  0  0  0  0  0  0  0  0
  -20.8720  -29.9100   21.5010 H   0  0  0  0  0  0  0  0  0  0  0  0
  -18.0870  -27.9330   22.5320 C   0  0  0  0  0  0  0  0  0  0  0  0
  -20.6550  -28.1850   22.6950 C   0  0  0  0  0  3  0  0  0  0  0  0
  -20.7340  -26.8740   21.8790 C   0  0  0  0  0  2  0  0  0  0  0  0
  -19.5770  -26.7160   20.8870 C   0  0  0  0  0  2  0  0  0  0  0  0
  -18.2330  -26.7250   21.6240 C   0  0  0  0  0  2  0  0  0  0  0  0
  -19.2230  -28.6280   23.0230 C   0  0  0  0  0  0  0  0  0  0  0  0
  -19.0330  -29.7690   23.8320 C   0  0  0  0  0  3  0  0  0  0  0  0
  -17.7370  -30.2150   24.1520 C   0  0  0  0  0  3  0  0  0  0  0  0
  -16.6140  -29.5130   23.6770 C   0  0  0  0  0  3  0  0  0  0  0  0
  -16.7900  -28.3740   22.8730 C   0  0  0  0  0  3  0  0  0  0  0  0
  -25.9520  -32.2640   23.7480 C   0  0  0  0  0  3  0  0  0  0  0  0
  -26.5380  -31.3040   24.8570 C   0  0  1  0  0  0  0  0  0  0  0  0
  -25.5110  -30.9080   25.9420 C   0  0  0  0  0  1  0  0  0  0  0  0
  -27.0700  -29.9990   24.2180 C   0  0  0  0  0  1  0  0  0  0  0  0
  -27.7360  -31.9820   25.5610 C   0  0  0  0  0  1  0  0  0  0  0  0
  -25.6780  -33.5970   24.3000 N   0  0  0  0  0  0  0  0  0  0  0  0
  -26.0040  -34.7500   23.7000 C   0  0  0  0  0  0  0  0  0  0  0  0
  -26.6420  -34.8020   22.6440 O   0  0  0  0  0  0  0  0  0  0  0  0
  -25.1060  -33.6300   25.1300 H   0  0  0  0  0  0  0  0  0  0  0  0
  -24.2990  -36.5990   23.6650 C   0  0  0  0  0  1  0  0  0  0  0  0
  -25.5480  -36.0560   24.3770 C   0  0  0  0  0  3  0  0  0  0  0  0
  -27.7140  -36.7690   25.2880 C   0  0  0  0  0  1  0  0  0  0  0  0
  -26.5960  -37.1000   24.4110 N   0  0  0  0  0  0  0  0  0  0  0  0
  -26.2060  -37.9910   24.7130 H   0  0  0  0  0  0  0  0  0  0  0  0
  -26.7480  -21.7920   19.7660 N   0  0  0  0  0  4  0  0  0  0  0  0
  -26.9890  -21.4700   20.6870 H   0  0  0  0  0  0  0  0  0  0  0  0
  -27.5580  -22.2610   19.3910 H   0  0  0  0  0  0  0  0  0  0  0  0
  -26.3600  -20.6140   18.9530 C   0  0  0  0  0  2  0  0  0  0  0  0
  -26.6710  -20.7600   17.4430 C   0  0  0  0  0  2  0  0  0  0  0  0
  -28.1740  -20.7300   17.0640 C   0  0  0  0  0  2  0  0  0  0  0  0
  -28.8250  -19.3190   17.0230 C   0  0  0  0  0  2  0  0  0  0  0  0
  -30.4360  -18.2620   20.2710 C   0  0  0  0  0  2  0  0  0  0  0  0
  -30.2260  -19.2920   19.1500 C   0  0  0  0  0  2  0  0  0  0  0  0
  -29.1170  -17.2770   18.5040 C   0  0  0  0  0  2  0  0  0  0  0  0
  -30.2530  -16.9540   19.5050 C   0  0  0  0  0  3  0  0  0  0  0  0
  -29.0840  -18.7550   18.3770 N   0  0  2  0  0  4  0  0  0  0  0  0
  -28.2700  -18.9940   18.9140 H   0  0  0  0  0  0  0  0  0  0  0  0
  -30.8530  -14.6910   20.3870 C   0  0  0  0  0  0  0  0  0  0  0  0
  -30.5850  -12.4950   19.3620 C   0  0  0  0  0  2  0  0  0  0  0  0
  -29.6620  -12.7120   18.1430 C   0  0  0  0  0  2  0  0  0  0  0  0
  -28.1730  -12.6140   18.5400 C   0  0  0  0  0  2  0  0  0  0  0  0
  -27.8210  -13.4470   19.8030 C   0  0  0  0  0  3  0  0  0  0  0  0
  -28.8690  -13.2460   20.9250 C   0  0  0  0  0  2  0  0  0  0  0  0
  -30.2070  -13.4990   20.3650 N   0  0  0  0  0  0  0  0  0  0  0  0
  -32.0450  -14.8320   20.1140 O   0  0  0  0  0  0  0  0  0  0  0  0
  -30.0110  -15.7380   20.3100 N   0  0  0  0  0  0  0  0  0  0  0  0
  -29.0570  -15.5050   20.5370 H   0  0  0  0  0  0  0  0  0  0  0  0
  -25.4190  -14.0620   20.4910 C   0  0  0  0  0  0  0  0  0  0  0  0
  -24.3460  -13.2890   20.8500 C   0  0  0  0  0  0  0  0  0  0  0  0
  -24.8050  -11.9390   20.8170 C   0  0  0  0  0  0  0  0  0  0  0  0
  -26.4660  -13.1790   20.2700 N   0  0  0  0  0  0  0  0  0  0  0  0
  -26.1000  -11.8990   20.5240 N   0  0  0  0  0  0  0  0  0  0  0  0
  -24.0690  -10.6780   20.9780 C   0  0  0  0  0  0  0  0  0  0  0  0
  -24.4910   -9.6950   21.8980 C   0  0  0  0  0  3  0  0  0  0  0  0
  -23.7590   -8.4970   22.0520 C   0  0  0  0  0  3  0  0  0  0  0  0
  -22.5890   -8.2810   21.2850 C   0  0  0  0  0  0  0  0  0  0  0  0
  -22.1900   -9.2500   20.3520 C   0  0  0  0  0  3  0  0  0  0  0  0
  -22.9240  -10.4380   20.1950 C   0  0  0  0  0  3  0  0  0  0  0  0
  -21.8250   -7.1400   21.3530 O   0  0  0  0  0  0  0  0  0  0  0  0
  -21.7650   -6.3820   22.4930 C   0  0  0  0  0  0  0  0  0  0  0  0
  -21.3340   -6.9210   23.7250 C   0  0  0  0  0  3  0  0  0  0  0  0
  -21.2190   -6.0890   24.8570 C   0  0  0  0  0  3  0  0  0  0  0  0
  -21.5270   -4.7180   24.7570 C   0  0  0  0  0  0  0  0  0  0  0  0
  -21.9500   -4.1790   23.5300 C   0  0  0  0  0  3  0  0  0  0  0  0
  -22.0680   -5.0090   22.4010 C   0  0  0  0  0  0  0  0  0  0  0  0
  -22.4610   -4.4800   21.2160 F   0  0  0  0  0  0  0  0  0  0  0  0
  -21.4070   -3.9170   25.8400 F   0  0  0  0  0  0  0  0  0  0  0  0
  -22.9460  -13.7730   21.0980 C   0  0  0  0  0  0  0  0  0  0  0  0
  -22.2010  -13.0780   21.9510 N   0  0  0  0  0  0  0  0  0  0  0  0
  -22.5180  -14.7970   20.5680 O   0  0  0  0  0  0  0  0  0  0  0  0
  -22.5560  -12.2520   22.4060 H   0  0  0  0  0  0  0  0  0  0  0  0
  -21.2610  -13.3890   22.1570 H   0  0  0  0  0  0  0  0  0  0  0  0
  -25.5730  -15.4320   20.3060 N   0  0  0  0  0  0  0  0  0  0  0  0
  -24.7450  -16.0190   20.3100 H   0  0  0  0  0  0  0  0  0  0  0  0
  -26.3370  -15.8470   19.7960 H   0  0  0  0  0  0  0  0  0  0  0  0
  1  5  1  0
  2  6  1  0
  3  2  2  0
  4  6  2  0
  4  9  1  0
  5  4  1  0
  7  5  2  0
  7  3  1  0
  8  9  1  0
 10  3  1  0
 11 13  1  0
 11 10  1  0
 12 23  2  0
 13 18  1  0
 14 22  1  0
 14 24  1  0
 15 21  1  0
 15 17  1  0
 16 22  1  0
 17 16  1  0
 18 17  2  0
 19 20  1  0
 19 13  2  0
 20 15  2  0
 21 14  1  0
 22 12  1  0
 24 26  2  0
 25 24  1  0
 27 25  1  0
 28 37  2  0
 28 33  1  0
 29 25  1  0
 29 33  1  0
 30 29  1  0
 31 32  1  0
 31 30  1  0
 32 28  1  0
 33 34  2  0
 34 35  1  0
 36 35  2  0
 37 36  1  0
 38 12  1  0
 38 43  1  0
 38 39  1  0
 39 42  1  1
 39 40  1  0
 41 39  1  0
 43 46  1  0
 44 43  1  0
 44 48  1  0
 45 44  2  0
 48 47  1  0
 48 50  1  0
 50 51  1  0
 50 49  1  0
 52  1  1  0
 52 53  1  0
 54 52  1  0
 55 52  1  0
 56 55  1  0
 57 56  1  0
 58 57  1  0
 58 63  1  0
 60 59  1  0
 61 62  1  0
 62 59  1  0
 62 73  1  0
 63 61  1  0
 63 64  1  1
 63 60  1  0
 66 71  1  0
 67 68  1  0
 67 66  1  0
 69 68  1  0
 69 78  1  0
 69 70  1  0
 71 65  1  0
 71 70  1  0
 72 65  2  0
 73 65  1  0
 73 74  1  0
 75 76  2  0
 76 95  1  0
 77 76  1  0
 77 80  1  0
 78 75  1  0
 78 79  1  0
 79 77  2  0
 80 81  1  0
 81 82  2  0
 83 86  1  0
 83 82  1  0
 84 83  2  0
 85 84  1  0
 85 80  2  0
 86 87  1  0
 87 88  1  0
 88 89  2  0
 90 89  1  0
 90 94  1  0
 91 90  2  0
 92 87  2  0
 92 91  1  0
 93 92  1  0
 95 96  1  0
 96 99  1  0
 96 98  1  0
 97 95  2  0
100101  1  0
100 75  1  0
102100  1  0
M  ISO  4  10 101  11 101  65 100  73 100
M  END
>  <TORSDO>  (18) 
F 25

>  <SCORE>  (18) 
-10.739

>  <name>  (18) 
17

>  <ligand_id>  (18) 
17

>  <original_smiles>  (18) 
[H]c1nc(C([H])([H])C([H])([H])[H])c(C([H])([H])[N+]([H])([H])C([H])([H])C([H])([H])C([H])([H])C([H])([H])[N+]2([H])C([H])([H])C([H])([H])C([H])(N([H])C(=O)N3C([H])([H])C([H])([H])C([H])([H])C([H])(n4nc(-c5c([H])c([H])c(Oc6c([H])c([H])c(F)c([H])c6F)c([H])c5[H])c(C(=O)N([H])[H])c4N([H])[H])C3([H])[H])C2([H])[H])nc1C([H])([H])Oc1c([H])c([H])c2c(c1[H])C([H])([H])N(C(=O)C([H])(N([H])C(=O)C([H])(N([H])C([H])([H])[H])C([H])([H])[H])C(C([H])([H])[H])(C([H])([H])[H])C([H])([H])[H])C([H])(C(=O)N([H])C1([H])c3c([H])c([H])c([H])c([H])c3C([H])([H])C([H])([H])C1([H])[H])C2([H])[H]

>  <smiles>  (18) 
[H]c1nc(C([H])([H])C([H])([H])[H])c(C([H])([H])[N+]([H])([H])C([H])([H])C([H])([H])C([H])([H])C([H])([H])[N+]2([H])C([H])([H])C([H])([H])C([H])(N([H])C(=O)N3C([H])([H])C([H])([H])C([H])([H])C([H])(n4nc(-c5c([H])c([H])c(Oc6c([H])c([H])c(F)c([H])c6F)c([H])c5[H])c(C(=O)N([H])[H])c4N([H])[H])C3([H])[H])C2([H])[H])nc1C([H])([H])Oc1c([H])c([H])c2c(c1[H])C([H])([H])N(C(=O)C([H])(N([H])C(=O)C([H])(N([H])C([H])([H])[H])C([H])([H])[H])C(C([H])([H])[H])(C([H])([H])[H])C([H])([H])[H])C([H])(C(=O)N([H])C1([H])c3c([H])c([H])c([H])c([H])c3C([H])([H])C([H])([H])C1([H])[H])C2([H])[H]

$$$$
18:0:0
     RDKit          3D

 91100  0  0  1  0  0  0  0  0999 V2000
  -30.4010  -22.0200   20.8680 C   0  0  0  0  0  3  0  0  0  0  0  0
  -29.9380  -20.8170   20.3870 C   0  0  0  0  0  0  0  0  0  0  0  0
  -28.7610  -21.0920   19.6790 N   0  0  0  0  0  0  0  0  0  0  0  0
  -28.5170  -22.3740   19.6990 N   0  0  0  0  0  0  0  0  0  0  0  0
  -29.4940  -22.9730   20.4290 N   0  0  0  0  0  0  0  0  0  0  0  0
  -30.6140  -19.5100   20.5750 C   0  0  0  0  0  0  0  0  0  0  0  0
  -31.7940  -19.4190   20.9350 O   0  0  0  0  0  0  0  0  0  0  0  0
  -30.8760  -14.5770   20.0260 C   0  0  0  0  0  0  0  0  0  0  0  0
  -30.5250  -12.3940   18.9140 C   0  0  0  0  0  2  0  0  0  0  0  0
  -29.5330  -12.5730   17.7480 C   0  0  0  0  0  2  0  0  0  0  0  0
  -28.0760  -12.4440   18.2400 C   0  0  0  0  0  2  0  0  0  0  0  0
  -27.7950  -13.2770   19.5200 C   0  0  0  0  0  3  0  0  0  0  0  0
  -28.9020  -13.0420   20.5710 C   0  0  0  0  0  2  0  0  0  0  0  0
  -30.1810  -13.4000   19.9390 N   0  0  0  0  0  0  0  0  0  0  0  0
  -32.0120  -14.6670   19.5480 O   0  0  0  0  0  0  0  0  0  0  0  0
  -29.4120  -17.5380   21.6830 C   0  0  0  0  0  2  0  0  0  0  0  0
  -29.2950  -16.0320   21.3940 C   0  0  0  0  0  2  0  0  0  0  0  0
  -30.5930  -17.0350   19.6710 C   0  0  0  0  0  2  0  0  0  0  0  0
  -29.8110  -18.1920   20.3570 C   0  0  0  0  0  3  0  0  0  0  0  0
  -30.1810  -15.7360   20.2640 N   0  0  0  0  0  0  0  0  0  0  0  0
  -25.4430  -13.8980   20.3470 C   0  0  0  0  0  0  0  0  0  0  0  0
  -24.3870  -13.1320   20.7640 C   0  0  0  0  0  0  0  0  0  0  0  0
  -24.8340  -11.7770   20.7000 C   0  0  0  0  0  0  0  0  0  0  0  0
  -26.4670  -13.0090   20.0600 N   0  0  0  0  0  0  0  0  0  0  0  0
  -26.1070  -11.7270   20.3300 N   0  0  0  0  0  0  0  0  0  0  0  0
  -24.1040  -10.5200   20.9120 C   0  0  0  0  0  0  0  0  0  0  0  0
  -24.5240   -9.5750   21.8740 C   0  0  0  0  0  3  0  0  0  0  0  0
  -23.7960   -8.3820   22.0710 C   0  0  0  0  0  3  0  0  0  0  0  0
  -22.6340   -8.1260   21.3060 C   0  0  0  0  0  0  0  0  0  0  0  0
  -22.2320   -9.0590   20.3340 C   0  0  0  0  0  3  0  0  0  0  0  0
  -22.9610  -10.2440   20.1350 C   0  0  0  0  0  3  0  0  0  0  0  0
  -21.8770   -6.9840   21.4140 O   0  0  0  0  0  0  0  0  0  0  0  0
  -21.7430   -6.3190   22.6070 C   0  0  0  0  0  0  0  0  0  0  0  0
  -21.2150   -6.9470   23.7560 C   0  0  0  0  0  3  0  0  0  0  0  0
  -21.0320   -6.2070   24.9410 C   0  0  0  0  0  3  0  0  0  0  0  0
  -21.3640   -4.8400   24.9770 C   0  0  0  0  0  0  0  0  0  0  0  0
  -21.8830   -4.2110   23.8330 C   0  0  0  0  0  3  0  0  0  0  0  0
  -22.0700   -4.9490   22.6520 C   0  0  0  0  0  0  0  0  0  0  0  0
  -22.5520   -4.3330   21.5450 F   0  0  0  0  0  0  0  0  0  0  0  0
  -21.1780   -4.1270   26.1130 F   0  0  0  0  0  0  0  0  0  0  0  0
  -23.0110  -13.6200   21.1090 C   0  0  0  0  0  0  0  0  0  0  0  0
  -22.3230  -12.9340   22.0160 N   0  0  0  0  0  0  0  0  0  0  0  0
  -22.5550  -14.6470   20.6070 O   0  0  0  0  0  0  0  0  0  0  0  0
  -22.7010  -12.1030   22.4440 H   0  0  0  0  0  0  0  0  0  0  0  0
  -21.4000  -13.2460   22.2840 H   0  0  0  0  0  0  0  0  0  0  0  0
  -25.6120  -15.2680   20.1680 N   0  0  0  0  0  0  0  0  0  0  0  0
  -24.8550  -15.9290   20.3070 H   0  0  0  0  0  0  0  0  0  0  0  0
  -26.4540  -15.6960   19.8050 H   0  0  0  0  0  0  0  0  0  0  0  0
  -29.5500  -24.4400   20.6140 C   0  0  0  0  0  2  0  0  0  0  0  0
  -28.2760  -25.2420   20.2200 C   0  0  0  0  0  2  0  0  0  0  0  0
  -28.4030  -26.6740   20.4130 O   0  0  0  0  0  0  0  0  0  0  0  0
  -24.5300  -31.8910   23.3650 C   0  0  0  0  0  0  0  0  0  0  0  0
  -27.2400  -27.4300   20.3490 C   0  0  0  0  0  0  0  0  0  0  0  0
  -23.3610  -30.4860   21.7050 C   0  0  0  0  0  3  0  0  0  0  0  0
  -24.8450  -28.9570   20.3010 C   0  0  0  0  0  0  0  0  0  0  0  0
  -25.8890  -30.8530   21.5430 C   0  0  0  0  0  2  0  0  0  0  0  0
  -25.9940  -29.4790   20.9100 C   0  0  0  0  0  0  0  0  0  0  0  0
  -27.1940  -28.7250   20.9250 C   0  0  0  0  0  3  0  0  0  0  0  0
  -26.0680  -26.9360   19.7280 C   0  0  0  0  0  3  0  0  0  0  0  0
  -24.8800  -27.6890   19.7030 C   0  0  0  0  0  3  0  0  0  0  0  0
  -23.5990  -29.8160   20.3260 C   0  0  0  0  0  2  0  0  0  0  0  0
  -24.6130  -31.0900   22.2660 N   0  0  0  0  0  0  0  0  0  0  0  0
  -23.4360  -32.1600   23.8830 O   0  0  0  0  0  0  0  0  0  0  0  0
  -22.6970  -29.4600   22.6510 C   0  0  0  0  0  0  0  0  0  0  0  0
  -21.3750  -29.2750   22.5010 N   0  0  0  0  0  0  0  0  0  0  0  0
  -23.3680  -28.8350   23.4780 O   0  0  0  0  0  0  0  0  0  0  0  0
  -20.8970  -29.8290   21.8040 H   0  0  0  0  0  0  0  0  0  0  0  0
  -17.9900  -28.0940   22.9540 C   0  0  0  0  0  0  0  0  0  0  0  0
  -20.5470  -28.3350   23.2550 C   0  0  0  0  0  3  0  0  0  0  0  0
  -20.6490  -26.9090   22.6650 C   0  0  0  0  0  2  0  0  0  0  0  0
  -19.5540  -26.6020   21.6400 C   0  0  0  0  0  2  0  0  0  0  0  0
  -18.1670  -26.7500   22.2700 C   0  0  0  0  0  2  0  0  0  0  0  0
  -19.1080  -28.8450   23.4030 C   0  0  0  0  0  0  0  0  0  0  0  0
  -18.8890  -30.1050   24.0010 C   0  0  0  0  0  3  0  0  0  0  0  0
  -17.5860  -30.6120   24.1570 C   0  0  0  0  0  3  0  0  0  0  0  0
  -16.4820  -29.8570   23.7230 C   0  0  0  0  0  3  0  0  0  0  0  0
  -16.6850  -28.6010   23.1250 C   0  0  0  0  0  3  0  0  0  0  0  0
  -25.8000  -32.5260   24.0120 C   0  0  0  0  0  3  0  0  0  0  0  0
  -26.2690  -31.7770   25.3190 C   0  0  1  0  0  0  0  0  0  0  0  0
  -25.1370  -31.5680   26.3510 C   0  0  0  0  0  1  0  0  0  0  0  0
  -26.8540  -30.3900   24.9670 C   0  0  0  0  0  1  0  0  0  0  0  0
  -27.3980  -32.5800   26.0050 C   0  0  0  0  0  1  0  0  0  0  0  0
  -25.4930  -33.9330   24.2960 N   0  0  0  0  0  0  0  0  0  0  0  0
  -25.8370  -34.9620   23.5080 C   0  0  0  0  0  0  0  0  0  0  0  0
  -26.5180  -34.8250   22.4880 O   0  0  0  0  0  0  0  0  0  0  0  0
  -24.8860  -34.1130   25.0810 H   0  0  0  0  0  0  0  0  0  0  0  0
  -24.1040  -36.7380   23.0990 C   0  0  0  0  0  1  0  0  0  0  0  0
  -25.3490  -36.3630   23.9180 C   0  0  0  0  0  3  0  0  0  0  0  0
  -27.4860  -37.2830   24.7090 C   0  0  0  0  0  1  0  0  0  0  0  0
  -26.3790  -37.4150   23.7640 N   0  0  0  0  0  0  0  0  0  0  0  0
  -25.9710  -38.3370   23.8790 H   0  0  0  0  0  0  0  0  0  0  0  0
  2  6  1  0
  2  1  2  0
  3  4  2  0
  3  2  1  0
  4  5  1  0
  5 49  1  0
  5  1  1  0
  6  7  2  0
  8 20  1  0
  9 14  1  0
 10 11  1  0
 10  9  1  0
 12 11  1  0
 12 24  1  0
 12 13  1  0
 14  8  1  0
 14 13  1  0
 15  8  2  0
 17 16  1  0
 18 20  1  0
 18 19  1  0
 19  6  1  0
 19 16  1  0
 20 17  1  0
 21 22  2  0
 22 41  1  0
 23 22  1  0
 23 26  1  0
 24 25  1  0
 24 21  1  0
 25 23  2  0
 26 27  1  0
 27 28  2  0
 29 32  1  0
 29 28  1  0
 30 29  2  0
 31 30  1  0
 31 26  2  0
 32 33  1  0
 33 38  2  0
 33 34  1  0
 34 35  2  0
 35 36  1  0
 36 40  1  0
 37 36  2  0
 38 37  1  0
 39 38  1  0
 41 42  1  0
 42 45  1  0
 42 44  1  0
 43 41  2  0
 46 47  1  0
 46 21  1  0
 48 46  1  0
 50 51  1  0
 50 49  1  0
 52 63  2  0
 53 51  1  0
 53 58  1  0
 54 62  1  0
 54 64  1  0
 55 61  1  0
 55 57  1  0
 56 62  1  0
 57 58  2  0
 57 56  1  0
 59 53  2  0
 60 59  1  0
 60 55  2  0
 61 54  1  0
 62 52  1  0
 64 66  2  0
 65 64  1  0
 67 65  1  0
 68 77  2  0
 68 73  1  0
 69 65  1  0
 69 73  1  0
 70 69  1  0
 71 72  1  0
 71 70  1  0
 72 68  1  0
 73 74  2  0
 74 75  1  0
 76 75  2  0
 77 76  1  0
 78 52  1  0
 78 83  1  0
 78 79  1  0
 79 82  1  1
 79 80  1  0
 81 79  1  0
 83 86  1  0
 84 88  1  0
 84 83  1  0
 85 84  2  0
 88 87  1  0
 90 91  1  0
 90 88  1  0
 90 89  1  0
M  ISO  4   8 100  20 100  50 101  51 101
M  END
>  <TORSDO>  (19) 
F 19

>  <SCORE>  (19) 
-13.501

>  <name>  (19) 
18

>  <ligand_id>  (19) 
18

>  <original_smiles>  (19) 
[H]c1c([H])c([H])c2c(c1[H])C([H])([H])C([H])([H])C([H])([H])C2([H])N([H])C(=O)C1([H])N(C(=O)C([H])(N([H])C(=O)C([H])(N([H])C([H])([H])[H])C([H])([H])[H])C(C([H])([H])[H])(C([H])([H])[H])C([H])([H])[H])C([H])([H])c2c([H])c(OC([H])([H])C([H])([H])n3nnc(C(=O)C4([H])C([H])([H])N(C(=O)N5C([H])([H])C([H])([H])C([H])([H])C([H])(n6nc(-c7c([H])c([H])c(Oc8c([H])c([H])c(F)c([H])c8F)c([H])c7[H])c(C(=O)N([H])[H])c6N([H])[H])C5([H])[H])C([H])([H])C4([H])[H])c3[H])c([H])c([H])c2C1([H])[H]

>  <smiles>  (19) 
[H]c1c([H])c([H])c2c(c1[H])C([H])([H])C([H])([H])C([H])([H])C2([H])N([H])C(=O)C1([H])N(C(=O)C([H])(N([H])C(=O)C([H])(N([H])C([H])([H])[H])C([H])([H])[H])C(C([H])([H])[H])(C([H])([H])[H])C([H])([H])[H])C([H])([H])c2c([H])c(OC([H])([H])C([H])([H])n3nnc(C(=O)C4([H])C([H])([H])N(C(=O)N5C([H])([H])C([H])([H])C([H])([H])C([H])(n6nc(-c7c([H])c([H])c(Oc8c([H])c([H])c(F)c([H])c8F)c([H])c7[H])c(C(=O)N([H])[H])c6N([H])[H])C5([H])[H])C([H])([H])C4([H])[H])c3[H])c([H])c([H])c2C1([H])[H]

$$$$
19:0:0
     RDKit          3D

 93102  0  0  1  0  0  0  0  0999 V2000
  -30.5510  -21.7330   20.2750 C   0  0  0  0  0  3  0  0  0  0  0  0
  -29.5130  -20.9120   19.8560 C   0  0  0  0  0  0  0  0  0  0  0  0
  -29.0350  -23.2900   19.5180 C   0  0  0  0  0  3  0  0  0  0  0  0
  -28.5900  -21.9500   19.4220 N   0  0  0  0  0  0  0  0  0  0  0  0
  -30.2470  -23.0880   20.0640 N   0  0  0  0  0  0  0  0  0  0  0  0
  -30.8830  -23.8460   20.2810 H   0  0  0  0  0  0  0  0  0  0  0  0
  -30.7690  -15.3170   19.9980 C   0  0  0  0  0  0  0  0  0  0  0  0
  -30.6310  -12.9160   19.1200 C   0  0  0  0  0  2  0  0  0  0  0  0
  -29.6870  -12.7810   17.9030 C   0  0  0  0  0  2  0  0  0  0  0  0
  -28.2350  -12.5530   18.3640 C   0  0  0  0  0  2  0  0  0  0  0  0
  -27.8280  -13.5110   19.5130 C   0  0  0  0  0  3  0  0  0  0  0  0
  -28.9040  -13.5960   20.6180 C   0  0  0  0  0  2  0  0  0  0  0  0
  -30.1420  -14.0540   19.9680 N   0  0  0  0  0  0  0  0  0  0  0  0
  -31.9680  -15.2970   19.6890 O   0  0  0  0  0  0  0  0  0  0  0  0
  -28.6250  -18.5050   20.9280 C   0  0  0  0  0  2  0  0  0  0  0  0
  -28.8180  -16.9380   20.7560 C   0  0  0  0  0  2  0  0  0  0  0  0
  -30.5440  -18.0620   19.6880 C   0  0  0  0  0  2  0  0  0  0  0  0
  -29.3660  -19.2330   19.7940 C   0  0  0  0  0  3  0  0  0  0  0  0
  -30.0880  -16.6060   20.0730 N   0  0  0  0  0  0  0  0  0  0  0  0
  -25.4720  -14.0930   20.3160 C   0  0  0  0  0  0  0  0  0  0  0  0
  -24.4130  -13.3220   20.7030 C   0  0  0  0  0  0  0  0  0  0  0  0
  -24.8670  -11.9690   20.6470 C   0  0  0  0  0  0  0  0  0  0  0  0
  -26.5050  -13.2120   20.0430 N   0  0  0  0  0  0  0  0  0  0  0  0
  -26.1510  -11.9270   20.3090 N   0  0  0  0  0  0  0  0  0  0  0  0
  -24.1330  -10.7120   20.8370 C   0  0  0  0  0  0  0  0  0  0  0  0
  -24.5590   -9.7400   21.7680 C   0  0  0  0  0  3  0  0  0  0  0  0
  -23.8230   -8.5480   21.9480 C   0  0  0  0  0  3  0  0  0  0  0  0
  -22.6450   -8.3220   21.1960 C   0  0  0  0  0  0  0  0  0  0  0  0
  -22.2370   -9.2830   20.2550 C   0  0  0  0  0  3  0  0  0  0  0  0
  -22.9750  -10.4650   20.0730 C   0  0  0  0  0  3  0  0  0  0  0  0
  -21.8800   -7.1840   21.2850 O   0  0  0  0  0  0  0  0  0  0  0  0
  -21.8090   -6.4540   22.4450 C   0  0  0  0  0  0  0  0  0  0  0  0
  -21.3910   -7.0310   23.6640 C   0  0  0  0  0  3  0  0  0  0  0  0
  -21.2650   -6.2290   24.8160 C   0  0  0  0  0  3  0  0  0  0  0  0
  -21.5480   -4.8510   24.7490 C   0  0  0  0  0  0  0  0  0  0  0  0
  -21.9580   -4.2730   23.5340 C   0  0  0  0  0  3  0  0  0  0  0  0
  -22.0850   -5.0730   22.3850 C   0  0  0  0  0  0  0  0  0  0  0  0
  -22.4610   -4.5080   21.2120 F   0  0  0  0  0  0  0  0  0  0  0  0
  -21.4190   -4.0790   25.8530 F   0  0  0  0  0  0  0  0  0  0  0  0
  -23.0260  -13.8100   21.0050 C   0  0  0  0  0  0  0  0  0  0  0  0
  -22.3180  -13.1300   21.8970 N   0  0  0  0  0  0  0  0  0  0  0  0
  -22.5830  -14.8330   20.4840 O   0  0  0  0  0  0  0  0  0  0  0  0
  -22.6900  -12.3030   22.3410 H   0  0  0  0  0  0  0  0  0  0  0  0
  -21.3880  -13.4400   22.1410 H   0  0  0  0  0  0  0  0  0  0  0  0
  -25.6290  -15.4630   20.1420 N   0  0  0  0  0  0  0  0  0  0  0  0
  -24.8580  -16.1090   20.2700 H   0  0  0  0  0  0  0  0  0  0  0  0
  -26.4530  -15.9000   19.7550 H   0  0  0  0  0  0  0  0  0  0  0  0
  -28.3190  -24.7330   19.0200 C   0  0  0  0  0  2  0  0  0  0  0  0
  -28.6180  -26.2650   19.3250 O   0  0  0  0  0  0  0  0  0  0  0  0
  -24.7730  -31.5710   22.8630 C   0  0  0  0  0  0  0  0  0  0  0  0
  -27.5370  -27.2520   19.3650 C   0  0  0  0  0  0  0  0  0  0  0  0
  -23.6200  -30.2650   21.1230 C   0  0  0  0  0  3  0  0  0  0  0  0
  -25.1240  -28.9090   19.5340 C   0  0  0  0  0  0  0  0  0  0  0  0
  -26.1590  -30.6720   20.9460 C   0  0  0  0  0  2  0  0  0  0  0  0
  -26.2960  -29.3470   20.1640 C   0  0  0  0  0  0  0  0  0  0  0  0
  -27.5000  -28.5390   20.0630 C   0  0  0  0  0  3  0  0  0  0  0  0
  -26.3280  -26.9420   18.7000 C   0  0  0  0  0  3  0  0  0  0  0  0
  -25.1570  -27.7250   18.7850 C   0  0  0  0  0  3  0  0  0  0  0  0
  -23.8520  -29.7320   19.6850 C   0  0  0  0  0  2  0  0  0  0  0  0
  -24.8710  -30.8540   21.6990 N   0  0  0  0  0  0  0  0  0  0  0  0
  -23.6830  -31.7460   23.4300 O   0  0  0  0  0  0  0  0  0  0  0  0
  -23.0150  -29.1390   21.9990 C   0  0  0  0  0  0  0  0  0  0  0  0
  -21.6850  -28.9450   21.9240 N   0  0  0  0  0  0  0  0  0  0  0  0
  -23.7430  -28.4440   22.7120 O   0  0  0  0  0  0  0  0  0  0  0  0
  -21.1490  -29.5610   21.3290 H   0  0  0  0  0  0  0  0  0  0  0  0
  -18.3560  -27.6500   22.5390 C   0  0  0  0  0  0  0  0  0  0  0  0
  -20.9290  -27.9040   22.6260 C   0  0  0  0  0  3  0  0  0  0  0  0
  -20.9820  -26.5630   21.8570 C   0  0  0  0  0  2  0  0  0  0  0  0
  -19.8000  -26.3670   20.9040 C   0  0  0  0  0  2  0  0  0  0  0  0
  -18.4760  -26.4070   21.6720 C   0  0  0  0  0  2  0  0  0  0  0  0
  -19.5060  -28.3610   22.9730 C   0  0  0  0  0  0  0  0  0  0  0  0
  -19.3340  -29.5270   23.7500 C   0  0  0  0  0  3  0  0  0  0  0  0
  -18.0480  -29.9820   24.0920 C   0  0  0  0  0  3  0  0  0  0  0  0
  -16.9140  -29.2670   23.6710 C   0  0  0  0  0  3  0  0  0  0  0  0
  -17.0700  -28.1010   22.8990 C   0  0  0  0  0  3  0  0  0  0  0  0
  -26.0240  -32.2210   23.5280 C   0  0  0  0  0  3  0  0  0  0  0  0
  -26.5970  -31.3740   24.7300 C   0  0  1  0  0  0  0  0  0  0  0  0
  -25.5340  -30.9990   25.7900 C   0  0  0  0  0  1  0  0  0  0  0  0
  -27.2380  -30.0610   24.2240 C   0  0  0  0  0  1  0  0  0  0  0  0
  -27.7190  -32.1680   25.4400 C   0  0  0  0  0  1  0  0  0  0  0  0
  -25.6410  -33.5660   23.9880 N   0  0  0  0  0  0  0  0  0  0  0  0
  -25.8900  -34.7030   23.3250 C   0  0  0  0  0  0  0  0  0  0  0  0
  -26.5350  -34.7330   22.2730 O   0  0  0  0  0  0  0  0  0  0  0  0
  -25.0590  -33.6120   24.8120 H   0  0  0  0  0  0  0  0  0  0  0  0
  -24.0480  -36.4140   23.1950 C   0  0  0  0  0  1  0  0  0  0  0  0
  -25.3430  -36.0150   23.9210 C   0  0  0  0  0  3  0  0  0  0  0  0
  -27.4540  -36.9570   24.7510 C   0  0  0  0  0  1  0  0  0  0  0  0
  -26.3060  -37.1360   23.8660 N   0  0  0  0  0  0  0  0  0  0  0  0
  -25.8540  -38.0140   24.1080 H   0  0  0  0  0  0  0  0  0  0  0  0
  -27.2480  -21.6650   18.8960 C   0  0  0  0  0  2  0  0  0  0  0  0
  -24.7320  -21.9790   19.2720 C   0  0  0  0  0  1  0  0  0  0  0  0
  -26.1400  -22.1420   19.8540 C   0  0  0  0  0  3  0  0  0  0  0  0
  -26.3190  -23.4300   20.1440 F   0  0  0  0  0  0  0  0  0  0  0  0
  2  1  2  0
  3 48  1  0
  3  5  1  0
  4  3  1  0
  4  2  1  0
  5  1  1  0
  5  6  1  0
  7 19  1  0
  8 13  1  0
  9 10  1  0
  9  8  1  0
 11 10  1  0
 11 23  1  0
 11 12  1  0
 13  7  1  0
 13 12  1  0
 14  7  2  0
 16 15  1  0
 17 18  1  0
 17 19  1  0
 18  2  1  0
 18 15  1  0
 19 16  1  0
 20 21  2  0
 21 40  1  0
 22 21  1  0
 22 25  1  0
 23 24  1  0
 23 20  1  0
 24 22  2  0
 25 26  1  0
 26 27  2  0
 28 31  1  0
 28 27  1  0
 29 28  2  0
 30 29  1  0
 30 25  2  0
 31 32  1  0
 32 33  1  0
 33 34  2  0
 35 34  1  0
 35 39  1  0
 36 35  2  0
 37 32  2  0
 37 36  1  0
 38 37  1  0
 40 41  1  0
 41 44  1  0
 41 43  1  0
 42 40  2  0
 45 46  1  0
 45 20  1  0
 47 45  1  0
 48 49  1  0
 49 51  1  0
 50 61  2  0
 51 56  1  0
 52 60  1  0
 52 62  1  0
 53 59  1  0
 53 55  1  0
 54 60  1  0
 55 54  1  0
 56 55  2  0
 57 58  1  0
 57 51  2  0
 58 53  2  0
 59 52  1  0
 60 50  1  0
 62 64  2  0
 63 62  1  0
 65 63  1  0
 66 75  2  0
 66 71  1  0
 67 63  1  0
 67 71  1  0
 68 67  1  0
 69 70  1  0
 69 68  1  0
 70 66  1  0
 71 72  2  0
 72 73  1  0
 74 73  2  0
 75 74  1  0
 76 50  1  0
 76 81  1  0
 76 77  1  0
 77 80  1  1
 77 78  1  0
 79 77  1  0
 81 84  1  0
 82 86  1  0
 82 81  1  0
 83 82  2  0
 86 85  1  0
 88 86  1  0
 88 89  1  0
 88 87  1  0
 90  4  1  0
 90 92  1  0
 92 91  1  0
 92 93  1  0
M  ISO  4   7 100  19 100  48 101  49 101
M  END
>  <TORSDO>  (20) 
F 19

>  <SCORE>  (20) 
-12.020

>  <name>  (20) 
19

>  <ligand_id>  (20) 
19

>  <original_smiles>  (20) 
[H]c1c([H])c([H])c2c(c1[H])C([H])([H])C([H])([H])C([H])([H])C2([H])N([H])C(=O)C1([H])N(C(=O)C([H])(N([H])C(=O)C([H])(N([H])C([H])([H])[H])C([H])([H])[H])C(C([H])([H])[H])(C([H])([H])[H])C([H])([H])[H])C([H])([H])c2c([H])c(OC([H])([H])c3n(C([H])([H])C([H])(F)C([H])([H])[H])c(C4([H])C([H])([H])N(C(=O)N5C([H])([H])C([H])([H])C([H])([H])C([H])(n6nc(-c7c([H])c([H])c(Oc8c([H])c([H])c(F)c([H])c8F)c([H])c7[H])c(C(=O)N([H])[H])c6N([H])[H])C5([H])[H])C([H])([H])C4([H])[H])c([H])[n+]3[H])c([H])c([H])c2C1([H])[H]

>  <smiles>  (20) 
[H]c1c([H])c([H])c2c(c1[H])C([H])([H])C([H])([H])C([H])([H])C2([H])N([H])C(=O)C1([H])N(C(=O)C([H])(N([H])C(=O)C([H])(N([H])C([H])([H])[H])C([H])([H])[H])C(C([H])([H])[H])(C([H])([H])[H])C([H])([H])[H])C([H])([H])c2c([H])c(OC([H])([H])c3n(C([H])([H])C([H])(F)C([H])([H])[H])c(C4([H])C([H])([H])N(C(=O)N5C([H])([H])C([H])([H])C([H])([H])C([H])(n6nc(-c7c([H])c([H])c(Oc8c([H])c([H])c(F)c([H])c8F)c([H])c7[H])c(C(=O)N([H])[H])c6N([H])[H])C5([H])[H])C([H])([H])C4([H])[H])c([H])[n+]3[H])c([H])c([H])c2C1([H])[H]

$$$$
20:0:0
     RDKit          3D

 92101  0  0  1  0  0  0  0  0999 V2000
  -30.4720  -22.7990   18.4800 C   0  0  0  0  0  3  0  0  0  0  0  0
  -29.1840  -22.3950   20.7680 C   0  0  0  0  0  0  0  0  0  0  0  0
  -29.3160  -23.7370   20.2240 C   0  0  0  0  0  0  0  0  0  0  0  0
  -29.7490  -21.2650   20.0460 C   0  0  0  0  0  0  0  0  0  0  0  0
  -29.9980  -17.8890   21.8130 C   0  0  0  0  0  2  0  0  0  0  0  0
  -29.9680  -19.4370   21.7970 C   0  0  0  0  0  2  0  0  0  0  0  0
  -30.0990  -18.6560   19.5630 C   0  0  0  0  0  2  0  0  0  0  0  0
  -30.6070  -17.4340   20.4720 C   0  0  0  0  0  3  0  0  0  0  0  0
  -29.9840  -23.8960   19.0630 N   0  0  0  0  0  0  0  0  0  0  0  0
  -30.3820  -21.5300   18.8890 N   0  0  0  0  0  0  0  0  0  0  0  0
  -29.7310  -19.8480   20.4170 N   0  0  0  0  0  0  0  0  0  0  0  0
  -28.3130  -22.1930   22.2500 Cl  0  0  0  0  0  0  0  0  0  0  0  0
  -31.0370  -14.8310   19.9510 C   0  0  0  0  0  0  0  0  0  0  0  0
  -30.7710  -12.5490   18.9490 C   0  0  0  0  0  2  0  0  0  0  0  0
  -29.7750  -12.6110   17.7680 C   0  0  0  0  0  2  0  0  0  0  0  0
  -28.3230  -12.4730   18.2650 C   0  0  0  0  0  2  0  0  0  0  0  0
  -28.0190  -13.3890   19.4790 C   0  0  0  0  0  3  0  0  0  0  0  0
  -29.1180  -13.2870   20.5560 C   0  0  0  0  0  2  0  0  0  0  0  0
  -30.3910  -13.6160   19.9010 N   0  0  0  0  0  0  0  0  0  0  0  0
  -32.2260  -14.9110   19.6340 O   0  0  0  0  0  0  0  0  0  0  0  0
  -30.2620  -15.9670   20.1720 N   0  0  0  0  0  0  0  0  0  0  0  0
  -29.2820  -15.7540   20.2700 H   0  0  0  0  0  0  0  0  0  0  0  0
  -25.6940  -14.0630   20.3220 C   0  0  0  0  0  0  0  0  0  0  0  0
  -24.6170  -13.3240   20.7310 C   0  0  0  0  0  0  0  0  0  0  0  0
  -25.0270  -11.9570   20.6680 C   0  0  0  0  0  0  0  0  0  0  0  0
  -26.6910  -13.1460   20.0290 N   0  0  0  0  0  0  0  0  0  0  0  0
  -26.3000  -11.8740   20.3010 N   0  0  0  0  0  0  0  0  0  0  0  0
  -24.2630  -10.7200   20.8750 C   0  0  0  0  0  0  0  0  0  0  0  0
  -24.6620   -9.7550   21.8250 C   0  0  0  0  0  3  0  0  0  0  0  0
  -23.8990   -8.5830   22.0180 C   0  0  0  0  0  3  0  0  0  0  0  0
  -22.7240   -8.3690   21.2600 C   0  0  0  0  0  0  0  0  0  0  0  0
  -22.3440   -9.3220   20.2980 C   0  0  0  0  0  3  0  0  0  0  0  0
  -23.1070  -10.4850   20.1030 C   0  0  0  0  0  3  0  0  0  0  0  0
  -21.9340   -7.2500   21.3620 O   0  0  0  0  0  0  0  0  0  0  0  0
  -21.7960   -6.5720   22.5470 C   0  0  0  0  0  0  0  0  0  0  0  0
  -21.2910   -7.1980   23.7080 C   0  0  0  0  0  3  0  0  0  0  0  0
  -21.1020   -6.4470   24.8860 C   0  0  0  0  0  3  0  0  0  0  0  0
  -21.4050   -5.0720   24.9020 C   0  0  0  0  0  0  0  0  0  0  0  0
  -21.9020   -4.4480   23.7440 C   0  0  0  0  0  3  0  0  0  0  0  0
  -22.0940   -5.1950   22.5690 C   0  0  0  0  0  0  0  0  0  0  0  0
  -22.5530   -4.5840   21.4510 F   0  0  0  0  0  0  0  0  0  0  0  0
  -21.2160   -4.3470   26.0300 F   0  0  0  0  0  0  0  0  0  0  0  0
  -23.2520  -13.8500   21.0670 C   0  0  0  0  0  0  0  0  0  0  0  0
  -22.5400  -13.1780   21.9660 N   0  0  0  0  0  0  0  0  0  0  0  0
  -22.8270  -14.8910   20.5680 O   0  0  0  0  0  0  0  0  0  0  0  0
  -22.9000  -12.3360   22.3910 H   0  0  0  0  0  0  0  0  0  0  0  0
  -21.6240  -13.5100   22.2350 H   0  0  0  0  0  0  0  0  0  0  0  0
  -25.9000  -15.4280   20.1490 N   0  0  0  0  0  0  0  0  0  0  0  0
  -25.1500  -16.0990   20.2790 H   0  0  0  0  0  0  0  0  0  0  0  0
  -26.7270  -15.8370   19.7350 H   0  0  0  0  0  0  0  0  0  0  0  0
  -28.7180  -25.0570   20.9060 C   0  0  0  0  0  2  0  0  0  0  0  0
  -28.9210  -26.4510   20.3620 O   0  0  0  0  0  0  0  0  0  0  0  0
  -24.8660  -31.7530   23.2700 C   0  0  0  0  0  0  0  0  0  0  0  0
  -27.7910  -27.3020   20.3080 C   0  0  0  0  0  0  0  0  0  0  0  0
  -23.7880  -30.3120   21.5810 C   0  0  0  0  0  3  0  0  0  0  0  0
  -25.3620  -28.8330   20.2060 C   0  0  0  0  0  0  0  0  0  0  0  0
  -26.3200  -30.7440   21.4890 C   0  0  0  0  0  2  0  0  0  0  0  0
  -26.4910  -29.3700   20.8400 C   0  0  0  0  0  0  0  0  0  0  0  0
  -27.7120  -28.6210   20.8720 C   0  0  0  0  0  3  0  0  0  0  0  0
  -26.6390  -26.8290   19.6470 C   0  0  0  0  0  3  0  0  0  0  0  0
  -25.4400  -27.5700   19.6010 C   0  0  0  0  0  3  0  0  0  0  0  0
  -24.0830  -29.6520   20.2090 C   0  0  0  0  0  2  0  0  0  0  0  0
  -25.0080  -30.9540   22.1710 N   0  0  0  0  0  0  0  0  0  0  0  0
  -23.7510  -31.9750   23.7650 O   0  0  0  0  0  0  0  0  0  0  0  0
  -23.1390  -29.2610   22.5130 C   0  0  0  0  0  0  0  0  0  0  0  0
  -21.8270  -29.0230   22.3390 N   0  0  0  0  0  0  0  0  0  0  0  0
  -23.8160  -28.6620   23.3530 O   0  0  0  0  0  0  0  0  0  0  0  0
  -21.3370  -29.5620   21.6400 H   0  0  0  0  0  0  0  0  0  0  0  0
  -18.4970  -27.6510   22.6940 C   0  0  0  0  0  0  0  0  0  0  0  0
  -21.0260  -28.0410   23.0710 C   0  0  0  0  0  3  0  0  0  0  0  0
  -21.2250  -26.6170   22.5000 C   0  0  0  0  0  2  0  0  0  0  0  0
  -20.1840  -26.2400   21.4410 C   0  0  0  0  0  2  0  0  0  0  0  0
  -18.7690  -26.3130   22.0250 C   0  0  0  0  0  2  0  0  0  0  0  0
  -19.5560  -28.4680   23.1710 C   0  0  0  0  0  0  0  0  0  0  0  0
  -19.2490  -29.7170   23.7530 C   0  0  0  0  0  3  0  0  0  0  0  0
  -17.9140  -30.1490   23.8670 C   0  0  0  0  0  3  0  0  0  0  0  0
  -16.8690  -29.3290   23.4070 C   0  0  0  0  0  3  0  0  0  0  0  0
  -17.1600  -28.0820   22.8240 C   0  0  0  0  0  3  0  0  0  0  0  0
  -26.0920  -32.4410   23.9430 C   0  0  0  0  0  3  0  0  0  0  0  0
  -25.7100  -33.8270   24.2500 N   0  0  0  0  0  0  0  0  0  0  0  0
  -26.0130  -34.8880   23.4900 C   0  0  0  0  0  0  0  0  0  0  0  0
  -26.7080  -34.8070   22.4740 O   0  0  0  0  0  0  0  0  0  0  0  0
  -25.0910  -33.9590   25.0350 H   0  0  0  0  0  0  0  0  0  0  0  0
  -24.2010  -36.5900   23.1000 C   0  0  0  0  0  1  0  0  0  0  0  0
  -25.4540  -36.2550   23.9260 C   0  0  0  0  0  3  0  0  0  0  0  0
  -27.5290  -37.2580   24.7680 C   0  0  0  0  0  1  0  0  0  0  0  0
  -26.4330  -37.3570   23.8090 N   0  0  0  0  0  0  0  0  0  0  0  0
  -25.9790  -38.2560   23.9410 H   0  0  0  0  0  0  0  0  0  0  0  0
  -26.5810  -31.7010   25.2500 C   0  0  1  0  0  0  0  0  0  0  0  0
  -25.4490  -31.4290   26.2700 C   0  0  0  0  0  1  0  0  0  0  0  0
  -27.2360  -30.3450   24.8960 C   0  0  0  0  0  1  0  0  0  0  0  0
  -27.6640  -32.5480   25.9570 C   0  0  0  0  0  1  0  0  0  0  0  0
  1 10  2  0
  1  9  1  0
  2 12  1  0
  3  2  1  0
  3 51  1  0
  4 11  1  0
  4  2  2  0
  6  5  1  0
  7 11  1  0
  7  8  1  0
  8 21  1  0
  8  5  1  0
  9  3  2  0
 10  4  1  0
 11  6  1  0
 13 21  1  0
 14 19  1  0
 15 16  1  0
 15 14  1  0
 17 16  1  0
 17 26  1  0
 17 18  1  0
 19 13  1  0
 19 18  1  0
 20 13  2  0
 21 22  1  0
 23 24  2  0
 24 43  1  0
 25 24  1  0
 25 28  1  0
 26 27  1  0
 26 23  1  0
 27 25  2  0
 28 29  1  0
 29 30  2  0
 31 34  1  0
 31 30  1  0
 32 31  2  0
 33 32  1  0
 33 28  2  0
 34 35  1  0
 35 40  2  0
 35 36  1  0
 36 37  2  0
 37 38  1  0
 38 42  1  0
 39 38  2  0
 40 39  1  0
 41 40  1  0
 43 44  1  0
 44 47  1  0
 44 46  1  0
 45 43  2  0
 48 49  1  0
 48 23  1  0
 50 48  1  0
 52 51  1  0
 53 64  2  0
 54 52  1  0
 54 59  1  0
 55 63  1  0
 55 65  1  0
 56 62  1  0
 56 58  1  0
 57 63  1  0
 58 59  2  0
 58 57  1  0
 60 54  2  0
 61 60  1  0
 61 56  2  0
 62 55  1  0
 63 53  1  0
 65 67  2  0
 66 65  1  0
 68 66  1  0
 69 78  2  0
 69 74  1  0
 70 66  1  0
 70 74  1  0
 71 70  1  0
 72 73  1  0
 72 71  1  0
 73 69  1  0
 74 75  2  0
 75 76  1  0
 77 76  2  0
 78 77  1  0
 79 53  1  0
 79 80  1  0
 79 89  1  0
 80 83  1  0
 81 85  1  0
 81 80  1  0
 82 81  2  0
 85 84  1  0
 87 85  1  0
 87 88  1  0
 87 86  1  0
 89 92  1  1
 89 90  1  0
 91 89  1  0
M  ISO  4  13 100  21 100  51 101  52 101
M  END
>  <TORSDO>  (21) 
F 17

>  <SCORE>  (21) 
-13.700

>  <name>  (21) 
20

>  <ligand_id>  (21) 
20

>  <original_smiles>  (21) 
[H]c1nc(N2C([H])([H])C([H])([H])C([H])(N([H])C(=O)N3C([H])([H])C([H])([H])C([H])([H])C([H])(n4nc(-c5c([H])c([H])c(Oc6c([H])c([H])c(F)c([H])c6F)c([H])c5[H])c(C(=O)N([H])[H])c4N([H])[H])C3([H])[H])C2([H])[H])c(Cl)c(C([H])([H])Oc2c([H])c([H])c3c(c2[H])C([H])([H])N(C(=O)C([H])(N([H])C(=O)C([H])(N([H])C([H])([H])[H])C([H])([H])[H])C(C([H])([H])[H])(C([H])([H])[H])C([H])([H])[H])C([H])(C(=O)N([H])C2([H])c4c([H])c([H])c([H])c([H])c4C([H])([H])C([H])([H])C2([H])[H])C3([H])[H])n1

>  <smiles>  (21) 
[H]c1nc(N2C([H])([H])C([H])([H])C([H])(N([H])C(=O)N3C([H])([H])C([H])([H])C([H])([H])C([H])(n4nc(-c5c([H])c([H])c(Oc6c([H])c([H])c(F)c([H])c6F)c([H])c5[H])c(C(=O)N([H])[H])c4N([H])[H])C3([H])[H])C2([H])[H])c(Cl)c(C([H])([H])Oc2c([H])c([H])c3c(c2[H])C([H])([H])N(C(=O)C([H])(N([H])C(=O)C([H])(N([H])C([H])([H])[H])C([H])([H])[H])C(C([H])([H])[H])(C([H])([H])[H])C([H])([H])[H])C([H])(C(=O)N([H])C2([H])c4c([H])c([H])c([H])c([H])c4C([H])([H])C([H])([H])C2([H])[H])C3([H])[H])n1

$$$$
21:0:0
     RDKit          3D

 93103  0  0  1  0  0  0  0  0999 V2000
  -29.9190  -21.9110   19.0580 C   0  0  0  0  0  3  0  0  0  0  0  0
  -29.8660  -22.8630   20.1030 C   0  0  0  0  0  0  0  0  0  0  0  0
  -30.5010  -20.1910   20.5420 C   0  0  0  0  0  0  0  0  0  0  0  0
  -30.3970  -21.1610   21.5940 C   0  0  0  0  0  0  0  0  0  0  0  0
  -30.3490  -17.8940   21.6020 C   0  0  0  0  0  2  0  0  0  0  0  0
  -30.9880  -17.8690   19.6310 C   0  0  0  0  0  2  0  0  0  0  0  0
  -31.1410  -16.8510   20.7820 C   0  0  0  0  0  3  0  0  0  0  0  0
  -30.2290  -20.6050   19.2740 N   0  0  0  0  0  0  0  0  0  0  0  0
  -30.0870  -22.4720   21.3800 N   0  0  0  0  0  0  0  0  0  0  0  0
  -31.0110  -18.8540   20.7160 N   0  0  0  0  0  0  0  0  0  0  0  0
  -30.7570  -20.7250   23.2280 Cl  0  0  0  0  0  0  0  0  0  0  0  0
  -31.1140  -14.4660   20.0400 C   0  0  0  0  0  0  0  0  0  0  0  0
  -30.7020  -12.2760   18.9740 C   0  0  0  0  0  2  0  0  0  0  0  0
  -29.7160  -12.4560   17.8010 C   0  0  0  0  0  2  0  0  0  0  0  0
  -28.2600  -12.3710   18.2970 C   0  0  0  0  0  2  0  0  0  0  0  0
  -27.9950  -13.2640   19.5380 C   0  0  0  0  0  3  0  0  0  0  0  0
  -29.0900  -13.0660   20.6100 C   0  0  0  0  0  2  0  0  0  0  0  0
  -30.3930  -13.3130   19.9730 N   0  0  0  0  0  0  0  0  0  0  0  0
  -32.2280  -14.5820   19.5220 O   0  0  0  0  0  0  0  0  0  0  0  0
  -30.5020  -15.5330   20.5940 N   0  0  0  0  0  0  0  0  0  0  0  0
  -29.5750  -15.3960   20.9660 H   0  0  0  0  0  0  0  0  0  0  0  0
  -25.6680  -13.9710   20.3760 C   0  0  0  0  0  0  0  0  0  0  0  0
  -24.5840  -13.2430   20.7860 C   0  0  0  0  0  0  0  0  0  0  0  0
  -24.9760  -11.8720   20.7110 C   0  0  0  0  0  0  0  0  0  0  0  0
  -26.6560  -13.0440   20.0800 N   0  0  0  0  0  0  0  0  0  0  0  0
  -26.2470  -11.7760   20.3380 N   0  0  0  0  0  0  0  0  0  0  0  0
  -24.1990  -10.6420   20.9170 C   0  0  0  0  0  0  0  0  0  0  0  0
  -24.6040   -9.6590   21.8450 C   0  0  0  0  0  3  0  0  0  0  0  0
  -23.8300   -8.4940   22.0380 C   0  0  0  0  0  3  0  0  0  0  0  0
  -22.6370   -8.3060   21.3010 C   0  0  0  0  0  0  0  0  0  0  0  0
  -22.2510   -9.2770   20.3620 C   0  0  0  0  0  3  0  0  0  0  0  0
  -23.0240  -10.4330   20.1670 C   0  0  0  0  0  3  0  0  0  0  0  0
  -21.8360   -7.1950   21.4040 O   0  0  0  0  0  0  0  0  0  0  0  0
  -21.7340   -6.4850   22.5740 C   0  0  0  0  0  0  0  0  0  0  0  0
  -21.2680   -7.0790   23.7670 C   0  0  0  0  0  3  0  0  0  0  0  0
  -21.1140   -6.2970   24.9300 C   0  0  0  0  0  3  0  0  0  0  0  0
  -21.4150   -4.9230   24.8990 C   0  0  0  0  0  0  0  0  0  0  0  0
  -21.8740   -4.3290   23.7100 C   0  0  0  0  0  3  0  0  0  0  0  0
  -22.0300   -5.1070   22.5500 C   0  0  0  0  0  0  0  0  0  0  0  0
  -22.4530   -4.5260   21.4020 F   0  0  0  0  0  0  0  0  0  0  0  0
  -21.2600   -4.1690   26.0120 F   0  0  0  0  0  0  0  0  0  0  0  0
  -23.2260  -13.7830   21.1340 C   0  0  0  0  0  0  0  0  0  0  0  0
  -22.5140  -13.1130   22.0330 N   0  0  0  0  0  0  0  0  0  0  0  0
  -22.8100  -14.8320   20.6460 O   0  0  0  0  0  0  0  0  0  0  0  0
  -22.8640  -12.2630   22.4510 H   0  0  0  0  0  0  0  0  0  0  0  0
  -21.6050  -13.4560   22.3100 H   0  0  0  0  0  0  0  0  0  0  0  0
  -25.8910  -15.3350   20.2110 N   0  0  0  0  0  0  0  0  0  0  0  0
  -25.1610  -16.0220   20.3610 H   0  0  0  0  0  0  0  0  0  0  0  0
  -26.7390  -15.7350   19.8280 H   0  0  0  0  0  0  0  0  0  0  0  0
  -28.6350  -24.7820   18.8220 C   0  0  0  0  0  2  0  0  0  0  0  0
  -29.6760  -24.3530   19.8390 C   0  0  0  0  0  3  0  0  0  0  0  0
  -28.4620  -25.1850   20.2630 C   0  0  0  0  0  3  0  0  0  0  0  0
  -28.6100  -26.6200   20.4230 O   0  0  0  0  0  0  0  0  0  0  0  0
  -24.6620  -31.8430   23.2870 C   0  0  0  0  0  0  0  0  0  0  0  0
  -27.4460  -27.3700   20.3430 C   0  0  0  0  0  0  0  0  0  0  0  0
  -23.5260  -30.4120   21.6230 C   0  0  0  0  0  3  0  0  0  0  0  0
  -25.0400  -28.8780   20.2580 C   0  0  0  0  0  0  0  0  0  0  0  0
  -26.0560  -30.7890   21.5040 C   0  0  0  0  0  2  0  0  0  0  0  0
  -26.1770  -29.4130   20.8770 C   0  0  0  0  0  0  0  0  0  0  0  0
  -27.3840  -28.6690   20.9100 C   0  0  0  0  0  3  0  0  0  0  0  0
  -26.2850  -26.8630   19.7110 C   0  0  0  0  0  3  0  0  0  0  0  0
  -25.0910  -27.6050   19.6710 C   0  0  0  0  0  3  0  0  0  0  0  0
  -23.7870  -29.7240   20.2580 C   0  0  0  0  0  2  0  0  0  0  0  0
  -24.7650  -31.0310   22.1960 N   0  0  0  0  0  0  0  0  0  0  0  0
  -23.5610  -32.1090   23.7880 O   0  0  0  0  0  0  0  0  0  0  0  0
  -22.8550  -29.3930   22.5720 C   0  0  0  0  0  0  0  0  0  0  0  0
  -21.5400  -29.1790   22.3910 N   0  0  0  0  0  0  0  0  0  0  0  0
  -23.5150  -28.7960   23.4270 O   0  0  0  0  0  0  0  0  0  0  0  0
  -21.0690  -29.7120   21.6740 H   0  0  0  0  0  0  0  0  0  0  0  0
  -18.1780  -27.9030   22.7490 C   0  0  0  0  0  0  0  0  0  0  0  0
  -20.7110  -28.2360   23.1420 C   0  0  0  0  0  3  0  0  0  0  0  0
  -20.8800  -26.7970   22.6060 C   0  0  0  0  0  2  0  0  0  0  0  0
  -19.8390  -26.4220   21.5450 C   0  0  0  0  0  2  0  0  0  0  0  0
  -18.4230  -26.5440   22.1160 C   0  0  0  0  0  2  0  0  0  0  0  0
  -19.2540  -28.7040   23.2170 C   0  0  0  0  0  0  0  0  0  0  0  0
  -18.9720  -29.9750   23.7650 C   0  0  0  0  0  3  0  0  0  0  0  0
  -17.6480  -30.4440   23.8530 C   0  0  0  0  0  3  0  0  0  0  0  0
  -16.5870  -29.6410   23.4030 C   0  0  0  0  0  3  0  0  0  0  0  0
  -16.8530  -28.3720   22.8570 C   0  0  0  0  0  3  0  0  0  0  0  0
  -25.9200  -32.4960   23.9400 C   0  0  0  0  0  3  0  0  0  0  0  0
  -25.5910  -33.8990   24.2280 N   0  0  0  0  0  0  0  0  0  0  0  0
  -25.9200  -34.9330   23.4430 C   0  0  0  0  0  0  0  0  0  0  0  0
  -26.6050  -34.8100   22.4240 O   0  0  0  0  0  0  0  0  0  0  0  0
  -24.9850  -34.0680   25.0170 H   0  0  0  0  0  0  0  0  0  0  0  0
  -24.1650  -36.6860   23.0270 C   0  0  0  0  0  1  0  0  0  0  0  0
  -25.4090  -36.3270   23.8560 C   0  0  0  0  0  3  0  0  0  0  0  0
  -27.5250  -37.2720   24.6700 C   0  0  0  0  0  1  0  0  0  0  0  0
  -26.4250  -37.3940   23.7170 N   0  0  0  0  0  0  0  0  0  0  0  0
  -26.0020  -38.3110   23.8390 H   0  0  0  0  0  0  0  0  0  0  0  0
  -26.3950  -31.7550   25.2500 C   0  0  1  0  0  0  0  0  0  0  0  0
  -25.2650  -31.5260   26.2800 C   0  0  0  0  0  1  0  0  0  0  0  0
  -27.0050  -30.3760   24.9050 C   0  0  0  0  0  1  0  0  0  0  0  0
  -27.5130  -32.5730   25.9380 C   0  0  0  0  0  1  0  0  0  0  0  0
  1  8  2  0
  1  2  1  0
  2  9  2  0
  3 10  1  0
  3  4  2  0
  4 11  1  0
  6 10  1  0
  6  7  1  0
  7 20  1  0
  7  5  1  0
  8  3  1  0
  9  4  1  0
 10  5  1  0
 12 20  1  0
 13 18  1  0
 14 15  1  0
 14 13  1  0
 16 15  1  0
 16 25  1  0
 16 17  1  0
 18 12  1  0
 18 17  1  0
 19 12  2  0
 20 21  1  0
 22 23  2  0
 23 42  1  0
 24 23  1  0
 24 27  1  0
 25 26  1  0
 25 22  1  0
 26 24  2  0
 27 28  1  0
 28 29  2  0
 30 33  1  0
 30 29  1  0
 31 30  2  0
 32 31  1  0
 32 27  2  0
 33 34  1  0
 34 35  1  0
 35 36  2  0
 37 36  1  0
 37 41  1  0
 38 37  2  0
 39 34  2  0
 39 38  1  0
 40 39  1  0
 42 43  1  0
 43 46  1  0
 43 45  1  0
 44 42  2  0
 47 48  1  0
 47 22  1  0
 49 47  1  0
 50 51  1  0
 50 52  1  0
 51  2  1  0
 51 52  1  0
 52 53  1  0
 54 65  2  0
 55 53  1  0
 55 60  1  0
 56 64  1  0
 56 66  1  0
 57 59  1  0
 58 64  1  0
 59 60  2  0
 59 58  1  0
 61 55  2  0
 62 61  1  0
 62 57  2  0
 63 57  1  0
 63 56  1  0
 64 54  1  0
 66 68  2  0
 67 66  1  0
 69 67  1  0
 70 79  2  0
 70 75  1  0
 71 67  1  0
 71 75  1  0
 72 71  1  0
 73 74  1  0
 73 72  1  0
 74 70  1  0
 75 76  2  0
 76 77  1  0
 78 77  2  0
 79 78  1  0
 80 54  1  0
 80 81  1  0
 80 90  1  0
 81 84  1  0
 82 86  1  0
 82 81  1  0
 83 82  2  0
 86 85  1  0
 88 89  1  0
 88 86  1  0
 88 87  1  0
 90 93  1  1
 90 91  1  0
 92 90  1  0
M  ISO  4  12 100  20 100  52 101  53 101
M  END
>  <TORSDO>  (22) 
F 17

>  <SCORE>  (22) 
-14.989

>  <name>  (22) 
21

>  <ligand_id>  (22) 
21

>  <original_smiles>  (22) 
[H]c1nc(N2C([H])([H])C([H])(N([H])C(=O)N3C([H])([H])C([H])([H])C([H])([H])C([H])(n4nc(-c5c([H])c([H])c(Oc6c([H])c([H])c(F)c([H])c6F)c([H])c5[H])c(C(=O)N([H])[H])c4N([H])[H])C3([H])[H])C2([H])[H])c(Cl)nc1C1([H])C([H])([H])C1([H])Oc1c([H])c([H])c2c(c1[H])C([H])([H])N(C(=O)C([H])(N([H])C(=O)C([H])(N([H])C([H])([H])[H])C([H])([H])[H])C(C([H])([H])[H])(C([H])([H])[H])C([H])([H])[H])C([H])(C(=O)N([H])C1([H])c3c([H])c([H])c([H])c([H])c3C([H])([H])C([H])([H])C1([H])[H])C2([H])[H]

>  <smiles>  (22) 
[H]c1nc(N2C([H])([H])C([H])(N([H])C(=O)N3C([H])([H])C([H])([H])C([H])([H])C([H])(n4nc(-c5c([H])c([H])c(Oc6c([H])c([H])c(F)c([H])c6F)c([H])c5[H])c(C(=O)N([H])[H])c4N([H])[H])C3([H])[H])C2([H])[H])c(Cl)nc1C1([H])C([H])([H])C1([H])Oc1c([H])c([H])c2c(c1[H])C([H])([H])N(C(=O)C([H])(N([H])C(=O)C([H])(N([H])C([H])([H])[H])C([H])([H])[H])C(C([H])([H])[H])(C([H])([H])[H])C([H])([H])[H])C([H])(C(=O)N([H])C1([H])c3c([H])c([H])c([H])c([H])c3C([H])([H])C([H])([H])C1([H])[H])C2([H])[H]

$$$$
22:0:0
     RDKit          3D

 95 95  0  0  1  0  0  0  0  0999 V2000
  -27.0510  -19.7290   18.9450 C   0  0  0  0  0  2  0  0  0  0  0  0
  -26.4480  -18.4790   19.6360 N   0  0  0  0  0  4  0  0  0  0  0  0
  -27.1030  -18.1460   20.3290 H   0  0  0  0  0  0  0  0  0  0  0  0
  -25.6050  -18.7530   20.1130 H   0  0  0  0  0  0  0  0  0  0  0  0
  -26.0930  -17.2420   18.7840 C   0  0  0  0  0  2  0  0  0  0  0  0
  -30.9830  -14.4930   19.7480 C   0  0  0  0  0  0  0  0  0  0  0  0
  -31.9220  -12.6510   18.4630 C   0  0  0  0  0  2  0  0  0  0  0  0
  -30.7730  -12.6680   17.4580 C   0  0  0  0  0  2  0  0  0  0  0  0
  -29.5430  -12.0900   18.0450 C   0  0  0  0  0  2  0  0  0  0  0  0
  -29.1850  -12.4180   19.5840 C   0  0  0  0  0  2  0  0  0  0  0  0
  -30.6440  -12.2500   20.3170 C   0  0  0  0  0  2  0  0  0  0  0  0
  -31.4430  -13.2380   19.6950 N   0  0  0  0  0  0  0  0  0  0  0  0
  -31.8450  -15.3100   19.3710 O   0  0  0  0  0  0  0  0  0  0  0  0
  -28.3360  -11.4200   21.3860 C   0  0  0  0  0 15  0  0  0  0  0  0
  -27.2550  -11.5960   18.9430 C   0  0  0  0  0 15  0  0  0  0  0  0
  -26.5960  -15.4150   22.2350 C   0  0  0  0  0 15  0  0  0  0  0  0
  -25.8480  -15.7340   19.4310 C   0  0  0  0  0  1  0  0  0  0  0  0
  -28.7120  -13.9460   21.8080 C   0  0  0  0  0 15  0  0  0  0  0  0
  -27.7920  -14.1680   18.6150 C   0  0  0  0  0 15  0  0  0  0  0  0
  -29.5200  -14.5570   19.9900 N   0  0  0  0  0  1  0  0  0  0  0  0
  -26.6670  -14.0310   20.6610 C   0  0  0  0  0  2  0  0  0  0  0  0
  -25.2460  -13.5680   20.7600 C   0  0  2  0  0  0  0  0  0  0  0  0
  -25.2840  -12.1800   20.6680 C   0  0  0  0  0  3  0  0  0  0  0  0
  -27.1600  -13.0710   20.5030 N   0  0  0  0  0  2  0  0  0  0  0  0
  -26.2360  -12.4190   21.3250 N   0  0  0  0  0  0  0  0  0  0  0  0
  -24.5850  -10.9010   20.8600 C   0  0  0  0  0  0  0  0  0  0  0  0
  -25.0200   -9.8690   21.7420 C   0  0  0  0  0  3  0  0  0  0  0  0
  -24.3130   -8.6580   21.8530 C   0  0  0  0  0  3  0  0  0  0  0  0
  -23.1260   -8.4950   21.1090 C   0  0  0  0  0  0  0  0  0  0  0  0
  -22.7140   -9.5040   20.2240 C   0  0  0  0  0  3  0  0  0  0  0  0
  -23.4500  -10.6870   20.0810 C   0  0  0  0  0  3  0  0  0  0  0  0
  -22.3290   -7.3820   21.1630 O   0  0  0  0  0  0  0  0  0  0  0  0
  -22.1030   -6.7110   22.3350 C   0  0  0  0  0  0  0  0  0  0  0  0
  -21.4810   -7.3180   23.4470 C   0  0  0  0  0  3  0  0  0  0  0  0
  -21.1920   -6.5540   24.5940 C   0  0  0  0  0  3  0  0  0  0  0  0
  -21.5200   -5.1820   24.6280 C   0  0  0  0  0  0  0  0  0  0  0  0
  -22.1410   -4.5800   23.5200 C   0  0  0  0  0  3  0  0  0  0  0  0
  -22.4270   -5.3410   22.3770 C   0  0  0  0  0  0  0  0  0  0  0  0
  -22.9990   -4.7520   21.3000 F   0  0  0  0  0  0  0  0  0  0  0  0
  -21.2360   -4.4450   25.7270 F   0  0  0  0  0  0  0  0  0  0  0  0
  -23.9300  -14.1680   21.2120 C   0  0  0  0  0  0  0  0  0  0  0  0
  -23.2650  -13.4880   22.1450 N   0  0  0  0  0  0  0  0  0  0  0  0
  -23.4690  -15.2120   20.7790 O   0  0  0  0  0  0  0  0  0  0  0  0
  -23.6500  -12.6350   22.5280 H   0  0  0  0  0  0  0  0  0  0  0  0
  -22.3940  -13.8500   22.5040 H   0  0  0  0  0  0  0  0  0  0  0  0
  -27.8880  -15.6840   20.7970 N   0  0  0  0  0  2  0  0  0  0  0  0
  -27.7470  -15.8360   21.7900 H   0  0  0  0  0  0  0  0  0  0  0  0
  -28.7940  -15.2410   20.6530 H   0  0  0  0  0  0  0  0  0  0  0  0
  -25.8250  -22.0190   18.8780 C   0  0  0  0  0  1  0  0  0  0  0  0
  -26.9250  -21.2280   19.6120 C   0  0  0  0  0  3  0  0  0  0  0  0
  -28.1590  -22.1270   19.6160 N   0  0  0  0  0  0  0  0  0  0  0  0
  -28.3850  -22.3990   18.6620 H   0  0  0  0  0  0  0  0  0  0  0  0
  -28.3550  -23.3320   20.5430 C   0  0  0  0  0  3  0  0  0  0  0  0
  -28.6540  -24.7530   19.8180 C   0  0  0  0  0  3  0  0  0  0  0  0
  -28.8770  -26.1510   20.4190 O   0  0  0  0  0  0  0  0  0  0  0  0
  -24.8110  -31.5070   23.2420 C   0  0  0  0  0  0  0  0  0  0  0  0
  -27.8730  -27.1360   20.2480 C   0  0  0  0  0  0  0  0  0  0  0  0
  -23.8430  -30.0830   21.4870 C   0  0  0  0  0  3  0  0  0  0  0  0
  -25.4920  -28.7180   20.1080 C   0  0  0  0  0  0  0  0  0  0  0  0
  -26.3750  -30.5430   21.5320 C   0  0  0  0  0  2  0  0  0  0  0  0
  -26.5840  -29.1930   20.8470 C   0  0  0  0  0  0  0  0  0  0  0  0
  -27.7830  -28.4040   20.9300 C   0  0  0  0  0  3  0  0  0  0  0  0
  -26.8080  -26.8440   19.3700 C   0  0  0  0  0  3  0  0  0  0  0  0
  -25.6140  -27.5580   19.3530 C   0  0  0  0  0  3  0  0  0  0  0  0
  -24.2060  -29.5110   20.0990 C   0  0  0  0  0  2  0  0  0  0  0  0
  -25.0250  -30.7300   22.1420 N   0  0  0  0  0  0  0  0  0  0  0  0
  -23.6700  -31.6890   23.6920 O   0  0  0  0  0  0  0  0  0  0  0  0
  -23.2000  -28.9710   22.3520 C   0  0  0  0  0  0  0  0  0  0  0  0
  -21.8930  -28.7240   22.1520 N   0  0  0  0  0  0  0  0  0  0  0  0
  -23.8740  -28.3430   23.1740 O   0  0  0  0  0  0  0  0  0  0  0  0
  -21.4070  -29.2870   21.4700 H   0  0  0  0  0  0  0  0  0  0  0  0
  -18.5460  -27.4020   22.5320 C   0  0  0  0  0  0  0  0  0  0  0  0
  -21.0940  -27.7100   22.8430 C   0  0  0  0  0  3  0  0  0  0  0  0
  -21.2390  -26.3290   22.1640 C   0  0  0  0  0  2  0  0  0  0  0  0
  -20.1540  -26.0500   21.1200 C   0  0  0  0  0  2  0  0  0  0  0  0
  -18.7650  -26.1120   21.7600 C   0  0  0  0  0  2  0  0  0  0  0  0
  -19.6400  -28.1600   23.0260 C   0  0  0  0  0  0  0  0  0  0  0  0
  -19.3830  -29.3700   23.7080 C   0  0  0  0  0  3  0  0  0  0  0  0
  -18.0640  -29.8220   23.8970 C   0  0  0  0  0  3  0  0  0  0  0  0
  -16.9840  -29.0590   23.4190 C   0  0  0  0  0  3  0  0  0  0  0  0
  -17.2260  -27.8500   22.7440 C   0  0  0  0  0  3  0  0  0  0  0  0
  -25.9890  -32.2200   23.9710 C   0  0  0  0  0  3  0  0  0  0  0  0
  -26.4500  -31.4720   25.2800 C   0  0  1  0  0  0  0  0  0  0  0  0
  -25.2930  -31.1580   26.2560 C   0  0  0  0  0  1  0  0  0  0  0  0
  -27.1500  -30.1360   24.9370 C   0  0  0  0  0  1  0  0  0  0  0  0
  -27.4890  -32.3350   26.0340 C   0  0  0  0  0  1  0  0  0  0  0  0
  -25.5470  -33.5870   24.2850 N   0  0  0  0  0  0  0  0  0  0  0  0
  -25.8610  -34.6730   23.5680 C   0  0  0  0  0  0  0  0  0  0  0  0
  -26.6230  -34.6370   22.5960 O   0  0  0  0  0  0  0  0  0  0  0  0
  -24.8810  -33.6830   25.0370 H   0  0  0  0  0  0  0  0  0  0  0  0
  -24.0390  -36.3380   23.0820 C   0  0  0  0  0  1  0  0  0  0  0  0
  -25.2320  -36.0140   23.9950 C   0  0  0  0  0  3  0  0  0  0  0  0
  -27.1920  -37.0540   25.0430 C   0  0  0  0  0  1  0  0  0  0  0  0
  -26.1870  -37.1420   23.9870 N   0  0  0  0  0  0  0  0  0  0  0  0
  -25.7000  -38.0280   24.0880 H   0  0  0  0  0  0  0  0  0  0  0  0
  1 50  1  0
  1  2  1  0
  2  4  1  0
  2  3  1  0
  5 17  1  0
  5  2  1  0
  6 20  1  0
  7 12  1  0
  8  9  1  0
  8  7  1  0
  9 10  1  0
 10 11  1  0
 12  6  1  0
 12 11  1  0
 13  6  2  0
 21 22  1  0
 22 41  1  1
 22 25  1  0
 23 22  1  0
 23 26  1  0
 23 25  1  0
 24 21  1  0
 25 24  1  0
 26 27  1  0
 27 28  2  0
 29 32  1  0
 29 28  1  0
 30 29  2  0
 31 30  1  0
 31 26  2  0
 32 33  1  0
 33 38  2  0
 33 34  1  0
 34 35  2  0
 35 36  1  0
 36 40  1  0
 37 36  2  0
 38 37  1  0
 39 38  1  0
 41 42  1  0
 42 45  1  0
 42 44  1  0
 43 41  2  0
 46 47  1  0
 48 46  1  0
 50 49  1  0
 50 51  1  0
 51 53  1  0
 52 51  1  0
 54 55  1  0
 54 53  2  0
 56 67  2  0
 57 55  1  0
 57 62  1  0
 58 66  1  0
 58 68  1  0
 59 61  1  0
 60 66  1  0
 61 62  2  0
 61 60  1  0
 63 57  2  0
 64 63  1  0
 64 59  2  0
 65 59  1  0
 65 58  1  0
 66 56  1  0
 68 70  2  0
 69 68  1  0
 71 69  1  0
 72 81  2  0
 72 77  1  0
 73 69  1  0
 73 77  1  0
 74 73  1  0
 75 76  1  0
 75 74  1  0
 76 72  1  0
 77 78  2  0
 78 79  1  0
 80 79  2  0
 81 80  1  0
 82 56  1  0
 82 87  1  0
 82 83  1  0
 83 86  1  1
 83 84  1  0
 85 83  1  0
 87 90  1  0
 88 92  1  0
 88 87  1  0
 89 88  2  0
 92 91  1  0
 94 92  1  0
 94 95  1  0
 94 93  1  0
M  ISO  4   6 100  20 100  54 101  55 101
M  END
>  <TORSDO>  (23) 
F 22

>  <SCORE>  (23) 
-5.722

>  <name>  (23) 
22

>  <ligand_id>  (23) 
22

>  <original_smiles>  (23) 
[H]c1c([H])c([H])c2c(c1[H])C([H])([H])C([H])([H])C([H])([H])C2([H])N([H])C(=O)C1([H])N(C(=O)C([H])(N([H])C(=O)C([H])(N([H])C([H])([H])[H])C([H])([H])[H])C(C([H])([H])[H])(C([H])([H])[H])C([H])([H])[H])C([H])([H])c2c([H])c(OC([H])([H])C([H])([H])N([H])C([H])(C([H])([H])[H])C([H])([H])[N+]([H])([H])C([H])([H])C3([H])C([H])([H])C4([H])N(C(=O)N5C([H])([H])C([H])([H])C([H])([H])C([H])(n6nc(-c7c([H])c([H])c(Oc8c([H])c([H])c(F)c([H])c8F)c([H])c7[H])c(C(=O)N([H])[H])c6N([H])[H])C5([H])[H])C3([H])C([H])([H])C4([H])[H])c([H])c([H])c2C1([H])[H]

>  <smiles>  (23) 
[H]c1c([H])c([H])c2c(c1[H])C([H])([H])C([H])([H])C([H])([H])C2([H])N([H])C(=O)C1([H])N(C(=O)C([H])(N([H])C(=O)C([H])(N([H])C([H])([H])[H])C([H])([H])[H])C(C([H])([H])[H])(C([H])([H])[H])C([H])([H])[H])C([H])([H])c2c([H])c(OC([H])([H])C([H])([H])N([H])C([H])(C([H])([H])[H])C([H])([H])[N+]([H])([H])C([H])([H])C3([H])C([H])([H])C4([H])N(C(=O)N5C([H])([H])C([H])([H])C([H])([H])C([H])(n6nc(-c7c([H])c([H])c(Oc8c([H])c([H])c(F)c([H])c8F)c([H])c7[H])c(C(=O)N([H])[H])c6N([H])[H])C5([H])[H])C3([H])C([H])([H])C4([H])[H])c([H])c([H])c2C1([H])[H]

$$$$
23:0:0
     RDKit          3D

 96105  0  0  1  0  0  0  0  0999 V2000
  -32.1500  -21.8980   20.2210 C   0  0  0  0  0  3  0  0  0  0  0  0
  -31.9930  -20.4990   20.1720 C   0  0  0  0  0  3  0  0  0  0  0  0
  -30.9830  -22.6760   20.0920 C   0  0  0  0  0  0  0  0  0  0  0  0
  -30.6990  -19.9590   19.9800 C   0  0  0  0  0  0  0  0  0  0  0  0
  -31.3510  -17.5550   20.0500 C   0  0  0  0  0  2  0  0  0  0  0  0
  -29.3040  -17.9240   20.2620 C   0  0  0  0  0  2  0  0  0  0  0  0
  -30.0960  -16.6830   19.8380 C   0  0  0  0  0  3  0  0  0  0  0  0
  -29.7550  -22.1160   20.0240 N   0  0  0  0  0  0  0  0  0  0  0  0
  -29.6240  -20.7870   19.9590 N   0  0  0  0  0  0  0  0  0  0  0  0
  -30.4350  -18.6110   19.6460 N   0  0  0  0  0  0  0  0  0  0  0  0
  -30.6980  -14.4350   20.4600 C   0  0  0  0  0  0  0  0  0  0  0  0
  -30.3550  -12.2720   19.3710 C   0  0  0  0  0  2  0  0  0  0  0  0
  -29.4420  -12.5070   18.1490 C   0  0  0  0  0  2  0  0  0  0  0  0
  -27.9630  -12.3950   18.5630 C   0  0  0  0  0  2  0  0  0  0  0  0
  -27.6200  -13.2490   19.8130 C   0  0  0  0  0  3  0  0  0  0  0  0
  -28.6590  -13.0360   20.9400 C   0  0  0  0  0  2  0  0  0  0  0  0
  -30.0020  -13.2750   20.3870 N   0  0  0  0  0  0  0  0  0  0  0  0
  -31.8520  -14.5680   20.0450 O   0  0  0  0  0  0  0  0  0  0  0  0
  -29.9510  -15.5150   20.7050 N   0  0  0  0  0  0  0  0  0  0  0  0
  -29.0300  -15.3390   21.0830 H   0  0  0  0  0  0  0  0  0  0  0  0
  -25.2130  -13.8820   20.4690 C   0  0  0  0  0  0  0  0  0  0  0  0
  -24.1350  -13.1210   20.8300 C   0  0  0  0  0  0  0  0  0  0  0  0
  -24.5890  -11.7660   20.8240 C   0  0  0  0  0  0  0  0  0  0  0  0
  -26.2590  -12.9900   20.2720 N   0  0  0  0  0  0  0  0  0  0  0  0
  -25.8840  -11.7130   20.5400 N   0  0  0  0  0  0  0  0  0  0  0  0
  -23.8490  -10.5130   21.0220 C   0  0  0  0  0  0  0  0  0  0  0  0
  -24.2640   -9.5530   21.9710 C   0  0  0  0  0  3  0  0  0  0  0  0
  -23.5300   -8.3600   22.1490 C   0  0  0  0  0  3  0  0  0  0  0  0
  -22.3680   -8.1190   21.3780 C   0  0  0  0  0  0  0  0  0  0  0  0
  -21.9730   -9.0680   20.4200 C   0  0  0  0  0  3  0  0  0  0  0  0
  -22.7060  -10.2510   20.2390 C   0  0  0  0  0  3  0  0  0  0  0  0
  -21.6070   -6.9800   21.4680 O   0  0  0  0  0  0  0  0  0  0  0  0
  -21.5440   -6.2460   22.6260 C   0  0  0  0  0  0  0  0  0  0  0  0
  -21.1140   -6.8140   23.8440 C   0  0  0  0  0  3  0  0  0  0  0  0
  -20.9960   -6.0070   24.9930 C   0  0  0  0  0  3  0  0  0  0  0  0
  -21.2980   -4.6340   24.9270 C   0  0  0  0  0  0  0  0  0  0  0  0
  -21.7230   -4.0670   23.7130 C   0  0  0  0  0  3  0  0  0  0  0  0
  -21.8460   -4.8710   22.5650 C   0  0  0  0  0  0  0  0  0  0  0  0
  -22.2340   -4.3140   21.3940 F   0  0  0  0  0  0  0  0  0  0  0  0
  -21.1820   -3.8560   26.0300 F   0  0  0  0  0  0  0  0  0  0  0  0
  -22.7360  -13.6110   21.0730 C   0  0  0  0  0  0  0  0  0  0  0  0
  -21.9910  -12.9290   21.9360 N   0  0  0  0  0  0  0  0  0  0  0  0
  -22.3120  -14.6320   20.5370 O   0  0  0  0  0  0  0  0  0  0  0  0
  -22.3430  -12.1020   22.3930 H   0  0  0  0  0  0  0  0  0  0  0  0
  -21.0540  -13.2420   22.1490 H   0  0  0  0  0  0  0  0  0  0  0  0
  -25.3870  -15.2480   20.2760 N   0  0  0  0  0  0  0  0  0  0  0  0
  -24.6090  -15.8950   20.3630 H   0  0  0  0  0  0  0  0  0  0  0  0
  -26.2300  -15.6820   19.9230 H   0  0  0  0  0  0  0  0  0  0  0  0
  -31.0260  -24.1870   19.9740 C   0  0  0  0  0  2  0  0  0  0  0  0
  -31.4220  -24.8850   21.2840 C   0  0  0  0  0  2  0  0  0  0  0  0
  -31.2030  -26.3490   21.2240 N   0  0  0  0  0  4  0  0  0  0  0  0
  -31.2400  -26.6610   20.2680 H   0  0  0  0  0  0  0  0  0  0  0  0
  -31.9850  -26.7760   21.6970 H   0  0  0  0  0  0  0  0  0  0  0  0
  -29.9800  -26.8690   21.8940 C   0  0  0  0  0  2  0  0  0  0  0  0
  -28.6540  -26.2440   21.4110 C   0  0  0  0  0  2  0  0  0  0  0  0
  -28.2980  -26.7170   20.1060 O   0  0  0  0  0  0  0  0  0  0  0  0
  -24.5410  -31.8730   23.2180 C   0  0  0  0  0  0  0  0  0  0  0  0
  -27.1510  -27.4680   20.1020 C   0  0  0  0  0  0  0  0  0  0  0  0
  -23.3140  -30.4740   21.5900 C   0  0  0  0  0  3  0  0  0  0  0  0
  -24.7500  -28.9450   20.1360 C   0  0  0  0  0  0  0  0  0  0  0  0
  -25.8340  -30.8400   21.3620 C   0  0  0  0  0  2  0  0  0  0  0  0
  -25.9080  -29.4750   20.7190 C   0  0  0  0  0  0  0  0  0  0  0  0
  -27.1120  -28.7440   20.7000 C   0  0  0  0  0  3  0  0  0  0  0  0
  -25.9830  -26.9430   19.5120 C   0  0  0  0  0  3  0  0  0  0  0  0
  -24.7790  -27.6740   19.5320 C   0  0  0  0  0  3  0  0  0  0  0  0
  -23.5000  -29.7910   20.2060 C   0  0  0  0  0  2  0  0  0  0  0  0
  -24.5820  -31.0780   22.1140 N   0  0  0  0  0  0  0  0  0  0  0  0
  -23.4660  -32.1480   23.7700 O   0  0  0  0  0  0  0  0  0  0  0  0
  -22.6710  -29.4540   22.5560 C   0  0  0  0  0  0  0  0  0  0  0  0
  -21.3450  -29.2780   22.4390 N   0  0  0  0  0  0  0  0  0  0  0  0
  -23.3620  -28.8240   23.3620 O   0  0  0  0  0  0  0  0  0  0  0  0
  -20.8540  -29.8360   21.7530 H   0  0  0  0  0  0  0  0  0  0  0  0
  -17.9700  -28.0960   22.9570 C   0  0  0  0  0  0  0  0  0  0  0  0
  -20.5300  -28.3420   23.2140 C   0  0  0  0  0  3  0  0  0  0  0  0
  -20.6250  -26.9110   22.6350 C   0  0  0  0  0  2  0  0  0  0  0  0
  -19.5150  -26.5940   21.6290 C   0  0  0  0  0  2  0  0  0  0  0  0
  -18.1380  -26.7440   22.2800 C   0  0  0  0  0  2  0  0  0  0  0  0
  -19.0950  -28.8520   23.3800 C   0  0  0  0  0  0  0  0  0  0  0  0
  -18.8830  -30.1180   23.9710 C   0  0  0  0  0  3  0  0  0  0  0  0
  -17.5820  -30.6230   24.1420 C   0  0  0  0  0  3  0  0  0  0  0  0
  -16.4720  -29.8650   23.7350 C   0  0  0  0  0  3  0  0  0  0  0  0
  -16.6670  -28.6010   23.1470 C   0  0  0  0  0  3  0  0  0  0  0  0
  -25.8360  -32.4970   23.8240 C   0  0  0  0  0  3  0  0  0  0  0  0
  -25.5330  -33.8930   24.1590 N   0  0  0  0  0  0  0  0  0  0  0  0
  -25.8780  -34.9490   23.4070 C   0  0  0  0  0  0  0  0  0  0  0  0
  -26.5520  -34.8490   22.3780 O   0  0  0  0  0  0  0  0  0  0  0  0
  -24.9260  -34.0480   24.9520 H   0  0  0  0  0  0  0  0  0  0  0  0
  -24.1730  -36.7660   23.0410 C   0  0  0  0  0  1  0  0  0  0  0  0
  -25.3980  -36.3390   23.8660 C   0  0  0  0  0  3  0  0  0  0  0  0
  -27.5310  -37.1990   24.7270 C   0  0  0  0  0  1  0  0  0  0  0  0
  -26.4410  -37.3820   23.7730 N   0  0  0  0  0  0  0  0  0  0  0  0
  -26.0420  -38.3030   23.9180 H   0  0  0  0  0  0  0  0  0  0  0  0
  -26.3680  -31.7140   25.0890 C   0  0  1  0  0  0  0  0  0  0  0  0
  -25.2940  -31.4820   26.1740 C   0  0  0  0  0  1  0  0  0  0  0  0
  -26.9330  -30.3320   24.6870 C   0  0  0  0  0  1  0  0  0  0  0  0
  -27.5410  -32.4950   25.7290 C   0  0  0  0  0  1  0  0  0  0  0  0
  2  1  1  0
  3  1  2  0
  4  2  2  0
  7  5  1  0
  7  6  1  0
  7 19  1  0
  8  3  1  0
  9  4  1  0
  9  8  2  0
 10  4  1  0
 10  5  1  0
 10  6  1  0
 11 19  1  0
 12 17  1  0
 13 14  1  0
 13 12  1  0
 15 14  1  0
 15 24  1  0
 15 16  1  0
 17 11  1  0
 17 16  1  0
 18 11  2  0
 19 20  1  0
 21 22  2  0
 22 41  1  0
 23 22  1  0
 23 26  1  0
 24 21  1  0
 24 25  1  0
 25 23  2  0
 26 27  1  0
 27 28  2  0
 29 32  1  0
 29 28  1  0
 30 29  2  0
 31 30  1  0
 31 26  2  0
 32 33  1  0
 33 34  1  0
 34 35  2  0
 36 35  1  0
 36 40  1  0
 37 36  2  0
 38 33  2  0
 38 37  1  0
 39 38  1  0
 41 42  1  0
 42 45  1  0
 42 44  1  0
 43 41  2  0
 46 47  1  0
 46 21  1  0
 48 46  1  0
 49  3  1  0
 49 50  1  0
 51 50  1  0
 51 53  1  0
 51 54  1  0
 52 51  1  0
 55 54  1  0
 56 55  1  0
 57 68  2  0
 58 56  1  0
 58 63  1  0
 59 67  1  0
 59 69  1  0
 60 66  1  0
 60 62  1  0
 61 67  1  0
 62 61  1  0
 63 62  2  0
 64 65  1  0
 64 58  2  0
 65 60  2  0
 66 59  1  0
 67 57  1  0
 69 71  2  0
 70 69  1  0
 72 70  1  0
 73 82  2  0
 73 78  1  0
 74 70  1  0
 74 78  1  0
 75 74  1  0
 76 77  1  0
 76 75  1  0
 77 73  1  0
 78 79  2  0
 79 80  1  0
 81 80  2  0
 82 81  1  0
 83 57  1  0
 83 84  1  0
 83 93  1  0
 84 87  1  0
 85 89  1  0
 85 84  1  0
 86 85  2  0
 89 88  1  0
 91 89  1  0
 91 92  1  0
 91 90  1  0
 93 96  1  1
 93 94  1  0
 95 93  1  0
M  ISO  4  11 100  19 100  55 101  56 101
M  END
>  <TORSDO>  (24) 
F 21

>  <SCORE>  (24) 
-13.348

>  <name>  (24) 
23

>  <ligand_id>  (24) 
23

>  <original_smiles>  (24) 
[H]c1c(N2C([H])([H])C([H])(N([H])C(=O)N3C([H])([H])C([H])([H])C([H])([H])C([H])(n4nc(-c5c([H])c([H])c(Oc6c([H])c([H])c(F)c([H])c6F)c([H])c5[H])c(C(=O)N([H])[H])c4N([H])[H])C3([H])[H])C2([H])[H])nnc(C([H])([H])C([H])([H])[N+]([H])([H])C([H])([H])C([H])([H])Oc2c([H])c([H])c3c(c2[H])C([H])([H])N(C(=O)C([H])(N([H])C(=O)C([H])(N([H])C([H])([H])[H])C([H])([H])[H])C(C([H])([H])[H])(C([H])([H])[H])C([H])([H])[H])C([H])(C(=O)N([H])C2([H])c4c([H])c([H])c([H])c([H])c4C([H])([H])C([H])([H])C2([H])[H])C3([H])[H])c1[H]

>  <smiles>  (24) 
[H]c1c(N2C([H])([H])C([H])(N([H])C(=O)N3C([H])([H])C([H])([H])C([H])([H])C([H])(n4nc(-c5c([H])c([H])c(Oc6c([H])c([H])c(F)c([H])c6F)c([H])c5[H])c(C(=O)N([H])[H])c4N([H])[H])C3([H])[H])C2([H])[H])nnc(C([H])([H])C([H])([H])[N+]([H])([H])C([H])([H])C([H])([H])Oc2c([H])c([H])c3c(c2[H])C([H])([H])N(C(=O)C([H])(N([H])C(=O)C([H])(N([H])C([H])([H])[H])C([H])([H])[H])C(C([H])([H])[H])(C([H])([H])[H])C([H])([H])[H])C([H])(C(=O)N([H])C2([H])c4c([H])c([H])c([H])c([H])c4C([H])([H])C([H])([H])C2([H])[H])C3([H])[H])c1[H]

$$$$
24:0:0
     RDKit          3D

 96106  0  0  1  0  0  0  0  0999 V2000
  -30.9310  -21.2340   19.3770 C   0  0  0  0  0  2  0  0  0  0  0  0
  -29.8250  -24.6720   18.3720 C   0  0  0  0  0  2  0  0  0  0  0  0
  -30.4940  -23.3170   18.0750 C   0  0  0  0  0  2  0  0  0  0  0  0
  -29.8830  -23.2980   20.3560 C   0  0  0  0  0  2  0  0  0  0  0  0
  -29.7000  -24.7520   19.9030 C   0  0  0  0  0  3  0  0  0  0  0  0
  -30.8320  -22.7170   19.3830 N   0  0  1  0  0  4  0  0  0  0  0  0
  -31.7460  -23.0750   19.6170 H   0  0  0  0  0  0  0  0  0  0  0  0
  -28.3910  -25.3920   20.4010 C   0  0  0  0  0  2  0  0  0  0  0  0
  -28.4210  -26.7980   20.1510 O   0  0  0  0  0  0  0  0  0  0  0  0
  -24.5640  -31.9150   23.2530 C   0  0  0  0  0  0  0  0  0  0  0  0
  -27.2240  -27.4770   20.1860 C   0  0  0  0  0  0  0  0  0  0  0  0
  -23.3640  -30.5100   21.6080 C   0  0  0  0  0  3  0  0  0  0  0  0
  -24.8220  -28.9670   20.1990 C   0  0  0  0  0  0  0  0  0  0  0  0
  -25.8910  -30.8700   21.4220 C   0  0  0  0  0  2  0  0  0  0  0  0
  -25.9780  -29.4980   20.7860 C   0  0  0  0  0  0  0  0  0  0  0  0
  -27.1810  -28.7610   20.7730 C   0  0  0  0  0  3  0  0  0  0  0  0
  -26.0480  -26.9560   19.5970 C   0  0  0  0  0  3  0  0  0  0  0  0
  -24.8520  -27.6960   19.6040 C   0  0  0  0  0  3  0  0  0  0  0  0
  -23.5790  -29.8270   20.2330 C   0  0  0  0  0  2  0  0  0  0  0  0
  -24.6250  -31.1140   22.1510 N   0  0  0  0  0  0  0  0  0  0  0  0
  -23.4810  -32.1870   23.7890 O   0  0  0  0  0  0  0  0  0  0  0  0
  -22.7110  -29.4900   22.5680 C   0  0  0  0  0  0  0  0  0  0  0  0
  -21.3890  -29.3020   22.4290 N   0  0  0  0  0  0  0  0  0  0  0  0
  -23.3920  -28.8690   23.3890 O   0  0  0  0  0  0  0  0  0  0  0  0
  -20.9020  -29.8580   21.7400 H   0  0  0  0  0  0  0  0  0  0  0  0
  -18.0140  -28.0980   22.8970 C   0  0  0  0  0  0  0  0  0  0  0  0
  -20.5680  -28.3640   23.1960 C   0  0  0  0  0  3  0  0  0  0  0  0
  -20.6790  -26.9310   22.6280 C   0  0  0  0  0  2  0  0  0  0  0  0
  -19.5900  -26.6000   21.6040 C   0  0  0  0  0  2  0  0  0  0  0  0
  -18.2010  -26.7460   22.2320 C   0  0  0  0  0  2  0  0  0  0  0  0
  -19.1270  -28.8650   23.3360 C   0  0  0  0  0  0  0  0  0  0  0  0
  -18.9000  -30.1320   23.9160 C   0  0  0  0  0  3  0  0  0  0  0  0
  -17.5930  -30.6320   24.0660 C   0  0  0  0  0  3  0  0  0  0  0  0
  -16.4940  -29.8620   23.6460 C   0  0  0  0  0  3  0  0  0  0  0  0
  -16.7060  -28.5980   23.0650 C   0  0  0  0  0  3  0  0  0  0  0  0
  -25.8480  -32.5460   23.8750 C   0  0  0  0  0  3  0  0  0  0  0  0
  -26.3610  -31.7780   25.1560 C   0  0  1  0  0  0  0  0  0  0  0  0
  -25.2650  -31.5450   26.2210 C   0  0  0  0  0  1  0  0  0  0  0  0
  -26.9460  -30.4010   24.7660 C   0  0  0  0  0  1  0  0  0  0  0  0
  -27.5100  -32.5760   25.8190 C   0  0  0  0  0  1  0  0  0  0  0  0
  -25.5410  -33.9460   24.1980 N   0  0  0  0  0  0  0  0  0  0  0  0
  -25.8790  -34.9940   23.4350 C   0  0  0  0  0  0  0  0  0  0  0  0
  -26.5540  -34.8850   22.4080 O   0  0  0  0  0  0  0  0  0  0  0  0
  -24.9450  -34.1050   24.9970 H   0  0  0  0  0  0  0  0  0  0  0  0
  -24.1540  -36.7850   23.0610 C   0  0  0  0  0  1  0  0  0  0  0  0
  -25.3900  -36.3840   23.8840 C   0  0  0  0  0  3  0  0  0  0  0  0
  -27.5190  -37.2710   24.7240 C   0  0  0  0  0  1  0  0  0  0  0  0
  -26.4240  -37.4350   23.7730 N   0  0  0  0  0  0  0  0  0  0  0  0
  -26.0180  -38.3570   23.9130 H   0  0  0  0  0  0  0  0  0  0  0  0
  -33.2000  -21.0410   20.7240 C   0  0  0  0  0  2  0  0  0  0  0  0
  -33.4030  -19.6800   21.3940 C   0  0  0  0  0  2  0  0  0  0  0  0
  -31.7010  -20.7030   20.5960 C   0  0  0  0  0  3  0  0  0  0  0  0
  -32.1350  -19.2150   20.6610 C   0  0  0  0  0  3  0  0  0  0  0  0
  -30.1920  -17.6380   20.7280 C   0  0  0  0  0  2  0  0  0  0  0  0
  -31.8130  -17.0060   21.8130 C   0  0  0  0  0  2  0  0  0  0  0  0
  -30.3590  -16.5340   21.7680 C   0  0  0  0  0  3  0  0  0  0  0  0
  -31.2600  -18.3260   21.4680 N   0  0  1  0  0  4  0  0  0  0  0  0
  -30.8910  -18.7710   22.2960 H   0  0  0  0  0  0  0  0  0  0  0  0
  -30.5500  -14.4050   20.3520 C   0  0  0  0  0  0  0  0  0  0  0  0
  -30.1820  -12.3790   18.9940 C   0  0  0  0  0  2  0  0  0  0  0  0
  -29.1820  -12.6690   17.8570 C   0  0  0  0  0  2  0  0  0  0  0  0
  -27.7280  -12.5030   18.3390 C   0  0  0  0  0  2  0  0  0  0  0  0
  -27.4530  -13.2530   19.6680 C   0  0  0  0  0  3  0  0  0  0  0  0
  -28.5460  -12.9200   20.7080 C   0  0  0  0  0  2  0  0  0  0  0  0
  -29.8590  -13.2590   20.1240 N   0  0  0  0  0  0  0  0  0  0  0  0
  -31.5410  -14.7430   19.6990 O   0  0  0  0  0  0  0  0  0  0  0  0
  -30.0440  -15.1630   21.3360 N   0  0  0  0  0  0  0  0  0  0  0  0
  -29.2570  -14.7350   21.8030 H   0  0  0  0  0  0  0  0  0  0  0  0
  -25.0610  -13.8240   20.4400 C   0  0  0  0  0  0  0  0  0  0  0  0
  -24.0180  -13.0320   20.8400 C   0  0  0  0  0  0  0  0  0  0  0  0
  -24.5010  -11.6880   20.7930 C   0  0  0  0  0  0  0  0  0  0  0  0
  -26.1150  -12.9600   20.1800 N   0  0  0  0  0  0  0  0  0  0  0  0
  -25.7810  -11.6710   20.4440 N   0  0  0  0  0  0  0  0  0  0  0  0
  -23.8040  -10.4130   21.0030 C   0  0  0  0  0  0  0  0  0  0  0  0
  -24.2800   -9.4530   21.9230 C   0  0  0  0  0  3  0  0  0  0  0  0
  -23.5810   -8.2420   22.1190 C   0  0  0  0  0  3  0  0  0  0  0  0
  -22.3940   -7.9820   21.3940 C   0  0  0  0  0  0  0  0  0  0  0  0
  -21.9380   -8.9310   20.4610 C   0  0  0  0  0  3  0  0  0  0  0  0
  -22.6380  -10.1340   20.2630 C   0  0  0  0  0  3  0  0  0  0  0  0
  -21.6640   -6.8220   21.4990 O   0  0  0  0  0  0  0  0  0  0  0  0
  -21.6660   -6.0740   22.6490 C   0  0  0  0  0  0  0  0  0  0  0  0
  -21.2740   -6.6170   23.8920 C   0  0  0  0  0  3  0  0  0  0  0  0
  -21.2230   -5.7940   25.0360 C   0  0  0  0  0  3  0  0  0  0  0  0
  -21.5550   -4.4300   24.9360 C   0  0  0  0  0  0  0  0  0  0  0  0
  -21.9390   -3.8860   23.6980 C   0  0  0  0  0  3  0  0  0  0  0  0
  -21.9920   -4.7060   22.5580 C   0  0  0  0  0  0  0  0  0  0  0  0
  -22.3440   -4.1730   21.3620 F   0  0  0  0  0  0  0  0  0  0  0  0
  -21.4990   -3.6380   26.0330 F   0  0  0  0  0  0  0  0  0  0  0  0
  -22.6210  -13.4840   21.1580 C   0  0  0  0  0  0  0  0  0  0  0  0
  -21.9330  -12.7710   22.0420 N   0  0  0  0  0  0  0  0  0  0  0  0
  -22.1470  -14.5030   20.6570 O   0  0  0  0  0  0  0  0  0  0  0  0
  -22.3280  -11.9460   22.4680 H   0  0  0  0  0  0  0  0  0  0  0  0
  -20.9960  -13.0540   22.2980 H   0  0  0  0  0  0  0  0  0  0  0  0
  -25.1970  -15.1960   20.2600 N   0  0  0  0  0  0  0  0  0  0  0  0
  -24.4200  -15.8390   20.3890 H   0  0  0  0  0  0  0  0  0  0  0  0
  -26.0320  -15.6490   19.9110 H   0  0  0  0  0  0  0  0  0  0  0  0
  1  6  1  0
  2  5  1  0
  3  2  1  0
  3  6  1  0
  5  4  1  0
  5  8  1  0
  6  7  1  1
  6  4  1  0
  9 11  1  0
  9  8  1  0
 10 21  2  0
 11 16  1  0
 12 20  1  0
 12 22  1  0
 13 19  1  0
 13 15  1  0
 14 20  1  0
 15 14  1  0
 16 15  2  0
 17 18  1  0
 17 11  2  0
 18 13  2  0
 19 12  1  0
 20 10  1  0
 22 24  2  0
 23 22  1  0
 25 23  1  0
 26 35  2  0
 26 31  1  0
 27 23  1  0
 27 31  1  0
 28 27  1  0
 29 30  1  0
 29 28  1  0
 30 26  1  0
 31 32  2  0
 32 33  1  0
 34 33  2  0
 35 34  1  0
 36 10  1  0
 36 41  1  0
 36 37  1  0
 37 40  1  1
 37 38  1  0
 39 37  1  0
 41 44  1  0
 42 46  1  0
 42 41  1  0
 43 42  2  0
 46 45  1  0
 48 46  1  0
 48 49  1  0
 48 47  1  0
 50 51  1  0
 52  1  1  0
 52 53  1  0
 52 50  1  0
 53 51  1  0
 53 57  1  0
 54 57  1  0
 54 56  1  0
 56 67  1  0
 56 55  1  0
 57 55  1  0
 57 58  1  1
 59 67  1  0
 60 65  1  0
 61 62  1  0
 61 60  1  0
 63 62  1  0
 63 72  1  0
 63 64  1  0
 65 59  1  0
 65 64  1  0
 66 59  2  0
 67 68  1  0
 69 70  2  0
 70 89  1  0
 71 70  1  0
 71 74  1  0
 72 69  1  0
 72 73  1  0
 73 71  2  0
 74 75  1  0
 75 76  2  0
 77 80  1  0
 77 76  1  0
 78 77  2  0
 79 78  1  0
 79 74  2  0
 80 81  1  0
 81 82  1  0
 82 83  2  0
 84 83  1  0
 84 88  1  0
 85 84  2  0
 86 81  2  0
 86 85  1  0
 87 86  1  0
 89 90  1  0
 90 93  1  0
 90 92  1  0
 91 89  2  0
 94 95  1  0
 94 69  1  0
 96 94  1  0
M  ISO  4   8 101   9 101  59 100  67 100
M  END
>  <TORSDO>  (25) 
F 20

>  <SCORE>  (25) 
-13.403

>  <name>  (25) 
24

>  <ligand_id>  (25) 
24

>  <original_smiles>  (25) 
[H]c1c([H])c([H])c2c(c1[H])C([H])([H])C([H])([H])C([H])([H])C2([H])N([H])C(=O)C1([H])N(C(=O)C([H])(N([H])C(=O)C([H])(N([H])C([H])([H])[H])C([H])([H])[H])C(C([H])([H])[H])(C([H])([H])[H])C([H])([H])[H])C([H])([H])c2c([H])c(OC([H])([H])C3([H])C([H])([H])C([H])([H])[N+]([H])(C([H])([H])C4([H])C([H])([H])C([H])([H])C4([H])[N+]4([H])C([H])([H])C([H])(N([H])C(=O)N5C([H])([H])C([H])([H])C([H])([H])C([H])(n6nc(-c7c([H])c([H])c(Oc8c([H])c([H])c(F)c([H])c8F)c([H])c7[H])c(C(=O)N([H])[H])c6N([H])[H])C5([H])[H])C4([H])[H])C3([H])[H])c([H])c([H])c2C1([H])[H]

>  <smiles>  (25) 
[H]c1c([H])c([H])c2c(c1[H])C([H])([H])C([H])([H])C([H])([H])C2([H])N([H])C(=O)C1([H])N(C(=O)C([H])(N([H])C(=O)C([H])(N([H])C([H])([H])[H])C([H])([H])[H])C(C([H])([H])[H])(C([H])([H])[H])C([H])([H])[H])C([H])([H])c2c([H])c(OC([H])([H])C3([H])C([H])([H])C([H])([H])[N+]([H])(C([H])([H])C4([H])C([H])([H])C([H])([H])C4([H])[N+]4([H])C([H])([H])C([H])(N([H])C(=O)N5C([H])([H])C([H])([H])C([H])([H])C([H])(n6nc(-c7c([H])c([H])c(Oc8c([H])c([H])c(F)c([H])c8F)c([H])c7[H])c(C(=O)N([H])[H])c6N([H])[H])C5([H])[H])C4([H])[H])C3([H])[H])c([H])c([H])c2C1([H])[H]

$$$$
25:0:0
     RDKit          3D

 89 98  0  0  1  0  0  0  0  0999 V2000
  -31.0500  -22.2360   20.2570 C   0  0  0  0  0  3  0  0  0  0  0  0
  -28.5090  -21.5970   20.2140 C   0  0  0  0  0  0  0  0  0  0  0  0
  -29.5120  -20.4740   20.2720 C   0  0  0  0  0  0  0  0  0  0  0  0
  -28.8800  -23.0640   20.1800 C   0  0  0  0  0  0  0  0  0  0  0  0
  -30.7890  -20.9180   20.2800 N   0  0  0  0  0  0  0  0  0  0  0  0
  -30.2130  -23.2850   20.2080 N   0  0  0  0  0  0  0  0  0  0  0  0
  -26.8340  -21.1850   20.1830 Cl  0  0  0  0  0  0  0  0  0  0  0  0
  -30.5470  -15.1960   20.1620 C   0  0  0  0  0  0  0  0  0  0  0  0
  -30.4340  -12.8030   19.2370 C   0  0  0  0  0  2  0  0  0  0  0  0
  -29.4870  -12.6830   18.0200 C   0  0  0  0  0  2  0  0  0  0  0  0
  -28.0410  -12.4320   18.4840 C   0  0  0  0  0  2  0  0  0  0  0  0
  -27.6300  -13.3630   19.6540 C   0  0  0  0  0  3  0  0  0  0  0  0
  -28.7040  -13.4670   20.7560 C   0  0  0  0  0  2  0  0  0  0  0  0
  -29.9390  -13.9250   20.1050 N   0  0  0  0  0  0  0  0  0  0  0  0
  -31.7530  -15.2010   19.8880 O   0  0  0  0  0  0  0  0  0  0  0  0
  -29.7340  -17.6040   19.2710 C   0  0  0  0  0  2  0  0  0  0  0  0
  -30.1830  -17.6640   21.1960 C   0  0  0  0  0  2  0  0  0  0  0  0
  -29.3810  -18.7630   20.3300 C   0  0  0  0  0  3  0  0  0  0  0  0
  -29.8220  -16.4600   20.3020 N   0  0  0  0  0  0  0  0  0  0  0  0
  -25.2700  -13.9010   20.4660 C   0  0  0  0  0  0  0  0  0  0  0  0
  -24.2210  -13.1130   20.8470 C   0  0  0  0  0  0  0  0  0  0  0  0
  -24.6930  -11.7650   20.7880 C   0  0  0  0  0  0  0  0  0  0  0  0
  -26.3130  -13.0350   20.1870 N   0  0  0  0  0  0  0  0  0  0  0  0
  -25.9790  -11.7450   20.4500 N   0  0  0  0  0  0  0  0  0  0  0  0
  -23.9770  -10.4960   20.9790 C   0  0  0  0  0  0  0  0  0  0  0  0
  -24.4120   -9.5340   21.9170 C   0  0  0  0  0  3  0  0  0  0  0  0
  -23.6930   -8.3330   22.0970 C   0  0  0  0  0  3  0  0  0  0  0  0
  -22.5250   -8.0840   21.3370 C   0  0  0  0  0  0  0  0  0  0  0  0
  -22.1090   -9.0350   20.3890 C   0  0  0  0  0  3  0  0  0  0  0  0
  -22.8290  -10.2270   20.2070 C   0  0  0  0  0  3  0  0  0  0  0  0
  -21.7800   -6.9330   21.4260 O   0  0  0  0  0  0  0  0  0  0  0  0
  -21.7070   -6.2070   22.5870 C   0  0  0  0  0  0  0  0  0  0  0  0
  -21.2280   -6.7720   23.7890 C   0  0  0  0  0  3  0  0  0  0  0  0
  -21.1050   -5.9740   24.9430 C   0  0  0  0  0  3  0  0  0  0  0  0
  -21.4490   -4.6090   24.8950 C   0  0  0  0  0  0  0  0  0  0  0  0
  -21.9200   -4.0430   23.6980 C   0  0  0  0  0  3  0  0  0  0  0  0
  -22.0460   -4.8400   22.5470 C   0  0  0  0  0  0  0  0  0  0  0  0
  -22.4810   -4.2830   21.3900 F   0  0  0  0  0  0  0  0  0  0  0  0
  -21.3230   -3.8390   26.0020 F   0  0  0  0  0  0  0  0  0  0  0  0
  -22.8260  -13.5770   21.1500 C   0  0  0  0  0  0  0  0  0  0  0  0
  -22.1210  -12.8710   22.0260 N   0  0  0  0  0  0  0  0  0  0  0  0
  -22.3710  -14.6030   20.6450 O   0  0  0  0  0  0  0  0  0  0  0  0
  -22.5020  -12.0440   22.4610 H   0  0  0  0  0  0  0  0  0  0  0  0
  -21.1840  -13.1620   22.2640 H   0  0  0  0  0  0  0  0  0  0  0  0
  -25.4230  -15.2760   20.3070 N   0  0  0  0  0  0  0  0  0  0  0  0
  -24.6620  -15.9290   20.4550 H   0  0  0  0  0  0  0  0  0  0  0  0
  -26.2780  -15.7240   20.0000 H   0  0  0  0  0  0  0  0  0  0  0  0
  -27.8990  -24.4580   20.0530 C   0  0  0  0  0  2  0  0  0  0  0  0
  -28.2420  -26.0310   20.1510 O   0  0  0  0  0  0  0  0  0  0  0  0
  -24.6590  -31.8410   23.2200 C   0  0  0  0  0  0  0  0  0  0  0  0
  -27.2190  -27.0900   20.1090 C   0  0  0  0  0  0  0  0  0  0  0  0
  -23.4620  -30.4750   21.5580 C   0  0  0  0  0  3  0  0  0  0  0  0
  -24.9080  -28.9150   20.1010 C   0  0  0  0  0  0  0  0  0  0  0  0
  -26.0230  -30.7140   21.4040 C   0  0  0  0  0  2  0  0  0  0  0  0
  -26.0940  -29.3250   20.7230 C   0  0  0  0  0  0  0  0  0  0  0  0
  -27.2470  -28.4320   20.7060 C   0  0  0  0  0  3  0  0  0  0  0  0
  -26.0040  -26.8160   19.4410 C   0  0  0  0  0  3  0  0  0  0  0  0
  -24.8840  -27.6780   19.4400 C   0  0  0  0  0  3  0  0  0  0  0  0
  -23.6840  -29.8210   20.1670 C   0  0  0  0  0  2  0  0  0  0  0  0
  -24.7350  -31.0340   22.1160 N   0  0  0  0  0  0  0  0  0  0  0  0
  -23.5720  -32.1200   23.7510 O   0  0  0  0  0  0  0  0  0  0  0  0
  -22.7750  -29.4560   22.5050 C   0  0  0  0  0  0  0  0  0  0  0  0
  -21.4460  -29.2920   22.3780 N   0  0  0  0  0  0  0  0  0  0  0  0
  -23.4430  -28.8160   23.3200 O   0  0  0  0  0  0  0  0  0  0  0  0
  -20.9590  -29.8580   21.6970 H   0  0  0  0  0  0  0  0  0  0  0  0
  -18.0610  -28.0880   22.8780 C   0  0  0  0  0  0  0  0  0  0  0  0
  -20.6240  -28.3410   23.1330 C   0  0  0  0  0  3  0  0  0  0  0  0
  -20.7180  -26.9210   22.5280 C   0  0  0  0  0  2  0  0  0  0  0  0
  -19.6090  -26.6220   21.5140 C   0  0  0  0  0  2  0  0  0  0  0  0
  -18.2310  -26.7540   22.1700 C   0  0  0  0  0  2  0  0  0  0  0  0
  -19.1840  -28.8400   23.3170 C   0  0  0  0  0  0  0  0  0  0  0  0
  -18.9690  -30.0870   23.9420 C   0  0  0  0  0  3  0  0  0  0  0  0
  -17.6650  -30.5830   24.1340 C   0  0  0  0  0  3  0  0  0  0  0  0
  -16.5570  -29.8270   23.7090 C   0  0  0  0  0  3  0  0  0  0  0  0
  -16.7560  -28.5810   23.0880 C   0  0  0  0  0  3  0  0  0  0  0  0
  -25.9350  -32.4700   23.8600 C   0  0  0  0  0  3  0  0  0  0  0  0
  -25.6230  -33.8650   24.2160 N   0  0  0  0  0  0  0  0  0  0  0  0
  -25.9220  -34.9340   23.4650 C   0  0  0  0  0  0  0  0  0  0  0  0
  -26.5570  -34.8490   22.4100 O   0  0  0  0  0  0  0  0  0  0  0  0
  -25.0540  -34.0020   25.0390 H   0  0  0  0  0  0  0  0  0  0  0  0
  -24.1560  -36.7120   23.2260 C   0  0  0  0  0  1  0  0  0  0  0  0
  -25.4460  -36.3150   23.9610 C   0  0  0  0  0  3  0  0  0  0  0  0
  -27.6100  -37.2260   24.6820 C   0  0  0  0  0  1  0  0  0  0  0  0
  -26.4590  -37.3810   23.7970 N   0  0  0  0  0  0  0  0  0  0  0  0
  -26.0510  -38.2960   23.9660 H   0  0  0  0  0  0  0  0  0  0  0  0
  -26.4420  -31.6820   25.1310 C   0  0  1  0  0  0  0  0  0  0  0  0
  -25.3420  -31.4350   26.1900 C   0  0  0  0  0  1  0  0  0  0  0  0
  -27.0210  -30.3050   24.7340 C   0  0  0  0  0  1  0  0  0  0  0  0
  -27.5920  -32.4630   25.8070 C   0  0  0  0  0  1  0  0  0  0  0  0
  1  5  1  0
  2  3  1  0
  3  5  2  0
  4  6  1  0
  4  2  2  0
  6  1  2  0
  7  2  1  0
  8 19  1  0
  9 14  1  0
 10 11  1  0
 10  9  1  0
 12 11  1  0
 12 23  1  0
 12 13  1  0
 14  8  1  0
 14 13  1  0
 15  8  2  0
 16 19  1  0
 16 18  1  0
 18  3  1  0
 18 17  1  0
 19 17  1  0
 20 21  2  0
 21 40  1  0
 22 21  1  0
 22 25  1  0
 23 24  1  0
 23 20  1  0
 24 22  2  0
 25 26  1  0
 26 27  2  0
 28 31  1  0
 28 27  1  0
 29 28  2  0
 30 29  1  0
 30 25  2  0
 31 32  1  0
 32 33  1  0
 33 34  2  0
 35 34  1  0
 35 39  1  0
 36 35  2  0
 37 32  2  0
 37 36  1  0
 38 37  1  0
 40 41  1  0
 41 44  1  0
 41 43  1  0
 42 40  2  0
 45 46  1  0
 45 20  1  0
 47 45  1  0
 48 49  1  0
 48  4  1  0
 50 61  2  0
 51 49  1  0
 51 56  1  0
 52 60  1  0
 52 62  1  0
 53 59  1  0
 53 55  1  0
 54 60  1  0
 55 54  1  0
 56 55  2  0
 57 51  2  0
 58 57  1  0
 58 53  2  0
 59 52  1  0
 60 50  1  0
 62 64  2  0
 63 62  1  0
 65 63  1  0
 66 75  2  0
 66 71  1  0
 67 63  1  0
 67 71  1  0
 68 67  1  0
 69 70  1  0
 69 68  1  0
 70 66  1  0
 71 72  2  0
 72 73  1  0
 74 73  2  0
 75 74  1  0
 76 50  1  0
 76 77  1  0
 76 86  1  0
 77 80  1  0
 78 82  1  0
 78 77  1  0
 79 78  2  0
 82 81  1  0
 84 82  1  0
 84 85  1  0
 84 83  1  0
 86 89  1  1
 86 87  1  0
 88 86  1  0
M  ISO  4   8 100  19 100  48 101  49 101
M  END
>  <TORSDO>  (26) 
F 17

>  <SCORE>  (26) 
-15.697

>  <name>  (26) 
25

>  <ligand_id>  (26) 
25

>  <original_smiles>  (26) 
[H]c1nc(C([H])([H])Oc2c([H])c([H])c3c(c2[H])C([H])([H])N(C(=O)C([H])(N([H])C(=O)C([H])(N([H])C([H])([H])[H])C([H])([H])[H])C(C([H])([H])[H])(C([H])([H])[H])C([H])([H])[H])C([H])(C(=O)N([H])C2([H])c4c([H])c([H])c([H])c([H])c4C([H])([H])C([H])([H])C2([H])[H])C3([H])[H])c(Cl)c(C2([H])C([H])([H])N(C(=O)N3C([H])([H])C([H])([H])C([H])([H])C([H])(n4nc(-c5c([H])c([H])c(Oc6c([H])c([H])c(F)c([H])c6F)c([H])c5[H])c(C(=O)N([H])[H])c4N([H])[H])C3([H])[H])C2([H])[H])n1

>  <smiles>  (26) 
[H]c1nc(C([H])([H])Oc2c([H])c([H])c3c(c2[H])C([H])([H])N(C(=O)C([H])(N([H])C(=O)C([H])(N([H])C([H])([H])[H])C([H])([H])[H])C(C([H])([H])[H])(C([H])([H])[H])C([H])([H])[H])C([H])(C(=O)N([H])C2([H])c4c([H])c([H])c([H])c([H])c4C([H])([H])C([H])([H])C2([H])[H])C3([H])[H])c(Cl)c(C2([H])C([H])([H])N(C(=O)N3C([H])([H])C([H])([H])C([H])([H])C([H])(n4nc(-c5c([H])c([H])c(Oc6c([H])c([H])c(F)c([H])c6F)c([H])c5[H])c(C(=O)N([H])[H])c4N([H])[H])C3([H])[H])C2([H])[H])n1

$$$$
26:0:0
     RDKit          3D

 99109  0  0  1  0  0  0  0  0999 V2000
  -28.7480  -22.3760   19.7520 C   0  0  0  0  0  3  0  0  0  0  0  0
  -28.0000  -21.7300   18.8120 C   0  0  0  0  0  0  0  0  0  0  0  0
  -29.0210  -20.1860   20.0920 C   0  0  0  0  0  3  0  0  0  0  0  0
  -29.3720  -21.4210   20.5310 N   0  0  0  0  0  0  0  0  0  0  0  0
  -28.2220  -20.4000   19.0330 N   0  0  0  0  0  0  0  0  0  0  0  0
  -27.7870  -19.6640   18.4940 H   0  0  0  0  0  0  0  0  0  0  0  0
  -30.7040  -14.6580   20.3160 C   0  0  0  0  0  0  0  0  0  0  0  0
  -30.3100  -12.5390   19.0990 C   0  0  0  0  0  2  0  0  0  0  0  0
  -29.3250  -12.7350   17.9330 C   0  0  0  0  0  2  0  0  0  0  0  0
  -27.8810  -12.4930   18.4120 C   0  0  0  0  0  2  0  0  0  0  0  0
  -27.5450  -13.2810   19.7010 C   0  0  0  0  0  3  0  0  0  0  0  0
  -28.6670  -13.1700   20.7720 C   0  0  0  0  0  2  0  0  0  0  0  0
  -29.9560  -13.5180   20.1440 N   0  0  0  0  0  0  0  0  0  0  0  0
  -31.8840  -14.6940   19.9740 O   0  0  0  0  0  0  0  0  0  0  0  0
  -28.7310  -17.7240   19.6750 C   0  0  0  0  0  2  0  0  0  0  0  0
  -30.7490  -18.3410   20.8710 C   0  0  0  0  0  2  0  0  0  0  0  0
  -28.8390  -16.2650   20.1320 C   0  0  0  0  0  2  0  0  0  0  0  0
  -30.8570  -16.8910   21.4560 C   0  0  0  0  0  2  0  0  0  0  0  0
  -29.2850  -18.7780   20.6430 C   0  0  0  0  0  3  0  0  0  0  0  0
  -30.1050  -15.8220   20.7350 N   0  0  0  0  0  0  0  0  0  0  0  0
  -25.1710  -13.8350   20.5030 C   0  0  0  0  0  0  0  0  0  0  0  0
  -24.1310  -13.0330   20.8790 C   0  0  0  0  0  0  0  0  0  0  0  0
  -24.6240  -11.6960   20.8110 C   0  0  0  0  0  0  0  0  0  0  0  0
  -26.2270  -12.9740   20.2290 N   0  0  0  0  0  0  0  0  0  0  0  0
  -25.9070  -11.6850   20.4750 N   0  0  0  0  0  0  0  0  0  0  0  0
  -23.9350  -10.4140   20.9800 C   0  0  0  0  0  0  0  0  0  0  0  0
  -24.3150   -9.5040   21.9900 C   0  0  0  0  0  3  0  0  0  0  0  0
  -23.6290   -8.2830   22.1460 C   0  0  0  0  0  3  0  0  0  0  0  0
  -22.5470   -7.9640   21.2880 C   0  0  0  0  0  0  0  0  0  0  0  0
  -22.1920   -8.8610   20.2650 C   0  0  0  0  0  3  0  0  0  0  0  0
  -22.8830  -10.0750   20.1090 C   0  0  0  0  0  3  0  0  0  0  0  0
  -21.8330   -6.7940   21.3530 O   0  0  0  0  0  0  0  0  0  0  0  0
  -21.5850   -6.1690   22.5480 C   0  0  0  0  0  0  0  0  0  0  0  0
  -20.8350   -6.7870   23.5720 C   0  0  0  0  0  3  0  0  0  0  0  0
  -20.5460   -6.0790   24.7550 C   0  0  0  0  0  3  0  0  0  0  0  0
  -21.0010   -4.7540   24.9130 C   0  0  0  0  0  0  0  0  0  0  0  0
  -21.7430   -4.1380   23.8910 C   0  0  0  0  0  3  0  0  0  0  0  0
  -22.0350   -4.8440   22.7110 C   0  0  0  0  0  0  0  0  0  0  0  0
  -22.7330   -4.2380   21.7210 F   0  0  0  0  0  0  0  0  0  0  0  0
  -20.7160   -4.0710   26.0470 F   0  0  0  0  0  0  0  0  0  0  0  0
  -22.7260  -13.4730   21.1840 C   0  0  0  0  0  0  0  0  0  0  0  0
  -22.0320  -12.7450   22.0500 N   0  0  0  0  0  0  0  0  0  0  0  0
  -22.2540  -14.4990   20.6930 O   0  0  0  0  0  0  0  0  0  0  0  0
  -22.4280  -11.9180   22.4710 H   0  0  0  0  0  0  0  0  0  0  0  0
  -21.0890  -13.0150   22.2970 H   0  0  0  0  0  0  0  0  0  0  0  0
  -25.2930  -15.2150   20.3480 N   0  0  0  0  0  0  0  0  0  0  0  0
  -24.5020  -15.8320   20.4900 H   0  0  0  0  0  0  0  0  0  0  0  0
  -26.1130  -15.6850   19.9920 H   0  0  0  0  0  0  0  0  0  0  0  0
  -26.6470  -23.6840   17.6920 C   0  0  0  0  0  2  0  0  0  0  0  0
  -25.6530  -22.6060   18.0660 C   0  0  0  0  0  2  0  0  0  0  0  0
  -27.0830  -22.2370   17.7470 C   0  0  0  0  0  3  0  0  0  0  0  0
  -30.2130  -21.7160   21.7150 C   0  0  0  0  0  2  0  0  0  0  0  0
  -30.9090  -23.1120   21.6610 C   0  0  0  0  0  2  0  0  0  0  0  0
  -30.0250  -24.2690   21.9910 N   0  0  0  0  0  4  0  0  0  0  0  0
  -29.8390  -24.2560   22.9830 H   0  0  0  0  0  0  0  0  0  0  0  0
  -29.1350  -24.1740   21.5340 H   0  0  0  0  0  0  0  0  0  0  0  0
  -30.5870  -25.5990   21.6210 C   0  0  0  0  0  2  0  0  0  0  0  0
  -29.5300  -26.7230   21.6100 C   0  0  0  0  0  2  0  0  0  0  0  0
  -28.6710  -26.5620   20.4770 O   0  0  0  0  0  0  0  0  0  0  0  0
  -24.7060  -31.7820   23.3080 C   0  0  0  0  0  0  0  0  0  0  0  0
  -27.5240  -27.3260   20.4460 C   0  0  0  0  0  0  0  0  0  0  0  0
  -23.5660  -30.3170   21.6690 C   0  0  0  0  0  3  0  0  0  0  0  0
  -25.0900  -28.7630   20.3300 C   0  0  0  0  0  0  0  0  0  0  0  0
  -26.0830  -30.7240   21.5240 C   0  0  0  0  0  2  0  0  0  0  0  0
  -26.2120  -29.3340   20.9420 C   0  0  0  0  0  0  0  0  0  0  0  0
  -27.4290  -28.6250   21.0050 C   0  0  0  0  0  3  0  0  0  0  0  0
  -26.3870  -26.7720   19.8180 C   0  0  0  0  0  3  0  0  0  0  0  0
  -25.1700  -27.4780   19.7670 C   0  0  0  0  0  3  0  0  0  0  0  0
  -23.8260  -29.5950   20.3170 C   0  0  0  0  0  2  0  0  0  0  0  0
  -24.8000  -30.9590   22.2250 N   0  0  0  0  0  0  0  0  0  0  0  0
  -23.6070  -32.0500   23.8140 O   0  0  0  0  0  0  0  0  0  0  0  0
  -22.9060  -29.3130   22.6420 C   0  0  0  0  0  0  0  0  0  0  0  0
  -21.5880  -29.1120   22.4900 N   0  0  0  0  0  0  0  0  0  0  0  0
  -23.5800  -28.7150   23.4850 O   0  0  0  0  0  0  0  0  0  0  0  0
  -21.1060  -29.6470   21.7790 H   0  0  0  0  0  0  0  0  0  0  0  0
  -18.2080  -27.9290   22.9760 C   0  0  0  0  0  0  0  0  0  0  0  0
  -20.7650  -28.1870   23.2680 C   0  0  0  0  0  3  0  0  0  0  0  0
  -20.8680  -26.7470   22.7150 C   0  0  0  0  0  2  0  0  0  0  0  0
  -19.7750  -26.4130   21.6930 C   0  0  0  0  0  2  0  0  0  0  0  0
  -18.3870  -26.5700   22.3200 C   0  0  0  0  0  2  0  0  0  0  0  0
  -19.3230  -28.6940   23.4080 C   0  0  0  0  0  0  0  0  0  0  0  0
  -19.1020  -29.9670   23.9780 C   0  0  0  0  0  3  0  0  0  0  0  0
  -17.7980  -30.4740   24.1220 C   0  0  0  0  0  3  0  0  0  0  0  0
  -16.6960  -29.7080   23.7070 C   0  0  0  0  0  3  0  0  0  0  0  0
  -16.9000  -28.4360   23.1410 C   0  0  0  0  0  3  0  0  0  0  0  0
  -25.9660  -32.4470   23.9440 C   0  0  0  0  0  3  0  0  0  0  0  0
  -25.6370  -33.8540   24.2100 N   0  0  0  0  0  0  0  0  0  0  0  0
  -25.9620  -34.8730   23.4040 C   0  0  0  0  0  0  0  0  0  0  0  0
  -26.6410  -34.7360   22.3820 O   0  0  0  0  0  0  0  0  0  0  0  0
  -25.0340  -34.0350   25.0000 H   0  0  0  0  0  0  0  0  0  0  0  0
  -24.2040  -36.6160   22.9590 C   0  0  0  0  0  1  0  0  0  0  0  0
  -25.4490  -36.2720   23.7920 C   0  0  0  0  0  3  0  0  0  0  0  0
  -27.5560  -37.2420   24.5950 C   0  0  0  0  0  1  0  0  0  0  0  0
  -26.4640  -37.3350   23.6300 N   0  0  0  0  0  0  0  0  0  0  0  0
  -26.0390  -38.2530   23.7220 H   0  0  0  0  0  0  0  0  0  0  0  0
  -26.4560  -31.7260   25.2600 C   0  0  1  0  0  0  0  0  0  0  0  0
  -25.3370  -31.5130   26.3060 C   0  0  0  0  0  1  0  0  0  0  0  0
  -27.0640  -30.3420   24.9280 C   0  0  0  0  0  1  0  0  0  0  0  0
  -27.5810  -32.5550   25.9250 C   0  0  0  0  0  1  0  0  0  0  0  0
  1  4  1  0
  2  5  1  0
  2  1  2  0
  3  5  1  0
  3  4  1  0
  3 19  1  0
  4 52  1  0
  6  5  1  0
  7 20  1  0
  8 13  1  0
  9 10  1  0
  9  8  1  0
 11 10  1  0
 11 24  1  0
 11 12  1  0
 13  7  1  0
 13 12  1  0
 14  7  2  0
 15 17  1  0
 16 18  1  0
 17 20  1  0
 19 15  1  0
 19 16  1  0
 20 18  1  0
 21 22  2  0
 22 41  1  0
 23 22  1  0
 23 26  1  0
 24 25  1  0
 24 21  1  0
 25 23  2  0
 26 27  1  0
 27 28  2  0
 29 32  1  0
 29 28  1  0
 30 29  2  0
 31 30  1  0
 31 26  2  0
 32 33  1  0
 33 38  2  0
 33 34  1  0
 34 35  2  0
 35 36  1  0
 36 40  1  0
 37 36  2  0
 38 37  1  0
 39 38  1  0
 41 42  1  0
 42 45  1  0
 42 44  1  0
 43 41  2  0
 46 47  1  0
 46 21  1  0
 48 46  1  0
 49 51  1  0
 49 50  1  0
 51 50  1  0
 51  2  1  0
 53 52  1  0
 53 54  1  0
 54 55  1  0
 56 54  1  0
 57 54  1  0
 58 57  1  0
 59 58  1  0
 60 71  2  0
 61 59  1  0
 61 66  1  0
 62 70  1  0
 62 72  1  0
 63 65  1  0
 64 70  1  0
 65 66  2  0
 65 64  1  0
 67 61  2  0
 68 67  1  0
 68 63  2  0
 69 63  1  0
 69 62  1  0
 70 60  1  0
 72 74  2  0
 73 72  1  0
 75 73  1  0
 76 85  2  0
 76 81  1  0
 77 73  1  0
 77 81  1  0
 78 77  1  0
 79 80  1  0
 79 78  1  0
 80 76  1  0
 81 82  2  0
 82 83  1  0
 84 83  2  0
 85 84  1  0
 86 60  1  0
 86 87  1  0
 86 96  1  0
 87 90  1  0
 88 92  1  0
 88 87  1  0
 89 88  2  0
 92 91  1  0
 94 95  1  0
 94 92  1  0
 94 93  1  0
 96 99  1  1
 96 97  1  0
 98 96  1  0
M  ISO  4   7 100  20 100  58 101  59 101
M  END
>  <TORSDO>  (27) 
F 22

>  <SCORE>  (27) 
-13.020

>  <name>  (27) 
26

>  <ligand_id>  (27) 
26

>  <original_smiles>  (27) 
[H]c1c([H])c([H])c2c(c1[H])C([H])([H])C([H])([H])C([H])([H])C2([H])N([H])C(=O)C1([H])N(C(=O)C([H])(N([H])C(=O)C([H])(N([H])C([H])([H])[H])C([H])([H])[H])C(C([H])([H])[H])(C([H])([H])[H])C([H])([H])[H])C([H])([H])c2c([H])c(OC([H])([H])C([H])([H])[N+]([H])([H])C([H])([H])C([H])([H])n3c([H])c(C4([H])C([H])([H])C4([H])[H])[n+]([H])c3C3([H])C([H])([H])C([H])([H])N(C(=O)N4C([H])([H])C([H])([H])C([H])([H])C([H])(n5nc(-c6c([H])c([H])c(Oc7c([H])c([H])c(F)c([H])c7F)c([H])c6[H])c(C(=O)N([H])[H])c5N([H])[H])C4([H])[H])C([H])([H])C3([H])[H])c([H])c([H])c2C1([H])[H]

>  <smiles>  (27) 
[H]c1c([H])c([H])c2c(c1[H])C([H])([H])C([H])([H])C([H])([H])C2([H])N([H])C(=O)C1([H])N(C(=O)C([H])(N([H])C(=O)C([H])(N([H])C([H])([H])[H])C([H])([H])[H])C(C([H])([H])[H])(C([H])([H])[H])C([H])([H])[H])C([H])([H])c2c([H])c(OC([H])([H])C([H])([H])[N+]([H])([H])C([H])([H])C([H])([H])n3c([H])c(C4([H])C([H])([H])C4([H])[H])[n+]([H])c3C3([H])C([H])([H])C([H])([H])N(C(=O)N4C([H])([H])C([H])([H])C([H])([H])C([H])(n5nc(-c6c([H])c([H])c(Oc7c([H])c([H])c(F)c([H])c7F)c([H])c6[H])c(C(=O)N([H])[H])c5N([H])[H])C4([H])[H])C([H])([H])C3([H])[H])c([H])c([H])c2C1([H])[H]

$$$$
27:0:0
     RDKit          3D

 96105  0  0  1  0  0  0  0  0999 V2000
  -28.8010  -22.5590   20.6620 C   0  0  0  0  0  0  0  0  0  0  0  0
  -30.7660  -23.4490   21.5370 C   0  0  0  0  0  2  0  0  0  0  0  0
  -29.4350  -21.4060   21.4700 C   0  0  0  0  0  3  0  0  0  0  0  0
  -30.8600  -21.9270   21.7690 C   0  0  0  0  0  3  0  0  0  0  0  0
  -31.3660  -21.5460   23.1790 C   0  0  0  0  0  1  0  0  0  0  0  0
  -29.5200  -23.6960   20.8150 N   0  0  0  0  0  0  0  0  0  0  0  0
  -27.7090  -22.4660   20.0930 O   0  0  0  0  0  0  0  0  0  0  0  0
  -29.3190  -19.9680   20.8620 C   0  0  0  0  0  0  0  0  0  0  0  0
  -30.3420  -19.1740   20.8780 N   0  0  0  0  0  0  0  0  0  0  0  0
  -31.0160  -17.7390   18.9660 C   0  0  0  0  0  2  0  0  0  0  0  0
  -32.3080  -17.3030   19.6730 C   0  0  0  0  0  2  0  0  0  0  0  0
  -30.3230  -17.8020   20.3380 C   0  0  0  0  0  3  0  0  0  0  0  0
  -31.4680  -16.8850   20.8940 C   0  0  0  0  0  3  0  0  0  0  0  0
  -31.7850  -14.4180   20.3170 C   0  0  0  0  0  0  0  0  0  0  0  0
  -31.3160  -12.3820   19.0050 C   0  0  0  0  0  2  0  0  0  0  0  0
  -30.3960  -12.7750   17.8280 C   0  0  0  0  0  2  0  0  0  0  0  0
  -28.9130  -12.7540   18.2500 C   0  0  0  0  0  2  0  0  0  0  0  0
  -28.6680  -13.5320   19.5740 C   0  0  0  0  0  3  0  0  0  0  0  0
  -29.6810  -13.0960   20.6550 C   0  0  0  0  0  2  0  0  0  0  0  0
  -31.0330  -13.3070   20.1120 N   0  0  0  0  0  0  0  0  0  0  0  0
  -32.9330  -14.5390   19.8720 O   0  0  0  0  0  0  0  0  0  0  0  0
  -31.1100  -15.4530   20.8670 N   0  0  0  0  0  0  0  0  0  0  0  0
  -30.1990  -15.2260   21.2350 H   0  0  0  0  0  0  0  0  0  0  0  0
  -26.3360  -14.3660   20.2660 C   0  0  0  0  0  0  0  0  0  0  0  0
  -25.1950  -13.6930   20.6220 C   0  0  0  0  0  0  0  0  0  0  0  0
  -25.5250  -12.3050   20.5710 C   0  0  0  0  0  0  0  0  0  0  0  0
  -27.2900  -13.3890   20.0330 N   0  0  0  0  0  0  0  0  0  0  0  0
  -26.8070  -12.1430   20.2670 N   0  0  0  0  0  0  0  0  0  0  0  0
  -24.6820  -11.1170   20.7460 C   0  0  0  0  0  0  0  0  0  0  0  0
  -25.0050  -10.1100   21.6810 C   0  0  0  0  0  3  0  0  0  0  0  0
  -24.1670   -8.9850   21.8390 C   0  0  0  0  0  3  0  0  0  0  0  0
  -22.9890   -8.8630   21.0630 C   0  0  0  0  0  0  0  0  0  0  0  0
  -22.6840   -9.8570   20.1180 C   0  0  0  0  0  3  0  0  0  0  0  0
  -23.5220  -10.9750   19.9600 C   0  0  0  0  0  3  0  0  0  0  0  0
  -22.1310   -7.7900   21.1290 O   0  0  0  0  0  0  0  0  0  0  0  0
  -21.9360   -7.0970   22.2960 C   0  0  0  0  0  0  0  0  0  0  0  0
  -21.5140   -7.7340   23.4820 C   0  0  0  0  0  3  0  0  0  0  0  0
  -21.2620   -6.9730   24.6390 C   0  0  0  0  0  3  0  0  0  0  0  0
  -21.4250   -5.5750   24.6090 C   0  0  0  0  0  0  0  0  0  0  0  0
  -21.8350   -4.9340   23.4270 C   0  0  0  0  0  3  0  0  0  0  0  0
  -22.0900   -5.6960   22.2720 C   0  0  0  0  0  0  0  0  0  0  0  0
  -22.4680   -5.0740   21.1280 F   0  0  0  0  0  0  0  0  0  0  0  0
  -21.1730   -4.8390   25.7170 F   0  0  0  0  0  0  0  0  0  0  0  0
  -23.8520  -14.3020   20.8960 C   0  0  0  0  0  0  0  0  0  0  0  0
  -23.0730  -13.6770   21.7750 N   0  0  0  0  0  0  0  0  0  0  0  0
  -23.5080  -15.3590   20.3740 O   0  0  0  0  0  0  0  0  0  0  0  0
  -23.3640  -12.8090   22.2010 H   0  0  0  0  0  0  0  0  0  0  0  0
  -22.1760  -14.0600   22.0240 H   0  0  0  0  0  0  0  0  0  0  0  0
  -26.6340  -15.7160   20.1020 N   0  0  0  0  0  0  0  0  0  0  0  0
  -25.9200  -16.4320   20.1950 H   0  0  0  0  0  0  0  0  0  0  0  0
  -27.5040  -16.0690   19.7260 H   0  0  0  0  0  0  0  0  0  0  0  0
  -26.7550  -20.5520   20.3280 C   0  0  0  0  0  1  0  0  0  0  0  0
  -27.9190  -19.5360   20.3270 C   0  0  0  0  0  2  0  0  0  0  0  0
  -29.0470  -25.1000   20.7780 C   0  0  0  0  0  2  0  0  0  0  0  0
  -28.4180  -25.6010   19.4590 C   0  0  0  0  0  2  0  0  0  0  0  0
  -28.4080  -27.0420   19.4380 O   0  0  0  0  0  0  0  0  0  0  0  0
  -24.7000  -31.8370   23.1440 C   0  0  0  0  0  0  0  0  0  0  0  0
  -27.2080  -27.7140   19.5680 C   0  0  0  0  0  0  0  0  0  0  0  0
  -23.4110  -30.5420   21.4850 C   0  0  0  0  0  3  0  0  0  0  0  0
  -24.7870  -29.1650   19.8460 C   0  0  0  0  0  0  0  0  0  0  0  0
  -25.9100  -30.9780   21.1520 C   0  0  0  0  0  2  0  0  0  0  0  0
  -25.9710  -29.6630   20.4010 C   0  0  0  0  0  0  0  0  0  0  0  0
  -27.1810  -28.9440   20.2640 C   0  0  0  0  0  3  0  0  0  0  0  0
  -26.0050  -27.2440   18.9880 C   0  0  0  0  0  3  0  0  0  0  0  0
  -24.7980  -27.9480   19.1460 C   0  0  0  0  0  3  0  0  0  0  0  0
  -23.5320  -29.9860   20.0400 C   0  0  0  0  0  2  0  0  0  0  0  0
  -24.6940  -31.1310   21.9830 N   0  0  0  0  0  0  0  0  0  0  0  0
  -23.6520  -32.0340   23.7760 O   0  0  0  0  0  0  0  0  0  0  0  0
  -22.8540  -29.4250   22.4000 C   0  0  0  0  0  0  0  0  0  0  0  0
  -21.5460  -29.1560   22.2860 N   0  0  0  0  0  0  0  0  0  0  0  0
  -23.5920  -28.8020   23.1650 O   0  0  0  0  0  0  0  0  0  0  0  0
  -20.9960  -29.7020   21.6350 H   0  0  0  0  0  0  0  0  0  0  0  0
  -18.3020  -27.6170   22.6550 C   0  0  0  0  0  0  0  0  0  0  0  0
  -20.8150  -28.1170   23.0080 C   0  0  0  0  0  3  0  0  0  0  0  0
  -21.0720  -26.7230   22.3940 C   0  0  0  0  0  2  0  0  0  0  0  0
  -20.0290  -26.3200   21.3430 C   0  0  0  0  0  2  0  0  0  0  0  0
  -18.6260  -26.3120   21.9490 C   0  0  0  0  0  2  0  0  0  0  0  0
  -19.3290  -28.4750   23.1350 C   0  0  0  0  0  0  0  0  0  0  0  0
  -18.9650  -29.6990   23.7360 C   0  0  0  0  0  3  0  0  0  0  0  0
  -17.6150  -30.0730   23.8660 C   0  0  0  0  0  3  0  0  0  0  0  0
  -16.6040  -29.2090   23.4070 C   0  0  0  0  0  3  0  0  0  0  0  0
  -16.9490  -27.9830   22.8120 C   0  0  0  0  0  3  0  0  0  0  0  0
  -26.0130  -32.4510   23.7220 C   0  0  0  0  0  3  0  0  0  0  0  0
  -25.7070  -33.8230   24.1390 N   0  0  0  0  0  0  0  0  0  0  0  0
  -26.0070  -34.9200   23.4280 C   0  0  0  0  0  0  0  0  0  0  0  0
  -26.6390  -34.8750   22.3690 O   0  0  0  0  0  0  0  0  0  0  0  0
  -25.1220  -33.9260   24.9540 H   0  0  0  0  0  0  0  0  0  0  0  0
  -24.2560  -36.7140   23.2260 C   0  0  0  0  0  1  0  0  0  0  0  0
  -25.5240  -36.2750   23.9750 C   0  0  0  0  0  3  0  0  0  0  0  0
  -27.6820  -37.1290   24.7790 C   0  0  0  0  0  1  0  0  0  0  0  0
  -26.5470  -37.3390   23.8810 N   0  0  0  0  0  0  0  0  0  0  0  0
  -26.1470  -38.2520   24.0780 H   0  0  0  0  0  0  0  0  0  0  0  0
  -26.6070  -31.6190   24.9260 C   0  0  1  0  0  0  0  0  0  0  0  0
  -25.5670  -31.3050   26.0270 C   0  0  0  0  0  1  0  0  0  0  0  0
  -27.1850  -30.2710   24.4280 C   0  0  0  0  0  1  0  0  0  0  0  0
  -27.7850  -32.3900   25.5680 C   0  0  0  0  0  1  0  0  0  0  0  0
  1  6  1  0
  1  3  1  0
  2  4  1  0
  3  8  1  0
  3  4  1  0
  4  5  1  0
  6  2  1  0
  7  1  2  0
  8  9  2  0
 10 11  1  0
 10 12  1  0
 11 13  1  0
 12  9  1  0
 12 13  1  0
 13 22  1  0
 14 22  1  0
 15 20  1  0
 16 17  1  0
 16 15  1  0
 18 17  1  0
 18 27  1  0
 18 19  1  0
 20 14  1  0
 20 19  1  0
 21 14  2  0
 22 23  1  0
 24 25  2  0
 25 44  1  0
 26 25  1  0
 26 29  1  0
 27 24  1  0
 27 28  1  0
 28 26  2  0
 29 30  1  0
 30 31  2  0
 32 35  1  0
 32 31  1  0
 33 32  2  0
 34 33  1  0
 34 29  2  0
 35 36  1  0
 36 37  1  0
 37 38  2  0
 39 38  1  0
 39 43  1  0
 40 39  2  0
 41 36  2  0
 41 40  1  0
 42 41  1  0
 44 45  1  0
 45 48  1  0
 45 47  1  0
 46 44  2  0
 49 50  1  0
 49 24  1  0
 51 49  1  0
 53 52  1  0
 53  8  1  0
 54  6  1  0
 55 54  1  0
 56 55  1  0
 56 58  1  0
 57 68  2  0
 58 63  1  0
 59 67  1  0
 59 69  1  0
 60 66  1  0
 60 62  1  0
 61 67  1  0
 62 61  1  0
 63 62  2  0
 64 65  1  0
 64 58  2  0
 65 60  2  0
 66 59  1  0
 67 57  1  0
 69 71  2  0
 70 69  1  0
 72 70  1  0
 73 82  2  0
 73 78  1  0
 74 70  1  0
 74 78  1  0
 75 74  1  0
 76 77  1  0
 76 75  1  0
 77 73  1  0
 78 79  2  0
 79 80  1  0
 81 80  2  0
 82 81  1  0
 83 57  1  0
 83 84  1  0
 83 93  1  0
 84 87  1  0
 85 89  1  0
 85 84  1  0
 86 85  2  0
 89 88  1  0
 91 89  1  0
 91 92  1  0
 91 90  1  0
 93 96  1  1
 93 94  1  0
 95 93  1  0
M  ISO  4  14 100  22 100  55 101  56 101
M  END
>  <TORSDO>  (28) 
F 21

>  <SCORE>  (28) 
-11.252

>  <name>  (28) 
27

>  <ligand_id>  (28) 
27

>  <original_smiles>  (28) 
[H]c1c([H])c([H])c2c(c1[H])C([H])([H])C([H])([H])C([H])([H])C2([H])N([H])C(=O)C1([H])N(C(=O)C([H])(N([H])C(=O)C([H])(N([H])C([H])([H])[H])C([H])([H])[H])C(C([H])([H])[H])(C([H])([H])[H])C([H])([H])[H])C([H])([H])c2c([H])c(OC([H])([H])C([H])([H])N3C(=O)C([H])(C(=NC4([H])C([H])([H])C([H])([H])C4([H])N([H])C(=O)N4C([H])([H])C([H])([H])C([H])([H])C([H])(n5nc(-c6c([H])c([H])c(Oc7c([H])c([H])c(F)c([H])c7F)c([H])c6[H])c(C(=O)N([H])[H])c5N([H])[H])C4([H])[H])C([H])([H])C([H])([H])[H])C([H])(C([H])([H])[H])C3([H])[H])c([H])c([H])c2C1([H])[H]

>  <smiles>  (28) 
[H]c1c([H])c([H])c2c(c1[H])C([H])([H])C([H])([H])C([H])([H])C2([H])N([H])C(=O)C1([H])N(C(=O)C([H])(N([H])C(=O)C([H])(N([H])C([H])([H])[H])C([H])([H])[H])C(C([H])([H])[H])(C([H])([H])[H])C([H])([H])[H])C([H])([H])c2c([H])c(OC([H])([H])C([H])([H])N3C(=O)C([H])(C(=NC4([H])C([H])([H])C([H])([H])C4([H])N([H])C(=O)N4C([H])([H])C([H])([H])C([H])([H])C([H])(n5nc(-c6c([H])c([H])c(Oc7c([H])c([H])c(F)c([H])c7F)c([H])c6[H])c(C(=O)N([H])[H])c5N([H])[H])C4([H])[H])C([H])([H])C([H])([H])[H])C([H])(C([H])([H])[H])C3([H])[H])c([H])c([H])c2C1([H])[H]

$$$$
28:0:0
     RDKit          3D

 91100  0  0  1  0  0  0  0  0999 V2000
  -30.3150  -20.5650   18.4070 C   0  0  0  0  0  3  0  0  0  0  0  0
  -29.7800  -21.7440   18.9510 C   0  0  0  0  0  3  0  0  0  0  0  0
  -30.5780  -19.4830   19.2610 C   0  0  0  0  0  3  0  0  0  0  0  0
  -29.5410  -21.8060   20.3370 C   0  0  0  0  0  0  0  0  0  0  0  0
  -30.2930  -19.6160   20.6370 C   0  0  0  0  0  0  0  0  0  0  0  0
  -29.7970  -20.7590   21.1570 N   0  0  0  0  0  0  0  0  0  0  0  0
  -28.9460  -23.0420   21.0110 C   0  0  0  0  0  2  0  0  0  0  0  0
  -28.9780  -24.3510   20.1900 C   0  0  0  0  0  2  0  0  0  0  0  0
  -28.4340  -25.5490   20.9880 C   0  0  0  0  0  2  0  0  0  0  0  0
  -28.4830  -26.7510   20.2170 O   0  0  0  0  0  0  0  0  0  0  0  0
  -24.6050  -31.8840   23.2430 C   0  0  0  0  0  0  0  0  0  0  0  0
  -27.3110  -27.4680   20.2110 C   0  0  0  0  0  0  0  0  0  0  0  0
  -23.4250  -30.4740   21.5870 C   0  0  0  0  0  3  0  0  0  0  0  0
  -24.9030  -28.9370   20.1890 C   0  0  0  0  0  0  0  0  0  0  0  0
  -25.9460  -30.8530   21.4130 C   0  0  0  0  0  2  0  0  0  0  0  0
  -26.0490  -29.4800   20.7840 C   0  0  0  0  0  0  0  0  0  0  0  0
  -27.2600  -28.7520   20.7900 C   0  0  0  0  0  3  0  0  0  0  0  0
  -26.1510  -26.9280   19.6150 C   0  0  0  0  0  3  0  0  0  0  0  0
  -24.9470  -27.6580   19.6040 C   0  0  0  0  0  3  0  0  0  0  0  0
  -23.6530  -29.7880   20.2130 C   0  0  0  0  0  2  0  0  0  0  0  0
  -24.6760  -31.0840   22.1410 N   0  0  0  0  0  0  0  0  0  0  0  0
  -23.5170  -32.1530   23.7690 O   0  0  0  0  0  0  0  0  0  0  0  0
  -22.7650  -29.4530   22.5420 C   0  0  0  0  0  0  0  0  0  0  0  0
  -21.4420  -29.2710   22.4010 N   0  0  0  0  0  0  0  0  0  0  0  0
  -23.4400  -28.8270   23.3640 O   0  0  0  0  0  0  0  0  0  0  0  0
  -20.9590  -29.8270   21.7090 H   0  0  0  0  0  0  0  0  0  0  0  0
  -18.0620  -28.0880   22.8620 C   0  0  0  0  0  0  0  0  0  0  0  0
  -20.6170  -28.3360   23.1620 C   0  0  0  0  0  3  0  0  0  0  0  0
  -20.7220  -26.9060   22.5840 C   0  0  0  0  0  2  0  0  0  0  0  0
  -19.6280  -26.5890   21.5570 C   0  0  0  0  0  2  0  0  0  0  0  0
  -18.2400  -26.7390   22.1870 C   0  0  0  0  0  2  0  0  0  0  0  0
  -19.1790  -28.8450   23.3060 C   0  0  0  0  0  0  0  0  0  0  0  0
  -18.9600  -30.1090   23.8960 C   0  0  0  0  0  3  0  0  0  0  0  0
  -17.6550  -30.6160   24.0480 C   0  0  0  0  0  3  0  0  0  0  0  0
  -16.5520  -29.8560   23.6230 C   0  0  0  0  0  3  0  0  0  0  0  0
  -16.7560  -28.5940   23.0350 C   0  0  0  0  0  3  0  0  0  0  0  0
  -25.8820  -32.5190   23.8770 C   0  0  0  0  0  3  0  0  0  0  0  0
  -26.3850  -31.7520   25.1610 C   0  0  1  0  0  0  0  0  0  0  0  0
  -25.2790  -31.5150   26.2150 C   0  0  0  0  0  1  0  0  0  0  0  0
  -26.9740  -30.3740   24.7750 C   0  0  0  0  0  1  0  0  0  0  0  0
  -27.5270  -32.5490   25.8350 C   0  0  0  0  0  1  0  0  0  0  0  0
  -25.5680  -33.9180   24.1950 N   0  0  0  0  0  0  0  0  0  0  0  0
  -25.9130  -34.9650   23.4330 C   0  0  0  0  0  0  0  0  0  0  0  0
  -26.5980  -34.8550   22.4130 O   0  0  0  0  0  0  0  0  0  0  0  0
  -24.9600  -34.0780   24.9830 H   0  0  0  0  0  0  0  0  0  0  0  0
  -24.1880  -36.7510   23.0390 C   0  0  0  0  0  1  0  0  0  0  0  0
  -25.4170  -36.3550   23.8740 C   0  0  0  0  0  3  0  0  0  0  0  0
  -27.5370  -37.2460   24.7300 C   0  0  0  0  0  1  0  0  0  0  0  0
  -26.4500  -37.4080   23.7690 N   0  0  0  0  0  0  0  0  0  0  0  0
  -26.0410  -38.3290   23.9050 H   0  0  0  0  0  0  0  0  0  0  0  0
  -30.4740  -18.6200   21.5740 O   0  0  0  0  0  0  0  0  0  0  0  0
  -30.7270  -14.4030   20.4640 C   0  0  0  0  0  0  0  0  0  0  0  0
  -30.3810  -12.3080   19.2120 C   0  0  0  0  0  2  0  0  0  0  0  0
  -29.4300  -12.5640   18.0260 C   0  0  0  0  0  2  0  0  0  0  0  0
  -27.9600  -12.4290   18.4680 C   0  0  0  0  0  2  0  0  0  0  0  0
  -27.6410  -13.2360   19.7540 C   0  0  0  0  0  3  0  0  0  0  0  0
  -28.6980  -12.9570   20.8460 C   0  0  0  0  0  2  0  0  0  0  0  0
  -30.0270  -13.2530   20.2830 N   0  0  0  0  0  0  0  0  0  0  0  0
  -31.8200  -14.6230   19.9320 O   0  0  0  0  0  0  0  0  0  0  0  0
  -30.7990  -16.2260   22.1530 C   0  0  0  0  0  2  0  0  0  0  0  0
  -29.5980  -16.5660   20.5150 C   0  0  0  0  0  2  0  0  0  0  0  0
  -30.7950  -17.3180   21.0890 C   0  0  0  0  0  3  0  0  0  0  0  0
  -30.1000  -15.3560   21.1870 N   0  0  0  0  0  0  0  0  0  0  0  0
  -25.2450  -13.8550   20.4640 C   0  0  0  0  0  0  0  0  0  0  0  0
  -24.1760  -13.0870   20.8390 C   0  0  0  0  0  0  0  0  0  0  0  0
  -24.6320  -11.7330   20.8120 C   0  0  0  0  0  0  0  0  0  0  0  0
  -26.2870  -12.9700   20.2340 N   0  0  0  0  0  0  0  0  0  0  0  0
  -25.9210  -11.6890   20.4960 N   0  0  0  0  0  0  0  0  0  0  0  0
  -23.9060  -10.4740   21.0130 C   0  0  0  0  0  0  0  0  0  0  0  0
  -24.3460   -9.5090   21.9450 C   0  0  0  0  0  3  0  0  0  0  0  0
  -23.6220   -8.3120   22.1320 C   0  0  0  0  0  3  0  0  0  0  0  0
  -22.4440   -8.0710   21.3880 C   0  0  0  0  0  0  0  0  0  0  0  0
  -22.0210   -9.0260   20.4460 C   0  0  0  0  0  3  0  0  0  0  0  0
  -22.7460  -10.2140   20.2560 C   0  0  0  0  0  3  0  0  0  0  0  0
  -21.6900   -6.9260   21.4830 O   0  0  0  0  0  0  0  0  0  0  0  0
  -21.6570   -6.1810   22.6350 C   0  0  0  0  0  0  0  0  0  0  0  0
  -21.2510   -6.7340   23.8690 C   0  0  0  0  0  3  0  0  0  0  0  0
  -21.1630   -5.9160   25.0130 C   0  0  0  0  0  3  0  0  0  0  0  0
  -21.4710   -4.5450   24.9240 C   0  0  0  0  0  0  0  0  0  0  0  0
  -21.8710   -3.9920   23.6950 C   0  0  0  0  0  3  0  0  0  0  0  0
  -21.9620   -4.8080   22.5540 C   0  0  0  0  0  0  0  0  0  0  0  0
  -22.3260   -4.2650   21.3670 F   0  0  0  0  0  0  0  0  0  0  0  0
  -21.3800   -3.7570   26.0210 F   0  0  0  0  0  0  0  0  0  0  0  0
  -22.7790  -13.5670   21.1150 C   0  0  0  0  0  0  0  0  0  0  0  0
  -22.0530  -12.8760   21.9870 N   0  0  0  0  0  0  0  0  0  0  0  0
  -22.3400  -14.5910   20.5940 O   0  0  0  0  0  0  0  0  0  0  0  0
  -22.4230  -12.0530   22.4370 H   0  0  0  0  0  0  0  0  0  0  0  0
  -21.1160  -13.1820   22.2100 H   0  0  0  0  0  0  0  0  0  0  0  0
  -25.4130  -15.2240   20.2830 N   0  0  0  0  0  0  0  0  0  0  0  0
  -24.6500  -15.8830   20.3940 H   0  0  0  0  0  0  0  0  0  0  0  0
  -26.2690  -15.6600   19.9640 H   0  0  0  0  0  0  0  0  0  0  0  0
  1  2  1  0
  1  3  2  0
  2  4  2  0
  3  5  1  0
  4  7  1  0
  4  6  1  0
  5  6  2  0
  5 51  1  0
  8  9  1  0
  8  7  1  0
 10  9  1  0
 11 22  2  0
 12 10  1  0
 12 17  1  0
 13 21  1  0
 13 23  1  0
 14 20  1  0
 14 16  1  0
 15 21  1  0
 16 17  2  0
 16 15  1  0
 18 12  2  0
 19 18  1  0
 19 14  2  0
 20 13  1  0
 21 11  1  0
 23 25  2  0
 24 23  1  0
 26 24  1  0
 27 36  2  0
 27 32  1  0
 28 24  1  0
 28 32  1  0
 29 28  1  0
 30 31  1  0
 30 29  1  0
 31 27  1  0
 32 33  2  0
 33 34  1  0
 35 34  2  0
 36 35  1  0
 37 11  1  0
 37 42  1  0
 37 38  1  0
 38 41  1  1
 38 39  1  0
 40 38  1  0
 42 45  1  0
 43 47  1  0
 43 42  1  0
 44 43  2  0
 47 46  1  0
 49 47  1  0
 49 50  1  0
 49 48  1  0
 52 63  1  0
 53 58  1  0
 54 55  1  0
 54 53  1  0
 56 55  1  0
 56 67  1  0
 56 57  1  0
 58 52  1  0
 58 57  1  0
 59 52  2  0
 61 62  1  0
 61 63  1  0
 62 51  1  0
 62 60  1  0
 63 60  1  0
 64 65  2  0
 65 84  1  0
 66 65  1  0
 66 69  1  0
 67 64  1  0
 67 68  1  0
 68 66  2  0
 69 70  1  0
 70 71  2  0
 72 75  1  0
 72 71  1  0
 73 72  2  0
 74 73  1  0
 74 69  2  0
 75 76  1  0
 76 77  1  0
 77 78  2  0
 79 78  1  0
 79 83  1  0
 80 79  2  0
 81 76  2  0
 81 80  1  0
 82 81  1  0
 84 85  1  0
 85 88  1  0
 85 87  1  0
 86 84  2  0
 89 90  1  0
 89 64  1  0
 91 89  1  0
M  ISO  4   9 101  10 101  52 100  63 100
M  END
>  <TORSDO>  (29) 
F 20

>  <SCORE>  (29) 
-14.074

>  <name>  (29) 
28

>  <ligand_id>  (29) 
28

>  <original_smiles>  (29) 
[H]c1c(OC2([H])C([H])([H])N(C(=O)N3C([H])([H])C([H])([H])C([H])([H])C([H])(n4nc(-c5c([H])c([H])c(Oc6c([H])c([H])c(F)c([H])c6F)c([H])c5[H])c(C(=O)N([H])[H])c4N([H])[H])C3([H])[H])C2([H])[H])nc(C([H])([H])C([H])([H])C([H])([H])Oc2c([H])c([H])c3c(c2[H])C([H])([H])N(C(=O)C([H])(N([H])C(=O)C([H])(N([H])C([H])([H])[H])C([H])([H])[H])C(C([H])([H])[H])(C([H])([H])[H])C([H])([H])[H])C([H])(C(=O)N([H])C2([H])c4c([H])c([H])c([H])c([H])c4C([H])([H])C([H])([H])C2([H])[H])C3([H])[H])c([H])c1[H]

>  <smiles>  (29) 
[H]c1c(OC2([H])C([H])([H])N(C(=O)N3C([H])([H])C([H])([H])C([H])([H])C([H])(n4nc(-c5c([H])c([H])c(Oc6c([H])c([H])c(F)c([H])c6F)c([H])c5[H])c(C(=O)N([H])[H])c4N([H])[H])C3([H])[H])C2([H])[H])nc(C([H])([H])C([H])([H])C([H])([H])Oc2c([H])c([H])c3c(c2[H])C([H])([H])N(C(=O)C([H])(N([H])C(=O)C([H])(N([H])C([H])([H])[H])C([H])([H])[H])C(C([H])([H])[H])(C([H])([H])[H])C([H])([H])[H])C([H])(C(=O)N([H])C2([H])c4c([H])c([H])c([H])c([H])c4C([H])([H])C([H])([H])C2([H])[H])C3([H])[H])c([H])c1[H]

$$$$
29:0:0
     RDKit          3D

 94103  0  0  1  0  0  0  0  0999 V2000
  -29.8120  -21.9790   20.3900 C   0  0  0  0  0  0  0  0  0  0  0  0
  -30.2180  -24.0470   20.4840 C   0  0  0  0  0  3  0  0  0  0  0  0
  -32.2360  -25.6340   20.8860 C   0  0  0  0  0  1  0  0  0  0  0  0
  -30.8230  -22.8650   20.6370 N   0  0  0  0  0  0  0  0  0  0  0  0
  -28.6420  -22.5910   20.0910 N   0  0  0  0  0  2  0  0  0  0  0  0
  -28.9200  -23.9700   20.1750 N   0  0  0  0  0  0  0  0  0  0  0  0
  -30.1740  -20.5700   20.5380 N   0  0  0  0  0  0  0  0  0  0  0  0
  -30.8550  -25.2680   20.6200 N   0  0  0  0  0  0  0  0  0  0  0  0
  -31.1360  -20.4790   20.8440 H   0  0  0  0  0  0  0  0  0  0  0  0
  -30.2220  -26.0550   20.4860 H   0  0  0  0  0  0  0  0  0  0  0  0
  -30.7540  -14.8680   20.0020 C   0  0  0  0  0  0  0  0  0  0  0  0
  -30.4750  -12.5910   19.0160 C   0  0  0  0  0  2  0  0  0  0  0  0
  -29.4630  -12.6520   17.8530 C   0  0  0  0  0  2  0  0  0  0  0  0
  -28.0270  -12.4670   18.3800 C   0  0  0  0  0  2  0  0  0  0  0  0
  -27.7230  -13.3570   19.6150 C   0  0  0  0  0  3  0  0  0  0  0  0
  -28.8550  -13.2950   20.6630 C   0  0  0  0  0  2  0  0  0  0  0  0
  -30.1000  -13.6550   19.9780 N   0  0  0  0  0  0  0  0  0  0  0  0
  -31.9190  -14.9240   19.5950 O   0  0  0  0  0  0  0  0  0  0  0  0
  -29.6550  -18.2170   21.3990 C   0  0  0  0  0  2  0  0  0  0  0  0
  -30.3850  -18.4790   19.0950 C   0  0  0  0  0  2  0  0  0  0  0  0
  -29.3110  -16.6890   21.1380 C   0  0  0  0  0  2  0  0  0  0  0  0
  -29.9910  -16.9750   18.8270 C   0  0  0  0  0  2  0  0  0  0  0  0
  -29.5750  -19.2270   20.1980 C   0  0  0  0  0  3  0  0  0  0  0  0
  -29.9990  -16.0420   19.9900 N   0  0  0  0  0  0  0  0  0  0  0  0
  -25.4050  -13.9230   20.5540 C   0  0  0  0  0  0  0  0  0  0  0  0
  -24.3620  -13.1380   20.9620 C   0  0  0  0  0  0  0  0  0  0  0  0
  -24.8080  -11.7870   20.8250 C   0  0  0  0  0  0  0  0  0  0  0  0
  -26.4190  -13.0510   20.1940 N   0  0  0  0  0  0  0  0  0  0  0  0
  -26.0710  -11.7580   20.4180 N   0  0  0  0  0  0  0  0  0  0  0  0
  -24.0830  -10.5210   21.0010 C   0  0  0  0  0  0  0  0  0  0  0  0
  -24.5300   -9.5330   21.9060 C   0  0  0  0  0  3  0  0  0  0  0  0
  -23.8060   -8.3340   22.0730 C   0  0  0  0  0  3  0  0  0  0  0  0
  -22.6190   -8.1120   21.3330 C   0  0  0  0  0  0  0  0  0  0  0  0
  -22.1910   -9.0890   20.4170 C   0  0  0  0  0  3  0  0  0  0  0  0
  -22.9160  -10.2800   20.2490 C   0  0  0  0  0  3  0  0  0  0  0  0
  -21.8630   -6.9670   21.4110 O   0  0  0  0  0  0  0  0  0  0  0  0
  -21.7630   -6.2490   22.5760 C   0  0  0  0  0  0  0  0  0  0  0  0
  -21.2310   -6.8130   23.7560 C   0  0  0  0  0  3  0  0  0  0  0  0
  -21.0820   -6.0200   24.9110 C   0  0  0  0  0  3  0  0  0  0  0  0
  -21.4540   -4.6620   24.8860 C   0  0  0  0  0  0  0  0  0  0  0  0
  -21.9780   -4.0970   23.7100 C   0  0  0  0  0  3  0  0  0  0  0  0
  -22.1290   -4.8880   22.5570 C   0  0  0  0  0  0  0  0  0  0  0  0
  -22.6150   -4.3330   21.4210 F   0  0  0  0  0  0  0  0  0  0  0  0
  -21.3030   -3.8970   25.9920 F   0  0  0  0  0  0  0  0  0  0  0  0
  -22.9950  -13.6090   21.3620 C   0  0  0  0  0  0  0  0  0  0  0  0
  -22.3320  -12.8800   22.2530 N   0  0  0  0  0  0  0  0  0  0  0  0
  -22.5250  -14.6580   20.9220 O   0  0  0  0  0  0  0  0  0  0  0  0
  -22.7250  -12.0300   22.6290 H   0  0  0  0  0  0  0  0  0  0  0  0
  -21.4170  -13.1750   22.5640 H   0  0  0  0  0  0  0  0  0  0  0  0
  -25.5710  -15.3000   20.4350 N   0  0  0  0  0  0  0  0  0  0  0  0
  -24.8220  -15.9550   20.6350 H   0  0  0  0  0  0  0  0  0  0  0  0
  -26.3980  -15.7460   20.0600 H   0  0  0  0  0  0  0  0  0  0  0  0
  -27.8730  -25.0350   19.8970 C   0  0  0  0  0  2  0  0  0  0  0  0
  -28.1880  -26.4490   20.1910 O   0  0  0  0  0  0  0  0  0  0  0  0
  -24.5710  -31.9680   23.2490 C   0  0  0  0  0  0  0  0  0  0  0  0
  -27.1110  -27.3710   20.1360 C   0  0  0  0  0  0  0  0  0  0  0  0
  -23.3440  -30.5840   21.6190 C   0  0  0  0  0  3  0  0  0  0  0  0
  -24.7680  -29.0400   20.1630 C   0  0  0  0  0  0  0  0  0  0  0  0
  -25.8880  -30.8760   21.4140 C   0  0  0  0  0  2  0  0  0  0  0  0
  -25.9520  -29.5000   20.7540 C   0  0  0  0  0  0  0  0  0  0  0  0
  -27.1250  -28.6770   20.7340 C   0  0  0  0  0  3  0  0  0  0  0  0
  -25.9020  -26.9940   19.5000 C   0  0  0  0  0  3  0  0  0  0  0  0
  -24.7490  -27.7940   19.5260 C   0  0  0  0  0  3  0  0  0  0  0  0
  -23.5390  -29.9230   20.2320 C   0  0  0  0  0  2  0  0  0  0  0  0
  -24.6210  -31.1600   22.1500 N   0  0  0  0  0  0  0  0  0  0  0  0
  -23.4950  -32.2490   23.7960 O   0  0  0  0  0  0  0  0  0  0  0  0
  -22.6850  -29.5630   22.5800 C   0  0  0  0  0  0  0  0  0  0  0  0
  -21.3710  -29.3370   22.4180 N   0  0  0  0  0  0  0  0  0  0  0  0
  -23.3600  -28.9800   23.4330 O   0  0  0  0  0  0  0  0  0  0  0  0
  -20.8840  -29.8610   21.7040 H   0  0  0  0  0  0  0  0  0  0  0  0
  -18.0350  -27.9870   22.8070 C   0  0  0  0  0  0  0  0  0  0  0  0
  -20.5620  -28.3880   23.1860 C   0  0  0  0  0  3  0  0  0  0  0  0
  -20.7620  -26.9430   22.6750 C   0  0  0  0  0  2  0  0  0  0  0  0
  -19.7300  -26.5240   21.6240 C   0  0  0  0  0  2  0  0  0  0  0  0
  -18.3120  -26.6230   22.1950 C   0  0  0  0  0  2  0  0  0  0  0  0
  -19.0920  -28.8220   23.2570 C   0  0  0  0  0  0  0  0  0  0  0  0
  -18.7810  -30.0930   23.7870 C   0  0  0  0  0  3  0  0  0  0  0  0
  -17.4460  -30.5320   23.8700 C   0  0  0  0  0  3  0  0  0  0  0  0
  -16.4040  -29.6950   23.4360 C   0  0  0  0  0  3  0  0  0  0  0  0
  -16.6980  -28.4250   22.9100 C   0  0  0  0  0  3  0  0  0  0  0  0
  -25.8630  -32.5940   23.8590 C   0  0  0  0  0  3  0  0  0  0  0  0
  -25.5670  -33.9970   24.1800 N   0  0  0  0  0  0  0  0  0  0  0  0
  -25.8830  -35.0410   23.4010 C   0  0  0  0  0  0  0  0  0  0  0  0
  -26.5230  -34.9220   22.3520 O   0  0  0  0  0  0  0  0  0  0  0  0
  -24.9970  -34.1640   24.9960 H   0  0  0  0  0  0  0  0  0  0  0  0
  -24.1520  -36.8380   23.0770 C   0  0  0  0  0  1  0  0  0  0  0  0
  -25.4150  -36.4370   23.8560 C   0  0  0  0  0  3  0  0  0  0  0  0
  -27.5700  -37.3290   24.6240 C   0  0  0  0  0  1  0  0  0  0  0  0
  -26.4480  -37.4840   23.7020 N   0  0  0  0  0  0  0  0  0  0  0  0
  -26.0470  -38.4080   23.8440 H   0  0  0  0  0  0  0  0  0  0  0  0
  -26.3790  -31.8290   25.1390 C   0  0  1  0  0  0  0  0  0  0  0  0
  -25.2850  -31.5980   26.2080 C   0  0  0  0  0  1  0  0  0  0  0  0
  -26.9610  -30.4480   24.7570 C   0  0  0  0  0  1  0  0  0  0  0  0
  -27.5300  -32.6260   25.7970 C   0  0  0  0  0  1  0  0  0  0  0  0
  1  7  1  0
  1  4  2  0
  2  8  1  0
  2  4  1  0
  5  6  1  0
  5  1  1  0
  6  2  1  0
  7  9  1  0
  8  3  1  0
 10  8  1  0
 12 17  1  0
 13 14  1  0
 13 12  1  0
 15 14  1  0
 15 28  1  0
 15 16  1  0
 17 11  1  0
 17 16  1  0
 18 11  2  0
 20 23  1  0
 21 19  1  0
 22 20  1  0
 22 24  1  0
 23  7  1  0
 23 19  1  0
 24 11  1  0
 24 21  1  0
 25 26  2  0
 26 45  1  0
 27 26  1  0
 27 30  1  0
 28 29  1  0
 28 25  1  0
 29 27  2  0
 30 31  1  0
 31 32  2  0
 33 36  1  0
 33 32  1  0
 34 33  2  0
 35 34  1  0
 35 30  2  0
 36 37  1  0
 37 38  1  0
 38 39  2  0
 40 39  1  0
 40 44  1  0
 41 40  2  0
 42 37  2  0
 42 41  1  0
 43 42  1  0
 45 46  1  0
 46 49  1  0
 46 48  1  0
 47 45  2  0
 50 25  1  0
 50 51  1  0
 52 50  1  0
 53  6  1  0
 53 54  1  0
 55 66  2  0
 56 54  1  0
 56 61  1  0
 57 65  1  0
 57 67  1  0
 58 64  1  0
 58 60  1  0
 59 65  1  0
 60 59  1  0
 61 60  2  0
 62 63  1  0
 62 56  2  0
 63 58  2  0
 64 57  1  0
 65 55  1  0
 67 69  2  0
 68 67  1  0
 70 68  1  0
 71 80  2  0
 71 76  1  0
 72 68  1  0
 72 76  1  0
 73 72  1  0
 74 75  1  0
 74 73  1  0
 75 71  1  0
 76 77  2  0
 77 78  1  0
 79 78  2  0
 80 79  1  0
 81 55  1  0
 81 82  1  0
 81 91  1  0
 82 85  1  0
 83 87  1  0
 83 82  1  0
 84 83  2  0
 87 86  1  0
 89 90  1  0
 89 87  1  0
 89 88  1  0
 91 94  1  1
 91 92  1  0
 93 91  1  0
M  ISO  4  11 100  24 100  53 101  54 101
M  END
>  <TORSDO>  (30) 
F 17

>  <SCORE>  (30) 
-14.602

>  <name>  (30) 
29

>  <ligand_id>  (30) 
29

>  <original_smiles>  (30) 
[H]c1c([H])c([H])c2c(c1[H])C([H])([H])C([H])([H])C([H])([H])C2([H])N([H])C(=O)C1([H])N(C(=O)C([H])(N([H])C(=O)C([H])(N([H])C([H])([H])[H])C([H])([H])[H])C(C([H])([H])[H])(C([H])([H])[H])C([H])([H])[H])C([H])([H])c2c([H])c(OC([H])([H])n3nc(N([H])C4([H])C([H])([H])C([H])([H])N(C(=O)N5C([H])([H])C([H])([H])C([H])([H])C([H])(n6nc(-c7c([H])c([H])c(Oc8c([H])c([H])c(F)c([H])c8F)c([H])c7[H])c(C(=O)N([H])[H])c6N([H])[H])C5([H])[H])C([H])([H])C4([H])[H])nc3N([H])C([H])([H])[H])c([H])c([H])c2C1([H])[H]

>  <smiles>  (30) 
[H]c1c([H])c([H])c2c(c1[H])C([H])([H])C([H])([H])C([H])([H])C2([H])N([H])C(=O)C1([H])N(C(=O)C([H])(N([H])C(=O)C([H])(N([H])C([H])([H])[H])C([H])([H])[H])C(C([H])([H])[H])(C([H])([H])[H])C([H])([H])[H])C([H])([H])c2c([H])c(OC([H])([H])n3nc(N([H])C4([H])C([H])([H])C([H])([H])N(C(=O)N5C([H])([H])C([H])([H])C([H])([H])C([H])(n6nc(-c7c([H])c([H])c(Oc8c([H])c([H])c(F)c([H])c8F)c([H])c7[H])c(C(=O)N([H])[H])c6N([H])[H])C5([H])[H])C([H])([H])C4([H])[H])nc3N([H])C([H])([H])[H])c([H])c([H])c2C1([H])[H]

$$$$
30:0:0
     RDKit          3D

 95105  0  0  1  0  0  0  0  0999 V2000
  -30.5030  -24.3810   20.0420 C   0  0  0  0  0  3  0  0  0  0  0  0
  -31.0450  -22.1220   19.7970 C   0  0  0  0  0  0  0  0  0  0  0  0
  -29.1620  -24.0540   20.3180 C   0  0  0  0  0  0  0  0  0  0  0  0
  -29.6990  -21.7470   20.0850 C   0  0  0  0  0  0  0  0  0  0  0  0
  -31.4300  -23.4260   19.7800 N   0  0  0  0  0  0  0  0  0  0  0  0
  -28.7710  -22.7320   20.3430 N   0  0  0  0  0  0  0  0  0  0  0  0
  -32.9490  -20.4390   20.4800 C   0  0  0  0  0  2  0  0  0  0  0  0
  -33.6070  -21.4880   19.6280 C   0  0  0  0  0  2  0  0  0  0  0  0
  -32.1390  -21.1580   19.4160 C   0  0  0  0  0  3  0  0  0  0  0  0
  -29.1550  -20.2790   19.9580 C   0  0  0  0  0  2  0  0  0  0  0  0
  -29.4040  -18.0940   21.2950 C   0  0  0  0  0  2  0  0  0  0  0  0
  -30.2070  -17.9850   19.4470 C   0  0  0  0  0  2  0  0  0  0  0  0
  -30.3880  -17.0740   20.6780 C   0  0  0  0  0  3  0  0  0  0  0  0
  -30.0100  -19.1120   20.4020 N   0  0  1  0  0  4  0  0  0  0  0  0
  -30.8850  -19.4240   20.7920 H   0  0  0  0  0  0  0  0  0  0  0  0
  -30.6730  -14.5720   20.1970 C   0  0  0  0  0  0  0  0  0  0  0  0
  -30.3750  -12.3670   19.1060 C   0  0  0  0  0  2  0  0  0  0  0  0
  -29.4070  -12.5260   17.9140 C   0  0  0  0  0  2  0  0  0  0  0  0
  -27.9420  -12.3890   18.3760 C   0  0  0  0  0  2  0  0  0  0  0  0
  -27.6250  -13.2480   19.6300 C   0  0  0  0  0  3  0  0  0  0  0  0
  -28.7060  -13.0710   20.7200 C   0  0  0  0  0  2  0  0  0  0  0  0
  -30.0090  -13.3810   20.1120 N   0  0  0  0  0  0  0  0  0  0  0  0
  -31.8220  -14.7150   19.7740 O   0  0  0  0  0  0  0  0  0  0  0  0
  -29.9400  -15.6480   20.5980 N   0  0  0  0  0  0  0  0  0  0  0  0
  -28.9980  -15.4430   20.8930 H   0  0  0  0  0  0  0  0  0  0  0  0
  -25.2520  -13.8670   20.3960 C   0  0  0  0  0  0  0  0  0  0  0  0
  -24.1880  -13.1010   20.7890 C   0  0  0  0  0  0  0  0  0  0  0  0
  -24.6410  -11.7470   20.7520 C   0  0  0  0  0  0  0  0  0  0  0  0
  -26.2850  -12.9780   20.1430 N   0  0  0  0  0  0  0  0  0  0  0  0
  -25.9230  -11.6990   20.4160 N   0  0  0  0  0  0  0  0  0  0  0  0
  -23.9110  -10.4910   20.9610 C   0  0  0  0  0  0  0  0  0  0  0  0
  -24.3470   -9.5280   21.8970 C   0  0  0  0  0  3  0  0  0  0  0  0
  -23.6180   -8.3350   22.0900 C   0  0  0  0  0  3  0  0  0  0  0  0
  -22.4380   -8.0970   21.3460 C   0  0  0  0  0  0  0  0  0  0  0  0
  -22.0220   -9.0470   20.3960 C   0  0  0  0  0  3  0  0  0  0  0  0
  -22.7510  -10.2310   20.2020 C   0  0  0  0  0  3  0  0  0  0  0  0
  -21.6780   -6.9570   21.4490 O   0  0  0  0  0  0  0  0  0  0  0  0
  -21.6250   -6.2290   22.6100 C   0  0  0  0  0  0  0  0  0  0  0  0
  -21.1910   -6.8010   23.8260 C   0  0  0  0  0  3  0  0  0  0  0  0
  -21.0850   -6.0000   24.9820 C   0  0  0  0  0  3  0  0  0  0  0  0
  -21.4030   -4.6300   24.9210 C   0  0  0  0  0  0  0  0  0  0  0  0
  -21.8300   -4.0590   23.7100 C   0  0  0  0  0  3  0  0  0  0  0  0
  -21.9380   -4.8560   22.5560 C   0  0  0  0  0  0  0  0  0  0  0  0
  -22.3310   -4.2960   21.3870 F   0  0  0  0  0  0  0  0  0  0  0  0
  -21.2950   -3.8580   26.0280 F   0  0  0  0  0  0  0  0  0  0  0  0
  -22.7990  -13.5880   21.0880 C   0  0  0  0  0  0  0  0  0  0  0  0
  -22.0850  -12.8970   21.9720 N   0  0  0  0  0  0  0  0  0  0  0  0
  -22.3570  -14.6160   20.5770 O   0  0  0  0  0  0  0  0  0  0  0  0
  -22.4580  -12.0670   22.4050 H   0  0  0  0  0  0  0  0  0  0  0  0
  -21.1530  -13.2020   22.2140 H   0  0  0  0  0  0  0  0  0  0  0  0
  -25.4200  -15.2350   20.2100 N   0  0  0  0  0  0  0  0  0  0  0  0
  -24.6500  -15.8870   20.3180 H   0  0  0  0  0  0  0  0  0  0  0  0
  -26.2430  -15.6590   19.8030 H   0  0  0  0  0  0  0  0  0  0  0  0
  -28.1110  -25.1530   20.6400 C   0  0  0  0  0  2  0  0  0  0  0  0
  -28.3610  -26.5280   20.1850 O   0  0  0  0  0  0  0  0  0  0  0  0
  -24.6000  -31.8550   23.2280 C   0  0  0  0  0  0  0  0  0  0  0  0
  -27.2380  -27.3550   20.1560 C   0  0  0  0  0  0  0  0  0  0  0  0
  -23.4020  -30.4540   21.5840 C   0  0  0  0  0  3  0  0  0  0  0  0
  -24.8600  -28.9210   20.1530 C   0  0  0  0  0  0  0  0  0  0  0  0
  -25.9350  -30.7960   21.3980 C   0  0  0  0  0  2  0  0  0  0  0  0
  -26.0230  -29.4230   20.7510 C   0  0  0  0  0  0  0  0  0  0  0  0
  -27.2190  -28.6510   20.7450 C   0  0  0  0  0  3  0  0  0  0  0  0
  -26.0610  -26.9050   19.5180 C   0  0  0  0  0  3  0  0  0  0  0  0
  -24.8790  -27.6660   19.5270 C   0  0  0  0  0  3  0  0  0  0  0  0
  -23.6170  -29.7820   20.2020 C   0  0  0  0  0  2  0  0  0  0  0  0
  -24.6640  -31.0520   22.1270 N   0  0  0  0  0  0  0  0  0  0  0  0
  -23.5170  -32.1240   23.7640 O   0  0  0  0  0  0  0  0  0  0  0  0
  -22.7460  -29.4300   22.5400 C   0  0  0  0  0  0  0  0  0  0  0  0
  -21.4180  -29.2590   22.4210 N   0  0  0  0  0  0  0  0  0  0  0  0
  -23.4290  -28.7940   23.3470 O   0  0  0  0  0  0  0  0  0  0  0  0
  -20.9280  -29.8260   21.7430 H   0  0  0  0  0  0  0  0  0  0  0  0
  -18.0390  -28.0810   22.9350 C   0  0  0  0  0  0  0  0  0  0  0  0
  -20.6010  -28.3210   23.1900 C   0  0  0  0  0  3  0  0  0  0  0  0
  -20.6890  -26.8930   22.6010 C   0  0  0  0  0  2  0  0  0  0  0  0
  -19.5780  -26.5870   21.5910 C   0  0  0  0  0  2  0  0  0  0  0  0
  -18.2020  -26.7350   22.2470 C   0  0  0  0  0  2  0  0  0  0  0  0
  -19.1650  -28.8320   23.3630 C   0  0  0  0  0  0  0  0  0  0  0  0
  -18.9600  -30.0920   23.9660 C   0  0  0  0  0  3  0  0  0  0  0  0
  -17.6600  -30.6000   24.1450 C   0  0  0  0  0  3  0  0  0  0  0  0
  -16.5470  -29.8450   23.7330 C   0  0  0  0  0  3  0  0  0  0  0  0
  -16.7380  -28.5870   23.1350 C   0  0  0  0  0  3  0  0  0  0  0  0
  -25.8820  -32.4880   23.8530 C   0  0  0  0  0  3  0  0  0  0  0  0
  -26.3970  -31.7150   25.1290 C   0  0  1  0  0  0  0  0  0  0  0  0
  -25.3040  -31.4730   26.1950 C   0  0  0  0  0  1  0  0  0  0  0  0
  -26.9840  -30.3400   24.7340 C   0  0  0  0  0  1  0  0  0  0  0  0
  -27.5450  -32.5110   25.7950 C   0  0  0  0  0  1  0  0  0  0  0  0
  -25.5710  -33.8850   24.1820 N   0  0  0  0  0  0  0  0  0  0  0  0
  -25.9050  -34.9380   23.4250 C   0  0  0  0  0  0  0  0  0  0  0  0
  -26.5790  -34.8360   22.3970 O   0  0  0  0  0  0  0  0  0  0  0  0
  -24.9740  -34.0400   24.9820 H   0  0  0  0  0  0  0  0  0  0  0  0
  -24.1810  -36.7330   23.0570 C   0  0  0  0  0  1  0  0  0  0  0  0
  -25.4140  -36.3260   23.8810 C   0  0  0  0  0  3  0  0  0  0  0  0
  -27.5410  -37.2070   24.7350 C   0  0  0  0  0  1  0  0  0  0  0  0
  -26.4480  -37.3790   23.7810 N   0  0  0  0  0  0  0  0  0  0  0  0
  -26.0410  -38.2980   23.9290 H   0  0  0  0  0  0  0  0  0  0  0  0
  1  3  1  0
  2  4  2  0
  3  6  2  0
  3 54  1  0
  4  6  1  0
  5  2  1  0
  5  1  2  0
  8  7  1  0
  9  8  1  0
  9  2  1  0
  9  7  1  0
 10  4  1  0
 10 14  1  0
 12 14  1  0
 12 13  1  0
 13 24  1  0
 13 11  1  0
 14 15  1  1
 14 11  1  0
 16 24  1  0
 17 22  1  0
 18 19  1  0
 18 17  1  0
 20 19  1  0
 20 29  1  0
 20 21  1  0
 22 16  1  0
 22 21  1  0
 23 16  2  0
 24 25  1  0
 26 27  2  0
 27 46  1  0
 28 27  1  0
 28 31  1  0
 29 26  1  0
 29 30  1  0
 30 28  2  0
 31 32  1  0
 32 33  2  0
 34 37  1  0
 34 33  1  0
 35 34  2  0
 36 35  1  0
 36 31  2  0
 37 38  1  0
 38 39  1  0
 39 40  2  0
 41 40  1  0
 41 45  1  0
 42 41  2  0
 43 38  2  0
 43 42  1  0
 44 43  1  0
 46 47  1  0
 47 50  1  0
 47 49  1  0
 48 46  2  0
 51 52  1  0
 51 26  1  0
 53 51  1  0
 55 54  1  0
 56 67  2  0
 57 55  1  0
 57 62  1  0
 58 66  1  0
 58 68  1  0
 59 65  1  0
 59 61  1  0
 60 66  1  0
 61 60  1  0
 62 61  2  0
 63 64  1  0
 63 57  2  0
 64 59  2  0
 65 58  1  0
 66 56  1  0
 68 70  2  0
 69 68  1  0
 71 69  1  0
 72 81  2  0
 72 77  1  0
 73 69  1  0
 73 77  1  0
 74 73  1  0
 75 76  1  0
 75 74  1  0
 76 72  1  0
 77 78  2  0
 78 79  1  0
 80 79  2  0
 81 80  1  0
 82 56  1  0
 82 87  1  0
 82 83  1  0
 83 86  1  1
 83 84  1  0
 85 83  1  0
 87 90  1  0
 88 92  1  0
 88 87  1  0
 89 88  2  0
 92 91  1  0
 94 92  1  0
 94 95  1  0
 94 93  1  0
M  ISO  4  16 100  24 100  54 101  55 101
M  END
>  <TORSDO>  (31) 
F 20

>  <SCORE>  (31) 
-13.694

>  <name>  (31) 
30

>  <ligand_id>  (31) 
30

>  <original_smiles>  (31) 
[H]c1nc(C2([H])C([H])([H])C2([H])[H])c(C([H])([H])[N+]2([H])C([H])([H])C([H])(N([H])C(=O)N3C([H])([H])C([H])([H])C([H])([H])C([H])(n4nc(-c5c([H])c([H])c(Oc6c([H])c([H])c(F)c([H])c6F)c([H])c5[H])c(C(=O)N([H])[H])c4N([H])[H])C3([H])[H])C2([H])[H])nc1C([H])([H])Oc1c([H])c([H])c2c(c1[H])C([H])([H])N(C(=O)C([H])(N([H])C(=O)C([H])(N([H])C([H])([H])[H])C([H])([H])[H])C(C([H])([H])[H])(C([H])([H])[H])C([H])([H])[H])C([H])(C(=O)N([H])C1([H])c3c([H])c([H])c([H])c([H])c3C([H])([H])C([H])([H])C1([H])[H])C2([H])[H]

>  <smiles>  (31) 
[H]c1nc(C2([H])C([H])([H])C2([H])[H])c(C([H])([H])[N+]2([H])C([H])([H])C([H])(N([H])C(=O)N3C([H])([H])C([H])([H])C([H])([H])C([H])(n4nc(-c5c([H])c([H])c(Oc6c([H])c([H])c(F)c([H])c6F)c([H])c5[H])c(C(=O)N([H])[H])c4N([H])[H])C3([H])[H])C2([H])[H])nc1C([H])([H])Oc1c([H])c([H])c2c(c1[H])C([H])([H])N(C(=O)C([H])(N([H])C(=O)C([H])(N([H])C([H])([H])[H])C([H])([H])[H])C(C([H])([H])[H])(C([H])([H])[H])C([H])([H])[H])C([H])(C(=O)N([H])C1([H])c3c([H])c([H])c([H])c([H])c3C([H])([H])C([H])([H])C1([H])[H])C2([H])[H]

$$$$
31:0:0
     RDKit          3D

 96105  0  0  1  0  0  0  0  0999 V2000
  -28.7070  -18.9750   18.1210 C   0  0  0  0  0  3  0  0  0  0  0  0
  -29.2590  -17.7260   17.8100 C   0  0  0  0  0  3  0  0  0  0  0  0
  -28.9650  -19.5150   19.3830 C   0  0  0  0  0  0  0  0  0  0  0  0
  -30.2410  -17.6540   19.8640 C   0  0  0  0  0  0  0  0  0  0  0  0
  -27.9290  -20.8180   21.8150 C   0  0  0  0  0  2  0  0  0  0  0  0
  -27.1550  -20.5250   20.5300 C   0  0  0  0  0  2  0  0  0  0  0  0
  -29.0360  -21.4240   20.9440 C   0  0  0  0  0  3  0  0  0  0  0  0
  -30.0190  -17.0590   18.6970 N   0  0  0  0  0  0  0  0  0  0  0  0
  -29.7480  -18.8240   20.2300 N   0  0  0  0  0  0  0  0  0  0  0  0
  -28.3960  -20.7580   19.7940 N   0  0  0  0  0  0  0  0  0  0  0  0
  -31.0500  -16.9210   20.9250 C   0  0  0  0  0  2  0  0  0  0  0  0
  -31.2630  -14.5390   20.3830 C   0  0  0  0  0  0  0  0  0  0  0  0
  -30.9120  -12.3480   19.3330 C   0  0  0  0  0  2  0  0  0  0  0  0
  -29.9930  -12.5110   18.1030 C   0  0  0  0  0  2  0  0  0  0  0  0
  -28.5070  -12.4410   18.5080 C   0  0  0  0  0  2  0  0  0  0  0  0
  -28.1740  -13.3630   19.7110 C   0  0  0  0  0  3  0  0  0  0  0  0
  -29.1980  -13.1630   20.8510 C   0  0  0  0  0  2  0  0  0  0  0  0
  -30.5520  -13.3910   20.3000 N   0  0  0  0  0  0  0  0  0  0  0  0
  -32.3620  -14.7070   19.8400 O   0  0  0  0  0  0  0  0  0  0  0  0
  -30.6550  -15.5260   21.0350 N   0  0  0  0  0  0  0  0  0  0  0  0
  -29.7500  -15.3350   21.4340 H   0  0  0  0  0  0  0  0  0  0  0  0
  -25.8000  -14.0920   20.3960 C   0  0  0  0  0  0  0  0  0  0  0  0
  -24.6920  -13.3740   20.7610 C   0  0  0  0  0  0  0  0  0  0  0  0
  -25.0880  -12.0020   20.7370 C   0  0  0  0  0  0  0  0  0  0  0  0
  -26.8030  -13.1600   20.1750 N   0  0  0  0  0  0  0  0  0  0  0  0
  -26.3760  -11.8980   20.4360 N   0  0  0  0  0  0  0  0  0  0  0  0
  -24.3020  -10.7770   20.9290 C   0  0  0  0  0  0  0  0  0  0  0  0
  -24.6810   -9.7990   21.8750 C   0  0  0  0  0  3  0  0  0  0  0  0
  -23.8980   -8.6370   22.0560 C   0  0  0  0  0  3  0  0  0  0  0  0
  -22.7250   -8.4470   21.2860 C   0  0  0  0  0  0  0  0  0  0  0  0
  -22.3670   -9.4130   20.3280 C   0  0  0  0  0  3  0  0  0  0  0  0
  -23.1480  -10.5660   20.1470 C   0  0  0  0  0  3  0  0  0  0  0  0
  -21.9200   -7.3380   21.3710 O   0  0  0  0  0  0  0  0  0  0  0  0
  -21.8070   -6.6170   22.5340 C   0  0  0  0  0  0  0  0  0  0  0  0
  -21.3720   -7.2100   23.7390 C   0  0  0  0  0  3  0  0  0  0  0  0
  -21.2030   -6.4190   24.8940 C   0  0  0  0  0  3  0  0  0  0  0  0
  -21.4600   -5.0350   24.8410 C   0  0  0  0  0  0  0  0  0  0  0  0
  -21.8880   -4.4430   23.6410 C   0  0  0  0  0  3  0  0  0  0  0  0
  -22.0590   -5.2320   22.4910 C   0  0  0  0  0  0  0  0  0  0  0  0
  -22.4520   -4.6520   21.3300 F   0  0  0  0  0  0  0  0  0  0  0  0
  -21.2920   -4.2730   25.9470 F   0  0  0  0  0  0  0  0  0  0  0  0
  -23.3190  -13.9200   21.0240 C   0  0  0  0  0  0  0  0  0  0  0  0
  -22.5520  -13.2650   21.8890 N   0  0  0  0  0  0  0  0  0  0  0  0
  -22.9330  -14.9680   20.5040 O   0  0  0  0  0  0  0  0  0  0  0  0
  -22.8800  -12.4270   22.3430 H   0  0  0  0  0  0  0  0  0  0  0  0
  -21.6290  -13.6160   22.1060 H   0  0  0  0  0  0  0  0  0  0  0  0
  -26.0360  -15.4510   20.2200 N   0  0  0  0  0  0  0  0  0  0  0  0
  -25.3040  -16.1480   20.3160 H   0  0  0  0  0  0  0  0  0  0  0  0
  -26.9200  -15.8400   19.9170 H   0  0  0  0  0  0  0  0  0  0  0  0
  -29.0700  -22.9410   20.7860 C   0  0  0  0  0  2  0  0  0  0  0  0
  -29.7330  -23.3490   19.5270 N   0  0  0  0  0  4  0  0  0  0  0  0
  -29.1290  -23.0670   18.7680 H   0  0  0  0  0  0  0  0  0  0  0  0
  -30.5840  -22.8180   19.4340 H   0  0  0  0  0  0  0  0  0  0  0  0
  -30.0610  -24.7920   19.3980 C   0  0  0  0  0  2  0  0  0  0  0  0
  -28.9530  -25.7050   19.9420 C   0  0  0  0  0  2  0  0  0  0  0  0
  -28.9070  -26.9350   19.2230 O   0  0  0  0  0  0  0  0  0  0  0  0
  -24.7040  -31.3550   22.8390 C   0  0  0  0  0  0  0  0  0  0  0  0
  -27.6800  -27.5410   19.2940 C   0  0  0  0  0  0  0  0  0  0  0  0
  -23.5930  -29.9950   21.0960 C   0  0  0  0  0  3  0  0  0  0  0  0
  -25.1470  -28.7600   19.5000 C   0  0  0  0  0  0  0  0  0  0  0  0
  -26.0580  -30.6340   20.8790 C   0  0  0  0  0  2  0  0  0  0  0  0
  -26.2610  -29.3460   20.1160 C   0  0  0  0  0  0  0  0  0  0  0  0
  -27.5310  -28.7430   20.0180 C   0  0  0  0  0  3  0  0  0  0  0  0
  -26.5540  -26.9720   18.6570 C   0  0  0  0  0  3  0  0  0  0  0  0
  -25.2860  -27.5680   18.7710 C   0  0  0  0  0  3  0  0  0  0  0  0
  -23.8280  -29.4750   19.6520 C   0  0  0  0  0  2  0  0  0  0  0  0
  -24.8020  -30.6710   21.6640 N   0  0  0  0  0  0  0  0  0  0  0  0
  -23.6190  -31.4660   23.4250 O   0  0  0  0  0  0  0  0  0  0  0  0
  -23.0810  -28.8260   21.9660 C   0  0  0  0  0  0  0  0  0  0  0  0
  -21.7850  -28.5070   21.8340 N   0  0  0  0  0  0  0  0  0  0  0  0
  -23.8470  -28.2110   22.7140 O   0  0  0  0  0  0  0  0  0  0  0  0
  -21.2240  -29.0690   21.2090 H   0  0  0  0  0  0  0  0  0  0  0  0
  -18.5750  -26.8920   22.2170 C   0  0  0  0  0  0  0  0  0  0  0  0
  -21.0880  -27.4210   22.5230 C   0  0  0  0  0  3  0  0  0  0  0  0
  -21.3540  -26.0630   21.8330 C   0  0  0  0  0  2  0  0  0  0  0  0
  -20.2920  -25.6960   20.7930 C   0  0  0  0  0  2  0  0  0  0  0  0
  -18.9020  -25.6290   21.4370 C   0  0  0  0  0  2  0  0  0  0  0  0
  -19.6000  -27.7410   22.7120 C   0  0  0  0  0  0  0  0  0  0  0  0
  -19.2400  -28.9220   23.3970 C   0  0  0  0  0  3  0  0  0  0  0  0
  -17.8870  -29.2550   23.5940 C   0  0  0  0  0  3  0  0  0  0  0  0
  -16.8770  -28.4040   23.1140 C   0  0  0  0  0  3  0  0  0  0  0  0
  -17.2210  -27.2240   22.4330 C   0  0  0  0  0  3  0  0  0  0  0  0
  -25.9420  -32.0510   23.4870 C   0  0  0  0  0  3  0  0  0  0  0  0
  -25.5010  -33.3630   23.9790 N   0  0  0  0  0  0  0  0  0  0  0  0
  -25.6870  -34.5190   23.3290 C   0  0  0  0  0  0  0  0  0  0  0  0
  -26.3210  -34.6000   22.2720 O   0  0  0  0  0  0  0  0  0  0  0  0
  -24.9330  -33.3620   24.8140 H   0  0  0  0  0  0  0  0  0  0  0  0
  -23.7570  -36.1270   23.2260 C   0  0  0  0  0  1  0  0  0  0  0  0
  -25.0720  -35.7890   23.9480 C   0  0  0  0  0  3  0  0  0  0  0  0
  -27.1340  -36.8200   24.7900 C   0  0  0  0  0  1  0  0  0  0  0  0
  -25.9770  -36.9580   23.9110 N   0  0  0  0  0  0  0  0  0  0  0  0
  -25.4810  -37.8070   24.1700 H   0  0  0  0  0  0  0  0  0  0  0  0
  -26.5910  -31.2060   24.6480 C   0  0  1  0  0  0  0  0  0  0  0  0
  -25.5780  -30.7390   25.7190 C   0  0  0  0  0  1  0  0  0  0  0  0
  -27.2940  -29.9510   24.0820 C   0  0  0  0  0  1  0  0  0  0  0  0
  -27.6840  -32.0410   25.3570 C   0  0  0  0  0  1  0  0  0  0  0  0
  1  3  1  0
  2  1  2  0
  2  8  1  0
  3 10  1  0
  3  9  2  0
  4  9  1  0
  4 11  1  0
  6  5  1  0
  7 50  1  0
  7  5  1  0
  8  4  2  0
 10  6  1  0
 10  7  1  0
 11 20  1  0
 12 20  1  0
 13 18  1  0
 14 15  1  0
 14 13  1  0
 16 15  1  0
 16 25  1  0
 16 17  1  0
 18 12  1  0
 18 17  1  0
 19 12  2  0
 20 21  1  0
 22 23  2  0
 23 42  1  0
 24 23  1  0
 24 27  1  0
 25 22  1  0
 25 26  1  0
 26 24  2  0
 27 28  1  0
 28 29  2  0
 30 33  1  0
 30 29  1  0
 31 30  2  0
 32 31  1  0
 32 27  2  0
 33 34  1  0
 34 35  1  0
 35 36  2  0
 37 36  1  0
 37 41  1  0
 38 37  2  0
 39 34  2  0
 39 38  1  0
 40 39  1  0
 42 43  1  0
 43 46  1  0
 43 45  1  0
 44 42  2  0
 47 48  1  0
 47 22  1  0
 49 47  1  0
 51 50  1  0
 52 51  1  0
 53 51  1  0
 54 51  1  0
 54 55  1  0
 56 58  1  0
 56 55  1  0
 57 68  2  0
 58 63  1  0
 59 67  1  0
 59 69  1  0
 60 66  1  0
 60 62  1  0
 61 67  1  0
 62 61  1  0
 63 62  2  0
 64 65  1  0
 64 58  2  0
 65 60  2  0
 66 59  1  0
 67 57  1  0
 69 71  2  0
 70 69  1  0
 72 70  1  0
 73 82  2  0
 73 78  1  0
 74 70  1  0
 74 78  1  0
 75 74  1  0
 76 77  1  0
 76 75  1  0
 77 73  1  0
 78 79  2  0
 79 80  1  0
 81 80  2  0
 82 81  1  0
 83 57  1  0
 83 84  1  0
 83 93  1  0
 84 87  1  0
 85 89  1  0
 85 84  1  0
 86 85  2  0
 89 88  1  0
 91 89  1  0
 91 92  1  0
 91 90  1  0
 93 96  1  1
 93 94  1  0
 95 93  1  0
M  ISO  4  12 100  20 100  55 101  56 101
M  END
>  <TORSDO>  (32) 
F 21

>  <SCORE>  (32) 
-9.353

>  <name>  (32) 
31

>  <ligand_id>  (32) 
31

>  <original_smiles>  (32) 
[H]c1nc(C([H])([H])N([H])C(=O)N2C([H])([H])C([H])([H])C([H])([H])C([H])(n3nc(-c4c([H])c([H])c(Oc5c([H])c([H])c(F)c([H])c5F)c([H])c4[H])c(C(=O)N([H])[H])c3N([H])[H])C2([H])[H])nc(N2C([H])([H])C([H])([H])C2([H])C([H])([H])[N+]([H])([H])C([H])([H])C([H])([H])Oc2c([H])c([H])c3c(c2[H])C([H])([H])N(C(=O)C([H])(N([H])C(=O)C([H])(N([H])C([H])([H])[H])C([H])([H])[H])C(C([H])([H])[H])(C([H])([H])[H])C([H])([H])[H])C([H])(C(=O)N([H])C2([H])c4c([H])c([H])c([H])c([H])c4C([H])([H])C([H])([H])C2([H])[H])C3([H])[H])c1[H]

>  <smiles>  (32) 
[H]c1nc(C([H])([H])N([H])C(=O)N2C([H])([H])C([H])([H])C([H])([H])C([H])(n3nc(-c4c([H])c([H])c(Oc5c([H])c([H])c(F)c([H])c5F)c([H])c4[H])c(C(=O)N([H])[H])c3N([H])[H])C2([H])[H])nc(N2C([H])([H])C([H])([H])C2([H])C([H])([H])[N+]([H])([H])C([H])([H])C([H])([H])Oc2c([H])c([H])c3c(c2[H])C([H])([H])N(C(=O)C([H])(N([H])C(=O)C([H])(N([H])C([H])([H])[H])C([H])([H])[H])C(C([H])([H])[H])(C([H])([H])[H])C([H])([H])[H])C([H])(C(=O)N([H])C2([H])c4c([H])c([H])c([H])c([H])c4C([H])([H])C([H])([H])C2([H])[H])C3([H])[H])c1[H]

$$$$
32:0:0
     RDKit          3D

 92101  0  0  1  0  0  0  0  0999 V2000
  -28.5360  -20.6110   21.5560 C   0  0  0  0  0  3  0  0  0  0  0  0
  -27.9580  -21.8730   21.9670 C   0  0  0  0  0  3  0  0  0  0  0  0
  -29.3520  -20.5720   20.4740 C   0  0  0  0  0  0  0  0  0  0  0  0
  -29.6440  -21.8380   19.7320 C   0  0  0  0  0  0  0  0  0  0  0  0
  -28.2010  -22.9740   21.3380 N   0  0  0  0  0  0  0  0  0  0  0  0
  -29.0350  -22.9790   20.2260 N   0  0  0  0  0  0  0  0  0  0  0  0
  -30.3770  -21.8710   18.7410 O   0  0  0  0  0  0  0  0  0  0  0  0
  -29.9420  -19.3670   20.0240 N   0  0  0  0  0  0  0  0  0  0  0  0
  -30.5380  -19.4700   19.2070 H   0  0  0  0  0  0  0  0  0  0  0  0
  -30.9510  -14.8750   19.9630 C   0  0  0  0  0  0  0  0  0  0  0  0
  -30.6470  -12.6440   18.9380 C   0  0  0  0  0  2  0  0  0  0  0  0
  -29.6450  -12.7780   17.7720 C   0  0  0  0  0  2  0  0  0  0  0  0
  -28.1970  -12.6330   18.2770 C   0  0  0  0  0  2  0  0  0  0  0  0
  -27.9050  -13.5100   19.5250 C   0  0  0  0  0  3  0  0  0  0  0  0
  -29.0200  -13.3710   20.5860 C   0  0  0  0  0  2  0  0  0  0  0  0
  -30.3000  -13.6750   19.9310 N   0  0  0  0  0  0  0  0  0  0  0  0
  -32.0920  -15.0120   19.5120 O   0  0  0  0  0  0  0  0  0  0  0  0
  -29.6970  -16.9140   19.3190 C   0  0  0  0  0  2  0  0  0  0  0  0
  -30.7740  -17.1410   21.0370 C   0  0  0  0  0  2  0  0  0  0  0  0
  -29.6370  -17.9710   20.4270 C   0  0  0  0  0  3  0  0  0  0  0  0
  -30.2120  -15.9600   20.3320 N   0  0  0  0  0  0  0  0  0  0  0  0
  -25.5700  -14.1250   20.4060 C   0  0  0  0  0  0  0  0  0  0  0  0
  -24.5150  -13.3570   20.8150 C   0  0  0  0  0  0  0  0  0  0  0  0
  -24.9510  -12.0000   20.7150 C   0  0  0  0  0  0  0  0  0  0  0  0
  -26.5840  -13.2370   20.0820 N   0  0  0  0  0  0  0  0  0  0  0  0
  -26.2200  -11.9510   20.3280 N   0  0  0  0  0  0  0  0  0  0  0  0
  -24.2180  -10.7440   20.9120 C   0  0  0  0  0  0  0  0  0  0  0  0
  -24.6480   -9.7760   21.8480 C   0  0  0  0  0  3  0  0  0  0  0  0
  -23.9150   -8.5840   22.0320 C   0  0  0  0  0  3  0  0  0  0  0  0
  -22.7390   -8.3500   21.2800 C   0  0  0  0  0  0  0  0  0  0  0  0
  -22.3290   -9.3060   20.3340 C   0  0  0  0  0  3  0  0  0  0  0  0
  -23.0620  -10.4900   20.1480 C   0  0  0  0  0  3  0  0  0  0  0  0
  -21.9770   -7.2100   21.3740 O   0  0  0  0  0  0  0  0  0  0  0  0
  -21.8670   -6.5130   22.5500 C   0  0  0  0  0  0  0  0  0  0  0  0
  -21.3310   -7.1000   23.7160 C   0  0  0  0  0  3  0  0  0  0  0  0
  -21.1700   -6.3270   24.8830 C   0  0  0  0  0  3  0  0  0  0  0  0
  -21.5380   -4.9680   24.8840 C   0  0  0  0  0  0  0  0  0  0  0  0
  -22.0670   -4.3800   23.7220 C   0  0  0  0  0  3  0  0  0  0  0  0
  -22.2290   -5.1510   22.5580 C   0  0  0  0  0  0  0  0  0  0  0  0
  -22.7200   -4.5740   21.4340 F   0  0  0  0  0  0  0  0  0  0  0  0
  -21.3760   -4.2230   26.0040 F   0  0  0  0  0  0  0  0  0  0  0  0
  -23.1440  -13.8460   21.1860 C   0  0  0  0  0  0  0  0  0  0  0  0
  -22.4670  -13.1430   22.0880 N   0  0  0  0  0  0  0  0  0  0  0  0
  -22.6860  -14.8840   20.7140 O   0  0  0  0  0  0  0  0  0  0  0  0
  -22.8520  -12.3030   22.4940 H   0  0  0  0  0  0  0  0  0  0  0  0
  -21.5490  -13.4510   22.3790 H   0  0  0  0  0  0  0  0  0  0  0  0
  -25.7470  -15.4990   20.2620 N   0  0  0  0  0  0  0  0  0  0  0  0
  -25.0040  -16.1630   20.4480 H   0  0  0  0  0  0  0  0  0  0  0  0
  -26.5990  -15.9360   19.9350 H   0  0  0  0  0  0  0  0  0  0  0  0
  -29.2310  -24.3260   19.5840 C   0  0  0  0  0  3  0  0  0  0  0  0
  -28.4710  -25.5490   20.2300 C   0  0  0  0  0  3  0  0  0  0  0  0
  -28.5410  -26.8410   19.5430 O   0  0  0  0  0  0  0  0  0  0  0  0
  -24.7020  -31.7570   23.0930 C   0  0  0  0  0  0  0  0  0  0  0  0
  -27.3890  -27.6150   19.6110 C   0  0  0  0  0  0  0  0  0  0  0  0
  -23.5000  -30.4560   21.3700 C   0  0  0  0  0  3  0  0  0  0  0  0
  -24.9640  -29.0870   19.7870 C   0  0  0  0  0  0  0  0  0  0  0  0
  -26.0160  -30.8960   21.1510 C   0  0  0  0  0  2  0  0  0  0  0  0
  -26.1260  -29.5830   20.3930 C   0  0  0  0  0  0  0  0  0  0  0  0
  -27.3440  -28.8580   20.2970 C   0  0  0  0  0  3  0  0  0  0  0  0
  -26.2100  -27.1600   18.9810 C   0  0  0  0  0  3  0  0  0  0  0  0
  -25.0040  -27.8770   19.0740 C   0  0  0  0  0  3  0  0  0  0  0  0
  -23.6980  -29.9020   19.9350 C   0  0  0  0  0  2  0  0  0  0  0  0
  -24.7580  -31.0490   21.9290 N   0  0  0  0  0  0  0  0  0  0  0  0
  -23.6260  -31.9500   23.6760 O   0  0  0  0  0  0  0  0  0  0  0  0
  -22.9020  -29.3400   22.2580 C   0  0  0  0  0  0  0  0  0  0  0  0
  -21.5820  -29.1200   22.1400 N   0  0  0  0  0  0  0  0  0  0  0  0
  -23.6210  -28.6780   23.0100 O   0  0  0  0  0  0  0  0  0  0  0  0
  -21.0580  -29.7110   21.5090 H   0  0  0  0  0  0  0  0  0  0  0  0
  -18.2580  -27.7800   22.6170 C   0  0  0  0  0  0  0  0  0  0  0  0
  -20.8140  -28.0950   22.8470 C   0  0  0  0  0  3  0  0  0  0  0  0
  -20.9430  -26.7220   22.1500 C   0  0  0  0  0  2  0  0  0  0  0  0
  -19.8240  -26.4510   21.1390 C   0  0  0  0  0  2  0  0  0  0  0  0
  -18.4560  -26.4970   21.8260 C   0  0  0  0  0  2  0  0  0  0  0  0
  -19.3650  -28.5370   23.0830 C   0  0  0  0  0  0  0  0  0  0  0  0
  -19.1250  -29.7390   23.7850 C   0  0  0  0  0  3  0  0  0  0  0  0
  -17.8110  -30.1830   24.0240 C   0  0  0  0  0  3  0  0  0  0  0  0
  -16.7190  -29.4200   23.5730 C   0  0  0  0  0  3  0  0  0  0  0  0
  -16.9440  -28.2200   22.8760 C   0  0  0  0  0  3  0  0  0  0  0  0
  -25.9820  -32.3780   23.7340 C   0  0  0  0  0  3  0  0  0  0  0  0
  -26.5340  -31.5430   24.9540 C   0  0  1  0  0  0  0  0  0  0  0  0
  -25.4630  -31.2200   26.0220 C   0  0  0  0  0  1  0  0  0  0  0  0
  -27.1380  -30.2040   24.4710 C   0  0  0  0  0  1  0  0  0  0  0  0
  -27.6790  -32.3210   25.6450 C   0  0  0  0  0  1  0  0  0  0  0  0
  -25.6470  -33.7460   24.1520 N   0  0  0  0  0  0  0  0  0  0  0  0
  -25.9440  -34.8490   23.4530 C   0  0  0  0  0  0  0  0  0  0  0  0
  -26.5980  -34.8230   22.4060 O   0  0  0  0  0  0  0  0  0  0  0  0
  -25.0620  -33.8390   24.9690 H   0  0  0  0  0  0  0  0  0  0  0  0
  -24.1710  -36.6220   23.2330 C   0  0  0  0  0  1  0  0  0  0  0  0
  -25.4340  -36.1960   24.0000 C   0  0  0  0  0  3  0  0  0  0  0  0
  -27.5560  -37.0840   24.8610 C   0  0  0  0  0  1  0  0  0  0  0  0
  -26.4420  -37.2780   23.9360 N   0  0  0  0  0  0  0  0  0  0  0  0
  -26.0160  -38.1780   24.1360 H   0  0  0  0  0  0  0  0  0  0  0  0
  1  2  1  0
  3  1  2  0
  4  6  1  0
  4  3  1  0
  5  2  2  0
  6  5  1  0
  7  4  2  0
  8  3  1  0
  9  8  1  0
 10 21  1  0
 11 16  1  0
 12 13  1  0
 12 11  1  0
 14 13  1  0
 14 25  1  0
 14 15  1  0
 16 10  1  0
 16 15  1  0
 17 10  2  0
 18 21  1  0
 18 20  1  0
 20  8  1  0
 20 19  1  0
 21 19  1  0
 22 23  2  0
 23 42  1  0
 24 23  1  0
 24 27  1  0
 25 26  1  0
 25 22  1  0
 26 24  2  0
 27 28  1  0
 28 29  2  0
 30 33  1  0
 30 29  1  0
 31 30  2  0
 32 31  1  0
 32 27  2  0
 33 34  1  0
 34 39  2  0
 34 35  1  0
 35 36  2  0
 36 37  1  0
 37 41  1  0
 38 37  2  0
 39 38  1  0
 40 39  1  0
 42 43  1  0
 43 46  1  0
 43 45  1  0
 44 42  2  0
 47 22  1  0
 47 48  1  0
 49 47  1  0
 50  6  1  0
 50 51  2  0
 52 54  1  0
 52 51  1  0
 53 64  2  0
 54 59  1  0
 55 63  1  0
 55 65  1  0
 56 62  1  0
 56 58  1  0
 57 63  1  0
 58 57  1  0
 59 58  2  0
 60 61  1  0
 60 54  2  0
 61 56  2  0
 62 55  1  0
 63 53  1  0
 65 67  2  0
 66 65  1  0
 68 66  1  0
 69 78  2  0
 69 74  1  0
 70 66  1  0
 70 74  1  0
 71 70  1  0
 72 73  1  0
 72 71  1  0
 73 69  1  0
 74 75  2  0
 75 76  1  0
 77 76  2  0
 78 77  1  0
 79 53  1  0
 79 84  1  0
 79 80  1  0
 80 83  1  1
 80 81  1  0
 82 80  1  0
 84 87  1  0
 85 89  1  0
 85 84  1  0
 86 85  2  0
 89 88  1  0
 91 89  1  0
 91 92  1  0
 91 90  1  0
M  ISO  4  10 100  21 100  51 101  52 101
M  END
>  <TORSDO>  (33) 
F 19

>  <SCORE>  (33) 
-12.745

>  <name>  (33) 
32

>  <ligand_id>  (33) 
32

>  <original_smiles>  (33) 
[H]c1nn(C([H])([H])C([H])([H])Oc2c([H])c([H])c3c(c2[H])C([H])([H])N(C(=O)C([H])(N([H])C(=O)C([H])(N([H])C([H])([H])[H])C([H])([H])[H])C(C([H])([H])[H])(C([H])([H])[H])C([H])([H])[H])C([H])(C(=O)N([H])C2([H])c4c([H])c([H])c([H])c([H])c4C([H])([H])C([H])([H])C2([H])[H])C3([H])[H])c(=O)c(N([H])C2([H])C([H])([H])N(C(=O)N3C([H])([H])C([H])([H])C([H])([H])C([H])(n4nc(-c5c([H])c([H])c(Oc6c([H])c([H])c(F)c([H])c6F)c([H])c5[H])c(C(=O)N([H])[H])c4N([H])[H])C3([H])[H])C2([H])[H])c1[H]

>  <smiles>  (33) 
[H]c1nn(C([H])([H])C([H])([H])Oc2c([H])c([H])c3c(c2[H])C([H])([H])N(C(=O)C([H])(N([H])C(=O)C([H])(N([H])C([H])([H])[H])C([H])([H])[H])C(C([H])([H])[H])(C([H])([H])[H])C([H])([H])[H])C([H])(C(=O)N([H])C2([H])c4c([H])c([H])c([H])c([H])c4C([H])([H])C([H])([H])C2([H])[H])C3([H])[H])c(=O)c(N([H])C2([H])C([H])([H])N(C(=O)N3C([H])([H])C([H])([H])C([H])([H])C([H])(n4nc(-c5c([H])c([H])c(Oc6c([H])c([H])c(F)c([H])c6F)c([H])c5[H])c(C(=O)N([H])[H])c4N([H])[H])C3([H])[H])C2([H])[H])c1[H]

$$$$
33:0:0
     RDKit          3D

 89 98  0  0  1  0  0  0  0  0999 V2000
  -30.6340  -14.9720   20.4090 C   0  0  0  0  0  0  0  0  0  0  0  0
  -30.4090  -12.6170   19.4960 C   0  0  0  0  0  2  0  0  0  0  0  0
  -29.5050  -12.5230   18.2510 C   0  0  0  0  0  2  0  0  0  0  0  0
  -28.0450  -12.3070   18.6780 C   0  0  0  0  0  2  0  0  0  0  0  0
  -27.6150  -13.2610   19.8240 C   0  0  0  0  0  3  0  0  0  0  0  0
  -28.6610  -13.3670   20.9550 C   0  0  0  0  0  2  0  0  0  0  0  0
  -29.9230  -13.7690   20.3230 N   0  0  0  0  0  0  0  0  0  0  0  0
  -31.8470  -14.8530   20.2080 O   0  0  0  0  0  0  0  0  0  0  0  0
  -30.3760  -21.9330   20.9860 C   0  0  0  0  0  3  0  0  0  0  0  0
  -29.9740  -23.2580   20.8670 C   0  0  0  0  0  3  0  0  0  0  0  0
  -29.3280  -21.0920   20.4900 C   0  0  0  0  0  0  0  0  0  0  0  0
  -30.7140  -18.9020   20.8210 C   0  0  0  0  0  3  0  0  0  0  0  0
  -28.4320  -18.5230   20.1990 C   0  0  0  0  0  3  0  0  0  0  0  0
  -30.9930  -17.4990   20.1000 C   0  0  0  0  0  3  0  0  0  0  0  0
  -28.7440  -16.9560   20.6480 C   0  0  0  0  0  3  0  0  0  0  0  0
  -28.3270  -21.9740   20.1020 N   0  0  0  0  0  0  0  0  0  0  0  0
  -28.7060  -23.3450   20.3200 N   0  0  0  0  0  0  0  0  0  0  0  0
  -29.4530  -19.5960   20.4560 N   0  0  0  0  0  0  0  0  0  0  0  0
  -30.1010  -16.3190   20.4090 N   0  0  0  0  0  0  0  0  0  0  0  0
  -25.2400  -13.8230   20.5750 C   0  0  0  0  0  0  0  0  0  0  0  0
  -24.1740  -13.0440   20.9250 C   0  0  0  0  0  0  0  0  0  0  0  0
  -24.6380  -11.6930   20.8770 C   0  0  0  0  0  0  0  0  0  0  0  0
  -26.2830  -12.9500   20.3250 N   0  0  0  0  0  0  0  0  0  0  0  0
  -25.9310  -11.6610   20.5760 N   0  0  0  0  0  0  0  0  0  0  0  0
  -23.9070  -10.4290   21.0420 C   0  0  0  0  0  0  0  0  0  0  0  0
  -24.3620   -9.4210   21.9190 C   0  0  0  0  0  3  0  0  0  0  0  0
  -23.6300   -8.2240   22.0760 C   0  0  0  0  0  3  0  0  0  0  0  0
  -22.4280   -8.0280   21.3550 C   0  0  0  0  0  0  0  0  0  0  0  0
  -21.9920   -9.0260   20.4650 C   0  0  0  0  0  3  0  0  0  0  0  0
  -22.7240  -10.2130   20.3070 C   0  0  0  0  0  3  0  0  0  0  0  0
  -21.6640   -6.8880   21.4240 O   0  0  0  0  0  0  0  0  0  0  0  0
  -21.6860   -6.0740   22.5280 C   0  0  0  0  0  0  0  0  0  0  0  0
  -21.4020   -6.5640   23.8210 C   0  0  0  0  0  3  0  0  0  0  0  0
  -21.3660   -5.6790   24.9170 C   0  0  0  0  0  3  0  0  0  0  0  0
  -21.6040   -4.3050   24.7220 C   0  0  0  0  0  0  0  0  0  0  0  0
  -21.8810   -3.8150   23.4340 C   0  0  0  0  0  3  0  0  0  0  0  0
  -21.9190   -4.6960   22.3400 C   0  0  0  0  0  0  0  0  0  0  0  0
  -22.1660   -4.2150   21.0980 F   0  0  0  0  0  0  0  0  0  0  0  0
  -21.5630   -3.4530   25.7740 F   0  0  0  0  0  0  0  0  0  0  0  0
  -22.7760  -13.5200   21.1890 C   0  0  0  0  0  0  0  0  0  0  0  0
  -22.0400  -12.8200   22.0440 N   0  0  0  0  0  0  0  0  0  0  0  0
  -22.3440  -14.5500   20.6730 O   0  0  0  0  0  0  0  0  0  0  0  0
  -22.4020  -11.9860   22.4850 H   0  0  0  0  0  0  0  0  0  0  0  0
  -21.1020  -13.1230   22.2650 H   0  0  0  0  0  0  0  0  0  0  0  0
  -25.4020  -15.1960   20.4180 N   0  0  0  0  0  0  0  0  0  0  0  0
  -24.6320  -15.8460   20.5370 H   0  0  0  0  0  0  0  0  0  0  0  0
  -26.2470  -15.6390   20.0850 H   0  0  0  0  0  0  0  0  0  0  0  0
  -27.8120  -24.6080   19.9690 C   0  0  0  0  0  2  0  0  0  0  0  0
  -28.2160  -26.0690   20.2330 O   0  0  0  0  0  0  0  0  0  0  0  0
  -24.6470  -31.8430   23.1890 C   0  0  0  0  0  0  0  0  0  0  0  0
  -27.2030  -27.1060   20.1460 C   0  0  0  0  0  0  0  0  0  0  0  0
  -23.4510  -30.4660   21.5350 C   0  0  0  0  0  3  0  0  0  0  0  0
  -24.8990  -28.8950   20.1070 C   0  0  0  0  0  0  0  0  0  0  0  0
  -26.0120  -30.7060   21.3950 C   0  0  0  0  0  2  0  0  0  0  0  0
  -26.0790  -29.3170   20.7320 C   0  0  0  0  0  0  0  0  0  0  0  0
  -27.2320  -28.4380   20.7380 C   0  0  0  0  0  3  0  0  0  0  0  0
  -25.9980  -26.8080   19.4670 C   0  0  0  0  0  3  0  0  0  0  0  0
  -24.8730  -27.6550   19.4590 C   0  0  0  0  0  3  0  0  0  0  0  0
  -23.6790  -29.8020   20.1530 C   0  0  0  0  0  2  0  0  0  0  0  0
  -24.7240  -31.0260   22.0940 N   0  0  0  0  0  0  0  0  0  0  0  0
  -23.5580  -32.1330   23.7080 O   0  0  0  0  0  0  0  0  0  0  0  0
  -22.7580  -29.4560   22.4840 C   0  0  0  0  0  0  0  0  0  0  0  0
  -21.4270  -29.3060   22.3580 N   0  0  0  0  0  0  0  0  0  0  0  0
  -23.4210  -28.8090   23.3000 O   0  0  0  0  0  0  0  0  0  0  0  0
  -20.9480  -29.8780   21.6770 H   0  0  0  0  0  0  0  0  0  0  0  0
  -18.0310  -28.1400   22.8480 C   0  0  0  0  0  0  0  0  0  0  0  0
  -20.5930  -28.3740   23.1220 C   0  0  0  0  0  3  0  0  0  0  0  0
  -20.6800  -26.9430   22.5400 C   0  0  0  0  0  2  0  0  0  0  0  0
  -19.5760  -26.6380   21.5210 C   0  0  0  0  0  2  0  0  0  0  0  0
  -18.1950  -26.7940   22.1620 C   0  0  0  0  0  2  0  0  0  0  0  0
  -19.1570  -28.8880   23.2840 C   0  0  0  0  0  0  0  0  0  0  0  0
  -18.9480  -30.1480   23.8870 C   0  0  0  0  0  3  0  0  0  0  0  0
  -17.6480  -30.6600   24.0560 C   0  0  0  0  0  3  0  0  0  0  0  0
  -16.5370  -29.9090   23.6340 C   0  0  0  0  0  3  0  0  0  0  0  0
  -16.7300  -28.6510   23.0360 C   0  0  0  0  0  3  0  0  0  0  0  0
  -25.9230  -32.4690   23.8280 C   0  0  0  0  0  3  0  0  0  0  0  0
  -25.5970  -33.8500   24.2190 N   0  0  0  0  0  0  0  0  0  0  0  0
  -25.9080  -34.9400   23.5060 C   0  0  0  0  0  0  0  0  0  0  0  0
  -26.5660  -34.8900   22.4640 O   0  0  0  0  0  0  0  0  0  0  0  0
  -25.0090  -33.9610   25.0320 H   0  0  0  0  0  0  0  0  0  0  0  0
  -24.1490  -36.7250   23.2640 C   0  0  0  0  0  1  0  0  0  0  0  0
  -25.4130  -36.3030   24.0320 C   0  0  0  0  0  3  0  0  0  0  0  0
  -27.5580  -37.1780   24.8460 C   0  0  0  0  0  1  0  0  0  0  0  0
  -26.4280  -37.3750   23.9410 N   0  0  0  0  0  0  0  0  0  0  0  0
  -26.0150  -38.2810   24.1420 H   0  0  0  0  0  0  0  0  0  0  0  0
  -26.4530  -31.6570   25.0730 C   0  0  1  0  0  0  0  0  0  0  0  0
  -25.3700  -31.3780   26.1420 C   0  0  0  0  0  1  0  0  0  0  0  0
  -27.0400  -30.2960   24.6360 C   0  0  0  0  0  1  0  0  0  0  0  0
  -27.6060  -32.4340   25.7520 C   0  0  0  0  0  1  0  0  0  0  0  0
  2  7  1  0
  3  4  1  0
  3  2  1  0
  5  4  1  0
  5 23  1  0
  5  6  1  0
  7  1  1  0
  7  6  1  0
  8  1  2  0
 10  9  2  0
 11  9  1  0
 13 18  1  0
 13 15  2  0
 14 19  1  0
 14 12  2  0
 16 17  1  0
 16 11  2  0
 17 10  1  0
 18 11  1  0
 18 12  1  0
 19  1  1  0
 19 15  1  0
 20 21  2  0
 21 40  1  0
 22 21  1  0
 22 25  1  0
 23 20  1  0
 23 24  1  0
 24 22  2  0
 25 26  1  0
 26 27  2  0
 28 31  1  0
 28 27  1  0
 29 28  2  0
 30 29  1  0
 30 25  2  0
 31 32  1  0
 32 33  1  0
 33 34  2  0
 35 34  1  0
 35 39  1  0
 36 35  2  0
 37 32  2  0
 37 36  1  0
 38 37  1  0
 40 41  1  0
 41 44  1  0
 41 43  1  0
 42 40  2  0
 45 46  1  0
 45 20  1  0
 47 45  1  0
 48 49  1  0
 48 17  1  0
 50 61  2  0
 51 49  1  0
 51 56  1  0
 52 60  1  0
 52 62  1  0
 53 59  1  0
 53 55  1  0
 54 60  1  0
 55 56  2  0
 55 54  1  0
 57 51  2  0
 58 57  1  0
 58 53  2  0
 59 52  1  0
 60 50  1  0
 62 64  2  0
 63 62  1  0
 65 63  1  0
 66 75  2  0
 66 71  1  0
 67 63  1  0
 67 71  1  0
 68 67  1  0
 69 70  1  0
 69 68  1  0
 70 66  1  0
 71 72  2  0
 72 73  1  0
 74 73  2  0
 75 74  1  0
 76 50  1  0
 76 77  1  0
 76 86  1  0
 77 80  1  0
 78 82  1  0
 78 77  1  0
 79 78  2  0
 82 81  1  0
 84 82  1  0
 84 85  1  0
 84 83  1  0
 86 89  1  1
 86 87  1  0
 88 86  1  0
M  ISO  4   1 100  19 100  48 101  49 101
M  END
>  <TORSDO>  (34) 
F 16

>  <SCORE>  (34) 
-15.523

>  <name>  (34) 
33

>  <ligand_id>  (34) 
33

>  <original_smiles>  (34) 
[H]c1c([H])c([H])c2c(c1[H])C([H])([H])C([H])([H])C([H])([H])C2([H])N([H])C(=O)C1([H])N(C(=O)C([H])(N([H])C(=O)C([H])(N([H])C([H])([H])[H])C([H])([H])[H])C(C([H])([H])[H])(C([H])([H])[H])C([H])([H])[H])C([H])([H])c2c([H])c(OC([H])([H])n3nc(N4C([H])([H])C([H])([H])N(C(=O)N5C([H])([H])C([H])([H])C([H])([H])C([H])(n6nc(-c7c([H])c([H])c(Oc8c([H])c([H])c(F)c([H])c8F)c([H])c7[H])c(C(=O)N([H])[H])c6N([H])[H])C5([H])[H])C([H])([H])C4([H])[H])c([H])c3[H])c([H])c([H])c2C1([H])[H]

>  <smiles>  (34) 
[H]c1c([H])c([H])c2c(c1[H])C([H])([H])C([H])([H])C([H])([H])C2([H])N([H])C(=O)C1([H])N(C(=O)C([H])(N([H])C(=O)C([H])(N([H])C([H])([H])[H])C([H])([H])[H])C(C([H])([H])[H])(C([H])([H])[H])C([H])([H])[H])C([H])([H])c2c([H])c(OC([H])([H])n3nc(N4C([H])([H])C([H])([H])N(C(=O)N5C([H])([H])C([H])([H])C([H])([H])C([H])(n6nc(-c7c([H])c([H])c(Oc8c([H])c([H])c(F)c([H])c8F)c([H])c7[H])c(C(=O)N([H])[H])c6N([H])[H])C5([H])[H])C([H])([H])C4([H])[H])c([H])c3[H])c([H])c([H])c2C1([H])[H]

$$$$
34:0:0
     RDKit          3D

 92101  0  0  1  0  0  0  0  0999 V2000
  -26.5770  -21.1820   21.0070 C   0  0  0  0  0  2  0  0  0  0  0  0
  -27.5140  -20.1290   20.4210 C   0  0  0  0  0  2  0  0  0  0  0  0
  -27.0970  -22.5140   20.4760 C   0  0  0  0  0  2  0  0  0  0  0  0
  -28.6820  -20.8890   19.7510 C   0  0  0  0  0  3  0  0  0  0  0  0
  -28.5410  -22.3330   20.1900 N   0  0  1  0  0  4  0  0  0  0  0  0
  -28.9880  -22.4200   21.0900 H   0  0  0  0  0  0  0  0  0  0  0  0
  -30.0480  -20.1620   20.0250 C   0  0  0  0  0  2  0  0  0  0  0  0
  -30.0400  -18.6240   19.6880 C   0  0  0  0  0  2  0  0  0  0  0  0
  -31.6530  -15.2570   19.9390 C   0  0  0  0  0  0  0  0  0  0  0  0
  -31.3530  -12.9670   19.0380 C   0  0  0  0  0  2  0  0  0  0  0  0
  -30.3930  -13.0060   17.8310 C   0  0  0  0  0  2  0  0  0  0  0  0
  -28.9270  -12.9080   18.2910 C   0  0  0  0  0  2  0  0  0  0  0  0
  -28.6010  -13.8870   19.4480 C   0  0  0  0  0  3  0  0  0  0  0  0
  -29.6690  -13.8050   20.5590 C   0  0  0  0  0  2  0  0  0  0  0  0
  -30.9770  -14.0700   19.9400 N   0  0  0  0  0  0  0  0  0  0  0  0
  -32.7480  -15.3810   19.3770 O   0  0  0  0  0  0  0  0  0  0  0  0
  -31.7580  -17.8780   21.5850 C   0  0  0  0  0  2  0  0  0  0  0  0
  -30.9250  -16.6340   21.8560 C   0  0  0  0  0  2  0  0  0  0  0  0
  -31.2830  -17.7960   20.1410 C   0  0  0  0  0  3  0  0  0  0  0  0
  -30.9840  -16.3490   20.4150 N   0  0  0  0  0  0  0  0  0  0  0  0
  -26.2660  -14.5940   20.2580 C   0  0  0  0  0  0  0  0  0  0  0  0
  -25.1740  -13.8700   20.6510 C   0  0  0  0  0  0  0  0  0  0  0  0
  -25.5620  -12.4980   20.5690 C   0  0  0  0  0  0  0  0  0  0  0  0
  -27.2550  -13.6680   19.9720 N   0  0  0  0  0  0  0  0  0  0  0  0
  -26.8380  -12.3980   20.2140 N   0  0  0  0  0  0  0  0  0  0  0  0
  -24.7730  -11.2720   20.7500 C   0  0  0  0  0  0  0  0  0  0  0  0
  -25.0980  -10.3270   21.7490 C   0  0  0  0  0  3  0  0  0  0  0  0
  -24.3170   -9.1650   21.9180 C   0  0  0  0  0  3  0  0  0  0  0  0
  -23.1900   -8.9390   21.0910 C   0  0  0  0  0  0  0  0  0  0  0  0
  -22.8850   -9.8690   20.0810 C   0  0  0  0  0  3  0  0  0  0  0  0
  -23.6690  -11.0240   19.9110 C   0  0  0  0  0  3  0  0  0  0  0  0
  -22.3870   -7.8260   21.1680 O   0  0  0  0  0  0  0  0  0  0  0  0
  -22.1270   -7.2090   22.3650 C   0  0  0  0  0  0  0  0  0  0  0  0
  -21.5030   -7.8880   23.4340 C   0  0  0  0  0  3  0  0  0  0  0  0
  -21.1920   -7.1970   24.6210 C   0  0  0  0  0  3  0  0  0  0  0  0
  -21.4910   -5.8280   24.7390 C   0  0  0  0  0  0  0  0  0  0  0  0
  -22.1060   -5.1460   23.6720 C   0  0  0  0  0  3  0  0  0  0  0  0
  -22.4210   -5.8350   22.4890 C   0  0  0  0  0  0  0  0  0  0  0  0
  -22.9940   -5.1700   21.4570 F   0  0  0  0  0  0  0  0  0  0  0  0
  -21.1830   -5.1610   25.8750 F   0  0  0  0  0  0  0  0  0  0  0  0
  -23.8160  -14.4120   20.9930 C   0  0  0  0  0  0  0  0  0  0  0  0
  -23.0980  -13.7450   21.8880 N   0  0  0  0  0  0  0  0  0  0  0  0
  -23.4060  -15.4620   20.5020 O   0  0  0  0  0  0  0  0  0  0  0  0
  -23.4470  -12.8970   22.3140 H   0  0  0  0  0  0  0  0  0  0  0  0
  -22.1860  -14.0870   22.1560 H   0  0  0  0  0  0  0  0  0  0  0  0
  -26.4950  -15.9570   20.0980 N   0  0  0  0  0  0  0  0  0  0  0  0
  -25.7510  -16.6380   20.1840 H   0  0  0  0  0  0  0  0  0  0  0  0
  -27.3510  -16.3470   19.7240 H   0  0  0  0  0  0  0  0  0  0  0  0
  -29.1570  -23.3850   19.2990 C   0  0  0  0  0  2  0  0  0  0  0  0
  -28.4870  -24.8170   19.1580 C   0  0  0  0  0  2  0  0  0  0  0  0
  -28.8320  -25.9460   20.1870 C   0  0  0  0  0  2  0  0  0  0  0  0
  -28.7260  -27.3190   19.7070 O   0  0  0  0  0  0  0  0  0  0  0  0
  -24.7440  -31.9690   23.4230 C   0  0  0  0  0  0  0  0  0  0  0  0
  -27.5200  -27.9850   19.8410 C   0  0  0  0  0  0  0  0  0  0  0  0
  -23.5610  -30.6640   21.6850 C   0  0  0  0  0  3  0  0  0  0  0  0
  -25.0530  -29.3660   20.0660 C   0  0  0  0  0  0  0  0  0  0  0  0
  -26.0560  -31.1900   21.4470 C   0  0  0  0  0  2  0  0  0  0  0  0
  -26.2000  -29.8930   20.6740 C   0  0  0  0  0  0  0  0  0  0  0  0
  -27.4360  -29.2080   20.5570 C   0  0  0  0  0  3  0  0  0  0  0  0
  -26.3560  -27.4910   19.2170 C   0  0  0  0  0  3  0  0  0  0  0  0
  -25.1280  -28.1690   19.3340 C   0  0  0  0  0  3  0  0  0  0  0  0
  -23.7590  -30.1320   20.2380 C   0  0  0  0  0  2  0  0  0  0  0  0
  -24.8050  -31.2890   22.2440 N   0  0  0  0  0  0  0  0  0  0  0  0
  -23.6710  -32.1120   24.0220 O   0  0  0  0  0  0  0  0  0  0  0  0
  -23.0090  -29.5180   22.5610 C   0  0  0  0  0  0  0  0  0  0  0  0
  -21.7230  -29.1840   22.3680 N   0  0  0  0  0  0  0  0  0  0  0  0
  -23.7370  -28.9320   23.3680 O   0  0  0  0  0  0  0  0  0  0  0  0
  -21.1910  -29.7150   21.6920 H   0  0  0  0  0  0  0  0  0  0  0  0
  -18.5520  -27.4750   22.5670 C   0  0  0  0  0  0  0  0  0  0  0  0
  -21.0070  -28.1080   23.0480 C   0  0  0  0  0  3  0  0  0  0  0  0
  -21.3730  -26.7310   22.4450 C   0  0  0  0  0  2  0  0  0  0  0  0
  -20.4170  -26.2920   21.3350 C   0  0  0  0  0  2  0  0  0  0  0  0
  -18.9860  -26.1970   21.8670 C   0  0  0  0  0  2  0  0  0  0  0  0
  -19.5020  -28.3810   23.1030 C   0  0  0  0  0  0  0  0  0  0  0  0
  -19.0480  -29.5740   23.7070 C   0  0  0  0  0  3  0  0  0  0  0  0
  -17.6730  -29.8640   23.7820 C   0  0  0  0  0  3  0  0  0  0  0  0
  -16.7340  -28.9540   23.2660 C   0  0  0  0  0  3  0  0  0  0  0  0
  -17.1740  -27.7620   22.6650 C   0  0  0  0  0  3  0  0  0  0  0  0
  -26.0110  -32.6130   24.0650 C   0  0  0  0  0  3  0  0  0  0  0  0
  -25.6720  -33.9990   24.4140 N   0  0  0  0  0  0  0  0  0  0  0  0
  -26.0170  -35.0720   23.6910 C   0  0  0  0  0  0  0  0  0  0  0  0
  -26.7220  -35.0010   22.6820 O   0  0  0  0  0  0  0  0  0  0  0  0
  -25.0450  -34.1280   25.1940 H   0  0  0  0  0  0  0  0  0  0  0  0
  -24.2880  -36.8590   23.3070 C   0  0  0  0  0  1  0  0  0  0  0  0
  -25.4960  -36.4440   24.1620 C   0  0  0  0  0  3  0  0  0  0  0  0
  -27.5800  -37.3250   25.1120 C   0  0  0  0  0  1  0  0  0  0  0  0
  -26.5220  -37.5080   24.1230 N   0  0  0  0  0  0  0  0  0  0  0  0
  -26.1030  -38.4210   24.2760 H   0  0  0  0  0  0  0  0  0  0  0  0
  -26.5390  -31.8290   25.3300 C   0  0  1  0  0  0  0  0  0  0  0  0
  -25.4470  -31.5430   26.3870 C   0  0  0  0  0  1  0  0  0  0  0  0
  -27.1560  -30.4740   24.9130 C   0  0  0  0  0  1  0  0  0  0  0  0
  -27.6640  -32.6400   26.0150 C   0  0  0  0  0  1  0  0  0  0  0  0
  2  1  1  0
  3  1  1  0
  4  7  1  0
  4  5  1  0
  4  2  1  0
  5  3  1  0
  5  6  1  1
  8  7  1  0
  9 15  1  0
  9 20  1  0
 10 15  1  0
 11 12  1  0
 11 10  1  0
 13 12  1  0
 13 24  1  0
 13 14  1  0
 15 14  1  0
 16  9  2  0
 17 18  1  0
 19  8  1  0
 19 20  1  0
 19 17  1  0
 20 18  1  0
 21 22  2  0
 22 41  1  0
 23 22  1  0
 23 26  1  0
 24 25  1  0
 24 21  1  0
 25 23  2  0
 26 27  1  0
 27 28  2  0
 29 32  1  0
 29 28  1  0
 30 29  2  0
 31 30  1  0
 31 26  2  0
 32 33  1  0
 33 38  2  0
 33 34  1  0
 34 35  2  0
 35 36  1  0
 36 40  1  0
 37 36  2  0
 38 37  1  0
 39 38  1  0
 41 42  1  0
 42 45  1  0
 42 44  1  0
 43 41  2  0
 46 47  1  0
 46 21  1  0
 48 46  1  0
 49  5  1  0
 50 49  1  0
 50 51  1  0
 52 54  1  0
 52 51  1  0
 53 64  2  0
 54 59  1  0
 55 63  1  0
 55 65  1  0
 56 62  1  0
 56 58  1  0
 57 63  1  0
 58 57  1  0
 59 58  2  0
 60 61  1  0
 60 54  2  0
 61 56  2  0
 62 55  1  0
 63 53  1  0
 65 67  2  0
 66 65  1  0
 68 66  1  0
 69 78  2  0
 69 74  1  0
 70 66  1  0
 70 74  1  0
 71 70  1  0
 72 73  1  0
 72 71  1  0
 73 69  1  0
 74 75  2  0
 75 76  1  0
 77 76  2  0
 78 77  1  0
 79 53  1  0
 79 80  1  0
 79 89  1  0
 80 83  1  0
 81 85  1  0
 81 80  1  0
 82 81  2  0
 85 84  1  0
 87 85  1  0
 87 88  1  0
 87 86  1  0
 89 92  1  1
 89 90  1  0
 91 89  1  0
M  ISO  4   9 100  20 100  51 101  52 101
M  END
>  <TORSDO>  (35) 
F 21

>  <SCORE>  (35) 
-8.759

>  <name>  (35) 
34

>  <ligand_id>  (35) 
34

>  <original_smiles>  (35) 
[H]c1c([H])c([H])c2c(c1[H])C([H])([H])C([H])([H])C([H])([H])C2([H])N([H])C(=O)C1([H])N(C(=O)C([H])(N([H])C(=O)C([H])(N([H])C([H])([H])[H])C([H])([H])[H])C(C([H])([H])[H])(C([H])([H])[H])C([H])([H])[H])C([H])([H])c2c([H])c(OC([H])([H])C([H])([H])C([H])([H])[N+]3([H])C([H])([H])C([H])([H])C([H])([H])C3([H])C([H])([H])C([H])([H])C3([H])N(C(=O)N4C([H])([H])C([H])([H])C([H])([H])C([H])(n5nc(-c6c([H])c([H])c(Oc7c([H])c([H])c(F)c([H])c7F)c([H])c6[H])c(C(=O)N([H])[H])c5N([H])[H])C4([H])[H])C([H])([H])C3([H])[H])c([H])c([H])c2C1([H])[H]

>  <smiles>  (35) 
[H]c1c([H])c([H])c2c(c1[H])C([H])([H])C([H])([H])C([H])([H])C2([H])N([H])C(=O)C1([H])N(C(=O)C([H])(N([H])C(=O)C([H])(N([H])C([H])([H])[H])C([H])([H])[H])C(C([H])([H])[H])(C([H])([H])[H])C([H])([H])[H])C([H])([H])c2c([H])c(OC([H])([H])C([H])([H])C([H])([H])[N+]3([H])C([H])([H])C([H])([H])C([H])([H])C3([H])C([H])([H])C([H])([H])C3([H])N(C(=O)N4C([H])([H])C([H])([H])C([H])([H])C([H])(n5nc(-c6c([H])c([H])c(Oc7c([H])c([H])c(F)c([H])c7F)c([H])c6[H])c(C(=O)N([H])[H])c5N([H])[H])C4([H])[H])C([H])([H])C3([H])[H])c([H])c([H])c2C1([H])[H]

$$$$
35:0:0
     RDKit          3D

 95105  0  0  1  0  0  0  0  0999 V2000
  -31.1840  -21.0650   19.8520 C   0  0  0  0  0  2  0  0  0  0  0  0
  -31.2770  -22.5980   19.7870 C   0  0  0  0  0  2  0  0  0  0  0  0
  -29.0360  -21.9570   19.5360 C   0  0  0  0  0  2  0  0  0  0  0  0
  -29.8680  -20.6770   19.1750 C   0  0  0  0  0  3  0  0  0  0  0  0
  -29.9600  -23.1050   19.3870 N   0  0  0  0  0  0  0  0  0  0  0  0
  -29.2870  -19.3190   19.5610 N   0  0  2  0  0  4  0  0  0  0  0  0
  -28.8380  -19.4400   20.4560 H   0  0  0  0  0  0  0  0  0  0  0  0
  -31.4750  -17.3250   21.3630 C   0  0  0  0  0  2  0  0  0  0  0  0
  -31.4970  -18.6360   20.5910 C   0  0  0  0  0  2  0  0  0  0  0  0
  -30.0420  -17.0960   20.8520 C   0  0  0  0  0  3  0  0  0  0  0  0
  -30.2920  -18.1840   19.7260 C   0  0  0  0  0  3  0  0  0  0  0  0
  -30.4750  -14.6460   19.9690 C   0  0  0  0  0  0  0  0  0  0  0  0
  -30.3060  -12.3130   19.1370 C   0  0  0  0  0  2  0  0  0  0  0  0
  -29.3170  -12.2510   17.9540 C   0  0  0  0  0  2  0  0  0  0  0  0
  -27.8710  -12.0780   18.4570 C   0  0  0  0  0  2  0  0  0  0  0  0
  -27.5090  -13.0750   19.5900 C   0  0  0  0  0  3  0  0  0  0  0  0
  -28.6050  -13.0980   20.6770 C   0  0  0  0  0  2  0  0  0  0  0  0
  -29.8830  -13.4170   20.0170 N   0  0  0  0  0  0  0  0  0  0  0  0
  -31.5590  -14.8180   19.4060 O   0  0  0  0  0  0  0  0  0  0  0  0
  -29.7480  -15.6700   20.4920 N   0  0  0  0  0  0  0  0  0  0  0  0
  -28.8560  -15.3490   20.8380 H   0  0  0  0  0  0  0  0  0  0  0  0
  -25.1690  -13.6770   20.4720 C   0  0  0  0  0  0  0  0  0  0  0  0
  -24.1230  -12.9010   20.8950 C   0  0  0  0  0  0  0  0  0  0  0  0
  -24.5720  -11.5480   20.8020 C   0  0  0  0  0  0  0  0  0  0  0  0
  -26.1900  -12.7950   20.1520 N   0  0  0  0  0  0  0  0  0  0  0  0
  -25.8390  -11.5090   20.4070 N   0  0  0  0  0  0  0  0  0  0  0  0
  -23.8500  -10.2870   21.0110 C   0  0  0  0  0  0  0  0  0  0  0  0
  -24.3180   -9.3100   21.9170 C   0  0  0  0  0  3  0  0  0  0  0  0
  -23.5960   -8.1130   22.1150 C   0  0  0  0  0  3  0  0  0  0  0  0
  -22.3950   -7.8830   21.4040 C   0  0  0  0  0  0  0  0  0  0  0  0
  -21.9450   -8.8480   20.4860 C   0  0  0  0  0  3  0  0  0  0  0  0
  -22.6670  -10.0370   20.2870 C   0  0  0  0  0  3  0  0  0  0  0  0
  -21.6430   -6.7380   21.5130 O   0  0  0  0  0  0  0  0  0  0  0  0
  -21.6090   -6.0040   22.6710 C   0  0  0  0  0  0  0  0  0  0  0  0
  -21.1940   -6.5680   23.8970 C   0  0  0  0  0  3  0  0  0  0  0  0
  -21.1090   -5.7610   25.0490 C   0  0  0  0  0  3  0  0  0  0  0  0
  -21.4290   -4.3920   24.9760 C   0  0  0  0  0  0  0  0  0  0  0  0
  -21.8360   -3.8280   23.7540 C   0  0  0  0  0  3  0  0  0  0  0  0
  -21.9240   -4.6320   22.6050 C   0  0  0  0  0  0  0  0  0  0  0  0
  -22.2970   -4.0800   21.4250 F   0  0  0  0  0  0  0  0  0  0  0  0
  -21.3390   -3.6140   26.0800 F   0  0  0  0  0  0  0  0  0  0  0  0
  -22.7510  -13.3800   21.2710 C   0  0  0  0  0  0  0  0  0  0  0  0
  -22.0830  -12.6760   22.1780 N   0  0  0  0  0  0  0  0  0  0  0  0
  -22.2830  -14.4140   20.7970 O   0  0  0  0  0  0  0  0  0  0  0  0
  -22.4780  -11.8390   22.5820 H   0  0  0  0  0  0  0  0  0  0  0  0
  -21.1660  -12.9780   22.4730 H   0  0  0  0  0  0  0  0  0  0  0  0
  -25.3310  -15.0490   20.3120 N   0  0  0  0  0  0  0  0  0  0  0  0
  -24.5680  -15.6990   20.4670 H   0  0  0  0  0  0  0  0  0  0  0  0
  -26.1440  -15.4820   19.8930 H   0  0  0  0  0  0  0  0  0  0  0  0
  -27.0410  -18.1810   19.1830 C   0  0  0  0  0  2  0  0  0  0  0  0
  -26.8880  -19.6100   18.7290 C   0  0  0  0  0  2  0  0  0  0  0  0
  -28.2310  -18.9150   18.5890 C   0  0  0  0  0  3  0  0  0  0  0  0
  -29.6420  -24.3820   20.0880 C   0  0  0  0  0  2  0  0  0  0  0  0
  -28.5150  -25.2720   19.4710 C   0  0  0  0  0  2  0  0  0  0  0  0
  -28.5450  -26.6560   19.9330 O   0  0  0  0  0  0  0  0  0  0  0  0
  -24.5240  -31.6730   23.0970 C   0  0  0  0  0  0  0  0  0  0  0  0
  -27.3630  -27.3940   19.9000 C   0  0  0  0  0  0  0  0  0  0  0  0
  -23.3960  -30.2950   21.3840 C   0  0  0  0  0  3  0  0  0  0  0  0
  -24.9250  -28.8640   19.9240 C   0  0  0  0  0  0  0  0  0  0  0  0
  -25.9180  -30.7330   21.2490 C   0  0  0  0  0  2  0  0  0  0  0  0
  -26.0610  -29.3890   20.5530 C   0  0  0  0  0  0  0  0  0  0  0  0
  -27.2820  -28.6640   20.5340 C   0  0  0  0  0  3  0  0  0  0  0  0
  -26.2020  -26.9040   19.2550 C   0  0  0  0  0  3  0  0  0  0  0  0
  -24.9940  -27.6230   19.2710 C   0  0  0  0  0  3  0  0  0  0  0  0
  -23.6540  -29.6810   19.9820 C   0  0  0  0  0  2  0  0  0  0  0  0
  -24.6290  -30.9150   21.9680 N   0  0  0  0  0  0  0  0  0  0  0  0
  -23.4240  -31.8880   23.6260 O   0  0  0  0  0  0  0  0  0  0  0  0
  -22.7630  -29.2160   22.2930 C   0  0  0  0  0  0  0  0  0  0  0  0
  -21.4420  -29.0130   22.1550 N   0  0  0  0  0  0  0  0  0  0  0  0
  -23.4580  -28.5650   23.0780 O   0  0  0  0  0  0  0  0  0  0  0  0
  -20.9410  -29.5910   21.4940 H   0  0  0  0  0  0  0  0  0  0  0  0
  -18.0850  -27.7600   22.6270 C   0  0  0  0  0  0  0  0  0  0  0  0
  -20.6440  -28.0240   22.8790 C   0  0  0  0  0  3  0  0  0  0  0  0
  -20.7500  -26.6320   22.2150 C   0  0  0  0  0  2  0  0  0  0  0  0
  -19.6370  -26.3620   21.1980 C   0  0  0  0  0  2  0  0  0  0  0  0
  -18.2630  -26.4550   21.8690 C   0  0  0  0  0  2  0  0  0  0  0  0
  -19.2030  -28.5040   23.0880 C   0  0  0  0  0  0  0  0  0  0  0  0
  -18.9830  -29.7280   23.7570 C   0  0  0  0  0  3  0  0  0  0  0  0
  -17.6770  -30.2060   23.9710 C   0  0  0  0  0  3  0  0  0  0  0  0
  -16.5730  -29.4580   23.5260 C   0  0  0  0  0  3  0  0  0  0  0  0
  -16.7780  -28.2360   22.8600 C   0  0  0  0  0  3  0  0  0  0  0  0
  -25.7740  -32.3250   23.7630 C   0  0  0  0  0  3  0  0  0  0  0  0
  -25.4230  -33.7110   24.1010 N   0  0  0  0  0  0  0  0  0  0  0  0
  -25.7480  -34.7810   23.3640 C   0  0  0  0  0  0  0  0  0  0  0  0
  -26.4470  -34.7070   22.3490 O   0  0  0  0  0  0  0  0  0  0  0  0
  -24.8030  -33.8410   24.8880 H   0  0  0  0  0  0  0  0  0  0  0  0
  -23.9820  -36.5320   22.9920 C   0  0  0  0  0  1  0  0  0  0  0  0
  -25.2150  -36.1510   23.8260 C   0  0  0  0  0  3  0  0  0  0  0  0
  -27.3090  -37.0790   24.7120 C   0  0  0  0  0  1  0  0  0  0  0  0
  -26.2220  -37.2320   23.7480 N   0  0  0  0  0  0  0  0  0  0  0  0
  -25.7900  -38.1390   23.9000 H   0  0  0  0  0  0  0  0  0  0  0  0
  -26.2720  -31.5490   25.0430 C   0  0  1  0  0  0  0  0  0  0  0  0
  -25.1560  -31.2750   26.0780 C   0  0  0  0  0  1  0  0  0  0  0  0
  -26.8950  -30.1880   24.6500 C   0  0  0  0  0  1  0  0  0  0  0  0
  -27.3880  -32.3580   25.7450 C   0  0  0  0  0  1  0  0  0  0  0  0
  2  1  1  0
  4  3  1  0
  4  6  1  0
  4  1  1  0
  5  3  1  0
  5  2  1  0
  5 53  1  0
  6  7  1  1
  9  8  1  0
 10 20  1  0
 10  8  1  0
 11  6  1  0
 11  9  1  0
 11 10  1  0
 12 18  1  0
 12 20  1  0
 13 18  1  0
 14 15  1  0
 14 13  1  0
 16 15  1  0
 16 25  1  0
 16 17  1  0
 18 17  1  0
 19 12  2  0
 20 21  1  0
 22 23  2  0
 23 42  1  0
 24 23  1  0
 24 27  1  0
 25 26  1  0
 25 22  1  0
 26 24  2  0
 27 28  1  0
 28 29  2  0
 30 33  1  0
 30 29  1  0
 31 30  2  0
 32 31  1  0
 32 27  2  0
 33 34  1  0
 34 35  1  0
 35 36  2  0
 37 36  1  0
 37 41  1  0
 38 37  2  0
 39 34  2  0
 39 38  1  0
 40 39  1  0
 42 43  1  0
 43 46  1  0
 43 45  1  0
 44 42  2  0
 47 48  1  0
 47 22  1  0
 49 47  1  0
 51 50  1  0
 52 51  1  0
 52 50  1  0
 52  6  1  0
 54 55  1  0
 54 53  1  0
 56 67  2  0
 57 55  1  0
 57 62  1  0
 58 66  1  0
 58 68  1  0
 59 65  1  0
 59 61  1  0
 60 66  1  0
 61 60  1  0
 62 61  2  0
 63 64  1  0
 63 57  2  0
 64 59  2  0
 65 58  1  0
 66 56  1  0
 68 70  2  0
 69 68  1  0
 71 69  1  0
 72 81  2  0
 72 77  1  0
 73 69  1  0
 73 77  1  0
 74 73  1  0
 75 76  1  0
 75 74  1  0
 76 72  1  0
 77 78  2  0
 78 79  1  0
 80 79  2  0
 81 80  1  0
 82 56  1  0
 82 83  1  0
 82 92  1  0
 83 86  1  0
 84 88  1  0
 84 83  1  0
 85 84  2  0
 88 87  1  0
 90 88  1  0
 90 91  1  0
 90 89  1  0
 92 95  1  1
 92 93  1  0
 94 92  1  0
M  ISO  4  12 100  20 100  54 101  55 101
M  END
>  <TORSDO>  (36) 
F 21

>  <SCORE>  (36) 
-13.227

>  <name>  (36) 
35

>  <ligand_id>  (36) 
35

>  <original_smiles>  (36) 
[H]c1c([H])c([H])c2c(c1[H])C([H])([H])C([H])([H])C([H])([H])C2([H])N([H])C(=O)C1([H])N(C(=O)C([H])(N([H])C(=O)C([H])(N([H])C([H])([H])[H])C([H])([H])[H])C(C([H])([H])[H])(C([H])([H])[H])C([H])([H])[H])C([H])([H])c2c([H])c(OC([H])([H])C([H])([H])N3C([H])([H])C([H])([H])C([H])([N+]([H])(C4([H])C([H])([H])C4([H])[H])C4([H])C([H])([H])C([H])([H])C4([H])N([H])C(=O)N4C([H])([H])C([H])([H])C([H])([H])C([H])(n5nc(-c6c([H])c([H])c(Oc7c([H])c([H])c(F)c([H])c7F)c([H])c6[H])c(C(=O)N([H])[H])c5N([H])[H])C4([H])[H])C3([H])[H])c([H])c([H])c2C1([H])[H]

>  <smiles>  (36) 
[H]c1c([H])c([H])c2c(c1[H])C([H])([H])C([H])([H])C([H])([H])C2([H])N([H])C(=O)C1([H])N(C(=O)C([H])(N([H])C(=O)C([H])(N([H])C([H])([H])[H])C([H])([H])[H])C(C([H])([H])[H])(C([H])([H])[H])C([H])([H])[H])C([H])([H])c2c([H])c(OC([H])([H])C([H])([H])N3C([H])([H])C([H])([H])C([H])([N+]([H])(C4([H])C([H])([H])C4([H])[H])C4([H])C([H])([H])C([H])([H])C4([H])N([H])C(=O)N4C([H])([H])C([H])([H])C([H])([H])C([H])(n5nc(-c6c([H])c([H])c(Oc7c([H])c([H])c(F)c([H])c7F)c([H])c6[H])c(C(=O)N([H])[H])c5N([H])[H])C4([H])[H])C3([H])[H])c([H])c([H])c2C1([H])[H]

$$$$
36:0:0
     RDKit          3D

 90 98  0  0  1  0  0  0  0  0999 V2000
  -28.8310  -22.4700   20.1850 C   0  0  0  0  0  0  0  0  0  0  0  0
  -29.9370  -22.0960   19.2880 C   0  0  0  0  0  0  0  0  0  0  0  0
  -28.2390  -23.7280   20.3310 C   0  0  0  0  0  3  0  0  0  0  0  0
  -28.4790  -21.1000   20.8560 C   0  0  0  0  0  2  0  0  0  0  0  0
  -30.3300  -20.6040   19.4420 C   0  0  0  0  0  2  0  0  0  0  0  0
  -29.1530  -19.9680   20.0880 N   0  0  1  0  0  4  0  0  0  0  0  0
  -30.5150  -22.8480   18.4980 O   0  0  0  0  0  0  0  0  0  0  0  0
  -28.5200  -19.7970   19.3190 H   0  0  0  0  0  0  0  0  0  0  0  0
  -28.4680  -25.1070   19.5660 C   0  0  0  0  0  2  0  0  0  0  0  0
  -28.3350  -26.4300   20.2620 O   0  0  0  0  0  0  0  0  0  0  0  0
  -24.6070  -31.8780   23.2370 C   0  0  0  0  0  0  0  0  0  0  0  0
  -27.2090  -27.2810   20.1750 C   0  0  0  0  0  0  0  0  0  0  0  0
  -23.4030  -30.4840   21.5930 C   0  0  0  0  0  3  0  0  0  0  0  0
  -24.8490  -28.9270   20.1630 C   0  0  0  0  0  0  0  0  0  0  0  0
  -25.9460  -30.7860   21.4150 C   0  0  0  0  0  2  0  0  0  0  0  0
  -26.0190  -29.4050   20.7630 C   0  0  0  0  0  0  0  0  0  0  0  0
  -27.1970  -28.5930   20.7600 C   0  0  0  0  0  3  0  0  0  0  0  0
  -26.0090  -26.8590   19.5600 C   0  0  0  0  0  3  0  0  0  0  0  0
  -24.8490  -27.6620   19.5510 C   0  0  0  0  0  3  0  0  0  0  0  0
  -23.6170  -29.8100   20.2110 C   0  0  0  0  0  2  0  0  0  0  0  0
  -24.6710  -31.0690   22.1370 N   0  0  0  0  0  0  0  0  0  0  0  0
  -23.5230  -32.1580   23.7690 O   0  0  0  0  0  0  0  0  0  0  0  0
  -22.7360  -29.4690   22.5520 C   0  0  0  0  0  0  0  0  0  0  0  0
  -21.4080  -29.2960   22.4250 N   0  0  0  0  0  0  0  0  0  0  0  0
  -23.4120  -28.8420   23.3710 O   0  0  0  0  0  0  0  0  0  0  0  0
  -20.9210  -29.8550   21.7390 H   0  0  0  0  0  0  0  0  0  0  0  0
  -18.0290  -28.1010   22.9200 C   0  0  0  0  0  0  0  0  0  0  0  0
  -20.5870  -28.3600   23.1940 C   0  0  0  0  0  3  0  0  0  0  0  0
  -20.6890  -26.9270   22.6210 C   0  0  0  0  0  2  0  0  0  0  0  0
  -19.5900  -26.6040   21.6040 C   0  0  0  0  0  2  0  0  0  0  0  0
  -18.2050  -26.7510   22.2440 C   0  0  0  0  0  2  0  0  0  0  0  0
  -19.1470  -28.8630   23.3520 C   0  0  0  0  0  0  0  0  0  0  0  0
  -18.9260  -30.1250   23.9440 C   0  0  0  0  0  3  0  0  0  0  0  0
  -17.6210  -30.6260   24.1070 C   0  0  0  0  0  3  0  0  0  0  0  0
  -16.5180  -29.8610   23.6890 C   0  0  0  0  0  3  0  0  0  0  0  0
  -16.7230  -28.6000   23.1030 C   0  0  0  0  0  3  0  0  0  0  0  0
  -25.8890  -32.5100   23.8620 C   0  0  0  0  0  3  0  0  0  0  0  0
  -26.4000  -31.7400   25.1420 C   0  0  1  0  0  0  0  0  0  0  0  0
  -25.3040  -31.5100   26.2090 C   0  0  0  0  0  1  0  0  0  0  0  0
  -26.9800  -30.3590   24.7560 C   0  0  0  0  0  1  0  0  0  0  0  0
  -27.5530  -32.5320   25.8030 C   0  0  0  0  0  1  0  0  0  0  0  0
  -25.5830  -33.9100   24.1910 N   0  0  0  0  0  0  0  0  0  0  0  0
  -25.9140  -34.9620   23.4300 C   0  0  0  0  0  0  0  0  0  0  0  0
  -26.5800  -34.8560   22.3970 O   0  0  0  0  0  0  0  0  0  0  0  0
  -24.9960  -34.0670   24.9970 H   0  0  0  0  0  0  0  0  0  0  0  0
  -24.1900  -36.7600   23.0780 C   0  0  0  0  0  1  0  0  0  0  0  0
  -25.4320  -36.3530   23.8880 C   0  0  0  0  0  3  0  0  0  0  0  0
  -27.5720  -37.2320   24.7110 C   0  0  0  0  0  1  0  0  0  0  0  0
  -26.4680  -37.4030   23.7700 N   0  0  0  0  0  0  0  0  0  0  0  0
  -26.0650  -38.3250   23.9170 H   0  0  0  0  0  0  0  0  0  0  0  0
  -29.3340  -18.5870   20.7720 C   0  0  0  0  0  3  0  0  0  0  0  0
  -29.9300  -17.3180   19.9430 C   0  0  0  0  0  3  0  0  0  0  0  0
  -30.5590  -14.7570   20.2290 C   0  0  0  0  0  0  0  0  0  0  0  0
  -30.3430  -12.4800   19.2270 C   0  0  0  0  0  2  0  0  0  0  0  0
  -29.3840  -12.5720   18.0190 C   0  0  0  0  0  2  0  0  0  0  0  0
  -27.9200  -12.4090   18.4710 C   0  0  0  0  0  2  0  0  0  0  0  0
  -27.5750  -13.2870   19.7040 C   0  0  0  0  0  3  0  0  0  0  0  0
  -28.6520  -13.1750   20.8060 C   0  0  0  0  0  2  0  0  0  0  0  0
  -29.9420  -13.5250   20.1980 N   0  0  0  0  0  0  0  0  0  0  0  0
  -31.7230  -14.8720   19.8380 O   0  0  0  0  0  0  0  0  0  0  0  0
  -29.7740  -15.8790   20.4670 N   0  0  0  0  0  0  0  0  0  0  0  0
  -28.8550  -15.6550   20.8200 H   0  0  0  0  0  0  0  0  0  0  0  0
  -25.2010  -13.8930   20.4680 C   0  0  0  0  0  0  0  0  0  0  0  0
  -24.1380  -13.1260   20.8550 C   0  0  0  0  0  0  0  0  0  0  0  0
  -24.5930  -11.7710   20.8160 C   0  0  0  0  0  0  0  0  0  0  0  0
  -26.2360  -13.0070   20.2140 N   0  0  0  0  0  0  0  0  0  0  0  0
  -25.8780  -11.7260   20.4870 N   0  0  0  0  0  0  0  0  0  0  0  0
  -23.8630  -10.5140   21.0170 C   0  0  0  0  0  0  0  0  0  0  0  0
  -24.3090   -9.5380   21.9340 C   0  0  0  0  0  3  0  0  0  0  0  0
  -23.5800   -8.3450   22.1250 C   0  0  0  0  0  3  0  0  0  0  0  0
  -22.3880   -8.1180   21.3950 C   0  0  0  0  0  0  0  0  0  0  0  0
  -21.9600   -9.0830   20.4660 C   0  0  0  0  0  3  0  0  0  0  0  0
  -22.6900  -10.2670   20.2750 C   0  0  0  0  0  3  0  0  0  0  0  0
  -21.6280   -6.9780   21.4940 O   0  0  0  0  0  0  0  0  0  0  0  0
  -21.6110   -6.2210   22.6380 C   0  0  0  0  0  0  0  0  0  0  0  0
  -21.2350   -6.7660   23.8860 C   0  0  0  0  0  3  0  0  0  0  0  0
  -21.1630   -5.9370   25.0240 C   0  0  0  0  0  3  0  0  0  0  0  0
  -21.4570   -4.5640   24.9140 C   0  0  0  0  0  0  0  0  0  0  0  0
  -21.8260   -4.0190   23.6720 C   0  0  0  0  0  3  0  0  0  0  0  0
  -21.9000   -4.8460   22.5380 C   0  0  0  0  0  0  0  0  0  0  0  0
  -22.2350   -4.3110   21.3380 F   0  0  0  0  0  0  0  0  0  0  0  0
  -21.3810   -3.7660   26.0050 F   0  0  0  0  0  0  0  0  0  0  0  0
  -22.7460  -13.6100   21.1450 C   0  0  0  0  0  0  0  0  0  0  0  0
  -22.0270  -12.9210   22.0230 N   0  0  0  0  0  0  0  0  0  0  0  0
  -22.3070  -14.6370   20.6290 O   0  0  0  0  0  0  0  0  0  0  0  0
  -22.3940  -12.0910   22.4640 H   0  0  0  0  0  0  0  0  0  0  0  0
  -21.0940  -13.2310   22.2580 H   0  0  0  0  0  0  0  0  0  0  0  0
  -25.3690  -15.2640   20.2850 N   0  0  0  0  0  0  0  0  0  0  0  0
  -24.6020  -15.9160   20.4090 H   0  0  0  0  0  0  0  0  0  0  0  0
  -26.1950  -15.6940   19.8920 H   0  0  0  0  0  0  0  0  0  0  0  0
  1  3  2  0
  1  4  1  0
  2  5  1  0
  2  1  1  0
  5  6  1  0
  6 51  1  0
  6  4  1  0
  7  2  2  0
  6  8  1  6
  9 10  1  0
  9  3  1  0
 11 22  2  0
 12 10  1  0
 12 17  1  0
 13 21  1  0
 13 23  1  0
 14 20  1  0
 14 16  1  0
 15 21  1  0
 16 15  1  0
 17 16  2  0
 18 12  2  0
 19 18  1  0
 19 14  2  0
 20 13  1  0
 21 11  1  0
 23 25  2  0
 24 23  1  0
 26 24  1  0
 27 36  2  0
 27 32  1  0
 28 24  1  0
 28 32  1  0
 29 28  1  0
 30 31  1  0
 30 29  1  0
 31 27  1  0
 32 33  2  0
 33 34  1  0
 35 34  2  0
 36 35  1  0
 37 11  1  0
 37 42  1  0
 37 38  1  0
 38 41  1  1
 38 39  1  0
 40 38  1  0
 42 45  1  0
 43 47  1  0
 43 42  1  0
 44 43  2  0
 47 46  1  0
 49 47  1  0
 49 50  1  0
 49 48  1  0
 52 61  1  0
 52 51  2  0
 53 61  1  0
 54 59  1  0
 55 56  1  0
 55 54  1  0
 57 56  1  0
 57 66  1  0
 57 58  1  0
 59 53  1  0
 59 58  1  0
 60 53  2  0
 61 62  1  0
 63 64  2  0
 64 83  1  0
 65 64  1  0
 65 68  1  0
 66 63  1  0
 66 67  1  0
 67 65  2  0
 68 69  1  0
 69 70  2  0
 71 74  1  0
 71 70  1  0
 72 71  2  0
 73 72  1  0
 73 68  2  0
 74 75  1  0
 75 76  1  0
 76 77  2  0
 78 77  1  0
 78 82  1  0
 79 78  2  0
 80 75  2  0
 80 79  1  0
 81 80  1  0
 83 84  1  0
 84 87  1  0
 84 86  1  0
 85 83  2  0
 88 89  1  0
 88 63  1  0
 90 88  1  0
M  ISO  4   9 101  10 101  53 100  61 100
M  END
>  <TORSDO>  (37) 
F 19

>  <SCORE>  (37) 
-14.120

>  <name>  (37) 
36

>  <ligand_id>  (37) 
36

>  <original_smiles>  (37) 
[H]C(=C1C(=O)C([H])([H])[N+]([H])(C([H])([H])C([H])([H])N([H])C(=O)N2C([H])([H])C([H])([H])C([H])([H])C([H])(n3nc(-c4c([H])c([H])c(Oc5c([H])c([H])c(F)c([H])c5F)c([H])c4[H])c(C(=O)N([H])[H])c3N([H])[H])C2([H])[H])C1([H])[H])C([H])([H])Oc1c([H])c([H])c2c(c1[H])C([H])([H])N(C(=O)C([H])(N([H])C(=O)C([H])(N([H])C([H])([H])[H])C([H])([H])[H])C(C([H])([H])[H])(C([H])([H])[H])C([H])([H])[H])C([H])(C(=O)N([H])C1([H])c3c([H])c([H])c([H])c([H])c3C([H])([H])C([H])([H])C1([H])[H])C2([H])[H]

>  <smiles>  (37) 
[H]C(=C1C(=O)C([H])([H])[N+]([H])(C([H])([H])C([H])([H])N([H])C(=O)N2C([H])([H])C([H])([H])C([H])([H])C([H])(n3nc(-c4c([H])c([H])c(Oc5c([H])c([H])c(F)c([H])c5F)c([H])c4[H])c(C(=O)N([H])[H])c3N([H])[H])C2([H])[H])C1([H])[H])C([H])([H])Oc1c([H])c([H])c2c(c1[H])C([H])([H])N(C(=O)C([H])(N([H])C(=O)C([H])(N([H])C([H])([H])[H])C([H])([H])[H])C(C([H])([H])[H])(C([H])([H])[H])C([H])([H])[H])C([H])(C(=O)N([H])C1([H])c3c([H])c([H])c([H])c([H])c3C([H])([H])C([H])([H])C1([H])[H])C2([H])[H]

$$$$
37:0:0
     RDKit          3D

 94104  0  0  1  0  0  0  0  0999 V2000
  -26.8110  -19.7310   20.3010 C   0  0  0  0  0  2  0  0  0  0  0  0
  -27.2060  -20.9140   19.7480 C   0  0  0  0  0  3  0  0  0  0  0  0
  -29.0060  -19.5880   20.0110 C   0  0  0  0  0  3  0  0  0  0  0  0
  -28.6170  -20.9200   19.7350 N   0  0  0  0  0  0  0  0  0  0  0  0
  -27.9080  -18.9680   20.4440 N   0  0  0  0  0  0  0  0  0  0  0  0
  -27.8900  -18.0180   20.7930 H   0  0  0  0  0  0  0  0  0  0  0  0
  -31.2820  -14.8670   20.1710 C   0  0  0  0  0  0  0  0  0  0  0  0
  -31.0310  -12.5040   19.3790 C   0  0  0  0  0  2  0  0  0  0  0  0
  -30.1270  -12.4470   18.1290 C   0  0  0  0  0  2  0  0  0  0  0  0
  -28.6500  -12.3270   18.5450 C   0  0  0  0  0  2  0  0  0  0  0  0
  -28.2570  -13.3470   19.6460 C   0  0  0  0  0  3  0  0  0  0  0  0
  -29.2880  -13.3960   20.7950 C   0  0  0  0  0  2  0  0  0  0  0  0
  -30.6010  -13.6660   20.1970 N   0  0  0  0  0  0  0  0  0  0  0  0
  -32.4540  -14.8790   19.7810 O   0  0  0  0  0  0  0  0  0  0  0  0
  -30.8130  -18.3850   21.4300 C   0  0  0  0  0  2  0  0  0  0  0  0
  -31.2840  -16.9100   21.5400 C   0  0  0  0  0  2  0  0  0  0  0  0
  -30.0700  -17.0980   19.5500 C   0  0  0  0  0  2  0  0  0  0  0  0
  -30.2640  -18.6350   20.0160 C   0  0  0  0  0  3  0  0  0  0  0  0
  -30.6500  -16.0710   20.5080 N   0  0  0  0  0  0  0  0  0  0  0  0
  -25.9060  -14.0440   20.3890 C   0  0  0  0  0  0  0  0  0  0  0  0
  -24.8020  -13.3190   20.7470 C   0  0  0  0  0  0  0  0  0  0  0  0
  -25.1940  -11.9470   20.6930 C   0  0  0  0  0  0  0  0  0  0  0  0
  -26.9020  -13.1170   20.1360 N   0  0  0  0  0  0  0  0  0  0  0  0
  -26.4820  -11.8490   20.3820 N   0  0  0  0  0  0  0  0  0  0  0  0
  -24.4030  -10.7200   20.8590 C   0  0  0  0  0  0  0  0  0  0  0  0
  -24.7280   -9.7600   21.8420 C   0  0  0  0  0  3  0  0  0  0  0  0
  -23.9410   -8.5990   21.9970 C   0  0  0  0  0  3  0  0  0  0  0  0
  -22.8130   -8.3920   21.1650 C   0  0  0  0  0  0  0  0  0  0  0  0
  -22.5070   -9.3400   20.1750 C   0  0  0  0  0  3  0  0  0  0  0  0
  -23.2960  -10.4920   20.0190 C   0  0  0  0  0  3  0  0  0  0  0  0
  -22.0040   -7.2820   21.2260 O   0  0  0  0  0  0  0  0  0  0  0  0
  -21.7790   -6.6190   22.4060 C   0  0  0  0  0  0  0  0  0  0  0  0
  -21.1760   -7.2560   23.5150 C   0  0  0  0  0  3  0  0  0  0  0  0
  -20.9000   -6.5190   24.6840 C   0  0  0  0  0  3  0  0  0  0  0  0
  -21.2140   -5.1470   24.7440 C   0  0  0  0  0  0  0  0  0  0  0  0
  -21.8080   -4.5120   23.6390 C   0  0  0  0  0  3  0  0  0  0  0  0
  -22.0860   -5.2460   22.4730 C   0  0  0  0  0  0  0  0  0  0  0  0
  -22.6390   -4.6230   21.4040 F   0  0  0  0  0  0  0  0  0  0  0  0
  -20.9410   -4.4380   25.8640 F   0  0  0  0  0  0  0  0  0  0  0  0
  -23.4300  -13.8650   21.0230 C   0  0  0  0  0  0  0  0  0  0  0  0
  -22.6690  -13.2000   21.8860 N   0  0  0  0  0  0  0  0  0  0  0  0
  -23.0470  -14.9150   20.5110 O   0  0  0  0  0  0  0  0  0  0  0  0
  -22.9940  -12.3470   22.3180 H   0  0  0  0  0  0  0  0  0  0  0  0
  -21.7510  -13.5480   22.1200 H   0  0  0  0  0  0  0  0  0  0  0  0
  -26.1440  -15.4070   20.2330 N   0  0  0  0  0  0  0  0  0  0  0  0
  -25.3960  -16.0880   20.2990 H   0  0  0  0  0  0  0  0  0  0  0  0
  -26.9820  -15.7750   19.8020 H   0  0  0  0  0  0  0  0  0  0  0  0
  -26.3720  -22.9870   18.2520 C   0  0  0  0  0  2  0  0  0  0  0  0
  -26.0250  -23.2900   19.7120 C   0  0  0  0  0  2  0  0  0  0  0  0
  -26.1660  -21.8800   19.2390 C   0  0  0  0  0  3  0  0  0  0  0  0
  -29.4920  -22.1400   19.3050 C   0  0  0  0  0  2  0  0  0  0  0  0
  -29.5140  -23.6120   20.0690 C   0  0  0  0  0  3  0  0  0  0  0  0
  -28.9190  -25.0020   19.4270 C   0  0  0  0  0  3  0  0  0  0  0  0
  -29.0110  -26.4070   20.0020 O   0  0  0  0  0  0  0  0  0  0  0  0
  -24.9230  -31.4250   23.3460 C   0  0  0  0  0  0  0  0  0  0  0  0
  -27.8980  -27.2970   19.9440 C   0  0  0  0  0  0  0  0  0  0  0  0
  -23.8780  -30.1700   21.5020 C   0  0  0  0  0  3  0  0  0  0  0  0
  -25.4730  -28.8630   19.9840 C   0  0  0  0  0  0  0  0  0  0  0  0
  -26.4110  -30.5960   21.5030 C   0  0  0  0  0  2  0  0  0  0  0  0
  -26.5890  -29.3020   20.7070 C   0  0  0  0  0  0  0  0  0  0  0  0
  -27.8000  -28.5280   20.6870 C   0  0  0  0  0  3  0  0  0  0  0  0
  -26.7650  -26.9710   19.1590 C   0  0  0  0  0  3  0  0  0  0  0  0
  -25.5690  -27.7080   19.2010 C   0  0  0  0  0  3  0  0  0  0  0  0
  -24.1960  -29.6740   20.0680 C   0  0  0  0  0  2  0  0  0  0  0  0
  -25.0870  -30.7450   22.1750 N   0  0  0  0  0  0  0  0  0  0  0  0
  -23.8010  -31.5920   23.8460 O   0  0  0  0  0  0  0  0  0  0  0  0
  -23.2210  -29.0200   22.3050 C   0  0  0  0  0  0  0  0  0  0  0  0
  -21.9110  -28.8040   22.0950 N   0  0  0  0  0  0  0  0  0  0  0  0
  -23.8920  -28.3330   23.0790 O   0  0  0  0  0  0  0  0  0  0  0  0
  -21.4260  -29.4130   21.4520 H   0  0  0  0  0  0  0  0  0  0  0  0
  -18.5720  -27.4210   22.3110 C   0  0  0  0  0  0  0  0  0  0  0  0
  -21.1050  -27.7490   22.7140 C   0  0  0  0  0  3  0  0  0  0  0  0
  -21.2920  -26.3990   21.9800 C   0  0  0  0  0  2  0  0  0  0  0  0
  -20.2430  -26.1560   20.8920 C   0  0  0  0  0  2  0  0  0  0  0  0
  -18.8320  -26.1700   21.4890 C   0  0  0  0  0  2  0  0  0  0  0  0
  -19.6400  -28.1700   22.8750 C   0  0  0  0  0  0  0  0  0  0  0  0
  -19.3430  -29.3420   23.6030 C   0  0  0  0  0  3  0  0  0  0  0  0
  -18.0110  -29.7680   23.7750 C   0  0  0  0  0  3  0  0  0  0  0  0
  -16.9590  -29.0150   23.2260 C   0  0  0  0  0  3  0  0  0  0  0  0
  -17.2390  -27.8430   22.5010 C   0  0  0  0  0  3  0  0  0  0  0  0
  -26.1380  -32.0450   24.1030 C   0  0  0  0  0  3  0  0  0  0  0  0
  -26.5540  -31.2230   25.3840 C   0  0  1  0  0  0  0  0  0  0  0  0
  -25.3810  -30.9360   26.3500 C   0  0  0  0  0  1  0  0  0  0  0  0
  -27.1790  -29.8650   24.9880 C   0  0  0  0  0  1  0  0  0  0  0  0
  -27.6410  -31.9940   26.1690 C   0  0  0  0  0  1  0  0  0  0  0  0
  -25.7750  -33.4230   24.4690 N   0  0  0  0  0  0  0  0  0  0  0  0
  -26.1570  -34.5160   23.7960 C   0  0  0  0  0  0  0  0  0  0  0  0
  -26.9180  -34.4710   22.8250 O   0  0  0  0  0  0  0  0  0  0  0  0
  -25.1070  -33.5290   25.2180 H   0  0  0  0  0  0  0  0  0  0  0  0
  -24.4360  -36.3030   23.3830 C   0  0  0  0  0  1  0  0  0  0  0  0
  -25.6100  -35.8740   24.2770 C   0  0  0  0  0  3  0  0  0  0  0  0
  -27.6440  -36.7520   25.3360 C   0  0  0  0  0  1  0  0  0  0  0  0
  -26.6310  -36.9440   24.3020 N   0  0  0  0  0  0  0  0  0  0  0  0
  -26.1980  -37.8510   24.4470 H   0  0  0  0  0  0  0  0  0  0  0  0
  1  5  1  0
  2 50  1  0
  2  1  1  0
  3  4  1  0
  3 18  1  0
  3  5  1  0
  4  2  1  0
  5  6  1  0
  7 13  1  0
  7 19  1  0
  8 13  1  0
  9 10  1  0
  9  8  1  0
 11 10  1  0
 11 23  1  0
 11 12  1  0
 13 12  1  0
 14  7  2  0
 15 16  1  0
 17 19  1  0
 18 17  1  0
 18 15  1  0
 19 16  1  0
 20 21  2  0
 21 40  1  0
 22 21  1  0
 22 25  1  0
 23 24  1  0
 23 20  1  0
 24 22  2  0
 25 26  1  0
 26 27  2  0
 28 31  1  0
 28 27  1  0
 29 28  2  0
 30 29  1  0
 30 25  2  0
 31 32  1  0
 32 37  2  0
 32 33  1  0
 33 34  2  0
 34 35  1  0
 35 39  1  0
 36 35  2  0
 37 36  1  0
 38 37  1  0
 40 41  1  0
 41 44  1  0
 41 43  1  0
 42 40  2  0
 45 46  1  0
 45 20  1  0
 47 45  1  0
 48 50  1  0
 48 49  1  0
 50 49  1  0
 51  4  1  0
 51 52  1  0
 53 54  1  0
 53 52  2  0
 55 66  2  0
 56 54  1  0
 56 61  1  0
 57 65  1  0
 57 67  1  0
 58 64  1  0
 58 60  1  0
 59 65  1  0
 60 59  1  0
 61 60  2  0
 62 63  1  0
 62 56  2  0
 63 58  2  0
 64 57  1  0
 65 55  1  0
 67 69  2  0
 68 67  1  0
 70 68  1  0
 71 80  2  0
 71 76  1  0
 72 68  1  0
 72 76  1  0
 73 72  1  0
 74 75  1  0
 74 73  1  0
 75 71  1  0
 76 77  2  0
 77 78  1  0
 79 78  2  0
 80 79  1  0
 81 55  1  0
 81 86  1  0
 81 82  1  0
 82 85  1  1
 82 83  1  0
 84 82  1  0
 86 89  1  0
 87 91  1  0
 87 86  1  0
 88 87  2  0
 91 90  1  0
 91 93  1  0
 93 94  1  0
 93 92  1  0
M  ISO  4   7 100  19 100  53 101  54 101
M  END
>  <TORSDO>  (38) 
F 20

>  <SCORE>  (38) 
-11.082

>  <name>  (38) 
37

>  <ligand_id>  (38) 
37

>  <original_smiles>  (38) 
[H]c1c([H])c([H])c2c(c1[H])C([H])([H])C([H])([H])C([H])([H])C2([H])N([H])C(=O)C1([H])N(C(=O)C([H])(N([H])C(=O)C([H])(N([H])C([H])([H])[H])C([H])([H])[H])C(C([H])([H])[H])(C([H])([H])[H])C([H])([H])[H])C([H])([H])c2c([H])c(OC([H])([H])C([H])([H])C([H])([H])n3c(C4([H])C([H])([H])C4([H])[H])c([H])[n+]([H])c3C3([H])C([H])([H])N(C(=O)N4C([H])([H])C([H])([H])C([H])([H])C([H])(n5nc(-c6c([H])c([H])c(Oc7c([H])c([H])c(F)c([H])c7F)c([H])c6[H])c(C(=O)N([H])[H])c5N([H])[H])C4([H])[H])C([H])([H])C3([H])[H])c([H])c([H])c2C1([H])[H]

>  <smiles>  (38) 
[H]c1c([H])c([H])c2c(c1[H])C([H])([H])C([H])([H])C([H])([H])C2([H])N([H])C(=O)C1([H])N(C(=O)C([H])(N([H])C(=O)C([H])(N([H])C([H])([H])[H])C([H])([H])[H])C(C([H])([H])[H])(C([H])([H])[H])C([H])([H])[H])C([H])([H])c2c([H])c(OC([H])([H])C([H])([H])C([H])([H])n3c(C4([H])C([H])([H])C4([H])[H])c([H])[n+]([H])c3C3([H])C([H])([H])N(C(=O)N4C([H])([H])C([H])([H])C([H])([H])C([H])(n5nc(-c6c([H])c([H])c(Oc7c([H])c([H])c(F)c([H])c7F)c([H])c6[H])c(C(=O)N([H])[H])c5N([H])[H])C4([H])[H])C([H])([H])C3([H])[H])c([H])c([H])c2C1([H])[H]

$$$$
38:0:0
     RDKit          3D

 93102  0  0  1  0  0  0  0  0999 V2000
  -28.0560  -23.8770   21.4220 C   0  0  0  0  0  3  0  0  0  0  0  0
  -28.4970  -25.5840   20.3490 C   0  0  0  0  0  0  0  0  0  0  0  0
  -27.4010  -22.8570   22.2930 C   0  0  0  0  0  1  0  0  0  0  0  0
  -27.4880  -25.0370   21.0900 N   0  0  0  0  0  0  0  0  0  0  0  0
  -29.6020  -24.8520   20.2080 N   0  0  0  0  0  0  0  0  0  0  0  0
  -29.2990  -23.7280   20.9250 N   0  0  0  0  0  0  0  0  0  0  0  0
  -28.4200  -26.8590   19.7990 O   0  0  0  0  0  0  0  0  0  0  0  0
  -24.5300  -31.7910   23.1950 C   0  0  0  0  0  0  0  0  0  0  0  0
  -27.2380  -27.5740   19.8630 C   0  0  0  0  0  0  0  0  0  0  0  0
  -23.3250  -30.4040   21.5380 C   0  0  0  0  0  3  0  0  0  0  0  0
  -24.7900  -28.9880   20.0000 C   0  0  0  0  0  0  0  0  0  0  0  0
  -25.8250  -30.8740   21.2720 C   0  0  0  0  0  2  0  0  0  0  0  0
  -25.9450  -29.5320   20.5780 C   0  0  0  0  0  0  0  0  0  0  0  0
  -27.1720  -28.8320   20.5110 C   0  0  0  0  0  3  0  0  0  0  0  0
  -26.0710  -27.0600   19.2570 C   0  0  0  0  0  3  0  0  0  0  0  0
  -24.8480  -27.7500   19.3370 C   0  0  0  0  0  3  0  0  0  0  0  0
  -23.5140  -29.7900   20.1260 C   0  0  0  0  0  2  0  0  0  0  0  0
  -24.5800  -31.0370   22.0600 N   0  0  0  0  0  0  0  0  0  0  0  0
  -23.4580  -31.9960   23.7830 O   0  0  0  0  0  0  0  0  0  0  0  0
  -22.7500  -29.3190   22.4780 C   0  0  0  0  0  0  0  0  0  0  0  0
  -21.4360  -29.0650   22.3670 N   0  0  0  0  0  0  0  0  0  0  0  0
  -23.4830  -28.7120   23.2620 O   0  0  0  0  0  0  0  0  0  0  0  0
  -20.9020  -29.6120   21.7060 H   0  0  0  0  0  0  0  0  0  0  0  0
  -18.1540  -27.6320   22.8480 C   0  0  0  0  0  0  0  0  0  0  0  0
  -20.6890  -28.0600   23.1230 C   0  0  0  0  0  3  0  0  0  0  0  0
  -20.8880  -26.6490   22.5230 C   0  0  0  0  0  2  0  0  0  0  0  0
  -19.8100  -26.2700   21.5030 C   0  0  0  0  0  2  0  0  0  0  0  0
  -18.4220  -26.3090   22.1500 C   0  0  0  0  0  2  0  0  0  0  0  0
  -19.2180  -28.4610   23.2910 C   0  0  0  0  0  0  0  0  0  0  0  0
  -18.9150  -29.6960   23.9030 C   0  0  0  0  0  3  0  0  0  0  0  0
  -17.5800  -30.1050   24.0770 C   0  0  0  0  0  3  0  0  0  0  0  0
  -16.5300  -29.2740   23.6510 C   0  0  0  0  0  3  0  0  0  0  0  0
  -16.8180  -28.0390   23.0420 C   0  0  0  0  0  3  0  0  0  0  0  0
  -25.8100  -32.4510   23.7940 C   0  0  0  0  0  3  0  0  0  0  0  0
  -26.3720  -31.6870   25.0570 C   0  0  1  0  0  0  0  0  0  0  0  0
  -25.3050  -31.4170   26.1440 C   0  0  0  0  0  1  0  0  0  0  0  0
  -26.9820  -30.3270   24.6450 C   0  0  0  0  0  1  0  0  0  0  0  0
  -27.5130  -32.5070   25.7010 C   0  0  0  0  0  1  0  0  0  0  0  0
  -25.4740  -33.8400   24.1350 N   0  0  0  0  0  0  0  0  0  0  0  0
  -25.7930  -34.9030   23.3860 C   0  0  0  0  0  0  0  0  0  0  0  0
  -26.4720  -34.8210   22.3590 O   0  0  0  0  0  0  0  0  0  0  0  0
  -24.8710  -33.9770   24.9320 H   0  0  0  0  0  0  0  0  0  0  0  0
  -24.0520  -36.6800   23.0100 C   0  0  0  0  0  1  0  0  0  0  0  0
  -25.2760  -36.2790   23.8500 C   0  0  0  0  0  3  0  0  0  0  0  0
  -27.3730  -37.1800   24.7540 C   0  0  0  0  0  1  0  0  0  0  0  0
  -26.2970  -37.3450   23.7800 N   0  0  0  0  0  0  0  0  0  0  0  0
  -25.8750  -38.2590   23.9270 H   0  0  0  0  0  0  0  0  0  0  0  0
  -30.3150  -22.6930   21.1650 C   0  0  0  0  0  2  0  0  0  0  0  0
  -30.1160  -21.3160   20.4620 C   0  0  0  0  0  2  0  0  0  0  0  0
  -29.5230  -20.1810   21.3510 C   0  0  0  0  0  2  0  0  0  0  0  0
  -30.9420  -14.7440   20.0930 C   0  0  0  0  0  0  0  0  0  0  0  0
  -30.5680  -12.5420   19.0240 C   0  0  0  0  0  2  0  0  0  0  0  0
  -29.5940  -12.6720   17.8370 C   0  0  0  0  0  2  0  0  0  0  0  0
  -28.1390  -12.5160   18.3180 C   0  0  0  0  0  2  0  0  0  0  0  0
  -27.8270  -13.4020   19.5490 C   0  0  0  0  0  3  0  0  0  0  0  0
  -28.9240  -13.2620   20.6370 C   0  0  0  0  0  2  0  0  0  0  0  0
  -30.2150  -13.5840   20.0120 N   0  0  0  0  0  0  0  0  0  0  0  0
  -32.0650  -14.7970   19.5810 O   0  0  0  0  0  0  0  0  0  0  0  0
  -29.1220  -16.4330   20.3640 C   0  0  0  0  0  2  0  0  0  0  0  0
  -31.4630  -16.8420   21.1960 C   0  0  0  0  0  2  0  0  0  0  0  0
  -28.7600  -17.8560   20.8710 C   0  0  0  0  0  2  0  0  0  0  0  0
  -30.9620  -18.1930   21.7520 C   0  0  0  0  0  2  0  0  0  0  0  0
  -30.4450  -15.8600   20.7270 N   0  0  0  0  0  0  0  0  0  0  0  0
  -29.9010  -18.7950   20.9140 N   0  0  2  0  0  4  0  0  0  0  0  0
  -30.2540  -18.8700   19.9720 H   0  0  0  0  0  0  0  0  0  0  0  0
  -25.4770  -14.0440   20.3710 C   0  0  0  0  0  0  0  0  0  0  0  0
  -24.4120  -13.2840   20.7740 C   0  0  0  0  0  0  0  0  0  0  0  0
  -24.8470  -11.9250   20.6980 C   0  0  0  0  0  0  0  0  0  0  0  0
  -26.4940  -13.1470   20.0800 N   0  0  0  0  0  0  0  0  0  0  0  0
  -26.1230  -11.8680   20.3360 N   0  0  0  0  0  0  0  0  0  0  0  0
  -24.1080  -10.6730   20.8890 C   0  0  0  0  0  0  0  0  0  0  0  0
  -24.4930   -9.7330   21.8700 C   0  0  0  0  0  3  0  0  0  0  0  0
  -23.7570   -8.5420   22.0460 C   0  0  0  0  0  3  0  0  0  0  0  0
  -22.6210   -8.2840   21.2430 C   0  0  0  0  0  0  0  0  0  0  0  0
  -22.2570   -9.2120   20.2510 C   0  0  0  0  0  3  0  0  0  0  0  0
  -22.9950  -10.3950   20.0720 C   0  0  0  0  0  3  0  0  0  0  0  0
  -21.8600   -7.1440   21.3270 O   0  0  0  0  0  0  0  0  0  0  0  0
  -21.6720   -6.4920   22.5190 C   0  0  0  0  0  0  0  0  0  0  0  0
  -21.0870   -7.1300   23.6340 C   0  0  0  0  0  3  0  0  0  0  0  0
  -20.8480   -6.4040   24.8180 C   0  0  0  0  0  3  0  0  0  0  0  0
  -21.1830   -5.0380   24.8850 C   0  0  0  0  0  0  0  0  0  0  0  0
  -21.7620   -4.3990   23.7730 C   0  0  0  0  0  3  0  0  0  0  0  0
  -22.0020   -5.1240   22.5930 C   0  0  0  0  0  0  0  0  0  0  0  0
  -22.5400   -4.4980   21.5190 F   0  0  0  0  0  0  0  0  0  0  0  0
  -20.9470   -4.3360   26.0180 F   0  0  0  0  0  0  0  0  0  0  0  0
  -23.0350  -13.7800   21.1090 C   0  0  0  0  0  0  0  0  0  0  0  0
  -22.3320  -13.0820   21.9930 N   0  0  0  0  0  0  0  0  0  0  0  0
  -22.5960  -14.8210   20.6230 O   0  0  0  0  0  0  0  0  0  0  0  0
  -22.7030  -12.2400   22.4090 H   0  0  0  0  0  0  0  0  0  0  0  0
  -21.4100  -13.3950   22.2610 H   0  0  0  0  0  0  0  0  0  0  0  0
  -25.6530  -15.4150   20.2020 N   0  0  0  0  0  0  0  0  0  0  0  0
  -24.8760  -16.0570   20.3110 H   0  0  0  0  0  0  0  0  0  0  0  0
  -26.4380  -15.8220   19.7150 H   0  0  0  0  0  0  0  0  0  0  0  0
  1  3  1  0
  2  4  2  0
  4  1  1  0
  5  2  2  0
  5  6  1  0
  6 48  1  0
  6  1  1  0
  7  9  1  0
  7  2  1  0
  8 19  2  0
  9 14  1  0
 10 18  1  0
 10 20  1  0
 11 17  1  0
 11 13  1  0
 12 18  1  0
 13 12  1  0
 14 13  2  0
 15 16  1  0
 15  9  2  0
 16 11  2  0
 17 10  1  0
 18  8  1  0
 20 22  2  0
 21 20  1  0
 23 21  1  0
 24 33  2  0
 24 29  1  0
 25 21  1  0
 25 29  1  0
 26 25  1  0
 27 28  1  0
 27 26  1  0
 28 24  1  0
 29 30  2  0
 30 31  1  0
 32 31  2  0
 33 32  1  0
 34  8  1  0
 34 39  1  0
 34 35  1  0
 35 38  1  1
 35 36  1  0
 37 35  1  0
 39 42  1  0
 40 44  1  0
 40 39  1  0
 41 40  2  0
 44 43  1  0
 46 44  1  0
 46 47  1  0
 46 45  1  0
 49 48  1  0
 49 50  1  0
 51 63  1  0
 52 57  1  0
 53 54  1  0
 53 52  1  0
 55 54  1  0
 55 69  1  0
 55 56  1  0
 57 51  1  0
 57 56  1  0
 58 51  2  0
 59 63  1  0
 59 61  1  0
 60 62  1  0
 61 64  1  0
 63 60  1  0
 64 50  1  0
 64 62  1  0
 64 65  1  6
 66 67  2  0
 67 86  1  0
 68 67  1  0
 68 71  1  0
 69 70  1  0
 69 66  1  0
 70 68  2  0
 71 72  1  0
 72 73  2  0
 74 77  1  0
 74 73  1  0
 75 74  2  0
 76 75  1  0
 76 71  2  0
 77 78  1  0
 78 83  2  0
 78 79  1  0
 79 80  2  0
 80 81  1  0
 81 85  1  0
 82 81  2  0
 83 82  1  0
 84 83  1  0
 86 87  1  0
 87 90  1  0
 87 89  1  0
 88 86  2  0
 91 92  1  0
 91 66  1  0
 93 91  1  0
M  ISO  4   2 101   7 101  51 100  63 100
M  END
>  <TORSDO>  (39) 
F 19

>  <SCORE>  (39) 
-13.215

>  <name>  (39) 
38

>  <ligand_id>  (39) 
38

>  <original_smiles>  (39) 
[H]c1c([H])c([H])c2c(c1[H])C([H])([H])C([H])([H])C([H])([H])C2([H])N([H])C(=O)C1([H])N(C(=O)C([H])(N([H])C(=O)C([H])(N([H])C([H])([H])[H])C([H])([H])[H])C(C([H])([H])[H])(C([H])([H])[H])C([H])([H])[H])C([H])([H])c2c([H])c(Oc3nc(C([H])([H])[H])n(C([H])([H])C([H])([H])C([H])([H])[N+]4([H])C([H])([H])C([H])([H])N(C(=O)N5C([H])([H])C([H])([H])C([H])([H])C([H])(n6nc(-c7c([H])c([H])c(Oc8c([H])c([H])c(F)c([H])c8F)c([H])c7[H])c(C(=O)N([H])[H])c6N([H])[H])C5([H])[H])C([H])([H])C4([H])[H])n3)c([H])c([H])c2C1([H])[H]

>  <smiles>  (39) 
[H]c1c([H])c([H])c2c(c1[H])C([H])([H])C([H])([H])C([H])([H])C2([H])N([H])C(=O)C1([H])N(C(=O)C([H])(N([H])C(=O)C([H])(N([H])C([H])([H])[H])C([H])([H])[H])C(C([H])([H])[H])(C([H])([H])[H])C([H])([H])[H])C([H])([H])c2c([H])c(Oc3nc(C([H])([H])[H])n(C([H])([H])C([H])([H])C([H])([H])[N+]4([H])C([H])([H])C([H])([H])N(C(=O)N5C([H])([H])C([H])([H])C([H])([H])C([H])(n6nc(-c7c([H])c([H])c(Oc8c([H])c([H])c(F)c([H])c8F)c([H])c7[H])c(C(=O)N([H])[H])c6N([H])[H])C5([H])[H])C([H])([H])C4([H])[H])n3)c([H])c([H])c2C1([H])[H]

$$$$
39:0:0
     RDKit          3D

 94104  0  0  1  0  0  0  0  0999 V2000
  -28.6910  -21.2110   20.4710 C   0  0  0  0  0  3  0  0  0  0  0  0
  -29.0880  -22.5790   20.6990 C   0  0  0  0  0  0  0  0  0  0  0  0
  -29.8390  -20.4450   20.5540 C   0  0  0  0  0  0  0  0  0  0  0  0
  -30.3820  -22.6210   20.9730 N   0  0  0  0  0  0  0  0  0  0  0  0
  -30.8610  -21.3510   20.8500 N   0  0  0  0  0  0  0  0  0  0  0  0
  -30.8790  -18.1020   21.0760 C   0  0  0  0  0  2  0  0  0  0  0  0
  -29.0540  -18.0440   20.0900 C   0  0  0  0  0  2  0  0  0  0  0  0
  -30.2270  -17.0260   20.1610 C   0  0  0  0  0  3  0  0  0  0  0  0
  -30.1130  -19.0460   20.2430 N   0  0  0  0  0  0  0  0  0  0  0  0
  -30.6220  -14.5440   20.3660 C   0  0  0  0  0  0  0  0  0  0  0  0
  -30.2920  -12.3420   19.2820 C   0  0  0  0  0  2  0  0  0  0  0  0
  -29.3580  -12.5420   18.0720 C   0  0  0  0  0  2  0  0  0  0  0  0
  -27.8810  -12.4200   18.4960 C   0  0  0  0  0  2  0  0  0  0  0  0
  -27.5510  -13.2430   19.7700 C   0  0  0  0  0  3  0  0  0  0  0  0
  -28.6190  -13.0600   20.8740 C   0  0  0  0  0  2  0  0  0  0  0  0
  -29.9330  -13.3620   20.2890 N   0  0  0  0  0  0  0  0  0  0  0  0
  -31.7700  -14.6500   19.9280 O   0  0  0  0  0  0  0  0  0  0  0  0
  -29.9240  -15.6630   20.7080 N   0  0  0  0  0  0  0  0  0  0  0  0
  -29.0050  -15.5260   21.0970 H   0  0  0  0  0  0  0  0  0  0  0  0
  -25.1650  -13.8460   20.5030 C   0  0  0  0  0  0  0  0  0  0  0  0
  -24.0970  -13.0780   20.8780 C   0  0  0  0  0  0  0  0  0  0  0  0
  -24.5510  -11.7230   20.8420 C   0  0  0  0  0  0  0  0  0  0  0  0
  -26.2040  -12.9610   20.2610 N   0  0  0  0  0  0  0  0  0  0  0  0
  -25.8380  -11.6780   20.5220 N   0  0  0  0  0  0  0  0  0  0  0  0
  -23.8160  -10.4680   21.0360 C   0  0  0  0  0  0  0  0  0  0  0  0
  -24.2490   -9.4970   21.9670 C   0  0  0  0  0  3  0  0  0  0  0  0
  -23.5180   -8.3030   22.1500 C   0  0  0  0  0  3  0  0  0  0  0  0
  -22.3380   -8.0730   21.4030 C   0  0  0  0  0  0  0  0  0  0  0  0
  -21.9250   -9.0310   20.4610 C   0  0  0  0  0  3  0  0  0  0  0  0
  -22.6580  -10.2150   20.2770 C   0  0  0  0  0  3  0  0  0  0  0  0
  -21.5760   -6.9340   21.4960 O   0  0  0  0  0  0  0  0  0  0  0  0
  -21.5280   -6.1890   22.6470 C   0  0  0  0  0  0  0  0  0  0  0  0
  -21.0950   -6.7380   23.8730 C   0  0  0  0  0  3  0  0  0  0  0  0
  -20.9990   -5.9200   25.0160 C   0  0  0  0  0  3  0  0  0  0  0  0
  -21.3220   -4.5520   24.9330 C   0  0  0  0  0  0  0  0  0  0  0  0
  -21.7470   -4.0030   23.7120 C   0  0  0  0  0  3  0  0  0  0  0  0
  -21.8470   -4.8180   22.5710 C   0  0  0  0  0  0  0  0  0  0  0  0
  -22.2390   -4.2780   21.3920 F   0  0  0  0  0  0  0  0  0  0  0  0
  -21.2220   -3.7640   26.0290 F   0  0  0  0  0  0  0  0  0  0  0  0
  -22.7050  -13.5630   21.1640 C   0  0  0  0  0  0  0  0  0  0  0  0
  -21.9790  -12.8680   22.0310 N   0  0  0  0  0  0  0  0  0  0  0  0
  -22.2700  -14.5950   20.6550 O   0  0  0  0  0  0  0  0  0  0  0  0
  -22.3470  -12.0340   22.4690 H   0  0  0  0  0  0  0  0  0  0  0  0
  -21.0420  -13.1680   22.2600 H   0  0  0  0  0  0  0  0  0  0  0  0
  -25.3350  -15.2160   20.3270 N   0  0  0  0  0  0  0  0  0  0  0  0
  -24.5710  -15.8720   20.4370 H   0  0  0  0  0  0  0  0  0  0  0  0
  -26.1820  -15.6510   19.9820 H   0  0  0  0  0  0  0  0  0  0  0  0
  -28.6650  -25.0410   21.4680 C   0  0  0  0  0  2  0  0  0  0  0  0
  -28.2530  -23.8880   20.7070 C   0  0  0  0  0  3  0  0  0  0  0  0
  -28.5680  -25.2260   19.9250 C   0  0  0  0  0  3  0  0  0  0  0  0
  -28.4030  -26.6590   20.1920 O   0  0  0  0  0  0  0  0  0  0  0  0
  -24.5660  -31.8490   23.2620 C   0  0  0  0  0  0  0  0  0  0  0  0
  -27.1880  -27.3510   20.1860 C   0  0  0  0  0  0  0  0  0  0  0  0
  -23.3490  -30.4580   21.6180 C   0  0  0  0  0  3  0  0  0  0  0  0
  -24.7890  -28.8920   20.2040 C   0  0  0  0  0  0  0  0  0  0  0  0
  -25.8850  -30.7810   21.4290 C   0  0  0  0  0  2  0  0  0  0  0  0
  -25.9550  -29.4100   20.7760 C   0  0  0  0  0  0  0  0  0  0  0  0
  -27.1540  -28.6540   20.7480 C   0  0  0  0  0  3  0  0  0  0  0  0
  -25.9860  -26.8370   19.6440 C   0  0  0  0  0  3  0  0  0  0  0  0
  -24.7990  -27.6000   19.6440 C   0  0  0  0  0  3  0  0  0  0  0  0
  -23.5580  -29.7760   20.2390 C   0  0  0  0  0  2  0  0  0  0  0  0
  -24.6180  -31.0470   22.1590 N   0  0  0  0  0  0  0  0  0  0  0  0
  -23.4870  -32.1320   23.8000 O   0  0  0  0  0  0  0  0  0  0  0  0
  -22.6850  -29.4440   22.5790 C   0  0  0  0  0  0  0  0  0  0  0  0
  -21.3590  -29.2740   22.4520 N   0  0  0  0  0  0  0  0  0  0  0  0
  -23.3620  -28.8140   23.3970 O   0  0  0  0  0  0  0  0  0  0  0  0
  -20.8710  -29.8390   21.7720 H   0  0  0  0  0  0  0  0  0  0  0  0
  -17.9750  -28.1050   22.9540 C   0  0  0  0  0  0  0  0  0  0  0  0
  -20.5360  -28.3400   23.2210 C   0  0  0  0  0  3  0  0  0  0  0  0
  -20.6240  -26.9090   22.6410 C   0  0  0  0  0  2  0  0  0  0  0  0
  -19.5180  -26.6000   21.6270 C   0  0  0  0  0  2  0  0  0  0  0  0
  -18.1380  -26.7560   22.2730 C   0  0  0  0  0  2  0  0  0  0  0  0
  -19.1010  -28.8550   23.3860 C   0  0  0  0  0  0  0  0  0  0  0  0
  -18.8940  -30.1180   23.9840 C   0  0  0  0  0  3  0  0  0  0  0  0
  -17.5960  -30.6330   24.1490 C   0  0  0  0  0  3  0  0  0  0  0  0
  -16.4840  -29.8810   23.7330 C   0  0  0  0  0  3  0  0  0  0  0  0
  -16.6740  -28.6170   23.1430 C   0  0  0  0  0  3  0  0  0  0  0  0
  -25.8570  -32.4670   23.8870 C   0  0  0  0  0  3  0  0  0  0  0  0
  -26.3630  -31.6890   25.1630 C   0  0  1  0  0  0  0  0  0  0  0  0
  -25.2610  -31.4670   26.2260 C   0  0  0  0  0  1  0  0  0  0  0  0
  -26.9300  -30.3050   24.7720 C   0  0  0  0  0  1  0  0  0  0  0  0
  -27.5220  -32.4670   25.8330 C   0  0  0  0  0  1  0  0  0  0  0  0
  -25.5600  -33.8670   24.2210 N   0  0  0  0  0  0  0  0  0  0  0  0
  -25.8820  -34.9180   23.4560 C   0  0  0  0  0  0  0  0  0  0  0  0
  -26.5320  -34.8110   22.4130 O   0  0  0  0  0  0  0  0  0  0  0  0
  -24.9810  -34.0270   25.0330 H   0  0  0  0  0  0  0  0  0  0  0  0
  -24.1460  -36.7070   23.1400 C   0  0  0  0  0  1  0  0  0  0  0  0
  -25.4080  -36.3090   23.9200 C   0  0  0  0  0  3  0  0  0  0  0  0
  -27.5640  -37.1980   24.6920 C   0  0  0  0  0  1  0  0  0  0  0  0
  -26.4400  -37.3590   23.7730 N   0  0  0  0  0  0  0  0  0  0  0  0
  -26.0390  -38.2820   23.9230 H   0  0  0  0  0  0  0  0  0  0  0  0
  -32.6580  -20.9180   22.5010 C   0  0  0  0  0  1  0  0  0  0  0  0
  -33.1230  -22.3090   20.4400 C   0  0  0  0  0  1  0  0  0  0  0  0
  -32.3020  -21.1410   21.0220 C   0  0  0  0  0  3  0  0  0  0  0  0
  1  3  2  0
  1  2  1  0
  2  4  2  0
  3  5  1  0
  5  4  1  0
  5 94  1  0
  7  8  1  0
  7  9  1  0
  8 18  1  0
  8  6  1  0
  9  3  1  0
  9  6  1  0
 10 18  1  0
 11 16  1  0
 12 13  1  0
 12 11  1  0
 14 13  1  0
 14 23  1  0
 14 15  1  0
 16 10  1  0
 16 15  1  0
 17 10  2  0
 18 19  1  0
 20 21  2  0
 21 40  1  0
 22 21  1  0
 22 25  1  0
 23 20  1  0
 23 24  1  0
 24 22  2  0
 25 26  1  0
 26 27  2  0
 28 31  1  0
 28 27  1  0
 29 28  2  0
 30 29  1  0
 30 25  2  0
 31 32  1  0
 32 33  1  0
 33 34  2  0
 35 34  1  0
 35 39  1  0
 36 35  2  0
 37 32  2  0
 37 36  1  0
 38 37  1  0
 40 41  1  0
 41 44  1  0
 41 43  1  0
 42 40  2  0
 45 46  1  0
 45 20  1  0
 47 45  1  0
 49  2  1  0
 49 48  1  0
 50 51  1  0
 50 49  1  0
 50 48  1  0
 52 63  2  0
 53 51  1  0
 53 58  1  0
 54 62  1  0
 54 64  1  0
 55 61  1  0
 55 57  1  0
 56 62  1  0
 57 56  1  0
 58 57  2  0
 59 60  1  0
 59 53  2  0
 60 55  2  0
 61 54  1  0
 62 52  1  0
 64 66  2  0
 65 64  1  0
 67 65  1  0
 68 77  2  0
 68 73  1  0
 69 65  1  0
 69 73  1  0
 70 69  1  0
 71 72  1  0
 71 70  1  0
 72 68  1  0
 73 74  2  0
 74 75  1  0
 76 75  2  0
 77 76  1  0
 78 52  1  0
 78 83  1  0
 78 79  1  0
 79 82  1  1
 79 80  1  0
 81 79  1  0
 83 86  1  0
 84 88  1  0
 84 83  1  0
 85 84  2  0
 88 87  1  0
 90 88  1  0
 90 91  1  0
 90 89  1  0
 93 94  1  0
 94 92  1  0
M  ISO  4  10 100  18 100  50 101  51 101
M  END
>  <TORSDO>  (40) 
F 19

>  <SCORE>  (40) 
-14.416

>  <name>  (40) 
39

>  <ligand_id>  (40) 
39

>  <original_smiles>  (40) 
[H]c1c([H])c([H])c2c(c1[H])C([H])([H])C([H])([H])C([H])([H])C2([H])N([H])C(=O)C1([H])N(C(=O)C([H])(N([H])C(=O)C([H])(N([H])C([H])([H])[H])C([H])([H])[H])C(C([H])([H])[H])(C([H])([H])[H])C([H])([H])[H])C([H])([H])c2c([H])c(OC3([H])C([H])([H])C3([H])c3nn(C([H])(C([H])([H])[H])C([H])([H])[H])c(N4C([H])([H])C([H])(N([H])C(=O)N5C([H])([H])C([H])([H])C([H])([H])C([H])(n6nc(-c7c([H])c([H])c(Oc8c([H])c([H])c(F)c([H])c8F)c([H])c7[H])c(C(=O)N([H])[H])c6N([H])[H])C5([H])[H])C4([H])[H])c3[H])c([H])c([H])c2C1([H])[H]

>  <smiles>  (40) 
[H]c1c([H])c([H])c2c(c1[H])C([H])([H])C([H])([H])C([H])([H])C2([H])N([H])C(=O)C1([H])N(C(=O)C([H])(N([H])C(=O)C([H])(N([H])C([H])([H])[H])C([H])([H])[H])C(C([H])([H])[H])(C([H])([H])[H])C([H])([H])[H])C([H])([H])c2c([H])c(OC3([H])C([H])([H])C3([H])c3nn(C([H])(C([H])([H])[H])C([H])([H])[H])c(N4C([H])([H])C([H])(N([H])C(=O)N5C([H])([H])C([H])([H])C([H])([H])C([H])(n6nc(-c7c([H])c([H])c(Oc8c([H])c([H])c(F)c([H])c8F)c([H])c7[H])c(C(=O)N([H])[H])c6N([H])[H])C5([H])[H])C4([H])[H])c3[H])c([H])c([H])c2C1([H])[H]

$$$$
40:0:0
     RDKit          3D

 92101  0  0  1  0  0  0  0  0999 V2000
  -27.6090  -21.9460   20.6350 C   0  0  0  0  0  3  0  0  0  0  0  0
  -28.2610  -20.8510   20.1330 C   0  0  0  0  0  0  0  0  0  0  0  0
  -29.5020  -21.2850   19.6550 N   0  0  0  0  0  0  0  0  0  0  0  0
  -29.6160  -22.5710   19.8400 N   0  0  0  0  0  0  0  0  0  0  0  0
  -28.4700  -23.0080   20.4190 N   0  0  0  0  0  0  0  0  0  0  0  0
  -27.7820  -19.4110   20.0740 C   0  0  0  0  0  2  0  0  0  0  0  0
  -30.8860  -14.5870   20.0070 C   0  0  0  0  0  0  0  0  0  0  0  0
  -30.5600  -12.3860   18.9590 C   0  0  0  0  0  2  0  0  0  0  0  0
  -29.5700  -12.5570   17.7860 C   0  0  0  0  0  2  0  0  0  0  0  0
  -28.1150  -12.4260   18.2780 C   0  0  0  0  0  2  0  0  0  0  0  0
  -27.8240  -13.2900   19.5360 C   0  0  0  0  0  3  0  0  0  0  0  0
  -28.9250  -13.1170   20.6040 C   0  0  0  0  0  2  0  0  0  0  0  0
  -30.2160  -13.4050   19.9640 N   0  0  0  0  0  0  0  0  0  0  0  0
  -32.0520  -14.6990   19.6140 O   0  0  0  0  0  0  0  0  0  0  0  0
  -30.1780  -16.6220   18.9100 C   0  0  0  0  0  2  0  0  0  0  0  0
  -29.9940  -16.4570   21.3180 C   0  0  0  0  0  2  0  0  0  0  0  0
  -29.0000  -17.6200   18.8580 C   0  0  0  0  0  2  0  0  0  0  0  0
  -28.8510  -17.5100   21.3000 C   0  0  0  0  0  2  0  0  0  0  0  0
  -30.0980  -15.6980   20.0610 N   0  0  0  0  0  0  0  0  0  0  0  0
  -28.8880  -18.4070   20.1110 N   0  0  2  0  0  4  0  0  0  0  0  0
  -29.7170  -18.9790   20.1760 H   0  0  0  0  0  0  0  0  0  0  0  0
  -25.4770  -13.9070   20.3840 C   0  0  0  0  0  0  0  0  0  0  0  0
  -24.4190  -13.1370   20.7900 C   0  0  0  0  0  0  0  0  0  0  0  0
  -24.8610  -11.7810   20.7060 C   0  0  0  0  0  0  0  0  0  0  0  0
  -26.4970  -13.0170   20.0810 N   0  0  0  0  0  0  0  0  0  0  0  0
  -26.1340  -11.7330   20.3350 N   0  0  0  0  0  0  0  0  0  0  0  0
  -24.1310  -10.5230   20.9010 C   0  0  0  0  0  0  0  0  0  0  0  0
  -24.5260   -9.5830   21.8780 C   0  0  0  0  0  3  0  0  0  0  0  0
  -23.7960   -8.3900   22.0590 C   0  0  0  0  0  3  0  0  0  0  0  0
  -22.6580   -8.1260   21.2620 C   0  0  0  0  0  0  0  0  0  0  0  0
  -22.2820   -9.0530   20.2740 C   0  0  0  0  0  3  0  0  0  0  0  0
  -23.0120  -10.2400   20.0910 C   0  0  0  0  0  3  0  0  0  0  0  0
  -21.9030   -6.9800   21.3490 O   0  0  0  0  0  0  0  0  0  0  0  0
  -21.7140   -6.3340   22.5440 C   0  0  0  0  0  0  0  0  0  0  0  0
  -21.1260   -6.9780   23.6550 C   0  0  0  0  0  3  0  0  0  0  0  0
  -20.8860   -6.2560   24.8410 C   0  0  0  0  0  3  0  0  0  0  0  0
  -21.2240   -4.8910   24.9160 C   0  0  0  0  0  0  0  0  0  0  0  0
  -21.8050   -4.2480   23.8090 C   0  0  0  0  0  3  0  0  0  0  0  0
  -22.0460   -4.9670   22.6260 C   0  0  0  0  0  0  0  0  0  0  0  0
  -22.5870   -4.3370   21.5550 F   0  0  0  0  0  0  0  0  0  0  0  0
  -20.9870   -4.1950   26.0530 F   0  0  0  0  0  0  0  0  0  0  0  0
  -23.0420  -13.6240   21.1370 C   0  0  0  0  0  0  0  0  0  0  0  0
  -22.3550  -12.9250   22.0350 N   0  0  0  0  0  0  0  0  0  0  0  0
  -22.5890  -14.6570   20.6500 O   0  0  0  0  0  0  0  0  0  0  0  0
  -22.7360  -12.0890   22.4510 H   0  0  0  0  0  0  0  0  0  0  0  0
  -21.4330  -13.2340   22.3090 H   0  0  0  0  0  0  0  0  0  0  0  0
  -25.6490  -15.2760   20.2200 N   0  0  0  0  0  0  0  0  0  0  0  0
  -24.8670  -15.9150   20.3100 H   0  0  0  0  0  0  0  0  0  0  0  0
  -26.4380  -15.6740   19.7330 H   0  0  0  0  0  0  0  0  0  0  0  0
  -28.3070  -24.4060   20.8430 C   0  0  0  0  0  2  0  0  0  0  0  0
  -28.7530  -25.4800   19.8150 C   0  0  0  0  0  2  0  0  0  0  0  0
  -28.6140  -26.8250   20.3170 O   0  0  0  0  0  0  0  0  0  0  0  0
  -24.6120  -31.9140   23.2880 C   0  0  0  0  0  0  0  0  0  0  0  0
  -27.4000  -27.4870   20.2800 C   0  0  0  0  0  0  0  0  0  0  0  0
  -23.4670  -30.4840   21.6270 C   0  0  0  0  0  3  0  0  0  0  0  0
  -24.9740  -28.9580   20.2430 C   0  0  0  0  0  0  0  0  0  0  0  0
  -25.9900  -30.8760   21.4860 C   0  0  0  0  0  2  0  0  0  0  0  0
  -26.1090  -29.5020   20.8560 C   0  0  0  0  0  0  0  0  0  0  0  0
  -27.3200  -28.7730   20.8700 C   0  0  0  0  0  3  0  0  0  0  0  0
  -26.2390  -26.9570   19.6680 C   0  0  0  0  0  3  0  0  0  0  0  0
  -25.0350  -27.6860   19.6500 C   0  0  0  0  0  3  0  0  0  0  0  0
  -23.7150  -29.7970   20.2600 C   0  0  0  0  0  2  0  0  0  0  0  0
  -24.7070  -31.1080   22.1920 N   0  0  0  0  0  0  0  0  0  0  0  0
  -23.5140  -32.1760   23.7980 O   0  0  0  0  0  0  0  0  0  0  0  0
  -22.8060  -29.4630   22.5780 C   0  0  0  0  0  0  0  0  0  0  0  0
  -21.4900  -29.2520   22.4090 N   0  0  0  0  0  0  0  0  0  0  0  0
  -23.4750  -28.8600   23.4210 O   0  0  0  0  0  0  0  0  0  0  0  0
  -21.0150  -29.7840   21.6930 H   0  0  0  0  0  0  0  0  0  0  0  0
  -18.1230  -28.0030   22.8120 C   0  0  0  0  0  0  0  0  0  0  0  0
  -20.6650  -28.3080   23.1600 C   0  0  0  0  0  3  0  0  0  0  0  0
  -20.8130  -26.8790   22.5880 C   0  0  0  0  0  2  0  0  0  0  0  0
  -19.7440  -26.5360   21.5470 C   0  0  0  0  0  2  0  0  0  0  0  0
  -18.3470  -26.6480   22.1630 C   0  0  0  0  0  2  0  0  0  0  0  0
  -19.2130  -28.7900   23.2670 C   0  0  0  0  0  0  0  0  0  0  0  0
  -18.9550  -30.0570   23.8330 C   0  0  0  0  0  3  0  0  0  0  0  0
  -17.6350  -30.5350   23.9520 C   0  0  0  0  0  3  0  0  0  0  0  0
  -16.5580  -29.7450   23.5140 C   0  0  0  0  0  3  0  0  0  0  0  0
  -16.8020  -28.4800   22.9500 C   0  0  0  0  0  3  0  0  0  0  0  0
  -25.8740  -32.5630   23.9390 C   0  0  0  0  0  3  0  0  0  0  0  0
  -26.3510  -31.8180   25.2450 C   0  0  1  0  0  0  0  0  0  0  0  0
  -25.2230  -31.5900   26.2790 C   0  0  0  0  0  1  0  0  0  0  0  0
  -26.9570  -30.4390   24.8950 C   0  0  0  0  0  1  0  0  0  0  0  0
  -27.4750  -32.6330   25.9300 C   0  0  0  0  0  1  0  0  0  0  0  0
  -25.5490  -33.9660   24.2300 N   0  0  0  0  0  0  0  0  0  0  0  0
  -25.9030  -35.0020   23.4590 C   0  0  0  0  0  0  0  0  0  0  0  0
  -26.6070  -34.8790   22.4520 O   0  0  0  0  0  0  0  0  0  0  0  0
  -24.9210  -34.1360   25.0020 H   0  0  0  0  0  0  0  0  0  0  0  0
  -24.1770  -36.7750   23.0070 C   0  0  0  0  0  1  0  0  0  0  0  0
  -25.3940  -36.3980   23.8670 C   0  0  0  0  0  3  0  0  0  0  0  0
  -27.4930  -37.3160   24.7480 C   0  0  0  0  0  1  0  0  0  0  0  0
  -26.4240  -37.4540   23.7620 N   0  0  0  0  0  0  0  0  0  0  0  0
  -26.0100  -38.3760   23.8690 H   0  0  0  0  0  0  0  0  0  0  0  0
  2  1  2  0
  3  4  2  0
  3  2  1  0
  4  5  1  0
  5  1  1  0
  5 50  1  0
  6 20  1  0
  6  2  1  0
  7 19  1  0
  8 13  1  0
  9 10  1  0
  9  8  1  0
 11 10  1  0
 11 25  1  0
 11 12  1  0
 13  7  1  0
 13 12  1  0
 14  7  2  0
 15 19  1  0
 17 15  1  0
 17 20  1  0
 18 16  1  0
 19 16  1  0
 20 21  1  1
 20 18  1  0
 22 23  2  0
 23 42  1  0
 24 23  1  0
 24 27  1  0
 25 26  1  0
 25 22  1  0
 26 24  2  0
 27 28  1  0
 28 29  2  0
 30 33  1  0
 30 29  1  0
 31 30  2  0
 32 31  1  0
 32 27  2  0
 33 34  1  0
 34 39  2  0
 34 35  1  0
 35 36  2  0
 36 37  1  0
 37 41  1  0
 38 37  2  0
 39 38  1  0
 40 39  1  0
 42 43  1  0
 43 46  1  0
 43 45  1  0
 44 42  2  0
 47 48  1  0
 47 22  1  0
 49 47  1  0
 51 52  1  0
 51 50  1  0
 53 64  2  0
 54 52  1  0
 54 59  1  0
 55 63  1  0
 55 65  1  0
 56 62  1  0
 56 58  1  0
 57 63  1  0
 58 59  2  0
 58 57  1  0
 60 54  2  0
 61 60  1  0
 61 56  2  0
 62 55  1  0
 63 53  1  0
 65 67  2  0
 66 65  1  0
 68 66  1  0
 69 78  2  0
 69 74  1  0
 70 66  1  0
 70 74  1  0
 71 70  1  0
 72 73  1  0
 72 71  1  0
 73 69  1  0
 74 75  2  0
 75 76  1  0
 77 76  2  0
 78 77  1  0
 79 53  1  0
 79 84  1  0
 79 80  1  0
 80 83  1  1
 80 81  1  0
 82 80  1  0
 84 87  1  0
 85 89  1  0
 85 84  1  0
 86 85  2  0
 89 88  1  0
 91 89  1  0
 91 92  1  0
 91 90  1  0
M  ISO  4   7 100  19 100  51 101  52 101
M  END
>  <TORSDO>  (41) 
F 19

>  <SCORE>  (41) 
-13.573

>  <name>  (41) 
40

>  <ligand_id>  (41) 
40

>  <original_smiles>  (41) 
[H]c1c([H])c([H])c2c(c1[H])C([H])([H])C([H])([H])C([H])([H])C2([H])N([H])C(=O)C1([H])N(C(=O)C([H])(N([H])C(=O)C([H])(N([H])C([H])([H])[H])C([H])([H])[H])C(C([H])([H])[H])(C([H])([H])[H])C([H])([H])[H])C([H])([H])c2c([H])c(OC([H])([H])C([H])([H])n3nnc(C([H])([H])[N+]4([H])C([H])([H])C([H])([H])N(C(=O)N5C([H])([H])C([H])([H])C([H])([H])C([H])(n6nc(-c7c([H])c([H])c(Oc8c([H])c([H])c(F)c([H])c8F)c([H])c7[H])c(C(=O)N([H])[H])c6N([H])[H])C5([H])[H])C([H])([H])C4([H])[H])c3[H])c([H])c([H])c2C1([H])[H]

>  <smiles>  (41) 
[H]c1c([H])c([H])c2c(c1[H])C([H])([H])C([H])([H])C([H])([H])C2([H])N([H])C(=O)C1([H])N(C(=O)C([H])(N([H])C(=O)C([H])(N([H])C([H])([H])[H])C([H])([H])[H])C(C([H])([H])[H])(C([H])([H])[H])C([H])([H])[H])C([H])([H])c2c([H])c(OC([H])([H])C([H])([H])n3nnc(C([H])([H])[N+]4([H])C([H])([H])C([H])([H])N(C(=O)N5C([H])([H])C([H])([H])C([H])([H])C([H])(n6nc(-c7c([H])c([H])c(Oc8c([H])c([H])c(F)c([H])c8F)c([H])c7[H])c(C(=O)N([H])[H])c6N([H])[H])C5([H])[H])C([H])([H])C4([H])[H])c3[H])c([H])c([H])c2C1([H])[H]

$$$$
41:0:0
     RDKit          3D

 93102  0  0  1  0  0  0  0  0999 V2000
  -32.5040  -21.6220   22.0450 C   0  0  0  0  0  3  0  0  0  0  0  0
  -32.1750  -20.2900   21.6040 C   0  0  0  0  0  3  0  0  0  0  0  0
  -31.5300  -22.5410   22.0860 C   0  0  0  0  0  3  0  0  0  0  0  0
  -30.9180  -19.9480   21.2330 C   0  0  0  0  0  0  0  0  0  0  0  0
  -29.8470  -20.9850   21.2700 C   0  0  0  0  0  0  0  0  0  0  0  0
  -30.2100  -22.2370   21.7080 N   0  0  0  0  0  0  0  0  0  0  0  0
  -28.6850  -20.7480   20.9210 O   0  0  0  0  0  0  0  0  0  0  0  0
  -31.5010  -17.4610   20.8430 C   0  0  0  0  0  2  0  0  0  0  0  0
  -29.4090  -17.8760   20.7670 C   0  0  0  0  0  2  0  0  0  0  0  0
  -30.3000  -16.7680   20.1700 C   0  0  0  0  0  3  0  0  0  0  0  0
  -30.6510  -18.6410   20.7560 N   0  0  0  0  0  0  0  0  0  0  0  0
  -30.6910  -14.3490   20.1050 C   0  0  0  0  0  0  0  0  0  0  0  0
  -30.2700  -12.2460   18.9100 C   0  0  0  0  0  2  0  0  0  0  0  0
  -29.2640  -12.5190   17.7720 C   0  0  0  0  0  2  0  0  0  0  0  0
  -27.8170  -12.3870   18.2850 C   0  0  0  0  0  2  0  0  0  0  0  0
  -27.5710  -13.1850   19.5940 C   0  0  0  0  0  3  0  0  0  0  0  0
  -28.6850  -12.9130   20.6340 C   0  0  0  0  0  2  0  0  0  0  0  0
  -29.9840  -13.1940   19.9980 N   0  0  0  0  0  0  0  0  0  0  0  0
  -31.7930  -14.5130   19.5780 O   0  0  0  0  0  0  0  0  0  0  0  0
  -30.0180  -15.3960   20.6080 N   0  0  0  0  0  0  0  0  0  0  0  0
  -29.1160  -15.2110   21.0210 H   0  0  0  0  0  0  0  0  0  0  0  0
  -25.2120  -13.8030   20.4200 C   0  0  0  0  0  0  0  0  0  0  0  0
  -24.1600  -13.0340   20.8400 C   0  0  0  0  0  0  0  0  0  0  0  0
  -24.6130  -11.6810   20.7820 C   0  0  0  0  0  0  0  0  0  0  0  0
  -26.2410  -12.9180   20.1370 N   0  0  0  0  0  0  0  0  0  0  0  0
  -25.8860  -11.6360   20.4120 N   0  0  0  0  0  0  0  0  0  0  0  0
  -23.8920  -10.4200   21.0010 C   0  0  0  0  0  0  0  0  0  0  0  0
  -24.3520   -9.4560   21.9250 C   0  0  0  0  0  3  0  0  0  0  0  0
  -23.6320   -8.2610   22.1320 C   0  0  0  0  0  3  0  0  0  0  0  0
  -22.4370   -8.0190   21.4140 C   0  0  0  0  0  0  0  0  0  0  0  0
  -21.9950   -8.9710   20.4790 C   0  0  0  0  0  3  0  0  0  0  0  0
  -22.7160  -10.1580   20.2700 C   0  0  0  0  0  3  0  0  0  0  0  0
  -21.6850   -6.8750   21.5320 O   0  0  0  0  0  0  0  0  0  0  0  0
  -21.6600   -6.1460   22.6930 C   0  0  0  0  0  0  0  0  0  0  0  0
  -21.2410   -6.7100   23.9180 C   0  0  0  0  0  3  0  0  0  0  0  0
  -21.1630   -5.9070   25.0730 C   0  0  0  0  0  3  0  0  0  0  0  0
  -21.4960   -4.5400   25.0040 C   0  0  0  0  0  0  0  0  0  0  0  0
  -21.9080   -3.9760   23.7840 C   0  0  0  0  0  3  0  0  0  0  0  0
  -21.9860   -4.7770   22.6320 C   0  0  0  0  0  0  0  0  0  0  0  0
  -22.3630   -4.2230   21.4530 F   0  0  0  0  0  0  0  0  0  0  0  0
  -21.4150   -3.7650   26.1100 F   0  0  0  0  0  0  0  0  0  0  0  0
  -22.7790  -13.5170   21.1820 C   0  0  0  0  0  0  0  0  0  0  0  0
  -22.0900  -12.8160   22.0780 N   0  0  0  0  0  0  0  0  0  0  0  0
  -22.3220  -14.5480   20.6920 O   0  0  0  0  0  0  0  0  0  0  0  0
  -22.4780  -11.9840   22.4970 H   0  0  0  0  0  0  0  0  0  0  0  0
  -21.1670  -13.1210   22.3500 H   0  0  0  0  0  0  0  0  0  0  0  0
  -25.3750  -15.1720   20.2340 N   0  0  0  0  0  0  0  0  0  0  0  0
  -24.6150  -15.8280   20.3710 H   0  0  0  0  0  0  0  0  0  0  0  0
  -26.1970  -15.5990   19.8260 H   0  0  0  0  0  0  0  0  0  0  0  0
  -29.2190  -23.3220   21.8540 C   0  0  0  0  0  2  0  0  0  0  0  0
  -29.3940  -24.4860   20.8490 C   0  0  0  0  0  2  0  0  0  0  0  0
  -28.0950  -25.2980   20.6890 C   0  0  0  0  0  2  0  0  0  0  0  0
  -28.3000  -26.5770   20.0750 O   0  0  0  0  0  0  0  0  0  0  0  0
  -24.5210  -31.7390   23.1690 C   0  0  0  0  0  0  0  0  0  0  0  0
  -27.1540  -27.3420   20.0390 C   0  0  0  0  0  0  0  0  0  0  0  0
  -23.3190  -30.3760   21.4910 C   0  0  0  0  0  3  0  0  0  0  0  0
  -24.7720  -28.8560   20.0520 C   0  0  0  0  0  0  0  0  0  0  0  0
  -25.8460  -30.7260   21.3170 C   0  0  0  0  0  2  0  0  0  0  0  0
  -25.9280  -29.3680   20.6520 C   0  0  0  0  0  0  0  0  0  0  0  0
  -27.1280  -28.6190   20.6400 C   0  0  0  0  0  3  0  0  0  0  0  0
  -25.9830  -26.8490   19.4210 C   0  0  0  0  0  3  0  0  0  0  0  0
  -24.7910  -27.5960   19.4310 C   0  0  0  0  0  3  0  0  0  0  0  0
  -23.5320  -29.7160   20.1030 C   0  0  0  0  0  2  0  0  0  0  0  0
  -24.5800  -30.9590   22.0520 N   0  0  0  0  0  0  0  0  0  0  0  0
  -23.4380  -32.0100   23.7050 O   0  0  0  0  0  0  0  0  0  0  0  0
  -22.6530  -29.3420   22.4280 C   0  0  0  0  0  0  0  0  0  0  0  0
  -21.3300  -29.1670   22.2820 N   0  0  0  0  0  0  0  0  0  0  0  0
  -23.3270  -28.7010   23.2400 O   0  0  0  0  0  0  0  0  0  0  0  0
  -20.8490  -29.7400   21.6010 H   0  0  0  0  0  0  0  0  0  0  0  0
  -17.9460  -27.9840   22.7170 C   0  0  0  0  0  0  0  0  0  0  0  0
  -20.5000  -28.2210   23.0270 C   0  0  0  0  0  3  0  0  0  0  0  0
  -20.6010  -26.8000   22.4260 C   0  0  0  0  0  2  0  0  0  0  0  0
  -19.5110  -26.5030   21.3920 C   0  0  0  0  0  2  0  0  0  0  0  0
  -18.1230  -26.6440   22.0220 C   0  0  0  0  0  2  0  0  0  0  0  0
  -19.0640  -28.7310   23.1750 C   0  0  0  0  0  0  0  0  0  0  0  0
  -18.8440  -29.9880   23.7810 C   0  0  0  0  0  3  0  0  0  0  0  0
  -17.5410  -30.4940   23.9380 C   0  0  0  0  0  3  0  0  0  0  0  0
  -16.4380  -29.7430   23.4960 C   0  0  0  0  0  3  0  0  0  0  0  0
  -16.6410  -28.4900   22.8920 C   0  0  0  0  0  3  0  0  0  0  0  0
  -25.8070  -32.3480   23.8120 C   0  0  0  0  0  3  0  0  0  0  0  0
  -26.3020  -31.5560   25.0850 C   0  0  1  0  0  0  0  0  0  0  0  0
  -25.1950  -31.3170   26.1380 C   0  0  0  0  0  1  0  0  0  0  0  0
  -26.8710  -30.1760   24.6770 C   0  0  0  0  0  1  0  0  0  0  0  0
  -27.4500  -32.3310   25.7710 C   0  0  0  0  0  1  0  0  0  0  0  0
  -25.5120  -33.7460   24.1500 N   0  0  0  0  0  0  0  0  0  0  0  0
  -25.8740  -34.8000   23.4060 C   0  0  0  0  0  0  0  0  0  0  0  0
  -26.5650  -34.6980   22.3880 O   0  0  0  0  0  0  0  0  0  0  0  0
  -24.9040  -33.9010   24.9410 H   0  0  0  0  0  0  0  0  0  0  0  0
  -24.1850  -36.6230   23.0220 C   0  0  0  0  0  1  0  0  0  0  0  0
  -25.3940  -36.1890   23.8660 C   0  0  0  0  0  3  0  0  0  0  0  0
  -27.5130  -37.0330   24.7770 C   0  0  0  0  0  1  0  0  0  0  0  0
  -26.4450  -37.2280   23.7990 N   0  0  0  0  0  0  0  0  0  0  0  0
  -26.0480  -38.1530   23.9430 H   0  0  0  0  0  0  0  0  0  0  0  0
  1  3  2  0
  2  1  1  0
  4  5  1  0
  4  2  2  0
  5  6  1  0
  6 50  1  0
  6  3  1  0
  7  5  2  0
 10 20  1  0
 10  9  1  0
 10  8  1  0
 11  9  1  0
 11  8  1  0
 11  4  1  0
 12 20  1  0
 13 18  1  0
 14 15  1  0
 14 13  1  0
 16 15  1  0
 16 25  1  0
 16 17  1  0
 18 12  1  0
 18 17  1  0
 19 12  2  0
 20 21  1  0
 22 23  2  0
 23 42  1  0
 24 23  1  0
 24 27  1  0
 25 26  1  0
 25 22  1  0
 26 24  2  0
 27 28  1  0
 28 29  2  0
 30 33  1  0
 30 29  1  0
 31 30  2  0
 32 31  1  0
 32 27  2  0
 33 34  1  0
 34 35  1  0
 35 36  2  0
 37 36  1  0
 37 41  1  0
 38 37  2  0
 39 34  2  0
 39 38  1  0
 40 39  1  0
 42 43  1  0
 43 46  1  0
 43 45  1  0
 44 42  2  0
 47 48  1  0
 47 22  1  0
 49 47  1  0
 51 50  1  0
 52 51  1  0
 53 52  1  0
 54 65  2  0
 55 53  1  0
 55 60  1  0
 56 64  1  0
 56 66  1  0
 57 63  1  0
 57 59  1  0
 58 64  1  0
 59 58  1  0
 60 59  2  0
 61 62  1  0
 61 55  2  0
 62 57  2  0
 63 56  1  0
 64 54  1  0
 66 68  2  0
 67 66  1  0
 69 67  1  0
 70 79  2  0
 70 75  1  0
 71 67  1  0
 71 75  1  0
 72 71  1  0
 73 74  1  0
 73 72  1  0
 74 70  1  0
 75 76  2  0
 76 77  1  0
 78 77  2  0
 79 78  1  0
 80 54  1  0
 80 85  1  0
 80 81  1  0
 81 84  1  1
 81 82  1  0
 83 81  1  0
 85 88  1  0
 86 90  1  0
 86 85  1  0
 87 86  2  0
 90 89  1  0
 92 90  1  0
 92 93  1  0
 92 91  1  0
M  ISO  4  12 100  20 100  52 101  53 101
M  END
>  <TORSDO>  (42) 
F 20

>  <SCORE>  (42) 
-13.280

>  <name>  (42) 
41

>  <ligand_id>  (42) 
41

>  <original_smiles>  (42) 
[H]c1c([H])c([H])c2c(c1[H])C([H])([H])C([H])([H])C([H])([H])C2([H])N([H])C(=O)C1([H])N(C(=O)C([H])(N([H])C(=O)C([H])(N([H])C([H])([H])[H])C([H])([H])[H])C(C([H])([H])[H])(C([H])([H])[H])C([H])([H])[H])C([H])([H])c2c([H])c(OC([H])([H])C([H])([H])C([H])([H])n3c([H])c([H])c([H])c(N4C([H])([H])C([H])(N([H])C(=O)N5C([H])([H])C([H])([H])C([H])([H])C([H])(n6nc(-c7c([H])c([H])c(Oc8c([H])c([H])c(F)c([H])c8F)c([H])c7[H])c(C(=O)N([H])[H])c6N([H])[H])C5([H])[H])C4([H])[H])c3=O)c([H])c([H])c2C1([H])[H]

>  <smiles>  (42) 
[H]c1c([H])c([H])c2c(c1[H])C([H])([H])C([H])([H])C([H])([H])C2([H])N([H])C(=O)C1([H])N(C(=O)C([H])(N([H])C(=O)C([H])(N([H])C([H])([H])[H])C([H])([H])[H])C(C([H])([H])[H])(C([H])([H])[H])C([H])([H])[H])C([H])([H])c2c([H])c(OC([H])([H])C([H])([H])C([H])([H])n3c([H])c([H])c([H])c(N4C([H])([H])C([H])(N([H])C(=O)N5C([H])([H])C([H])([H])C([H])([H])C([H])(n6nc(-c7c([H])c([H])c(Oc8c([H])c([H])c(F)c([H])c8F)c([H])c7[H])c(C(=O)N([H])[H])c6N([H])[H])C5([H])[H])C4([H])[H])c3=O)c([H])c([H])c2C1([H])[H]

$$$$
42:0:0
     RDKit          3D

 92101  0  0  1  0  0  0  0  0999 V2000
  -27.8410  -22.8370   21.7560 C   0  0  0  0  0  2  0  0  0  0  0  0
  -28.3460  -21.0680   20.8230 C   0  0  0  0  0  0  0  0  0  0  0  0
  -27.4750  -21.5590   21.7440 N   0  0  0  0  0  0  0  0  0  0  0  0
  -29.2050  -21.9550   20.3020 N   0  0  0  0  0  2  0  0  0  0  0  0
  -28.8220  -23.1300   20.9000 N   0  0  0  0  0  0  0  0  0  0  0  0
  -28.1760  -19.7210   20.4380 N   0  0  0  0  0  0  0  0  0  0  0  0
  -27.3490  -19.3090   20.8530 H   0  0  0  0  0  0  0  0  0  0  0  0
  -30.9450  -14.7520   19.9560 C   0  0  0  0  0  0  0  0  0  0  0  0
  -30.6250  -12.5170   18.9740 C   0  0  0  0  0  2  0  0  0  0  0  0
  -29.6180  -12.6210   17.8110 C   0  0  0  0  0  2  0  0  0  0  0  0
  -28.1770  -12.4700   18.3390 C   0  0  0  0  0  2  0  0  0  0  0  0
  -27.8830  -13.3920   19.5540 C   0  0  0  0  0  3  0  0  0  0  0  0
  -29.0000  -13.2930   20.6150 C   0  0  0  0  0  2  0  0  0  0  0  0
  -30.2780  -13.5660   19.9460 N   0  0  0  0  0  0  0  0  0  0  0  0
  -32.0990  -14.8610   19.5270 O   0  0  0  0  0  0  0  0  0  0  0  0
  -28.9440  -17.8190   19.0810 C   0  0  0  0  0  2  0  0  0  0  0  0
  -29.4900  -17.8980   21.4970 C   0  0  0  0  0  2  0  0  0  0  0  0
  -29.9850  -16.6890   18.9160 C   0  0  0  0  0  2  0  0  0  0  0  0
  -30.5040  -16.7410   21.2860 C   0  0  0  0  0  2  0  0  0  0  0  0
  -29.2780  -18.7740   20.2410 C   0  0  0  0  0  3  0  0  0  0  0  0
  -30.1860  -15.8730   20.1350 N   0  0  0  0  0  0  0  0  0  0  0  0
  -25.5660  -14.0160   20.4800 C   0  0  0  0  0  0  0  0  0  0  0  0
  -24.5070  -13.2490   20.8880 C   0  0  0  0  0  0  0  0  0  0  0  0
  -24.9290  -11.8900   20.7570 C   0  0  0  0  0  0  0  0  0  0  0  0
  -26.5660  -13.1240   20.1260 N   0  0  0  0  0  0  0  0  0  0  0  0
  -26.1910  -11.8380   20.3500 N   0  0  0  0  0  0  0  0  0  0  0  0
  -24.1870  -10.6350   20.9370 C   0  0  0  0  0  0  0  0  0  0  0  0
  -24.5940   -9.6640   21.8790 C   0  0  0  0  0  3  0  0  0  0  0  0
  -23.8530   -8.4750   22.0460 C   0  0  0  0  0  3  0  0  0  0  0  0
  -22.6910   -8.2460   21.2720 C   0  0  0  0  0  0  0  0  0  0  0  0
  -22.3030   -9.2050   20.3190 C   0  0  0  0  0  3  0  0  0  0  0  0
  -23.0440  -10.3860   20.1500 C   0  0  0  0  0  3  0  0  0  0  0  0
  -21.9240   -7.1080   21.3480 O   0  0  0  0  0  0  0  0  0  0  0  0
  -21.7470   -6.4390   22.5320 C   0  0  0  0  0  0  0  0  0  0  0  0
  -21.1900   -7.0670   23.6670 C   0  0  0  0  0  3  0  0  0  0  0  0
  -20.9610   -6.3230   24.8420 C   0  0  0  0  0  3  0  0  0  0  0  0
  -21.2780   -4.9530   24.8820 C   0  0  0  0  0  0  0  0  0  0  0  0
  -21.8310   -4.3240   23.7520 C   0  0  0  0  0  3  0  0  0  0  0  0
  -22.0630   -5.0650   22.5800 C   0  0  0  0  0  0  0  0  0  0  0  0
  -22.5740   -4.4500   21.4870 F   0  0  0  0  0  0  0  0  0  0  0  0
  -21.0520   -4.2370   26.0080 F   0  0  0  0  0  0  0  0  0  0  0  0
  -23.1460  -13.7420   21.2850 C   0  0  0  0  0  0  0  0  0  0  0  0
  -22.4720  -13.0290   22.1790 N   0  0  0  0  0  0  0  0  0  0  0  0
  -22.6920  -14.7950   20.8380 O   0  0  0  0  0  0  0  0  0  0  0  0
  -22.8500  -12.1750   22.5600 H   0  0  0  0  0  0  0  0  0  0  0  0
  -21.5640  -13.3470   22.4900 H   0  0  0  0  0  0  0  0  0  0  0  0
  -25.7600  -15.3870   20.3580 N   0  0  0  0  0  0  0  0  0  0  0  0
  -25.0250  -16.0610   20.5470 H   0  0  0  0  0  0  0  0  0  0  0  0
  -26.6140  -15.8130   20.0210 H   0  0  0  0  0  0  0  0  0  0  0  0
  -29.4240  -24.4420   20.6140 C   0  0  0  0  0  2  0  0  0  0  0  0
  -28.4090  -25.4180   19.9540 C   0  0  0  0  0  2  0  0  0  0  0  0
  -28.6150  -26.8390   20.1750 O   0  0  0  0  0  0  0  0  0  0  0  0
  -24.6510  -31.8430   23.3780 C   0  0  0  0  0  0  0  0  0  0  0  0
  -27.4640  -27.6160   20.1200 C   0  0  0  0  0  0  0  0  0  0  0  0
  -23.5260  -30.5210   21.6210 C   0  0  0  0  0  3  0  0  0  0  0  0
  -25.0500  -29.1100   20.1460 C   0  0  0  0  0  0  0  0  0  0  0  0
  -26.0530  -30.9340   21.5220 C   0  0  0  0  0  2  0  0  0  0  0  0
  -26.1860  -29.6060   20.8000 C   0  0  0  0  0  0  0  0  0  0  0  0
  -27.3980  -28.8690   20.7830 C   0  0  0  0  0  3  0  0  0  0  0  0
  -26.3100  -27.1630   19.4340 C   0  0  0  0  0  3  0  0  0  0  0  0
  -25.1100  -27.8900   19.4580 C   0  0  0  0  0  3  0  0  0  0  0  0
  -23.7890  -29.9380   20.2090 C   0  0  0  0  0  2  0  0  0  0  0  0
  -24.7600  -31.1090   22.2330 N   0  0  0  0  0  0  0  0  0  0  0  0
  -23.5480  -32.0590   23.8980 O   0  0  0  0  0  0  0  0  0  0  0  0
  -22.8700  -29.4270   22.4950 C   0  0  0  0  0  0  0  0  0  0  0  0
  -21.5570  -29.2130   22.3060 N   0  0  0  0  0  0  0  0  0  0  0  0
  -23.5400  -28.7760   23.3010 O   0  0  0  0  0  0  0  0  0  0  0  0
  -21.0740  -29.7970   21.6380 H   0  0  0  0  0  0  0  0  0  0  0  0
  -18.2060  -27.8910   22.6040 C   0  0  0  0  0  0  0  0  0  0  0  0
  -20.7410  -28.2100   22.9920 C   0  0  0  0  0  3  0  0  0  0  0  0
  -20.9090  -26.8140   22.3510 C   0  0  0  0  0  2  0  0  0  0  0  0
  -19.8600  -26.5110   21.2760 C   0  0  0  0  0  2  0  0  0  0  0  0
  -18.4500  -26.5840   21.8680 C   0  0  0  0  0  2  0  0  0  0  0  0
  -19.2820  -28.6600   23.1190 C   0  0  0  0  0  0  0  0  0  0  0  0
  -19.0000  -29.8840   23.7650 C   0  0  0  0  0  3  0  0  0  0  0  0
  -17.6750  -30.3390   23.8990 C   0  0  0  0  0  3  0  0  0  0  0  0
  -16.6130  -29.5660   23.4000 C   0  0  0  0  0  3  0  0  0  0  0  0
  -16.8780  -28.3420   22.7600 C   0  0  0  0  0  3  0  0  0  0  0  0
  -25.9030  -32.4630   24.0710 C   0  0  0  0  0  3  0  0  0  0  0  0
  -25.5730  -33.8510   24.4220 N   0  0  0  0  0  0  0  0  0  0  0  0
  -25.9160  -34.9210   23.6900 C   0  0  0  0  0  0  0  0  0  0  0  0
  -26.6160  -34.8430   22.6780 O   0  0  0  0  0  0  0  0  0  0  0  0
  -24.9560  -33.9830   25.2090 H   0  0  0  0  0  0  0  0  0  0  0  0
  -24.1710  -36.6940   23.3310 C   0  0  0  0  0  1  0  0  0  0  0  0
  -25.4020  -36.2950   24.1590 C   0  0  0  0  0  3  0  0  0  0  0  0
  -27.5070  -37.2000   25.0440 C   0  0  0  0  0  1  0  0  0  0  0  0
  -26.4220  -37.3630   24.0790 N   0  0  0  0  0  0  0  0  0  0  0  0
  -26.0000  -38.2750   24.2260 H   0  0  0  0  0  0  0  0  0  0  0  0
  -26.3650  -31.6600   25.3490 C   0  0  1  0  0  0  0  0  0  0  0  0
  -25.2240  -31.3870   26.3550 C   0  0  0  0  0  1  0  0  0  0  0  0
  -26.9790  -30.2990   24.9470 C   0  0  0  0  0  1  0  0  0  0  0  0
  -27.4730  -32.4450   26.0880 C   0  0  0  0  0  1  0  0  0  0  0  0
  2  3  2  0
  3  1  1  0
  4  2  1  0
  4  5  1  0
  5  1  1  0
  6  2  1  0
  6  7  1  0
  8 21  1  0
  9 14  1  0
 10 11  1  0
 10  9  1  0
 12 11  1  0
 12 25  1  0
 12 13  1  0
 14  8  1  0
 14 13  1  0
 15  8  2  0
 16 20  1  0
 18 16  1  0
 18 21  1  0
 19 17  1  0
 20  6  1  0
 20 17  1  0
 21 19  1  0
 22 23  2  0
 23 42  1  0
 24 23  1  0
 24 27  1  0
 25 26  1  0
 25 22  1  0
 26 24  2  0
 27 28  1  0
 28 29  2  0
 30 33  1  0
 30 29  1  0
 31 30  2  0
 32 31  1  0
 32 27  2  0
 33 34  1  0
 34 39  2  0
 34 35  1  0
 35 36  2  0
 36 37  1  0
 37 41  1  0
 38 37  2  0
 39 38  1  0
 40 39  1  0
 42 43  1  0
 43 46  1  0
 43 45  1  0
 44 42  2  0
 47 22  1  0
 47 48  1  0
 49 47  1  0
 50  5  1  0
 51 52  1  0
 51 50  1  0
 53 64  2  0
 54 52  1  0
 54 59  1  0
 55 63  1  0
 55 65  1  0
 56 62  1  0
 56 58  1  0
 57 63  1  0
 58 57  1  0
 59 58  2  0
 60 61  1  0
 60 54  2  0
 61 56  2  0
 62 55  1  0
 63 53  1  0
 65 67  2  0
 66 65  1  0
 68 66  1  0
 69 78  2  0
 69 74  1  0
 70 66  1  0
 70 74  1  0
 71 70  1  0
 72 73  1  0
 72 71  1  0
 73 69  1  0
 74 75  2  0
 75 76  1  0
 77 76  2  0
 78 77  1  0
 79 53  1  0
 79 80  1  0
 79 89  1  0
 80 83  1  0
 81 85  1  0
 81 80  1  0
 82 81  2  0
 85 84  1  0
 87 85  1  0
 87 88  1  0
 87 86  1  0
 89 92  1  1
 89 90  1  0
 91 89  1  0
M  ISO  4   8 100  21 100  51 101  52 101
M  END
>  <TORSDO>  (43) 
F 18

>  <SCORE>  (43) 
-13.601

>  <name>  (43) 
42

>  <ligand_id>  (43) 
42

>  <original_smiles>  (43) 
[H]c1c([H])c([H])c2c(c1[H])C([H])([H])C([H])([H])C([H])([H])C2([H])N([H])C(=O)C1([H])N(C(=O)C([H])(N([H])C(=O)C([H])(N([H])C([H])([H])[H])C([H])([H])[H])C(C([H])([H])[H])(C([H])([H])[H])C([H])([H])[H])C([H])([H])c2c([H])c(OC([H])([H])C([H])([H])n3nc(N([H])C4([H])C([H])([H])C([H])([H])N(C(=O)N5C([H])([H])C([H])([H])C([H])([H])C([H])(n6nc(-c7c([H])c([H])c(Oc8c([H])c([H])c(F)c([H])c8F)c([H])c7[H])c(C(=O)N([H])[H])c6N([H])[H])C5([H])[H])C([H])([H])C4([H])[H])nc3[H])c([H])c([H])c2C1([H])[H]

>  <smiles>  (43) 
[H]c1c([H])c([H])c2c(c1[H])C([H])([H])C([H])([H])C([H])([H])C2([H])N([H])C(=O)C1([H])N(C(=O)C([H])(N([H])C(=O)C([H])(N([H])C([H])([H])[H])C([H])([H])[H])C(C([H])([H])[H])(C([H])([H])[H])C([H])([H])[H])C([H])([H])c2c([H])c(OC([H])([H])C([H])([H])n3nc(N([H])C4([H])C([H])([H])C([H])([H])N(C(=O)N5C([H])([H])C([H])([H])C([H])([H])C([H])(n6nc(-c7c([H])c([H])c(Oc8c([H])c([H])c(F)c([H])c8F)c([H])c7[H])c(C(=O)N([H])[H])c6N([H])[H])C5([H])[H])C([H])([H])C4([H])[H])nc3[H])c([H])c([H])c2C1([H])[H]

$$$$
43:0:0
     RDKit          3D

 98102  0  0  1  0  0  0  0  0999 V2000
  -28.8080  -14.7110   22.4640 C   0  0  0  0  0  3  0  0  0  0  0  0
  -28.4650  -16.2070   21.9270 C   0  0  0  0  0  3  0  0  0  0  0  0
  -27.2980  -14.2330   20.5920 C   0  0  0  0  0  2  0  0  0  0  0  0
  -28.4680  -13.4260   21.5770 C   0  0  0  0  0  3  0  0  0  0  0  0
  -27.6460  -16.3680   20.6580 N   0  0  0  0  0  2  0  0  0  0  0  0
  -26.7110  -16.6120   20.9520 H   0  0  0  0  0  0  0  0  0  0  0  0
  -29.6900  -12.0500   20.9510 C   0  0  0  0  0  1  0  0  0  0  0  0
  -32.5870  -14.0900   20.7470 C   0  0  0  0  0  0  0  0  0  0  0  0
  -31.9840  -11.4870   20.7320 C   0  0  0  0  0  3  0  0  0  0  0  0
  -30.8210  -10.1310   19.9570 C   0  0  0  0  0  3  0  0  0  0  0  0
  -29.1490  -10.6030   19.1330 C   0  0  0  0  0  2  0  0  0  0  0  0
  -28.7020  -12.4960   18.9170 C   0  0  0  0  0  2  0  0  0  0  0  0
  -30.0600  -13.8910   19.6590 C   0  0  0  0  0  1  0  0  0  0  0  0
  -31.5670  -13.2990   20.5580 N   0  0  0  0  0  0  0  0  0  0  0  0
  -33.5050  -13.6210   21.3520 O   0  0  0  0  0  0  0  0  0  0  0  0
  -30.7140  -11.9280   17.2600 C   0  0  0  0  0  0  0  0  0  0  0  0
  -32.1810  -13.2900   17.3440 C   0  0  0  0  0  0  0  0  0  0  0  0
  -34.2660  -14.5060   17.7910 C   0  0  0  0  0  2  0  0  0  0  0  0
  -32.1290  -15.7060   17.5520 C   0  0  0  0  0  2  0  0  0  0  0  0
  -34.2920  -15.0430   19.2460 C   0  0  0  0  0  2  0  0  0  0  0  0
  -32.1490  -16.0390   19.0850 C   0  0  0  0  0  2  0  0  0  0  0  0
  -30.2730  -10.7400   16.4520 C   0  0  0  0  0  1  0  0  0  0  0  0
  -31.1700  -12.9590   16.5420 N   0  0  0  0  0  4  0  0  0  0  0  0
  -32.3170  -12.4080   18.3150 N   0  0  0  0  0  2  0  0  0  0  0  0
  -30.9730  -12.0350   18.6500 N   0  0  0  0  0  2  0  0  0  0  0  0
  -32.9150  -14.5010   17.2130 N   0  0  0  0  0  0  0  0  0  0  0  0
  -32.9230  -15.0240   19.8080 N   0  0  0  0  0  0  0  0  0  0  0  0
  -25.8840  -13.6540   19.4460 C   0  0  0  0  0  3  0  0  0  0  0  0
  -25.0570  -13.0260   20.8620 C   0  0  0  0  0  3  0  0  0  0  0  0
  -25.7170  -11.5120   21.4460 C   0  0  0  0  0  3  0  0  0  0  0  0
  -27.4380  -12.4590   19.4100 N   0  0  0  0  0  2  0  0  0  0  0  0
  -27.1170  -11.3370   20.7570 N   0  0  0  0  0  2  0  0  0  0  0  0
  -24.9290  -10.0260   21.4180 C   0  0  0  0  0  0  0  0  0  0  0  0
  -25.2010   -8.9030   22.2870 C   0  0  0  0  0  3  0  0  0  0  0  0
  -24.4350   -7.6770   22.3700 C   0  0  0  0  0  3  0  0  0  0  0  0
  -23.3080   -7.4160   21.5480 C   0  0  0  0  0  0  0  0  0  0  0  0
  -23.0920   -8.4060   20.5610 C   0  0  0  0  0  3  0  0  0  0  0  0
  -23.8730   -9.6220   20.4890 C   0  0  0  0  0  3  0  0  0  0  0  0
  -22.4910   -6.2720   21.6140 O   0  0  0  0  0  0  0  0  0  0  0  0
  -22.1490   -5.6230   22.8010 C   0  0  0  0  0  0  0  0  0  0  0  0
  -21.5550   -6.3100   23.8850 C   0  0  0  0  0  3  0  0  0  0  0  0
  -21.1930   -5.6270   25.0690 C   0  0  0  0  0  3  0  0  0  0  0  0
  -21.4130   -4.2410   25.1870 C   0  0  0  0  0  0  0  0  0  0  0  0
  -21.9690   -3.5370   24.1060 C   0  0  0  0  0  3  0  0  0  0  0  0
  -22.3210   -4.2160   22.9210 C   0  0  0  0  0  0  0  0  0  0  0  0
  -22.8260   -3.4980   21.8900 F   0  0  0  0  0  0  0  0  0  0  0  0
  -21.0910   -3.5920   26.3350 F   0  0  0  0  0  0  0  0  0  0  0  0
  -23.5960  -13.0410   20.8110 C   0  0  0  0  0  0  0  0  0  0  0  0
  -22.8920  -12.3810   21.7250 N   0  0  0  0  0  0  0  0  0  0  0  0
  -23.0920  -13.6540   19.8890 O   0  0  0  0  0  0  0  0  0  0  0  0
  -23.3260  -11.8670   22.4770 H   0  0  0  0  0  0  0  0  0  0  0  0
  -21.8810  -12.3890   21.6700 H   0  0  0  0  0  0  0  0  0  0  0  0
  -25.9950  -14.8770   18.9210 N   0  0  0  0  0  0  0  0  0  0  0  0
  -25.1860  -15.4880   18.9080 H   0  0  0  0  0  0  0  0  0  0  0  0
  -26.6410  -15.0770   18.1650 H   0  0  0  0  0  0  0  0  0  0  0  0
  -28.2390  -18.3700   19.9190 C   0  0  0  0  0 15  0  0  0  0  0  0
  -28.3010  -20.8870   19.5520 C   0  0  0  0  0 15  0  0  0  0  0  0
  -29.0430  -23.0080   19.2720 O   0  0  0  0  0  1  0  0  0  0  0  0
  -28.0830  -30.3350   23.4670 C   0  0  0  0  0  0  0  0  0  0  0  0
  -28.8670  -24.7940   19.5220 C   0  0  0  0  0  0  0  0  0  0  0  0
  -26.6440  -29.5280   21.6610 C   0  0  0  0  0  3  0  0  0  0  0  0
  -27.6350  -27.8270   19.8720 C   0  0  0  0  0  0  0  0  0  0  0  0
  -29.1450  -28.8940   21.4900 C   0  0  0  0  0  2  0  0  0  0  0  0
  -28.8060  -27.5580   20.5730 C   0  0  0  0  0  0  0  0  0  0  0  0
  -29.4050  -26.1080   20.3570 C   0  0  0  0  0  3  0  0  0  0  0  0
  -27.9210  -25.5450   18.7310 C   0  0  0  0  0  3  0  0  0  0  0  0
  -27.3140  -26.8570   18.9000 C   0  0  0  0  0  3  0  0  0  0  0  0
  -26.7520  -29.0790   20.1640 C   0  0  0  0  0  2  0  0  0  0  0  0
  -28.0110  -29.6330   22.2600 N   0  0  0  0  0  0  0  0  0  0  0  0
  -27.0650  -30.7530   24.0520 O   0  0  0  0  0  0  0  0  0  0  0  0
  -25.7460  -28.5530   22.4730 C   0  0  0  0  0  0  0  0  0  0  0  0
  -24.4220  -28.5100   22.2200 N   0  0  0  0  0  0  0  0  0  0  0  0
  -26.2660  -27.8240   23.3210 O   0  0  0  0  0  0  0  0  0  0  0  0
  -24.0440  -29.1470   21.5320 H   0  0  0  0  0  0  0  0  0  0  0  0
  -20.9550  -27.3980   22.2980 C   0  0  0  0  0  0  0  0  0  0  0  0
  -23.4840  -27.5560   22.8290 C   0  0  0  0  0  3  0  0  0  0  0  0
  -23.5990  -26.1680   22.1560 C   0  0  0  0  0  2  0  0  0  0  0  0
  -22.6030  -25.9720   21.0090 C   0  0  0  0  0  2  0  0  0  0  0  0
  -21.1650  -26.1090   21.5200 C   0  0  0  0  0  2  0  0  0  0  0  0
  -22.0440  -28.0860   22.8980 C   0  0  0  0  0  0  0  0  0  0  0  0
  -21.7930  -29.2910   23.5900 C   0  0  0  0  0  3  0  0  0  0  0  0
  -20.4880  -29.8110   23.6810 C   0  0  0  0  0  3  0  0  0  0  0  0
  -19.4140  -29.1220   23.0930 C   0  0  0  0  0  3  0  0  0  0  0  0
  -19.6460  -27.9160   22.4100 C   0  0  0  0  0  3  0  0  0  0  0  0
  -29.4310  -30.6650   24.1860 C   0  0  0  0  0  3  0  0  0  0  0  0
  -30.0690  -29.4100   24.9050 C   0  0  1  0  0  0  0  0  0  0  0  0
  -29.0840  -28.6390   25.8150 C   0  0  0  0  0  1  0  0  0  0  0  0
  -30.6310  -28.4020   23.8850 C   0  0  0  0  0  1  0  0  0  0  0  0
  -31.2700  -29.8540   25.7740 C   0  0  0  0  0  1  0  0  0  0  0  0
  -29.1920  -31.7200   25.2080 N   0  0  0  0  0  0  0  0  0  0  0  0
  -29.5080  -33.0200   25.0980 C   0  0  0  0  0  0  0  0  0  0  0  0
  -30.0680  -33.4750   24.0990 O   0  0  0  0  0  0  0  0  0  0  0  0
  -28.6820  -31.4300   26.0290 H   0  0  0  0  0  0  0  0  0  0  0  0
  -27.8150  -34.6670   26.0000 C   0  0  0  0  0  1  0  0  0  0  0  0
  -29.1560  -33.9660   26.2730 C   0  0  0  0  0  3  0  0  0  0  0  0
  -31.4280  -34.4360   27.0890 C   0  0  0  0  0  1  0  0  0  0  0  0
  -30.1900  -34.9900   26.5480 N   0  0  0  0  0  0  0  0  0  0  0  0
  -29.8420  -35.6850   27.2040 H   0  0  0  0  0  0  0  0  0  0  0  0
  2  1  2  0
  3  4  1  0
  4  7  1  0
  4  1  1  0
  5  6  1  0
  5  2  1  0
  8 15  2  0
 10  9  2  0
 11 10  1  0
 12 11  1  0
 12 31  1  0
 13 14  1  0
 14  9  1  0
 14  8  1  0
 16 25  1  0
 17 24  1  0
 18 20  1  0
 19 21  1  0
 20 27  1  0
 21 27  1  0
 22 16  1  0
 23 16  2  0
 23 17  2  0
 24 25  1  0
 26 17  1  0
 26 19  1  0
 26 18  1  0
 27  8  1  0
 28  3  1  0
 28 29  1  0
 29 48  1  0
 29 30  1  0
 30 32  1  0
 31 32  1  0
 33 30  1  0
 33 34  1  0
 34 35  2  0
 36 39  1  0
 36 35  1  0
 37 36  2  0
 38 37  1  0
 38 33  2  0
 39 40  1  0
 40 45  2  0
 40 41  1  0
 41 42  2  0
 42 43  1  0
 43 47  1  0
 44 43  2  0
 45 44  1  0
 46 45  1  0
 48 49  1  0
 49 51  1  0
 50 48  2  0
 52 49  1  0
 53 28  1  0
 54 53  1  0
 55 53  1  0
 58 60  1  0
 59 70  2  0
 60 65  1  0
 61 69  1  0
 61 71  1  0
 62 68  1  0
 62 64  1  0
 63 69  1  0
 64 63  1  0
 65 64  2  0
 66 67  1  0
 66 60  2  0
 67 62  2  0
 68 61  1  0
 69 59  1  0
 71 73  2  0
 72 71  1  0
 74 72  1  0
 75 84  2  0
 75 80  1  0
 76 72  1  0
 76 80  1  0
 77 76  1  0
 78 79  1  0
 78 77  1  0
 79 75  1  0
 80 81  2  0
 81 82  1  0
 83 82  2  0
 84 83  1  0
 85 59  1  0
 85 86  1  0
 85 90  1  0
 86 89  1  1
 86 87  1  0
 88 86  1  0
 90 93  1  0
 91 90  1  0
 91 95  1  0
 92 91  2  0
 95 94  1  0
 95 97  1  0
 97 96  1  0
 97 98  1  0
M  ISO  4   8 100  27 100  57 101  58 101
M  END
>  <TORSDO>  (44) 
F 19

>  <SCORE>  (44) 
4.560

>  <name>  (44) 
43

>  <ligand_id>  (44) 
43

>  <original_smiles>  (44) 
[H]c1c([H])c([H])c2c(c1[H])C([H])([H])C([H])([H])C([H])([H])C2([H])N([H])C(=O)C1([H])N(C(=O)C([H])(N([H])C(=O)C([H])(N([H])C([H])([H])[H])C([H])([H])[H])C(C([H])([H])[H])(C([H])([H])[H])C([H])([H])[H])C([H])([H])c2c([H])c(OC([H])([H])C([H])([H])[N+]3([H])C([H])([H])C([H])([H])C([H])(C([H])([H])n4nc(N5C([H])([H])C([H])([H])N(C(=O)N6C([H])([H])C([H])([H])C([H])([H])C([H])(n7nc(-c8c([H])c([H])c(Oc9c([H])c([H])c(F)c([H])c9F)c([H])c8[H])c(C(=O)N([H])[H])c7N([H])[H])C6([H])[H])C([H])([H])C5([H])[H])nc4C([H])([H])[H])C3([H])[H])c([H])c([H])c2C1([H])[H]

>  <smiles>  (44) 
[H]c1c([H])c([H])c2c(c1[H])C([H])([H])C([H])([H])C([H])([H])C2([H])N([H])C(=O)C1([H])N(C(=O)C([H])(N([H])C(=O)C([H])(N([H])C([H])([H])[H])C([H])([H])[H])C(C([H])([H])[H])(C([H])([H])[H])C([H])([H])[H])C([H])([H])c2c([H])c(OC([H])([H])C([H])([H])[N+]3([H])C([H])([H])C([H])([H])C([H])(C([H])([H])n4nc(N5C([H])([H])C([H])([H])N(C(=O)N6C([H])([H])C([H])([H])C([H])([H])C([H])(n7nc(-c8c([H])c([H])c(Oc9c([H])c([H])c(F)c([H])c9F)c([H])c8[H])c(C(=O)N([H])[H])c7N([H])[H])C6([H])[H])C([H])([H])C5([H])[H])nc4C([H])([H])[H])C3([H])[H])c([H])c([H])c2C1([H])[H]

$$$$
44:0:0
     RDKit          3D

 93103  0  0  1  0  0  0  0  0999 V2000
  -29.0040  -22.6820   19.0160 C   0  0  0  0  0  3  0  0  0  0  0  0
  -29.5020  -21.7970   21.4850 C   0  0  0  0  0  0  0  0  0  0  0  0
  -28.8170  -23.6000   20.0920 C   0  0  0  0  0  0  0  0  0  0  0  0
  -29.6600  -20.8500   20.4040 C   0  0  0  0  0  0  0  0  0  0  0  0
  -29.8660  -18.4500   21.5180 C   0  0  0  0  0  2  0  0  0  0  0  0
  -29.9960  -18.4000   19.4600 C   0  0  0  0  0  2  0  0  0  0  0  0
  -30.5270  -17.4020   20.5520 C   0  0  0  0  0  3  0  0  0  0  0  0
  -29.4050  -21.3730   19.1680 N   0  0  0  0  0  0  0  0  0  0  0  0
  -29.0670  -23.1060   21.3410 N   0  0  0  0  0  0  0  0  0  0  0  0
  -30.1800  -19.4560   20.4810 N   0  0  0  0  0  0  0  0  0  0  0  0
  -30.7840  -14.8050   20.3350 C   0  0  0  0  0  0  0  0  0  0  0  0
  -30.5730  -12.5140   19.3610 C   0  0  0  0  0  2  0  0  0  0  0  0
  -29.6300  -12.5530   18.1390 C   0  0  0  0  0  2  0  0  0  0  0  0
  -28.1650  -12.3760   18.5800 C   0  0  0  0  0  2  0  0  0  0  0  0
  -27.7880  -13.2880   19.7790 C   0  0  0  0  0  3  0  0  0  0  0  0
  -28.8530  -13.2400   20.8970 C   0  0  0  0  0  2  0  0  0  0  0  0
  -30.1440  -13.5870   20.2880 N   0  0  0  0  0  0  0  0  0  0  0  0
  -31.9640  -14.8930   19.9880 O   0  0  0  0  0  0  0  0  0  0  0  0
  -30.0430  -15.9500   20.5740 N   0  0  0  0  0  0  0  0  0  0  0  0
  -29.0700  -15.8060   20.7980 H   0  0  0  0  0  0  0  0  0  0  0  0
  -25.4100  -13.8750   20.5420 C   0  0  0  0  0  0  0  0  0  0  0  0
  -24.3470  -13.0980   20.9120 C   0  0  0  0  0  0  0  0  0  0  0  0
  -24.8050  -11.7460   20.8560 C   0  0  0  0  0  0  0  0  0  0  0  0
  -26.4490  -12.9960   20.2810 N   0  0  0  0  0  0  0  0  0  0  0  0
  -26.0920  -11.7100   20.5340 N   0  0  0  0  0  0  0  0  0  0  0  0
  -24.0750  -10.4830   21.0350 C   0  0  0  0  0  0  0  0  0  0  0  0
  -24.4930   -9.5160   21.9740 C   0  0  0  0  0  3  0  0  0  0  0  0
  -23.7640   -8.3180   22.1400 C   0  0  0  0  0  3  0  0  0  0  0  0
  -22.6030   -8.0810   21.3670 C   0  0  0  0  0  0  0  0  0  0  0  0
  -22.2050   -9.0380   20.4170 C   0  0  0  0  0  3  0  0  0  0  0  0
  -22.9350  -10.2270   20.2490 C   0  0  0  0  0  3  0  0  0  0  0  0
  -21.8460   -6.9360   21.4430 O   0  0  0  0  0  0  0  0  0  0  0  0
  -21.7410   -6.2190   22.6080 C   0  0  0  0  0  0  0  0  0  0  0  0
  -21.2240   -6.7890   23.7910 C   0  0  0  0  0  3  0  0  0  0  0  0
  -21.0690   -5.9970   24.9450 C   0  0  0  0  0  3  0  0  0  0  0  0
  -21.4210   -4.6350   24.9170 C   0  0  0  0  0  0  0  0  0  0  0  0
  -21.9320   -4.0630   23.7380 C   0  0  0  0  0  3  0  0  0  0  0  0
  -22.0880   -4.8520   22.5860 C   0  0  0  0  0  0  0  0  0  0  0  0
  -22.5600   -4.2920   21.4470 F   0  0  0  0  0  0  0  0  0  0  0  0
  -21.2660   -3.8700   26.0240 F   0  0  0  0  0  0  0  0  0  0  0  0
  -22.9530  -13.5760   21.2050 C   0  0  0  0  0  0  0  0  0  0  0  0
  -22.2340  -12.8740   22.0730 N   0  0  0  0  0  0  0  0  0  0  0  0
  -22.5120  -14.6070   20.6990 O   0  0  0  0  0  0  0  0  0  0  0  0
  -22.6060  -12.0400   22.5030 H   0  0  0  0  0  0  0  0  0  0  0  0
  -21.3010  -13.1760   22.3130 H   0  0  0  0  0  0  0  0  0  0  0  0
  -25.5760  -15.2480   20.3810 N   0  0  0  0  0  0  0  0  0  0  0  0
  -24.8060  -15.8980   20.5000 H   0  0  0  0  0  0  0  0  0  0  0  0
  -26.4090  -15.6860   20.0130 H   0  0  0  0  0  0  0  0  0  0  0  0
  -30.5510  -22.3720   23.8300 C   0  0  0  0  0  2  0  0  0  0  0  0
  -31.2300  -21.1260   23.3370 C   0  0  0  0  0  2  0  0  0  0  0  0
  -29.8070  -21.4240   22.9080 C   0  0  0  0  0  3  0  0  0  0  0  0
  -27.9590  -24.9350   19.8830 C   0  0  0  0  0  2  0  0  0  0  0  0
  -28.3120  -26.3560   20.2590 O   0  0  0  0  0  0  0  0  0  0  0  0
  -24.6530  -31.8830   23.2980 C   0  0  0  0  0  0  0  0  0  0  0  0
  -27.2480  -27.3030   20.1860 C   0  0  0  0  0  0  0  0  0  0  0  0
  -23.4540  -30.5140   21.6370 C   0  0  0  0  0  3  0  0  0  0  0  0
  -24.9060  -28.9860   20.1890 C   0  0  0  0  0  0  0  0  0  0  0  0
  -26.0050  -30.8060   21.4780 C   0  0  0  0  0  2  0  0  0  0  0  0
  -26.0810  -29.4350   20.8060 C   0  0  0  0  0  0  0  0  0  0  0  0
  -27.2530  -28.6060   20.7980 C   0  0  0  0  0  3  0  0  0  0  0  0
  -26.0460  -26.9500   19.5200 C   0  0  0  0  0  3  0  0  0  0  0  0
  -24.8960  -27.7520   19.5350 C   0  0  0  0  0  3  0  0  0  0  0  0
  -23.6740  -29.8680   20.2460 C   0  0  0  0  0  2  0  0  0  0  0  0
  -24.7230  -31.0850   22.1930 N   0  0  0  0  0  0  0  0  0  0  0  0
  -23.5680  -32.1580   23.8290 O   0  0  0  0  0  0  0  0  0  0  0  0
  -22.7830  -29.4830   22.5770 C   0  0  0  0  0  0  0  0  0  0  0  0
  -21.4570  -29.3030   22.4360 N   0  0  0  0  0  0  0  0  0  0  0  0
  -23.4530  -28.8500   23.3970 O   0  0  0  0  0  0  0  0  0  0  0  0
  -20.9750  -29.8660   21.7490 H   0  0  0  0  0  0  0  0  0  0  0  0
  -18.0750  -28.1050   22.9070 C   0  0  0  0  0  0  0  0  0  0  0  0
  -20.6320  -28.3580   23.1900 C   0  0  0  0  0  3  0  0  0  0  0  0
  -20.7340  -26.9330   22.5960 C   0  0  0  0  0  2  0  0  0  0  0  0
  -19.6350  -26.6250   21.5740 C   0  0  0  0  0  2  0  0  0  0  0  0
  -18.2510  -26.7650   22.2140 C   0  0  0  0  0  2  0  0  0  0  0  0
  -19.1930  -28.8600   23.3510 C   0  0  0  0  0  0  0  0  0  0  0  0
  -18.9730  -30.1150   23.9600 C   0  0  0  0  0  3  0  0  0  0  0  0
  -17.6680  -30.6150   24.1290 C   0  0  0  0  0  3  0  0  0  0  0  0
  -16.5650  -29.8580   23.7010 C   0  0  0  0  0  3  0  0  0  0  0  0
  -16.7680  -28.6040   23.0960 C   0  0  0  0  0  3  0  0  0  0  0  0
  -25.9330  -32.5070   23.9330 C   0  0  0  0  0  3  0  0  0  0  0  0
  -25.6300  -33.9070   24.2620 N   0  0  0  0  0  0  0  0  0  0  0  0
  -25.9360  -34.9560   23.4870 C   0  0  0  0  0  0  0  0  0  0  0  0
  -26.5750  -34.8480   22.4370 O   0  0  0  0  0  0  0  0  0  0  0  0
  -25.0600  -34.0650   25.0800 H   0  0  0  0  0  0  0  0  0  0  0  0
  -24.1760  -36.7310   23.1990 C   0  0  0  0  0  1  0  0  0  0  0  0
  -25.4600  -36.3470   23.9510 C   0  0  0  0  0  3  0  0  0  0  0  0
  -27.6220  -37.2640   24.6670 C   0  0  0  0  0  1  0  0  0  0  0  0
  -26.4760  -37.4060   23.7730 N   0  0  0  0  0  0  0  0  0  0  0  0
  -26.0670  -38.3250   23.9260 H   0  0  0  0  0  0  0  0  0  0  0  0
  -26.4290  -31.7320   25.2160 C   0  0  1  0  0  0  0  0  0  0  0  0
  -25.3200  -31.4990   26.2700 C   0  0  0  0  0  1  0  0  0  0  0  0
  -27.0090  -30.3500   24.8330 C   0  0  0  0  0  1  0  0  0  0  0  0
  -27.5750  -32.5190   25.8920 C   0  0  0  0  0  1  0  0  0  0  0  0
  1  8  2  0
  1  3  1  0
  2 51  1  0
  3  9  2  0
  4 10  1  0
  4  2  2  0
  6 10  1  0
  6  7  1  0
  7 19  1  0
  7  5  1  0
  8  4  1  0
  9  2  1  0
 10  5  1  0
 11 19  1  0
 12 17  1  0
 13 14  1  0
 13 12  1  0
 15 14  1  0
 15 24  1  0
 15 16  1  0
 17 11  1  0
 17 16  1  0
 18 11  2  0
 19 20  1  0
 21 22  2  0
 22 41  1  0
 23 22  1  0
 23 26  1  0
 24 25  1  0
 24 21  1  0
 25 23  2  0
 26 27  1  0
 27 28  2  0
 29 32  1  0
 29 28  1  0
 30 29  2  0
 31 30  1  0
 31 26  2  0
 32 33  1  0
 33 34  1  0
 34 35  2  0
 36 35  1  0
 36 40  1  0
 37 36  2  0
 38 33  2  0
 38 37  1  0
 39 38  1  0
 41 42  1  0
 42 45  1  0
 42 44  1  0
 43 41  2  0
 46 47  1  0
 46 21  1  0
 48 46  1  0
 50 49  1  0
 51 50  1  0
 51 49  1  0
 52  3  1  0
 52 53  1  0
 54 65  2  0
 55 53  1  0
 55 60  1  0
 56 64  1  0
 56 66  1  0
 57 63  1  0
 57 59  1  0
 58 64  1  0
 59 58  1  0
 60 59  2  0
 61 62  1  0
 61 55  2  0
 62 57  2  0
 63 56  1  0
 64 54  1  0
 66 68  2  0
 67 66  1  0
 69 67  1  0
 70 79  2  0
 70 75  1  0
 71 67  1  0
 71 75  1  0
 72 71  1  0
 73 74  1  0
 73 72  1  0
 74 70  1  0
 75 76  2  0
 76 77  1  0
 78 77  2  0
 79 78  1  0
 80 54  1  0
 80 81  1  0
 80 90  1  0
 81 84  1  0
 82 86  1  0
 82 81  1  0
 83 82  2  0
 86 85  1  0
 88 89  1  0
 88 86  1  0
 88 87  1  0
 90 93  1  1
 90 91  1  0
 92 90  1  0
M  ISO  4  11 100  19 100  52 101  53 101
M  END
>  <TORSDO>  (45) 
F 18

>  <SCORE>  (45) 
-14.745

>  <name>  (45) 
44

>  <ligand_id>  (45) 
44

>  <original_smiles>  (45) 
[H]c1nc(N2C([H])([H])C([H])(N([H])C(=O)N3C([H])([H])C([H])([H])C([H])([H])C([H])(n4nc(-c5c([H])c([H])c(Oc6c([H])c([H])c(F)c([H])c6F)c([H])c5[H])c(C(=O)N([H])[H])c4N([H])[H])C3([H])[H])C2([H])[H])c(C2([H])C([H])([H])C2([H])[H])nc1C([H])([H])Oc1c([H])c([H])c2c(c1[H])C([H])([H])N(C(=O)C([H])(N([H])C(=O)C([H])(N([H])C([H])([H])[H])C([H])([H])[H])C(C([H])([H])[H])(C([H])([H])[H])C([H])([H])[H])C([H])(C(=O)N([H])C1([H])c3c([H])c([H])c([H])c([H])c3C([H])([H])C([H])([H])C1([H])[H])C2([H])[H]

>  <smiles>  (45) 
[H]c1nc(N2C([H])([H])C([H])(N([H])C(=O)N3C([H])([H])C([H])([H])C([H])([H])C([H])(n4nc(-c5c([H])c([H])c(Oc6c([H])c([H])c(F)c([H])c6F)c([H])c5[H])c(C(=O)N([H])[H])c4N([H])[H])C3([H])[H])C2([H])[H])c(C2([H])C([H])([H])C2([H])[H])nc1C([H])([H])Oc1c([H])c([H])c2c(c1[H])C([H])([H])N(C(=O)C([H])(N([H])C(=O)C([H])(N([H])C([H])([H])[H])C([H])([H])[H])C(C([H])([H])[H])(C([H])([H])[H])C([H])([H])[H])C([H])(C(=O)N([H])C1([H])c3c([H])c([H])c([H])c([H])c3C([H])([H])C([H])([H])C1([H])[H])C2([H])[H]

$$$$
45:0:0
     RDKit          3D

105114  0  0  1  0  0  0  0  0999 V2000
  -28.1280  -18.7130   24.0140 C   0  0  0  0  0  0  0  0  0  0  0  0
  -28.3530  -18.7530   22.6600 C   0  0  0  0  0  0  0  0  0  0  0  0
  -28.8560  -17.7940   24.7770 C   0  0  0  0  0  0  0  0  0  0  0  0
  -29.9460  -17.1660   22.8470 C   0  0  0  0  0  0  0  0  0  0  0  0
  -26.1390  -21.6090   22.9940 C   0  0  0  0  0  0  0  0  0  0  0  0
  -27.1170  -19.7550   24.4130 C   0  0  0  0  0  3  0  0  0  0  0  0
  -27.5000  -19.7990   22.0060 C   0  0  0  0  0  3  0  0  0  0  0  0
  -29.2620  -17.9830   22.0420 N   0  0  0  0  0  0  0  0  0  0  0  0
  -29.7640  -17.0060   24.1620 N   0  0  0  0  0  0  0  0  0  0  0  0
  -26.8270  -20.4580   23.1430 N   0  0  0  0  0  0  0  0  0  0  0  0
  -25.9160  -22.0830   21.8780 O   0  0  0  0  0  0  0  0  0  0  0  0
  -28.6680  -17.6290   26.2760 C   0  0  0  0  0  2  0  0  0  0  0  0
  -27.5600  -16.2490   28.1310 C   0  0  0  0  0  1  0  0  0  0  0  0
  -27.7500  -16.4450   26.6200 C   0  0  0  0  0  2  0  0  0  0  0  0
  -25.6630  -22.3760   24.2420 C   0  0  0  0  0  2  0  0  0  0  0  0
  -25.4460  -23.8990   24.0470 C   0  0  0  0  0  2  0  0  0  0  0  0
  -26.6760  -24.6510   23.6860 N   0  0  0  0  0  4  0  0  0  0  0  0
  -27.5120  -24.1260   23.8880 H   0  0  0  0  0  0  0  0  0  0  0  0
  -26.7360  -25.4750   24.2630 H   0  0  0  0  0  0  0  0  0  0  0  0
  -26.7610  -25.1300   22.2920 C   0  0  0  0  0  2  0  0  0  0  0  0
  -28.1940  -24.9420   21.7550 C   0  0  0  0  0  3  0  0  0  0  0  0
  -29.1190  -25.6990   22.5840 N   0  0  0  0  0  0  0  0  0  0  0  0
  -29.0630  -26.6690   22.2850 H   0  0  0  0  0  0  0  0  0  0  0  0
  -30.0660  -25.4390   22.3220 H   0  0  0  0  0  0  0  0  0  0  0  0
  -28.3850  -25.3470   20.2730 C   0  0  0  0  0  2  0  0  0  0  0  0
  -28.4210  -26.7680   20.1000 O   0  0  0  0  0  0  0  0  0  0  0  0
  -24.6100  -31.8700   23.2110 C   0  0  0  0  0  0  0  0  0  0  0  0
  -27.2330  -27.4630   20.0850 C   0  0  0  0  0  0  0  0  0  0  0  0
  -23.3960  -30.4920   21.5550 C   0  0  0  0  0  3  0  0  0  0  0  0
  -24.8400  -28.9620   20.1180 C   0  0  0  0  0  0  0  0  0  0  0  0
  -25.9230  -30.8420   21.3620 C   0  0  0  0  0  2  0  0  0  0  0  0
  -25.9990  -29.4800   20.7080 C   0  0  0  0  0  0  0  0  0  0  0  0
  -27.1970  -28.7380   20.6880 C   0  0  0  0  0  3  0  0  0  0  0  0
  -26.0560  -26.9550   19.4870 C   0  0  0  0  0  3  0  0  0  0  0  0
  -24.8620  -27.6980   19.5070 C   0  0  0  0  0  3  0  0  0  0  0  0
  -23.5990  -29.8240   20.1700 C   0  0  0  0  0  2  0  0  0  0  0  0
  -24.6610  -31.0820   22.1010 N   0  0  0  0  0  0  0  0  0  0  0  0
  -23.5300  -32.1450   23.7530 O   0  0  0  0  0  0  0  0  0  0  0  0
  -22.7390  -29.4660   22.5030 C   0  0  0  0  0  0  0  0  0  0  0  0
  -21.4120  -29.3020   22.3780 N   0  0  0  0  0  0  0  0  0  0  0  0
  -23.4190  -28.8180   23.3040 O   0  0  0  0  0  0  0  0  0  0  0  0
  -20.9260  -29.8750   21.7030 H   0  0  0  0  0  0  0  0  0  0  0  0
  -18.0260  -28.1370   22.8480 C   0  0  0  0  0  0  0  0  0  0  0  0
  -20.5850  -28.3630   23.1340 C   0  0  0  0  0  3  0  0  0  0  0  0
  -20.6750  -26.9380   22.5410 C   0  0  0  0  0  2  0  0  0  0  0  0
  -19.5730  -26.6370   21.5200 C   0  0  0  0  0  2  0  0  0  0  0  0
  -18.1900  -26.7920   22.1610 C   0  0  0  0  0  2  0  0  0  0  0  0
  -19.1510  -28.8820   23.2910 C   0  0  0  0  0  0  0  0  0  0  0  0
  -18.9450  -30.1430   23.8920 C   0  0  0  0  0  3  0  0  0  0  0  0
  -17.6460  -30.6580   24.0550 C   0  0  0  0  0  3  0  0  0  0  0  0
  -16.5340  -29.9080   23.6320 C   0  0  0  0  0  3  0  0  0  0  0  0
  -16.7260  -28.6500   23.0340 C   0  0  0  0  0  3  0  0  0  0  0  0
  -25.9000  -32.4840   23.8380 C   0  0  0  0  0  3  0  0  0  0  0  0
  -26.4480  -31.6620   25.0690 C   0  0  1  0  0  0  0  0  0  0  0  0
  -25.3780  -31.3720   26.1460 C   0  0  0  0  0  1  0  0  0  0  0  0
  -27.0300  -30.3060   24.6070 C   0  0  0  0  0  1  0  0  0  0  0  0
  -27.6070  -32.4380   25.7390 C   0  0  0  0  0  1  0  0  0  0  0  0
  -25.5830  -33.8630   24.2320 N   0  0  0  0  0  0  0  0  0  0  0  0
  -25.9020  -34.9500   23.5160 C   0  0  0  0  0  0  0  0  0  0  0  0
  -26.5640  -34.8950   22.4760 O   0  0  0  0  0  0  0  0  0  0  0  0
  -24.9820  -33.9780   25.0350 H   0  0  0  0  0  0  0  0  0  0  0  0
  -24.1480  -36.7360   23.2650 C   0  0  0  0  0  1  0  0  0  0  0  0
  -25.4100  -36.3150   24.0360 C   0  0  0  0  0  3  0  0  0  0  0  0
  -27.5580  -37.1840   24.8470 C   0  0  0  0  0  1  0  0  0  0  0  0
  -26.4290  -37.3820   23.9420 N   0  0  0  0  0  0  0  0  0  0  0  0
  -26.0200  -38.2920   24.1370 H   0  0  0  0  0  0  0  0  0  0  0  0
  -30.9900  -16.2870   22.1970 C   0  0  0  0  0  2  0  0  0  0  0  0
  -30.7770  -14.3380   20.7030 C   0  0  0  0  0  0  0  0  0  0  0  0
  -30.4150  -12.2850   19.3880 C   0  0  0  0  0  2  0  0  0  0  0  0
  -29.4800  -12.5300   18.1890 C   0  0  0  0  0  2  0  0  0  0  0  0
  -28.0050  -12.3840   18.6060 C   0  0  0  0  0  2  0  0  0  0  0  0
  -27.6660  -13.2010   19.8810 C   0  0  0  0  0  3  0  0  0  0  0  0
  -28.7020  -12.9320   20.9930 C   0  0  0  0  0  2  0  0  0  0  0  0
  -30.0490  -13.2200   20.4610 N   0  0  0  0  0  0  0  0  0  0  0  0
  -31.7750  -14.6570   20.0500 O   0  0  0  0  0  0  0  0  0  0  0  0
  -30.3810  -15.0460   21.7570 N   0  0  0  0  0  0  0  0  0  0  0  0
  -29.5680  -14.7430   22.2700 H   0  0  0  0  0  0  0  0  0  0  0  0
  -25.2600  -13.8160   20.5670 C   0  0  0  0  0  0  0  0  0  0  0  0
  -24.1840  -13.0440   20.9160 C   0  0  0  0  0  0  0  0  0  0  0  0
  -24.6380  -11.6910   20.8710 C   0  0  0  0  0  0  0  0  0  0  0  0
  -26.3040  -12.9320   20.3380 N   0  0  0  0  0  0  0  0  0  0  0  0
  -25.9310  -11.6480   20.5750 N   0  0  0  0  0  0  0  0  0  0  0  0
  -23.9040  -10.4290   21.0390 C   0  0  0  0  0  0  0  0  0  0  0  0
  -24.3600   -9.4220   21.9180 C   0  0  0  0  0  3  0  0  0  0  0  0
  -23.6280   -8.2250   22.0750 C   0  0  0  0  0  3  0  0  0  0  0  0
  -22.4270   -8.0280   21.3540 C   0  0  0  0  0  0  0  0  0  0  0  0
  -21.9890   -9.0240   20.4640 C   0  0  0  0  0  3  0  0  0  0  0  0
  -22.7210  -10.2130   20.3050 C   0  0  0  0  0  3  0  0  0  0  0  0
  -21.6630   -6.8880   21.4240 O   0  0  0  0  0  0  0  0  0  0  0  0
  -21.6850   -6.0740   22.5270 C   0  0  0  0  0  0  0  0  0  0  0  0
  -21.4010   -6.5640   23.8200 C   0  0  0  0  0  3  0  0  0  0  0  0
  -21.3660   -5.6790   24.9170 C   0  0  0  0  0  3  0  0  0  0  0  0
  -21.6040   -4.3060   24.7220 C   0  0  0  0  0  0  0  0  0  0  0  0
  -21.8820   -3.8150   23.4340 C   0  0  0  0  0  3  0  0  0  0  0  0
  -21.9190   -4.6970   22.3400 C   0  0  0  0  0  0  0  0  0  0  0  0
  -22.1660   -4.2150   21.0970 F   0  0  0  0  0  0  0  0  0  0  0  0
  -21.5630   -3.4540   25.7730 F   0  0  0  0  0  0  0  0  0  0  0  0
  -22.7870  -13.5240   21.1830 C   0  0  0  0  0  0  0  0  0  0  0  0
  -22.0500  -12.8230   22.0390 N   0  0  0  0  0  0  0  0  0  0  0  0
  -22.3550  -14.5560   20.6700 O   0  0  0  0  0  0  0  0  0  0  0  0
  -22.4110  -11.9890   22.4770 H   0  0  0  0  0  0  0  0  0  0  0  0
  -21.1120  -13.1250   22.2590 H   0  0  0  0  0  0  0  0  0  0  0  0
  -25.4340  -15.1880   20.4090 N   0  0  0  0  0  0  0  0  0  0  0  0
  -24.6690  -15.8460   20.5140 H   0  0  0  0  0  0  0  0  0  0  0  0
  -26.2950  -15.6250   20.1030 H   0  0  0  0  0  0  0  0  0  0  0  0
  1  6  2  0
  1  3  1  0
  2  1  1  0
  3 12  1  0
  4  9  1  0
  5 10  1  0
  5 15  1  0
  7  2  2  0
  7 10  1  0
  8  2  1  0
  8  4  2  0
  9  3  2  0
 10  6  1  0
 11  5  2  0
 12 14  1  0
 14 13  1  0
 16 15  1  0
 17 18  1  0
 17 16  1  0
 17 19  1  0
 20 17  1  0
 21 25  1  0
 21 20  1  0
 21 22  1  0
 23 22  1  0
 24 22  1  0
 26 25  1  0
 27 38  2  0
 28 26  1  0
 28 33  1  0
 29 37  1  0
 29 39  1  0
 30 36  1  0
 30 32  1  0
 31 37  1  0
 32 31  1  0
 33 32  2  0
 34 35  1  0
 34 28  2  0
 35 30  2  0
 36 29  1  0
 37 27  1  0
 39 41  2  0
 40 39  1  0
 42 40  1  0
 43 52  2  0
 43 48  1  0
 44 40  1  0
 44 48  1  0
 45 44  1  0
 46 47  1  0
 46 45  1  0
 47 43  1  0
 48 49  2  0
 49 50  1  0
 51 50  2  0
 52 51  1  0
 53 27  1  0
 53 58  1  0
 53 54  1  0
 54 57  1  1
 54 55  1  0
 56 54  1  0
 58 61  1  0
 59 63  1  0
 59 58  1  0
 60 59  2  0
 63 62  1  0
 65 63  1  0
 65 66  1  0
 65 64  1  0
 67  4  1  0
 68 76  1  0
 69 74  1  0
 70 71  1  0
 70 69  1  0
 72 71  1  0
 72 81  1  0
 72 73  1  0
 74 68  1  0
 74 73  1  0
 75 68  2  0
 76 67  1  0
 76 77  1  0
 78 79  2  0
 79 98  1  0
 80 79  1  0
 80 83  1  0
 81 78  1  0
 81 82  1  0
 82 80  2  0
 83 84  1  0
 84 85  2  0
 86 89  1  0
 86 85  1  0
 87 86  2  0
 88 87  1  0
 88 83  2  0
 89 90  1  0
 90 91  1  0
 91 92  2  0
 93 92  1  0
 93 97  1  0
 94 93  2  0
 95 90  2  0
 95 94  1  0
 96 95  1  0
 98 99  1  0
 99102  1  0
 99101  1  0
100 98  2  0
103104  1  0
103 78  1  0
105103  1  0
M  ISO  4  25 101  26 101  68 100  76 100
M  END
>  <TORSDO>  (46) 
F 26

>  <SCORE>  (46) 
56.945

>  <name>  (46) 
45

>  <ligand_id>  (46) 
45

>  <original_smiles>  (46) 
[H]c1c([H])c([H])c2c(c1[H])C([H])([H])C([H])([H])C([H])([H])C2([H])N([H])C(=O)C1([H])N(C(=O)C([H])(N([H])C(=O)C([H])(N([H])C([H])([H])[H])C([H])([H])[H])C(C([H])([H])[H])(C([H])([H])[H])C([H])([H])[H])C([H])([H])c2c([H])c(OC([H])([H])C([H])(N([H])[H])C([H])([H])[N+]([H])([H])C([H])([H])C([H])([H])C(=O)N3C([H])([H])c4nc(C([H])([H])N([H])C(=O)N5C([H])([H])C([H])([H])C([H])([H])C([H])(n6nc(-c7c([H])c([H])c(Oc8c([H])c([H])c(F)c([H])c8F)c([H])c7[H])c(C(=O)N([H])[H])c6N([H])[H])C5([H])[H])nc(C([H])([H])C([H])([H])C([H])([H])[H])c4C3([H])[H])c([H])c([H])c2C1([H])[H]

>  <smiles>  (46) 
[H]c1c([H])c([H])c2c(c1[H])C([H])([H])C([H])([H])C([H])([H])C2([H])N([H])C(=O)C1([H])N(C(=O)C([H])(N([H])C(=O)C([H])(N([H])C([H])([H])[H])C([H])([H])[H])C(C([H])([H])[H])(C([H])([H])[H])C([H])([H])[H])C([H])([H])c2c([H])c(OC([H])([H])C([H])(N([H])[H])C([H])([H])[N+]([H])([H])C([H])([H])C([H])([H])C(=O)N3C([H])([H])c4nc(C([H])([H])N([H])C(=O)N5C([H])([H])C([H])([H])C([H])([H])C([H])(n6nc(-c7c([H])c([H])c(Oc8c([H])c([H])c(F)c([H])c8F)c([H])c7[H])c(C(=O)N([H])[H])c6N([H])[H])C5([H])[H])nc(C([H])([H])C([H])([H])C([H])([H])[H])c4C3([H])[H])c([H])c([H])c2C1([H])[H]

$$$$
46:0:0
     RDKit          3D

 95104  0  0  1  0  0  0  0  0999 V2000
  -29.9830  -21.6280   21.4200 C   0  0  0  0  0  2  0  0  0  0  0  0
  -30.6760  -18.5360   24.2120 C   0  0  0  0  0  3  0  0  0  0  0  0
  -30.5050  -18.2540   22.8360 C   0  0  0  0  0  0  0  0  0  0  0  0
  -30.2800  -20.5150   22.4160 C   0  0  0  0  0  0  0  0  0  0  0  0
  -30.4430  -20.7910   23.8010 C   0  0  0  0  0  0  0  0  0  0  0  0
  -30.6510  -19.7990   24.6970 N   0  0  0  0  0  0  0  0  0  0  0  0
  -30.3170  -19.2450   21.9260 N   0  0  0  0  0  0  0  0  0  0  0  0
  -30.3460  -22.4080   24.4070 Cl  0  0  0  0  0  0  0  0  0  0  0  0
  -31.1870  -14.4640   20.0380 C   0  0  0  0  0  0  0  0  0  0  0  0
  -30.6200  -12.4740   18.6860 C   0  0  0  0  0  2  0  0  0  0  0  0
  -29.5900  -12.8150   17.5910 C   0  0  0  0  0  2  0  0  0  0  0  0
  -28.1510  -12.7370   18.1360 C   0  0  0  0  0  2  0  0  0  0  0  0
  -27.9770  -13.5050   19.4720 C   0  0  0  0  0  3  0  0  0  0  0  0
  -29.0930  -13.1190   20.4660 C   0  0  0  0  0  2  0  0  0  0  0  0
  -30.3980  -13.3760   19.8270 N   0  0  0  0  0  0  0  0  0  0  0  0
  -32.1950  -14.7090   19.3670 O   0  0  0  0  0  0  0  0  0  0  0  0
  -29.9030  -16.3270   21.0490 C   0  0  0  0  0  2  0  0  0  0  0  0
  -31.8010  -16.1140   21.8100 C   0  0  0  0  0  2  0  0  0  0  0  0
  -30.5540  -16.8140   22.3360 C   0  0  0  0  0  3  0  0  0  0  0  0
  -30.8660  -15.2120   21.1100 N   0  0  0  0  0  0  0  0  0  0  0  0
  -25.6750  -14.2140   20.3880 C   0  0  0  0  0  0  0  0  0  0  0  0
  -24.5920  -13.4840   20.8030 C   0  0  0  0  0  0  0  0  0  0  0  0
  -24.9680  -12.1120   20.6740 C   0  0  0  0  0  0  0  0  0  0  0  0
  -26.6460  -13.2880   20.0400 N   0  0  0  0  0  0  0  0  0  0  0  0
  -26.2260  -12.0150   20.2640 N   0  0  0  0  0  0  0  0  0  0  0  0
  -24.1840  -10.8840   20.8600 C   0  0  0  0  0  0  0  0  0  0  0  0
  -24.6090   -9.8600   21.7350 C   0  0  0  0  0  3  0  0  0  0  0  0
  -23.8290   -8.6970   21.9110 C   0  0  0  0  0  3  0  0  0  0  0  0
  -22.6070   -8.5520   21.2130 C   0  0  0  0  0  0  0  0  0  0  0  0
  -22.1980   -9.5630   20.3270 C   0  0  0  0  0  3  0  0  0  0  0  0
  -22.9790  -10.7170   20.1480 C   0  0  0  0  0  3  0  0  0  0  0  0
  -21.7960   -7.4460   21.3030 O   0  0  0  0  0  0  0  0  0  0  0  0
  -21.7380   -6.6860   22.4440 C   0  0  0  0  0  0  0  0  0  0  0  0
  -21.4030   -7.2450   23.6970 C   0  0  0  0  0  3  0  0  0  0  0  0
  -21.2880   -6.4160   24.8290 C   0  0  0  0  0  3  0  0  0  0  0  0
  -21.4960   -5.0290   24.7120 C   0  0  0  0  0  0  0  0  0  0  0  0
  -21.8240   -4.4690   23.4640 C   0  0  0  0  0  3  0  0  0  0  0  0
  -21.9420   -5.2960   22.3330 C   0  0  0  0  0  0  0  0  0  0  0  0
  -22.2370   -4.7490   21.1290 F   0  0  0  0  0  0  0  0  0  0  0  0
  -21.3770   -4.2310   25.7980 F   0  0  0  0  0  0  0  0  0  0  0  0
  -23.2490  -14.0250   21.2050 C   0  0  0  0  0  0  0  0  0  0  0  0
  -22.5600  -13.3440   22.1140 N   0  0  0  0  0  0  0  0  0  0  0  0
  -22.8220  -15.0840   20.7470 O   0  0  0  0  0  0  0  0  0  0  0  0
  -22.9170  -12.4860   22.5070 H   0  0  0  0  0  0  0  0  0  0  0  0
  -21.6620  -13.6880   22.4240 H   0  0  0  0  0  0  0  0  0  0  0  0
  -25.9070  -15.5800   20.2610 N   0  0  0  0  0  0  0  0  0  0  0  0
  -25.1880  -16.2710   20.4480 H   0  0  0  0  0  0  0  0  0  0  0  0
  -26.7520  -15.9850   19.8770 H   0  0  0  0  0  0  0  0  0  0  0  0
  -28.4680  -21.8160   21.2030 C   0  0  0  0  0  2  0  0  0  0  0  0
  -28.1420  -22.8520   20.1960 N   0  0  0  0  0  4  0  0  0  0  0  0
  -27.2120  -22.6510   19.8550 H   0  0  0  0  0  0  0  0  0  0  0  0
  -28.7680  -22.7480   19.4110 H   0  0  0  0  0  0  0  0  0  0  0  0
  -28.1550  -24.2520   20.6970 C   0  0  0  0  0  2  0  0  0  0  0  0
  -28.2570  -25.2780   19.5530 C   0  0  0  0  0  2  0  0  0  0  0  0
  -28.1810  -26.6130   20.0590 O   0  0  0  0  0  0  0  0  0  0  0  0
  -24.5250  -31.8280   23.1850 C   0  0  0  0  0  0  0  0  0  0  0  0
  -26.9800  -27.2950   20.0870 C   0  0  0  0  0  0  0  0  0  0  0  0
  -23.2380  -30.4430   21.5890 C   0  0  0  0  0  3  0  0  0  0  0  0
  -24.6120  -28.8480   20.1510 C   0  0  0  0  0  0  0  0  0  0  0  0
  -25.7630  -30.7340   21.3200 C   0  0  0  0  0  2  0  0  0  0  0  0
  -25.7960  -29.3530   20.7010 C   0  0  0  0  0  0  0  0  0  0  0  0
  -26.9780  -28.5810   20.6680 C   0  0  0  0  0  3  0  0  0  0  0  0
  -25.7680  -26.7920   19.5550 C   0  0  0  0  0  3  0  0  0  0  0  0
  -24.5920  -27.5650   19.5810 C   0  0  0  0  0  3  0  0  0  0  0  0
  -23.3940  -29.7420   20.2130 C   0  0  0  0  0  2  0  0  0  0  0  0
  -24.5300  -31.0170   22.0900 N   0  0  0  0  0  0  0  0  0  0  0  0
  -23.4670  -32.1340   23.7510 O   0  0  0  0  0  0  0  0  0  0  0  0
  -22.5840  -29.4480   22.5770 C   0  0  0  0  0  0  0  0  0  0  0  0
  -21.2590  -29.2680   22.4540 N   0  0  0  0  0  0  0  0  0  0  0  0
  -23.2660  -28.8400   23.4060 O   0  0  0  0  0  0  0  0  0  0  0  0
  -20.7710  -29.8140   21.7590 H   0  0  0  0  0  0  0  0  0  0  0  0
  -17.8910  -28.0600   22.9350 C   0  0  0  0  0  0  0  0  0  0  0  0
  -20.4390  -28.3550   23.2500 C   0  0  0  0  0  3  0  0  0  0  0  0
  -20.5670  -26.9020   22.7390 C   0  0  0  0  0  2  0  0  0  0  0  0
  -19.4900  -26.5250   21.7170 C   0  0  0  0  0  2  0  0  0  0  0  0
  -18.0940  -26.6840   22.3260 C   0  0  0  0  0  2  0  0  0  0  0  0
  -18.9930  -28.8510   23.3540 C   0  0  0  0  0  0  0  0  0  0  0  0
  -18.7490  -30.1390   23.8820 C   0  0  0  0  0  3  0  0  0  0  0  0
  -17.4360  -30.6340   23.9980 C   0  0  0  0  0  3  0  0  0  0  0  0
  -16.3490  -29.8390   23.5970 C   0  0  0  0  0  3  0  0  0  0  0  0
  -16.5760  -28.5560   23.0680 C   0  0  0  0  0  3  0  0  0  0  0  0
  -25.8440  -32.4270   23.7650 C   0  0  0  0  0  3  0  0  0  0  0  0
  -25.5680  -33.8200   24.1400 N   0  0  0  0  0  0  0  0  0  0  0  0
  -25.8840  -34.8860   23.3930 C   0  0  0  0  0  0  0  0  0  0  0  0
  -26.5110  -34.7990   22.3330 O   0  0  0  0  0  0  0  0  0  0  0  0
  -25.0090  -33.9630   24.9680 H   0  0  0  0  0  0  0  0  0  0  0  0
  -24.1620  -36.7020   23.1540 C   0  0  0  0  0  1  0  0  0  0  0  0
  -25.4330  -36.2680   23.9010 C   0  0  0  0  0  3  0  0  0  0  0  0
  -27.6140  -37.1090   24.6500 C   0  0  0  0  0  1  0  0  0  0  0  0
  -26.4700  -37.3130   23.7650 N   0  0  0  0  0  0  0  0  0  0  0  0
  -26.0820  -38.2340   23.9590 H   0  0  0  0  0  0  0  0  0  0  0  0
  -26.4080  -31.6180   24.9970 C   0  0  1  0  0  0  0  0  0  0  0  0
  -25.3610  -31.3600   26.1060 C   0  0  0  0  0  1  0  0  0  0  0  0
  -26.9570  -30.2470   24.5380 C   0  0  0  0  0  1  0  0  0  0  0  0
  -27.5930  -32.3820   25.6300 C   0  0  0  0  0  1  0  0  0  0  0  0
  1  4  1  0
  2  6  1  0
  3  2  2  0
  4  5  1  0
  5  8  1  0
  5  6  2  0
  7  4  2  0
  7  3  1  0
  9 20  1  0
 10 15  1  0
 11 12  1  0
 11 10  1  0
 13 12  1  0
 13 24  1  0
 13 14  1  0
 15  9  1  0
 15 14  1  0
 16  9  2  0
 17 20  1  0
 17 19  1  0
 18 19  1  0
 19  3  1  0
 20 18  1  0
 21 22  2  0
 22 41  1  0
 23 22  1  0
 23 26  1  0
 24 25  1  0
 24 21  1  0
 25 23  2  0
 26 27  1  0
 27 28  2  0
 29 32  1  0
 29 28  1  0
 30 29  2  0
 31 30  1  0
 31 26  2  0
 32 33  1  0
 33 34  1  0
 34 35  2  0
 36 35  1  0
 36 40  1  0
 37 36  2  0
 38 33  2  0
 38 37  1  0
 39 38  1  0
 41 42  1  0
 42 45  1  0
 42 44  1  0
 43 41  2  0
 46 21  1  0
 46 47  1  0
 48 46  1  0
 49  1  1  0
 50 53  1  0
 50 49  1  0
 51 50  1  0
 52 50  1  0
 54 55  1  0
 54 53  1  0
 55 57  1  0
 56 67  2  0
 57 62  1  0
 58 66  1  0
 58 68  1  0
 59 65  1  0
 59 61  1  0
 60 66  1  0
 61 60  1  0
 62 61  2  0
 63 64  1  0
 63 57  2  0
 64 59  2  0
 65 58  1  0
 66 56  1  0
 68 70  2  0
 69 68  1  0
 71 69  1  0
 72 81  2  0
 72 77  1  0
 73 69  1  0
 73 77  1  0
 74 73  1  0
 75 76  1  0
 75 74  1  0
 76 72  1  0
 77 78  2  0
 78 79  1  0
 80 79  2  0
 81 80  1  0
 82 56  1  0
 82 83  1  0
 82 92  1  0
 83 86  1  0
 84 88  1  0
 84 83  1  0
 85 84  2  0
 88 87  1  0
 90 88  1  0
 90 91  1  0
 90 89  1  0
 92 95  1  1
 92 93  1  0
 94 92  1  0
M  ISO  4   9 100  20 100  54 101  55 101
M  END
>  <TORSDO>  (47) 
F 21

>  <SCORE>  (47) 
-10.950

>  <name>  (47) 
46

>  <ligand_id>  (47) 
46

>  <original_smiles>  (47) 
[H]c1nc(Cl)c(C([H])([H])C([H])([H])[N+]([H])([H])C([H])([H])C([H])([H])Oc2c([H])c([H])c3c(c2[H])C([H])([H])N(C(=O)C([H])(N([H])C(=O)C([H])(N([H])C([H])([H])[H])C([H])([H])[H])C(C([H])([H])[H])(C([H])([H])[H])C([H])([H])[H])C([H])(C(=O)N([H])C2([H])c4c([H])c([H])c([H])c([H])c4C([H])([H])C([H])([H])C2([H])[H])C3([H])[H])nc1C1([H])C([H])([H])N(C(=O)N2C([H])([H])C([H])([H])C([H])([H])C([H])(n3nc(-c4c([H])c([H])c(Oc5c([H])c([H])c(F)c([H])c5F)c([H])c4[H])c(C(=O)N([H])[H])c3N([H])[H])C2([H])[H])C1([H])[H]

>  <smiles>  (47) 
[H]c1nc(Cl)c(C([H])([H])C([H])([H])[N+]([H])([H])C([H])([H])C([H])([H])Oc2c([H])c([H])c3c(c2[H])C([H])([H])N(C(=O)C([H])(N([H])C(=O)C([H])(N([H])C([H])([H])[H])C([H])([H])[H])C(C([H])([H])[H])(C([H])([H])[H])C([H])([H])[H])C([H])(C(=O)N([H])C2([H])c4c([H])c([H])c([H])c([H])c4C([H])([H])C([H])([H])C2([H])[H])C3([H])[H])nc1C1([H])C([H])([H])N(C(=O)N2C([H])([H])C([H])([H])C([H])([H])C([H])(n3nc(-c4c([H])c([H])c(Oc5c([H])c([H])c(F)c([H])c5F)c([H])c4[H])c(C(=O)N([H])[H])c3N([H])[H])C2([H])[H])C1([H])[H]

$$$$
47:0:0
     RDKit          3D

 95 99  0  0  1  0  0  0  0  0999 V2000
  -24.5240  -27.2930   22.1570 C   0  0  0  0  0  3  0  0  0  0  0  0
  -25.6600  -26.3340   22.0020 C   0  0  0  0  0  3  0  0  0  0  0  0
  -25.2880  -25.1360   21.2650 C   0  0  0  0  0  3  0  0  0  0  0  0
  -23.9040  -25.6310   21.5750 N   0  0  0  0  0  0  0  0  0  0  0  0
  -23.1690  -27.1220   21.5000 N   0  0  0  0  0  2  0  0  0  0  0  0
  -26.0990  -23.8120   20.5910 N   0  0  0  0  0  0  0  0  0  0  0  0
  -25.4410  -23.4170   19.9190 H   0  0  0  0  0  0  0  0  0  0  0  0
  -27.6270  -27.6100   23.1800 C   0  0  0  0  0  2  0  0  0  0  0  0
  -28.2280  -27.1470   21.8650 C   0  0  0  0  0  2  0  0  0  0  0  0
  -27.0980  -26.3720   22.4930 C   0  0  0  0  0  3  0  0  0  0  0  0
  -21.9120  -27.8410   19.1810 C   0  0  0  0  0 15  0  0  0  0  0  0
  -21.2320  -26.2360   18.0000 C   0  0  0  0  0  1  0  0  0  0  0  0
  -21.7030  -25.0020   16.7210 O   0  0  0  0  0  0  0  0  0  0  0  0
  -21.2860  -24.8640   11.0340 C   0  0  0  0  0  0  0  0  0  0  0  0
  -21.8220  -23.5570   16.6190 C   0  0  0  0  0  3  0  0  0  0  0  0
  -20.0860  -25.6560   12.9920 C   0  0  0  0  0  3  0  0  0  0  0  0
  -19.8560  -23.9640   14.9930 C   0  0  0  0  0  3  0  0  0  0  0  0
  -21.0370  -23.2790   12.9320 C   0  0  0  0  0  2  0  0  0  0  0  0
  -20.9750  -23.3570   14.4330 C   0  0  0  0  0  3  0  0  0  0  0  0
  -21.9980  -22.9840   15.3190 C   0  0  0  0  0  2  0  0  0  0  0  0
  -20.6330  -23.2260   17.1980 C   0  0  0  0  0  2  0  0  0  0  0  0
  -19.5990  -23.7250   16.3780 C   0  0  0  0  0  2  0  0  0  0  0  0
  -19.1740  -25.0250   14.1330 C   0  0  0  0  0  2  0  0  0  0  0  0
  -20.7860  -24.5750   12.2590 N   0  0  0  0  0  0  0  0  0  0  0  0
  -21.0650  -25.9530   10.4850 O   0  0  0  0  0  0  0  0  0  0  0  0
  -21.2140  -26.6900   13.3690 C   0  0  0  0  0  0  0  0  0  0  0  0
  -22.2780  -26.9150   12.6440 N   0  0  0  0  0  0  0  0  0  0  0  0
  -21.1600  -27.3560   14.3900 O   0  0  0  0  0  0  0  0  0  0  0  0
  -22.4570  -26.3140   11.8480 H   0  0  0  0  0  0  0  0  0  0  0  0
  -25.8130  -27.4960   12.3130 C   0  0  0  0  0  0  0  0  0  0  0  0
  -22.9580  -28.2690   12.5850 C   0  0  0  0  0  2  0  0  0  0  0  0
  -22.5720  -29.3210   10.7500 C   0  0  0  0  0 15  0  0  0  0  0  0
  -24.6630  -29.0080    9.3690 C   0  0  0  0  0 15  0  0  0  0  0  0
  -26.0720  -28.1640   10.6560 C   0  0  0  0  0  1  0  0  0  0  0  0
  -24.5040  -27.5100   13.0800 C   0  0  0  0  0  0  0  0  0  0  0  0
  -24.4630  -26.5960   14.2470 C   0  0  0  0  0  3  0  0  0  0  0  0
  -25.5360  -25.8400   14.8090 C   0  0  0  0  0  3  0  0  0  0  0  0
  -26.7950  -25.9910   14.2340 C   0  0  0  0  0  3  0  0  0  0  0  0
  -26.9060  -26.7810   13.0340 C   0  0  0  0  0  3  0  0  0  0  0  0
  -22.1480  -23.8300   10.2710 C   0  0  0  0  0  3  0  0  0  0  0  0
  -21.6470  -23.8340    8.8960 N   0  0  0  0  0  0  0  0  0  0  0  0
  -20.4370  -23.3960    8.5380 C   0  0  0  0  0  0  0  0  0  0  0  0
  -19.6570  -22.8570    9.3290 O   0  0  0  0  0  0  0  0  0  0  0  0
  -22.2090  -24.3120    8.2090 H   0  0  0  0  0  0  0  0  0  0  0  0
  -19.1480  -24.8360    6.9280 C   0  0  0  0  0  1  0  0  0  0  0  0
  -20.0310  -23.5850    7.0660 C   0  0  0  0  0  3  0  0  0  0  0  0
  -20.2320  -21.3040    6.1810 C   0  0  0  0  0  1  0  0  0  0  0  0
  -19.3340  -22.4130    6.4970 N   0  0  0  0  0  0  0  0  0  0  0  0
  -18.8320  -22.6660    5.6500 H   0  0  0  0  0  0  0  0  0  0  0  0
  -23.6890  -24.1470   10.3180 C   0  0  1  0  0  0  0  0  0  0  0  0
  -24.0710  -25.5230    9.7280 C   0  0  0  0  0  1  0  0  0  0  0  0
  -24.2330  -24.0940   11.7640 C   0  0  0  0  0  1  0  0  0  0  0  0
  -24.4490  -23.0520    9.5280 C   0  0  0  0  0  1  0  0  0  0  0  0
  -27.5810  -22.7680   20.4550 C   0  0  0  0  0  1  0  0  0  0  0  0
  -29.0320  -22.2040   19.1320 C   0  0  0  0  0 15  0  0  0  0  0  0
  -31.2590  -19.0660   15.3830 C   0  0  0  0  0  0  0  0  0  0  0  0
  -32.9640  -18.6170   13.2390 C   0  0  0  0  0  2  0  0  0  0  0  0
  -34.2390  -19.5200   13.0900 C   0  0  0  0  0  2  0  0  0  0  0  0
  -33.8570  -20.9240   12.5730 C   0  0  0  0  0  2  0  0  0  0  0  0
  -32.5670  -21.3820   13.2860 C   0  0  0  0  0  3  0  0  0  0  0  0
  -31.4340  -20.3670   13.1640 C   0  0  0  0  0  2  0  0  0  0  0  0
  -31.8430  -19.3240   14.0630 N   0  0  0  0  0  0  0  0  0  0  0  0
  -31.5400  -17.8430   15.5520 O   0  0  0  0  0  0  0  0  0  0  0  0
  -29.7300  -21.9480   16.3720 C   0  0  0  0  0  2  0  0  0  0  0  0
  -31.1860  -21.4290   16.6440 C   0  0  0  0  0  2  0  0  0  0  0  0
  -29.3590  -21.0200   17.4880 C   0  0  0  0  0  2  0  0  0  0  0  0
  -30.6690  -20.1000   16.5260 N   0  0  0  0  0  0  0  0  0  0  0  0
  -32.2590  -23.8960   13.5380 C   0  0  0  0  0  0  0  0  0  0  0  0
  -31.5360  -24.8010   12.8570 C   0  0  0  0  0  0  0  0  0  0  0  0
  -30.9900  -24.0760   11.7640 C   0  0  0  0  0  0  0  0  0  0  0  0
  -32.0580  -22.6710   12.9280 N   0  0  0  0  0  0  0  0  0  0  0  0
  -31.2290  -22.7740   11.8760 N   0  0  0  0  0  0  0  0  0  0  0  0
  -30.3500  -24.5680   10.5660 C   0  0  0  0  0  0  0  0  0  0  0  0
  -29.0440  -25.0940   10.5990 C   0  0  0  0  0  3  0  0  0  0  0  0
  -28.4620  -25.5870    9.4170 C   0  0  0  0  0  3  0  0  0  0  0  0
  -29.1890  -25.5480    8.2040 C   0  0  0  0  0  0  0  0  0  0  0  0
  -30.4770  -24.9880    8.1740 C   0  0  0  0  0  3  0  0  0  0  0  0
  -31.0520  -24.4930    9.3500 C   0  0  0  0  0  3  0  0  0  0  0  0
  -28.6950  -25.9890    7.0060 O   0  0  0  0  0  0  0  0  0  0  0  0
  -28.0520  -27.1930    6.9060 C   0  0  0  0  0  0  0  0  0  0  0  0
  -28.6970  -28.4120    7.2110 C   0  0  0  0  0  3  0  0  0  0  0  0
  -28.0120  -29.6310    7.0340 C   0  0  0  0  0  3  0  0  0  0  0  0
  -26.6970  -29.6350    6.5340 C   0  0  0  0  0  0  0  0  0  0  0  0
  -26.0560  -28.4240    6.2250 C   0  0  0  0  0  3  0  0  0  0  0  0
  -26.7340  -27.2050    6.4120 C   0  0  0  0  0  0  0  0  0  0  0  0
  -26.1210  -26.0390    6.0970 F   0  0  0  0  0  0  0  0  0  0  0  0
  -26.0460  -30.8070    6.3490 F   0  0  0  0  0  0  0  0  0  0  0  0
  -31.5070  -26.2740   13.1340 C   0  0  0  0  0  0  0  0  0  0  0  0
  -30.3540  -26.7800   13.5530 N   0  0  0  0  0  0  0  0  0  0  0  0
  -32.5200  -26.9710   13.0550 O   0  0  0  0  0  0  0  0  0  0  0  0
  -29.5340  -26.2030   13.6410 H   0  0  0  0  0  0  0  0  0  0  0  0
  -30.2850  -27.7620   13.7880 H   0  0  0  0  0  0  0  0  0  0  0  0
  -33.1280  -24.1320   14.5600 N   0  0  0  0  0  0  0  0  0  0  0  0
  -33.3620  -25.0960   14.7800 H   0  0  0  0  0  0  0  0  0  0  0  0
  -33.7270  -23.4560   15.0060 H   0  0  0  0  0  0  0  0  0  0  0  0
  1  5  1  0
  2  1  1  0
  2 10  1  0
  3  6  1  0
  3  4  1  0
  3  2  1  0
  4  5  1  0
  4  1  1  0
  7  6  1  0
  9 10  1  0
  9  8  1  0
 10  8  1  0
 13 12  1  0
 14 24  1  0
 15 13  1  0
 15 21  1  0
 16 26  1  0
 16 23  1  0
 17 23  1  0
 17 22  1  0
 19 18  1  0
 19 17  1  0
 19 20  1  0
 20 15  1  0
 22 21  1  0
 24 18  1  0
 24 16  1  0
 25 14  2  0
 26 28  2  0
 27 26  1  0
 29 27  1  0
 30 39  2  0
 30 35  1  0
 31 27  1  0
 31 35  1  0
 34 30  1  0
 35 36  2  0
 36 37  1  0
 38 37  2  0
 39 38  1  0
 40 50  1  0
 40 14  1  0
 41 40  1  0
 42 41  1  0
 42 43  2  0
 44 41  1  0
 46 45  1  0
 46 42  1  0
 47 48  1  0
 48 46  1  0
 49 48  1  0
 50 52  1  1
 51 50  1  0
 53 50  1  0
 54  6  1  0
 56 63  2  0
 56 67  1  0
 57 62  1  0
 58 57  1  0
 59 58  1  0
 60 59  1  0
 61 60  1  0
 61 62  1  0
 62 56  1  0
 64 65  1  0
 64 66  1  0
 67 65  1  0
 67 66  1  0
 68 93  1  0
 69 88  1  0
 69 68  2  0
 70 72  2  0
 70 69  1  0
 71 60  1  0
 71 68  1  0
 72 71  1  0
 73 74  1  0
 73 70  1  0
 75 74  2  0
 76 75  1  0
 77 76  2  0
 77 78  1  0
 78 73  2  0
 79 76  1  0
 80 79  1  0
 80 81  1  0
 82 81  2  0
 83 82  1  0
 84 85  1  0
 84 83  2  0
 85 80  2  0
 86 85  1  0
 87 83  1  0
 88 89  1  0
 89 91  1  0
 89 92  1  0
 90 88  2  0
 93 94  1  0
 93 95  1  0
M  ISO  4  12 101  13 101  56 100  67 100
M  END
>  <TORSDO>  (48) 
F 21

>  <SCORE>  (48) 
-6.709

>  <name>  (48) 
47

>  <ligand_id>  (48) 
47

>  <original_smiles>  (48) 
[H]c1c([H])c([H])c2c(c1[H])C([H])([H])C([H])([H])C([H])([H])C2([H])N([H])C(=O)C1([H])N(C(=O)C([H])(N([H])C(=O)C([H])(N([H])C([H])([H])[H])C([H])([H])[H])C(C([H])([H])[H])(C([H])([H])[H])C([H])([H])[H])C([H])([H])c2c([H])c(OC([H])([H])C([H])([H])n3nc(N([H])C([H])([H])C([H])([H])C4([H])N(C(=O)N5C([H])([H])C([H])([H])C([H])([H])C([H])(n6nc(-c7c([H])c([H])c(Oc8c([H])c([H])c(F)c([H])c8F)c([H])c7[H])c(C(=O)N([H])[H])c6N([H])[H])C5([H])[H])C([H])([H])C4([H])[H])c(C4([H])C([H])([H])C4([H])[H])c3[H])c([H])c([H])c2C1([H])[H]

>  <smiles>  (48) 
[H]c1c([H])c([H])c2c(c1[H])C([H])([H])C([H])([H])C([H])([H])C2([H])N([H])C(=O)C1([H])N(C(=O)C([H])(N([H])C(=O)C([H])(N([H])C([H])([H])[H])C([H])([H])[H])C(C([H])([H])[H])(C([H])([H])[H])C([H])([H])[H])C([H])([H])c2c([H])c(OC([H])([H])C([H])([H])n3nc(N([H])C([H])([H])C([H])([H])C4([H])N(C(=O)N5C([H])([H])C([H])([H])C([H])([H])C([H])(n6nc(-c7c([H])c([H])c(Oc8c([H])c([H])c(F)c([H])c8F)c([H])c7[H])c(C(=O)N([H])[H])c6N([H])[H])C5([H])[H])C([H])([H])C4([H])[H])c(C4([H])C([H])([H])C4([H])[H])c3[H])c([H])c([H])c2C1([H])[H]

$$$$
48:0:0
     RDKit          3D

 92100  0  0  1  0  0  0  0  0999 V2000
  -29.8800  -22.1020   21.3360 C   0  0  0  0  0  2  0  0  0  0  0  0
  -29.0790  -23.0170   20.4830 N   0  0  0  0  0  4  0  0  0  0  0  0
  -28.1020  -22.8450   20.6720 H   0  0  0  0  0  0  0  0  0  0  0  0
  -29.2530  -22.7740   19.5190 H   0  0  0  0  0  0  0  0  0  0  0  0
  -29.3220  -24.4760   20.6780 C   0  0  0  0  0  2  0  0  0  0  0  0
  -28.3190  -25.3190   19.8630 C   0  0  0  0  0  2  0  0  0  0  0  0
  -28.4140  -26.7290   20.1400 O   0  0  0  0  0  0  0  0  0  0  0  0
  -24.5870  -31.8890   23.2150 C   0  0  0  0  0  0  0  0  0  0  0  0
  -27.2420  -27.4680   20.0960 C   0  0  0  0  0  0  0  0  0  0  0  0
  -23.3870  -30.4980   21.5630 C   0  0  0  0  0  3  0  0  0  0  0  0
  -24.8460  -28.9830   20.1230 C   0  0  0  0  0  0  0  0  0  0  0  0
  -25.9160  -30.8630   21.3720 C   0  0  0  0  0  2  0  0  0  0  0  0
  -26.0050  -29.4970   20.7150 C   0  0  0  0  0  0  0  0  0  0  0  0
  -27.2050  -28.7470   20.7010 C   0  0  0  0  0  3  0  0  0  0  0  0
  -26.0630  -26.9870   19.4720 C   0  0  0  0  0  3  0  0  0  0  0  0
  -24.8690  -27.7260   19.5020 C   0  0  0  0  0  3  0  0  0  0  0  0
  -23.6000  -29.8370   20.1770 C   0  0  0  0  0  2  0  0  0  0  0  0
  -24.6490  -31.0980   22.1080 N   0  0  0  0  0  0  0  0  0  0  0  0
  -23.5040  -32.1520   23.7560 O   0  0  0  0  0  0  0  0  0  0  0  0
  -22.7390  -29.4630   22.5110 C   0  0  0  0  0  0  0  0  0  0  0  0
  -21.4160  -29.2800   22.3790 N   0  0  0  0  0  0  0  0  0  0  0  0
  -23.4220  -28.8300   23.3200 O   0  0  0  0  0  0  0  0  0  0  0  0
  -20.9220  -29.8400   21.7000 H   0  0  0  0  0  0  0  0  0  0  0  0
  -18.0430  -28.0860   22.8690 C   0  0  0  0  0  0  0  0  0  0  0  0
  -20.6010  -28.3350   23.1440 C   0  0  0  0  0  3  0  0  0  0  0  0
  -20.7020  -26.9090   22.5530 C   0  0  0  0  0  2  0  0  0  0  0  0
  -19.5990  -26.5990   21.5370 C   0  0  0  0  0  2  0  0  0  0  0  0
  -18.2170  -26.7410   22.1810 C   0  0  0  0  0  2  0  0  0  0  0  0
  -19.1630  -28.8410   23.3080 C   0  0  0  0  0  0  0  0  0  0  0  0
  -18.9480  -30.1000   23.9080 C   0  0  0  0  0  3  0  0  0  0  0  0
  -17.6440  -30.6020   24.0800 C   0  0  0  0  0  3  0  0  0  0  0  0
  -16.5380  -29.8430   23.6610 C   0  0  0  0  0  3  0  0  0  0  0  0
  -16.7390  -28.5870   23.0590 C   0  0  0  0  0  3  0  0  0  0  0  0
  -25.8710  -32.5170   23.8420 C   0  0  0  0  0  3  0  0  0  0  0  0
  -26.3900  -31.7410   25.1150 C   0  0  1  0  0  0  0  0  0  0  0  0
  -25.2980  -31.4920   26.1790 C   0  0  0  0  0  1  0  0  0  0  0  0
  -26.9770  -30.3680   24.7130 C   0  0  0  0  0  1  0  0  0  0  0  0
  -27.5330  -32.5360   25.7890 C   0  0  0  0  0  1  0  0  0  0  0  0
  -25.5620  -33.9150   24.1740 N   0  0  0  0  0  0  0  0  0  0  0  0
  -25.8970  -34.9670   23.4150 C   0  0  0  0  0  0  0  0  0  0  0  0
  -26.5740  -34.8650   22.3890 O   0  0  0  0  0  0  0  0  0  0  0  0
  -24.9600  -34.0720   24.9700 H   0  0  0  0  0  0  0  0  0  0  0  0
  -24.1740  -36.7620   23.0500 C   0  0  0  0  0  1  0  0  0  0  0  0
  -25.4050  -36.3530   23.8730 C   0  0  0  0  0  3  0  0  0  0  0  0
  -27.5300  -37.2360   24.7300 C   0  0  0  0  0  1  0  0  0  0  0  0
  -26.4390  -37.4030   23.7720 N   0  0  0  0  0  0  0  0  0  0  0  0
  -26.0330  -38.3240   23.9120 H   0  0  0  0  0  0  0  0  0  0  0  0
  -29.3160  -20.6510   21.3910 C   0  0  0  0  0  2  0  0  0  0  0  0
  -30.7380  -14.5830   20.0580 C   0  0  0  0  0  0  0  0  0  0  0  0
  -30.4280  -12.4300   18.9200 C   0  0  0  0  0  2  0  0  0  0  0  0
  -29.4310  -12.6630   17.7650 C   0  0  0  0  0  2  0  0  0  0  0  0
  -27.9730  -12.5160   18.2510 C   0  0  0  0  0  2  0  0  0  0  0  0
  -27.6910  -13.3040   19.5610 C   0  0  0  0  0  3  0  0  0  0  0  0
  -28.8030  -13.0510   20.6060 C   0  0  0  0  0  2  0  0  0  0  0  0
  -30.0870  -13.3900   19.9780 N   0  0  0  0  0  0  0  0  0  0  0  0
  -31.9070  -14.7110   19.6740 O   0  0  0  0  0  0  0  0  0  0  0  0
  -29.4590  -19.8220   20.0980 C   0  0  0  0  0  0  0  0  0  0  0  0
  -29.0020  -17.7090   18.8900 C   0  0  0  0  0  2  0  0  0  0  0  0
  -29.0160  -17.6870   21.3380 C   0  0  0  0  0  2  0  0  0  0  0  0
  -30.0460  -16.5870   18.8560 C   0  0  0  0  0  2  0  0  0  0  0  0
  -29.1150  -16.1450   21.1550 C   0  0  0  0  0  2  0  0  0  0  0  0
  -29.1870  -18.4860   20.1150 N   0  0  0  0  0  0  0  0  0  0  0  0
  -29.9180  -15.6710   20.0040 N   0  0  0  0  0  0  0  0  0  0  0  0
  -29.7540  -20.4190   19.0580 O   0  0  0  0  0  0  0  0  0  0  0  0
  -25.3270  -13.8840   20.3990 C   0  0  0  0  0  0  0  0  0  0  0  0
  -24.2850  -13.0940   20.8080 C   0  0  0  0  0  0  0  0  0  0  0  0
  -24.7570  -11.7480   20.7300 C   0  0  0  0  0  0  0  0  0  0  0  0
  -26.3660  -13.0140   20.1000 N   0  0  0  0  0  0  0  0  0  0  0  0
  -26.0300  -11.7240   20.3590 N   0  0  0  0  0  0  0  0  0  0  0  0
  -24.0500  -10.4770   20.9290 C   0  0  0  0  0  0  0  0  0  0  0  0
  -24.4990   -9.5210   21.8670 C   0  0  0  0  0  3  0  0  0  0  0  0
  -23.7930   -8.3130   22.0520 C   0  0  0  0  0  3  0  0  0  0  0  0
  -22.6200   -8.0540   21.3020 C   0  0  0  0  0  0  0  0  0  0  0  0
  -22.1920   -8.9990   20.3520 C   0  0  0  0  0  3  0  0  0  0  0  0
  -22.9000  -10.1980   20.1630 C   0  0  0  0  0  3  0  0  0  0  0  0
  -21.8860   -6.8970   21.3960 O   0  0  0  0  0  0  0  0  0  0  0  0
  -21.7990   -6.1950   22.5720 C   0  0  0  0  0  0  0  0  0  0  0  0
  -21.3030   -6.7810   23.7570 C   0  0  0  0  0  3  0  0  0  0  0  0
  -21.1640   -6.0020   24.9230 C   0  0  0  0  0  3  0  0  0  0  0  0
  -21.5120   -4.6390   24.9060 C   0  0  0  0  0  0  0  0  0  0  0  0
  -22.0000   -4.0510   23.7240 C   0  0  0  0  0  3  0  0  0  0  0  0
  -22.1400   -4.8280   22.5600 C   0  0  0  0  0  0  0  0  0  0  0  0
  -22.5920   -4.2530   21.4200 F   0  0  0  0  0  0  0  0  0  0  0  0
  -21.3710   -3.8860   26.0220 F   0  0  0  0  0  0  0  0  0  0  0  0
  -22.8980  -13.5550   21.1520 C   0  0  0  0  0  0  0  0  0  0  0  0
  -22.2140  -12.8350   22.0370 N   0  0  0  0  0  0  0  0  0  0  0  0
  -22.4280  -14.5840   20.6700 O   0  0  0  0  0  0  0  0  0  0  0  0
  -22.6110  -12.0060   22.4520 H   0  0  0  0  0  0  0  0  0  0  0  0
  -21.2820  -13.1180   22.3030 H   0  0  0  0  0  0  0  0  0  0  0  0
  -25.4630  -15.2560   20.2250 N   0  0  0  0  0  0  0  0  0  0  0  0
  -24.6770  -15.8880   20.3350 H   0  0  0  0  0  0  0  0  0  0  0  0
  -26.2730  -15.6950   19.8080 H   0  0  0  0  0  0  0  0  0  0  0  0
  1 48  1  0
  2  3  1  0
  2  5  1  0
  2  1  1  0
  4  2  1  0
  6  7  1  0
  6  5  1  0
  8 19  2  0
  9  7  1  0
  9 14  1  0
 10 18  1  0
 10 20  1  0
 11 17  1  0
 11 13  1  0
 12 18  1  0
 13 12  1  0
 14 13  2  0
 15 16  1  0
 15  9  2  0
 16 11  2  0
 17 10  1  0
 18  8  1  0
 20 22  2  0
 21 20  1  0
 23 21  1  0
 24 33  2  0
 24 29  1  0
 25 21  1  0
 25 29  1  0
 26 25  1  0
 27 28  1  0
 27 26  1  0
 28 24  1  0
 29 30  2  0
 30 31  1  0
 32 31  2  0
 33 32  1  0
 34  8  1  0
 34 39  1  0
 34 35  1  0
 35 38  1  1
 35 36  1  0
 37 35  1  0
 39 42  1  0
 40 44  1  0
 40 39  1  0
 41 40  2  0
 44 43  1  0
 46 44  1  0
 46 47  1  0
 46 45  1  0
 50 55  1  0
 51 52  1  0
 51 50  1  0
 53 52  1  0
 53 68  1  0
 53 54  1  0
 55 49  1  0
 55 54  1  0
 56 49  2  0
 57 62  1  0
 57 48  1  0
 58 62  1  0
 60 58  1  0
 60 63  1  0
 61 59  1  0
 62 59  1  0
 63 49  1  0
 63 61  1  0
 64 57  2  0
 65 66  2  0
 66 85  1  0
 67 66  1  0
 67 70  1  0
 68 69  1  0
 68 65  1  0
 69 67  2  0
 70 71  1  0
 71 72  2  0
 73 76  1  0
 73 72  1  0
 74 73  2  0
 75 74  1  0
 75 70  2  0
 76 77  1  0
 77 78  1  0
 78 79  2  0
 80 79  1  0
 80 84  1  0
 81 80  2  0
 82 77  2  0
 82 81  1  0
 83 82  1  0
 85 86  1  0
 86 89  1  0
 86 88  1  0
 87 85  2  0
 90 91  1  0
 90 65  1  0
 92 90  1  0
M  ISO  4   6 101   7 101  49 100  63 100
M  END
>  <TORSDO>  (49) 
F 20

>  <SCORE>  (49) 
-13.225

>  <name>  (49) 
48

>  <ligand_id>  (49) 
48

>  <original_smiles>  (49) 
[H]c1c([H])c([H])c2c(c1[H])C([H])([H])C([H])([H])C([H])([H])C2([H])N([H])C(=O)C1([H])N(C(=O)C([H])(N([H])C(=O)C([H])(N([H])C([H])([H])[H])C([H])([H])[H])C(C([H])([H])[H])(C([H])([H])[H])C([H])([H])[H])C([H])([H])c2c([H])c(OC([H])([H])C([H])([H])[N+]([H])([H])C([H])([H])C([H])([H])C(=O)N3C([H])([H])C([H])([H])N(C(=O)N4C([H])([H])C([H])([H])C([H])([H])C([H])(n5nc(-c6c([H])c([H])c(Oc7c([H])c([H])c(F)c([H])c7F)c([H])c6[H])c(C(=O)N([H])[H])c5N([H])[H])C4([H])[H])C([H])([H])C3([H])[H])c([H])c([H])c2C1([H])[H]

>  <smiles>  (49) 
[H]c1c([H])c([H])c2c(c1[H])C([H])([H])C([H])([H])C([H])([H])C2([H])N([H])C(=O)C1([H])N(C(=O)C([H])(N([H])C(=O)C([H])(N([H])C([H])([H])[H])C([H])([H])[H])C(C([H])([H])[H])(C([H])([H])[H])C([H])([H])[H])C([H])([H])c2c([H])c(OC([H])([H])C([H])([H])[N+]([H])([H])C([H])([H])C([H])([H])C(=O)N3C([H])([H])C([H])([H])N(C(=O)N4C([H])([H])C([H])([H])C([H])([H])C([H])(n5nc(-c6c([H])c([H])c(Oc7c([H])c([H])c(F)c([H])c7F)c([H])c6[H])c(C(=O)N([H])[H])c5N([H])[H])C4([H])[H])C([H])([H])C3([H])[H])c([H])c([H])c2C1([H])[H]

$$$$
49:0:0
     RDKit          3D

 96105  0  0  1  0  0  0  0  0999 V2000
  -30.8170  -14.9230   20.4210 C   0  0  0  0  0  0  0  0  0  0  0  0
  -31.0920  -12.3810   20.1080 C   0  0  0  0  0  2  0  0  0  0  0  0
  -30.4050  -11.8390   18.8340 C   0  0  0  0  0  2  0  0  0  0  0  0
  -28.9300  -11.5070   19.1200 C   0  0  0  0  0  2  0  0  0  0  0  0
  -28.2260  -12.6250   19.9320 C   0  0  0  0  0  3  0  0  0  0  0  0
  -29.0640  -13.1280   21.1250 C   0  0  0  0  0  2  0  0  0  0  0  0
  -30.3410  -13.6010   20.5720 N   0  0  0  0  0  0  0  0  0  0  0  0
  -32.0530  -14.9880   20.3370 O   0  0  0  0  0  0  0  0  0  0  0  0
  -28.1970  -20.6980   19.1340 C   0  0  0  0  0  0  0  0  0  0  0  0
  -30.1040  -18.6780   18.7460 C   0  0  0  0  0  2  0  0  0  0  0  0
  -30.2820  -17.0040   18.7980 C   0  0  0  0  0  2  0  0  0  0  0  0
  -29.3870  -17.1520   20.9030 C   0  0  0  0  0  2  0  0  0  0  0  0
  -28.3770  -18.3020   20.2680 C   0  0  0  0  0  3  0  0  0  0  0  0
  -28.8870  -19.3950   19.3130 N   0  0  0  0  0  0  0  0  0  0  0  0
  -30.0100  -16.0920   20.0170 N   0  0  0  0  0  0  0  0  0  0  0  0
  -27.1420  -20.7860   19.7690 O   0  0  0  0  0  0  0  0  0  0  0  0
  -25.7460  -13.0600   20.3420 C   0  0  0  0  0  0  0  0  0  0  0  0
  -24.7060  -12.2370   20.6710 C   0  0  0  0  0  0  0  0  0  0  0  0
  -25.2640  -10.9330   20.8280 C   0  0  0  0  0  0  0  0  0  0  0  0
  -26.8710  -12.2570   20.3200 N   0  0  0  0  0  0  0  0  0  0  0  0
  -26.5850  -10.9780   20.6770 N   0  0  0  0  0  0  0  0  0  0  0  0
  -24.6040   -9.6390   21.0460 C   0  0  0  0  0  0  0  0  0  0  0  0
  -25.0410   -8.7480   22.0510 C   0  0  0  0  0  3  0  0  0  0  0  0
  -24.3720   -7.5220   22.2610 C   0  0  0  0  0  3  0  0  0  0  0  0
  -23.2530   -7.1790   21.4650 C   0  0  0  0  0  0  0  0  0  0  0  0
  -22.8360   -8.0600   20.4510 C   0  0  0  0  0  3  0  0  0  0  0  0
  -23.5060   -9.2760   20.2400 C   0  0  0  0  0  3  0  0  0  0  0  0
  -22.5590   -6.0000   21.5800 O   0  0  0  0  0  0  0  0  0  0  0  0
  -22.3620   -5.3970   22.7960 C   0  0  0  0  0  0  0  0  0  0  0  0
  -21.7790   -6.0870   23.8830 C   0  0  0  0  0  3  0  0  0  0  0  0
  -21.5300   -5.4100   25.0940 C   0  0  0  0  0  3  0  0  0  0  0  0
  -21.8530   -4.0450   25.2170 C   0  0  0  0  0  0  0  0  0  0  0  0
  -22.4270   -3.3560   24.1350 C   0  0  0  0  0  3  0  0  0  0  0  0
  -22.6770   -4.0300   22.9260 C   0  0  0  0  0  0  0  0  0  0  0  0
  -23.2120   -3.3550   21.8800 F   0  0  0  0  0  0  0  0  0  0  0  0
  -21.6080   -3.3930   26.3780 F   0  0  0  0  0  0  0  0  0  0  0  0
  -23.2580  -12.6150   20.7180 C   0  0  0  0  0  0  0  0  0  0  0  0
  -22.5020  -12.0530   21.6530 N   0  0  0  0  0  0  0  0  0  0  0  0
  -22.8000  -13.4460   19.9390 O   0  0  0  0  0  0  0  0  0  0  0  0
  -22.8850  -11.3830   22.3030 H   0  0  0  0  0  0  0  0  0  0  0  0
  -21.5230  -12.2970   21.7170 H   0  0  0  0  0  0  0  0  0  0  0  0
  -25.8140  -14.4100   19.9970 N   0  0  0  0  0  0  0  0  0  0  0  0
  -25.0570  -14.5450   19.3340 H   0  0  0  0  0  0  0  0  0  0  0  0
  -26.6980  -14.5980   19.5410 H   0  0  0  0  0  0  0  0  0  0  0  0
  -28.9210  -23.2900   19.1730 C   0  0  0  0  0  2  0  0  0  0  0  0
  -28.5130  -22.1280   18.2930 C   0  0  0  0  0  3  0  0  0  0  0  0
  -27.7130  -23.6960   18.3620 C   0  0  0  0  0  3  0  0  0  0  0  0
  -27.9930  -25.2380   17.9480 O   0  0  0  0  0  0  0  0  0  0  0  0
  -25.4850  -30.6160   22.5230 C   0  0  0  0  0  0  0  0  0  0  0  0
  -27.1210  -26.3860   18.2500 C   0  0  0  0  0  0  0  0  0  0  0  0
  -23.9970  -29.8220   20.7280 C   0  0  0  0  0  3  0  0  0  0  0  0
  -25.1040  -28.4460   18.8460 C   0  0  0  0  0  0  0  0  0  0  0  0
  -26.5500  -29.7580   20.3870 C   0  0  0  0  0  2  0  0  0  0  0  0
  -26.3750  -28.5560   19.4240 C   0  0  0  0  0  0  0  0  0  0  0  0
  -27.3840  -27.5530   19.1050 C   0  0  0  0  0  3  0  0  0  0  0  0
  -25.8380  -26.4120   17.6650 C   0  0  0  0  0  3  0  0  0  0  0  0
  -24.8560  -27.3930   17.9480 C   0  0  0  0  0  3  0  0  0  0  0  0
  -24.0330  -29.4670   19.2160 C   0  0  0  0  0  2  0  0  0  0  0  0
  -25.3720  -30.0740   21.2690 N   0  0  0  0  0  0  0  0  0  0  0  0
  -24.4860  -30.9040   23.2010 O   0  0  0  0  0  0  0  0  0  0  0  0
  -23.2310  -28.7150   21.4980 C   0  0  0  0  0  0  0  0  0  0  0  0
  -21.8890  -28.8020   21.5340 N   0  0  0  0  0  0  0  0  0  0  0  0
  -23.8460  -27.7880   22.0290 O   0  0  0  0  0  0  0  0  0  0  0  0
  -21.4530  -29.5970   21.0890 H   0  0  0  0  0  0  0  0  0  0  0  0
  -18.4080  -28.0640   22.2350 C   0  0  0  0  0  0  0  0  0  0  0  0
  -20.9830  -27.8290   22.1540 C   0  0  0  0  0  3  0  0  0  0  0  0
  -20.7370  -26.6230   21.2180 C   0  0  0  0  0  2  0  0  0  0  0  0
  -19.4920  -26.7830   20.3410 C   0  0  0  0  0  2  0  0  0  0  0  0
  -18.2420  -26.9560   21.2090 C   0  0  0  0  0  2  0  0  0  0  0  0
  -19.6940  -28.4850   22.6670 C   0  0  0  0  0  0  0  0  0  0  0  0
  -19.7900  -29.5400   23.5990 C   0  0  0  0  0  3  0  0  0  0  0  0
  -18.6340  -30.1710   24.0960 C   0  0  0  0  0  3  0  0  0  0  0  0
  -17.3640  -29.7410   23.6760 C   0  0  0  0  0  3  0  0  0  0  0  0
  -17.2520  -28.6870   22.7520 C   0  0  0  0  0  3  0  0  0  0  0  0
  -26.8770  -30.9150   23.1600 C   0  0  0  0  0  3  0  0  0  0  0  0
  -27.4640  -29.6920   23.9680 C   0  0  1  0  0  0  0  0  0  0  0  0
  -26.4810  -29.0990   25.0040 C   0  0  0  0  0  1  0  0  0  0  0  0
  -27.8830  -28.5510   23.0140 C   0  0  0  0  0  1  0  0  0  0  0  0
  -28.7450  -30.1270   24.7200 C   0  0  0  0  0  1  0  0  0  0  0  0
  -26.7260  -32.0830   24.0450 N   0  0  0  0  0  0  0  0  0  0  0  0
  -27.1370  -33.3240   23.7540 C   0  0  0  0  0  0  0  0  0  0  0  0
  -27.7460  -33.5970   22.7160 O   0  0  0  0  0  0  0  0  0  0  0  0
  -26.1870  -31.9440   24.8870 H   0  0  0  0  0  0  0  0  0  0  0  0
  -25.6490  -35.2900   24.2640 C   0  0  0  0  0  1  0  0  0  0  0  0
  -26.8240  -34.4410   24.7720 C   0  0  0  0  0  3  0  0  0  0  0  0
  -29.0470  -34.6470   25.7970 C   0  0  0  0  0  1  0  0  0  0  0  0
  -27.9800  -35.3180   25.0600 N   0  0  0  0  0  0  0  0  0  0  0  0
  -27.6900  -36.1330   25.5950 H   0  0  0  0  0  0  0  0  0  0  0  0
  -27.1000  -17.6500   19.6830 C   0  0  0  0  0  2  0  0  0  0  0  0
  -25.9750  -17.4950   20.7250 C   0  0  0  0  0  2  0  0  0  0  0  0
  -25.0700  -16.3750   20.3830 N   0  0  0  0  0  4  0  0  0  0  0  0
  -25.4490  -15.5600   20.8590 H   0  0  0  0  0  0  0  0  0  0  0  0
  -25.1290  -16.2030   19.3930 H   0  0  0  0  0  0  0  0  0  0  0  0
  -22.9020  -15.1930   20.6640 C   0  0  0  0  0  1  0  0  0  0  0  0
  -22.8920  -17.5610   19.8710 C   0  0  0  0  0  1  0  0  0  0  0  0
  -23.6390  -16.5380   20.7530 C   0  0  0  0  0  3  0  0  0  0  0  0
  1  7  1  0
  2  7  1  0
  3  4  1  0
  3  2  1  0
  5  4  1  0
  5 20  1  0
  5  6  1  0
  7  6  1  0
  8  1  2  0
  9 14  1  0
  9 16  2  0
 10 11  1  0
 10 14  1  0
 11 15  1  0
 13 89  1  0
 13 12  1  0
 14 13  1  0
 15  1  1  0
 15 12  1  0
 17 18  2  0
 18 37  1  0
 18 19  1  0
 19 22  1  0
 20 17  1  0
 20 21  1  0
 21 19  2  0
 22 23  1  0
 23 24  2  0
 25 28  1  0
 25 24  1  0
 26 25  2  0
 27 26  1  0
 27 22  2  0
 28 29  1  0
 29 34  2  0
 29 30  1  0
 30 31  2  0
 31 32  1  0
 32 36  1  0
 33 32  2  0
 34 33  1  0
 35 34  1  0
 37 38  1  0
 38 41  1  0
 38 40  1  0
 39 37  2  0
 42 17  1  0
 43 42  1  0
 44 42  1  0
 46 47  1  0
 46  9  1  0
 46 45  1  0
 47 48  1  0
 47 45  1  0
 48 50  1  0
 49 60  2  0
 50 55  1  0
 51 59  1  0
 51 61  1  0
 52 58  1  0
 52 54  1  0
 53 59  1  0
 54 53  1  0
 55 54  2  0
 56 57  1  0
 56 50  2  0
 57 52  2  0
 58 51  1  0
 59 49  1  0
 61 62  1  0
 61 63  2  0
 64 62  1  0
 65 70  2  0
 65 74  1  0
 66 62  1  0
 66 70  1  0
 67 66  1  0
 68 69  1  0
 68 67  1  0
 69 65  1  0
 70 71  1  0
 71 72  2  0
 73 72  1  0
 74 73  2  0
 75 49  1  0
 75 76  1  0
 75 80  1  0
 76 79  1  1
 76 77  1  0
 78 76  1  0
 80 83  1  0
 81 80  1  0
 81 85  1  0
 82 81  2  0
 85 84  1  0
 85 87  1  0
 87 88  1  0
 87 86  1  0
 89 90  1  0
 91 90  1  0
 91 96  1  0
 91 92  1  0
 93 91  1  0
 94 96  1  0
 95 96  1  0
M  ISO  4   1 100  15 100  47 101  48 101
M  END
>  <TORSDO>  (50) 
F 20

>  <SCORE>  (50) 
-3.450

>  <name>  (50) 
49

>  <ligand_id>  (50) 
49

>  <original_smiles>  (50) 
[H]c1c([H])c([H])c2c(c1[H])C([H])([H])C([H])([H])C([H])([H])C2([H])N([H])C(=O)C1([H])N(C(=O)C([H])(N([H])C(=O)C([H])(N([H])C([H])([H])[H])C([H])([H])[H])C(C([H])([H])[H])(C([H])([H])[H])C([H])([H])[H])C([H])([H])c2c([H])c(OC3([H])C([H])([H])C3([H])C(=O)N3C([H])([H])C([H])([H])N(C(=O)N4C([H])([H])C([H])([H])C([H])([H])C([H])(n5nc(-c6c([H])c([H])c(Oc7c([H])c([H])c(F)c([H])c7F)c([H])c6[H])c(C(=O)N([H])[H])c5N([H])[H])C4([H])[H])C([H])([H])C3([H])C([H])([H])C([H])([H])[N+]([H])([H])C([H])(C([H])([H])[H])C([H])([H])[H])c([H])c([H])c2C1([H])[H]

>  <smiles>  (50) 
[H]c1c([H])c([H])c2c(c1[H])C([H])([H])C([H])([H])C([H])([H])C2([H])N([H])C(=O)C1([H])N(C(=O)C([H])(N([H])C(=O)C([H])(N([H])C([H])([H])[H])C([H])([H])[H])C(C([H])([H])[H])(C([H])([H])[H])C([H])([H])[H])C([H])([H])c2c([H])c(OC3([H])C([H])([H])C3([H])C(=O)N3C([H])([H])C([H])([H])N(C(=O)N4C([H])([H])C([H])([H])C([H])([H])C([H])(n5nc(-c6c([H])c([H])c(Oc7c([H])c([H])c(F)c([H])c7F)c([H])c6[H])c(C(=O)N([H])[H])c5N([H])[H])C4([H])[H])C([H])([H])C3([H])C([H])([H])C([H])([H])[N+]([H])([H])C([H])(C([H])([H])[H])C([H])([H])[H])c([H])c([H])c2C1([H])[H]

$$$$
50:0:0
     RDKit          3D

 93101  0  0  1  0  0  0  0  0999 V2000
  -27.3630  -21.7680   19.3620 C   0  0  0  0  0  2  0  0  0  0  0  0
  -28.2580  -22.9540   19.4690 N   0  0  0  0  0  4  0  0  0  0  0  0
  -28.7360  -23.0800   18.5870 H   0  0  0  0  0  0  0  0  0  0  0  0
  -28.9640  -22.7870   20.1710 H   0  0  0  0  0  0  0  0  0  0  0  0
  -27.5840  -24.2400   19.8060 C   0  0  0  0  0  2  0  0  0  0  0  0
  -28.4300  -25.4610   19.3400 C   0  0  0  0  0  2  0  0  0  0  0  0
  -28.3110  -26.7570   19.9620 O   0  0  0  0  0  0  0  0  0  0  0  0
  -24.6080  -31.8120   23.2230 C   0  0  0  0  0  0  0  0  0  0  0  0
  -27.1670  -27.5250   19.8720 C   0  0  0  0  0  0  0  0  0  0  0  0
  -23.3690  -30.5090   21.5230 C   0  0  0  0  0  3  0  0  0  0  0  0
  -24.7870  -29.0750   19.9610 C   0  0  0  0  0  0  0  0  0  0  0  0
  -25.8940  -30.8750   21.3050 C   0  0  0  0  0  2  0  0  0  0  0  0
  -25.9540  -29.5460   20.5690 C   0  0  0  0  0  0  0  0  0  0  0  0
  -27.1450  -28.7790   20.5320 C   0  0  0  0  0  3  0  0  0  0  0  0
  -26.0100  -27.1240   19.1760 C   0  0  0  0  0  3  0  0  0  0  0  0
  -24.8100  -27.8550   19.2560 C   0  0  0  0  0  3  0  0  0  0  0  0
  -23.5400  -29.9270   20.0940 C   0  0  0  0  0  2  0  0  0  0  0  0
  -24.6430  -31.0710   22.0730 N   0  0  0  0  0  0  0  0  0  0  0  0
  -23.5340  -32.0620   23.7840 O   0  0  0  0  0  0  0  0  0  0  0  0
  -22.7290  -29.4350   22.4280 C   0  0  0  0  0  0  0  0  0  0  0  0
  -21.4100  -29.2440   22.2900 N   0  0  0  0  0  0  0  0  0  0  0  0
  -23.4130  -28.7730   23.2130 O   0  0  0  0  0  0  0  0  0  0  0  0
  -20.8890  -29.7970   21.6210 H   0  0  0  0  0  0  0  0  0  0  0  0
  -18.0390  -28.0030   22.6960 C   0  0  0  0  0  0  0  0  0  0  0  0
  -20.6010  -28.2650   23.0170 C   0  0  0  0  0  3  0  0  0  0  0  0
  -20.7220  -26.8660   22.3810 C   0  0  0  0  0  2  0  0  0  0  0  0
  -19.6250  -26.5780   21.3440 C   0  0  0  0  0  2  0  0  0  0  0  0
  -18.2260  -26.6750   21.9730 C   0  0  0  0  0  2  0  0  0  0  0  0
  -19.1560  -28.7500   23.1730 C   0  0  0  0  0  0  0  0  0  0  0  0
  -18.9430  -29.9920   23.8070 C   0  0  0  0  0  3  0  0  0  0  0  0
  -17.6250  -30.4680   23.9890 C   0  0  0  0  0  3  0  0  0  0  0  0
  -16.5280  -29.7160   23.5450 C   0  0  0  0  0  3  0  0  0  0  0  0
  -16.7370  -28.4930   22.8870 C   0  0  0  0  0  3  0  0  0  0  0  0
  -25.8990  -32.4100   23.8560 C   0  0  0  0  0  3  0  0  0  0  0  0
  -25.5970  -33.7860   24.2670 N   0  0  0  0  0  0  0  0  0  0  0  0
  -25.9420  -34.8770   23.5720 C   0  0  0  0  0  0  0  0  0  0  0  0
  -26.6140  -34.8310   22.5380 O   0  0  0  0  0  0  0  0  0  0  0  0
  -24.9970  -33.9020   25.0710 H   0  0  0  0  0  0  0  0  0  0  0  0
  -24.2240  -36.7020   23.3020 C   0  0  0  0  0  1  0  0  0  0  0  0
  -25.4550  -36.2430   24.1020 C   0  0  0  0  0  3  0  0  0  0  0  0
  -27.5910  -37.0520   25.0000 C   0  0  0  0  0  1  0  0  0  0  0  0
  -26.4960  -37.2930   24.0660 N   0  0  0  0  0  0  0  0  0  0  0  0
  -26.0960  -38.2030   24.2770 H   0  0  0  0  0  0  0  0  0  0  0  0
  -26.4320  -31.5700   25.0790 C   0  0  1  0  0  0  0  0  0  0  0  0
  -25.3630  -31.2610   26.1570 C   0  0  0  0  0  1  0  0  0  0  0  0
  -27.0010  -30.2170   24.5940 C   0  0  0  0  0  1  0  0  0  0  0  0
  -27.5970  -32.3230   25.7710 C   0  0  0  0  0  1  0  0  0  0  0  0
  -28.1360  -20.4390   19.4640 C   0  0  0  0  0  2  0  0  0  0  0  0
  -29.7770  -20.9530   21.5240 C   0  0  0  0  0  2  0  0  0  0  0  0
  -30.6780  -19.9090   20.8440 C   0  0  0  0  0  2  0  0  0  0  0  0
  -28.6260  -20.1400   20.9150 C   0  0  0  0  0  3  0  0  0  0  0  0
  -29.5630  -19.0150   21.1260 N   0  0  1  0  0  4  0  0  0  0  0  0
  -29.6150  -18.7990   22.1170 H   0  0  0  0  0  0  0  0  0  0  0  0
  -29.3650  -17.7020   20.4750 C   0  0  0  0  0  2  0  0  0  0  0  0
  -30.6530  -16.9790   19.9620 C   0  0  0  0  0  2  0  0  0  0  0  0
  -31.3260  -14.4930   19.8500 C   0  0  0  0  0  0  0  0  0  0  0  0
  -31.0070  -12.2220   18.9780 C   0  0  0  0  0  2  0  0  0  0  0  0
  -30.0330  -12.3390   17.7710 C   0  0  0  0  0  2  0  0  0  0  0  0
  -28.5620  -12.3010   18.2570 C   0  0  0  0  0  2  0  0  0  0  0  0
  -28.2960  -13.2760   19.4300 C   0  0  0  0  0  3  0  0  0  0  0  0
  -29.3700  -13.0770   20.5330 C   0  0  0  0  0  2  0  0  0  0  0  0
  -30.6860  -13.2930   19.9220 N   0  0  0  0  0  0  0  0  0  0  0  0
  -32.4710  -14.6310   19.4250 O   0  0  0  0  0  0  0  0  0  0  0  0
  -30.4790  -15.5260   20.0430 N   0  0  0  0  0  0  0  0  0  0  0  0
  -29.5680  -15.2380   20.3490 H   0  0  0  0  0  0  0  0  0  0  0  0
  -26.0000  -14.1300   20.2260 C   0  0  0  0  0  0  0  0  0  0  0  0
  -24.8780  -13.4660   20.6280 C   0  0  0  0  0  0  0  0  0  0  0  0
  -25.2060  -12.0730   20.5820 C   0  0  0  0  0  0  0  0  0  0  0  0
  -26.9450  -13.1520   19.9580 N   0  0  0  0  0  0  0  0  0  0  0  0
  -26.4720  -11.9110   20.2290 N   0  0  0  0  0  0  0  0  0  0  0  0
  -24.3780  -10.8850   20.7970 C   0  0  0  0  0  0  0  0  0  0  0  0
  -24.7390   -9.8970   21.7400 C   0  0  0  0  0  3  0  0  0  0  0  0
  -23.9200   -8.7650   21.9410 C   0  0  0  0  0  3  0  0  0  0  0  0
  -22.7230   -8.6140   21.2030 C   0  0  0  0  0  0  0  0  0  0  0  0
  -22.3790   -9.5900   20.2510 C   0  0  0  0  0  3  0  0  0  0  0  0
  -23.1970  -10.7140   20.0490 C   0  0  0  0  0  3  0  0  0  0  0  0
  -21.8770   -7.5370   21.3130 O   0  0  0  0  0  0  0  0  0  0  0  0
  -21.7460   -6.8390   22.4860 C   0  0  0  0  0  0  0  0  0  0  0  0
  -21.3690   -7.4730   23.6890 C   0  0  0  0  0  3  0  0  0  0  0  0
  -21.1840   -6.7090   24.8580 C   0  0  0  0  0  3  0  0  0  0  0  0
  -21.3680   -5.3130   24.8240 C   0  0  0  0  0  0  0  0  0  0  0  0
  -21.7430   -4.6820   23.6250 C   0  0  0  0  0  3  0  0  0  0  0  0
  -21.9300   -5.4430   22.4590 C   0  0  0  0  0  0  0  0  0  0  0  0
  -22.2700   -4.8290   21.2980 F   0  0  0  0  0  0  0  0  0  0  0  0
  -21.1820   -4.5750   25.9430 F   0  0  0  0  0  0  0  0  0  0  0  0
  -23.5460  -14.0680   20.9510 C   0  0  0  0  0  0  0  0  0  0  0  0
  -22.7920  -13.4470   21.8480 N   0  0  0  0  0  0  0  0  0  0  0  0
  -23.1750  -15.1200   20.4220 O   0  0  0  0  0  0  0  0  0  0  0  0
  -23.0990  -12.5870   22.2830 H   0  0  0  0  0  0  0  0  0  0  0  0
  -21.8940  -13.8320   22.1070 H   0  0  0  0  0  0  0  0  0  0  0  0
  -26.2920  -15.4770   20.0200 N   0  0  0  0  0  0  0  0  0  0  0  0
  -25.5090  -16.1200   19.9940 H   0  0  0  0  0  0  0  0  0  0  0  0
  -26.9970  -15.7190   19.3380 H   0  0  0  0  0  0  0  0  0  0  0  0
  1 48  1  0
  1  2  1  0
  2  5  1  0
  2  4  1  0
  3  2  1  0
  6  5  1  0
  6  7  1  0
  8 19  2  0
  9  7  1  0
  9 14  1  0
 10 18  1  0
 10 20  1  0
 11 17  1  0
 11 13  1  0
 12 18  1  0
 13 12  1  0
 14 13  2  0
 15 16  1  0
 15  9  2  0
 16 11  2  0
 17 10  1  0
 18  8  1  0
 20 22  2  0
 21 20  1  0
 23 21  1  0
 24 33  2  0
 24 29  1  0
 25 21  1  0
 25 29  1  0
 26 25  1  0
 27 28  1  0
 27 26  1  0
 28 24  1  0
 29 30  2  0
 30 31  1  0
 32 31  2  0
 33 32  1  0
 34  8  1  0
 34 35  1  0
 34 44  1  0
 35 38  1  0
 36 40  1  0
 36 35  1  0
 37 36  2  0
 40 39  1  0
 42 40  1  0
 42 43  1  0
 42 41  1  0
 44 47  1  1
 44 45  1  0
 46 44  1  0
 50 52  1  0
 50 49  1  0
 51 48  1  0
 51 52  1  0
 51 49  1  0
 52 53  1  1
 54 52  1  0
 55 64  1  0
 55 54  1  0
 56 62  1  0
 56 64  1  0
 57 62  1  0
 58 59  1  0
 58 57  1  0
 60 59  1  0
 60 69  1  0
 60 61  1  0
 62 61  1  0
 63 56  2  0
 64 65  1  0
 66 67  2  0
 67 86  1  0
 68 67  1  0
 68 71  1  0
 69 66  1  0
 69 70  1  0
 70 68  2  0
 71 72  1  0
 72 73  2  0
 74 77  1  0
 74 73  1  0
 75 74  2  0
 76 75  1  0
 76 71  2  0
 77 78  1  0
 78 79  1  0
 79 80  2  0
 81 80  1  0
 81 85  1  0
 82 81  2  0
 83 78  2  0
 83 82  1  0
 84 83  1  0
 86 87  1  0
 87 90  1  0
 87 89  1  0
 88 86  2  0
 91 66  1  0
 92 91  1  0
 93 91  1  0
M  ISO  4   6 101   7 101  56 100  64 100
M  END
>  <TORSDO>  (51) 
F 23

>  <SCORE>  (51) 
-12.203

>  <name>  (51) 
50

>  <ligand_id>  (51) 
50

>  <original_smiles>  (51) 
[H]c1c([H])c([H])c2c(c1[H])C([H])([H])C([H])([H])C([H])([H])C2([H])N([H])C(=O)C1([H])N(C(=O)C([H])(N([H])C(=O)C([H])(N([H])C([H])([H])[H])C([H])([H])[H])C(C([H])([H])[H])(C([H])([H])[H])C([H])([H])[H])C([H])([H])c2c([H])c(OC([H])([H])C([H])([H])[N+]([H])([H])C([H])([H])C([H])([H])C3([H])C([H])([H])C([H])([H])[N+]3([H])C([H])([H])C([H])([H])N([H])C(=O)N3C([H])([H])C([H])([H])C([H])([H])C([H])(n4nc(-c5c([H])c([H])c(Oc6c([H])c([H])c(F)c([H])c6F)c([H])c5[H])c(C(=O)N([H])[H])c4N([H])[H])C3([H])[H])c([H])c([H])c2C1([H])[H]

>  <smiles>  (51) 
[H]c1c([H])c([H])c2c(c1[H])C([H])([H])C([H])([H])C([H])([H])C2([H])N([H])C(=O)C1([H])N(C(=O)C([H])(N([H])C(=O)C([H])(N([H])C([H])([H])[H])C([H])([H])[H])C(C([H])([H])[H])(C([H])([H])[H])C([H])([H])[H])C([H])([H])c2c([H])c(OC([H])([H])C([H])([H])[N+]([H])([H])C([H])([H])C([H])([H])C3([H])C([H])([H])C([H])([H])[N+]3([H])C([H])([H])C([H])([H])N([H])C(=O)N3C([H])([H])C([H])([H])C([H])([H])C([H])(n4nc(-c5c([H])c([H])c(Oc6c([H])c([H])c(F)c([H])c6F)c([H])c5[H])c(C(=O)N([H])[H])c4N([H])[H])C3([H])[H])c([H])c([H])c2C1([H])[H]

$$$$
51:0:0
     RDKit          3D

 99109  0  0  1  0  0  0  0  0999 V2000
  -31.4590  -20.4290   20.3980 C   0  0  0  0  0  3  0  0  0  0  0  0
  -29.7490  -18.6800   19.2120 C   0  0  0  0  0  0  0  0  0  0  0  0
  -30.6940  -20.8580   19.2920 C   0  0  0  0  0  0  0  0  0  0  0  0
  -30.6130  -18.2540   20.2910 C   0  0  0  0  0  0  0  0  0  0  0  0
  -31.4370  -19.1630   20.8680 N   0  0  0  0  0  0  0  0  0  0  0  0
  -29.8200  -19.9690   18.7020 N   0  0  0  0  0  0  0  0  0  0  0  0
  -28.1430  -17.7320   17.2270 C   0  0  0  0  0  2  0  0  0  0  0  0
  -26.7150  -17.7220   17.7780 C   0  0  0  0  0  2  0  0  0  0  0  0
  -28.6100  -17.7780   18.6880 C   0  0  0  0  0  3  0  0  0  0  0  0
  -27.2400  -18.1990   19.0590 N   0  0  2  0  0  4  0  0  0  0  0  0
  -27.1870  -19.2070   19.0870 H   0  0  0  0  0  0  0  0  0  0  0  0
  -25.1360  -17.4390   20.3090 C   0  0  0  0  0  1  0  0  0  0  0  0
  -26.6760  -17.5620   20.2810 C   0  0  0  0  0  2  0  0  0  0  0  0
  -30.6080  -16.9070   21.0970 C   0  0  0  0  0  2  0  0  0  0  0  0
  -30.9890  -14.5380   20.1900 C   0  0  0  0  0  0  0  0  0  0  0  0
  -30.7280  -12.3080   19.1260 C   0  0  0  0  0  2  0  0  0  0  0  0
  -29.7570  -12.4530   17.9340 C   0  0  0  0  0  2  0  0  0  0  0  0
  -28.2850  -12.3600   18.3910 C   0  0  0  0  0  2  0  0  0  0  0  0
  -27.9830  -13.2120   19.6550 C   0  0  0  0  0  3  0  0  0  0  0  0
  -29.0610  -13.0170   20.7400 C   0  0  0  0  0  2  0  0  0  0  0  0
  -30.3510  -13.3330   20.1160 N   0  0  0  0  0  0  0  0  0  0  0  0
  -32.1610  -14.6800   19.8370 O   0  0  0  0  0  0  0  0  0  0  0  0
  -30.1950  -15.5970   20.5190 N   0  0  0  0  0  0  0  0  0  0  0  0
  -29.2300  -15.3530   20.6640 H   0  0  0  0  0  0  0  0  0  0  0  0
  -25.6510  -13.8830   20.4920 C   0  0  0  0  0  0  0  0  0  0  0  0
  -24.5600  -13.1470   20.8490 C   0  0  0  0  0  0  0  0  0  0  0  0
  -24.9440  -11.7760   20.7140 C   0  0  0  0  0  0  0  0  0  0  0  0
  -26.6370  -12.9670   20.1650 N   0  0  0  0  0  0  0  0  0  0  0  0
  -26.2200  -11.6900   20.3580 N   0  0  0  0  0  0  0  0  0  0  0  0
  -24.1590  -10.5430   20.8360 C   0  0  0  0  0  0  0  0  0  0  0  0
  -24.5060   -9.5310   21.7580 C   0  0  0  0  0  3  0  0  0  0  0  0
  -23.7150   -8.3670   21.8740 C   0  0  0  0  0  3  0  0  0  0  0  0
  -22.5640   -8.2080   21.0640 C   0  0  0  0  0  0  0  0  0  0  0  0
  -22.2420   -9.2080   20.1300 C   0  0  0  0  0  3  0  0  0  0  0  0
  -23.0310  -10.3640   20.0110 C   0  0  0  0  0  3  0  0  0  0  0  0
  -21.7540   -7.0950   21.0860 O   0  0  0  0  0  0  0  0  0  0  0  0
  -21.5550   -6.3790   22.2390 C   0  0  0  0  0  0  0  0  0  0  0  0
  -20.9960   -6.9680   23.3950 C   0  0  0  0  0  3  0  0  0  0  0  0
  -20.7440   -6.1800   24.5370 C   0  0  0  0  0  3  0  0  0  0  0  0
  -21.0350   -4.8030   24.5200 C   0  0  0  0  0  0  0  0  0  0  0  0
  -21.5860   -4.2140   23.3690 C   0  0  0  0  0  3  0  0  0  0  0  0
  -21.8420   -4.9980   22.2310 C   0  0  0  0  0  0  0  0  0  0  0  0
  -22.3510   -4.4190   21.1170 F   0  0  0  0  0  0  0  0  0  0  0  0
  -20.7910   -4.0440   25.6130 F   0  0  0  0  0  0  0  0  0  0  0  0
  -23.1980  -13.6750   21.2040 C   0  0  0  0  0  0  0  0  0  0  0  0
  -22.4690  -12.9650   22.0530 N   0  0  0  0  0  0  0  0  0  0  0  0
  -22.7970  -14.7550   20.7640 O   0  0  0  0  0  0  0  0  0  0  0  0
  -22.8080  -12.0930   22.4260 H   0  0  0  0  0  0  0  0  0  0  0  0
  -21.5590  -13.3020   22.3380 H   0  0  0  0  0  0  0  0  0  0  0  0
  -25.8900  -15.2520   20.3830 N   0  0  0  0  0  0  0  0  0  0  0  0
  -25.0960  -15.8830   20.4070 H   0  0  0  0  0  0  0  0  0  0  0  0
  -26.6340  -15.5770   19.7830 H   0  0  0  0  0  0  0  0  0  0  0  0
  -30.9630  -22.3210   18.7970 C   0  0  0  0  0  2  0  0  0  0  0  0
  -29.2050  -23.8250   19.8510 C   0  0  0  0  0  2  0  0  0  0  0  0
  -30.2030  -24.7190   18.3290 C   0  0  0  0  0  2  0  0  0  0  0  0
  -28.9020  -25.1190   19.0450 C   0  0  0  0  0  3  0  0  0  0  0  0
  -29.8490  -23.3040   18.6370 N   0  0  1  0  0  4  0  0  0  0  0  0
  -29.1640  -22.9550   17.9860 H   0  0  0  0  0  0  0  0  0  0  0  0
  -28.8420  -26.4130   19.7570 O   0  0  0  0  0  0  0  0  0  0  0  0
  -24.7050  -31.4630   22.9060 C   0  0  0  0  0  0  0  0  0  0  0  0
  -27.6380  -27.1370   19.7940 C   0  0  0  0  0  0  0  0  0  0  0  0
  -23.6190  -30.0560   21.1980 C   0  0  0  0  0  3  0  0  0  0  0  0
  -25.1820  -28.6210   19.7940 C   0  0  0  0  0  0  0  0  0  0  0  0
  -26.1480  -30.5050   21.1020 C   0  0  0  0  0  2  0  0  0  0  0  0
  -26.3130  -29.1490   20.4240 C   0  0  0  0  0  0  0  0  0  0  0  0
  -27.5410  -28.4180   20.4210 C   0  0  0  0  0  3  0  0  0  0  0  0
  -26.4450  -26.6330   19.2150 C   0  0  0  0  0  3  0  0  0  0  0  0
  -25.2500  -27.3590   19.1940 C   0  0  0  0  0  3  0  0  0  0  0  0
  -23.9010  -29.4240   19.8130 C   0  0  0  0  0  2  0  0  0  0  0  0
  -24.8430  -30.6870   21.7940 N   0  0  0  0  0  0  0  0  0  0  0  0
  -23.5920  -31.6780   23.4090 O   0  0  0  0  0  0  0  0  0  0  0  0
  -22.9750  -28.9830   22.1070 C   0  0  0  0  0  0  0  0  0  0  0  0
  -21.6430  -28.8290   22.0060 N   0  0  0  0  0  0  0  0  0  0  0  0
  -23.6680  -28.2960   22.8610 O   0  0  0  0  0  0  0  0  0  0  0  0
  -21.1420  -29.4360   21.3720 H   0  0  0  0  0  0  0  0  0  0  0  0
  -18.2550  -27.7240   22.6170 C   0  0  0  0  0  0  0  0  0  0  0  0
  -20.8350  -27.8540   22.7400 C   0  0  0  0  0  3  0  0  0  0  0  0
  -20.8350  -26.4820   22.0240 C   0  0  0  0  0  2  0  0  0  0  0  0
  -19.6580  -26.3040   21.0590 C   0  0  0  0  0  2  0  0  0  0  0  0
  -18.3270  -26.4420   21.8060 C   0  0  0  0  0  2  0  0  0  0  0  0
  -19.4330  -28.3960   23.0390 C   0  0  0  0  0  0  0  0  0  0  0  0
  -19.3080  -29.6060   23.7580 C   0  0  0  0  0  3  0  0  0  0  0  0
  -18.0400  -30.1420   24.0530 C   0  0  0  0  0  3  0  0  0  0  0  0
  -16.8790  -29.4620   23.6490 C   0  0  0  0  0  3  0  0  0  0  0  0
  -16.9870  -28.2530   22.9380 C   0  0  0  0  0  3  0  0  0  0  0  0
  -25.9370  -32.1340   23.5890 C   0  0  0  0  0  3  0  0  0  0  0  0
  -25.5490  -33.5010   23.9690 N   0  0  0  0  0  0  0  0  0  0  0  0
  -25.8610  -34.6000   23.2700 C   0  0  0  0  0  0  0  0  0  0  0  0
  -26.5810  -34.5740   22.2680 O   0  0  0  0  0  0  0  0  0  0  0  0
  -24.9110  -33.5950   24.7440 H   0  0  0  0  0  0  0  0  0  0  0  0
  -24.0660  -36.3200   22.9000 C   0  0  0  0  0  1  0  0  0  0  0  0
  -25.2840  -35.9410   23.7580 C   0  0  0  0  0  3  0  0  0  0  0  0
  -27.3240  -36.8870   24.7380 C   0  0  0  0  0  1  0  0  0  0  0  0
  -26.2670  -37.0480   23.7430 N   0  0  0  0  0  0  0  0  0  0  0  0
  -25.8090  -37.9400   23.9090 H   0  0  0  0  0  0  0  0  0  0  0  0
  -26.4600  -31.3350   24.8460 C   0  0  1  0  0  0  0  0  0  0  0  0
  -25.3620  -31.0040   25.8800 C   0  0  0  0  0  1  0  0  0  0  0  0
  -27.1080  -30.0010   24.4150 C   0  0  0  0  0  1  0  0  0  0  0  0
  -27.5680  -32.1460   25.5620 C   0  0  0  0  0  1  0  0  0  0  0  0
  1  5  1  0
  2  4  1  0
  3  1  2  0
  4  5  2  0
  4 14  1  0
  6  2  2  0
  6  3  1  0
  7  8  1  0
  7  9  1  0
  8 10  1  0
  9 10  1  0
  9  2  1  0
 10 11  1  1
 10 13  1  0
 13 12  1  0
 15 23  1  0
 16 21  1  0
 17 18  1  0
 17 16  1  0
 19 18  1  0
 19 28  1  0
 19 20  1  0
 21 15  1  0
 21 20  1  0
 22 15  2  0
 23 24  1  0
 23 14  1  0
 25 26  2  0
 26 45  1  0
 27 30  1  0
 27 26  1  0
 28 29  1  0
 28 25  1  0
 29 27  2  0
 30 31  1  0
 31 32  2  0
 33 36  1  0
 33 32  1  0
 34 33  2  0
 35 34  1  0
 35 30  2  0
 36 37  1  0
 37 38  1  0
 38 39  2  0
 40 39  1  0
 40 44  1  0
 41 40  2  0
 42 37  2  0
 42 41  1  0
 43 42  1  0
 45 46  1  0
 46 49  1  0
 46 48  1  0
 47 45  2  0
 50 51  1  0
 50 25  1  0
 52 50  1  0
 53  3  1  0
 55 57  1  0
 55 56  1  0
 56 59  1  0
 56 54  1  0
 57 53  1  0
 57 54  1  0
 57 58  1  6
 59 61  1  0
 60 71  2  0
 61 66  1  0
 62 70  1  0
 62 72  1  0
 63 69  1  0
 63 65  1  0
 64 70  1  0
 65 64  1  0
 66 65  2  0
 67 61  2  0
 68 67  1  0
 68 63  2  0
 69 62  1  0
 70 60  1  0
 72 74  2  0
 73 72  1  0
 75 73  1  0
 76 85  2  0
 76 81  1  0
 77 73  1  0
 77 81  1  0
 78 77  1  0
 79 80  1  0
 79 78  1  0
 80 76  1  0
 81 82  2  0
 82 83  1  0
 84 83  2  0
 85 84  1  0
 86 60  1  0
 86 87  1  0
 86 96  1  0
 87 90  1  0
 88 92  1  0
 88 87  1  0
 89 88  2  0
 92 91  1  0
 94 92  1  0
 94 95  1  0
 94 93  1  0
 96 99  1  1
 96 97  1  0
 98 96  1  0
M  ISO  4  15 100  23 100  56 101  59 101
M  END
>  <TORSDO>  (52) 
F 21

>  <SCORE>  (52) 
-9.891

>  <name>  (52) 
51

>  <ligand_id>  (52) 
51

>  <original_smiles>  (52) 
[H]c1nc(C([H])([H])N([H])C(=O)N2C([H])([H])C([H])([H])C([H])([H])C([H])(n3nc(-c4c([H])c([H])c(Oc5c([H])c([H])c(F)c([H])c5F)c([H])c4[H])c(C(=O)N([H])[H])c3N([H])[H])C2([H])[H])c(C2([H])C([H])([H])C([H])([H])[N+]2([H])C([H])([H])C([H])([H])[H])nc1C([H])([H])[N+]1([H])C([H])([H])C([H])(Oc2c([H])c([H])c3c(c2[H])C([H])([H])N(C(=O)C([H])(N([H])C(=O)C([H])(N([H])C([H])([H])[H])C([H])([H])[H])C(C([H])([H])[H])(C([H])([H])[H])C([H])([H])[H])C([H])(C(=O)N([H])C2([H])c4c([H])c([H])c([H])c([H])c4C([H])([H])C([H])([H])C2([H])[H])C3([H])[H])C1([H])[H]

>  <smiles>  (52) 
[H]c1nc(C([H])([H])N([H])C(=O)N2C([H])([H])C([H])([H])C([H])([H])C([H])(n3nc(-c4c([H])c([H])c(Oc5c([H])c([H])c(F)c([H])c5F)c([H])c4[H])c(C(=O)N([H])[H])c3N([H])[H])C2([H])[H])c(C2([H])C([H])([H])C([H])([H])[N+]2([H])C([H])([H])C([H])([H])[H])nc1C([H])([H])[N+]1([H])C([H])([H])C([H])(Oc2c([H])c([H])c3c(c2[H])C([H])([H])N(C(=O)C([H])(N([H])C(=O)C([H])(N([H])C([H])([H])[H])C([H])([H])[H])C(C([H])([H])[H])(C([H])([H])[H])C([H])([H])[H])C([H])(C(=O)N([H])C2([H])c4c([H])c([H])c([H])c([H])c4C([H])([H])C([H])([H])C2([H])[H])C3([H])[H])C1([H])[H]

$$$$
52:0:0
     RDKit          3D

 94104  0  0  1  0  0  0  0  0999 V2000
  -28.4060  -22.7340   20.3490 C   0  0  0  0  0  0  0  0  0  0  0  0
  -29.3000  -20.8090   20.5840 C   0  0  0  0  0  0  0  0  0  0  0  0
  -27.4030  -21.8490   20.3940 N   0  0  0  0  0  0  0  0  0  0  0  0
  -27.9750  -20.6130   20.5680 N   0  0  0  0  0  0  0  0  0  0  0  0
  -29.6240  -22.1420   20.4980 N   0  0  0  0  0  0  0  0  0  0  0  0
  -27.2970  -24.8570   21.2630 C   0  0  0  0  0  2  0  0  0  0  0  0
  -28.0840  -24.2190   20.1290 C   0  0  0  0  0  3  0  0  0  0  0  0
  -28.5730  -25.5230   20.8090 C   0  0  0  0  0  3  0  0  0  0  0  0
  -28.4820  -26.7910   20.0690 O   0  0  0  0  0  0  0  0  0  0  0  0
  -24.6180  -31.9040   23.2780 C   0  0  0  0  0  0  0  0  0  0  0  0
  -27.3180  -27.5470   20.1020 C   0  0  0  0  0  0  0  0  0  0  0  0
  -23.4260  -30.5020   21.6240 C   0  0  0  0  0  3  0  0  0  0  0  0
  -24.9010  -29.0300   20.1480 C   0  0  0  0  0  0  0  0  0  0  0  0
  -25.9430  -30.9210   21.4050 C   0  0  0  0  0  2  0  0  0  0  0  0
  -26.0540  -29.5610   20.7420 C   0  0  0  0  0  0  0  0  0  0  0  0
  -27.2680  -28.8270   20.7150 C   0  0  0  0  0  3  0  0  0  0  0  0
  -26.1580  -27.0660   19.4580 C   0  0  0  0  0  3  0  0  0  0  0  0
  -24.9500  -27.7840   19.4980 C   0  0  0  0  0  3  0  0  0  0  0  0
  -23.6370  -29.8560   20.2280 C   0  0  0  0  0  2  0  0  0  0  0  0
  -24.6800  -31.1260   22.1580 N   0  0  0  0  0  0  0  0  0  0  0  0
  -23.5370  -32.1390   23.8360 O   0  0  0  0  0  0  0  0  0  0  0  0
  -22.8150  -29.4470   22.5720 C   0  0  0  0  0  0  0  0  0  0  0  0
  -21.5050  -29.1920   22.4220 N   0  0  0  0  0  0  0  0  0  0  0  0
  -23.5150  -28.8600   23.4020 O   0  0  0  0  0  0  0  0  0  0  0  0
  -21.0000  -29.7230   21.7250 H   0  0  0  0  0  0  0  0  0  0  0  0
  -18.2200  -27.7240   22.7710 C   0  0  0  0  0  0  0  0  0  0  0  0
  -20.7280  -28.2090   23.1760 C   0  0  0  0  0  3  0  0  0  0  0  0
  -20.9830  -26.7770   22.6540 C   0  0  0  0  0  2  0  0  0  0  0  0
  -19.9730  -26.3320   21.5920 C   0  0  0  0  0  2  0  0  0  0  0  0
  -18.5480  -26.3760   22.1490 C   0  0  0  0  0  2  0  0  0  0  0  0
  -19.2440  -28.5900   23.2380 C   0  0  0  0  0  0  0  0  0  0  0  0
  -18.8840  -29.8470   23.7750 C   0  0  0  0  0  3  0  0  0  0  0  0
  -17.5340  -30.2390   23.8490 C   0  0  0  0  0  3  0  0  0  0  0  0
  -16.5250  -29.3690   23.3990 C   0  0  0  0  0  3  0  0  0  0  0  0
  -16.8670  -28.1150   22.8660 C   0  0  0  0  0  3  0  0  0  0  0  0
  -25.8960  -32.5560   23.8930 C   0  0  0  0  0  3  0  0  0  0  0  0
  -26.4170  -31.8050   25.1800 C   0  0  1  0  0  0  0  0  0  0  0  0
  -25.3230  -31.5650   26.2450 C   0  0  0  0  0  1  0  0  0  0  0  0
  -27.0220  -30.4310   24.8090 C   0  0  0  0  0  1  0  0  0  0  0  0
  -27.5520  -32.6240   25.8390 C   0  0  0  0  0  1  0  0  0  0  0  0
  -25.5730  -33.9560   24.2010 N   0  0  0  0  0  0  0  0  0  0  0  0
  -25.9120  -35.0010   23.4330 C   0  0  0  0  0  0  0  0  0  0  0  0
  -26.6030  -34.8870   22.4170 O   0  0  0  0  0  0  0  0  0  0  0  0
  -24.9550  -34.1190   24.9830 H   0  0  0  0  0  0  0  0  0  0  0  0
  -24.1860  -36.7800   23.0200 C   0  0  0  0  0  1  0  0  0  0  0  0
  -25.4080  -36.3900   23.8650 C   0  0  0  0  0  3  0  0  0  0  0  0
  -27.5170  -37.2950   24.7390 C   0  0  0  0  0  1  0  0  0  0  0  0
  -26.4390  -37.4470   23.7650 N   0  0  0  0  0  0  0  0  0  0  0  0
  -26.0250  -38.3660   23.8850 H   0  0  0  0  0  0  0  0  0  0  0  0
  -31.2870  -23.2720   21.9770 C   0  0  0  0  0  1  0  0  0  0  0  0
  -30.9190  -22.8120   20.5540 C   0  0  0  0  0  2  0  0  0  0  0  0
  -30.5380  -19.5580   22.3720 C   0  0  0  0  0  1  0  0  0  0  0  0
  -30.2770  -19.6550   20.8590 C   0  0  0  0  0  3  0  0  0  0  0  0
  -31.0800  -14.7160   19.9860 C   0  0  0  0  0  0  0  0  0  0  0  0
  -30.7580  -12.4480   19.0800 C   0  0  0  0  0  2  0  0  0  0  0  0
  -29.7830  -12.5530   17.8880 C   0  0  0  0  0  2  0  0  0  0  0  0
  -28.3200  -12.4640   18.3690 C   0  0  0  0  0  2  0  0  0  0  0  0
  -28.0210  -13.3830   19.5840 C   0  0  0  0  0  3  0  0  0  0  0  0
  -29.1170  -13.2840   20.6670 C   0  0  0  0  0  2  0  0  0  0  0  0
  -30.4090  -13.5300   20.0120 N   0  0  0  0  0  0  0  0  0  0  0  0
  -32.2720  -14.7900   19.6710 O   0  0  0  0  0  0  0  0  0  0  0  0
  -29.9840  -17.9850   18.8240 C   0  0  0  0  0  2  0  0  0  0  0  0
  -29.9260  -16.4520   18.6890 C   0  0  0  0  0  2  0  0  0  0  0  0
  -30.5560  -16.9790   20.8920 C   0  0  0  0  0  2  0  0  0  0  0  0
  -29.8320  -18.2330   20.3190 C   0  0  0  0  0  3  0  0  0  0  0  0
  -30.3050  -15.8430   19.9830 N   0  0  0  0  0  0  0  0  0  0  0  0
  -25.6890  -14.0830   20.4000 C   0  0  0  0  0  0  0  0  0  0  0  0
  -24.6050  -13.3520   20.8020 C   0  0  0  0  0  0  0  0  0  0  0  0
  -25.0090  -11.9820   20.7380 C   0  0  0  0  0  0  0  0  0  0  0  0
  -26.6860  -13.1600   20.1220 N   0  0  0  0  0  0  0  0  0  0  0  0
  -26.2840  -11.8900   20.3830 N   0  0  0  0  0  0  0  0  0  0  0  0
  -24.2390  -10.7490   20.9390 C   0  0  0  0  0  0  0  0  0  0  0  0
  -24.6450   -9.7700   21.8710 C   0  0  0  0  0  3  0  0  0  0  0  0
  -23.8780   -8.6010   22.0590 C   0  0  0  0  0  3  0  0  0  0  0  0
  -22.6910   -8.4030   21.3140 C   0  0  0  0  0  0  0  0  0  0  0  0
  -22.3040   -9.3700   20.3700 C   0  0  0  0  0  3  0  0  0  0  0  0
  -23.0720  -10.5310   20.1800 C   0  0  0  0  0  3  0  0  0  0  0  0
  -21.8950   -7.2870   21.4130 O   0  0  0  0  0  0  0  0  0  0  0  0
  -21.8010   -6.5730   22.5800 C   0  0  0  0  0  0  0  0  0  0  0  0
  -21.3460   -7.1610   23.7810 C   0  0  0  0  0  3  0  0  0  0  0  0
  -21.2020   -6.3730   24.9390 C   0  0  0  0  0  3  0  0  0  0  0  0
  -21.4990   -4.9970   24.8980 C   0  0  0  0  0  0  0  0  0  0  0  0
  -21.9470   -4.4100   23.7010 C   0  0  0  0  0  3  0  0  0  0  0  0
  -22.0930   -5.1950   22.5450 C   0  0  0  0  0  0  0  0  0  0  0  0
  -22.5060   -4.6180   21.3910 F   0  0  0  0  0  0  0  0  0  0  0  0
  -21.3520   -4.2390   26.0090 F   0  0  0  0  0  0  0  0  0  0  0  0
  -23.2400  -13.8800   21.1310 C   0  0  0  0  0  0  0  0  0  0  0  0
  -22.5210  -13.2110   22.0250 N   0  0  0  0  0  0  0  0  0  0  0  0
  -22.8220  -14.9250   20.6310 O   0  0  0  0  0  0  0  0  0  0  0  0
  -22.8730  -12.3670   22.4530 H   0  0  0  0  0  0  0  0  0  0  0  0
  -21.6080  -13.5510   22.2900 H   0  0  0  0  0  0  0  0  0  0  0  0
  -25.9070  -15.4480   20.2320 N   0  0  0  0  0  0  0  0  0  0  0  0
  -25.1760  -16.1350   20.3890 H   0  0  0  0  0  0  0  0  0  0  0  0
  -26.7770  -15.8600   19.9220 H   0  0  0  0  0  0  0  0  0  0  0  0
  1  3  2  0
  1  5  1  0
  2 53  1  0
  3  4  1  0
  4  2  2  0
  5 51  1  0
  5  2  1  0
  7  1  1  0
  7  8  1  0
  7  6  1  0
  8  9  1  0
  8  6  1  0
  9 11  1  0
 10 21  2  0
 11 16  1  0
 12 20  1  0
 12 22  1  0
 13 19  1  0
 13 15  1  0
 14 20  1  0
 15 14  1  0
 16 15  2  0
 17 18  1  0
 17 11  2  0
 18 13  2  0
 19 12  1  0
 20 10  1  0
 22 24  2  0
 23 22  1  0
 25 23  1  0
 26 35  2  0
 26 31  1  0
 27 23  1  0
 27 31  1  0
 28 27  1  0
 29 30  1  0
 29 28  1  0
 30 26  1  0
 31 32  2  0
 32 33  1  0
 34 33  2  0
 35 34  1  0
 36 10  1  0
 36 41  1  0
 36 37  1  0
 37 40  1  1
 37 38  1  0
 39 37  1  0
 41 44  1  0
 42 46  1  0
 42 41  1  0
 43 42  2  0
 46 45  1  0
 48 46  1  0
 48 49  1  0
 48 47  1  0
 51 50  1  0
 53 52  1  0
 54 60  1  0
 55 60  1  0
 56 57  1  0
 56 55  1  0
 58 57  1  0
 58 70  1  0
 58 59  1  0
 60 59  1  0
 61 54  2  0
 62 65  1  0
 63 62  1  0
 63 66  1  0
 65 53  1  0
 65 64  1  0
 66 54  1  0
 66 64  1  0
 67 68  2  0
 68 87  1  0
 69 68  1  0
 69 72  1  0
 70 71  1  0
 70 67  1  0
 71 69  2  0
 72 73  1  0
 73 74  2  0
 75 78  1  0
 75 74  1  0
 76 75  2  0
 77 76  1  0
 77 72  2  0
 78 79  1  0
 79 80  1  0
 80 81  2  0
 82 81  1  0
 82 86  1  0
 83 82  2  0
 84 79  2  0
 84 83  1  0
 85 84  1  0
 87 88  1  0
 88 91  1  0
 88 90  1  0
 89 87  2  0
 92 93  1  0
 92 67  1  0
 94 92  1  0
M  ISO  4   8 101   9 101  54 100  66 100
M  END
>  <TORSDO>  (53) 
F 19

>  <SCORE>  (53) 
-13.104

>  <name>  (53) 
52

>  <ligand_id>  (53) 
52

>  <original_smiles>  (53) 
[H]c1c([H])c([H])c2c(c1[H])C([H])([H])C([H])([H])C([H])([H])C2([H])N([H])C(=O)C1([H])N(C(=O)C([H])(N([H])C(=O)C([H])(N([H])C([H])([H])[H])C([H])([H])[H])C(C([H])([H])[H])(C([H])([H])[H])C([H])([H])[H])C([H])([H])c2c([H])c(OC3([H])C([H])([H])C3([H])c3nnc(C([H])(C([H])([H])[H])C4([H])C([H])([H])N(C(=O)N5C([H])([H])C([H])([H])C([H])([H])C([H])(n6nc(-c7c([H])c([H])c(Oc8c([H])c([H])c(F)c([H])c8F)c([H])c7[H])c(C(=O)N([H])[H])c6N([H])[H])C5([H])[H])C([H])([H])C4([H])[H])n3C([H])([H])C([H])([H])[H])c([H])c([H])c2C1([H])[H]

>  <smiles>  (53) 
[H]c1c([H])c([H])c2c(c1[H])C([H])([H])C([H])([H])C([H])([H])C2([H])N([H])C(=O)C1([H])N(C(=O)C([H])(N([H])C(=O)C([H])(N([H])C([H])([H])[H])C([H])([H])[H])C(C([H])([H])[H])(C([H])([H])[H])C([H])([H])[H])C([H])([H])c2c([H])c(OC3([H])C([H])([H])C3([H])c3nnc(C([H])(C([H])([H])[H])C4([H])C([H])([H])N(C(=O)N5C([H])([H])C([H])([H])C([H])([H])C([H])(n6nc(-c7c([H])c([H])c(Oc8c([H])c([H])c(F)c([H])c8F)c([H])c7[H])c(C(=O)N([H])[H])c6N([H])[H])C5([H])[H])C([H])([H])C4([H])[H])n3C([H])([H])C([H])([H])[H])c([H])c([H])c2C1([H])[H]

$$$$
53:0:0
     RDKit          3D

 92101  0  0  1  0  0  0  0  0999 V2000
  -30.5760  -14.9680   20.3560 C   0  0  0  0  0  0  0  0  0  0  0  0
  -30.4330  -12.5820   19.5110 C   0  0  0  0  0  2  0  0  0  0  0  0
  -29.5260  -12.4770   18.2650 C   0  0  0  0  0  2  0  0  0  0  0  0
  -28.0590  -12.2770   18.6860 C   0  0  0  0  0  2  0  0  0  0  0  0
  -27.6270  -13.2580   19.8060 C   0  0  0  0  0  3  0  0  0  0  0  0
  -28.6610  -13.3510   20.9480 C   0  0  0  0  0  2  0  0  0  0  0  0
  -29.9410  -13.7250   20.3360 N   0  0  0  0  0  0  0  0  0  0  0  0
  -31.7810  -14.9720   20.0820 O   0  0  0  0  0  0  0  0  0  0  0  0
  -29.0000  -23.3630   19.9900 C   0  0  0  0  0  0  0  0  0  0  0  0
  -30.3680  -23.6030   20.2640 C   0  0  0  0  0  0  0  0  0  0  0  0
  -29.5630  -20.9730   20.1980 C   0  0  0  0  0  0  0  0  0  0  0  0
  -30.1300  -18.6610   19.2490 C   0  0  0  0  0  2  0  0  0  0  0  0
  -29.4090  -18.7290   21.4510 C   0  0  0  0  0  3  0  0  0  0  0  0
  -29.7540  -17.1010   19.1300 C   0  0  0  0  0  2  0  0  0  0  0  0
  -29.5920  -17.0960   21.5210 C   0  0  0  0  0  3  0  0  0  0  0  0
  -28.6230  -21.9820   19.9600 N   0  0  0  0  0  0  0  0  0  0  0  0
  -31.2310  -22.5720   20.5030 N   0  0  0  0  0  0  0  0  0  0  0  0
  -30.8380  -21.2860   20.4700 N   0  0  0  0  0  2  0  0  0  0  0  0
  -29.3200  -19.5070   20.1710 N   0  0  0  0  0  0  0  0  0  0  0  0
  -29.8500  -16.2050   20.3320 N   0  0  0  0  0  0  0  0  0  0  0  0
  -25.2500  -13.8540   20.5300 C   0  0  0  0  0  0  0  0  0  0  0  0
  -24.1740  -13.0900   20.8910 C   0  0  0  0  0  0  0  0  0  0  0  0
  -24.6260  -11.7350   20.8650 C   0  0  0  0  0  0  0  0  0  0  0  0
  -26.2850  -12.9680   20.2970 N   0  0  0  0  0  0  0  0  0  0  0  0
  -25.9200  -11.6870   20.5670 N   0  0  0  0  0  0  0  0  0  0  0  0
  -23.8850  -10.4790   21.0500 C   0  0  0  0  0  0  0  0  0  0  0  0
  -24.3000   -9.5070   21.9860 C   0  0  0  0  0  3  0  0  0  0  0  0
  -23.5610   -8.3160   22.1590 C   0  0  0  0  0  3  0  0  0  0  0  0
  -22.3890   -8.0920   21.3980 C   0  0  0  0  0  0  0  0  0  0  0  0
  -21.9910   -9.0520   20.4520 C   0  0  0  0  0  3  0  0  0  0  0  0
  -22.7330  -10.2340   20.2780 C   0  0  0  0  0  3  0  0  0  0  0  0
  -21.6210   -6.9560   21.4820 O   0  0  0  0  0  0  0  0  0  0  0  0
  -21.5570   -6.2130   22.6340 C   0  0  0  0  0  0  0  0  0  0  0  0
  -21.1520   -6.7800   23.8630 C   0  0  0  0  0  3  0  0  0  0  0  0
  -21.0320   -5.9660   25.0080 C   0  0  0  0  0  3  0  0  0  0  0  0
  -21.3050   -4.5880   24.9250 C   0  0  0  0  0  0  0  0  0  0  0  0
  -21.7030   -4.0210   23.7010 C   0  0  0  0  0  3  0  0  0  0  0  0
  -21.8250   -4.8320   22.5600 C   0  0  0  0  0  0  0  0  0  0  0  0
  -22.1880   -4.2760   21.3780 F   0  0  0  0  0  0  0  0  0  0  0  0
  -21.1820   -3.8050   26.0220 F   0  0  0  0  0  0  0  0  0  0  0  0
  -22.7790  -13.5810   21.1440 C   0  0  0  0  0  0  0  0  0  0  0  0
  -22.0360  -12.8990   22.0090 N   0  0  0  0  0  0  0  0  0  0  0  0
  -22.3570  -14.6060   20.6110 O   0  0  0  0  0  0  0  0  0  0  0  0
  -22.3890  -12.0700   22.4620 H   0  0  0  0  0  0  0  0  0  0  0  0
  -21.0990  -13.2130   22.2220 H   0  0  0  0  0  0  0  0  0  0  0  0
  -25.4350  -15.2240   20.3600 N   0  0  0  0  0  0  0  0  0  0  0  0
  -24.6900  -15.8980   20.4990 H   0  0  0  0  0  0  0  0  0  0  0  0
  -26.3080  -15.6500   20.0740 H   0  0  0  0  0  0  0  0  0  0  0  0
  -32.2630  -25.0790   20.5380 C   0  0  0  0  0  1  0  0  0  0  0  0
  -30.8730  -24.8870   20.2690 O   0  0  0  0  0  0  0  0  0  0  0  0
  -27.9810  -24.6270   19.6840 C   0  0  0  0  0  3  0  0  0  0  0  0
  -28.2780  -26.1510   19.8510 O   0  0  0  0  0  0  0  0  0  0  0  0
  -24.6780  -31.7490   23.0330 C   0  0  0  0  0  0  0  0  0  0  0  0
  -27.2150  -27.1310   19.8260 C   0  0  0  0  0  0  0  0  0  0  0  0
  -23.4480  -30.3820   21.3910 C   0  0  0  0  0  3  0  0  0  0  0  0
  -24.8730  -28.8570   19.8920 C   0  0  0  0  0  0  0  0  0  0  0  0
  -25.9930  -30.6740   21.1690 C   0  0  0  0  0  2  0  0  0  0  0  0
  -26.0630  -29.2980   20.4830 C   0  0  0  0  0  0  0  0  0  0  0  0
  -27.2340  -28.4500   20.4360 C   0  0  0  0  0  3  0  0  0  0  0  0
  -25.9960  -26.7980   19.1930 C   0  0  0  0  0  3  0  0  0  0  0  0
  -24.8520  -27.6220   19.2310 C   0  0  0  0  0  3  0  0  0  0  0  0
  -23.6410  -29.7440   19.9890 C   0  0  0  0  0  2  0  0  0  0  0  0
  -24.7270  -30.9530   21.9200 N   0  0  0  0  0  0  0  0  0  0  0  0
  -23.6030  -32.0120   23.5950 O   0  0  0  0  0  0  0  0  0  0  0  0
  -22.8010  -29.3440   22.3430 C   0  0  0  0  0  0  0  0  0  0  0  0
  -21.4680  -29.1830   22.2620 N   0  0  0  0  0  0  0  0  0  0  0  0
  -23.5000  -28.6920   23.1230 O   0  0  0  0  0  0  0  0  0  0  0  0
  -20.9590  -29.7620   21.6090 H   0  0  0  0  0  0  0  0  0  0  0  0
  -18.1010  -27.9890   22.8590 C   0  0  0  0  0  0  0  0  0  0  0  0
  -20.6710  -28.2270   23.0340 C   0  0  0  0  0  3  0  0  0  0  0  0
  -20.7400  -26.8130   22.4110 C   0  0  0  0  0  2  0  0  0  0  0  0
  -19.5970  -26.5300   21.4300 C   0  0  0  0  0  2  0  0  0  0  0  0
  -18.2420  -26.6610   22.1320 C   0  0  0  0  0  2  0  0  0  0  0  0
  -19.2410  -28.7300   23.2680 C   0  0  0  0  0  0  0  0  0  0  0  0
  -19.0520  -29.9720   23.9120 C   0  0  0  0  0  3  0  0  0  0  0  0
  -17.7570  -30.4730   24.1470 C   0  0  0  0  0  3  0  0  0  0  0  0
  -16.6340  -29.7280   23.7510 C   0  0  0  0  0  3  0  0  0  0  0  0
  -16.8060  -28.4880   23.1120 C   0  0  0  0  0  3  0  0  0  0  0  0
  -25.9670  -32.3790   23.6430 C   0  0  0  0  0  3  0  0  0  0  0  0
  -25.6430  -33.7550   24.0510 N   0  0  0  0  0  0  0  0  0  0  0  0
  -25.9280  -34.8520   23.3360 C   0  0  0  0  0  0  0  0  0  0  0  0
  -26.5580  -34.8120   22.2750 O   0  0  0  0  0  0  0  0  0  0  0  0
  -25.0790  -33.8580   24.8820 H   0  0  0  0  0  0  0  0  0  0  0  0
  -24.1540  -36.6280   23.1430 C   0  0  0  0  0  1  0  0  0  0  0  0
  -25.4350  -36.2060   23.8810 C   0  0  0  0  0  3  0  0  0  0  0  0
  -27.5920  -37.0880   24.6560 C   0  0  0  0  0  1  0  0  0  0  0  0
  -26.4420  -37.2860   23.7790 N   0  0  0  0  0  0  0  0  0  0  0  0
  -26.0260  -38.1860   24.0050 H   0  0  0  0  0  0  0  0  0  0  0  0
  -26.5380  -31.5600   24.8660 C   0  0  1  0  0  0  0  0  0  0  0  0
  -25.4900  -31.2640   25.9630 C   0  0  0  0  0  1  0  0  0  0  0  0
  -27.1190  -30.2060   24.3960 C   0  0  0  0  0  1  0  0  0  0  0  0
  -27.7050  -32.3370   25.5170 C   0  0  0  0  0  1  0  0  0  0  0  0
  2  7  1  0
  3  4  1  0
  3  2  1  0
  5  4  1  0
  5 24  1  0
  5  6  1  0
  7  1  1  0
  7  6  1  0
  8  1  2  0
  9 10  1  0
 10 50  1  0
 10 17  2  0
 11 18  1  0
 12 19  1  0
 13 15  2  0
 14 12  1  0
 14 20  1  0
 16  9  1  0
 16 11  2  0
 18 17  1  0
 19 11  1  0
 19 13  1  0
 20  1  1  0
 20 15  1  0
 21 22  2  0
 22 41  1  0
 23 22  1  0
 23 26  1  0
 24 21  1  0
 24 25  1  0
 25 23  2  0
 26 27  1  0
 27 28  2  0
 29 32  1  0
 29 28  1  0
 30 29  2  0
 31 30  1  0
 31 26  2  0
 32 33  1  0
 33 34  1  0
 34 35  2  0
 36 35  1  0
 36 40  1  0
 37 36  2  0
 38 33  2  0
 38 37  1  0
 39 38  1  0
 41 42  1  0
 42 45  1  0
 42 44  1  0
 43 41  2  0
 46 47  1  0
 46 21  1  0
 48 46  1  0
 50 49  1  0
 51 52  1  0
 51  9  2  0
 53 64  2  0
 54 52  1  0
 54 59  1  0
 55 63  1  0
 55 65  1  0
 56 62  1  0
 56 58  1  0
 57 63  1  0
 58 57  1  0
 59 58  2  0
 60 61  1  0
 60 54  2  0
 61 56  2  0
 62 55  1  0
 63 53  1  0
 65 67  2  0
 66 65  1  0
 68 66  1  0
 69 78  2  0
 69 74  1  0
 70 66  1  0
 70 74  1  0
 71 70  1  0
 72 73  1  0
 72 71  1  0
 73 69  1  0
 74 75  2  0
 75 76  1  0
 77 76  2  0
 78 77  1  0
 79 53  1  0
 79 80  1  0
 79 89  1  0
 80 83  1  0
 81 85  1  0
 81 80  1  0
 82 81  2  0
 85 84  1  0
 87 85  1  0
 87 88  1  0
 87 86  1  0
 89 92  1  1
 89 90  1  0
 91 89  1  0
M  ISO  4   1 100  20 100  51 101  52 101
M  END
>  <TORSDO>  (54) 
F 17

>  <SCORE>  (54) 
-14.217

>  <name>  (54) 
53

>  <ligand_id>  (54) 
53

>  <original_smiles>  (54) 
[H]c1c([H])c([H])c2c(c1[H])C([H])([H])C([H])([H])C([H])([H])C2([H])N([H])C(=O)C1([H])N(C(=O)C([H])(N([H])C(=O)C([H])(N([H])C([H])([H])[H])C([H])([H])[H])C(C([H])([H])[H])(C([H])([H])[H])C([H])([H])[H])C([H])([H])c2c([H])c(OC([H])([H])c3nc(N4C([H])([H])C([H])([H])N(C(=O)N5C([H])([H])C([H])([H])C([H])([H])C([H])(n6nc(-c7c([H])c([H])c(Oc8c([H])c([H])c(F)c([H])c8F)c([H])c7[H])c(C(=O)N([H])[H])c6N([H])[H])C5([H])[H])C([H])([H])C4([H])[H])nnc3OC([H])([H])[H])c([H])c([H])c2C1([H])[H]

>  <smiles>  (54) 
[H]c1c([H])c([H])c2c(c1[H])C([H])([H])C([H])([H])C([H])([H])C2([H])N([H])C(=O)C1([H])N(C(=O)C([H])(N([H])C(=O)C([H])(N([H])C([H])([H])[H])C([H])([H])[H])C(C([H])([H])[H])(C([H])([H])[H])C([H])([H])[H])C([H])([H])c2c([H])c(OC([H])([H])c3nc(N4C([H])([H])C([H])([H])N(C(=O)N5C([H])([H])C([H])([H])C([H])([H])C([H])(n6nc(-c7c([H])c([H])c(Oc8c([H])c([H])c(F)c([H])c8F)c([H])c7[H])c(C(=O)N([H])[H])c6N([H])[H])C5([H])[H])C([H])([H])C4([H])[H])nnc3OC([H])([H])[H])c([H])c([H])c2C1([H])[H]

$$$$
54:0:0
     RDKit          3D

103113  0  0  1  0  0  0  0  0999 V2000
  -30.2690  -21.9800   20.7780 C   0  0  0  0  0  0  0  0  0  0  0  0
  -30.6980  -20.6250   20.9630 C   0  0  0  0  0  0  0  0  0  0  0  0
  -30.6850  -22.9170   21.7700 C   0  0  0  0  0  0  0  0  0  0  0  0
  -31.9230  -21.3000   22.7660 C   0  0  0  0  0  0  0  0  0  0  0  0
  -31.5380  -20.3200   21.9770 N   0  0  0  0  0  0  0  0  0  0  0  0
  -31.5430  -22.5480   22.7310 N   0  0  0  0  0  0  0  0  0  0  0  0
  -32.8870  -21.0300   23.6820 N   0  0  0  0  0  0  0  0  0  0  0  0
  -32.9110  -20.0900   24.0470 H   0  0  0  0  0  0  0  0  0  0  0  0
  -33.0390  -21.7640   24.3610 H   0  0  0  0  0  0  0  0  0  0  0  0
  -30.3850  -14.2070   20.1870 C   0  0  0  0  0  0  0  0  0  0  0  0
  -30.0000  -12.0380   19.0810 C   0  0  0  0  0  2  0  0  0  0  0  0
  -29.0030  -12.2480   17.9280 C   0  0  0  0  0  2  0  0  0  0  0  0
  -27.5600  -12.0650   18.4390 C   0  0  0  0  0  2  0  0  0  0  0  0
  -27.2720  -12.8880   19.7280 C   0  0  0  0  0  3  0  0  0  0  0  0
  -28.4040  -12.7300   20.7700 C   0  0  0  0  0  2  0  0  0  0  0  0
  -29.6830  -13.0390   20.1090 N   0  0  0  0  0  0  0  0  0  0  0  0
  -31.5230  -14.3310   19.7360 O   0  0  0  0  0  0  0  0  0  0  0  0
  -30.4140  -18.1500   20.1280 C   0  0  0  0  0  0  0  0  0  0  0  0
  -30.2360  -19.5020   20.0850 C   0  0  0  0  0  3  0  0  0  0  0  0
  -29.8080  -17.2530   19.0600 C   0  0  0  0  0  2  0  0  0  0  0  0
  -31.1680  -17.3040   21.1530 C   0  0  0  0  0  2  0  0  0  0  0  0
  -28.9580  -16.1160   19.6720 C   0  0  0  0  0  2  0  0  0  0  0  0
  -30.2940  -16.1380   21.7040 C   0  0  0  0  0  2  0  0  0  0  0  0
  -29.7160  -15.3000   20.6390 N   0  0  0  0  0  0  0  0  0  0  0  0
  -24.9040  -13.4100   20.5780 C   0  0  0  0  0  0  0  0  0  0  0  0
  -23.8860  -12.5940   21.0010 C   0  0  0  0  0  0  0  0  0  0  0  0
  -24.3930  -11.2620   20.9380 C   0  0  0  0  0  0  0  0  0  0  0  0
  -25.9640  -12.5660   20.2860 N   0  0  0  0  0  0  0  0  0  0  0  0
  -25.6640  -11.2700   20.5590 N   0  0  0  0  0  0  0  0  0  0  0  0
  -23.7190   -9.9750   21.1620 C   0  0  0  0  0  0  0  0  0  0  0  0
  -24.2100   -9.0440   22.1050 C   0  0  0  0  0  3  0  0  0  0  0  0
  -23.5420   -7.8170   22.3120 C   0  0  0  0  0  3  0  0  0  0  0  0
  -22.3670   -7.5190   21.5790 C   0  0  0  0  0  0  0  0  0  0  0  0
  -21.8950   -8.4400   20.6280 C   0  0  0  0  0  3  0  0  0  0  0  0
  -22.5630   -9.6580   20.4190 C   0  0  0  0  0  3  0  0  0  0  0  0
  -21.6620   -6.3460   21.6990 O   0  0  0  0  0  0  0  0  0  0  0  0
  -21.6490   -5.6340   22.8700 C   0  0  0  0  0  0  0  0  0  0  0  0
  -21.1760   -6.1900   24.0790 C   0  0  0  0  0  3  0  0  0  0  0  0
  -21.1170   -5.3970   25.2440 C   0  0  0  0  0  3  0  0  0  0  0  0
  -21.5210   -4.0490   25.1970 C   0  0  0  0  0  0  0  0  0  0  0  0
  -21.9880   -3.4910   23.9940 C   0  0  0  0  0  3  0  0  0  0  0  0
  -22.0490   -4.2820   22.8330 C   0  0  0  0  0  0  0  0  0  0  0  0
  -22.4830   -3.7370   21.6720 F   0  0  0  0  0  0  0  0  0  0  0  0
  -21.4520   -3.2860   26.3120 F   0  0  0  0  0  0  0  0  0  0  0  0
  -22.4930  -13.0230   21.3550 C   0  0  0  0  0  0  0  0  0  0  0  0
  -21.8360  -12.2990   22.2560 N   0  0  0  0  0  0  0  0  0  0  0  0
  -21.9940  -14.0370   20.8680 O   0  0  0  0  0  0  0  0  0  0  0  0
  -22.2500  -11.4790   22.6710 H   0  0  0  0  0  0  0  0  0  0  0  0
  -20.9040  -12.5800   22.5310 H   0  0  0  0  0  0  0  0  0  0  0  0
  -25.0090  -14.7880   20.4000 N   0  0  0  0  0  0  0  0  0  0  0  0
  -24.2220  -15.4060   20.5640 H   0  0  0  0  0  0  0  0  0  0  0  0
  -25.8200  -15.2650   20.0220 H   0  0  0  0  0  0  0  0  0  0  0  0
  -29.5060  -24.8380   23.0800 C   0  0  0  0  0  2  0  0  0  0  0  0
  -30.3640  -24.3880   21.9130 C   0  0  0  0  0  3  0  0  0  0  0  0
  -29.0570  -25.1170   21.6690 C   0  0  0  0  0  3  0  0  0  0  0  0
  -29.0750  -26.5440   21.1450 C   0  0  0  0  0  2  0  0  0  0  0  0
  -28.3510  -26.5830   19.9120 O   0  0  0  0  0  0  0  0  0  0  0  0
  -24.5030  -31.6430   23.0830 C   0  0  0  0  0  0  0  0  0  0  0  0
  -27.1990  -27.3320   19.9170 C   0  0  0  0  0  0  0  0  0  0  0  0
  -23.3070  -30.2710   21.3940 C   0  0  0  0  0  3  0  0  0  0  0  0
  -24.7820  -28.7920   19.9270 C   0  0  0  0  0  0  0  0  0  0  0  0
  -25.8240  -30.6750   21.2080 C   0  0  0  0  0  2  0  0  0  0  0  0
  -25.9270  -29.3220   20.5390 C   0  0  0  0  0  0  0  0  0  0  0  0
  -27.1370  -28.6070   20.5220 C   0  0  0  0  0  3  0  0  0  0  0  0
  -26.0460  -26.8110   19.2890 C   0  0  0  0  0  3  0  0  0  0  0  0
  -24.8380  -27.5390   19.2940 C   0  0  0  0  0  3  0  0  0  0  0  0
  -23.5290  -29.6360   19.9930 C   0  0  0  0  0  2  0  0  0  0  0  0
  -24.5580  -30.8760   21.9570 N   0  0  0  0  0  0  0  0  0  0  0  0
  -23.4190  -31.8970   23.6300 O   0  0  0  0  0  0  0  0  0  0  0  0
  -22.6730  -29.2160   22.3310 C   0  0  0  0  0  0  0  0  0  0  0  0
  -21.3500  -29.0350   22.2040 N   0  0  0  0  0  0  0  0  0  0  0  0
  -23.3620  -28.5710   23.1190 O   0  0  0  0  0  0  0  0  0  0  0  0
  -20.8580  -29.6200   21.5450 H   0  0  0  0  0  0  0  0  0  0  0  0
  -17.9770  -27.8320   22.6820 C   0  0  0  0  0  0  0  0  0  0  0  0
  -20.5370  -28.0690   22.9440 C   0  0  0  0  0  3  0  0  0  0  0  0
  -20.6320  -26.6600   22.3130 C   0  0  0  0  0  2  0  0  0  0  0  0
  -19.5210  -26.3840   21.2930 C   0  0  0  0  0  2  0  0  0  0  0  0
  -18.1440  -26.5080   21.9550 C   0  0  0  0  0  2  0  0  0  0  0  0
  -19.1040  -28.5720   23.1280 C   0  0  0  0  0  0  0  0  0  0  0  0
  -18.8970  -29.8150   23.7650 C   0  0  0  0  0  3  0  0  0  0  0  0
  -17.5990  -30.3200   23.9580 C   0  0  0  0  0  3  0  0  0  0  0  0
  -16.4860  -29.5750   23.5280 C   0  0  0  0  0  3  0  0  0  0  0  0
  -16.6780  -28.3340   22.8920 C   0  0  0  0  0  3  0  0  0  0  0  0
  -25.7850  -32.2620   23.7210 C   0  0  0  0  0  3  0  0  0  0  0  0
  -25.4780  -33.6520   24.0780 N   0  0  0  0  0  0  0  0  0  0  0  0
  -25.7990  -34.7170   23.3320 C   0  0  0  0  0  0  0  0  0  0  0  0
  -26.4570  -34.6290   22.2930 O   0  0  0  0  0  0  0  0  0  0  0  0
  -24.9010  -33.8000   24.8950 H   0  0  0  0  0  0  0  0  0  0  0  0
  -24.0590  -36.5010   23.0120 C   0  0  0  0  0  1  0  0  0  0  0  0
  -25.3060  -36.0950   23.8120 C   0  0  0  0  0  3  0  0  0  0  0  0
  -27.4380  -36.9860   24.6420 C   0  0  0  0  0  1  0  0  0  0  0  0
  -26.3330  -37.1540   23.7040 N   0  0  0  0  0  0  0  0  0  0  0  0
  -25.9190  -38.0720   23.8610 H   0  0  0  0  0  0  0  0  0  0  0  0
  -26.3060  -31.4620   24.9760 C   0  0  1  0  0  0  0  0  0  0  0  0
  -25.2120  -31.1930   26.0370 C   0  0  0  0  0  1  0  0  0  0  0  0
  -26.9030  -30.1050   24.5410 C   0  0  0  0  0  1  0  0  0  0  0  0
  -27.4560  -32.2460   25.6530 C   0  0  0  0  0  1  0  0  0  0  0  0
  -29.4150  -22.4060   19.5710 C   0  0  0  0  0  2  0  0  0  0  0  0
  -30.2170  -22.6860   18.2720 C   0  0  0  0  0  2  0  0  0  0  0  0
  -29.9170  -23.1760   15.8240 C   0  0  0  0  0  1  0  0  0  0  0  0
  -29.3030  -23.0510   17.1610 N   0  0  0  0  0  4  0  0  0  0  0  0
  -28.5680  -22.3680   17.0960 H   0  0  0  0  0  0  0  0  0  0  0  0
  -28.8800  -23.9400   17.3760 H   0  0  0  0  0  0  0  0  0  0  0  0
  1  2  2  0
  1  3  1  0
  2  5  1  0
  3  6  2  0
  4  7  1  0
  5  4  2  0
  6  4  1  0
  7  8  1  0
  7  9  1  0
 10 24  1  0
 11 16  1  0
 12 13  1  0
 12 11  1  0
 14 13  1  0
 14 28  1  0
 14 15  1  0
 16 10  1  0
 16 15  1  0
 17 10  2  0
 18 21  1  0
 19 18  2  0
 19  2  1  0
 20 22  1  0
 20 18  1  0
 21 23  1  0
 22 24  1  0
 24 23  1  0
 25 26  2  0
 26 45  1  0
 27 26  1  0
 27 30  1  0
 28 29  1  0
 28 25  1  0
 29 27  2  0
 30 31  1  0
 31 32  2  0
 33 36  1  0
 33 32  1  0
 34 33  2  0
 35 34  1  0
 35 30  2  0
 36 37  1  0
 37 38  1  0
 38 39  2  0
 40 39  1  0
 40 44  1  0
 41 40  2  0
 42 37  2  0
 42 41  1  0
 43 42  1  0
 45 46  1  0
 46 49  1  0
 46 48  1  0
 47 45  2  0
 50 51  1  0
 50 25  1  0
 52 50  1  0
 54  3  1  0
 54 53  1  0
 55 56  1  0
 55 54  1  0
 55 53  1  0
 57 59  1  0
 57 56  1  0
 58 69  2  0
 59 64  1  0
 60 68  1  0
 60 70  1  0
 61 67  1  0
 61 63  1  0
 62 68  1  0
 63 62  1  0
 64 63  2  0
 65 66  1  0
 65 59  2  0
 66 61  2  0
 67 60  1  0
 68 58  1  0
 70 72  2  0
 71 70  1  0
 73 71  1  0
 74 83  2  0
 74 79  1  0
 75 71  1  0
 75 79  1  0
 76 75  1  0
 77 78  1  0
 77 76  1  0
 78 74  1  0
 79 80  2  0
 80 81  1  0
 82 81  2  0
 83 82  1  0
 84 58  1  0
 84 85  1  0
 84 94  1  0
 85 88  1  0
 86 90  1  0
 86 85  1  0
 87 86  2  0
 90 89  1  0
 92 90  1  0
 92 93  1  0
 92 91  1  0
 94 97  1  1
 94 95  1  0
 96 94  1  0
 98  1  1  0
 99 98  1  0
100101  1  0
101103  1  0
101 99  1  0
102101  1  0
M  ISO  4  10 100  24 100  56 101  57 101
M  END
>  <TORSDO>  (55) 
F 21

>  <SCORE>  (55) 
-12.622

>  <name>  (55) 
54

>  <ligand_id>  (55) 
54

>  <original_smiles>  (55) 
[H]C(=C1C([H])([H])C([H])([H])N(C(=O)N2C([H])([H])C([H])([H])C([H])([H])C([H])(n3nc(-c4c([H])c([H])c(Oc5c([H])c([H])c(F)c([H])c5F)c([H])c4[H])c(C(=O)N([H])[H])c3N([H])[H])C2([H])[H])C([H])([H])C1([H])[H])c1nc(N([H])[H])nc(C2([H])C([H])([H])C2([H])C([H])([H])Oc2c([H])c([H])c3c(c2[H])C([H])([H])N(C(=O)C([H])(N([H])C(=O)C([H])(N([H])C([H])([H])[H])C([H])([H])[H])C(C([H])([H])[H])(C([H])([H])[H])C([H])([H])[H])C([H])(C(=O)N([H])C2([H])c4c([H])c([H])c([H])c([H])c4C([H])([H])C([H])([H])C2([H])[H])C3([H])[H])c1C([H])([H])C([H])([H])[N+]([H])([H])C([H])([H])[H]

>  <smiles>  (55) 
[H]C(=C1C([H])([H])C([H])([H])N(C(=O)N2C([H])([H])C([H])([H])C([H])([H])C([H])(n3nc(-c4c([H])c([H])c(Oc5c([H])c([H])c(F)c([H])c5F)c([H])c4[H])c(C(=O)N([H])[H])c3N([H])[H])C2([H])[H])C([H])([H])C1([H])[H])c1nc(N([H])[H])nc(C2([H])C([H])([H])C2([H])C([H])([H])Oc2c([H])c([H])c3c(c2[H])C([H])([H])N(C(=O)C([H])(N([H])C(=O)C([H])(N([H])C([H])([H])[H])C([H])([H])[H])C(C([H])([H])[H])(C([H])([H])[H])C([H])([H])[H])C([H])(C(=O)N([H])C2([H])c4c([H])c([H])c([H])c([H])c4C([H])([H])C([H])([H])C2([H])[H])C3([H])[H])c1C([H])([H])C([H])([H])[N+]([H])([H])C([H])([H])[H]

$$$$
55:0:0
     RDKit          3D

 93102  0  0  1  0  0  0  0  0999 V2000
  -30.6770  -14.8540   20.4030 C   0  0  0  0  0  0  0  0  0  0  0  0
  -30.3790  -12.5750   19.4020 C   0  0  0  0  0  2  0  0  0  0  0  0
  -29.4680  -12.5980   18.1600 C   0  0  0  0  0  2  0  0  0  0  0  0
  -28.0000  -12.4150   18.5810 C   0  0  0  0  0  2  0  0  0  0  0  0
  -27.6040  -13.3290   19.7720 C   0  0  0  0  0  3  0  0  0  0  0  0
  -28.6560  -13.3150   20.9040 C   0  0  0  0  0  2  0  0  0  0  0  0
  -29.9390  -13.6830   20.2960 N   0  0  0  0  0  0  0  0  0  0  0  0
  -31.8840  -14.7570   20.1650 O   0  0  0  0  0  0  0  0  0  0  0  0
  -29.3740  -21.5660   19.3230 C   0  0  0  0  0  3  0  0  0  0  0  0
  -29.0660  -22.9750   19.4190 C   0  0  0  0  0  0  0  0  0  0  0  0
  -28.5660  -23.5040   20.6440 C   0  0  0  0  0  0  0  0  0  0  0  0
  -29.1610  -20.6770   20.4200 C   0  0  0  0  0  0  0  0  0  0  0  0
  -30.6960  -18.7710   20.9310 C   0  0  0  0  0  2  0  0  0  0  0  0
  -28.4240  -18.2300   20.7240 C   0  0  0  0  0  2  0  0  0  0  0  0
  -31.1280  -17.3090   20.5100 C   0  0  0  0  0  2  0  0  0  0  0  0
  -28.7550  -16.6840   20.4150 C   0  0  0  0  0  2  0  0  0  0  0  0
  -28.4080  -22.5900   21.6650 N   0  0  0  0  0  0  0  0  0  0  0  0
  -28.6880  -21.2550   21.5680 N   0  0  0  0  0  0  0  0  0  0  0  0
  -29.4380  -19.2400   20.3450 N   0  0  0  0  0  0  0  0  0  0  0  0
  -30.1520  -16.1640   20.5710 N   0  0  0  0  0  0  0  0  0  0  0  0
  -25.2120  -13.9160   20.4640 C   0  0  0  0  0  0  0  0  0  0  0  0
  -24.1440  -13.1430   20.8260 C   0  0  0  0  0  0  0  0  0  0  0  0
  -24.6120  -11.7930   20.8190 C   0  0  0  0  0  0  0  0  0  0  0  0
  -26.2620  -13.0380   20.2550 N   0  0  0  0  0  0  0  0  0  0  0  0
  -25.9080  -11.7570   20.5340 N   0  0  0  0  0  0  0  0  0  0  0  0
  -23.8850  -10.5310   21.0070 C   0  0  0  0  0  0  0  0  0  0  0  0
  -24.3020   -9.5730   21.9570 C   0  0  0  0  0  3  0  0  0  0  0  0
  -23.5730   -8.3770   22.1340 C   0  0  0  0  0  3  0  0  0  0  0  0
  -22.4130   -8.1320   21.3610 C   0  0  0  0  0  0  0  0  0  0  0  0
  -22.0160   -9.0780   20.4010 C   0  0  0  0  0  3  0  0  0  0  0  0
  -22.7460  -10.2650   20.2220 C   0  0  0  0  0  3  0  0  0  0  0  0
  -21.6560   -6.9880   21.4480 O   0  0  0  0  0  0  0  0  0  0  0  0
  -21.5830   -6.2600   22.6090 C   0  0  0  0  0  0  0  0  0  0  0  0
  -21.1290   -6.8300   23.8190 C   0  0  0  0  0  3  0  0  0  0  0  0
  -21.0040   -6.0290   24.9710 C   0  0  0  0  0  3  0  0  0  0  0  0
  -21.3210   -4.6580   24.9140 C   0  0  0  0  0  0  0  0  0  0  0  0
  -21.7670   -4.0880   23.7090 C   0  0  0  0  0  3  0  0  0  0  0  0
  -21.8950   -4.8870   22.5590 C   0  0  0  0  0  0  0  0  0  0  0  0
  -22.3050   -4.3270   21.3950 F   0  0  0  0  0  0  0  0  0  0  0  0
  -21.1930   -3.8850   26.0180 F   0  0  0  0  0  0  0  0  0  0  0  0
  -22.7410  -13.6200   21.0630 C   0  0  0  0  0  0  0  0  0  0  0  0
  -22.0020  -12.9380   21.9290 N   0  0  0  0  0  0  0  0  0  0  0  0
  -22.3110  -14.6340   20.5160 O   0  0  0  0  0  0  0  0  0  0  0  0
  -22.3640  -12.1180   22.3930 H   0  0  0  0  0  0  0  0  0  0  0  0
  -21.0590  -13.2400   22.1330 H   0  0  0  0  0  0  0  0  0  0  0  0
  -25.3710  -15.2850   20.2670 N   0  0  0  0  0  0  0  0  0  0  0  0
  -24.5920  -15.9290   20.3470 H   0  0  0  0  0  0  0  0  0  0  0  0
  -26.2080  -15.7180   19.9040 H   0  0  0  0  0  0  0  0  0  0  0  0
  -29.2210  -23.8770   18.2090 C   0  0  0  0  0  3  0  0  0  0  0  0
  -28.0530  -23.9890   17.5780 F   0  0  0  0  0  0  0  0  0  0  0  0
  -30.1350  -23.4010   17.3620 F   0  0  0  0  0  0  0  0  0  0  0  0
  -27.9160  -24.9680   20.8930 C   0  0  0  0  0  2  0  0  0  0  0  0
  -28.3170  -26.3080   20.2920 O   0  0  0  0  0  0  0  0  0  0  0  0
  -24.6670  -31.9090   23.2430 C   0  0  0  0  0  0  0  0  0  0  0  0
  -27.2760  -27.2760   20.2240 C   0  0  0  0  0  0  0  0  0  0  0  0
  -23.4750  -30.5040   21.6030 C   0  0  0  0  0  3  0  0  0  0  0  0
  -24.9360  -28.9520   20.1800 C   0  0  0  0  0  0  0  0  0  0  0  0
  -26.0230  -30.8060   21.4380 C   0  0  0  0  0  2  0  0  0  0  0  0
  -26.1070  -29.4210   20.7900 C   0  0  0  0  0  0  0  0  0  0  0  0
  -27.2850  -28.5970   20.8010 C   0  0  0  0  0  3  0  0  0  0  0  0
  -26.0920  -26.9010   19.5540 C   0  0  0  0  0  3  0  0  0  0  0  0
  -24.9370  -27.7020   19.5470 C   0  0  0  0  0  3  0  0  0  0  0  0
  -23.6990  -29.8300   20.2240 C   0  0  0  0  0  2  0  0  0  0  0  0
  -24.7410  -31.0920   22.1500 N   0  0  0  0  0  0  0  0  0  0  0  0
  -23.5800  -32.1850   23.7710 O   0  0  0  0  0  0  0  0  0  0  0  0
  -22.8080  -29.4880   22.5630 C   0  0  0  0  0  0  0  0  0  0  0  0
  -21.4810  -29.3070   22.4330 N   0  0  0  0  0  0  0  0  0  0  0  0
  -23.4840  -28.8660   23.3880 O   0  0  0  0  0  0  0  0  0  0  0  0
  -20.9940  -29.8620   21.7430 H   0  0  0  0  0  0  0  0  0  0  0  0
  -18.1040  -28.1020   22.9320 C   0  0  0  0  0  0  0  0  0  0  0  0
  -20.6620  -28.3690   23.2040 C   0  0  0  0  0  3  0  0  0  0  0  0
  -20.7670  -26.9360   22.6320 C   0  0  0  0  0  2  0  0  0  0  0  0
  -19.6670  -26.6080   21.6170 C   0  0  0  0  0  2  0  0  0  0  0  0
  -18.2850  -26.7520   22.2590 C   0  0  0  0  0  2  0  0  0  0  0  0
  -19.2210  -28.8680   23.3620 C   0  0  0  0  0  0  0  0  0  0  0  0
  -18.9960  -30.1310   23.9520 C   0  0  0  0  0  3  0  0  0  0  0  0
  -17.6900  -30.6280   24.1170 C   0  0  0  0  0  3  0  0  0  0  0  0
  -16.5880  -29.8580   23.7020 C   0  0  0  0  0  3  0  0  0  0  0  0
  -16.7970  -28.5970   23.1160 C   0  0  0  0  0  3  0  0  0  0  0  0
  -25.9430  -32.5490   23.8690 C   0  0  0  0  0  3  0  0  0  0  0  0
  -25.6230  -33.9450   24.2020 N   0  0  0  0  0  0  0  0  0  0  0  0
  -25.9330  -35.0020   23.4420 C   0  0  0  0  0  0  0  0  0  0  0  0
  -26.5890  -34.9060   22.4000 O   0  0  0  0  0  0  0  0  0  0  0  0
  -25.0370  -34.0920   25.0120 H   0  0  0  0  0  0  0  0  0  0  0  0
  -24.1770  -36.7770   23.1250 C   0  0  0  0  0  1  0  0  0  0  0  0
  -25.4400  -36.3860   23.9080 C   0  0  0  0  0  3  0  0  0  0  0  0
  -27.5820  -37.2990   24.6900 C   0  0  0  0  0  1  0  0  0  0  0  0
  -26.4580  -37.4510   23.7700 N   0  0  0  0  0  0  0  0  0  0  0  0
  -26.0450  -38.3670   23.9240 H   0  0  0  0  0  0  0  0  0  0  0  0
  -26.4610  -31.7790   25.1460 C   0  0  1  0  0  0  0  0  0  0  0  0
  -25.3660  -31.5370   26.2120 C   0  0  0  0  0  1  0  0  0  0  0  0
  -27.0520  -30.4040   24.7580 C   0  0  0  0  0  1  0  0  0  0  0  0
  -27.6050  -32.5810   25.8100 C   0  0  0  0  0  1  0  0  0  0  0  0
  1 20  1  0
  2  7  1  0
  3  4  1  0
  3  2  1  0
  5  4  1  0
  5 24  1  0
  5  6  1  0
  7  1  1  0
  7  6  1  0
  8  1  2  0
  9 10  2  0
  9 12  1  0
 10 11  1  0
 11 52  1  0
 11 17  2  0
 12 18  2  0
 15 20  1  0
 15 13  1  0
 16 20  1  0
 16 14  1  0
 18 17  1  0
 19 12  1  0
 19 14  1  0
 19 13  1  0
 21 22  2  0
 22 41  1  0
 23 22  1  0
 23 26  1  0
 24 21  1  0
 24 25  1  0
 25 23  2  0
 26 27  1  0
 27 28  2  0
 29 32  1  0
 29 28  1  0
 30 29  2  0
 31 30  1  0
 31 26  2  0
 32 33  1  0
 33 34  1  0
 34 35  2  0
 36 35  1  0
 36 40  1  0
 37 36  2  0
 38 33  2  0
 38 37  1  0
 39 38  1  0
 41 42  1  0
 42 45  1  0
 42 44  1  0
 43 41  2  0
 46 47  1  0
 46 21  1  0
 48 46  1  0
 49 10  1  0
 50 49  1  0
 51 49  1  0
 53 52  1  0
 54 65  2  0
 55 53  1  0
 55 60  1  0
 56 64  1  0
 56 66  1  0
 57 63  1  0
 57 59  1  0
 58 64  1  0
 59 60  2  0
 59 58  1  0
 61 55  2  0
 62 61  1  0
 62 57  2  0
 63 56  1  0
 64 54  1  0
 66 68  2  0
 67 66  1  0
 69 67  1  0
 70 79  2  0
 70 75  1  0
 71 67  1  0
 71 75  1  0
 72 71  1  0
 73 74  1  0
 73 72  1  0
 74 70  1  0
 75 76  2  0
 76 77  1  0
 78 77  2  0
 79 78  1  0
 80 54  1  0
 80 81  1  0
 80 90  1  0
 81 84  1  0
 82 86  1  0
 82 81  1  0
 83 82  2  0
 86 85  1  0
 88 86  1  0
 88 89  1  0
 88 87  1  0
 90 93  1  1
 90 91  1  0
 92 90  1  0
M  ISO  4   1 100  20 100  52 101  53 101
M  END
>  <TORSDO>  (56) 
F 17

>  <SCORE>  (56) 
-15.303

>  <name>  (56) 
55

>  <ligand_id>  (56) 
55

>  <original_smiles>  (56) 
[H]c1c([H])c([H])c2c(c1[H])C([H])([H])C([H])([H])C([H])([H])C2([H])N([H])C(=O)C1([H])N(C(=O)C([H])(N([H])C(=O)C([H])(N([H])C([H])([H])[H])C([H])([H])[H])C(C([H])([H])[H])(C([H])([H])[H])C([H])([H])[H])C([H])([H])c2c([H])c(OC([H])([H])c3nnc(N4C([H])([H])C([H])([H])N(C(=O)N5C([H])([H])C([H])([H])C([H])([H])C([H])(n6nc(-c7c([H])c([H])c(Oc8c([H])c([H])c(F)c([H])c8F)c([H])c7[H])c(C(=O)N([H])[H])c6N([H])[H])C5([H])[H])C([H])([H])C4([H])[H])c([H])c3C([H])(F)F)c([H])c([H])c2C1([H])[H]

>  <smiles>  (56) 
[H]c1c([H])c([H])c2c(c1[H])C([H])([H])C([H])([H])C([H])([H])C2([H])N([H])C(=O)C1([H])N(C(=O)C([H])(N([H])C(=O)C([H])(N([H])C([H])([H])[H])C([H])([H])[H])C(C([H])([H])[H])(C([H])([H])[H])C([H])([H])[H])C([H])([H])c2c([H])c(OC([H])([H])c3nnc(N4C([H])([H])C([H])([H])N(C(=O)N5C([H])([H])C([H])([H])C([H])([H])C([H])(n6nc(-c7c([H])c([H])c(Oc8c([H])c([H])c(F)c([H])c8F)c([H])c7[H])c(C(=O)N([H])[H])c6N([H])[H])C5([H])[H])C([H])([H])C4([H])[H])c([H])c3C([H])(F)F)c([H])c([H])c2C1([H])[H]

$$$$
56:0:0
     RDKit          3D

 93102  0  0  1  0  0  0  0  0999 V2000
  -28.6560  -22.9200   21.1480 C   0  0  0  0  0  2  0  0  0  0  0  0
  -30.1870  -23.7490   19.5520 C   0  0  0  0  0  2  0  0  0  0  0  0
  -29.2000  -24.2590   20.6110 C   0  0  0  0  0  3  0  0  0  0  0  0
  -29.8060  -21.8850   21.0380 C   0  0  0  0  0  3  0  0  0  0  0  0
  -32.1240  -22.6920   20.6770 C   0  0  0  0  0  1  0  0  0  0  0  0
  -30.7780  -22.4920   20.0860 N   0  0  2  0  0  4  0  0  0  0  0  0
  -30.8910  -21.8570   19.3090 H   0  0  0  0  0  0  0  0  0  0  0  0
  -28.0810  -25.2070   20.0840 C   0  0  0  0  0  2  0  0  0  0  0  0
  -28.3050  -26.6340   20.1870 O   0  0  0  0  0  0  0  0  0  0  0  0
  -24.5680  -31.8970   23.2400 C   0  0  0  0  0  0  0  0  0  0  0  0
  -27.1570  -27.4180   20.1390 C   0  0  0  0  0  0  0  0  0  0  0  0
  -23.3400  -30.4970   21.6160 C   0  0  0  0  0  3  0  0  0  0  0  0
  -24.7720  -28.9640   20.1640 C   0  0  0  0  0  0  0  0  0  0  0  0
  -25.8690  -30.8420   21.3910 C   0  0  0  0  0  2  0  0  0  0  0  0
  -25.9400  -29.4680   20.7500 C   0  0  0  0  0  0  0  0  0  0  0  0
  -27.1350  -28.7040   20.7370 C   0  0  0  0  0  3  0  0  0  0  0  0
  -25.9700  -26.9530   19.5180 C   0  0  0  0  0  3  0  0  0  0  0  0
  -24.7850  -27.7100   19.5370 C   0  0  0  0  0  3  0  0  0  0  0  0
  -23.5310  -29.8240   20.2300 C   0  0  0  0  0  2  0  0  0  0  0  0
  -24.6120  -31.0950   22.1390 N   0  0  0  0  0  0  0  0  0  0  0  0
  -23.4940  -32.1710   23.7910 O   0  0  0  0  0  0  0  0  0  0  0  0
  -22.6990  -29.4750   22.5830 C   0  0  0  0  0  0  0  0  0  0  0  0
  -21.3750  -29.2830   22.4650 N   0  0  0  0  0  0  0  0  0  0  0  0
  -23.3890  -28.8630   23.4020 O   0  0  0  0  0  0  0  0  0  0  0  0
  -20.8800  -29.8260   21.7720 H   0  0  0  0  0  0  0  0  0  0  0  0
  -18.0080  -28.0710   22.9760 C   0  0  0  0  0  0  0  0  0  0  0  0
  -20.5650  -28.3460   23.2440 C   0  0  0  0  0  3  0  0  0  0  0  0
  -20.6760  -26.9100   22.6810 C   0  0  0  0  0  2  0  0  0  0  0  0
  -19.5750  -26.5690   21.6740 C   0  0  0  0  0  2  0  0  0  0  0  0
  -18.1920  -26.7160   22.3140 C   0  0  0  0  0  2  0  0  0  0  0  0
  -19.1220  -28.8440   23.3970 C   0  0  0  0  0  0  0  0  0  0  0  0
  -18.8940  -30.1160   23.9690 C   0  0  0  0  0  3  0  0  0  0  0  0
  -17.5850  -30.6080   24.1300 C   0  0  0  0  0  3  0  0  0  0  0  0
  -16.4860  -29.8310   23.7240 C   0  0  0  0  0  3  0  0  0  0  0  0
  -16.6990  -28.5640   23.1510 C   0  0  0  0  0  3  0  0  0  0  0  0
  -25.8610  -32.5290   23.8460 C   0  0  0  0  0  3  0  0  0  0  0  0
  -26.4000  -31.7550   25.1090 C   0  0  1  0  0  0  0  0  0  0  0  0
  -25.3270  -31.5040   26.1940 C   0  0  0  0  0  1  0  0  0  0  0  0
  -26.9820  -30.3830   24.6930 C   0  0  0  0  0  1  0  0  0  0  0  0
  -27.5590  -32.5520   25.7560 C   0  0  0  0  0  1  0  0  0  0  0  0
  -25.5550  -33.9250   24.1850 N   0  0  0  0  0  0  0  0  0  0  0  0
  -25.8670  -34.9780   23.4180 C   0  0  0  0  0  0  0  0  0  0  0  0
  -26.5160  -34.8790   22.3740 O   0  0  0  0  0  0  0  0  0  0  0  0
  -24.9830  -34.0790   25.0030 H   0  0  0  0  0  0  0  0  0  0  0  0
  -24.1290  -36.7670   23.0960 C   0  0  0  0  0  1  0  0  0  0  0  0
  -25.3850  -36.3640   23.8880 C   0  0  0  0  0  3  0  0  0  0  0  0
  -27.5280  -37.2500   24.6910 C   0  0  0  0  0  1  0  0  0  0  0  0
  -26.4120  -37.4210   23.7640 N   0  0  0  0  0  0  0  0  0  0  0  0
  -26.0040  -38.3390   23.9220 H   0  0  0  0  0  0  0  0  0  0  0  0
  -29.2950  -20.4790   20.5740 C   0  0  0  0  0  2  0  0  0  0  0  0
  -31.6410  -17.5800   20.6040 C   0  0  0  0  0  2  0  0  0  0  0  0
  -31.3680  -19.0610   20.3340 C   0  0  0  0  0  2  0  0  0  0  0  0
  -29.3120  -18.0290   20.8620 C   0  0  0  0  0  2  0  0  0  0  0  0
  -30.2830  -16.9640   20.3000 C   0  0  0  0  0  3  0  0  0  0  0  0
  -30.0770  -19.2910   20.9890 N   0  0  0  0  0  0  0  0  0  0  0  0
  -30.7090  -14.5040   20.2750 C   0  0  0  0  0  0  0  0  0  0  0  0
  -30.3480  -12.3400   19.1610 C   0  0  0  0  0  2  0  0  0  0  0  0
  -29.4030  -12.5760   17.9650 C   0  0  0  0  0  2  0  0  0  0  0  0
  -27.9350  -12.4310   18.4130 C   0  0  0  0  0  2  0  0  0  0  0  0
  -27.6160  -13.2680   19.6810 C   0  0  0  0  0  3  0  0  0  0  0  0
  -28.6890  -13.0700   20.7820 C   0  0  0  0  0  2  0  0  0  0  0  0
  -30.0100  -13.3360   20.1910 N   0  0  0  0  0  0  0  0  0  0  0  0
  -31.8190  -14.6410   19.7570 O   0  0  0  0  0  0  0  0  0  0  0  0
  -30.0440  -15.5750   20.7570 N   0  0  0  0  0  0  0  0  0  0  0  0
  -29.1700  -15.3970   21.2290 H   0  0  0  0  0  0  0  0  0  0  0  0
  -25.2330  -13.8760   20.4320 C   0  0  0  0  0  0  0  0  0  0  0  0
  -24.1690  -13.1080   20.8150 C   0  0  0  0  0  0  0  0  0  0  0  0
  -24.6230  -11.7540   20.7720 C   0  0  0  0  0  0  0  0  0  0  0  0
  -26.2710  -12.9950   20.1810 N   0  0  0  0  0  0  0  0  0  0  0  0
  -25.9100  -11.7120   20.4460 N   0  0  0  0  0  0  0  0  0  0  0  0
  -23.8940  -10.4940   20.9700 C   0  0  0  0  0  0  0  0  0  0  0  0
  -24.3270   -9.5330   21.9100 C   0  0  0  0  0  3  0  0  0  0  0  0
  -23.6000   -8.3370   22.0980 C   0  0  0  0  0  3  0  0  0  0  0  0
  -22.4280   -8.0930   21.3430 C   0  0  0  0  0  0  0  0  0  0  0  0
  -22.0130   -9.0430   20.3940 C   0  0  0  0  0  3  0  0  0  0  0  0
  -22.7390  -10.2310   20.2060 C   0  0  0  0  0  3  0  0  0  0  0  0
  -21.6780   -6.9450   21.4350 O   0  0  0  0  0  0  0  0  0  0  0  0
  -21.6070   -6.2230   22.5990 C   0  0  0  0  0  0  0  0  0  0  0  0
  -21.1440   -6.7940   23.8040 C   0  0  0  0  0  3  0  0  0  0  0  0
  -21.0260   -5.9980   24.9600 C   0  0  0  0  0  3  0  0  0  0  0  0
  -21.3600   -4.6300   24.9110 C   0  0  0  0  0  0  0  0  0  0  0  0
  -21.8160   -4.0590   23.7110 C   0  0  0  0  0  3  0  0  0  0  0  0
  -21.9370   -4.8520   22.5570 C   0  0  0  0  0  0  0  0  0  0  0  0
  -22.3560   -4.2950   21.3950 F   0  0  0  0  0  0  0  0  0  0  0  0
  -21.2380   -3.8620   26.0180 F   0  0  0  0  0  0  0  0  0  0  0  0
  -22.7790  -13.5910   21.1110 C   0  0  0  0  0  0  0  0  0  0  0  0
  -22.0590  -12.8950   21.9830 N   0  0  0  0  0  0  0  0  0  0  0  0
  -22.3400  -14.6230   20.6050 O   0  0  0  0  0  0  0  0  0  0  0  0
  -22.4230  -12.0630   22.4240 H   0  0  0  0  0  0  0  0  0  0  0  0
  -21.1290  -13.2070   22.2210 H   0  0  0  0  0  0  0  0  0  0  0  0
  -25.4020  -15.2480   20.2580 N   0  0  0  0  0  0  0  0  0  0  0  0
  -24.6340  -15.9030   20.3610 H   0  0  0  0  0  0  0  0  0  0  0  0
  -26.2580  -15.6820   19.9380 H   0  0  0  0  0  0  0  0  0  0  0  0
  2  6  1  0
  2  3  1  0
  3  8  1  0
  3  1  1  0
  4 50  1  0
  4  1  1  0
  6  5  1  0
  6  4  1  0
  6  7  1  6
  8  9  1  0
 10 21  2  0
 11  9  1  0
 11 16  1  0
 12 20  1  0
 12 22  1  0
 13 19  1  0
 13 15  1  0
 14 20  1  0
 15 14  1  0
 16 15  2  0
 17 18  1  0
 17 11  2  0
 18 13  2  0
 19 12  1  0
 20 10  1  0
 22 24  2  0
 23 22  1  0
 25 23  1  0
 26 35  2  0
 26 31  1  0
 27 23  1  0
 27 31  1  0
 28 27  1  0
 29 30  1  0
 29 28  1  0
 30 26  1  0
 31 32  2  0
 32 33  1  0
 34 33  2  0
 35 34  1  0
 36 10  1  0
 36 41  1  0
 36 37  1  0
 37 40  1  1
 37 38  1  0
 39 37  1  0
 41 44  1  0
 42 46  1  0
 42 41  1  0
 43 42  2  0
 46 45  1  0
 48 46  1  0
 48 49  1  0
 48 47  1  0
 50 55  1  0
 52 51  1  0
 52 55  1  0
 53 55  1  0
 54 51  1  0
 54 64  1  0
 54 53  1  0
 56 64  1  0
 57 62  1  0
 58 59  1  0
 58 57  1  0
 60 59  1  0
 60 69  1  0
 60 61  1  0
 62 56  1  0
 62 61  1  0
 63 56  2  0
 64 65  1  0
 66 67  2  0
 67 86  1  0
 68 67  1  0
 68 71  1  0
 69 66  1  0
 69 70  1  0
 70 68  2  0
 71 72  1  0
 72 73  2  0
 74 77  1  0
 74 73  1  0
 75 74  2  0
 76 75  1  0
 76 71  2  0
 77 78  1  0
 78 79  1  0
 79 80  2  0
 81 80  1  0
 81 85  1  0
 82 81  2  0
 83 78  2  0
 83 82  1  0
 84 83  1  0
 86 87  1  0
 87 90  1  0
 87 89  1  0
 88 86  2  0
 91 92  1  0
 91 66  1  0
 93 91  1  0
M  ISO  4   8 101   9 101  56 100  64 100
M  END
>  <TORSDO>  (57) 
F 19

>  <SCORE>  (57) 
-14.233

>  <name>  (57) 
56

>  <ligand_id>  (57) 
56

>  <original_smiles>  (57) 
[H]c1c([H])c([H])c2c(c1[H])C([H])([H])C([H])([H])C([H])([H])C2([H])N([H])C(=O)C1([H])N(C(=O)C([H])(N([H])C(=O)C([H])(N([H])C([H])([H])[H])C([H])([H])[H])C(C([H])([H])[H])(C([H])([H])[H])C([H])([H])[H])C([H])([H])c2c([H])c(OC([H])([H])C3([H])C([H])([H])C([H])(C([H])([H])N4C([H])([H])C([H])([H])C([H])(N([H])C(=O)N5C([H])([H])C([H])([H])C([H])([H])C([H])(n6nc(-c7c([H])c([H])c(Oc8c([H])c([H])c(F)c([H])c8F)c([H])c7[H])c(C(=O)N([H])[H])c6N([H])[H])C5([H])[H])C4([H])[H])[N+]([H])(C([H])([H])[H])C3([H])[H])c([H])c([H])c2C1([H])[H]

>  <smiles>  (57) 
[H]c1c([H])c([H])c2c(c1[H])C([H])([H])C([H])([H])C([H])([H])C2([H])N([H])C(=O)C1([H])N(C(=O)C([H])(N([H])C(=O)C([H])(N([H])C([H])([H])[H])C([H])([H])[H])C(C([H])([H])[H])(C([H])([H])[H])C([H])([H])[H])C([H])([H])c2c([H])c(OC([H])([H])C3([H])C([H])([H])C([H])(C([H])([H])N4C([H])([H])C([H])([H])C([H])(N([H])C(=O)N5C([H])([H])C([H])([H])C([H])([H])C([H])(n6nc(-c7c([H])c([H])c(Oc8c([H])c([H])c(F)c([H])c8F)c([H])c7[H])c(C(=O)N([H])[H])c6N([H])[H])C5([H])[H])C4([H])[H])[N+]([H])(C([H])([H])[H])C3([H])[H])c([H])c([H])c2C1([H])[H]

$$$$
57:0:0
     RDKit          3D

 93103  0  0  1  0  0  0  0  0999 V2000
  -29.1940  -20.5490   20.1220 C   0  0  0  0  0  0  0  0  0  0  0  0
  -30.1660  -22.0480   21.5190 C   0  0  0  0  0  0  0  0  0  0  0  0
  -28.5880  -22.9110   20.1610 C   0  0  0  0  0  0  0  0  0  0  0  0
  -30.0720  -20.7830   21.0930 N   0  0  0  0  0  4  0  0  0  0  0  0
  -28.3960  -21.6070   19.6530 N   0  0  0  0  0  0  0  0  0  0  0  0
  -29.5000  -23.1230   21.0990 N   0  0  0  0  0  2  0  0  0  0  0  0
  -29.5620  -18.3030   18.5230 C   0  0  0  0  0  2  0  0  0  0  0  0
  -28.9990  -18.9100   19.7890 C   0  0  0  0  0  3  0  0  0  0  0  0
  -30.0080  -17.5310   19.7440 C   0  0  0  0  0  3  0  0  0  0  0  0
  -30.5130  -14.7840   19.7160 C   0  0  0  0  0  0  0  0  0  0  0  0
  -30.3940  -12.3470   18.9730 C   0  0  0  0  0  2  0  0  0  0  0  0
  -29.3890  -12.1640   17.8100 C   0  0  0  0  0  2  0  0  0  0  0  0
  -27.9590  -11.9720   18.3490 C   0  0  0  0  0  2  0  0  0  0  0  0
  -27.6080  -12.9910   19.4660 C   0  0  0  0  0  3  0  0  0  0  0  0
  -28.7270  -13.1210   20.5180 C   0  0  0  0  0  2  0  0  0  0  0  0
  -29.9420  -13.5100   19.7940 N   0  0  0  0  0  0  0  0  0  0  0  0
  -31.7070  -14.8320   19.3980 O   0  0  0  0  0  0  0  0  0  0  0  0
  -29.7070  -15.9750   19.7890 N   0  0  0  0  0  0  0  0  0  0  0  0
  -28.7390  -15.7680   19.9740 H   0  0  0  0  0  0  0  0  0  0  0  0
  -25.3260  -13.6300   20.4290 C   0  0  0  0  0  0  0  0  0  0  0  0
  -24.2700  -12.8830   20.8740 C   0  0  0  0  0  0  0  0  0  0  0  0
  -24.6810  -11.5180   20.7740 C   0  0  0  0  0  0  0  0  0  0  0  0
  -26.3100  -12.7230   20.0750 N   0  0  0  0  0  0  0  0  0  0  0  0
  -25.9400  -11.4470   20.3500 N   0  0  0  0  0  0  0  0  0  0  0  0
  -23.9290  -10.2770   20.9990 C   0  0  0  0  0  0  0  0  0  0  0  0
  -24.3790   -9.2920   21.9050 C   0  0  0  0  0  3  0  0  0  0  0  0
  -23.6240   -8.1170   22.1190 C   0  0  0  0  0  3  0  0  0  0  0  0
  -22.4050   -7.9200   21.4260 C   0  0  0  0  0  0  0  0  0  0  0  0
  -21.9730   -8.8940   20.5100 C   0  0  0  0  0  3  0  0  0  0  0  0
  -22.7280  -10.0590   20.2940 C   0  0  0  0  0  3  0  0  0  0  0  0
  -21.6210   -6.7980   21.5500 O   0  0  0  0  0  0  0  0  0  0  0  0
  -21.5980   -6.0600   22.7060 C   0  0  0  0  0  0  0  0  0  0  0  0
  -21.2010   -6.6210   23.9400 C   0  0  0  0  0  3  0  0  0  0  0  0
  -21.1220   -5.8100   25.0880 C   0  0  0  0  0  3  0  0  0  0  0  0
  -21.4340   -4.4390   25.0060 C   0  0  0  0  0  0  0  0  0  0  0  0
  -21.8240   -3.8790   23.7790 C   0  0  0  0  0  3  0  0  0  0  0  0
  -21.9030   -4.6870   22.6310 C   0  0  0  0  0  0  0  0  0  0  0  0
  -22.2600   -4.1380   21.4440 F   0  0  0  0  0  0  0  0  0  0  0  0
  -21.3520   -3.6570   26.1090 F   0  0  0  0  0  0  0  0  0  0  0  0
  -22.9190  -13.4020   21.2730 C   0  0  0  0  0  0  0  0  0  0  0  0
  -22.2510  -12.7260   22.1990 N   0  0  0  0  0  0  0  0  0  0  0  0
  -22.4720  -14.4460   20.7990 O   0  0  0  0  0  0  0  0  0  0  0  0
  -22.6280  -11.8850   22.6110 H   0  0  0  0  0  0  0  0  0  0  0  0
  -21.3500  -13.0610   22.5110 H   0  0  0  0  0  0  0  0  0  0  0  0
  -25.5250  -14.9980   20.2720 N   0  0  0  0  0  0  0  0  0  0  0  0
  -24.7950  -15.6740   20.4660 H   0  0  0  0  0  0  0  0  0  0  0  0
  -26.3430  -15.4120   19.8440 H   0  0  0  0  0  0  0  0  0  0  0  0
  -31.0800  -22.2960   22.7150 C   0  0  0  0  0  2  0  0  0  0  0  0
  -30.7110  -20.4840   24.6440 C   0  0  0  0  0  2  0  0  0  0  0  0
  -31.3320  -21.7060   25.2700 C   0  0  0  0  0  2  0  0  0  0  0  0
  -30.4580  -21.8510   24.0370 C   0  0  0  0  0  3  0  0  0  0  0  0
  -27.6080  -24.2360   19.8750 C   0  0  0  0  0  2  0  0  0  0  0  0
  -27.9040  -25.7670   20.1520 O   0  0  0  0  0  0  0  0  0  0  0  0
  -24.4990  -31.6960   22.9830 C   0  0  0  0  0  0  0  0  0  0  0  0
  -26.9040  -26.8150   20.0290 C   0  0  0  0  0  0  0  0  0  0  0  0
  -23.2420  -30.2900   21.3990 C   0  0  0  0  0  3  0  0  0  0  0  0
  -24.6290  -28.6520   19.9810 C   0  0  0  0  0  0  0  0  0  0  0  0
  -25.8020  -30.4800   21.1920 C   0  0  0  0  0  2  0  0  0  0  0  0
  -25.8280  -29.0700   20.5720 C   0  0  0  0  0  0  0  0  0  0  0  0
  -26.9630  -28.1640   20.5840 C   0  0  0  0  0  3  0  0  0  0  0  0
  -25.6890  -26.5260   19.3670 C   0  0  0  0  0  3  0  0  0  0  0  0
  -24.5770  -27.3960   19.3600 C   0  0  0  0  0  3  0  0  0  0  0  0
  -23.4260  -29.5820   20.0310 C   0  0  0  0  0  2  0  0  0  0  0  0
  -24.5360  -30.8460   21.9100 N   0  0  0  0  0  0  0  0  0  0  0  0
  -23.4290  -32.0140   23.5230 O   0  0  0  0  0  0  0  0  0  0  0  0
  -22.5560  -29.3210   22.3950 C   0  0  0  0  0  0  0  0  0  0  0  0
  -21.2260  -29.1560   22.2790 N   0  0  0  0  0  0  0  0  0  0  0  0
  -23.2250  -28.7190   23.2400 O   0  0  0  0  0  0  0  0  0  0  0  0
  -20.7430  -29.6880   21.5690 H   0  0  0  0  0  0  0  0  0  0  0  0
  -17.8360  -28.0090   22.8490 C   0  0  0  0  0  0  0  0  0  0  0  0
  -20.4010  -28.2530   23.0860 C   0  0  0  0  0  3  0  0  0  0  0  0
  -20.4820  -26.8030   22.5540 C   0  0  0  0  0  2  0  0  0  0  0  0
  -19.3680  -26.4620   21.5600 C   0  0  0  0  0  2  0  0  0  0  0  0
  -17.9930  -26.6390   22.2100 C   0  0  0  0  0  2  0  0  0  0  0  0
  -18.9670  -28.7730   23.2450 C   0  0  0  0  0  0  0  0  0  0  0  0
  -18.7640  -30.0530   23.8060 C   0  0  0  0  0  3  0  0  0  0  0  0
  -17.4650  -30.5700   23.9700 C   0  0  0  0  0  3  0  0  0  0  0  0
  -16.3510  -29.8050   23.5870 C   0  0  0  0  0  3  0  0  0  0  0  0
  -16.5360  -28.5260   23.0320 C   0  0  0  0  0  3  0  0  0  0  0  0
  -25.8000  -32.3200   23.5740 C   0  0  0  0  0  3  0  0  0  0  0  0
  -26.4050  -31.4770   24.7640 C   0  0  1  0  0  0  0  0  0  0  0  0
  -25.3720  -31.1090   25.8550 C   0  0  0  0  0  1  0  0  0  0  0  0
  -27.0270  -30.1600   24.2480 C   0  0  0  0  0  1  0  0  0  0  0  0
  -27.5510  -32.2690   25.4340 C   0  0  0  0  0  1  0  0  0  0  0  0
  -25.4770  -33.6840   24.0250 N   0  0  0  0  0  0  0  0  0  0  0  0
  -25.6960  -34.7980   23.3120 C   0  0  0  0  0  0  0  0  0  0  0  0
  -26.2560  -34.7850   22.2130 O   0  0  0  0  0  0  0  0  0  0  0  0
  -24.9640  -33.7620   24.8900 H   0  0  0  0  0  0  0  0  0  0  0  0
  -23.8700  -36.5300   23.2910 C   0  0  0  0  0  1  0  0  0  0  0  0
  -25.2190  -36.1370   23.9110 C   0  0  0  0  0  3  0  0  0  0  0  0
  -27.4030  -37.0820   24.5250 C   0  0  0  0  0  1  0  0  0  0  0  0
  -26.1880  -37.2410   23.7280 N   0  0  0  0  0  0  0  0  0  0  0  0
  -25.7670  -38.1350   23.9650 H   0  0  0  0  0  0  0  0  0  0  0  0
  1  4  2  0
  2 48  1  0
  3  6  1  0
  4  2  2  0
  5  1  1  0
  5  3  2  0
  6  2  1  0
  7  9  1  0
  7  8  1  0
  8  1  1  0
  9 18  1  0
  9  8  1  0
 10 18  1  0
 10 16  1  0
 11 16  1  0
 12 13  1  0
 12 11  1  0
 14 13  1  0
 14 23  1  0
 14 15  1  0
 16 15  1  0
 17 10  2  0
 18 19  1  0
 20 21  2  0
 21 40  1  0
 22 21  1  0
 22 25  1  0
 23 24  1  0
 23 20  1  0
 24 22  2  0
 25 26  1  0
 26 27  2  0
 28 31  1  0
 28 27  1  0
 29 28  2  0
 30 29  1  0
 30 25  2  0
 31 32  1  0
 32 33  1  0
 33 34  2  0
 35 34  1  0
 35 39  1  0
 36 35  2  0
 37 32  2  0
 37 36  1  0
 38 37  1  0
 40 41  1  0
 41 44  1  0
 41 43  1  0
 42 40  2  0
 45 20  1  0
 45 46  1  0
 47 45  1  0
 48 51  1  0
 49 50  1  0
 51 49  1  0
 51 50  1  0
 52 53  1  0
 52  3  1  0
 54 65  2  0
 55 53  1  0
 55 60  1  0
 56 64  1  0
 56 66  1  0
 57 63  1  0
 57 59  1  0
 58 64  1  0
 59 60  2  0
 59 58  1  0
 61 55  2  0
 62 61  1  0
 62 57  2  0
 63 56  1  0
 64 54  1  0
 66 68  2  0
 67 66  1  0
 69 67  1  0
 70 79  2  0
 70 75  1  0
 71 67  1  0
 71 75  1  0
 72 71  1  0
 73 74  1  0
 73 72  1  0
 74 70  1  0
 75 76  2  0
 76 77  1  0
 78 77  2  0
 79 78  1  0
 80 54  1  0
 80 85  1  0
 80 81  1  0
 81 84  1  1
 81 82  1  0
 83 81  1  0
 85 88  1  0
 86 90  1  0
 86 85  1  0
 87 86  2  0
 90 89  1  0
 92 90  1  0
 92 93  1  0
 92 91  1  0
M  ISO  4  10 100  18 100  52 101  53 101
M  END
>  <TORSDO>  (58) 
F 20

>  <SCORE>  (58) 
-13.396

>  <name>  (58) 
57

>  <ligand_id>  (58) 
57

>  <original_smiles>  (58) 
[H]c1c([H])c([H])c2c(c1[H])C([H])([H])C([H])([H])C([H])([H])C2([H])N([H])C(=O)C1([H])N(C(=O)C([H])(N([H])C(=O)C([H])(N([H])C([H])([H])[H])C([H])([H])[H])C(C([H])([H])[H])(C([H])([H])[H])C([H])([H])[H])C([H])([H])c2c([H])c(OC([H])([H])c3nc(C([H])([H])C4([H])C([H])([H])C4([H])[H])nc(C4([H])C([H])([H])C4([H])N([H])C(=O)N4C([H])([H])C([H])([H])C([H])([H])C([H])(n5nc(-c6c([H])c([H])c(Oc7c([H])c([H])c(F)c([H])c7F)c([H])c6[H])c(C(=O)N([H])[H])c5N([H])[H])C4([H])[H])n3)c([H])c([H])c2C1([H])[H]

>  <smiles>  (58) 
[H]c1c([H])c([H])c2c(c1[H])C([H])([H])C([H])([H])C([H])([H])C2([H])N([H])C(=O)C1([H])N(C(=O)C([H])(N([H])C(=O)C([H])(N([H])C([H])([H])[H])C([H])([H])[H])C(C([H])([H])[H])(C([H])([H])[H])C([H])([H])[H])C([H])([H])c2c([H])c(OC([H])([H])c3nc(C([H])([H])C4([H])C([H])([H])C4([H])[H])nc(C4([H])C([H])([H])C4([H])N([H])C(=O)N4C([H])([H])C([H])([H])C([H])([H])C([H])(n5nc(-c6c([H])c([H])c(Oc7c([H])c([H])c(F)c([H])c7F)c([H])c6[H])c(C(=O)N([H])[H])c5N([H])[H])C4([H])[H])n3)c([H])c([H])c2C1([H])[H]

$$$$
58:0:0
     RDKit          3D

102111  0  0  1  0  0  0  0  0999 V2000
  -30.0460  -21.6490   20.0410 C   0  0  0  0  0  3  0  0  0  0  0  0
  -31.2260  -19.4780   22.8540 C   0  0  0  0  0  3  0  0  0  0  0  0
  -31.2840  -20.7390   23.3880 C   0  0  0  0  0  0  0  0  0  0  0  0
  -30.5350  -20.9020   21.2850 C   0  0  0  0  0  3  0  0  0  0  0  0
  -31.6940  -21.2300   24.7380 C   0  0  0  0  0  1  0  0  0  0  0  0
  -30.7820  -19.5800   21.5530 N   0  0  0  0  0  0  0  0  0  0  0  0
  -30.8460  -21.5720   22.3980 N   0  0  0  0  0  0  0  0  0  0  0  0
  -30.7260  -22.5750   22.4890 H   0  0  0  0  0  0  0  0  0  0  0  0
  -31.1420  -14.6820   20.2080 C   0  0  0  0  0  0  0  0  0  0  0  0
  -30.7610  -12.4650   19.1410 C   0  0  0  0  0  2  0  0  0  0  0  0
  -29.8110  -12.6000   17.9320 C   0  0  0  0  0  2  0  0  0  0  0  0
  -28.3420  -12.4700   18.3830 C   0  0  0  0  0  2  0  0  0  0  0  0
  -28.0230  -13.3640   19.6090 C   0  0  0  0  0  3  0  0  0  0  0  0
  -29.0990  -13.2110   20.7170 C   0  0  0  0  0  2  0  0  0  0  0  0
  -30.4000  -13.5260   20.1110 N   0  0  0  0  0  0  0  0  0  0  0  0
  -32.3120  -14.6860   19.8140 O   0  0  0  0  0  0  0  0  0  0  0  0
  -29.1290  -17.8220   20.8630 C   0  0  0  0  0  2  0  0  0  0  0  0
  -29.2170  -16.3480   20.4440 C   0  0  0  0  0  2  0  0  0  0  0  0
  -31.4020  -17.1000   20.9230 C   0  0  0  0  0  2  0  0  0  0  0  0
  -30.5300  -18.3830   20.6730 C   0  0  0  0  0  3  0  0  0  0  0  0
  -30.5910  -15.8710   20.6560 N   0  0  0  0  0  0  0  0  0  0  0  0
  -25.6690  -14.0710   20.3520 C   0  0  0  0  0  0  0  0  0  0  0  0
  -24.5770  -13.3430   20.7390 C   0  0  0  0  0  0  0  0  0  0  0  0
  -24.9870  -11.9730   20.7050 C   0  0  0  0  0  0  0  0  0  0  0  0
  -26.6750  -13.1470   20.1140 N   0  0  0  0  0  0  0  0  0  0  0  0
  -26.2700  -11.8810   20.3840 N   0  0  0  0  0  0  0  0  0  0  0  0
  -24.2150  -10.7420   20.9010 C   0  0  0  0  0  0  0  0  0  0  0  0
  -24.6020   -9.7740   21.8530 C   0  0  0  0  0  3  0  0  0  0  0  0
  -23.8340   -8.6040   22.0340 C   0  0  0  0  0  3  0  0  0  0  0  0
  -22.6650   -8.3970   21.2630 C   0  0  0  0  0  0  0  0  0  0  0  0
  -22.2990   -9.3520   20.2990 C   0  0  0  0  0  3  0  0  0  0  0  0
  -23.0680  -10.5140   20.1150 C   0  0  0  0  0  3  0  0  0  0  0  0
  -21.8690   -7.2810   21.3560 O   0  0  0  0  0  0  0  0  0  0  0  0
  -21.7440   -6.5820   22.5300 C   0  0  0  0  0  0  0  0  0  0  0  0
  -21.2740   -7.1910   23.7150 C   0  0  0  0  0  3  0  0  0  0  0  0
  -21.0970   -6.4180   24.8800 C   0  0  0  0  0  3  0  0  0  0  0  0
  -21.3790   -5.0380   24.8600 C   0  0  0  0  0  0  0  0  0  0  0  0
  -21.8430   -4.4300   23.6800 C   0  0  0  0  0  3  0  0  0  0  0  0
  -22.0220   -5.2010   22.5180 C   0  0  0  0  0  0  0  0  0  0  0  0
  -22.4480   -4.6050   21.3780 F   0  0  0  0  0  0  0  0  0  0  0  0
  -21.2010   -4.2950   25.9770 F   0  0  0  0  0  0  0  0  0  0  0  0
  -23.2040  -13.8750   21.0260 C   0  0  0  0  0  0  0  0  0  0  0  0
  -22.4650  -13.2190   21.9140 N   0  0  0  0  0  0  0  0  0  0  0  0
  -22.7960  -14.9100   20.4980 O   0  0  0  0  0  0  0  0  0  0  0  0
  -22.8040  -12.3810   22.3610 H   0  0  0  0  0  0  0  0  0  0  0  0
  -21.5440  -13.5600   22.1470 H   0  0  0  0  0  0  0  0  0  0  0  0
  -25.8780  -15.4350   20.1600 N   0  0  0  0  0  0  0  0  0  0  0  0
  -25.1310  -16.1120   20.2670 H   0  0  0  0  0  0  0  0  0  0  0  0
  -26.7330  -15.8390   19.8020 H   0  0  0  0  0  0  0  0  0  0  0  0
  -29.0680  -22.7510   20.3050 N   0  0  0  0  0  0  0  0  0  0  0  0
  -28.3100  -22.6600   19.6340 H   0  0  0  0  0  0  0  0  0  0  0  0
  -29.4620  -24.1880   20.4040 C   0  0  0  0  0  2  0  0  0  0  0  0
  -28.2320  -25.1390   20.1760 C   0  0  0  0  0  2  0  0  0  0  0  0
  -28.4380  -26.5860   20.2300 O   0  0  0  0  0  0  0  0  0  0  0  0
  -24.6190  -31.8890   23.1940 C   0  0  0  0  0  0  0  0  0  0  0  0
  -27.2910  -27.3850   20.1660 C   0  0  0  0  0  0  0  0  0  0  0  0
  -23.4310  -30.4720   21.5570 C   0  0  0  0  0  3  0  0  0  0  0  0
  -24.9000  -28.9380   20.1420 C   0  0  0  0  0  0  0  0  0  0  0  0
  -25.9630  -30.8280   21.3740 C   0  0  0  0  0  2  0  0  0  0  0  0
  -26.0600  -29.4520   20.7350 C   0  0  0  0  0  0  0  0  0  0  0  0
  -27.2580  -28.6880   20.7370 C   0  0  0  0  0  3  0  0  0  0  0  0
  -26.1060  -26.9120   19.5520 C   0  0  0  0  0  3  0  0  0  0  0  0
  -24.9230  -27.6700   19.5430 C   0  0  0  0  0  3  0  0  0  0  0  0
  -23.6510  -29.7920   20.1810 C   0  0  0  0  0  2  0  0  0  0  0  0
  -24.6900  -31.0800   22.1000 N   0  0  0  0  0  0  0  0  0  0  0  0
  -23.5320  -32.1590   23.7260 O   0  0  0  0  0  0  0  0  0  0  0  0
  -22.7790  -29.4520   22.5190 C   0  0  0  0  0  0  0  0  0  0  0  0
  -21.4610  -29.2370   22.3670 N   0  0  0  0  0  0  0  0  0  0  0  0
  -23.4570  -28.8550   23.3600 O   0  0  0  0  0  0  0  0  0  0  0  0
  -20.9740  -29.7700   21.6600 H   0  0  0  0  0  0  0  0  0  0  0  0
  -18.1130  -27.9400   22.7830 C   0  0  0  0  0  0  0  0  0  0  0  0
  -20.6490  -28.2920   23.1350 C   0  0  0  0  0  3  0  0  0  0  0  0
  -20.8190  -26.8520   22.6020 C   0  0  0  0  0  2  0  0  0  0  0  0
  -19.7650  -26.4640   21.5610 C   0  0  0  0  0  2  0  0  0  0  0  0
  -18.3580  -26.5800   22.1510 C   0  0  0  0  0  2  0  0  0  0  0  0
  -19.1890  -28.7510   23.2300 C   0  0  0  0  0  0  0  0  0  0  0  0
  -18.9080  -30.0230   23.7770 C   0  0  0  0  0  3  0  0  0  0  0  0
  -17.5830  -30.4820   23.8830 C   0  0  0  0  0  3  0  0  0  0  0  0
  -16.5190  -29.6690   23.4540 C   0  0  0  0  0  3  0  0  0  0  0  0
  -16.7850  -28.4010   22.9090 C   0  0  0  0  0  3  0  0  0  0  0  0
  -25.8960  -32.5340   23.8170 C   0  0  0  0  0  3  0  0  0  0  0  0
  -25.5670  -33.9240   24.1600 N   0  0  0  0  0  0  0  0  0  0  0  0
  -25.8910  -34.9890   23.4140 C   0  0  0  0  0  0  0  0  0  0  0  0
  -26.5680  -34.9050   22.3870 O   0  0  0  0  0  0  0  0  0  0  0  0
  -24.9670  -34.0620   24.9610 H   0  0  0  0  0  0  0  0  0  0  0  0
  -24.1430  -36.7640   23.0680 C   0  0  0  0  0  1  0  0  0  0  0  0
  -25.3820  -36.3650   23.8850 C   0  0  0  0  0  3  0  0  0  0  0  0
  -27.4980  -37.2670   24.7450 C   0  0  0  0  0  1  0  0  0  0  0  0
  -26.4020  -37.4320   23.7930 N   0  0  0  0  0  0  0  0  0  0  0  0
  -25.9830  -38.3460   23.9490 H   0  0  0  0  0  0  0  0  0  0  0  0
  -26.4280  -31.7580   25.0850 C   0  0  1  0  0  0  0  0  0  0  0  0
  -25.3410  -31.4930   26.1520 C   0  0  0  0  0  1  0  0  0  0  0  0
  -27.0320  -30.3940   24.6780 C   0  0  0  0  0  1  0  0  0  0  0  0
  -27.5650  -32.5650   25.7530 C   0  0  0  0  0  1  0  0  0  0  0  0
  -31.2060  -22.1270   19.1200 C   0  0  0  0  0  2  0  0  0  0  0  0
  -32.0270  -21.0450   18.5310 N   0  0  0  0  0  4  0  0  0  0  0  0
  -31.4450  -20.3990   18.0240 H   0  0  0  0  0  0  0  0  0  0  0  0
  -32.5300  -20.5430   19.2460 H   0  0  0  0  0  0  0  0  0  0  0  0
  -33.0710  -21.5430   17.6100 C   0  0  0  0  0  2  0  0  0  0  0  0
  -35.3250  -20.9950   16.5490 C   0  0  0  0  0  1  0  0  0  0  0  0
  -34.1270  -20.4620   17.3440 C   0  0  0  0  0  3  0  0  0  0  0  0
  -34.5590  -20.0000   18.5190 F   0  0  0  0  0  0  0  0  0  0  0  0
  1 95  1  0
  1 50  1  0
  2  3  2  0
  3  5  1  0
  4  1  1  0
  4  6  1  0
  4  7  1  0
  6  2  1  0
  7  8  1  0
  7  3  1  0
  9 21  1  0
 10 15  1  0
 11 12  1  0
 11 10  1  0
 13 12  1  0
 13 25  1  0
 13 14  1  0
 15  9  1  0
 15 14  1  0
 16  9  2  0
 18 21  1  0
 18 17  1  0
 20 17  1  0
 20 19  1  0
 20  6  1  0
 21 19  1  0
 22 23  2  0
 23 42  1  0
 24 23  1  0
 24 27  1  0
 25 22  1  0
 25 26  1  0
 26 24  2  0
 27 28  1  0
 28 29  2  0
 30 33  1  0
 30 29  1  0
 31 30  2  0
 32 31  1  0
 32 27  2  0
 33 34  1  0
 34 35  1  0
 35 36  2  0
 37 36  1  0
 37 41  1  0
 38 37  2  0
 39 34  2  0
 39 38  1  0
 40 39  1  0
 42 43  1  0
 43 46  1  0
 43 45  1  0
 44 42  2  0
 47 48  1  0
 47 22  1  0
 49 47  1  0
 50 52  1  0
 51 50  1  0
 53 54  1  0
 53 52  1  0
 55 66  2  0
 56 54  1  0
 56 61  1  0
 57 65  1  0
 57 67  1  0
 58 64  1  0
 58 60  1  0
 59 65  1  0
 60 61  2  0
 60 59  1  0
 62 56  2  0
 63 62  1  0
 63 58  2  0
 64 57  1  0
 65 55  1  0
 67 69  2  0
 68 67  1  0
 70 68  1  0
 71 80  2  0
 71 76  1  0
 72 68  1  0
 72 76  1  0
 73 72  1  0
 74 75  1  0
 74 73  1  0
 75 71  1  0
 76 77  2  0
 77 78  1  0
 79 78  2  0
 80 79  1  0
 81 55  1  0
 81 82  1  0
 81 91  1  0
 82 85  1  0
 83 87  1  0
 83 82  1  0
 84 83  2  0
 87 86  1  0
 89 87  1  0
 89 90  1  0
 89 88  1  0
 91 94  1  1
 91 92  1  0
 93 91  1  0
 96 95  1  0
 96 98  1  0
 97 96  1  0
 99 96  1  0
101100  1  0
101 99  1  0
101102  1  0
M  ISO  4   9 100  21 100  53 101  54 101
M  END
>  <TORSDO>  (59) 
F 24

>  <SCORE>  (59) 
-12.807

>  <name>  (59) 
58

>  <ligand_id>  (59) 
58

>  <original_smiles>  (59) 
[H]c1c([H])c([H])c2c(c1[H])C([H])([H])C([H])([H])C([H])([H])C2([H])N([H])C(=O)C1([H])N(C(=O)C([H])(N([H])C(=O)C([H])(N([H])C([H])([H])[H])C([H])([H])[H])C(C([H])([H])[H])(C([H])([H])[H])C([H])([H])[H])C([H])([H])c2c([H])c(OC([H])([H])C([H])([H])N([H])C([H])(c3n(C4([H])C([H])([H])N(C(=O)N5C([H])([H])C([H])([H])C([H])([H])C([H])(n6nc(-c7c([H])c([H])c(Oc8c([H])c([H])c(F)c([H])c8F)c([H])c7[H])c(C(=O)N([H])[H])c6N([H])[H])C5([H])[H])C([H])([H])C4([H])[H])c([H])c(C([H])([H])[H])[n+]3[H])C([H])([H])[N+]([H])([H])C([H])([H])C([H])(F)C([H])([H])[H])c([H])c([H])c2C1([H])[H]

>  <smiles>  (59) 
[H]c1c([H])c([H])c2c(c1[H])C([H])([H])C([H])([H])C([H])([H])C2([H])N([H])C(=O)C1([H])N(C(=O)C([H])(N([H])C(=O)C([H])(N([H])C([H])([H])[H])C([H])([H])[H])C(C([H])([H])[H])(C([H])([H])[H])C([H])([H])[H])C([H])([H])c2c([H])c(OC([H])([H])C([H])([H])N([H])C([H])(c3n(C4([H])C([H])([H])N(C(=O)N5C([H])([H])C([H])([H])C([H])([H])C([H])(n6nc(-c7c([H])c([H])c(Oc8c([H])c([H])c(F)c([H])c8F)c([H])c7[H])c(C(=O)N([H])[H])c6N([H])[H])C5([H])[H])C([H])([H])C4([H])[H])c([H])c(C([H])([H])[H])[n+]3[H])C([H])([H])[N+]([H])([H])C([H])([H])C([H])(F)C([H])([H])[H])c([H])c([H])c2C1([H])[H]

$$$$
59:0:0
     RDKit          3D

 95104  0  0  1  0  0  0  0  0999 V2000
  -30.3340  -22.9510   18.3700 C   0  0  0  0  0  3  0  0  0  0  0  0
  -30.4120  -21.6310   17.9140 C   0  0  0  0  0  0  0  0  0  0  0  0
  -29.7800  -23.1610   19.6410 C   0  0  0  0  0  0  0  0  0  0  0  0
  -29.4870  -20.9020   19.8780 C   0  0  0  0  0  0  0  0  0  0  0  0
  -29.9900  -20.6150   18.6890 N   0  0  0  0  0  0  0  0  0  0  0  0
  -29.3440  -22.1190   20.3900 N   0  0  0  0  0  0  0  0  0  0  0  0
  -29.0900  -19.8420   20.6740 N   0  0  0  0  0  0  0  0  0  0  0  0
  -28.7710  -20.1130   21.5960 H   0  0  0  0  0  0  0  0  0  0  0  0
  -30.7930  -14.4550   20.2400 C   0  0  0  0  0  0  0  0  0  0  0  0
  -30.4520  -12.2910   19.1320 C   0  0  0  0  0  2  0  0  0  0  0  0
  -29.4720  -12.4930   17.9580 C   0  0  0  0  0  2  0  0  0  0  0  0
  -28.0150  -12.3540   18.4410 C   0  0  0  0  0  2  0  0  0  0  0  0
  -27.7130  -13.1940   19.7120 C   0  0  0  0  0  3  0  0  0  0  0  0
  -28.8110  -13.0010   20.7830 C   0  0  0  0  0  2  0  0  0  0  0  0
  -30.1080  -13.2860   20.1560 N   0  0  0  0  0  0  0  0  0  0  0  0
  -31.9520  -14.5830   19.8310 O   0  0  0  0  0  0  0  0  0  0  0  0
  -28.9540  -17.6340   19.4900 C   0  0  0  0  0  2  0  0  0  0  0  0
  -29.6470  -17.6890   21.8420 C   0  0  0  0  0  2  0  0  0  0  0  0
  -29.7670  -16.3530   19.2580 C   0  0  0  0  0  2  0  0  0  0  0  0
  -30.4000  -16.3460   21.6800 C   0  0  0  0  0  2  0  0  0  0  0  0
  -29.6640  -18.4990   20.5380 C   0  0  0  0  0  3  0  0  0  0  0  0
  -30.0420  -15.5600   20.4790 N   0  0  0  0  0  0  0  0  0  0  0  0
  -25.3530  -13.7830   20.5430 C   0  0  0  0  0  0  0  0  0  0  0  0
  -24.2970  -13.0020   20.9320 C   0  0  0  0  0  0  0  0  0  0  0  0
  -24.7530  -11.6510   20.8420 C   0  0  0  0  0  0  0  0  0  0  0  0
  -26.3840  -12.9070   20.2420 N   0  0  0  0  0  0  0  0  0  0  0  0
  -26.0290  -11.6180   20.4800 N   0  0  0  0  0  0  0  0  0  0  0  0
  -24.0340  -10.3850   21.0230 C   0  0  0  0  0  0  0  0  0  0  0  0
  -24.4730   -9.4110   21.9480 C   0  0  0  0  0  3  0  0  0  0  0  0
  -23.7540   -8.2080   22.1160 C   0  0  0  0  0  3  0  0  0  0  0  0
  -22.5830   -7.9700   21.3610 C   0  0  0  0  0  0  0  0  0  0  0  0
  -22.1630   -8.9320   20.4240 C   0  0  0  0  0  3  0  0  0  0  0  0
  -22.8820  -10.1270   20.2540 C   0  0  0  0  0  3  0  0  0  0  0  0
  -21.8330   -6.8210   21.4420 O   0  0  0  0  0  0  0  0  0  0  0  0
  -21.7410   -6.1020   22.6060 C   0  0  0  0  0  0  0  0  0  0  0  0
  -21.2350   -6.6700   23.7950 C   0  0  0  0  0  3  0  0  0  0  0  0
  -21.0940   -5.8750   24.9500 C   0  0  0  0  0  3  0  0  0  0  0  0
  -21.4460   -4.5130   24.9160 C   0  0  0  0  0  0  0  0  0  0  0  0
  -21.9440   -3.9440   23.7300 C   0  0  0  0  0  3  0  0  0  0  0  0
  -22.0880   -4.7360   22.5780 C   0  0  0  0  0  0  0  0  0  0  0  0
  -22.5500   -4.1780   21.4330 F   0  0  0  0  0  0  0  0  0  0  0  0
  -21.3040   -3.7470   26.0230 F   0  0  0  0  0  0  0  0  0  0  0  0
  -22.9120  -13.4720   21.2740 C   0  0  0  0  0  0  0  0  0  0  0  0
  -22.2210  -12.7570   22.1540 N   0  0  0  0  0  0  0  0  0  0  0  0
  -22.4540  -14.5080   20.7950 O   0  0  0  0  0  0  0  0  0  0  0  0
  -22.6040  -11.9190   22.5660 H   0  0  0  0  0  0  0  0  0  0  0  0
  -21.2930  -13.0530   22.4220 H   0  0  0  0  0  0  0  0  0  0  0  0
  -25.5190  -15.1570   20.4020 N   0  0  0  0  0  0  0  0  0  0  0  0
  -24.7710  -15.8200   20.5710 H   0  0  0  0  0  0  0  0  0  0  0  0
  -26.3770  -15.5970   20.0930 H   0  0  0  0  0  0  0  0  0  0  0  0
  -30.9580  -20.1090   16.0080 C   0  0  0  0  0  2  0  0  0  0  0  0
  -30.9280  -21.3290   16.5710 C   0  0  0  0  0  3  0  0  0  0  0  0
  -29.6660  -24.5750   20.2100 C   0  0  0  0  0  2  0  0  0  0  0  0
  -28.4040  -25.3300   19.7500 C   0  0  0  0  0  2  0  0  0  0  0  0
  -28.4290  -26.6970   20.1980 O   0  0  0  0  0  0  0  0  0  0  0  0
  -24.6280  -31.8750   23.2690 C   0  0  0  0  0  0  0  0  0  0  0  0
  -27.2520  -27.4220   20.1690 C   0  0  0  0  0  0  0  0  0  0  0  0
  -23.4180  -30.4870   21.6180 C   0  0  0  0  0  3  0  0  0  0  0  0
  -24.8660  -28.9490   20.1880 C   0  0  0  0  0  0  0  0  0  0  0  0
  -25.9480  -30.8260   21.4330 C   0  0  0  0  0  2  0  0  0  0  0  0
  -26.0250  -29.4580   20.7840 C   0  0  0  0  0  0  0  0  0  0  0  0
  -27.2180  -28.7000   20.7730 C   0  0  0  0  0  3  0  0  0  0  0  0
  -26.0710  -26.9340   19.5580 C   0  0  0  0  0  3  0  0  0  0  0  0
  -24.8830  -27.6870   19.5740 C   0  0  0  0  0  3  0  0  0  0  0  0
  -23.6260  -29.8130   20.2370 C   0  0  0  0  0  2  0  0  0  0  0  0
  -24.6830  -31.0760   22.1650 N   0  0  0  0  0  0  0  0  0  0  0  0
  -23.5460  -32.1530   23.8050 O   0  0  0  0  0  0  0  0  0  0  0  0
  -22.7590  -29.4650   22.5710 C   0  0  0  0  0  0  0  0  0  0  0  0
  -21.4340  -29.2880   22.4360 N   0  0  0  0  0  0  0  0  0  0  0  0
  -23.4350  -28.8320   23.3860 O   0  0  0  0  0  0  0  0  0  0  0  0
  -20.9510  -29.8480   21.7470 H   0  0  0  0  0  0  0  0  0  0  0  0
  -18.0480  -28.1230   22.9140 C   0  0  0  0  0  0  0  0  0  0  0  0
  -20.6070  -28.3530   23.1960 C   0  0  0  0  0  3  0  0  0  0  0  0
  -20.6980  -26.9250   22.6090 C   0  0  0  0  0  2  0  0  0  0  0  0
  -19.5950  -26.6210   21.5890 C   0  0  0  0  0  2  0  0  0  0  0  0
  -18.2140  -26.7780   22.2300 C   0  0  0  0  0  2  0  0  0  0  0  0
  -19.1730  -28.8710   23.3520 C   0  0  0  0  0  0  0  0  0  0  0  0
  -18.9650  -30.1340   23.9500 C   0  0  0  0  0  3  0  0  0  0  0  0
  -17.6660  -30.6490   24.1120 C   0  0  0  0  0  3  0  0  0  0  0  0
  -16.5540  -29.8960   23.6930 C   0  0  0  0  0  3  0  0  0  0  0  0
  -16.7480  -28.6350   23.0990 C   0  0  0  0  0  3  0  0  0  0  0  0
  -25.9170  -32.4930   23.8940 C   0  0  0  0  0  3  0  0  0  0  0  0
  -26.4260  -31.7150   25.1680 C   0  0  1  0  0  0  0  0  0  0  0  0
  -25.3270  -31.4770   26.2310 C   0  0  0  0  0  1  0  0  0  0  0  0
  -27.0010  -30.3370   24.7690 C   0  0  0  0  0  1  0  0  0  0  0  0
  -27.5800  -32.4990   25.8350 C   0  0  0  0  0  1  0  0  0  0  0  0
  -25.6200  -33.8930   24.2240 N   0  0  0  0  0  0  0  0  0  0  0  0
  -25.9400  -34.9400   23.4520 C   0  0  0  0  0  0  0  0  0  0  0  0
  -26.5870  -34.8300   22.4060 O   0  0  0  0  0  0  0  0  0  0  0  0
  -25.0420  -34.0540   25.0360 H   0  0  0  0  0  0  0  0  0  0  0  0
  -24.1940  -36.7210   23.1420 C   0  0  0  0  0  1  0  0  0  0  0  0
  -25.4670  -36.3320   23.9110 C   0  0  0  0  0  3  0  0  0  0  0  0
  -27.6240  -37.2320   24.6570 C   0  0  0  0  0  1  0  0  0  0  0  0
  -26.4900  -37.3860   23.7500 N   0  0  0  0  0  0  0  0  0  0  0  0
  -26.0870  -38.3070   23.9030 H   0  0  0  0  0  0  0  0  0  0  0  0
  1  3  1  0
  2  1  2  0
  2  5  1  0
  3 53  1  0
  3  6  2  0
  4  6  1  0
  4  7  1  0
  5  4  2  0
  7  8  1  0
  9 22  1  0
 10 15  1  0
 11 12  1  0
 11 10  1  0
 13 12  1  0
 13 26  1  0
 13 14  1  0
 15  9  1  0
 15 14  1  0
 16  9  2  0
 17 21  1  0
 19 17  1  0
 19 22  1  0
 20 18  1  0
 21  7  1  0
 21 18  1  0
 22 20  1  0
 23 24  2  0
 24 43  1  0
 25 24  1  0
 25 28  1  0
 26 27  1  0
 26 23  1  0
 27 25  2  0
 28 29  1  0
 29 30  2  0
 31 34  1  0
 31 30  1  0
 32 31  2  0
 33 32  1  0
 33 28  2  0
 34 35  1  0
 35 36  1  0
 36 37  2  0
 38 37  1  0
 38 42  1  0
 39 38  2  0
 40 35  2  0
 40 39  1  0
 41 40  1  0
 43 44  1  0
 44 47  1  0
 44 46  1  0
 45 43  2  0
 48 23  1  0
 48 49  1  0
 50 48  1  0
 51 52  2  0
 52  2  1  0
 54 55  1  0
 54 53  1  0
 56 67  2  0
 57 55  1  0
 57 62  1  0
 58 66  1  0
 58 68  1  0
 59 65  1  0
 59 61  1  0
 60 66  1  0
 61 60  1  0
 62 61  2  0
 63 64  1  0
 63 57  2  0
 64 59  2  0
 65 58  1  0
 66 56  1  0
 68 70  2  0
 69 68  1  0
 71 69  1  0
 72 81  2  0
 72 77  1  0
 73 69  1  0
 73 77  1  0
 74 73  1  0
 75 76  1  0
 75 74  1  0
 76 72  1  0
 77 78  2  0
 78 79  1  0
 80 79  2  0
 81 80  1  0
 82 56  1  0
 82 87  1  0
 82 83  1  0
 83 86  1  1
 83 84  1  0
 85 83  1  0
 87 90  1  0
 88 92  1  0
 88 87  1  0
 89 88  2  0
 92 91  1  0
 94 95  1  0
 94 92  1  0
 94 93  1  0
M  ISO  4   9 100  22 100  54 101  55 101
M  END
>  <TORSDO>  (60) 
F 19

>  <SCORE>  (60) 
-14.124

>  <name>  (60) 
59

>  <ligand_id>  (60) 
59

>  <original_smiles>  (60) 
[H]C([H])=C([H])c1nc(N([H])C2([H])C([H])([H])C([H])([H])N(C(=O)N3C([H])([H])C([H])([H])C([H])([H])C([H])(n4nc(-c5c([H])c([H])c(Oc6c([H])c([H])c(F)c([H])c6F)c([H])c5[H])c(C(=O)N([H])[H])c4N([H])[H])C3([H])[H])C([H])([H])C2([H])[H])nc(C([H])([H])C([H])([H])Oc2c([H])c([H])c3c(c2[H])C([H])([H])N(C(=O)C([H])(N([H])C(=O)C([H])(N([H])C([H])([H])[H])C([H])([H])[H])C(C([H])([H])[H])(C([H])([H])[H])C([H])([H])[H])C([H])(C(=O)N([H])C2([H])c4c([H])c([H])c([H])c([H])c4C([H])([H])C([H])([H])C2([H])[H])C3([H])[H])c1[H]

>  <smiles>  (60) 
[H]C([H])=C([H])c1nc(N([H])C2([H])C([H])([H])C([H])([H])N(C(=O)N3C([H])([H])C([H])([H])C([H])([H])C([H])(n4nc(-c5c([H])c([H])c(Oc6c([H])c([H])c(F)c([H])c6F)c([H])c5[H])c(C(=O)N([H])[H])c4N([H])[H])C3([H])[H])C([H])([H])C2([H])[H])nc(C([H])([H])C([H])([H])Oc2c([H])c([H])c3c(c2[H])C([H])([H])N(C(=O)C([H])(N([H])C(=O)C([H])(N([H])C([H])([H])[H])C([H])([H])[H])C(C([H])([H])[H])(C([H])([H])[H])C([H])([H])[H])C([H])(C(=O)N([H])C2([H])c4c([H])c([H])c([H])c([H])c4C([H])([H])C([H])([H])C2([H])[H])C3([H])[H])c1[H]

$$$$
60:0:0
     RDKit          3D

 93103  0  0  1  0  0  0  0  0999 V2000
  -30.5970  -14.8710   20.3620 C   0  0  0  0  0  0  0  0  0  0  0  0
  -30.3570  -12.5270   19.4920 C   0  0  0  0  0  2  0  0  0  0  0  0
  -29.4410  -12.4420   18.2550 C   0  0  0  0  0  2  0  0  0  0  0  0
  -27.9840  -12.2280   18.6990 C   0  0  0  0  0  2  0  0  0  0  0  0
  -27.5610  -13.2030   19.8280 C   0  0  0  0  0  3  0  0  0  0  0  0
  -28.6170  -13.3140   20.9540 C   0  0  0  0  0  2  0  0  0  0  0  0
  -29.8870  -13.6780   20.3160 N   0  0  0  0  0  0  0  0  0  0  0  0
  -31.8020  -14.7890   20.1040 O   0  0  0  0  0  0  0  0  0  0  0  0
  -27.3970  -22.4210   19.5020 C   0  0  0  0  0  3  0  0  0  0  0  0
  -28.3370  -23.4850   19.6220 C   0  0  0  0  0  0  0  0  0  0  0  0
  -29.5920  -22.9760   20.0600 C   0  0  0  0  0  0  0  0  0  0  0  0
  -28.8890  -20.7150   20.1140 C   0  0  0  0  0  0  0  0  0  0  0  0
  -30.5120  -18.7740   20.7060 C   0  0  0  0  0  3  0  0  0  0  0  0
  -28.2670  -18.1530   20.0700 C   0  0  0  0  0  3  0  0  0  0  0  0
  -30.9150  -17.3660   20.0950 C   0  0  0  0  0  3  0  0  0  0  0  0
  -28.6680  -16.7100   20.6810 C   0  0  0  0  0  3  0  0  0  0  0  0
  -27.6630  -21.0900   19.7370 N   0  0  0  0  0  0  0  0  0  0  0  0
  -29.8410  -21.6380   20.2980 N   0  0  0  0  0  0  0  0  0  0  0  0
  -29.1980  -19.2960   20.2860 N   0  0  0  0  0  0  0  0  0  0  0  0
  -30.0370  -16.1780   20.3900 N   0  0  0  0  0  0  0  0  0  0  0  0
  -25.1940  -13.7760   20.6140 C   0  0  0  0  0  0  0  0  0  0  0  0
  -24.1340  -12.9940   20.9820 C   0  0  0  0  0  0  0  0  0  0  0  0
  -24.5980  -11.6440   20.9190 C   0  0  0  0  0  0  0  0  0  0  0  0
  -26.2340  -12.9020   20.3440 N   0  0  0  0  0  0  0  0  0  0  0  0
  -25.8860  -11.6140   20.5960 N   0  0  0  0  0  0  0  0  0  0  0  0
  -23.8730  -10.3790   21.0890 C   0  0  0  0  0  0  0  0  0  0  0  0
  -24.3000   -9.4020   22.0150 C   0  0  0  0  0  3  0  0  0  0  0  0
  -23.5740   -8.2030   22.1750 C   0  0  0  0  0  3  0  0  0  0  0  0
  -22.4070   -7.9710   21.4080 C   0  0  0  0  0  0  0  0  0  0  0  0
  -21.9990   -8.9380   20.4710 C   0  0  0  0  0  3  0  0  0  0  0  0
  -22.7270  -10.1290   20.3100 C   0  0  0  0  0  3  0  0  0  0  0  0
  -21.6530   -6.8250   21.4770 O   0  0  0  0  0  0  0  0  0  0  0  0
  -21.5660   -6.0890   22.6310 C   0  0  0  0  0  0  0  0  0  0  0  0
  -21.1040   -6.6520   23.8410 C   0  0  0  0  0  3  0  0  0  0  0  0
  -20.9660   -5.8440   24.9860 C   0  0  0  0  0  3  0  0  0  0  0  0
  -21.2780   -4.4720   24.9220 C   0  0  0  0  0  0  0  0  0  0  0  0
  -21.7330   -3.9090   23.7170 C   0  0  0  0  0  3  0  0  0  0  0  0
  -21.8740   -4.7150   22.5750 C   0  0  0  0  0  0  0  0  0  0  0  0
  -22.2920   -4.1620   21.4110 F   0  0  0  0  0  0  0  0  0  0  0  0
  -21.1380   -3.6930   26.0210 F   0  0  0  0  0  0  0  0  0  0  0  0
  -22.7410  -13.4670   21.2740 C   0  0  0  0  0  0  0  0  0  0  0  0
  -22.0220  -12.7590   22.1370 N   0  0  0  0  0  0  0  0  0  0  0  0
  -22.2980  -14.5000   20.7720 O   0  0  0  0  0  0  0  0  0  0  0  0
  -22.3930  -11.9240   22.5640 H   0  0  0  0  0  0  0  0  0  0  0  0
  -21.0870  -13.0580   22.3760 H   0  0  0  0  0  0  0  0  0  0  0  0
  -25.3500  -15.1480   20.4570 N   0  0  0  0  0  0  0  0  0  0  0  0
  -24.5770  -15.7920   20.5830 H   0  0  0  0  0  0  0  0  0  0  0  0
  -26.1780  -15.5910   20.0860 H   0  0  0  0  0  0  0  0  0  0  0  0
  -31.5370  -23.9470   21.5210 C   0  0  0  0  0  2  0  0  0  0  0  0
  -30.7210  -25.1220   21.0500 C   0  0  0  0  0  2  0  0  0  0  0  0
  -30.7890  -23.8660   20.2090 C   0  0  0  0  0  3  0  0  0  0  0  0
  -28.0750  -24.9480   18.9780 C   0  0  0  0  0  2  0  0  0  0  0  0
  -28.0850  -26.2870   19.6880 O   0  0  0  0  0  0  0  0  0  0  0  0
  -24.5260  -31.7110   23.0100 C   0  0  0  0  0  0  0  0  0  0  0  0
  -26.9980  -27.2090   19.6640 C   0  0  0  0  0  0  0  0  0  0  0  0
  -23.2670  -30.3960   21.3490 C   0  0  0  0  0  3  0  0  0  0  0  0
  -24.6610  -28.9040   19.8020 C   0  0  0  0  0  0  0  0  0  0  0  0
  -25.8100  -30.6860   21.1080 C   0  0  0  0  0  2  0  0  0  0  0  0
  -25.8570  -29.3340   20.3890 C   0  0  0  0  0  0  0  0  0  0  0  0
  -27.0230  -28.4990   20.3110 C   0  0  0  0  0  3  0  0  0  0  0  0
  -25.7670  -26.8560   19.0640 C   0  0  0  0  0  3  0  0  0  0  0  0
  -24.6240  -27.6750   19.1300 C   0  0  0  0  0  3  0  0  0  0  0  0
  -23.4360  -29.7890   19.9320 C   0  0  0  0  0  2  0  0  0  0  0  0
  -24.5550  -30.9480   21.8780 N   0  0  0  0  0  0  0  0  0  0  0  0
  -23.4600  -31.9710   23.5890 O   0  0  0  0  0  0  0  0  0  0  0  0
  -22.6250  -29.3400   22.2820 C   0  0  0  0  0  0  0  0  0  0  0  0
  -21.2900  -29.1940   22.2090 N   0  0  0  0  0  0  0  0  0  0  0  0
  -23.3260  -28.6580   23.0340 O   0  0  0  0  0  0  0  0  0  0  0  0
  -20.7820  -29.7970   21.5770 H   0  0  0  0  0  0  0  0  0  0  0  0
  -17.9160  -28.0280   22.8080 C   0  0  0  0  0  0  0  0  0  0  0  0
  -20.4880  -28.2290   22.9660 C   0  0  0  0  0  3  0  0  0  0  0  0
  -20.5340  -26.8300   22.3090 C   0  0  0  0  0  2  0  0  0  0  0  0
  -19.3800  -26.5840   21.3330 C   0  0  0  0  0  2  0  0  0  0  0  0
  -18.0330  -26.7160   22.0500 C   0  0  0  0  0  2  0  0  0  0  0  0
  -19.0680  -28.7460   23.2240 C   0  0  0  0  0  0  0  0  0  0  0  0
  -18.9010  -29.9760   23.8960 C   0  0  0  0  0  3  0  0  0  0  0  0
  -17.6160  -30.4880   24.1540 C   0  0  0  0  0  3  0  0  0  0  0  0
  -16.4780  -29.7660   23.7510 C   0  0  0  0  0  3  0  0  0  0  0  0
  -16.6290  -28.5380   23.0840 C   0  0  0  0  0  3  0  0  0  0  0  0
  -25.8280  -32.3140   23.6220 C   0  0  0  0  0  3  0  0  0  0  0  0
  -25.5230  -33.6840   24.0570 N   0  0  0  0  0  0  0  0  0  0  0  0
  -25.8430  -34.7920   23.3740 C   0  0  0  0  0  0  0  0  0  0  0  0
  -26.4940  -34.7650   22.3260 O   0  0  0  0  0  0  0  0  0  0  0  0
  -24.9410  -33.7790   24.8780 H   0  0  0  0  0  0  0  0  0  0  0  0
  -24.1170  -36.6120   23.1800 C   0  0  0  0  0  1  0  0  0  0  0  0
  -25.3660  -36.1430   23.9420 C   0  0  0  0  0  3  0  0  0  0  0  0
  -27.5140  -36.9580   24.8110 C   0  0  0  0  0  1  0  0  0  0  0  0
  -26.4010  -37.2000   23.8970 N   0  0  0  0  0  0  0  0  0  0  0  0
  -26.0000  -38.1070   24.1190 H   0  0  0  0  0  0  0  0  0  0  0  0
  -26.3970  -31.4660   24.8250 C   0  0  1  0  0  0  0  0  0  0  0  0
  -25.3520  -31.1650   25.9260 C   0  0  0  0  0  1  0  0  0  0  0  0
  -26.9580  -30.1130   24.3280 C   0  0  0  0  0  1  0  0  0  0  0  0
  -27.5800  -32.2180   25.4820 C   0  0  0  0  0  1  0  0  0  0  0  0
  1 20  1  0
  2  7  1  0
  3  4  1  0
  3  2  1  0
  5  4  1  0
  5 24  1  0
  5  6  1  0
  7  1  1  0
  7  6  1  0
  8  1  2  0
  9 10  2  0
  9 17  1  0
 10 11  1  0
 11 51  1  0
 11 18  2  0
 12 19  1  0
 12 18  1  0
 14 19  1  0
 14 16  2  0
 15 20  1  0
 15 13  2  0
 17 12  2  0
 19 13  1  0
 20 16  1  0
 21 22  2  0
 22 41  1  0
 23 22  1  0
 23 26  1  0
 24 25  1  0
 24 21  1  0
 25 23  2  0
 26 27  1  0
 27 28  2  0
 29 32  1  0
 29 28  1  0
 30 29  2  0
 31 30  1  0
 31 26  2  0
 32 33  1  0
 33 34  1  0
 34 35  2  0
 36 35  1  0
 36 40  1  0
 37 36  2  0
 38 33  2  0
 38 37  1  0
 39 38  1  0
 41 42  1  0
 42 45  1  0
 42 44  1  0
 43 41  2  0
 46 47  1  0
 46 21  1  0
 48 46  1  0
 50 49  1  0
 51 50  1  0
 51 49  1  0
 52 10  1  0
 52 53  1  0
 54 65  2  0
 55 53  1  0
 55 60  1  0
 56 64  1  0
 56 66  1  0
 57 63  1  0
 57 59  1  0
 58 64  1  0
 59 58  1  0
 60 59  2  0
 61 62  1  0
 61 55  2  0
 62 57  2  0
 63 56  1  0
 64 54  1  0
 66 68  2  0
 67 66  1  0
 69 67  1  0
 70 79  2  0
 70 75  1  0
 71 67  1  0
 71 75  1  0
 72 71  1  0
 73 74  1  0
 73 72  1  0
 74 70  1  0
 75 76  2  0
 76 77  1  0
 78 77  2  0
 79 78  1  0
 80 54  1  0
 80 81  1  0
 80 90  1  0
 81 84  1  0
 82 86  1  0
 82 81  1  0
 83 82  2  0
 86 85  1  0
 88 86  1  0
 88 89  1  0
 88 87  1  0
 90 93  1  1
 90 91  1  0
 92 90  1  0
M  ISO  4   1 100  20 100  52 101  53 101
M  END
>  <TORSDO>  (61) 
F 17

>  <SCORE>  (61) 
-14.218

>  <name>  (61) 
60

>  <ligand_id>  (61) 
60

>  <original_smiles>  (61) 
[H]c1nc(N2C([H])([H])C([H])([H])N(C(=O)N3C([H])([H])C([H])([H])C([H])([H])C([H])(n4nc(-c5c([H])c([H])c(Oc6c([H])c([H])c(F)c([H])c6F)c([H])c5[H])c(C(=O)N([H])[H])c4N([H])[H])C3([H])[H])C([H])([H])C2([H])[H])nc(C2([H])C([H])([H])C2([H])[H])c1C([H])([H])Oc1c([H])c([H])c2c(c1[H])C([H])([H])N(C(=O)C([H])(N([H])C(=O)C([H])(N([H])C([H])([H])[H])C([H])([H])[H])C(C([H])([H])[H])(C([H])([H])[H])C([H])([H])[H])C([H])(C(=O)N([H])C1([H])c3c([H])c([H])c([H])c([H])c3C([H])([H])C([H])([H])C1([H])[H])C2([H])[H]

>  <smiles>  (61) 
[H]c1nc(N2C([H])([H])C([H])([H])N(C(=O)N3C([H])([H])C([H])([H])C([H])([H])C([H])(n4nc(-c5c([H])c([H])c(Oc6c([H])c([H])c(F)c([H])c6F)c([H])c5[H])c(C(=O)N([H])[H])c4N([H])[H])C3([H])[H])C([H])([H])C2([H])[H])nc(C2([H])C([H])([H])C2([H])[H])c1C([H])([H])Oc1c([H])c([H])c2c(c1[H])C([H])([H])N(C(=O)C([H])(N([H])C(=O)C([H])(N([H])C([H])([H])[H])C([H])([H])[H])C(C([H])([H])[H])(C([H])([H])[H])C([H])([H])[H])C([H])(C(=O)N([H])C1([H])c3c([H])c([H])c([H])c([H])c3C([H])([H])C([H])([H])C1([H])[H])C2([H])[H]

$$$$
61:0:0
     RDKit          3D

 90 99  0  0  1  0  0  0  0  0999 V2000
  -27.8680  -21.3330   19.7850 C   0  0  0  0  0  2  0  0  0  0  0  0
  -29.0800  -20.7820   20.3120 C   0  0  0  0  0  0  0  0  0  0  0  0
  -28.5890  -23.5690   20.0430 C   0  0  0  0  0  0  0  0  0  0  0  0
  -27.6350  -22.6890   19.6590 N   0  0  0  0  0  0  0  0  0  0  0  0
  -29.9790  -21.7430   20.7160 N   0  0  0  0  0  0  0  0  0  0  0  0
  -29.7560  -23.0940   20.5680 N   0  0  0  0  0  2  0  0  0  0  0  0
  -30.6840  -14.9100   20.2620 C   0  0  0  0  0  0  0  0  0  0  0  0
  -30.3780  -12.6130   19.2860 C   0  0  0  0  0  2  0  0  0  0  0  0
  -29.4320  -12.5980   18.0700 C   0  0  0  0  0  2  0  0  0  0  0  0
  -27.9850  -12.3740   18.5390 C   0  0  0  0  0  2  0  0  0  0  0  0
  -27.6030  -13.3100   19.7110 C   0  0  0  0  0  3  0  0  0  0  0  0
  -28.6830  -13.3700   20.8180 C   0  0  0  0  0  2  0  0  0  0  0  0
  -29.9490  -13.7330   20.1740 N   0  0  0  0  0  0  0  0  0  0  0  0
  -31.8840  -14.8240   19.9830 O   0  0  0  0  0  0  0  0  0  0  0  0
  -30.5880  -18.7920   21.0780 C   0  0  0  0  0  3  0  0  0  0  0  0
  -28.5300  -18.2500   19.8870 C   0  0  0  0  0  3  0  0  0  0  0  0
  -31.1040  -17.3900   20.5210 C   0  0  0  0  0  3  0  0  0  0  0  0
  -28.7670  -16.7660   20.4640 C   0  0  0  0  0  3  0  0  0  0  0  0
  -29.3870  -19.3420   20.4180 N   0  0  0  0  0  0  0  0  0  0  0  0
  -30.1590  -16.2170   20.4680 N   0  0  0  0  0  0  0  0  0  0  0  0
  -25.2500  -13.9020   20.5200 C   0  0  0  0  0  0  0  0  0  0  0  0
  -24.1900  -13.1270   20.9020 C   0  0  0  0  0  0  0  0  0  0  0  0
  -24.6500  -11.7760   20.8460 C   0  0  0  0  0  0  0  0  0  0  0  0
  -26.2810  -13.0200   20.2450 N   0  0  0  0  0  0  0  0  0  0  0  0
  -25.9330  -11.7370   20.5130 N   0  0  0  0  0  0  0  0  0  0  0  0
  -23.9250  -10.5130   21.0320 C   0  0  0  0  0  0  0  0  0  0  0  0
  -24.3590   -9.5420   21.9610 C   0  0  0  0  0  3  0  0  0  0  0  0
  -23.6340   -8.3440   22.1360 C   0  0  0  0  0  3  0  0  0  0  0  0
  -22.4600   -8.1100   21.3800 C   0  0  0  0  0  0  0  0  0  0  0  0
  -22.0450   -9.0690   20.4390 C   0  0  0  0  0  3  0  0  0  0  0  0
  -22.7720  -10.2590   20.2630 C   0  0  0  0  0  3  0  0  0  0  0  0
  -21.7050   -6.9650   21.4650 O   0  0  0  0  0  0  0  0  0  0  0  0
  -21.6350   -6.2350   22.6230 C   0  0  0  0  0  0  0  0  0  0  0  0
  -21.1460   -6.7890   23.8270 C   0  0  0  0  0  3  0  0  0  0  0  0
  -21.0260   -5.9820   24.9760 C   0  0  0  0  0  3  0  0  0  0  0  0
  -21.3860   -4.6220   24.9230 C   0  0  0  0  0  0  0  0  0  0  0  0
  -21.8680   -4.0670   23.7240 C   0  0  0  0  0  3  0  0  0  0  0  0
  -21.9890   -4.8710   22.5770 C   0  0  0  0  0  0  0  0  0  0  0  0
  -22.4350   -4.3270   21.4190 F   0  0  0  0  0  0  0  0  0  0  0  0
  -21.2630   -3.8440   26.0230 F   0  0  0  0  0  0  0  0  0  0  0  0
  -22.8000  -13.6060   21.2030 C   0  0  0  0  0  0  0  0  0  0  0  0
  -22.0810  -12.8970   22.0650 N   0  0  0  0  0  0  0  0  0  0  0  0
  -22.3620  -14.6440   20.7070 O   0  0  0  0  0  0  0  0  0  0  0  0
  -22.4480  -12.0570   22.4860 H   0  0  0  0  0  0  0  0  0  0  0  0
  -21.1490  -13.2010   22.3100 H   0  0  0  0  0  0  0  0  0  0  0  0
  -25.4140  -15.2740   20.3560 N   0  0  0  0  0  0  0  0  0  0  0  0
  -24.6490  -15.9260   20.4910 H   0  0  0  0  0  0  0  0  0  0  0  0
  -26.2530  -15.7130   20.0040 H   0  0  0  0  0  0  0  0  0  0  0  0
  -28.4740  -25.0960   19.4880 C   0  0  0  0  0  2  0  0  0  0  0  0
  -28.3180  -26.3760   20.2950 O   0  0  0  0  0  0  0  0  0  0  0  0
  -24.5970  -31.9120   23.2160 C   0  0  0  0  0  0  0  0  0  0  0  0
  -27.2210  -27.2770   20.1820 C   0  0  0  0  0  0  0  0  0  0  0  0
  -23.4050  -30.5070   21.5750 C   0  0  0  0  0  3  0  0  0  0  0  0
  -24.8640  -28.9500   20.1540 C   0  0  0  0  0  0  0  0  0  0  0  0
  -25.9510  -30.8080   21.4080 C   0  0  0  0  0  2  0  0  0  0  0  0
  -26.0340  -29.4210   20.7610 C   0  0  0  0  0  0  0  0  0  0  0  0
  -27.2090  -28.5970   20.7660 C   0  0  0  0  0  3  0  0  0  0  0  0
  -26.0180  -26.8780   19.5540 C   0  0  0  0  0  3  0  0  0  0  0  0
  -24.8640  -27.6880   19.5400 C   0  0  0  0  0  3  0  0  0  0  0  0
  -23.6290  -29.8300   20.1970 C   0  0  0  0  0  2  0  0  0  0  0  0
  -24.6700  -31.0960   22.1220 N   0  0  0  0  0  0  0  0  0  0  0  0
  -23.5080  -32.1900   23.7420 O   0  0  0  0  0  0  0  0  0  0  0  0
  -22.7360  -29.4950   22.5370 C   0  0  0  0  0  0  0  0  0  0  0  0
  -21.4080  -29.3210   22.4110 N   0  0  0  0  0  0  0  0  0  0  0  0
  -23.4110  -28.8680   23.3580 O   0  0  0  0  0  0  0  0  0  0  0  0
  -20.9210  -29.8790   21.7230 H   0  0  0  0  0  0  0  0  0  0  0  0
  -18.0250  -28.1450   22.9340 C   0  0  0  0  0  0  0  0  0  0  0  0
  -20.5870  -28.3840   23.1820 C   0  0  0  0  0  3  0  0  0  0  0  0
  -20.6730  -26.9560   22.5960 C   0  0  0  0  0  2  0  0  0  0  0  0
  -19.5600  -26.6490   21.5890 C   0  0  0  0  0  2  0  0  0  0  0  0
  -18.1850  -26.8000   22.2470 C   0  0  0  0  0  2  0  0  0  0  0  0
  -19.1520  -28.8960   23.3590 C   0  0  0  0  0  0  0  0  0  0  0  0
  -18.9480  -30.1550   23.9650 C   0  0  0  0  0  3  0  0  0  0  0  0
  -17.6470  -30.6630   24.1480 C   0  0  0  0  0  3  0  0  0  0  0  0
  -16.5340  -29.9090   23.7380 C   0  0  0  0  0  3  0  0  0  0  0  0
  -16.7230  -28.6520   23.1360 C   0  0  0  0  0  3  0  0  0  0  0  0
  -25.8720  -32.5520   23.8430 C   0  0  0  0  0  3  0  0  0  0  0  0
  -25.5550  -33.9530   24.1650 N   0  0  0  0  0  0  0  0  0  0  0  0
  -25.8940  -35.0050   23.4080 C   0  0  0  0  0  0  0  0  0  0  0  0
  -26.5720  -34.9000   22.3820 O   0  0  0  0  0  0  0  0  0  0  0  0
  -24.9510  -34.1090   24.9580 H   0  0  0  0  0  0  0  0  0  0  0  0
  -24.1800  -36.8090   23.0220 C   0  0  0  0  0  1  0  0  0  0  0  0
  -25.4020  -36.3950   23.8580 C   0  0  0  0  0  3  0  0  0  0  0  0
  -27.5180  -37.2760   24.7420 C   0  0  0  0  0  1  0  0  0  0  0  0
  -26.4410  -37.4450   23.7700 N   0  0  0  0  0  0  0  0  0  0  0  0
  -26.0350  -38.3660   23.9030 H   0  0  0  0  0  0  0  0  0  0  0  0
  -26.3780  -31.7910   25.1310 C   0  0  1  0  0  0  0  0  0  0  0  0
  -25.2760  -31.5570   26.1900 C   0  0  0  0  0  1  0  0  0  0  0  0
  -26.9700  -30.4140   24.7560 C   0  0  0  0  0  1  0  0  0  0  0  0
  -27.5200  -32.5950   25.7990 C   0  0  0  0  0  1  0  0  0  0  0  0
  1  2  1  0
  2 19  1  0
  2  5  2  0
  3  6  1  0
  4  1  1  0
  4  3  2  0
  6  5  1  0
  7 20  1  0
  8 13  1  0
  9 10  1  0
  9  8  1  0
 11 10  1  0
 11 24  1  0
 11 12  1  0
 13  7  1  0
 13 12  1  0
 14  7  2  0
 16 19  1  0
 16 18  2  0
 17 15  2  0
 18 20  1  0
 19 15  1  0
 20 17  1  0
 21 22  2  0
 22 41  1  0
 23 22  1  0
 23 26  1  0
 24 25  1  0
 24 21  1  0
 25 23  2  0
 26 27  1  0
 27 28  2  0
 29 32  1  0
 29 28  1  0
 30 29  2  0
 31 30  1  0
 31 26  2  0
 32 33  1  0
 33 34  1  0
 34 35  2  0
 36 35  1  0
 36 40  1  0
 37 36  2  0
 38 33  2  0
 38 37  1  0
 39 38  1  0
 41 42  1  0
 42 45  1  0
 42 44  1  0
 43 41  2  0
 46 47  1  0
 46 21  1  0
 48 46  1  0
 49  3  1  0
 49 50  1  0
 51 62  2  0
 52 50  1  0
 52 57  1  0
 53 61  1  0
 53 63  1  0
 54 60  1  0
 54 56  1  0
 55 61  1  0
 56 57  2  0
 56 55  1  0
 58 52  2  0
 59 58  1  0
 59 54  2  0
 60 53  1  0
 61 51  1  0
 63 65  2  0
 64 63  1  0
 66 64  1  0
 67 76  2  0
 67 72  1  0
 68 64  1  0
 68 72  1  0
 69 68  1  0
 70 71  1  0
 70 69  1  0
 71 67  1  0
 72 73  2  0
 73 74  1  0
 75 74  2  0
 76 75  1  0
 77 51  1  0
 77 78  1  0
 77 87  1  0
 78 81  1  0
 79 83  1  0
 79 78  1  0
 80 79  2  0
 83 82  1  0
 85 83  1  0
 85 86  1  0
 85 84  1  0
 87 90  1  1
 87 88  1  0
 89 87  1  0
M  ISO  4   7 100  20 100  49 101  50 101
M  END
>  <TORSDO>  (62) 
F 17

>  <SCORE>  (62) 
-15.345

>  <name>  (62) 
61

>  <ligand_id>  (62) 
61

>  <original_smiles>  (62) 
[H]c1nc(C([H])([H])Oc2c([H])c([H])c3c(c2[H])C([H])([H])N(C(=O)C([H])(N([H])C(=O)C([H])(N([H])C([H])([H])[H])C([H])([H])[H])C(C([H])([H])[H])(C([H])([H])[H])C([H])([H])[H])C([H])(C(=O)N([H])C2([H])c4c([H])c([H])c([H])c([H])c4C([H])([H])C([H])([H])C2([H])[H])C3([H])[H])nnc1N1C([H])([H])C([H])([H])N(C(=O)N2C([H])([H])C([H])([H])C([H])([H])C([H])(n3nc(-c4c([H])c([H])c(Oc5c([H])c([H])c(F)c([H])c5F)c([H])c4[H])c(C(=O)N([H])[H])c3N([H])[H])C2([H])[H])C([H])([H])C1([H])[H]

>  <smiles>  (62) 
[H]c1nc(C([H])([H])Oc2c([H])c([H])c3c(c2[H])C([H])([H])N(C(=O)C([H])(N([H])C(=O)C([H])(N([H])C([H])([H])[H])C([H])([H])[H])C(C([H])([H])[H])(C([H])([H])[H])C([H])([H])[H])C([H])(C(=O)N([H])C2([H])c4c([H])c([H])c([H])c([H])c4C([H])([H])C([H])([H])C2([H])[H])C3([H])[H])nnc1N1C([H])([H])C([H])([H])N(C(=O)N2C([H])([H])C([H])([H])C([H])([H])C([H])(n3nc(-c4c([H])c([H])c(Oc5c([H])c([H])c(F)c([H])c5F)c([H])c4[H])c(C(=O)N([H])[H])c3N([H])[H])C2([H])[H])C([H])([H])C1([H])[H]

$$$$
62:0:0
     RDKit          3D

 93102  0  0  1  0  0  0  0  0999 V2000
  -29.4740  -20.5170   18.7250 C   0  0  0  0  0  2  0  0  0  0  0  0
  -29.5090  -21.9960   18.3480 C   0  0  0  0  0  2  0  0  0  0  0  0
  -29.4170  -21.9550   20.6530 C   0  0  0  0  0  2  0  0  0  0  0  0
  -29.8950  -20.5200   20.1850 C   0  0  0  0  0  3  0  0  0  0  0  0
  -28.8910  -22.7020   19.4800 N   0  0  0  0  0  0  0  0  0  0  0  0
  -29.3620  -19.3250   20.9340 N   0  0  0  0  0  4  0  0  0  0  0  0
  -29.3330  -19.6250   21.8960 H   0  0  0  0  0  0  0  0  0  0  0  0
  -28.4050  -19.1490   20.6730 H   0  0  0  0  0  0  0  0  0  0  0  0
  -30.7390  -14.5310   20.0920 C   0  0  0  0  0  0  0  0  0  0  0  0
  -30.3450  -12.3970   18.8900 C   0  0  0  0  0  2  0  0  0  0  0  0
  -29.3280  -12.6310   17.7530 C   0  0  0  0  0  2  0  0  0  0  0  0
  -27.8860  -12.4830   18.2750 C   0  0  0  0  0  2  0  0  0  0  0  0
  -27.6390  -13.2810   19.5840 C   0  0  0  0  0  3  0  0  0  0  0  0
  -28.7640  -13.0340   20.6130 C   0  0  0  0  0  2  0  0  0  0  0  0
  -30.0430  -13.3590   19.9650 N   0  0  0  0  0  0  0  0  0  0  0  0
  -31.8230  -14.7100   19.5280 O   0  0  0  0  0  0  0  0  0  0  0  0
  -30.2240  -17.3970   22.3400 C   0  0  0  0  0  2  0  0  0  0  0  0
  -30.6500  -15.9430   22.0760 C   0  0  0  0  0  2  0  0  0  0  0  0
  -29.6610  -16.8240   20.1120 C   0  0  0  0  0  2  0  0  0  0  0  0
  -30.1650  -18.0410   20.9580 C   0  0  0  0  0  3  0  0  0  0  0  0
  -30.1290  -15.5590   20.7580 N   0  0  0  0  0  0  0  0  0  0  0  0
  -25.2950  -13.8790   20.4530 C   0  0  0  0  0  0  0  0  0  0  0  0
  -24.2460  -13.1030   20.8680 C   0  0  0  0  0  0  0  0  0  0  0  0
  -24.6970  -11.7500   20.7810 C   0  0  0  0  0  0  0  0  0  0  0  0
  -26.3180  -12.9980   20.1400 N   0  0  0  0  0  0  0  0  0  0  0  0
  -25.9660  -11.7120   20.3950 N   0  0  0  0  0  0  0  0  0  0  0  0
  -23.9740  -10.4870   20.9870 C   0  0  0  0  0  0  0  0  0  0  0  0
  -24.4390   -9.5100   21.8940 C   0  0  0  0  0  3  0  0  0  0  0  0
  -23.7180   -8.3130   22.0890 C   0  0  0  0  0  3  0  0  0  0  0  0
  -22.5160   -8.0850   21.3770 C   0  0  0  0  0  0  0  0  0  0  0  0
  -22.0700   -9.0500   20.4590 C   0  0  0  0  0  3  0  0  0  0  0  0
  -22.7910  -10.2400   20.2610 C   0  0  0  0  0  3  0  0  0  0  0  0
  -21.7630   -6.9410   21.4830 O   0  0  0  0  0  0  0  0  0  0  0  0
  -21.7300   -6.2050   22.6410 C   0  0  0  0  0  0  0  0  0  0  0  0
  -21.3400   -6.7720   23.8740 C   0  0  0  0  0  3  0  0  0  0  0  0
  -21.2550   -5.9630   25.0250 C   0  0  0  0  0  3  0  0  0  0  0  0
  -21.5470   -4.5890   24.9440 C   0  0  0  0  0  0  0  0  0  0  0  0
  -21.9310   -4.0220   23.7160 C   0  0  0  0  0  3  0  0  0  0  0  0
  -22.0190   -4.8270   22.5670 C   0  0  0  0  0  0  0  0  0  0  0  0
  -22.3670   -4.2710   21.3820 F   0  0  0  0  0  0  0  0  0  0  0  0
  -21.4580   -3.8100   26.0470 F   0  0  0  0  0  0  0  0  0  0  0  0
  -22.8710  -13.5820   21.2340 C   0  0  0  0  0  0  0  0  0  0  0  0
  -22.1950  -12.8770   22.1350 N   0  0  0  0  0  0  0  0  0  0  0  0
  -22.4050  -14.6170   20.7570 O   0  0  0  0  0  0  0  0  0  0  0  0
  -22.5850  -12.0390   22.5420 H   0  0  0  0  0  0  0  0  0  0  0  0
  -21.2760  -13.1790   22.4230 H   0  0  0  0  0  0  0  0  0  0  0  0
  -25.4580  -15.2510   20.2930 N   0  0  0  0  0  0  0  0  0  0  0  0
  -24.7030  -15.9090   20.4580 H   0  0  0  0  0  0  0  0  0  0  0  0
  -26.2900  -15.6880   19.9210 H   0  0  0  0  0  0  0  0  0  0  0  0
  -28.7020  -24.6920   17.9950 C   0  0  0  0  0  1  0  0  0  0  0  0
  -29.0910  -24.1960   19.4060 C   0  0  0  0  0  3  0  0  0  0  0  0
  -28.3100  -25.0860   20.4450 C   0  0  0  0  0  2  0  0  0  0  0  0
  -28.4460  -26.5380   20.2430 O   0  0  0  0  0  0  0  0  0  0  0  0
  -24.6150  -31.8390   23.2000 C   0  0  0  0  0  0  0  0  0  0  0  0
  -27.2950  -27.3250   20.1940 C   0  0  0  0  0  0  0  0  0  0  0  0
  -23.4340  -30.4230   21.5550 C   0  0  0  0  0  3  0  0  0  0  0  0
  -24.9110  -28.8820   20.1500 C   0  0  0  0  0  0  0  0  0  0  0  0
  -25.9680  -30.7760   21.3870 C   0  0  0  0  0  2  0  0  0  0  0  0
  -26.0660  -29.3970   20.7520 C   0  0  0  0  0  0  0  0  0  0  0  0
  -27.2630  -28.6300   20.7620 C   0  0  0  0  0  3  0  0  0  0  0  0
  -26.1240  -26.8540   19.5610 C   0  0  0  0  0  3  0  0  0  0  0  0
  -24.9400  -27.6150   19.5450 C   0  0  0  0  0  3  0  0  0  0  0  0
  -23.6640  -29.7400   20.1810 C   0  0  0  0  0  2  0  0  0  0  0  0
  -24.6900  -31.0280   22.1050 N   0  0  0  0  0  0  0  0  0  0  0  0
  -23.5260  -32.1100   23.7260 O   0  0  0  0  0  0  0  0  0  0  0  0
  -22.7750  -29.4050   22.5150 C   0  0  0  0  0  0  0  0  0  0  0  0
  -21.4540  -29.2110   22.3710 N   0  0  0  0  0  0  0  0  0  0  0  0
  -23.4510  -28.7930   23.3450 O   0  0  0  0  0  0  0  0  0  0  0  0
  -20.9690  -29.7560   21.6720 H   0  0  0  0  0  0  0  0  0  0  0  0
  -18.0870  -27.9700   22.8140 C   0  0  0  0  0  0  0  0  0  0  0  0
  -20.6340  -28.2720   23.1390 C   0  0  0  0  0  3  0  0  0  0  0  0
  -20.7710  -26.8350   22.5860 C   0  0  0  0  0  2  0  0  0  0  0  0
  -19.6960  -26.4800   21.5520 C   0  0  0  0  0  2  0  0  0  0  0  0
  -18.2980  -26.6130   22.1640 C   0  0  0  0  0  2  0  0  0  0  0  0
  -19.1840  -28.7550   23.2580 C   0  0  0  0  0  0  0  0  0  0  0  0
  -18.9320  -30.0240   23.8250 C   0  0  0  0  0  3  0  0  0  0  0  0
  -17.6160  -30.5080   23.9520 C   0  0  0  0  0  3  0  0  0  0  0  0
  -16.5330  -29.7190   23.5270 C   0  0  0  0  0  3  0  0  0  0  0  0
  -16.7700  -28.4510   22.9640 C   0  0  0  0  0  3  0  0  0  0  0  0
  -25.8900  -32.4820   23.8290 C   0  0  0  0  0  3  0  0  0  0  0  0
  -26.4120  -31.7070   25.1020 C   0  0  1  0  0  0  0  0  0  0  0  0
  -25.3200  -31.4510   26.1660 C   0  0  0  0  0  1  0  0  0  0  0  0
  -27.0100  -30.3380   24.7020 C   0  0  0  0  0  1  0  0  0  0  0  0
  -27.5530  -32.5080   25.7710 C   0  0  0  0  0  1  0  0  0  0  0  0
  -25.5650  -33.8730   24.1670 N   0  0  0  0  0  0  0  0  0  0  0  0
  -25.8870  -34.9330   23.4130 C   0  0  0  0  0  0  0  0  0  0  0  0
  -26.5600  -34.8420   22.3830 O   0  0  0  0  0  0  0  0  0  0  0  0
  -24.9660  -34.0160   24.9670 H   0  0  0  0  0  0  0  0  0  0  0  0
  -24.1360  -36.7060   23.0660 C   0  0  0  0  0  1  0  0  0  0  0  0
  -25.3820  -36.3140   23.8760 C   0  0  0  0  0  3  0  0  0  0  0  0
  -27.5090  -37.2200   24.7060 C   0  0  0  0  0  1  0  0  0  0  0  0
  -26.4020  -37.3790   23.7660 N   0  0  0  0  0  0  0  0  0  0  0  0
  -25.9850  -38.2940   23.9180 H   0  0  0  0  0  0  0  0  0  0  0  0
  1  4  1  0
  2  1  1  0
  2  5  1  0
  4  3  1  0
  4  6  1  0
  5  3  1  0
  6  7  1  0
  8  6  1  0
  9 21  1  0
 10 15  1  0
 11 12  1  0
 11 10  1  0
 13 12  1  0
 13 25  1  0
 13 14  1  0
 15  9  1  0
 15 14  1  0
 16  9  2  0
 18 17  1  0
 19 21  1  0
 19 20  1  0
 20  6  1  0
 20 17  1  0
 21 18  1  0
 22 23  2  0
 23 42  1  0
 24 23  1  0
 24 27  1  0
 25 26  1  0
 25 22  1  0
 26 24  2  0
 27 28  1  0
 28 29  2  0
 30 33  1  0
 30 29  1  0
 31 30  2  0
 32 31  1  0
 32 27  2  0
 33 34  1  0
 34 35  1  0
 35 36  2  0
 37 36  1  0
 37 41  1  0
 38 37  2  0
 39 34  2  0
 39 38  1  0
 40 39  1  0
 42 43  1  0
 43 46  1  0
 43 45  1  0
 44 42  2  0
 47 22  1  0
 47 48  1  0
 49 47  1  0
 51 50  1  0
 51  5  1  0
 51 52  1  0
 53 52  1  0
 54 65  2  0
 55 53  1  0
 55 60  1  0
 56 64  1  0
 56 66  1  0
 57 63  1  0
 57 59  1  0
 58 64  1  0
 59 60  2  0
 59 58  1  0
 61 55  2  0
 62 61  1  0
 62 57  2  0
 63 56  1  0
 64 54  1  0
 66 68  2  0
 67 66  1  0
 69 67  1  0
 70 79  2  0
 70 75  1  0
 71 67  1  0
 71 75  1  0
 72 71  1  0
 73 74  1  0
 73 72  1  0
 74 70  1  0
 75 76  2  0
 76 77  1  0
 78 77  2  0
 79 78  1  0
 80 54  1  0
 80 85  1  0
 80 81  1  0
 81 84  1  1
 81 82  1  0
 83 81  1  0
 85 88  1  0
 86 90  1  0
 86 85  1  0
 87 86  2  0
 90 89  1  0
 92 90  1  0
 92 93  1  0
 92 91  1  0
M  ISO  4   9 100  21 100  52 101  53 101
M  END
>  <TORSDO>  (63) 
F 19

>  <SCORE>  (63) 
-14.105

>  <name>  (63) 
62

>  <ligand_id>  (63) 
62

>  <original_smiles>  (63) 
[H]c1c([H])c([H])c2c(c1[H])C([H])([H])C([H])([H])C([H])([H])C2([H])N([H])C(=O)C1([H])N(C(=O)C([H])(N([H])C(=O)C([H])(N([H])C([H])([H])[H])C([H])([H])[H])C(C([H])([H])[H])(C([H])([H])[H])C([H])([H])[H])C([H])([H])c2c([H])c(OC([H])([H])C([H])(N3C([H])([H])C([H])([H])C([H])([N+]([H])([H])C4([H])C([H])([H])N(C(=O)N5C([H])([H])C([H])([H])C([H])([H])C([H])(n6nc(-c7c([H])c([H])c(Oc8c([H])c([H])c(F)c([H])c8F)c([H])c7[H])c(C(=O)N([H])[H])c6N([H])[H])C5([H])[H])C([H])([H])C4([H])[H])C3([H])[H])C([H])([H])[H])c([H])c([H])c2C1([H])[H]

>  <smiles>  (63) 
[H]c1c([H])c([H])c2c(c1[H])C([H])([H])C([H])([H])C([H])([H])C2([H])N([H])C(=O)C1([H])N(C(=O)C([H])(N([H])C(=O)C([H])(N([H])C([H])([H])[H])C([H])([H])[H])C(C([H])([H])[H])(C([H])([H])[H])C([H])([H])[H])C([H])([H])c2c([H])c(OC([H])([H])C([H])(N3C([H])([H])C([H])([H])C([H])([N+]([H])([H])C4([H])C([H])([H])N(C(=O)N5C([H])([H])C([H])([H])C([H])([H])C([H])(n6nc(-c7c([H])c([H])c(Oc8c([H])c([H])c(F)c([H])c8F)c([H])c7[H])c(C(=O)N([H])[H])c6N([H])[H])C5([H])[H])C([H])([H])C4([H])[H])C3([H])[H])C([H])([H])[H])c([H])c([H])c2C1([H])[H]

$$$$
63:0:0
     RDKit          3D

 98108  0  0  1  0  0  0  0  0999 V2000
  -30.0450  -21.4410   19.9020 C   0  0  0  0  0  3  0  0  0  0  0  0
  -29.6120  -22.7500   19.5600 C   0  0  0  0  0  3  0  0  0  0  0  0
  -27.9890  -21.0900   21.1280 C   0  0  0  0  0  3  0  0  0  0  0  0
  -27.5470  -22.3980   20.8020 C   0  0  0  0  0  0  0  0  0  0  0  0
  -29.2420  -20.5900   20.7000 C   0  0  0  0  0  0  0  0  0  0  0  0
  -28.3650  -23.2540   20.0150 C   0  0  0  0  0  0  0  0  0  0  0  0
  -26.1890  -22.8760   21.2720 C   0  0  0  0  0  0  0  0  0  0  0  0
  -27.0980  -25.1450   20.9930 C   0  0  0  0  0  2  0  0  0  0  0  0
  -27.8560  -24.6940   19.7340 C   0  0  0  0  0  3  0  0  0  0  0  0
  -26.0010  -24.2190   21.3140 N   0  0  0  0  0  0  0  0  0  0  0  0
  -25.3240  -22.0550   21.5950 O   0  0  0  0  0  0  0  0  0  0  0  0
  -31.0280  -15.1400   20.3170 C   0  0  0  0  0  0  0  0  0  0  0  0
  -30.7910  -12.8910   19.2740 C   0  0  0  0  0  2  0  0  0  0  0  0
  -29.8620  -12.9340   18.0430 C   0  0  0  0  0  2  0  0  0  0  0  0
  -28.3890  -12.7580   18.4560 C   0  0  0  0  0  2  0  0  0  0  0  0
  -28.0040  -13.6800   19.6350 C   0  0  0  0  0  3  0  0  0  0  0  0
  -29.0500  -13.5730   20.7790 C   0  0  0  0  0  2  0  0  0  0  0  0
  -30.3550  -13.9460   20.2200 N   0  0  0  0  0  0  0  0  0  0  0  0
  -32.1590  -15.2330   19.8210 O   0  0  0  0  0  0  0  0  0  0  0  0
  -28.7890  -18.0600   20.5050 C   0  0  0  0  0  2  0  0  0  0  0  0
  -31.1240  -18.7170   20.9490 C   0  0  0  0  0  2  0  0  0  0  0  0
  -29.0890  -16.6700   21.1240 C   0  0  0  0  0  2  0  0  0  0  0  0
  -31.3750  -17.2940   21.5480 C   0  0  0  0  0  2  0  0  0  0  0  0
  -29.6540  -19.1590   21.1380 C   0  0  0  0  0  3  0  0  0  0  0  0
  -30.5000  -16.2340   20.9860 N   0  0  0  0  0  0  0  0  0  0  0  0
  -25.6350  -14.3460   20.3910 C   0  0  0  0  0  0  0  0  0  0  0  0
  -24.5420  -13.5960   20.7330 C   0  0  0  0  0  0  0  0  0  0  0  0
  -24.9600  -12.2320   20.6450 C   0  0  0  0  0  0  0  0  0  0  0  0
  -26.6470  -13.4390   20.1130 N   0  0  0  0  0  0  0  0  0  0  0  0
  -26.2440  -12.1620   20.3250 N   0  0  0  0  0  0  0  0  0  0  0  0
  -24.1970  -10.9880   20.7860 C   0  0  0  0  0  0  0  0  0  0  0  0
  -24.6180   -9.9570   21.6530 C   0  0  0  0  0  3  0  0  0  0  0  0
  -23.8570   -8.7740   21.7770 C   0  0  0  0  0  3  0  0  0  0  0  0
  -22.6660   -8.6140   21.0320 C   0  0  0  0  0  0  0  0  0  0  0  0
  -22.2630   -9.6370   20.1540 C   0  0  0  0  0  3  0  0  0  0  0  0
  -23.0230  -10.8100   20.0260 C   0  0  0  0  0  3  0  0  0  0  0  0
  -21.8710   -7.4950   21.0740 O   0  0  0  0  0  0  0  0  0  0  0  0
  -21.8300   -6.6860   22.1810 C   0  0  0  0  0  0  0  0  0  0  0  0
  -21.4620   -7.1800   23.4510 C   0  0  0  0  0  3  0  0  0  0  0  0
  -21.3640   -6.3010   24.5470 C   0  0  0  0  0  3  0  0  0  0  0  0
  -21.6250   -4.9280   24.3770 C   0  0  0  0  0  0  0  0  0  0  0  0
  -21.9910   -4.4320   23.1110 C   0  0  0  0  0  3  0  0  0  0  0  0
  -22.0890   -5.3090   22.0170 C   0  0  0  0  0  0  0  0  0  0  0  0
  -22.4200   -4.8260   20.7950 F   0  0  0  0  0  0  0  0  0  0  0  0
  -21.5240   -4.0800   25.4270 F   0  0  0  0  0  0  0  0  0  0  0  0
  -23.1650  -14.1090   21.0340 C   0  0  0  0  0  0  0  0  0  0  0  0
  -22.4210  -13.4170   21.8890 N   0  0  0  0  0  0  0  0  0  0  0  0
  -22.7540  -15.1620   20.5440 O   0  0  0  0  0  0  0  0  0  0  0  0
  -22.7560  -12.5650   22.3150 H   0  0  0  0  0  0  0  0  0  0  0  0
  -21.4940  -13.7480   22.1170 H   0  0  0  0  0  0  0  0  0  0  0  0
  -25.8300  -15.7170   20.2750 N   0  0  0  0  0  0  0  0  0  0  0  0
  -25.0810  -16.3780   20.4470 H   0  0  0  0  0  0  0  0  0  0  0  0
  -26.6910  -16.1620   19.9860 H   0  0  0  0  0  0  0  0  0  0  0  0
  -23.9320  -25.1650   20.3320 C   0  0  0  0  0  1  0  0  0  0  0  0
  -24.8210  -26.0060   22.6240 C   0  0  0  0  0  1  0  0  0  0  0  0
  -24.6930  -24.8270   21.6280 C   0  0  0  0  0  3  0  0  0  0  0  0
  -28.9060  -25.7590   19.2720 C   0  0  0  0  0  2  0  0  0  0  0  0
  -28.6740  -27.1970   19.4090 O   0  0  0  0  0  0  0  0  0  0  0  0
  -24.7180  -31.7800   23.1120 C   0  0  0  0  0  0  0  0  0  0  0  0
  -27.4520  -27.8620   19.4120 C   0  0  0  0  0  0  0  0  0  0  0  0
  -23.5130  -30.5420   21.3390 C   0  0  0  0  0  3  0  0  0  0  0  0
  -24.9810  -29.2630   19.6720 C   0  0  0  0  0  0  0  0  0  0  0  0
  -26.0080  -31.0380   21.1070 C   0  0  0  0  0  2  0  0  0  0  0  0
  -26.1320  -29.7640   20.2880 C   0  0  0  0  0  0  0  0  0  0  0  0
  -27.3610  -29.0750   20.1500 C   0  0  0  0  0  3  0  0  0  0  0  0
  -26.2880  -27.4010   18.7620 C   0  0  0  0  0  3  0  0  0  0  0  0
  -25.0590  -28.0890   18.8980 C   0  0  0  0  0  3  0  0  0  0  0  0
  -23.7010  -30.0470   19.8760 C   0  0  0  0  0  2  0  0  0  0  0  0
  -24.7650  -31.1290   21.9120 N   0  0  0  0  0  0  0  0  0  0  0  0
  -23.6490  -31.9340   23.7200 O   0  0  0  0  0  0  0  0  0  0  0  0
  -22.9350  -29.3860   22.1870 C   0  0  0  0  0  0  0  0  0  0  0  0
  -21.6160  -29.1620   22.0780 N   0  0  0  0  0  0  0  0  0  0  0  0
  -23.6740  -28.6990   22.9000 O   0  0  0  0  0  0  0  0  0  0  0  0
  -21.0780  -29.7810   21.4870 H   0  0  0  0  0  0  0  0  0  0  0  0
  -18.3150  -27.7530   22.5170 C   0  0  0  0  0  0  0  0  0  0  0  0
  -20.8670  -28.0920   22.7370 C   0  0  0  0  0  3  0  0  0  0  0  0
  -21.0010  -26.7730   21.9550 C   0  0  0  0  0  2  0  0  0  0  0  0
  -19.8730  -26.5230   20.9520 C   0  0  0  0  0  2  0  0  0  0  0  0
  -18.5190  -26.5130   21.6610 C   0  0  0  0  0  2  0  0  0  0  0  0
  -19.4180  -28.5010   23.0080 C   0  0  0  0  0  0  0  0  0  0  0  0
  -19.1740  -29.6620   23.7700 C   0  0  0  0  0  3  0  0  0  0  0  0
  -17.8610  -30.0760   24.0490 C   0  0  0  0  0  3  0  0  0  0  0  0
  -16.7710  -29.3250   23.5730 C   0  0  0  0  0  3  0  0  0  0  0  0
  -17.0010  -28.1640   22.8120 C   0  0  0  0  0  3  0  0  0  0  0  0
  -26.0020  -32.3820   23.7690 C   0  0  0  0  0  3  0  0  0  0  0  0
  -25.6720  -33.7380   24.2230 N   0  0  0  0  0  0  0  0  0  0  0  0
  -25.9480  -34.8590   23.5410 C   0  0  0  0  0  0  0  0  0  0  0  0
  -26.5790  -34.8550   22.4800 O   0  0  0  0  0  0  0  0  0  0  0  0
  -25.1060  -33.8130   25.0560 H   0  0  0  0  0  0  0  0  0  0  0  0
  -24.1490  -36.6130   23.4110 C   0  0  0  0  0  1  0  0  0  0  0  0
  -25.4410  -36.1900   24.1280 C   0  0  0  0  0  3  0  0  0  0  0  0
  -27.5860  -37.0870   24.9230 C   0  0  0  0  0  1  0  0  0  0  0  0
  -26.4330  -37.2840   24.0480 N   0  0  0  0  0  0  0  0  0  0  0  0
  -26.0020  -38.1760   24.2860 H   0  0  0  0  0  0  0  0  0  0  0  0
  -26.5580  -31.5150   24.9650 C   0  0  1  0  0  0  0  0  0  0  0  0
  -25.4880  -31.1720   26.0280 C   0  0  0  0  0  1  0  0  0  0  0  0
  -27.1530  -30.1860   24.4450 C   0  0  0  0  0  1  0  0  0  0  0  0
  -27.7030  -32.2730   25.6750 C   0  0  0  0  0  1  0  0  0  0  0  0
  1  5  1  0
  2  1  2  0
  2  6  1  0
  4  3  1  0
  4  7  1  0
  5  3  2  0
  6  4  2  0
  7 10  1  0
  7 11  2  0
  8 10  1  0
  9 57  1  0
  9  6  1  0
  9  8  1  0
 10 56  1  0
 12 25  1  0
 13 18  1  0
 14 15  1  0
 14 13  1  0
 16 15  1  0
 16 29  1  0
 16 17  1  0
 18 12  1  0
 18 17  1  0
 19 12  2  0
 20 22  1  0
 20 24  1  0
 21 24  1  0
 21 23  1  0
 24  5  1  0
 25 22  1  0
 25 23  1  0
 26 27  2  0
 27 46  1  0
 28 27  1  0
 28 31  1  0
 29 30  1  0
 29 26  1  0
 30 28  2  0
 31 32  1  0
 32 33  2  0
 34 37  1  0
 34 33  1  0
 35 34  2  0
 36 35  1  0
 36 31  2  0
 37 38  1  0
 38 39  1  0
 39 40  2  0
 41 40  1  0
 41 45  1  0
 42 41  2  0
 43 38  2  0
 43 42  1  0
 44 43  1  0
 46 47  1  0
 47 50  1  0
 47 49  1  0
 48 46  2  0
 51 26  1  0
 51 52  1  0
 53 51  1  0
 54 56  1  0
 56 55  1  0
 57 58  1  0
 58 60  1  0
 59 70  2  0
 60 65  1  0
 61 69  1  0
 61 71  1  0
 62 68  1  0
 62 64  1  0
 63 69  1  0
 64 63  1  0
 65 64  2  0
 66 67  1  0
 66 60  2  0
 67 62  2  0
 68 61  1  0
 69 59  1  0
 71 73  2  0
 72 71  1  0
 74 72  1  0
 75 84  2  0
 75 80  1  0
 76 72  1  0
 76 80  1  0
 77 76  1  0
 78 79  1  0
 78 77  1  0
 79 75  1  0
 80 81  2  0
 81 82  1  0
 83 82  2  0
 84 83  1  0
 85 59  1  0
 85 86  1  0
 85 95  1  0
 86 89  1  0
 87 91  1  0
 87 86  1  0
 88 87  2  0
 91 90  1  0
 93 91  1  0
 93 94  1  0
 93 92  1  0
 95 98  1  1
 95 96  1  0
 97 95  1  0
M  ISO  4  12 100  25 100  57 101  58 101
M  END
>  <TORSDO>  (64) 
F 18

>  <SCORE>  (64) 
-11.153

>  <name>  (64) 
63

>  <ligand_id>  (64) 
63

>  <original_smiles>  (64) 
[H]c1c([H])c([H])c2c(c1[H])C([H])([H])C([H])([H])C([H])([H])C2([H])N([H])C(=O)C1([H])N(C(=O)C([H])(N([H])C(=O)C([H])(N([H])C([H])([H])[H])C([H])([H])[H])C(C([H])([H])[H])(C([H])([H])[H])C([H])([H])[H])C([H])([H])c2c([H])c(OC([H])([H])C3([H])c4c([H])c([H])c(C5([H])C([H])([H])C([H])([H])N(C(=O)N6C([H])([H])C([H])([H])C([H])([H])C([H])(n7nc(-c8c([H])c([H])c(Oc9c([H])c([H])c(F)c([H])c9F)c([H])c8[H])c(C(=O)N([H])[H])c7N([H])[H])C6([H])[H])C([H])([H])C5([H])[H])c([H])c4C(=O)N(C([H])(C([H])([H])[H])C([H])([H])[H])C3([H])[H])c([H])c([H])c2C1([H])[H]

>  <smiles>  (64) 
[H]c1c([H])c([H])c2c(c1[H])C([H])([H])C([H])([H])C([H])([H])C2([H])N([H])C(=O)C1([H])N(C(=O)C([H])(N([H])C(=O)C([H])(N([H])C([H])([H])[H])C([H])([H])[H])C(C([H])([H])[H])(C([H])([H])[H])C([H])([H])[H])C([H])([H])c2c([H])c(OC([H])([H])C3([H])c4c([H])c([H])c(C5([H])C([H])([H])C([H])([H])N(C(=O)N6C([H])([H])C([H])([H])C([H])([H])C([H])(n7nc(-c8c([H])c([H])c(Oc9c([H])c([H])c(F)c([H])c9F)c([H])c8[H])c(C(=O)N([H])[H])c7N([H])[H])C6([H])[H])C([H])([H])C5([H])[H])c([H])c4C(=O)N(C([H])(C([H])([H])[H])C([H])([H])[H])C3([H])[H])c([H])c([H])c2C1([H])[H]

$$$$
64:0:0
     RDKit          3D

 93102  0  0  1  0  0  0  0  0999 V2000
  -28.9800  -22.8170   22.5920 C   0  0  0  0  0  1  0  0  0  0  0  0
  -28.7670  -22.5100   21.0990 C   0  0  0  0  0  3  0  0  0  0  0  0
  -30.1060  -20.2650   20.9030 C   0  0  0  0  0  3  0  0  0  0  0  0
  -28.9710  -21.0320   20.8350 C   0  0  0  0  0  0  0  0  0  0  0  0
  -27.8990  -20.1840   20.5500 N   0  0  0  0  0  0  0  0  0  0  0  0
  -28.3240  -18.9640   20.4220 N   0  0  0  0  0  0  0  0  0  0  0  0
  -29.6590  -18.9780   20.6490 N   0  0  0  0  0  0  0  0  0  0  0  0
  -31.0230  -14.6190   20.1190 C   0  0  0  0  0  0  0  0  0  0  0  0
  -30.7240  -12.3990   19.1010 C   0  0  0  0  0  2  0  0  0  0  0  0
  -29.7650  -12.5550   17.9030 C   0  0  0  0  0  2  0  0  0  0  0  0
  -28.2950  -12.4510   18.3580 C   0  0  0  0  0  2  0  0  0  0  0  0
  -27.9800  -13.3500   19.5850 C   0  0  0  0  0  3  0  0  0  0  0  0
  -29.0500  -13.1740   20.6870 C   0  0  0  0  0  2  0  0  0  0  0  0
  -30.3660  -13.4310   20.0810 N   0  0  0  0  0  0  0  0  0  0  0  0
  -32.1750  -14.7700   19.7030 O   0  0  0  0  0  0  0  0  0  0  0  0
  -30.2210  -16.8370   19.3560 C   0  0  0  0  0  2  0  0  0  0  0  0
  -30.1610  -16.5490   21.4520 C   0  0  0  0  0  2  0  0  0  0  0  0
  -30.4270  -17.7580   20.5500 C   0  0  0  0  0  3  0  0  0  0  0  0
  -30.2030  -15.6820   20.2670 N   0  0  0  0  0  0  0  0  0  0  0  0
  -25.6150  -14.0190   20.3520 C   0  0  0  0  0  0  0  0  0  0  0  0
  -24.5340  -13.2710   20.7390 C   0  0  0  0  0  0  0  0  0  0  0  0
  -24.9600  -11.9090   20.6910 C   0  0  0  0  0  0  0  0  0  0  0  0
  -26.6310  -13.1100   20.0940 N   0  0  0  0  0  0  0  0  0  0  0  0
  -26.2410  -11.8370   20.3550 N   0  0  0  0  0  0  0  0  0  0  0  0
  -24.2070  -10.6640   20.8910 C   0  0  0  0  0  0  0  0  0  0  0  0
  -24.6020   -9.7090   21.8520 C   0  0  0  0  0  3  0  0  0  0  0  0
  -23.8520   -8.5270   22.0380 C   0  0  0  0  0  3  0  0  0  0  0  0
  -22.6920   -8.2940   21.2600 C   0  0  0  0  0  0  0  0  0  0  0  0
  -22.3170   -9.2370   20.2880 C   0  0  0  0  0  3  0  0  0  0  0  0
  -23.0670  -10.4100   20.1010 C   0  0  0  0  0  3  0  0  0  0  0  0
  -21.9170   -7.1640   21.3530 O   0  0  0  0  0  0  0  0  0  0  0  0
  -21.7730   -6.4850   22.5360 C   0  0  0  0  0  0  0  0  0  0  0  0
  -21.2710   -7.1100   23.7000 C   0  0  0  0  0  3  0  0  0  0  0  0
  -21.0750   -6.3570   24.8740 C   0  0  0  0  0  3  0  0  0  0  0  0
  -21.3700   -4.9820   24.8870 C   0  0  0  0  0  0  0  0  0  0  0  0
  -21.8640   -4.3560   23.7290 C   0  0  0  0  0  3  0  0  0  0  0  0
  -22.0620   -5.1060   22.5560 C   0  0  0  0  0  0  0  0  0  0  0  0
  -22.5190   -4.4930   21.4370 F   0  0  0  0  0  0  0  0  0  0  0  0
  -21.1740   -4.2560   26.0130 F   0  0  0  0  0  0  0  0  0  0  0  0
  -23.1560  -13.7820   21.0470 C   0  0  0  0  0  0  0  0  0  0  0  0
  -22.4370  -13.1060   21.9360 N   0  0  0  0  0  0  0  0  0  0  0  0
  -22.7270  -14.8150   20.5330 O   0  0  0  0  0  0  0  0  0  0  0  0
  -22.7980  -12.2710   22.3730 H   0  0  0  0  0  0  0  0  0  0  0  0
  -21.5130  -13.4310   22.1840 H   0  0  0  0  0  0  0  0  0  0  0  0
  -25.8140  -15.3850   20.1800 N   0  0  0  0  0  0  0  0  0  0  0  0
  -25.0750  -16.0660   20.3170 H   0  0  0  0  0  0  0  0  0  0  0  0
  -26.6840  -15.8000   19.8700 H   0  0  0  0  0  0  0  0  0  0  0  0
  -29.6500  -23.3140   20.2210 N   0  0  0  0  0  4  0  0  0  0  0  0
  -30.5470  -23.4360   20.6620 H   0  0  0  0  0  0  0  0  0  0  0  0
  -29.8080  -22.7240   19.4190 H   0  0  0  0  0  0  0  0  0  0  0  0
  -29.1230  -24.6090   19.6960 C   0  0  0  0  0  2  0  0  0  0  0  0
  -29.0340  -25.7510   20.7340 C   0  0  0  0  0  2  0  0  0  0  0  0
  -28.9510  -27.0410   20.1170 O   0  0  0  0  0  0  0  0  0  0  0  0
  -24.7090  -31.8080   23.2700 C   0  0  0  0  0  0  0  0  0  0  0  0
  -27.7230  -27.6600   20.1380 C   0  0  0  0  0  0  0  0  0  0  0  0
  -23.6460  -30.4020   21.5330 C   0  0  0  0  0  3  0  0  0  0  0  0
  -25.2380  -29.0030   20.1140 C   0  0  0  0  0  0  0  0  0  0  0  0
  -26.1470  -30.9200   21.4390 C   0  0  0  0  0  2  0  0  0  0  0  0
  -26.3380  -29.5800   20.7600 C   0  0  0  0  0  0  0  0  0  0  0  0
  -27.5850  -28.9180   20.7640 C   0  0  0  0  0  3  0  0  0  0  0  0
  -26.6070  -27.0880   19.4910 C   0  0  0  0  0  3  0  0  0  0  0  0
  -25.3660  -27.7550   19.4790 C   0  0  0  0  0  3  0  0  0  0  0  0
  -23.9420  -29.7830   20.1410 C   0  0  0  0  0  2  0  0  0  0  0  0
  -24.8490  -31.0570   22.1410 N   0  0  0  0  0  0  0  0  0  0  0  0
  -23.5960  -31.9960   23.7800 O   0  0  0  0  0  0  0  0  0  0  0  0
  -23.0220  -29.3110   22.4310 C   0  0  0  0  0  0  0  0  0  0  0  0
  -21.7130  -29.0690   22.2580 N   0  0  0  0  0  0  0  0  0  0  0  0
  -23.7140  -28.6840   23.2380 O   0  0  0  0  0  0  0  0  0  0  0  0
  -21.2150  -29.6310   21.5800 H   0  0  0  0  0  0  0  0  0  0  0  0
  -18.3830  -27.7170   22.6260 C   0  0  0  0  0  0  0  0  0  0  0  0
  -20.9220  -28.0600   22.9620 C   0  0  0  0  0  3  0  0  0  0  0  0
  -21.0940  -26.6680   22.3130 C   0  0  0  0  0  2  0  0  0  0  0  0
  -20.0240  -26.3570   21.2620 C   0  0  0  0  0  2  0  0  0  0  0  0
  -18.6260  -26.4130   21.8850 C   0  0  0  0  0  2  0  0  0  0  0  0
  -19.4630  -28.4980   23.1170 C   0  0  0  0  0  0  0  0  0  0  0  0
  -19.1830  -29.7200   23.7670 C   0  0  0  0  0  3  0  0  0  0  0  0
  -17.8560  -30.1610   23.9320 C   0  0  0  0  0  3  0  0  0  0  0  0
  -16.7910  -29.3760   23.4580 C   0  0  0  0  0  3  0  0  0  0  0  0
  -17.0550  -28.1570   22.8100 C   0  0  0  0  0  3  0  0  0  0  0  0
  -25.9340  -32.4840   23.9610 C   0  0  0  0  0  3  0  0  0  0  0  0
  -26.4190  -31.7220   25.2550 C   0  0  1  0  0  0  0  0  0  0  0  0
  -25.2820  -31.4180   26.2590 C   0  0  0  0  0  1  0  0  0  0  0  0
  -27.0880  -30.3810   24.8770 C   0  0  0  0  0  1  0  0  0  0  0  0
  -27.4920  -32.5620   25.9870 C   0  0  0  0  0  1  0  0  0  0  0  0
  -25.5520  -33.8660   24.2840 N   0  0  0  0  0  0  0  0  0  0  0  0
  -25.8810  -34.9360   23.5480 C   0  0  0  0  0  0  0  0  0  0  0  0
  -26.6080  -34.8670   22.5530 O   0  0  0  0  0  0  0  0  0  0  0  0
  -24.9090  -33.9890   25.0520 H   0  0  0  0  0  0  0  0  0  0  0  0
  -24.1010  -36.6570   23.1130 C   0  0  0  0  0  1  0  0  0  0  0  0
  -25.3140  -36.2990   23.9860 C   0  0  0  0  0  3  0  0  0  0  0  0
  -27.3640  -37.2640   24.9300 C   0  0  0  0  0  1  0  0  0  0  0  0
  -26.3060  -37.3950   23.9320 N   0  0  0  0  0  0  0  0  0  0  0  0
  -25.8560  -38.2970   24.0620 H   0  0  0  0  0  0  0  0  0  0  0  0
  2  1  1  0
  4  3  2  0
  4  2  1  0
  5  4  1  0
  6  5  2  0
  6  7  1  0
  7  3  1  0
  8 19  1  0
  9 14  1  0
 10 11  1  0
 10  9  1  0
 12 11  1  0
 12 23  1  0
 12 13  1  0
 14  8  1  0
 14 13  1  0
 15  8  2  0
 16 19  1  0
 18 16  1  0
 18  7  1  0
 18 17  1  0
 19 17  1  0
 20 21  2  0
 21 40  1  0
 22 21  1  0
 22 25  1  0
 23 20  1  0
 23 24  1  0
 24 22  2  0
 25 26  1  0
 26 27  2  0
 28 31  1  0
 28 27  1  0
 29 28  2  0
 30 29  1  0
 30 25  2  0
 31 32  1  0
 32 37  2  0
 32 33  1  0
 33 34  2  0
 34 35  1  0
 35 39  1  0
 36 35  2  0
 37 36  1  0
 38 37  1  0
 40 41  1  0
 41 44  1  0
 41 43  1  0
 42 40  2  0
 45 46  1  0
 45 20  1  0
 47 45  1  0
 48 49  1  0
 48  2  1  0
 50 48  1  0
 51 48  1  0
 51 52  1  0
 53 55  1  0
 53 52  1  0
 54 65  2  0
 55 60  1  0
 56 64  1  0
 56 66  1  0
 57 63  1  0
 57 59  1  0
 58 64  1  0
 59 60  2  0
 59 58  1  0
 61 55  2  0
 62 61  1  0
 62 57  2  0
 63 56  1  0
 64 54  1  0
 66 68  2  0
 67 66  1  0
 69 67  1  0
 70 79  2  0
 70 75  1  0
 71 67  1  0
 71 75  1  0
 72 71  1  0
 73 74  1  0
 73 72  1  0
 74 70  1  0
 75 76  2  0
 76 77  1  0
 78 77  2  0
 79 78  1  0
 80 54  1  0
 80 85  1  0
 80 81  1  0
 81 84  1  1
 81 82  1  0
 83 81  1  0
 85 88  1  0
 86 90  1  0
 86 85  1  0
 87 86  2  0
 90 89  1  0
 92 90  1  0
 92 93  1  0
 92 91  1  0
M  ISO  4   8 100  19 100  52 101  53 101
M  END
>  <TORSDO>  (65) 
F 20

>  <SCORE>  (65) 
-13.532

>  <name>  (65) 
64

>  <ligand_id>  (65) 
64

>  <original_smiles>  (65) 
[H]c1c([H])c([H])c2c(c1[H])C([H])([H])C([H])([H])C([H])([H])C2([H])N([H])C(=O)C1([H])N(C(=O)C([H])(N([H])C(=O)C([H])(N([H])C([H])([H])[H])C([H])([H])[H])C(C([H])([H])[H])(C([H])([H])[H])C([H])([H])[H])C([H])([H])c2c([H])c(OC([H])([H])C([H])([H])[N+]([H])([H])C([H])(c3nnn(C4([H])C([H])([H])N(C(=O)N5C([H])([H])C([H])([H])C([H])([H])C([H])(n6nc(-c7c([H])c([H])c(Oc8c([H])c([H])c(F)c([H])c8F)c([H])c7[H])c(C(=O)N([H])[H])c6N([H])[H])C5([H])[H])C4([H])[H])c3[H])C([H])([H])[H])c([H])c([H])c2C1([H])[H]

>  <smiles>  (65) 
[H]c1c([H])c([H])c2c(c1[H])C([H])([H])C([H])([H])C([H])([H])C2([H])N([H])C(=O)C1([H])N(C(=O)C([H])(N([H])C(=O)C([H])(N([H])C([H])([H])[H])C([H])([H])[H])C(C([H])([H])[H])(C([H])([H])[H])C([H])([H])[H])C([H])([H])c2c([H])c(OC([H])([H])C([H])([H])[N+]([H])([H])C([H])(c3nnn(C4([H])C([H])([H])N(C(=O)N5C([H])([H])C([H])([H])C([H])([H])C([H])(n6nc(-c7c([H])c([H])c(Oc8c([H])c([H])c(F)c([H])c8F)c([H])c7[H])c(C(=O)N([H])[H])c6N([H])[H])C5([H])[H])C4([H])[H])c3[H])C([H])([H])[H])c([H])c([H])c2C1([H])[H]

$$$$
65:0:0
     RDKit          3D

 88 96  0  0  1  0  0  0  0  0999 V2000
  -28.6120  -21.6890   20.3880 C   0  0  0  0  0  2  0  0  0  0  0  0
  -29.6490  -20.4830   20.2940 N   0  0  0  0  0  4  0  0  0  0  0  0
  -30.0660  -20.5330   19.3780 H   0  0  0  0  0  0  0  0  0  0  0  0
  -30.3850  -20.7200   20.9400 H   0  0  0  0  0  0  0  0  0  0  0  0
  -30.5480  -15.0480   20.2710 C   0  0  0  0  0  0  0  0  0  0  0  0
  -30.3740  -12.6970   19.3220 C   0  0  0  0  0  2  0  0  0  0  0  0
  -29.4260  -12.6140   18.1060 C   0  0  0  0  0  2  0  0  0  0  0  0
  -27.9800  -12.3640   18.5710 C   0  0  0  0  0  2  0  0  0  0  0  0
  -27.5680  -13.2980   19.7340 C   0  0  0  0  0  3  0  0  0  0  0  0
  -28.6440  -13.3870   20.8400 C   0  0  0  0  0  2  0  0  0  0  0  0
  -29.8940  -13.8120   20.1920 N   0  0  0  0  0  0  0  0  0  0  0  0
  -31.7700  -15.0210   20.0870 O   0  0  0  0  0  0  0  0  0  0  0  0
  -28.3490  -18.2100   19.6660 C   0  0  0  0  0  2  0  0  0  0  0  0
  -28.5190  -16.6590   19.9180 C   0  0  0  0  0  2  0  0  0  0  0  0
  -30.4650  -17.7520   20.5440 C   0  0  0  0  0  2  0  0  0  0  0  0
  -29.3330  -18.9440   20.5810 C   0  0  0  0  0  3  0  0  0  0  0  0
  -29.8820  -16.3230   20.3800 N   0  0  0  0  0  0  0  0  0  0  0  0
  -25.2000  -13.8710   20.5110 C   0  0  0  0  0  0  0  0  0  0  0  0
  -24.1450  -13.0920   20.8870 C   0  0  0  0  0  0  0  0  0  0  0  0
  -24.6130  -11.7430   20.8420 C   0  0  0  0  0  0  0  0  0  0  0  0
  -26.2440  -12.9960   20.2570 N   0  0  0  0  0  0  0  0  0  0  0  0
  -25.9020  -11.7120   20.5230 N   0  0  0  0  0  0  0  0  0  0  0  0
  -23.8940  -10.4790   21.0250 C   0  0  0  0  0  0  0  0  0  0  0  0
  -24.3200   -9.5160   21.9660 C   0  0  0  0  0  3  0  0  0  0  0  0
  -23.5980   -8.3160   22.1370 C   0  0  0  0  0  3  0  0  0  0  0  0
  -22.4370   -8.0700   21.3670 C   0  0  0  0  0  0  0  0  0  0  0  0
  -22.0310   -9.0210   20.4150 C   0  0  0  0  0  3  0  0  0  0  0  0
  -22.7530  -10.2130   20.2410 C   0  0  0  0  0  3  0  0  0  0  0  0
  -21.6890   -6.9210   21.4470 O   0  0  0  0  0  0  0  0  0  0  0  0
  -21.6050   -6.1990   22.6110 C   0  0  0  0  0  0  0  0  0  0  0  0
  -21.1140   -6.7670   23.8070 C   0  0  0  0  0  3  0  0  0  0  0  0
  -20.9790   -5.9700   24.9610 C   0  0  0  0  0  3  0  0  0  0  0  0
  -21.3240   -4.6060   24.9200 C   0  0  0  0  0  0  0  0  0  0  0  0
  -21.8090   -4.0380   23.7290 C   0  0  0  0  0  3  0  0  0  0  0  0
  -21.9460   -4.8310   22.5760 C   0  0  0  0  0  0  0  0  0  0  0  0
  -22.3930   -4.2740   21.4250 F   0  0  0  0  0  0  0  0  0  0  0  0
  -21.1870   -3.8370   26.0250 F   0  0  0  0  0  0  0  0  0  0  0  0
  -22.7490  -13.5640   21.1700 C   0  0  0  0  0  0  0  0  0  0  0  0
  -22.0300  -12.8600   22.0370 N   0  0  0  0  0  0  0  0  0  0  0  0
  -22.3060  -14.5920   20.6590 O   0  0  0  0  0  0  0  0  0  0  0  0
  -22.4020  -12.0290   22.4710 H   0  0  0  0  0  0  0  0  0  0  0  0
  -21.0930  -13.1590   22.2710 H   0  0  0  0  0  0  0  0  0  0  0  0
  -25.3470  -15.2430   20.3310 N   0  0  0  0  0  0  0  0  0  0  0  0
  -24.5640  -15.8790   20.4380 H   0  0  0  0  0  0  0  0  0  0  0  0
  -26.1700  -15.6850   19.9470 H   0  0  0  0  0  0  0  0  0  0  0  0
  -29.0320  -23.3370   20.2920 C   0  0  0  0  0  3  0  0  0  0  0  0
  -27.9540  -24.6450   20.2310 C   0  0  0  0  0  3  0  0  0  0  0  0
  -28.2370  -26.1870   20.2540 O   0  0  0  0  0  0  0  0  0  0  0  0
  -24.6210  -31.8990   23.2420 C   0  0  0  0  0  0  0  0  0  0  0  0
  -27.1770  -27.1720   20.2040 C   0  0  0  0  0  0  0  0  0  0  0  0
  -23.4110  -30.5070   21.6090 C   0  0  0  0  0  3  0  0  0  0  0  0
  -24.8500  -28.9270   20.1800 C   0  0  0  0  0  0  0  0  0  0  0  0
  -25.9650  -30.7640   21.4330 C   0  0  0  0  0  2  0  0  0  0  0  0
  -26.0340  -29.3710   20.7810 C   0  0  0  0  0  0  0  0  0  0  0  0
  -27.1990  -28.5120   20.7720 C   0  0  0  0  0  3  0  0  0  0  0  0
  -25.9620  -26.8320   19.5670 C   0  0  0  0  0  3  0  0  0  0  0  0
  -24.8280  -27.6710   19.5570 C   0  0  0  0  0  3  0  0  0  0  0  0
  -23.6250  -29.8270   20.2300 C   0  0  0  0  0  2  0  0  0  0  0  0
  -24.6860  -31.0780   22.1500 N   0  0  0  0  0  0  0  0  0  0  0  0
  -23.5370  -32.1860   23.7740 O   0  0  0  0  0  0  0  0  0  0  0  0
  -22.7320  -29.5010   22.5730 C   0  0  0  0  0  0  0  0  0  0  0  0
  -21.4030  -29.3330   22.4480 N   0  0  0  0  0  0  0  0  0  0  0  0
  -23.4030  -28.8750   23.3970 O   0  0  0  0  0  0  0  0  0  0  0  0
  -20.9180  -29.8870   21.7570 H   0  0  0  0  0  0  0  0  0  0  0  0
  -18.0200  -28.1410   22.9630 C   0  0  0  0  0  0  0  0  0  0  0  0
  -20.5800  -28.3980   23.2220 C   0  0  0  0  0  3  0  0  0  0  0  0
  -20.6770  -26.9650   22.6490 C   0  0  0  0  0  2  0  0  0  0  0  0
  -19.5720  -26.6430   21.6390 C   0  0  0  0  0  2  0  0  0  0  0  0
  -18.1940  -26.7900   22.2890 C   0  0  0  0  0  2  0  0  0  0  0  0
  -19.1410  -28.9020   23.3870 C   0  0  0  0  0  0  0  0  0  0  0  0
  -18.9240  -30.1650   23.9800 C   0  0  0  0  0  3  0  0  0  0  0  0
  -17.6210  -30.6650   24.1530 C   0  0  0  0  0  3  0  0  0  0  0  0
  -16.5140  -29.9020   23.7440 C   0  0  0  0  0  3  0  0  0  0  0  0
  -16.7150  -28.6400   23.1550 C   0  0  0  0  0  3  0  0  0  0  0  0
  -25.9020  -32.5320   23.8640 C   0  0  0  0  0  3  0  0  0  0  0  0
  -26.4180  -31.7590   25.1400 C   0  0  1  0  0  0  0  0  0  0  0  0
  -25.3250  -31.5230   26.2100 C   0  0  0  0  0  1  0  0  0  0  0  0
  -26.9990  -30.3810   24.7510 C   0  0  0  0  0  1  0  0  0  0  0  0
  -27.5700  -32.5510   25.8010 C   0  0  0  0  0  1  0  0  0  0  0  0
  -25.5920  -33.9290   24.2040 N   0  0  0  0  0  0  0  0  0  0  0  0
  -25.9030  -34.9880   23.4440 C   0  0  0  0  0  0  0  0  0  0  0  0
  -26.5460  -34.8900   22.3950 O   0  0  0  0  0  0  0  0  0  0  0  0
  -25.0180  -34.0790   25.0200 H   0  0  0  0  0  0  0  0  0  0  0  0
  -24.1540  -36.7750   23.1540 C   0  0  0  0  0  1  0  0  0  0  0  0
  -25.4260  -36.3740   23.9200 C   0  0  0  0  0  3  0  0  0  0  0  0
  -27.5810  -37.2750   24.6780 C   0  0  0  0  0  1  0  0  0  0  0  0
  -26.4480  -37.4340   23.7700 N   0  0  0  0  0  0  0  0  0  0  0  0
  -26.0420  -38.3520   23.9290 H   0  0  0  0  0  0  0  0  0  0  0  0
  2  1  1  0
  2  4  1  0
  3  2  1  0
  5 17  1  0
  6 11  1  0
  7  8  1  0
  7  6  1  0
  9  8  1  0
  9 21  1  0
  9 10  1  0
 11  5  1  0
 11 10  1  0
 12  5  2  0
 13 14  1  0
 13 16  1  0
 14 17  1  0
 15 16  1  0
 16  2  1  0
 17 15  1  0
 18 19  2  0
 19 38  1  0
 20 19  1  0
 20 23  1  0
 21 18  1  0
 21 22  1  0
 22 20  2  0
 23 24  1  0
 24 25  2  0
 26 29  1  0
 26 25  1  0
 27 26  2  0
 28 27  1  0
 28 23  2  0
 29 30  1  0
 30 31  1  0
 31 32  2  0
 33 32  1  0
 33 37  1  0
 34 33  2  0
 35 30  2  0
 35 34  1  0
 36 35  1  0
 38 39  1  0
 39 42  1  0
 39 41  1  0
 40 38  2  0
 43 44  1  0
 43 18  1  0
 45 43  1  0
 46  1  1  0
 47 48  1  0
 47 46  2  0
 49 60  2  0
 50 48  1  0
 50 55  1  0
 51 59  1  0
 51 61  1  0
 52 58  1  0
 52 54  1  0
 53 59  1  0
 54 53  1  0
 55 54  2  0
 56 50  2  0
 57 56  1  0
 57 52  2  0
 58 51  1  0
 59 49  1  0
 61 63  2  0
 62 61  1  0
 64 62  1  0
 65 74  2  0
 65 70  1  0
 66 62  1  0
 66 70  1  0
 67 66  1  0
 68 69  1  0
 68 67  1  0
 69 65  1  0
 70 71  2  0
 71 72  1  0
 73 72  2  0
 74 73  1  0
 75 49  1  0
 75 80  1  0
 75 76  1  0
 76 79  1  1
 76 77  1  0
 78 76  1  0
 80 83  1  0
 81 85  1  0
 81 80  1  0
 82 81  2  0
 85 84  1  0
 87 85  1  0
 87 88  1  0
 87 86  1  0
M  ISO  4   5 100  17 100  47 101  48 101
M  END
>  <TORSDO>  (66) 
F 19

>  <SCORE>  (66) 
-15.412

>  <name>  (66) 
65

>  <ligand_id>  (66) 
65

>  <original_smiles>  (66) 
[H]c1c([H])c([H])c2c(c1[H])C([H])([H])C([H])([H])C([H])([H])C2([H])N([H])C(=O)C1([H])N(C(=O)C([H])(N([H])C(=O)C([H])(N([H])C([H])([H])[H])C([H])([H])[H])C(C([H])([H])[H])(C([H])([H])[H])C([H])([H])[H])C([H])([H])c2c([H])c(OC([H])([H])C([H])([H])C([H])([H])[N+]([H])([H])C3([H])C([H])([H])N(C(=O)N4C([H])([H])C([H])([H])C([H])([H])C([H])(n5nc(-c6c([H])c([H])c(Oc7c([H])c([H])c(F)c([H])c7F)c([H])c6[H])c(C(=O)N([H])[H])c5N([H])[H])C4([H])[H])C([H])([H])C3([H])[H])c([H])c([H])c2C1([H])[H]

>  <smiles>  (66) 
[H]c1c([H])c([H])c2c(c1[H])C([H])([H])C([H])([H])C([H])([H])C2([H])N([H])C(=O)C1([H])N(C(=O)C([H])(N([H])C(=O)C([H])(N([H])C([H])([H])[H])C([H])([H])[H])C(C([H])([H])[H])(C([H])([H])[H])C([H])([H])[H])C([H])([H])c2c([H])c(OC([H])([H])C([H])([H])C([H])([H])[N+]([H])([H])C3([H])C([H])([H])N(C(=O)N4C([H])([H])C([H])([H])C([H])([H])C([H])(n5nc(-c6c([H])c([H])c(Oc7c([H])c([H])c(F)c([H])c7F)c([H])c6[H])c(C(=O)N([H])[H])c5N([H])[H])C4([H])[H])C([H])([H])C3([H])[H])c([H])c([H])c2C1([H])[H]

$$$$
66:0:0
     RDKit          3D

 92100  0  0  1  0  0  0  0  0999 V2000
  -29.2460  -20.7240   19.6680 C   0  0  0  0  0  3  0  0  0  0  0  0
  -30.8010  -14.8770   19.8400 C   0  0  0  0  0  0  0  0  0  0  0  0
  -30.4630  -12.6260   18.7520 C   0  0  0  0  0  2  0  0  0  0  0  0
  -29.4260  -12.6570   17.6090 C   0  0  0  0  0  2  0  0  0  0  0  0
  -28.0120  -12.4080   18.1620 C   0  0  0  0  0  2  0  0  0  0  0  0
  -27.7160  -13.2800   19.4070 C   0  0  0  0  0  3  0  0  0  0  0  0
  -28.8720  -13.2480   20.4320 C   0  0  0  0  0  2  0  0  0  0  0  0
  -30.0890  -13.6840   19.7370 N   0  0  0  0  0  0  0  0  0  0  0  0
  -31.9670  -14.8500   19.4340 O   0  0  0  0  0  0  0  0  0  0  0  0
  -31.1870  -17.2470   20.7410 C   0  0  0  0  0  2  0  0  0  0  0  0
  -30.9470  -18.7370   20.2110 C   0  0  0  0  0  2  0  0  0  0  0  0
  -28.6920  -18.1710   19.7060 C   0  0  0  0  0  2  0  0  0  0  0  0
  -28.8970  -16.7050   20.3270 C   0  0  0  0  0  3  0  0  0  0  0  0
  -28.3300  -16.6720   21.7650 C   0  0  0  0  0  1  0  0  0  0  0  0
  -30.2820  -16.1290   20.2860 N   0  0  0  0  0  0  0  0  0  0  0  0
  -29.5400  -19.2870   20.2660 N   0  0  2  0  0  4  0  0  0  0  0  0
  -29.2940  -19.3500   21.2400 H   0  0  0  0  0  0  0  0  0  0  0  0
  -25.4140  -13.8420   20.3780 C   0  0  0  0  0  0  0  0  0  0  0  0
  -24.3900  -13.0530   20.8190 C   0  0  0  0  0  0  0  0  0  0  0  0
  -24.8500  -11.7050   20.6990 C   0  0  0  0  0  0  0  0  0  0  0  0
  -26.4310  -12.9720   20.0160 N   0  0  0  0  0  0  0  0  0  0  0  0
  -26.1070  -11.6820   20.2760 N   0  0  0  0  0  0  0  0  0  0  0  0
  -24.1430  -10.4360   20.9010 C   0  0  0  0  0  0  0  0  0  0  0  0
  -24.6060   -9.4750   21.8260 C   0  0  0  0  0  3  0  0  0  0  0  0
  -23.8990   -8.2680   22.0150 C   0  0  0  0  0  3  0  0  0  0  0  0
  -22.7180   -8.0150   21.2790 C   0  0  0  0  0  0  0  0  0  0  0  0
  -22.2750   -8.9660   20.3430 C   0  0  0  0  0  3  0  0  0  0  0  0
  -22.9820  -10.1640   20.1520 C   0  0  0  0  0  3  0  0  0  0  0  0
  -21.9780   -6.8610   21.3820 O   0  0  0  0  0  0  0  0  0  0  0  0
  -21.8820   -6.1710   22.5620 C   0  0  0  0  0  0  0  0  0  0  0  0
  -21.3580   -6.7640   23.7330 C   0  0  0  0  0  3  0  0  0  0  0  0
  -21.2130   -5.9950   24.9040 C   0  0  0  0  0  3  0  0  0  0  0  0
  -21.5830   -4.6370   24.9080 C   0  0  0  0  0  0  0  0  0  0  0  0
  -22.1000   -4.0440   23.7430 C   0  0  0  0  0  3  0  0  0  0  0  0
  -22.2470   -4.8100   22.5720 C   0  0  0  0  0  0  0  0  0  0  0  0
  -22.7260   -4.2290   21.4460 F   0  0  0  0  0  0  0  0  0  0  0  0
  -21.4360   -3.8970   26.0320 F   0  0  0  0  0  0  0  0  0  0  0  0
  -23.0210  -13.5170   21.2250 C   0  0  0  0  0  0  0  0  0  0  0  0
  -22.3680  -12.7890   22.1230 N   0  0  0  0  0  0  0  0  0  0  0  0
  -22.5430  -14.5590   20.7800 O   0  0  0  0  0  0  0  0  0  0  0  0
  -22.7690  -11.9460   22.5050 H   0  0  0  0  0  0  0  0  0  0  0  0
  -21.4530  -13.0800   22.4340 H   0  0  0  0  0  0  0  0  0  0  0  0
  -25.5530  -15.2160   20.2240 N   0  0  0  0  0  0  0  0  0  0  0  0
  -24.7820  -15.8510   20.4030 H   0  0  0  0  0  0  0  0  0  0  0  0
  -26.3410  -15.6610   19.7800 H   0  0  0  0  0  0  0  0  0  0  0  0
  -30.1850  -21.0320   18.4810 C   0  0  0  0  0  0  0  0  0  0  0  0
  -31.2650  -21.6210   18.6990 O   0  0  0  0  0  1  0  0  0  0  0  0
  -29.8550  -20.6360   17.3460 O   0  0  0  0  0  0  0  0  0  0  0  0
  -29.0210  -22.0770   20.5990 C   0  0  0  0  0  2  0  0  0  0  0  0
  -28.8900  -23.5980   19.9520 C   0  0  0  0  0  3  0  0  0  0  0  0
  -28.3130  -24.9010   20.7670 C   0  0  0  0  0  3  0  0  0  0  0  0
  -28.5030  -26.3460   20.3390 O   0  0  0  0  0  0  0  0  0  0  0  0
  -24.7320  -31.8810   23.2380 C   0  0  0  0  0  0  0  0  0  0  0  0
  -27.4000  -27.2380   20.3030 C   0  0  0  0  0  0  0  0  0  0  0  0
  -23.5590  -30.4510   21.6040 C   0  0  0  0  0  3  0  0  0  0  0  0
  -25.0380  -28.8820   20.2170 C   0  0  0  0  0  0  0  0  0  0  0  0
  -26.1020  -30.7720   21.4480 C   0  0  0  0  0  2  0  0  0  0  0  0
  -26.2010  -29.3780   20.8220 C   0  0  0  0  0  0  0  0  0  0  0  0
  -27.3880  -28.5720   20.8440 C   0  0  0  0  0  3  0  0  0  0  0  0
  -26.2160  -26.8110   19.6660 C   0  0  0  0  0  3  0  0  0  0  0  0
  -25.0530  -27.6080   19.6250 C   0  0  0  0  0  3  0  0  0  0  0  0
  -23.7960  -29.7550   20.2370 C   0  0  0  0  0  2  0  0  0  0  0  0
  -24.8170  -31.0550   22.1530 N   0  0  0  0  0  0  0  0  0  0  0  0
  -23.6390  -32.1580   23.7560 O   0  0  0  0  0  0  0  0  0  0  0  0
  -22.8900  -29.4470   22.5730 C   0  0  0  0  0  0  0  0  0  0  0  0
  -21.5640  -29.2650   22.4410 N   0  0  0  0  0  0  0  0  0  0  0  0
  -23.5630  -28.8320   23.4040 O   0  0  0  0  0  0  0  0  0  0  0  0
  -21.0800  -29.8100   21.7420 H   0  0  0  0  0  0  0  0  0  0  0  0
  -18.1850  -28.0660   22.9410 C   0  0  0  0  0  0  0  0  0  0  0  0
  -20.7430  -28.3320   23.2150 C   0  0  0  0  0  3  0  0  0  0  0  0
  -20.8490  -26.8960   22.6510 C   0  0  0  0  0  2  0  0  0  0  0  0
  -19.7500  -26.5650   21.6360 C   0  0  0  0  0  2  0  0  0  0  0  0
  -18.3670  -26.7120   22.2750 C   0  0  0  0  0  2  0  0  0  0  0  0
  -19.3020  -28.8330   23.3680 C   0  0  0  0  0  0  0  0  0  0  0  0
  -19.0780  -30.0990   23.9520 C   0  0  0  0  0  3  0  0  0  0  0  0
  -17.7720  -30.5980   24.1120 C   0  0  0  0  0  3  0  0  0  0  0  0
  -16.6700  -29.8280   23.7020 C   0  0  0  0  0  3  0  0  0  0  0  0
  -16.8780  -28.5640   23.1210 C   0  0  0  0  0  3  0  0  0  0  0  0
  -26.0000  -32.5350   23.8680 C   0  0  0  0  0  3  0  0  0  0  0  0
  -26.5170  -31.7770   25.1530 C   0  0  1  0  0  0  0  0  0  0  0  0
  -25.4180  -31.5250   26.2120 C   0  0  0  0  0  1  0  0  0  0  0  0
  -27.1260  -30.4060   24.7740 C   0  0  0  0  0  1  0  0  0  0  0  0
  -27.6500  -32.5900   25.8220 C   0  0  0  0  0  1  0  0  0  0  0  0
  -25.6700  -33.9300   24.1930 N   0  0  0  0  0  0  0  0  0  0  0  0
  -25.9880  -34.9870   23.4320 C   0  0  0  0  0  0  0  0  0  0  0  0
  -26.6600  -34.8900   22.4030 O   0  0  0  0  0  0  0  0  0  0  0  0
  -25.0720  -34.0780   24.9930 H   0  0  0  0  0  0  0  0  0  0  0  0
  -24.2360  -36.7570   23.0750 C   0  0  0  0  0  1  0  0  0  0  0  0
  -25.4830  -36.3700   23.8870 C   0  0  0  0  0  3  0  0  0  0  0  0
  -27.6010  -37.2890   24.7200 C   0  0  0  0  0  1  0  0  0  0  0  0
  -26.5000  -37.4370   23.7740 N   0  0  0  0  0  0  0  0  0  0  0  0
  -26.0800  -38.3520   23.9160 H   0  0  0  0  0  0  0  0  0  0  0  0
  1 16  1  0
  1 49  1  0
  2 15  1  0
  3  8  1  0
  4  5  1  0
  4  3  1  0
  6  5  1  0
  6 21  1  0
  6  7  1  0
  8  2  1  0
  8  7  1  0
  9  2  2  0
 11 16  1  0
 11 10  1  0
 12 16  1  0
 12 13  1  0
 13 14  1  0
 15 13  1  0
 15 10  1  0
 16 17  1  1
 18 19  2  0
 19 38  1  0
 20 19  1  0
 20 23  1  0
 21 22  1  0
 21 18  1  0
 22 20  2  0
 23 24  1  0
 24 25  2  0
 26 29  1  0
 26 25  1  0
 27 26  2  0
 28 27  1  0
 28 23  2  0
 29 30  1  0
 30 35  2  0
 30 31  1  0
 31 32  2  0
 32 33  1  0
 33 37  1  0
 34 33  2  0
 35 34  1  0
 36 35  1  0
 38 39  1  0
 39 42  1  0
 39 41  1  0
 40 38  2  0
 43 18  1  0
 43 44  1  0
 45 43  1  0
 46 47  1  0
 46  1  1  0
 48 46  2  0
 50 49  1  0
 50 51  2  0
 52 51  1  0
 53 64  2  0
 54 52  1  0
 54 59  1  0
 55 63  1  0
 55 65  1  0
 56 62  1  0
 56 58  1  0
 57 63  1  0
 58 59  2  0
 58 57  1  0
 60 54  2  0
 61 60  1  0
 61 56  2  0
 62 55  1  0
 63 53  1  0
 65 67  2  0
 66 65  1  0
 68 66  1  0
 69 78  2  0
 69 74  1  0
 70 66  1  0
 70 74  1  0
 71 70  1  0
 72 73  1  0
 72 71  1  0
 73 69  1  0
 74 75  2  0
 75 76  1  0
 77 76  2  0
 78 77  1  0
 79 53  1  0
 79 84  1  0
 79 80  1  0
 80 83  1  1
 80 81  1  0
 82 80  1  0
 84 87  1  0
 85 89  1  0
 85 84  1  0
 86 85  2  0
 89 88  1  0
 91 89  1  0
 91 92  1  0
 91 90  1  0
M  ISO  4   2 100  15 100  51 101  52 101
M  END
>  <TORSDO>  (67) 
F 20

>  <SCORE>  (67) 
-11.799

>  <name>  (67) 
66

>  <ligand_id>  (67) 
66

>  <original_smiles>  (67) 
[H]c1c([H])c([H])c2c(c1[H])C([H])([H])C([H])([H])C([H])([H])C2([H])N([H])C(=O)C1([H])N(C(=O)C([H])(N([H])C(=O)C([H])(N([H])C([H])([H])[H])C([H])([H])[H])C(C([H])([H])[H])(C([H])([H])[H])C([H])([H])[H])C([H])([H])c2c([H])c(OC([H])([H])C([H])([H])C([H])([H])C([H])(C(=O)[O-])[N+]3([H])C([H])([H])C([H])([H])N(C(=O)N4C([H])([H])C([H])([H])C([H])([H])C([H])(n5nc(-c6c([H])c([H])c(Oc7c([H])c([H])c(F)c([H])c7F)c([H])c6[H])c(C(=O)N([H])[H])c5N([H])[H])C4([H])[H])C([H])(C([H])([H])[H])C3([H])[H])c([H])c([H])c2C1([H])[H]

>  <smiles>  (67) 
[H]c1c([H])c([H])c2c(c1[H])C([H])([H])C([H])([H])C([H])([H])C2([H])N([H])C(=O)C1([H])N(C(=O)C([H])(N([H])C(=O)C([H])(N([H])C([H])([H])[H])C([H])([H])[H])C(C([H])([H])[H])(C([H])([H])[H])C([H])([H])[H])C([H])([H])c2c([H])c(OC([H])([H])C([H])([H])C([H])([H])C([H])(C(=O)[O-])[N+]3([H])C([H])([H])C([H])([H])N(C(=O)N4C([H])([H])C([H])([H])C([H])([H])C([H])(n5nc(-c6c([H])c([H])c(Oc7c([H])c([H])c(F)c([H])c7F)c([H])c6[H])c(C(=O)N([H])[H])c5N([H])[H])C4([H])[H])C([H])(C([H])([H])[H])C3([H])[H])c([H])c([H])c2C1([H])[H]

$$$$
67:0:0
     RDKit          3D

101111  0  0  1  0  0  0  0  0999 V2000
  -28.5510  -22.5760   18.5970 C   0  0  0  0  0  2  0  0  0  0  0  0
  -29.9330  -22.8400   16.5310 C   0  0  0  0  0  2  0  0  0  0  0  0
  -29.2010  -23.8420   19.1860 C   0  0  0  0  0  2  0  0  0  0  0  0
  -30.5540  -24.1210   17.1290 C   0  0  0  0  0  2  0  0  0  0  0  0
  -29.4780  -21.8340   17.6070 C   0  0  0  0  0  3  0  0  0  0  0  0
  -29.6660  -24.7830   18.1270 N   0  0  2  0  0  4  0  0  0  0  0  0
  -28.8500  -25.0940   17.6180 H   0  0  0  0  0  0  0  0  0  0  0  0
  -30.6320  -21.1290   18.2370 N   0  0  0  0  0  4  0  0  0  0  0  0
  -31.2790  -21.7760   18.6560 H   0  0  0  0  0  0  0  0  0  0  0  0
  -31.1300  -20.6530   17.4990 H   0  0  0  0  0  0  0  0  0  0  0  0
  -30.2970  -20.1020   19.2460 C   0  0  0  0  0  2  0  0  0  0  0  0
  -31.5570  -19.3390   19.7090 C   0  0  0  0  0  2  0  0  0  0  0  0
  -32.4890  -16.7890   23.7650 C   0  0  0  0  0  2  0  0  0  0  0  0
  -33.0270  -15.7430   22.8340 C   0  0  0  0  0  2  0  0  0  0  0  0
  -30.3910  -17.4570   20.7010 C   0  0  0  0  0  2  0  0  0  0  0  0
  -32.5450  -17.9230   21.3900 C   0  0  0  0  0  2  0  0  0  0  0  0
  -30.6460  -16.5380   21.9010 C   0  0  0  0  0  3  0  0  0  0  0  0
  -32.0810  -16.8090   22.3040 C   0  0  2  0  0  0  0  0  0  0  0  0
  -31.3140  -18.5640   20.9270 N   0  0  0  0  0  0  0  0  0  0  0  0
  -30.7550  -14.3520   20.6790 C   0  0  0  0  0  0  0  0  0  0  0  0
  -30.4170  -12.2770   19.3950 C   0  0  0  0  0  2  0  0  0  0  0  0
  -29.4850  -12.5290   18.1940 C   0  0  0  0  0  2  0  0  0  0  0  0
  -28.0090  -12.3860   18.6080 C   0  0  0  0  0  2  0  0  0  0  0  0
  -27.6690  -13.1990   19.8850 C   0  0  0  0  0  3  0  0  0  0  0  0
  -28.7040  -12.9220   20.9980 C   0  0  0  0  0  2  0  0  0  0  0  0
  -30.0500  -13.2130   20.4680 N   0  0  0  0  0  0  0  0  0  0  0  0
  -31.7730  -14.6460   20.0450 O   0  0  0  0  0  0  0  0  0  0  0  0
  -30.2500  -15.1600   21.6210 N   0  0  0  0  0  0  0  0  0  0  0  0
  -29.4340  -14.8180   22.1070 H   0  0  0  0  0  0  0  0  0  0  0  0
  -25.2620  -13.8150   20.5670 C   0  0  0  0  0  0  0  0  0  0  0  0
  -24.1850  -13.0440   20.9160 C   0  0  0  0  0  0  0  0  0  0  0  0
  -24.6390  -11.6900   20.8720 C   0  0  0  0  0  0  0  0  0  0  0  0
  -26.3060  -12.9310   20.3390 N   0  0  0  0  0  0  0  0  0  0  0  0
  -25.9310  -11.6470   20.5760 N   0  0  0  0  0  0  0  0  0  0  0  0
  -23.9050  -10.4290   21.0410 C   0  0  0  0  0  0  0  0  0  0  0  0
  -24.3610   -9.4210   21.9180 C   0  0  0  0  0  3  0  0  0  0  0  0
  -23.6290   -8.2240   22.0750 C   0  0  0  0  0  3  0  0  0  0  0  0
  -22.4270   -8.0280   21.3540 C   0  0  0  0  0  0  0  0  0  0  0  0
  -21.9910   -9.0250   20.4650 C   0  0  0  0  0  3  0  0  0  0  0  0
  -22.7230  -10.2130   20.3050 C   0  0  0  0  0  3  0  0  0  0  0  0
  -21.6640   -6.8880   21.4240 O   0  0  0  0  0  0  0  0  0  0  0  0
  -21.6850   -6.0740   22.5280 C   0  0  0  0  0  0  0  0  0  0  0  0
  -21.4010   -6.5640   23.8210 C   0  0  0  0  0  3  0  0  0  0  0  0
  -21.3660   -5.6790   24.9180 C   0  0  0  0  0  3  0  0  0  0  0  0
  -21.6050   -4.3060   24.7230 C   0  0  0  0  0  0  0  0  0  0  0  0
  -21.8820   -3.8150   23.4350 C   0  0  0  0  0  3  0  0  0  0  0  0
  -21.9190   -4.6970   22.3400 C   0  0  0  0  0  0  0  0  0  0  0  0
  -22.1660   -4.2150   21.0980 F   0  0  0  0  0  0  0  0  0  0  0  0
  -21.5630   -3.4540   25.7740 F   0  0  0  0  0  0  0  0  0  0  0  0
  -22.7880  -13.5240   21.1840 C   0  0  0  0  0  0  0  0  0  0  0  0
  -22.0520  -12.8230   22.0390 N   0  0  0  0  0  0  0  0  0  0  0  0
  -22.3570  -14.5560   20.6700 O   0  0  0  0  0  0  0  0  0  0  0  0
  -22.4130  -11.9880   22.4750 H   0  0  0  0  0  0  0  0  0  0  0  0
  -21.1140  -13.1260   22.2610 H   0  0  0  0  0  0  0  0  0  0  0  0
  -25.4370  -15.1870   20.4080 N   0  0  0  0  0  0  0  0  0  0  0  0
  -24.6760  -15.8480   20.5170 H   0  0  0  0  0  0  0  0  0  0  0  0
  -26.3000  -15.6210   20.1060 H   0  0  0  0  0  0  0  0  0  0  0  0
  -30.2950  -26.0070   18.6960 C   0  0  0  0  0  2  0  0  0  0  0  0
  -30.0520  -28.4520   19.2590 C   0  0  0  0  0  1  0  0  0  0  0  0
  -29.2930  -27.1540   18.9330 C   0  0  0  0  0  3  0  0  0  0  0  0
  -28.4290  -26.7870   20.0130 O   0  0  0  0  0  0  0  0  0  0  0  0
  -24.6090  -31.8720   23.2130 C   0  0  0  0  0  0  0  0  0  0  0  0
  -27.2530  -27.4920   20.0750 C   0  0  0  0  0  0  0  0  0  0  0  0
  -23.3950  -30.4930   21.5520 C   0  0  0  0  0  3  0  0  0  0  0  0
  -24.8460  -28.9570   20.1200 C   0  0  0  0  0  0  0  0  0  0  0  0
  -25.9180  -30.8480   21.3620 C   0  0  0  0  0  2  0  0  0  0  0  0
  -25.9970  -29.4810   20.7210 C   0  0  0  0  0  0  0  0  0  0  0  0
  -27.1970  -28.7450   20.7200 C   0  0  0  0  0  3  0  0  0  0  0  0
  -26.0860  -26.9580   19.4930 C   0  0  0  0  0  3  0  0  0  0  0  0
  -24.8800  -27.6870   19.5130 C   0  0  0  0  0  3  0  0  0  0  0  0
  -23.6040  -29.8190   20.1670 C   0  0  0  0  0  2  0  0  0  0  0  0
  -24.6580  -31.0850   22.1010 N   0  0  0  0  0  0  0  0  0  0  0  0
  -23.5300  -32.1460   23.7550 O   0  0  0  0  0  0  0  0  0  0  0  0
  -22.7380  -29.4670   22.5020 C   0  0  0  0  0  0  0  0  0  0  0  0
  -21.4120  -29.3020   22.3750 N   0  0  0  0  0  0  0  0  0  0  0  0
  -23.4180  -28.8220   23.3050 O   0  0  0  0  0  0  0  0  0  0  0  0
  -20.9270  -29.8730   21.6980 H   0  0  0  0  0  0  0  0  0  0  0  0
  -18.0270  -28.1370   22.8500 C   0  0  0  0  0  0  0  0  0  0  0  0
  -20.5860  -28.3640   23.1340 C   0  0  0  0  0  3  0  0  0  0  0  0
  -20.6760  -26.9390   22.5430 C   0  0  0  0  0  2  0  0  0  0  0  0
  -19.5740  -26.6380   21.5220 C   0  0  0  0  0  2  0  0  0  0  0  0
  -18.1920  -26.7920   22.1620 C   0  0  0  0  0  2  0  0  0  0  0  0
  -19.1520  -28.8820   23.2920 C   0  0  0  0  0  0  0  0  0  0  0  0
  -18.9450  -30.1440   23.8910 C   0  0  0  0  0  3  0  0  0  0  0  0
  -17.6440  -30.6580   24.0560 C   0  0  0  0  0  3  0  0  0  0  0  0
  -16.5340  -29.9080   23.6320 C   0  0  0  0  0  3  0  0  0  0  0  0
  -16.7260  -28.6500   23.0330 C   0  0  0  0  0  3  0  0  0  0  0  0
  -25.9010  -32.4840   23.8410 C   0  0  0  0  0  3  0  0  0  0  0  0
  -25.5880  -33.8640   24.2350 N   0  0  0  0  0  0  0  0  0  0  0  0
  -25.9020  -34.9490   23.5140 C   0  0  0  0  0  0  0  0  0  0  0  0
  -26.5590  -34.8930   22.4710 O   0  0  0  0  0  0  0  0  0  0  0  0
  -25.0040  -33.9810   25.0500 H   0  0  0  0  0  0  0  0  0  0  0  0
  -24.1480  -36.7330   23.2640 C   0  0  0  0  0  1  0  0  0  0  0  0
  -25.4100  -36.3120   24.0350 C   0  0  0  0  0  3  0  0  0  0  0  0
  -27.5590  -37.1810   24.8460 C   0  0  0  0  0  1  0  0  0  0  0  0
  -26.4290  -37.3810   23.9420 N   0  0  0  0  0  0  0  0  0  0  0  0
  -26.0180  -38.2890   24.1440 H   0  0  0  0  0  0  0  0  0  0  0  0
  -26.4460  -31.6610   25.0720 C   0  0  1  0  0  0  0  0  0  0  0  0
  -25.3740  -31.3690   26.1480 C   0  0  0  0  0  1  0  0  0  0  0  0
  -27.0280  -30.3060   24.6050 C   0  0  0  0  0  1  0  0  0  0  0  0
  -27.6050  -32.4320   25.7470 C   0  0  0  0  0  1  0  0  0  0  0  0
  1  3  1  0
  2  4  1  0
  2  5  1  0
  4  6  1  0
  5  8  1  0
  5  1  1  0
  6 58  1  0
  6  3  1  0
  6  7  1  6
  8  9  1  0
  8 11  1  0
 10  8  1  0
 11 12  1  0
 12 19  1  0
 14 13  1  0
 15 19  1  0
 15 17  1  0
 18 16  1  6
 17 28  1  0
 17 18  1  0
 18 14  1  0
 18 13  1  0
 19 16  1  0
 20 28  1  0
 21 26  1  0
 22 23  1  0
 22 21  1  0
 24 23  1  0
 24 33  1  0
 24 25  1  0
 26 20  1  0
 26 25  1  0
 27 20  2  0
 28 29  1  0
 30 31  2  0
 31 50  1  0
 32 31  1  0
 32 35  1  0
 33 30  1  0
 33 34  1  0
 34 32  2  0
 35 36  1  0
 36 37  2  0
 38 41  1  0
 38 37  1  0
 39 38  2  0
 40 39  1  0
 40 35  2  0
 41 42  1  0
 42 43  1  0
 43 44  2  0
 45 44  1  0
 45 49  1  0
 46 45  2  0
 47 42  2  0
 47 46  1  0
 48 47  1  0
 50 51  1  0
 51 54  1  0
 51 53  1  0
 52 50  2  0
 55 56  1  0
 55 30  1  0
 57 55  1  0
 58 60  1  0
 60 59  1  0
 60 61  1  0
 61 63  1  0
 62 73  2  0
 63 68  1  0
 64 72  1  0
 64 74  1  0
 65 71  1  0
 65 67  1  0
 66 72  1  0
 67 66  1  0
 68 67  2  0
 69 70  1  0
 69 63  2  0
 70 65  2  0
 71 64  1  0
 72 62  1  0
 74 76  2  0
 75 74  1  0
 77 75  1  0
 78 87  2  0
 78 83  1  0
 79 75  1  0
 79 83  1  0
 80 79  1  0
 81 82  1  0
 81 80  1  0
 82 78  1  0
 83 84  2  0
 84 85  1  0
 86 85  2  0
 87 86  1  0
 88 62  1  0
 88 89  1  0
 88 98  1  0
 89 92  1  0
 90 94  1  0
 90 89  1  0
 91 90  2  0
 94 93  1  0
 96 94  1  0
 96 97  1  0
 96 95  1  0
 98101  1  1
 98 99  1  0
100 98  1  0
M  ISO  4  20 100  28 100  60 101  61 101
M  END
>  <TORSDO>  (68) 
F 22

>  <SCORE>  (68) 
0.586

>  <name>  (68) 
67

>  <ligand_id>  (68) 
67

>  <original_smiles>  (68) 
[H]c1c([H])c([H])c2c(c1[H])C([H])([H])C([H])([H])C([H])([H])C2([H])N([H])C(=O)C1([H])N(C(=O)C([H])(N([H])C(=O)C([H])(N([H])C([H])([H])[H])C([H])([H])[H])C(C([H])([H])[H])(C([H])([H])[H])C([H])([H])[H])C([H])([H])c2c([H])c(OC([H])(C([H])([H])[H])C([H])([H])[N+]3([H])C([H])([H])C([H])([H])C([H])([N+]([H])([H])C([H])([H])C([H])([H])N4C([H])([H])C([H])(N([H])C(=O)N5C([H])([H])C([H])([H])C([H])([H])C([H])(n6nc(-c7c([H])c([H])c(Oc8c([H])c([H])c(F)c([H])c8F)c([H])c7[H])c(C(=O)N([H])[H])c6N([H])[H])C5([H])[H])C5(C4([H])[H])C([H])([H])C5([H])[H])C([H])([H])C3([H])[H])c([H])c([H])c2C1([H])[H]

>  <smiles>  (68) 
[H]c1c([H])c([H])c2c(c1[H])C([H])([H])C([H])([H])C([H])([H])C2([H])N([H])C(=O)C1([H])N(C(=O)C([H])(N([H])C(=O)C([H])(N([H])C([H])([H])[H])C([H])([H])[H])C(C([H])([H])[H])(C([H])([H])[H])C([H])([H])[H])C([H])([H])c2c([H])c(OC([H])(C([H])([H])[H])C([H])([H])[N+]3([H])C([H])([H])C([H])([H])C([H])([N+]([H])([H])C([H])([H])C([H])([H])N4C([H])([H])C([H])(N([H])C(=O)N5C([H])([H])C([H])([H])C([H])([H])C([H])(n6nc(-c7c([H])c([H])c(Oc8c([H])c([H])c(F)c([H])c8F)c([H])c7[H])c(C(=O)N([H])[H])c6N([H])[H])C5([H])[H])C5(C4([H])[H])C([H])([H])C5([H])[H])C([H])([H])C3([H])[H])c([H])c([H])c2C1([H])[H]

$$$$
68:0:0
     RDKit          3D

 90 99  0  0  1  0  0  0  0  0999 V2000
  -29.7580  -20.3040   20.1230 C   0  0  0  0  0  0  0  0  0  0  0  0
  -30.8950  -21.1420   20.3320 C   0  0  0  0  0  0  0  0  0  0  0  0
  -28.7240  -21.1660   20.1060 N   0  0  0  0  0  0  0  0  0  0  0  0
  -30.5990  -22.4230   20.4560 N   0  0  0  0  0  0  0  0  0  0  0  0
  -29.2470  -22.4590   20.3040 N   0  0  0  0  0  0  0  0  0  0  0  0
  -32.1400  -20.7260   20.3590 F   0  0  0  0  0  0  0  0  0  0  0  0
  -30.6590  -14.9540   20.3350 C   0  0  0  0  0  0  0  0  0  0  0  0
  -30.4040  -12.6220   19.4430 C   0  0  0  0  0  2  0  0  0  0  0  0
  -29.5020  -12.5550   18.1880 C   0  0  0  0  0  2  0  0  0  0  0  0
  -28.0130  -12.8640   18.4840 C   0  0  0  0  0  2  0  0  0  0  0  0
  -27.7050  -12.8580   19.9880 C   0  0  0  0  0  3  0  0  0  0  0  0
  -28.7200  -13.4290   20.9910 C   0  0  0  0  0  2  0  0  0  0  0  0
  -29.9560  -13.7660   20.2770 N   0  0  0  0  0  0  0  0  0  0  0  0
  -31.8830  -14.9040   20.1990 O   0  0  0  0  0  0  0  0  0  0  0  0
  -28.3700  -18.0390   20.0310 C   0  0  0  0  0  2  0  0  0  0  0  0
  -28.6410  -16.5100   19.9050 C   0  0  0  0  0  2  0  0  0  0  0  0
  -30.6550  -17.6110   20.4020 C   0  0  0  0  0  2  0  0  0  0  0  0
  -29.6990  -18.7390   19.7750 C   0  0  0  0  0  3  0  0  0  0  0  0
  -30.0210  -16.2190   20.3290 N   0  0  0  0  0  0  0  0  0  0  0  0
  -25.2840  -13.8150   20.5300 C   0  0  0  0  0  0  0  0  0  0  0  0
  -24.1740  -13.0910   20.8990 C   0  0  0  0  0  0  0  0  0  0  0  0
  -24.5760  -11.7270   20.8870 C   0  0  0  0  0  0  0  0  0  0  0  0
  -26.3000  -12.8630   20.3700 N   0  0  0  0  0  0  0  0  0  0  0  0
  -25.8430  -11.6220   20.6050 N   0  0  0  0  0  0  0  0  0  0  0  0
  -23.8450  -10.4770   21.0610 C   0  0  0  0  0  0  0  0  0  0  0  0
  -24.2810   -9.5120   21.9960 C   0  0  0  0  0  3  0  0  0  0  0  0
  -23.5710   -8.3070   22.1550 C   0  0  0  0  0  3  0  0  0  0  0  0
  -22.4160   -8.0630   21.3760 C   0  0  0  0  0  0  0  0  0  0  0  0
  -22.0090   -9.0150   20.4260 C   0  0  0  0  0  3  0  0  0  0  0  0
  -22.7200  -10.2120   20.2630 C   0  0  0  0  0  3  0  0  0  0  0  0
  -21.6720   -6.9130   21.4510 O   0  0  0  0  0  0  0  0  0  0  0  0
  -21.5850   -6.1910   22.6130 C   0  0  0  0  0  0  0  0  0  0  0  0
  -21.0940   -6.7560   23.8100 C   0  0  0  0  0  3  0  0  0  0  0  0
  -20.9680   -5.9560   24.9620 C   0  0  0  0  0  3  0  0  0  0  0  0
  -21.3170   -4.5930   24.9140 C   0  0  0  0  0  0  0  0  0  0  0  0
  -21.8010   -4.0290   23.7230 C   0  0  0  0  0  3  0  0  0  0  0  0
  -21.9310   -4.8260   22.5720 C   0  0  0  0  0  0  0  0  0  0  0  0
  -22.3850   -4.2800   21.4180 F   0  0  0  0  0  0  0  0  0  0  0  0
  -21.1840   -3.8210   26.0190 F   0  0  0  0  0  0  0  0  0  0  0  0
  -22.7890  -13.6010   21.1570 C   0  0  0  0  0  0  0  0  0  0  0  0
  -22.0320  -12.9070   22.0050 N   0  0  0  0  0  0  0  0  0  0  0  0
  -22.3760  -14.6360   20.6370 O   0  0  0  0  0  0  0  0  0  0  0  0
  -22.3640  -12.0680   22.4570 H   0  0  0  0  0  0  0  0  0  0  0  0
  -21.1030  -13.2390   22.2200 H   0  0  0  0  0  0  0  0  0  0  0  0
  -25.4810  -15.1740   20.3090 N   0  0  0  0  0  0  0  0  0  0  0  0
  -24.6970  -15.8120   20.2800 H   0  0  0  0  0  0  0  0  0  0  0  0
  -26.3200  -15.5560   19.8950 H   0  0  0  0  0  0  0  0  0  0  0  0
  -28.4420  -23.7260   20.6340 C   0  0  0  0  0  2  0  0  0  0  0  0
  -28.5220  -25.0700   19.7310 C   0  0  0  0  0  2  0  0  0  0  0  0
  -28.3760  -26.4680   20.2880 O   0  0  0  0  0  0  0  0  0  0  0  0
  -24.6070  -31.9160   23.2360 C   0  0  0  0  0  0  0  0  0  0  0  0
  -27.2310  -27.2980   20.2070 C   0  0  0  0  0  0  0  0  0  0  0  0
  -23.4020  -30.5000   21.6080 C   0  0  0  0  0  3  0  0  0  0  0  0
  -24.8560  -28.9270   20.1930 C   0  0  0  0  0  0  0  0  0  0  0  0
  -25.9420  -30.8140   21.4160 C   0  0  0  0  0  2  0  0  0  0  0  0
  -26.0240  -29.4210   20.7800 C   0  0  0  0  0  0  0  0  0  0  0  0
  -27.2090  -28.6170   20.7760 C   0  0  0  0  0  3  0  0  0  0  0  0
  -26.0320  -26.8590   19.6010 C   0  0  0  0  0  3  0  0  0  0  0  0
  -24.8630  -27.6540   19.5960 C   0  0  0  0  0  3  0  0  0  0  0  0
  -23.6170  -29.8060   20.2360 C   0  0  0  0  0  2  0  0  0  0  0  0
  -24.6690  -31.0960   22.1440 N   0  0  0  0  0  0  0  0  0  0  0  0
  -23.5260  -32.1970   23.7720 O   0  0  0  0  0  0  0  0  0  0  0  0
  -22.7430  -29.4920   22.5820 C   0  0  0  0  0  0  0  0  0  0  0  0
  -21.4180  -29.3030   22.4540 N   0  0  0  0  0  0  0  0  0  0  0  0
  -23.4230  -28.8850   23.4120 O   0  0  0  0  0  0  0  0  0  0  0  0
  -20.9280  -29.8460   21.7580 H   0  0  0  0  0  0  0  0  0  0  0  0
  -18.0520  -28.0740   22.9590 C   0  0  0  0  0  0  0  0  0  0  0  0
  -20.6070  -28.3670   23.2360 C   0  0  0  0  0  3  0  0  0  0  0  0
  -20.7250  -26.9290   22.6820 C   0  0  0  0  0  2  0  0  0  0  0  0
  -19.6320  -26.5800   21.6680 C   0  0  0  0  0  2  0  0  0  0  0  0
  -18.2480  -26.7180   22.3040 C   0  0  0  0  0  2  0  0  0  0  0  0
  -19.1610  -28.8550   23.3840 C   0  0  0  0  0  0  0  0  0  0  0  0
  -18.9250  -30.1240   23.9550 C   0  0  0  0  0  3  0  0  0  0  0  0
  -17.6140  -30.6120   24.1100 C   0  0  0  0  0  3  0  0  0  0  0  0
  -16.5200  -29.8290   23.7010 C   0  0  0  0  0  3  0  0  0  0  0  0
  -16.7410  -28.5620   23.1330 C   0  0  0  0  0  3  0  0  0  0  0  0
  -25.8890  -32.5600   23.8460 C   0  0  0  0  0  3  0  0  0  0  0  0
  -25.5810  -33.9610   24.1660 N   0  0  0  0  0  0  0  0  0  0  0  0
  -25.9080  -35.0110   23.4000 C   0  0  0  0  0  0  0  0  0  0  0  0
  -26.5790  -34.9010   22.3690 O   0  0  0  0  0  0  0  0  0  0  0  0
  -24.9930  -34.1200   24.9730 H   0  0  0  0  0  0  0  0  0  0  0  0
  -24.1930  -36.8100   23.0170 C   0  0  0  0  0  1  0  0  0  0  0  0
  -25.4180  -36.4010   23.8500 C   0  0  0  0  0  3  0  0  0  0  0  0
  -27.5350  -37.2880   24.7230 C   0  0  0  0  0  1  0  0  0  0  0  0
  -26.4550  -37.4520   23.7530 N   0  0  0  0  0  0  0  0  0  0  0  0
  -26.0490  -38.3730   23.8880 H   0  0  0  0  0  0  0  0  0  0  0  0
  -26.4120  -31.8020   25.1270 C   0  0  1  0  0  0  0  0  0  0  0  0
  -25.3240  -31.5680   26.2000 C   0  0  0  0  0  1  0  0  0  0  0  0
  -26.9990  -30.4230   24.7450 C   0  0  0  0  0  1  0  0  0  0  0  0
  -27.5610  -32.6050   25.7840 C   0  0  0  0  0  1  0  0  0  0  0  0
  1  2  1  0
  2  6  1  0
  2  4  2  0
  3  1  2  0
  3  5  1  0
  5  4  1  0
  5 48  1  0
  8 13  1  0
  9 10  1  0
  9  8  1  0
 11 10  1  0
 11 23  1  0
 11 12  1  0
 13  7  1  0
 13 12  1  0
 14  7  2  0
 16 15  1  0
 16 19  1  0
 18 15  1  0
 18  1  1  0
 18 17  1  0
 19  7  1  0
 19 17  1  0
 20 21  2  0
 21 40  1  0
 22 21  1  0
 22 25  1  0
 23 20  1  0
 23 24  1  0
 24 22  2  0
 25 26  1  0
 26 27  2  0
 28 31  1  0
 28 27  1  0
 29 28  2  0
 30 29  1  0
 30 25  2  0
 31 32  1  0
 32 33  1  0
 33 34  2  0
 35 34  1  0
 35 39  1  0
 36 35  2  0
 37 32  2  0
 37 36  1  0
 38 37  1  0
 40 41  1  0
 41 44  1  0
 41 43  1  0
 42 40  2  0
 45 20  1  0
 46 45  1  0
 47 45  1  0
 49 50  1  0
 49 48  1  0
 51 62  2  0
 52 50  1  0
 52 57  1  0
 53 61  1  0
 53 63  1  0
 54 60  1  0
 54 56  1  0
 55 61  1  0
 56 55  1  0
 57 56  2  0
 58 52  2  0
 59 58  1  0
 59 54  2  0
 60 53  1  0
 61 51  1  0
 63 65  2  0
 64 63  1  0
 66 64  1  0
 67 76  2  0
 67 72  1  0
 68 64  1  0
 68 72  1  0
 69 68  1  0
 70 71  1  0
 70 69  1  0
 71 67  1  0
 72 73  2  0
 73 74  1  0
 75 74  2  0
 76 75  1  0
 77 51  1  0
 77 78  1  0
 77 87  1  0
 78 81  1  0
 79 83  1  0
 79 78  1  0
 80 79  2  0
 83 82  1  0
 85 83  1  0
 85 86  1  0
 85 84  1  0
 87 90  1  1
 87 88  1  0
 89 87  1  0
M  ISO  4   7 100  19 100  49 101  50 101
M  END
>  <TORSDO>  (69) 
F 18

>  <SCORE>  (69) 
-14.738

>  <name>  (69) 
68

>  <ligand_id>  (69) 
68

>  <original_smiles>  (69) 
[H]c1c([H])c([H])c2c(c1[H])C([H])([H])C([H])([H])C([H])([H])C2([H])N([H])C(=O)C1([H])N(C(=O)C([H])(N([H])C(=O)C([H])(N([H])C([H])([H])[H])C([H])([H])[H])C(C([H])([H])[H])(C([H])([H])[H])C([H])([H])[H])C([H])([H])c2c([H])c(OC([H])([H])C([H])([H])n3nc(F)c(C4([H])C([H])([H])N(C(=O)N5C([H])([H])C([H])([H])C([H])([H])C([H])(n6nc(-c7c([H])c([H])c(Oc8c([H])c([H])c(F)c([H])c8F)c([H])c7[H])c(C(=O)N([H])[H])c6N([H])[H])C5([H])[H])C([H])([H])C4([H])[H])n3)c([H])c([H])c2C1([H])[H]

>  <smiles>  (69) 
[H]c1c([H])c([H])c2c(c1[H])C([H])([H])C([H])([H])C([H])([H])C2([H])N([H])C(=O)C1([H])N(C(=O)C([H])(N([H])C(=O)C([H])(N([H])C([H])([H])[H])C([H])([H])[H])C(C([H])([H])[H])(C([H])([H])[H])C([H])([H])[H])C([H])([H])c2c([H])c(OC([H])([H])C([H])([H])n3nc(F)c(C4([H])C([H])([H])N(C(=O)N5C([H])([H])C([H])([H])C([H])([H])C([H])(n6nc(-c7c([H])c([H])c(Oc8c([H])c([H])c(F)c([H])c8F)c([H])c7[H])c(C(=O)N([H])[H])c6N([H])[H])C5([H])[H])C([H])([H])C4([H])[H])n3)c([H])c([H])c2C1([H])[H]

$$$$
69:0:0
     RDKit          3D

 94103  0  0  1  0  0  0  0  0999 V2000
  -27.6690  -20.4630   19.7670 C   0  0  0  0  0  1  0  0  0  0  0  0
  -28.2730  -21.2900   20.9170 C   0  0  0  0  0  3  0  0  0  0  0  0
  -28.0830  -23.4280   19.6930 C   0  0  0  0  0  2  0  0  0  0  0  0
  -29.2640  -23.5230   21.3650 C   0  0  0  0  0  2  0  0  0  0  0  0
  -28.9940  -24.5460   20.2370 C   0  0  0  0  0  3  0  0  0  0  0  0
  -28.9740  -22.4770   20.3810 N   0  0  0  0  0  0  0  0  0  0  0  0
  -28.4460  -25.9420   20.6040 C   0  0  0  0  0  2  0  0  0  0  0  0
  -28.3340  -26.8560   19.4950 O   0  0  0  0  0  0  0  0  0  0  0  0
  -24.6510  -31.7420   23.1410 C   0  0  0  0  0  0  0  0  0  0  0  0
  -27.2010  -27.6330   19.5700 C   0  0  0  0  0  0  0  0  0  0  0  0
  -23.3840  -30.4620   21.4450 C   0  0  0  0  0  3  0  0  0  0  0  0
  -24.7930  -29.0870   19.8140 C   0  0  0  0  0  0  0  0  0  0  0  0
  -25.8900  -30.8870   21.1580 C   0  0  0  0  0  2  0  0  0  0  0  0
  -25.9690  -29.5790   20.3950 C   0  0  0  0  0  0  0  0  0  0  0  0
  -27.1800  -28.8560   20.2790 C   0  0  0  0  0  3  0  0  0  0  0  0
  -26.0190  -27.1610   18.9690 C   0  0  0  0  0  3  0  0  0  0  0  0
  -24.8130  -27.8780   19.0950 C   0  0  0  0  0  3  0  0  0  0  0  0
  -23.5330  -29.9070   20.0020 C   0  0  0  0  0  2  0  0  0  0  0  0
  -24.6630  -31.0400   21.9730 N   0  0  0  0  0  0  0  0  0  0  0  0
  -23.5940  -31.9490   23.7550 O   0  0  0  0  0  0  0  0  0  0  0  0
  -22.8000  -29.3490   22.3450 C   0  0  0  0  0  0  0  0  0  0  0  0
  -21.4760  -29.1460   22.2580 N   0  0  0  0  0  0  0  0  0  0  0  0
  -23.5310  -28.6760   23.0740 O   0  0  0  0  0  0  0  0  0  0  0  0
  -20.9450  -29.7470   21.6450 H   0  0  0  0  0  0  0  0  0  0  0  0
  -18.1610  -27.7960   22.7530 C   0  0  0  0  0  0  0  0  0  0  0  0
  -20.7150  -28.1270   22.9800 C   0  0  0  0  0  3  0  0  0  0  0  0
  -20.8510  -26.7450   22.3020 C   0  0  0  0  0  2  0  0  0  0  0  0
  -19.7340  -26.4530   21.2940 C   0  0  0  0  0  2  0  0  0  0  0  0
  -18.3660  -26.5030   21.9810 C   0  0  0  0  0  2  0  0  0  0  0  0
  -19.2640  -28.5670   23.2080 C   0  0  0  0  0  0  0  0  0  0  0  0
  -19.0200  -29.7770   23.8930 C   0  0  0  0  0  3  0  0  0  0  0  0
  -17.7040  -30.2220   24.1220 C   0  0  0  0  0  3  0  0  0  0  0  0
  -16.6160  -29.4480   23.6820 C   0  0  0  0  0  3  0  0  0  0  0  0
  -16.8450  -28.2360   23.0060 C   0  0  0  0  0  3  0  0  0  0  0  0
  -25.9580  -32.3400   23.7490 C   0  0  0  0  0  3  0  0  0  0  0  0
  -25.6540  -33.7050   24.1940 N   0  0  0  0  0  0  0  0  0  0  0  0
  -25.9410  -34.8140   23.5000 C   0  0  0  0  0  0  0  0  0  0  0  0
  -26.5650  -34.7970   22.4350 O   0  0  0  0  0  0  0  0  0  0  0  0
  -25.0920  -33.7940   25.0280 H   0  0  0  0  0  0  0  0  0  0  0  0
  -24.1700  -36.5930   23.3670 C   0  0  0  0  0  1  0  0  0  0  0  0
  -25.4600  -36.1590   24.0790 C   0  0  0  0  0  3  0  0  0  0  0  0
  -27.6270  -37.0210   24.8490 C   0  0  0  0  0  1  0  0  0  0  0  0
  -26.4710  -37.2350   23.9820 N   0  0  0  0  0  0  0  0  0  0  0  0
  -26.0610  -38.1350   24.2190 H   0  0  0  0  0  0  0  0  0  0  0  0
  -26.5430  -31.4820   24.9370 C   0  0  1  0  0  0  0  0  0  0  0  0
  -25.5040  -31.1570   26.0370 C   0  0  0  0  0  1  0  0  0  0  0  0
  -27.1120  -30.1420   24.4150 C   0  0  0  0  0  1  0  0  0  0  0  0
  -27.7230  -32.2340   25.5960 C   0  0  0  0  0  1  0  0  0  0  0  0
  -29.0970  -20.4240   21.9350 C   0  0  0  0  0  2  0  0  0  0  0  0
  -30.1740  -19.5510   21.3780 N   0  0  0  0  0  4  0  0  0  0  0  0
  -30.5740  -20.0230   20.5840 H   0  0  0  0  0  0  0  0  0  0  0  0
  -30.8880  -19.5150   22.0880 H   0  0  0  0  0  0  0  0  0  0  0  0
  -29.8110  -18.1360   21.0420 C   0  0  0  0  0  2  0  0  0  0  0  0
  -31.3690  -14.7390   20.2950 C   0  0  0  0  0  0  0  0  0  0  0  0
  -31.0640  -12.4730   19.3910 C   0  0  0  0  0  2  0  0  0  0  0  0
  -30.1690  -12.5310   18.1360 C   0  0  0  0  0  2  0  0  0  0  0  0
  -28.6780  -12.4770   18.5240 C   0  0  0  0  0  2  0  0  0  0  0  0
  -28.3080  -13.4420   19.6840 C   0  0  0  0  0  3  0  0  0  0  0  0
  -29.3290  -13.3650   20.8390 C   0  0  0  0  0  2  0  0  0  0  0  0
  -30.6620  -13.5790   20.2700 N   0  0  0  0  0  0  0  0  0  0  0  0
  -32.5840  -14.7620   20.0790 O   0  0  0  0  0  0  0  0  0  0  0  0
  -31.6080  -17.3880   18.4820 C   0  0  0  0  0  2  0  0  0  0  0  0
  -32.0870  -17.7840   19.8770 C   0  0  0  0  0  2  0  0  0  0  0  0
  -30.5370  -16.3090   18.7290 C   0  0  0  0  0  2  0  0  0  0  0  0
  -31.0350  -17.1700   20.8120 C   0  0  0  0  0  3  0  0  0  0  0  0
  -30.6430  -15.8920   20.1450 N   0  0  0  0  0  0  0  0  0  0  0  0
  -25.9290  -14.1360   20.3620 C   0  0  0  0  0  0  0  0  0  0  0  0
  -24.8280  -13.4040   20.7210 C   0  0  0  0  0  0  0  0  0  0  0  0
  -25.2430  -12.0380   20.7140 C   0  0  0  0  0  0  0  0  0  0  0  0
  -26.9430  -13.2150   20.1520 N   0  0  0  0  0  0  0  0  0  0  0  0
  -26.5360  -11.9500   20.4270 N   0  0  0  0  0  0  0  0  0  0  0  0
  -24.4690  -10.8030   20.9070 C   0  0  0  0  0  0  0  0  0  0  0  0
  -24.8230   -9.8590   21.8950 C   0  0  0  0  0  3  0  0  0  0  0  0
  -24.0570   -8.6860   22.0720 C   0  0  0  0  0  3  0  0  0  0  0  0
  -22.9220   -8.4510   21.2590 C   0  0  0  0  0  0  0  0  0  0  0  0
  -22.5900   -9.3810   20.2600 C   0  0  0  0  0  3  0  0  0  0  0  0
  -23.3560  -10.5460   20.0820 C   0  0  0  0  0  3  0  0  0  0  0  0
  -22.1310   -7.3310   21.3400 O   0  0  0  0  0  0  0  0  0  0  0  0
  -21.9420   -6.6720   22.5280 C   0  0  0  0  0  0  0  0  0  0  0  0
  -21.4000   -7.3180   23.6610 C   0  0  0  0  0  3  0  0  0  0  0  0
  -21.1570   -6.5850   24.8410 C   0  0  0  0  0  3  0  0  0  0  0  0
  -21.4450   -5.2070   24.8840 C   0  0  0  0  0  0  0  0  0  0  0  0
  -21.9750   -4.5600   23.7540 C   0  0  0  0  0  3  0  0  0  0  0  0
  -22.2200   -5.2910   22.5790 C   0  0  0  0  0  0  0  0  0  0  0  0
  -22.7130   -4.6600   21.4850 F   0  0  0  0  0  0  0  0  0  0  0  0
  -21.2030   -4.5000   26.0130 F   0  0  0  0  0  0  0  0  0  0  0  0
  -23.4450  -13.9330   20.9630 C   0  0  0  0  0  0  0  0  0  0  0  0
  -22.6850  -13.2770   21.8350 N   0  0  0  0  0  0  0  0  0  0  0  0
  -23.0460  -14.9580   20.4170 O   0  0  0  0  0  0  0  0  0  0  0  0
  -23.0220  -12.4460   22.2980 H   0  0  0  0  0  0  0  0  0  0  0  0
  -21.7540  -13.6110   22.0430 H   0  0  0  0  0  0  0  0  0  0  0  0
  -26.1500  -15.4970   20.1750 N   0  0  0  0  0  0  0  0  0  0  0  0
  -25.4080  -16.1850   20.2550 H   0  0  0  0  0  0  0  0  0  0  0  0
  -27.0250  -15.8860   19.8500 H   0  0  0  0  0  0  0  0  0  0  0  0
  2  1  1  0
  2 49  1  0
  3  5  1  0
  3  6  1  0
  5  7  1  0
  5  4  1  0
  6  2  1  0
  6  4  1  0
  8 10  1  0
  8  7  1  0
  9 20  2  0
 10 15  1  0
 11 19  1  0
 11 21  1  0
 12 18  1  0
 12 14  1  0
 13 19  1  0
 14 13  1  0
 15 14  2  0
 16 17  1  0
 16 10  2  0
 17 12  2  0
 18 11  1  0
 19  9  1  0
 21 23  2  0
 22 21  1  0
 24 22  1  0
 25 34  2  0
 25 30  1  0
 26 22  1  0
 26 30  1  0
 27 26  1  0
 28 29  1  0
 28 27  1  0
 29 25  1  0
 30 31  2  0
 31 32  1  0
 33 32  2  0
 34 33  1  0
 35  9  1  0
 35 36  1  0
 35 45  1  0
 36 39  1  0
 37 41  1  0
 37 36  1  0
 38 37  2  0
 41 40  1  0
 43 41  1  0
 43 44  1  0
 43 42  1  0
 45 48  1  1
 45 46  1  0
 47 45  1  0
 50 49  1  0
 50 52  1  0
 51 50  1  0
 53 50  1  0
 55 60  1  0
 56 57  1  0
 56 55  1  0
 58 57  1  0
 58 70  1  0
 58 59  1  0
 60 54  1  0
 60 59  1  0
 61 54  2  0
 62 64  1  0
 62 63  1  0
 63 65  1  0
 64 66  1  0
 65 53  1  0
 66 54  1  0
 66 65  1  0
 67 68  2  0
 68 87  1  0
 69 68  1  0
 69 72  1  0
 70 67  1  0
 70 71  1  0
 71 69  2  0
 72 73  1  0
 73 74  2  0
 75 78  1  0
 75 74  1  0
 76 75  2  0
 77 76  1  0
 77 72  2  0
 78 79  1  0
 79 84  2  0
 79 80  1  0
 80 81  2  0
 81 82  1  0
 82 86  1  0
 83 82  2  0
 84 83  1  0
 85 84  1  0
 87 88  1  0
 88 91  1  0
 88 90  1  0
 89 87  2  0
 92 93  1  0
 92 67  1  0
 94 92  1  0
M  ISO  4   7 101   8 101  54 100  66 100
M  END
>  <TORSDO>  (70) 
F 21

>  <SCORE>  (70) 
-11.885

>  <name>  (70) 
69

>  <ligand_id>  (70) 
69

>  <original_smiles>  (70) 
[H]c1c([H])c([H])c2c(c1[H])C([H])([H])C([H])([H])C([H])([H])C2([H])N([H])C(=O)C1([H])N(C(=O)C([H])(N([H])C(=O)C([H])(N([H])C([H])([H])[H])C([H])([H])[H])C(C([H])([H])[H])(C([H])([H])[H])C([H])([H])[H])C([H])([H])c2c([H])c(OC([H])([H])C3([H])C([H])([H])N(C([H])(C([H])([H])[H])C([H])([H])[N+]([H])([H])C([H])([H])C4([H])N(C(=O)N5C([H])([H])C([H])([H])C([H])([H])C([H])(n6nc(-c7c([H])c([H])c(Oc8c([H])c([H])c(F)c([H])c8F)c([H])c7[H])c(C(=O)N([H])[H])c6N([H])[H])C5([H])[H])C([H])([H])C([H])([H])C4([H])[H])C3([H])[H])c([H])c([H])c2C1([H])[H]

>  <smiles>  (70) 
[H]c1c([H])c([H])c2c(c1[H])C([H])([H])C([H])([H])C([H])([H])C2([H])N([H])C(=O)C1([H])N(C(=O)C([H])(N([H])C(=O)C([H])(N([H])C([H])([H])[H])C([H])([H])[H])C(C([H])([H])[H])(C([H])([H])[H])C([H])([H])[H])C([H])([H])c2c([H])c(OC([H])([H])C3([H])C([H])([H])N(C([H])(C([H])([H])[H])C([H])([H])[N+]([H])([H])C([H])([H])C4([H])N(C(=O)N5C([H])([H])C([H])([H])C([H])([H])C([H])(n6nc(-c7c([H])c([H])c(Oc8c([H])c([H])c(F)c([H])c8F)c([H])c7[H])c(C(=O)N([H])[H])c6N([H])[H])C5([H])[H])C([H])([H])C([H])([H])C4([H])[H])C3([H])[H])c([H])c([H])c2C1([H])[H]

$$$$
70:0:0
     RDKit          3D

 91101  0  0  1  0  0  0  0  0999 V2000
  -29.9150  -21.2630   21.2620 C   0  0  0  0  0  3  0  0  0  0  0  0
  -29.6410  -22.6930   21.1910 C   0  0  0  0  0  3  0  0  0  0  0  0
  -29.2520  -20.5160   20.3090 C   0  0  0  0  0  0  0  0  0  0  0  0
  -28.7860  -23.0300   20.1660 C   0  0  0  0  0  0  0  0  0  0  0  0
  -28.5820  -21.6530   19.6090 N   0  0  0  0  0  0  0  0  0  0  0  0
  -30.4890  -15.2410   20.0850 C   0  0  0  0  0  0  0  0  0  0  0  0
  -30.3790  -12.8290   19.1940 C   0  0  0  0  0  2  0  0  0  0  0  0
  -29.4190  -12.6940   17.9890 C   0  0  0  0  0  2  0  0  0  0  0  0
  -27.9770  -12.4560   18.4720 C   0  0  0  0  0  2  0  0  0  0  0  0
  -27.5840  -13.3980   19.6410 C   0  0  0  0  0  3  0  0  0  0  0  0
  -28.6730  -13.5010   20.7280 C   0  0  0  0  0  2  0  0  0  0  0  0
  -29.8900  -13.9610   20.0500 N   0  0  0  0  0  0  0  0  0  0  0  0
  -31.7020  -15.2300   19.8330 O   0  0  0  0  0  0  0  0  0  0  0  0
  -29.9520  -17.7370   19.1650 C   0  0  0  0  0  2  0  0  0  0  0  0
  -29.7200  -17.6390   21.1300 C   0  0  0  0  0  2  0  0  0  0  0  0
  -29.2090  -18.8000   20.1250 C   0  0  0  0  0  3  0  0  0  0  0  0
  -29.7470  -16.5080   20.0860 N   0  0  0  0  0  0  0  0  0  0  0  0
  -25.2400  -13.9540   20.4850 C   0  0  0  0  0  0  0  0  0  0  0  0
  -24.1880  -13.1740   20.8730 C   0  0  0  0  0  0  0  0  0  0  0  0
  -24.6500  -11.8230   20.8070 C   0  0  0  0  0  0  0  0  0  0  0  0
  -26.2720  -13.0810   20.1920 N   0  0  0  0  0  0  0  0  0  0  0  0
  -25.9300  -11.7920   20.4540 N   0  0  0  0  0  0  0  0  0  0  0  0
  -23.9240  -10.5610   20.9990 C   0  0  0  0  0  0  0  0  0  0  0  0
  -24.3590   -9.5900   21.9280 C   0  0  0  0  0  3  0  0  0  0  0  0
  -23.6310   -8.3930   22.1080 C   0  0  0  0  0  3  0  0  0  0  0  0
  -22.4530   -8.1590   21.3590 C   0  0  0  0  0  0  0  0  0  0  0  0
  -22.0370   -9.1190   20.4210 C   0  0  0  0  0  3  0  0  0  0  0  0
  -22.7650  -10.3070   20.2380 C   0  0  0  0  0  3  0  0  0  0  0  0
  -21.6950   -7.0150   21.4510 O   0  0  0  0  0  0  0  0  0  0  0  0
  -21.6230   -6.2900   22.6120 C   0  0  0  0  0  0  0  0  0  0  0  0
  -21.1370   -6.8500   23.8130 C   0  0  0  0  0  3  0  0  0  0  0  0
  -21.0170   -6.0480   24.9660 C   0  0  0  0  0  3  0  0  0  0  0  0
  -21.3730   -4.6860   24.9190 C   0  0  0  0  0  0  0  0  0  0  0  0
  -21.8530   -4.1250   23.7220 C   0  0  0  0  0  3  0  0  0  0  0  0
  -21.9750   -4.9240   22.5720 C   0  0  0  0  0  0  0  0  0  0  0  0
  -22.4190   -4.3740   21.4150 F   0  0  0  0  0  0  0  0  0  0  0  0
  -21.2510   -3.9140   26.0240 F   0  0  0  0  0  0  0  0  0  0  0  0
  -22.8000  -13.6510   21.1900 C   0  0  0  0  0  0  0  0  0  0  0  0
  -22.0940  -12.9470   22.0680 N   0  0  0  0  0  0  0  0  0  0  0  0
  -22.3550  -14.6850   20.6950 O   0  0  0  0  0  0  0  0  0  0  0  0
  -22.4690  -12.1130   22.4950 H   0  0  0  0  0  0  0  0  0  0  0  0
  -21.1660  -13.2530   22.3210 H   0  0  0  0  0  0  0  0  0  0  0  0
  -25.4010  -15.3280   20.3290 N   0  0  0  0  0  0  0  0  0  0  0  0
  -24.6430  -15.9820   20.4940 H   0  0  0  0  0  0  0  0  0  0  0  0
  -26.2540  -15.7750   20.0170 H   0  0  0  0  0  0  0  0  0  0  0  0
  -26.4180  -22.0260   18.3930 C   0  0  0  0  0  2  0  0  0  0  0  0
  -26.6160  -20.5380   18.5220 C   0  0  0  0  0  2  0  0  0  0  0  0
  -27.8200  -21.4480   18.3790 C   0  0  2  0  0  0  0  0  0  0  0  0
  -28.6860  -21.4680   17.1340 C   0  0  0  0  0  1  0  0  0  0  0  0
  -28.0660  -24.5080   19.6960 C   0  0  0  0  0  2  0  0  0  0  0  0
  -28.3480  -26.0160   20.2050 O   0  0  0  0  0  0  0  0  0  0  0  0
  -24.6780  -31.8350   23.2140 C   0  0  0  0  0  0  0  0  0  0  0  0
  -27.3430  -27.0980   20.1270 C   0  0  0  0  0  0  0  0  0  0  0  0
  -23.5300  -30.4680   21.5210 C   0  0  0  0  0  3  0  0  0  0  0  0
  -25.0230  -28.9200   20.0910 C   0  0  0  0  0  0  0  0  0  0  0  0
  -26.0950  -30.7140   21.4340 C   0  0  0  0  0  2  0  0  0  0  0  0
  -26.1900  -29.3260   20.7480 C   0  0  0  0  0  0  0  0  0  0  0  0
  -27.3460  -28.4330   20.7500 C   0  0  0  0  0  3  0  0  0  0  0  0
  -26.1490  -26.8430   19.4140 C   0  0  0  0  0  3  0  0  0  0  0  0
  -25.0230  -27.6970   19.4070 C   0  0  0  0  0  3  0  0  0  0  0  0
  -23.7940  -29.8240   20.1340 C   0  0  0  0  0  2  0  0  0  0  0  0
  -24.7890  -31.0300   22.1100 N   0  0  0  0  0  0  0  0  0  0  0  0
  -23.5750  -32.1040   23.7170 O   0  0  0  0  0  0  0  0  0  0  0  0
  -22.8290  -29.4390   22.4450 C   0  0  0  0  0  0  0  0  0  0  0  0
  -21.4970  -29.2870   22.3080 N   0  0  0  0  0  0  0  0  0  0  0  0
  -23.4850  -28.7810   23.2550 O   0  0  0  0  0  0  0  0  0  0  0  0
  -21.0200  -29.8720   21.6340 H   0  0  0  0  0  0  0  0  0  0  0  0
  -18.0960  -28.1270   22.7970 C   0  0  0  0  0  0  0  0  0  0  0  0
  -20.6640  -28.3320   23.0440 C   0  0  0  0  0  3  0  0  0  0  0  0
  -20.7300  -26.9250   22.4030 C   0  0  0  0  0  2  0  0  0  0  0  0
  -19.6100  -26.6690   21.3880 C   0  0  0  0  0  2  0  0  0  0  0  0
  -18.2390  -26.8080   22.0550 C   0  0  0  0  0  2  0  0  0  0  0  0
  -19.2330  -28.8490   23.2480 C   0  0  0  0  0  0  0  0  0  0  0  0
  -19.0420  -30.0840   23.9040 C   0  0  0  0  0  3  0  0  0  0  0  0
  -17.7480  -30.5960   24.1140 C   0  0  0  0  0  3  0  0  0  0  0  0
  -16.6250  -29.8710   23.6770 C   0  0  0  0  0  3  0  0  0  0  0  0
  -16.8010  -28.6380   23.0240 C   0  0  0  0  0  3  0  0  0  0  0  0
  -25.9310  -32.4720   23.8880 C   0  0  0  0  0  3  0  0  0  0  0  0
  -25.6070  -33.8720   24.2120 N   0  0  0  0  0  0  0  0  0  0  0  0
  -25.9280  -34.9290   23.4540 C   0  0  0  0  0  0  0  0  0  0  0  0
  -26.5940  -34.8290   22.4200 O   0  0  0  0  0  0  0  0  0  0  0  0
  -25.0150  -34.0220   25.0160 H   0  0  0  0  0  0  0  0  0  0  0  0
  -24.1720  -36.7060   23.1360 C   0  0  0  0  0  1  0  0  0  0  0  0
  -25.4390  -36.3170   23.9150 C   0  0  0  0  0  3  0  0  0  0  0  0
  -27.5760  -37.2420   24.6940 C   0  0  0  0  0  1  0  0  0  0  0  0
  -26.4550  -37.3810   23.7680 N   0  0  0  0  0  0  0  0  0  0  0  0
  -26.0400  -38.2990   23.9080 H   0  0  0  0  0  0  0  0  0  0  0  0
  -26.3920  -31.7040   25.1890 C   0  0  1  0  0  0  0  0  0  0  0  0
  -25.2560  -31.4760   26.2130 C   0  0  0  0  0  1  0  0  0  0  0  0
  -26.9860  -30.3210   24.8340 C   0  0  0  0  0  1  0  0  0  0  0  0
  -27.5170  -32.4980   25.8940 C   0  0  0  0  0  1  0  0  0  0  0  0
  2  1  1  0
  3  1  2  0
  4  2  2  0
  5  4  1  0
  5  3  1  0
  6 17  1  0
  7 12  1  0
  8  9  1  0
  8  7  1  0
 10  9  1  0
 10 21  1  0
 10 11  1  0
 12  6  1  0
 12 11  1  0
 13  6  2  0
 14 17  1  0
 14 16  1  0
 16  3  1  0
 16 15  1  0
 17 15  1  0
 18 19  2  0
 19 38  1  0
 20 19  1  0
 20 23  1  0
 21 22  1  0
 21 18  1  0
 22 20  2  0
 23 24  1  0
 24 25  2  0
 26 29  1  0
 26 25  1  0
 27 26  2  0
 28 27  1  0
 28 23  2  0
 29 30  1  0
 30 31  1  0
 31 32  2  0
 33 32  1  0
 33 37  1  0
 34 33  2  0
 35 30  2  0
 35 34  1  0
 36 35  1  0
 38 39  1  0
 39 42  1  0
 39 41  1  0
 40 38  2  0
 43 18  1  0
 43 44  1  0
 45 43  1  0
 46 47  1  0
 48 46  1  0
 48 47  1  0
 48  5  1  0
 48 49  1  6
 50  4  1  0
 50 51  1  0
 52 63  2  0
 53 51  1  0
 53 58  1  0
 54 62  1  0
 54 64  1  0
 55 61  1  0
 55 57  1  0
 56 62  1  0
 57 58  2  0
 57 56  1  0
 59 53  2  0
 60 59  1  0
 60 55  2  0
 61 54  1  0
 62 52  1  0
 64 66  2  0
 65 64  1  0
 67 65  1  0
 68 77  2  0
 68 73  1  0
 69 65  1  0
 69 73  1  0
 70 69  1  0
 71 72  1  0
 71 70  1  0
 72 68  1  0
 73 74  2  0
 74 75  1  0
 76 75  2  0
 77 76  1  0
 78 52  1  0
 78 79  1  0
 78 88  1  0
 79 82  1  0
 80 84  1  0
 80 79  1  0
 81 80  2  0
 84 83  1  0
 86 87  1  0
 86 84  1  0
 86 85  1  0
 88 91  1  1
 88 89  1  0
 90 88  1  0
M  ISO  4   6 100  17 100  50 101  51 101
M  END
>  <TORSDO>  (71) 
F 18

>  <SCORE>  (71) 
-16.049

>  <name>  (71) 
70

>  <ligand_id>  (71) 
70

>  <original_smiles>  (71) 
[H]c1c([H])c([H])c2c(c1[H])C([H])([H])C([H])([H])C([H])([H])C2([H])N([H])C(=O)C1([H])N(C(=O)C([H])(N([H])C(=O)C([H])(N([H])C([H])([H])[H])C([H])([H])[H])C(C([H])([H])[H])(C([H])([H])[H])C([H])([H])[H])C([H])([H])c2c([H])c(OC([H])([H])c3c([H])c([H])c(C4([H])C([H])([H])N(C(=O)N5C([H])([H])C([H])([H])C([H])([H])C([H])(n6nc(-c7c([H])c([H])c(Oc8c([H])c([H])c(F)c([H])c8F)c([H])c7[H])c(C(=O)N([H])[H])c6N([H])[H])C5([H])[H])C4([H])[H])n3C3(C([H])([H])[H])C([H])([H])C3([H])[H])c([H])c([H])c2C1([H])[H]

>  <smiles>  (71) 
[H]c1c([H])c([H])c2c(c1[H])C([H])([H])C([H])([H])C([H])([H])C2([H])N([H])C(=O)C1([H])N(C(=O)C([H])(N([H])C(=O)C([H])(N([H])C([H])([H])[H])C([H])([H])[H])C(C([H])([H])[H])(C([H])([H])[H])C([H])([H])[H])C([H])([H])c2c([H])c(OC([H])([H])c3c([H])c([H])c(C4([H])C([H])([H])N(C(=O)N5C([H])([H])C([H])([H])C([H])([H])C([H])(n6nc(-c7c([H])c([H])c(Oc8c([H])c([H])c(F)c([H])c8F)c([H])c7[H])c(C(=O)N([H])[H])c6N([H])[H])C5([H])[H])C4([H])[H])n3C3(C([H])([H])[H])C([H])([H])C3([H])[H])c([H])c([H])c2C1([H])[H]

$$$$
71:0:0
     RDKit          3D

 95104  0  0  1  0  0  0  0  0999 V2000
  -30.5710  -22.8030   21.7170 C   0  0  0  0  0  2  0  0  0  0  0  0
  -30.2540  -22.3880   19.6700 C   0  0  0  0  0  2  0  0  0  0  0  0
  -30.5850  -21.5020   20.8870 C   0  0  0  0  0  3  0  0  0  0  0  0
  -30.8310  -23.5850   20.4180 C   0  0  0  0  0  3  0  0  0  0  0  0
  -30.0130  -24.7970   20.2310 N   0  0  0  0  0  4  0  0  0  0  0  0
  -29.0650  -24.6200   20.5290 H   0  0  0  0  0  0  0  0  0  0  0  0
  -29.9660  -25.0120   19.2480 H   0  0  0  0  0  0  0  0  0  0  0  0
  -30.4940  -25.9990   20.9370 C   0  0  0  0  0  2  0  0  0  0  0  0
  -29.5110  -27.1740   20.7750 C   0  0  0  0  0  2  0  0  0  0  0  0
  -28.3320  -26.7270   20.0970 O   0  0  0  0  0  0  0  0  0  0  0  0
  -24.5150  -31.9030   23.1940 C   0  0  0  0  0  0  0  0  0  0  0  0
  -27.1970  -27.5050   20.1350 C   0  0  0  0  0  0  0  0  0  0  0  0
  -23.3120  -30.4950   21.5500 C   0  0  0  0  0  3  0  0  0  0  0  0
  -24.7740  -28.9590   20.1340 C   0  0  0  0  0  0  0  0  0  0  0  0
  -25.8270  -30.8790   21.3450 C   0  0  0  0  0  2  0  0  0  0  0  0
  -25.9220  -29.5060   20.7180 C   0  0  0  0  0  0  0  0  0  0  0  0
  -27.1340  -28.7910   20.7180 C   0  0  0  0  0  3  0  0  0  0  0  0
  -26.0330  -26.9640   19.5480 C   0  0  0  0  0  3  0  0  0  0  0  0
  -24.8210  -27.6820   19.5460 C   0  0  0  0  0  3  0  0  0  0  0  0
  -23.5240  -29.8070   20.1730 C   0  0  0  0  0  2  0  0  0  0  0  0
  -24.5690  -31.1050   22.0910 N   0  0  0  0  0  0  0  0  0  0  0  0
  -23.4350  -32.1740   23.7340 O   0  0  0  0  0  0  0  0  0  0  0  0
  -22.6630  -29.4760   22.5130 C   0  0  0  0  0  0  0  0  0  0  0  0
  -21.3400  -29.2880   22.3780 N   0  0  0  0  0  0  0  0  0  0  0  0
  -23.3450  -28.8540   23.3330 O   0  0  0  0  0  0  0  0  0  0  0  0
  -20.8530  -29.8420   21.6870 H   0  0  0  0  0  0  0  0  0  0  0  0
  -17.9700  -28.0790   22.8420 C   0  0  0  0  0  0  0  0  0  0  0  0
  -20.5210  -28.3490   23.1440 C   0  0  0  0  0  3  0  0  0  0  0  0
  -20.6380  -26.9160   22.5750 C   0  0  0  0  0  2  0  0  0  0  0  0
  -19.5490  -26.5810   21.5520 C   0  0  0  0  0  2  0  0  0  0  0  0
  -18.1600  -26.7250   22.1790 C   0  0  0  0  0  2  0  0  0  0  0  0
  -19.0780  -28.8490   23.2810 C   0  0  0  0  0  0  0  0  0  0  0  0
  -18.8470  -30.1160   23.8580 C   0  0  0  0  0  3  0  0  0  0  0  0
  -17.5380  -30.6120   24.0050 C   0  0  0  0  0  3  0  0  0  0  0  0
  -16.4430  -29.8390   23.5840 C   0  0  0  0  0  3  0  0  0  0  0  0
  -16.6590  -28.5730   23.0080 C   0  0  0  0  0  3  0  0  0  0  0  0
  -25.8020  -32.5330   23.8160 C   0  0  0  0  0  3  0  0  0  0  0  0
  -26.3260  -31.7560   25.0840 C   0  0  1  0  0  0  0  0  0  0  0  0
  -25.2380  -31.5070   26.1560 C   0  0  0  0  0  1  0  0  0  0  0  0
  -26.9080  -30.3820   24.6750 C   0  0  0  0  0  1  0  0  0  0  0  0
  -27.4780  -32.5470   25.7460 C   0  0  0  0  0  1  0  0  0  0  0  0
  -25.4940  -33.9300   24.1510 N   0  0  0  0  0  0  0  0  0  0  0  0
  -25.8310  -34.9820   23.3930 C   0  0  0  0  0  0  0  0  0  0  0  0
  -26.5060  -34.8810   22.3650 O   0  0  0  0  0  0  0  0  0  0  0  0
  -24.8980  -34.0840   24.9500 H   0  0  0  0  0  0  0  0  0  0  0  0
  -24.1040  -36.7730   23.0270 C   0  0  0  0  0  1  0  0  0  0  0  0
  -25.3390  -36.3680   23.8500 C   0  0  0  0  0  3  0  0  0  0  0  0
  -27.4730  -37.2420   24.6940 C   0  0  0  0  0  1  0  0  0  0  0  0
  -26.3690  -37.4250   23.7560 N   0  0  0  0  0  0  0  0  0  0  0  0
  -25.9590  -38.3400   23.9270 H   0  0  0  0  0  0  0  0  0  0  0  0
  -29.6870  -20.3210   21.3120 C   0  0  0  0  0  2  0  0  0  0  0  0
  -30.7920  -14.4830   20.1130 C   0  0  0  0  0  0  0  0  0  0  0  0
  -30.4370  -12.3640   18.9290 C   0  0  0  0  0  2  0  0  0  0  0  0
  -29.4470  -12.6070   17.7720 C   0  0  0  0  0  2  0  0  0  0  0  0
  -27.9880  -12.4870   18.2550 C   0  0  0  0  0  2  0  0  0  0  0  0
  -27.7080  -13.2850   19.5570 C   0  0  0  0  0  3  0  0  0  0  0  0
  -28.8070  -13.0310   20.6170 C   0  0  0  0  0  2  0  0  0  0  0  0
  -30.1090  -13.3150   19.9970 N   0  0  0  0  0  0  0  0  0  0  0  0
  -31.9500  -14.6430   19.7140 O   0  0  0  0  0  0  0  0  0  0  0  0
  -29.1870  -19.4320   20.1540 C   0  0  0  0  0  0  0  0  0  0  0  0
  -28.5280  -17.2470   19.2620 C   0  0  0  0  0  2  0  0  0  0  0  0
  -28.9210  -17.3790   21.6270 C   0  0  0  0  0  2  0  0  0  0  0  0
  -29.7630  -16.3660   19.0740 C   0  0  0  0  0  2  0  0  0  0  0  0
  -30.0740  -16.3460   21.5240 C   0  0  0  0  0  2  0  0  0  0  0  0
  -28.8300  -18.1440   20.3740 N   0  0  0  0  0  0  0  0  0  0  0  0
  -29.9920  -15.5530   20.2810 N   0  0  0  0  0  0  0  0  0  0  0  0
  -29.1190  -19.9130   19.0190 O   0  0  0  0  0  0  0  0  0  0  0  0
  -25.3290  -13.8860   20.3450 C   0  0  0  0  0  0  0  0  0  0  0  0
  -24.2740  -13.1070   20.7340 C   0  0  0  0  0  0  0  0  0  0  0  0
  -24.7420  -11.7590   20.6880 C   0  0  0  0  0  0  0  0  0  0  0  0
  -26.3720  -13.0100   20.0780 N   0  0  0  0  0  0  0  0  0  0  0  0
  -26.0220  -11.7250   20.3440 N   0  0  0  0  0  0  0  0  0  0  0  0
  -24.0310  -10.4930   20.8980 C   0  0  0  0  0  0  0  0  0  0  0  0
  -24.4810   -9.5380   21.8370 C   0  0  0  0  0  3  0  0  0  0  0  0
  -23.7700   -8.3360   22.0330 C   0  0  0  0  0  3  0  0  0  0  0  0
  -22.5940   -8.0790   21.2880 C   0  0  0  0  0  0  0  0  0  0  0  0
  -22.1620   -9.0220   20.3390 C   0  0  0  0  0  3  0  0  0  0  0  0
  -22.8740  -10.2180   20.1420 C   0  0  0  0  0  3  0  0  0  0  0  0
  -21.8550   -6.9260   21.3910 O   0  0  0  0  0  0  0  0  0  0  0  0
  -21.7950   -6.2110   22.5600 C   0  0  0  0  0  0  0  0  0  0  0  0
  -21.3440   -6.7930   23.7650 C   0  0  0  0  0  3  0  0  0  0  0  0
  -21.2320   -6.0040   24.9290 C   0  0  0  0  0  3  0  0  0  0  0  0
  -21.5590   -4.6360   24.8880 C   0  0  0  0  0  0  0  0  0  0  0  0
  -22.0030   -4.0540   23.6870 C   0  0  0  0  0  3  0  0  0  0  0  0
  -22.1180   -4.8380   22.5260 C   0  0  0  0  0  0  0  0  0  0  0  0
  -22.5250   -4.2680   21.3670 F   0  0  0  0  0  0  0  0  0  0  0  0
  -21.4450   -3.8770   26.0020 F   0  0  0  0  0  0  0  0  0  0  0  0
  -22.8820  -13.5760   21.0510 C   0  0  0  0  0  0  0  0  0  0  0  0
  -22.1880  -12.8770   21.9420 N   0  0  0  0  0  0  0  0  0  0  0  0
  -22.4210  -14.5990   20.5450 O   0  0  0  0  0  0  0  0  0  0  0  0
  -22.5710  -12.0440   22.3660 H   0  0  0  0  0  0  0  0  0  0  0  0
  -21.2590  -13.1770   22.2020 H   0  0  0  0  0  0  0  0  0  0  0  0
  -25.4850  -15.2590   20.1860 N   0  0  0  0  0  0  0  0  0  0  0  0
  -24.7440  -15.9260   20.3650 H   0  0  0  0  0  0  0  0  0  0  0  0
  -26.3680  -15.6940   19.9590 H   0  0  0  0  0  0  0  0  0  0  0  0
  2  4  1  0
  2  3  1  0
  3 51  1  0
  3  1  1  0
  4  5  1  0
  4  1  1  0
  5  6  1  0
  5  8  1  0
  7  5  1  0
  9  8  1  0
 10 12  1  0
 10  9  1  0
 11 22  2  0
 12 17  1  0
 13 21  1  0
 13 23  1  0
 14 20  1  0
 14 16  1  0
 15 21  1  0
 16 15  1  0
 17 16  2  0
 18 12  2  0
 19 18  1  0
 19 14  2  0
 20 13  1  0
 21 11  1  0
 23 25  2  0
 24 23  1  0
 26 24  1  0
 27 36  2  0
 27 32  1  0
 28 24  1  0
 28 32  1  0
 29 28  1  0
 30 31  1  0
 30 29  1  0
 31 27  1  0
 32 33  2  0
 33 34  1  0
 35 34  2  0
 36 35  1  0
 37 11  1  0
 37 42  1  0
 37 38  1  0
 38 41  1  1
 38 39  1  0
 40 38  1  0
 42 45  1  0
 43 47  1  0
 43 42  1  0
 44 43  2  0
 47 46  1  0
 49 47  1  0
 49 50  1  0
 49 48  1  0
 52 66  1  0
 53 58  1  0
 54 55  1  0
 54 53  1  0
 56 55  1  0
 56 71  1  0
 56 57  1  0
 58 52  1  0
 58 57  1  0
 59 52  2  0
 60 65  1  0
 60 51  1  0
 61 65  1  0
 63 61  1  0
 63 66  1  0
 64 62  1  0
 65 62  1  0
 66 64  1  0
 67 60  2  0
 68 69  2  0
 69 88  1  0
 70 69  1  0
 70 73  1  0
 71 72  1  0
 71 68  1  0
 72 70  2  0
 73 74  1  0
 74 75  2  0
 76 79  1  0
 76 75  1  0
 77 76  2  0
 78 77  1  0
 78 73  2  0
 79 80  1  0
 80 81  1  0
 81 82  2  0
 83 82  1  0
 83 87  1  0
 84 83  2  0
 85 80  2  0
 85 84  1  0
 86 85  1  0
 88 89  1  0
 89 92  1  0
 89 91  1  0
 90 88  2  0
 93 68  1  0
 93 94  1  0
 95 93  1  0
M  ISO  4   9 101  10 101  52 100  66 100
M  END
>  <TORSDO>  (72) 
F 20

>  <SCORE>  (72) 
-13.268

>  <name>  (72) 
71

>  <ligand_id>  (72) 
71

>  <original_smiles>  (72) 
[H]c1c([H])c([H])c2c(c1[H])C([H])([H])C([H])([H])C([H])([H])C2([H])N([H])C(=O)C1([H])N(C(=O)C([H])(N([H])C(=O)C([H])(N([H])C([H])([H])[H])C([H])([H])[H])C(C([H])([H])[H])(C([H])([H])[H])C([H])([H])[H])C([H])([H])c2c([H])c(OC([H])([H])C([H])([H])[N+]([H])([H])C3([H])C([H])([H])C([H])(C([H])([H])C(=O)N4C([H])([H])C([H])([H])N(C(=O)N5C([H])([H])C([H])([H])C([H])([H])C([H])(n6nc(-c7c([H])c([H])c(Oc8c([H])c([H])c(F)c([H])c8F)c([H])c7[H])c(C(=O)N([H])[H])c6N([H])[H])C5([H])[H])C([H])([H])C4([H])[H])C3([H])[H])c([H])c([H])c2C1([H])[H]

>  <smiles>  (72) 
[H]c1c([H])c([H])c2c(c1[H])C([H])([H])C([H])([H])C([H])([H])C2([H])N([H])C(=O)C1([H])N(C(=O)C([H])(N([H])C(=O)C([H])(N([H])C([H])([H])[H])C([H])([H])[H])C(C([H])([H])[H])(C([H])([H])[H])C([H])([H])[H])C([H])([H])c2c([H])c(OC([H])([H])C([H])([H])[N+]([H])([H])C3([H])C([H])([H])C([H])(C([H])([H])C(=O)N4C([H])([H])C([H])([H])N(C(=O)N5C([H])([H])C([H])([H])C([H])([H])C([H])(n6nc(-c7c([H])c([H])c(Oc8c([H])c([H])c(F)c([H])c8F)c([H])c7[H])c(C(=O)N([H])[H])c6N([H])[H])C5([H])[H])C([H])([H])C4([H])[H])C3([H])[H])c([H])c([H])c2C1([H])[H]

$$$$
72:0:0
     RDKit          3D

 92101  0  0  1  0  0  0  0  0999 V2000
  -28.4690  -21.2840   21.7670 C   0  0  0  0  0  2  0  0  0  0  0  0
  -28.1480  -22.6250   21.1000 C   0  0  0  0  0  2  0  0  0  0  0  0
  -30.4260  -22.4000   20.8920 C   0  0  0  0  0  2  0  0  0  0  0  0
  -29.9950  -21.1380   21.6610 C   0  0  0  0  0  3  0  0  0  0  0  0
  -29.3930  -23.3760   21.2380 N   0  0  0  0  0  0  0  0  0  0  0  0
  -30.3930  -19.8720   20.9970 N   0  0  0  0  0  4  0  0  0  0  0  0
  -31.2960  -20.0100   20.5710 H   0  0  0  0  0  0  0  0  0  0  0  0
  -29.7380  -19.6660   20.2610 H   0  0  0  0  0  0  0  0  0  0  0  0
  -30.5040  -18.7200   21.9220 C   0  0  0  0  0  2  0  0  0  0  0  0
  -30.7220  -14.5030   20.1760 C   0  0  0  0  0  0  0  0  0  0  0  0
  -30.3010  -12.4440   18.8860 C   0  0  0  0  0  2  0  0  0  0  0  0
  -29.2970  -12.7220   17.7520 C   0  0  0  0  0  2  0  0  0  0  0  0
  -27.8500  -12.5590   18.2570 C   0  0  0  0  0  2  0  0  0  0  0  0
  -27.5890  -13.3400   19.5730 C   0  0  0  0  0  3  0  0  0  0  0  0
  -28.6980  -13.0560   20.6090 C   0  0  0  0  0  2  0  0  0  0  0  0
  -30.0020  -13.3650   19.9920 N   0  0  0  0  0  0  0  0  0  0  0  0
  -31.7430  -14.7710   19.5350 O   0  0  0  0  0  0  0  0  0  0  0  0
  -29.4660  -16.5210   20.8280 C   0  0  0  0  0  2  0  0  0  0  0  0
  -31.1410  -16.1570   21.9900 C   0  0  0  0  0  2  0  0  0  0  0  0
  -30.6770  -17.3790   21.1980 C   0  0  0  0  0  3  0  0  0  0  0  0
  -30.2680  -15.3270   21.1420 N   0  0  0  0  0  0  0  0  0  0  0  0
  -25.2250  -13.9210   20.4150 C   0  0  0  0  0  0  0  0  0  0  0  0
  -24.1800  -13.1350   20.8220 C   0  0  0  0  0  0  0  0  0  0  0  0
  -24.6440  -11.7870   20.7380 C   0  0  0  0  0  0  0  0  0  0  0  0
  -26.2610  -13.0490   20.1130 N   0  0  0  0  0  0  0  0  0  0  0  0
  -25.9160  -11.7610   20.3600 N   0  0  0  0  0  0  0  0  0  0  0  0
  -23.9360  -10.5170   20.9380 C   0  0  0  0  0  0  0  0  0  0  0  0
  -24.3990   -9.5500   21.8560 C   0  0  0  0  0  3  0  0  0  0  0  0
  -23.6900   -8.3440   22.0460 C   0  0  0  0  0  3  0  0  0  0  0  0
  -22.5030   -8.0960   21.3160 C   0  0  0  0  0  0  0  0  0  0  0  0
  -22.0580   -9.0530   20.3870 C   0  0  0  0  0  3  0  0  0  0  0  0
  -22.7680  -10.2500   20.1960 C   0  0  0  0  0  3  0  0  0  0  0  0
  -21.7630   -6.9430   21.4150 O   0  0  0  0  0  0  0  0  0  0  0  0
  -21.7270   -6.2070   22.5730 C   0  0  0  0  0  0  0  0  0  0  0  0
  -21.2860   -6.7630   23.7930 C   0  0  0  0  0  3  0  0  0  0  0  0
  -21.1960   -5.9530   24.9440 C   0  0  0  0  0  3  0  0  0  0  0  0
  -21.5400   -4.5890   24.8740 C   0  0  0  0  0  0  0  0  0  0  0  0
  -21.9730   -4.0330   23.6570 C   0  0  0  0  0  3  0  0  0  0  0  0
  -22.0640   -4.8410   22.5100 C   0  0  0  0  0  0  0  0  0  0  0  0
  -22.4630   -4.2960   21.3350 F   0  0  0  0  0  0  0  0  0  0  0  0
  -21.4460   -3.8090   25.9760 F   0  0  0  0  0  0  0  0  0  0  0  0
  -22.7970  -13.5990   21.1790 C   0  0  0  0  0  0  0  0  0  0  0  0
  -22.1160  -12.8750   22.0610 N   0  0  0  0  0  0  0  0  0  0  0  0
  -22.3300  -14.6370   20.7120 O   0  0  0  0  0  0  0  0  0  0  0  0
  -22.5070  -12.0350   22.4610 H   0  0  0  0  0  0  0  0  0  0  0  0
  -21.1900  -13.1670   22.3400 H   0  0  0  0  0  0  0  0  0  0  0  0
  -25.3760  -15.2950   20.2580 N   0  0  0  0  0  0  0  0  0  0  0  0
  -24.6140  -15.9460   20.4120 H   0  0  0  0  0  0  0  0  0  0  0  0
  -26.2100  -15.7410   19.8950 H   0  0  0  0  0  0  0  0  0  0  0  0
  -29.4540  -24.6020   20.4290 C   0  0  0  0  0  2  0  0  0  0  0  0
  -28.3740  -25.6170   20.8620 C   0  0  0  0  0  2  0  0  0  0  0  0
  -28.4980  -26.8690   20.1780 O   0  0  0  0  0  0  0  0  0  0  0  0
  -24.6150  -31.9700   23.2660 C   0  0  0  0  0  0  0  0  0  0  0  0
  -27.3320  -27.5980   20.1680 C   0  0  0  0  0  0  0  0  0  0  0  0
  -23.4370  -30.5700   21.6010 C   0  0  0  0  0  3  0  0  0  0  0  0
  -24.9210  -29.0660   20.1730 C   0  0  0  0  0  0  0  0  0  0  0  0
  -25.9600  -30.9600   21.4300 C   0  0  0  0  0  2  0  0  0  0  0  0
  -26.0660  -29.5990   20.7760 C   0  0  0  0  0  0  0  0  0  0  0  0
  -27.2780  -28.8720   20.7720 C   0  0  0  0  0  3  0  0  0  0  0  0
  -26.1740  -27.0780   19.5490 C   0  0  0  0  0  3  0  0  0  0  0  0
  -24.9680  -27.8040   19.5540 C   0  0  0  0  0  3  0  0  0  0  0  0
  -23.6660  -29.9080   20.2160 C   0  0  0  0  0  2  0  0  0  0  0  0
  -24.6870  -31.1800   22.1580 N   0  0  0  0  0  0  0  0  0  0  0  0
  -23.5260  -32.2260   23.8010 O   0  0  0  0  0  0  0  0  0  0  0  0
  -22.7880  -29.5330   22.5450 C   0  0  0  0  0  0  0  0  0  0  0  0
  -21.4690  -29.3280   22.3930 N   0  0  0  0  0  0  0  0  0  0  0  0
  -23.4680  -28.9140   23.3690 O   0  0  0  0  0  0  0  0  0  0  0  0
  -20.9830  -29.8780   21.7000 H   0  0  0  0  0  0  0  0  0  0  0  0
  -18.1110  -28.0660   22.8160 C   0  0  0  0  0  0  0  0  0  0  0  0
  -20.6550  -28.3740   23.1460 C   0  0  0  0  0  3  0  0  0  0  0  0
  -20.8000  -26.9460   22.5710 C   0  0  0  0  0  2  0  0  0  0  0  0
  -19.7290  -26.6010   21.5330 C   0  0  0  0  0  2  0  0  0  0  0  0
  -18.3310  -26.7190   22.1460 C   0  0  0  0  0  2  0  0  0  0  0  0
  -19.2040  -28.8490   23.2710 C   0  0  0  0  0  0  0  0  0  0  0  0
  -18.9480  -30.1080   23.8570 C   0  0  0  0  0  3  0  0  0  0  0  0
  -17.6310  -30.5850   23.9900 C   0  0  0  0  0  3  0  0  0  0  0  0
  -16.5510  -29.7990   23.5530 C   0  0  0  0  0  3  0  0  0  0  0  0
  -16.7920  -28.5400   22.9730 C   0  0  0  0  0  3  0  0  0  0  0  0
  -25.8900  -32.6060   23.9030 C   0  0  0  0  0  3  0  0  0  0  0  0
  -26.3970  -31.8340   25.1820 C   0  0  1  0  0  0  0  0  0  0  0  0
  -25.2940  -31.5780   26.2330 C   0  0  0  0  0  1  0  0  0  0  0  0
  -27.0020  -30.4660   24.7890 C   0  0  0  0  0  1  0  0  0  0  0  0
  -27.5310  -32.6380   25.8630 C   0  0  0  0  0  1  0  0  0  0  0  0
  -25.5720  -34.0030   24.2280 N   0  0  0  0  0  0  0  0  0  0  0  0
  -25.9130  -35.0550   23.4730 C   0  0  0  0  0  0  0  0  0  0  0  0
  -26.6030  -34.9540   22.4550 O   0  0  0  0  0  0  0  0  0  0  0  0
  -24.9620  -34.1550   25.0180 H   0  0  0  0  0  0  0  0  0  0  0  0
  -24.1880  -36.8420   23.0750 C   0  0  0  0  0  1  0  0  0  0  0  0
  -25.4070  -36.4400   23.9190 C   0  0  0  0  0  3  0  0  0  0  0  0
  -27.5230  -37.3230   24.8000 C   0  0  0  0  0  1  0  0  0  0  0  0
  -26.4370  -37.5000   23.8410 N   0  0  0  0  0  0  0  0  0  0  0  0
  -26.0220  -38.4130   23.9990 H   0  0  0  0  0  0  0  0  0  0  0  0
  2  5  1  0
  2  1  1  0
  3  5  1  0
  3  4  1  0
  4  6  1  0
  4  1  1  0
  6  9  1  0
  7  6  1  0
  8  6  1  0
 10 21  1  0
 11 16  1  0
 12 13  1  0
 12 11  1  0
 14 13  1  0
 14 25  1  0
 14 15  1  0
 16 10  1  0
 16 15  1  0
 17 10  2  0
 18 21  1  0
 18 20  1  0
 20  9  1  0
 20 19  1  0
 21 19  1  0
 22 23  2  0
 23 42  1  0
 24 23  1  0
 24 27  1  0
 25 26  1  0
 25 22  1  0
 26 24  2  0
 27 28  1  0
 28 29  2  0
 30 33  1  0
 30 29  1  0
 31 30  2  0
 32 31  1  0
 32 27  2  0
 33 34  1  0
 34 35  1  0
 35 36  2  0
 37 36  1  0
 37 41  1  0
 38 37  2  0
 39 34  2  0
 39 38  1  0
 40 39  1  0
 42 43  1  0
 43 46  1  0
 43 45  1  0
 44 42  2  0
 47 48  1  0
 47 22  1  0
 49 47  1  0
 50 51  1  0
 50  5  1  0
 52 51  1  0
 53 64  2  0
 54 52  1  0
 54 59  1  0
 55 63  1  0
 55 65  1  0
 56 62  1  0
 56 58  1  0
 57 63  1  0
 58 57  1  0
 59 58  2  0
 60 61  1  0
 60 54  2  0
 61 56  2  0
 62 55  1  0
 63 53  1  0
 65 67  2  0
 66 65  1  0
 68 66  1  0
 69 78  2  0
 69 74  1  0
 70 66  1  0
 70 74  1  0
 71 70  1  0
 72 73  1  0
 72 71  1  0
 73 69  1  0
 74 75  2  0
 75 76  1  0
 77 76  2  0
 78 77  1  0
 79 53  1  0
 79 84  1  0
 79 80  1  0
 80 83  1  1
 80 81  1  0
 82 80  1  0
 84 87  1  0
 85 89  1  0
 85 84  1  0
 86 85  2  0
 89 88  1  0
 91 89  1  0
 91 92  1  0
 91 90  1  0
M  ISO  4  10 100  21 100  51 101  52 101
M  END
>  <TORSDO>  (73) 
F 20

>  <SCORE>  (73) 
-13.582

>  <name>  (73) 
72

>  <ligand_id>  (73) 
72

>  <original_smiles>  (73) 
[H]c1c([H])c([H])c2c(c1[H])C([H])([H])C([H])([H])C([H])([H])C2([H])N([H])C(=O)C1([H])N(C(=O)C([H])(N([H])C(=O)C([H])(N([H])C([H])([H])[H])C([H])([H])[H])C(C([H])([H])[H])(C([H])([H])[H])C([H])([H])[H])C([H])([H])c2c([H])c(OC([H])([H])C([H])([H])N3C([H])([H])C([H])([H])C([H])([N+]([H])([H])C([H])([H])C4([H])C([H])([H])N(C(=O)N5C([H])([H])C([H])([H])C([H])([H])C([H])(n6nc(-c7c([H])c([H])c(Oc8c([H])c([H])c(F)c([H])c8F)c([H])c7[H])c(C(=O)N([H])[H])c6N([H])[H])C5([H])[H])C4([H])[H])C3([H])[H])c([H])c([H])c2C1([H])[H]

>  <smiles>  (73) 
[H]c1c([H])c([H])c2c(c1[H])C([H])([H])C([H])([H])C([H])([H])C2([H])N([H])C(=O)C1([H])N(C(=O)C([H])(N([H])C(=O)C([H])(N([H])C([H])([H])[H])C([H])([H])[H])C(C([H])([H])[H])(C([H])([H])[H])C([H])([H])[H])C([H])([H])c2c([H])c(OC([H])([H])C([H])([H])N3C([H])([H])C([H])([H])C([H])([N+]([H])([H])C([H])([H])C4([H])C([H])([H])N(C(=O)N5C([H])([H])C([H])([H])C([H])([H])C([H])(n6nc(-c7c([H])c([H])c(Oc8c([H])c([H])c(F)c([H])c8F)c([H])c7[H])c(C(=O)N([H])[H])c6N([H])[H])C5([H])[H])C4([H])[H])C3([H])[H])c([H])c([H])c2C1([H])[H]

$$$$
73:0:0
     RDKit          3D

 95106  0  0  1  0  0  0  0  0999 V2000
  -26.6040  -24.1520   21.6660 C   0  0  0  0  0  2  0  0  0  0  0  0
  -28.8460  -24.1970   22.3770 C   0  0  0  0  0  2  0  0  0  0  0  0
  -29.4100  -24.2850   19.6760 C   0  0  0  0  0  2  0  0  0  0  0  0
  -27.8330  -25.0680   21.6270 C   0  0  0  0  0  3  0  0  0  0  0  0
  -27.1730  -22.7620   21.3300 C   0  0  0  0  0  3  0  0  0  0  0  0
  -28.6970  -22.8600   21.6340 C   0  0  0  0  0  3  0  0  0  0  0  0
  -28.2790  -25.3360   20.1580 C   0  0  0  0  0  3  0  0  0  0  0  0
  -26.4580  -21.6290   22.0790 C   0  0  0  0  0  1  0  0  0  0  0  0
  -29.5170  -22.9190   20.3940 N   0  0  1  0  0  4  0  0  0  0  0  0
  -30.4650  -22.9500   20.7350 H   0  0  0  0  0  0  0  0  0  0  0  0
  -28.4580  -26.8110   19.9700 O   0  0  0  0  0  0  0  0  0  0  0  0
  -24.4850  -31.9620   23.2030 C   0  0  0  0  0  0  0  0  0  0  0  0
  -27.3090  -27.6370   19.9630 C   0  0  0  0  0  0  0  0  0  0  0  0
  -23.3530  -30.5750   21.5050 C   0  0  0  0  0  3  0  0  0  0  0  0
  -24.8760  -29.1560   20.0240 C   0  0  0  0  0  0  0  0  0  0  0  0
  -25.8800  -31.0100   21.3470 C   0  0  0  0  0  2  0  0  0  0  0  0
  -26.0250  -29.6650   20.6410 C   0  0  0  0  0  0  0  0  0  0  0  0
  -27.2440  -28.9140   20.6060 C   0  0  0  0  0  3  0  0  0  0  0  0
  -26.1350  -27.2000   19.3050 C   0  0  0  0  0  3  0  0  0  0  0  0
  -24.9320  -27.9300   19.3480 C   0  0  0  0  0  3  0  0  0  0  0  0
  -23.6020  -29.9710   20.0990 C   0  0  0  0  0  2  0  0  0  0  0  0
  -24.5910  -31.2000   22.0740 N   0  0  0  0  0  0  0  0  0  0  0  0
  -23.3900  -32.1660   23.7420 O   0  0  0  0  0  0  0  0  0  0  0  0
  -22.7380  -29.4870   22.4200 C   0  0  0  0  0  0  0  0  0  0  0  0
  -21.4300  -29.2180   22.2480 N   0  0  0  0  0  0  0  0  0  0  0  0
  -23.4340  -28.8920   23.2430 O   0  0  0  0  0  0  0  0  0  0  0  0
  -20.9230  -29.7540   21.5580 H   0  0  0  0  0  0  0  0  0  0  0  0
  -18.1520  -27.7330   22.5650 C   0  0  0  0  0  0  0  0  0  0  0  0
  -20.6600  -28.2040   22.9710 C   0  0  0  0  0  3  0  0  0  0  0  0
  -20.9130  -26.7930   22.3910 C   0  0  0  0  0  2  0  0  0  0  0  0
  -19.8980  -26.3900   21.3170 C   0  0  0  0  0  2  0  0  0  0  0  0
  -18.4730  -26.4180   21.8790 C   0  0  0  0  0  2  0  0  0  0  0  0
  -19.1780  -28.5800   23.0650 C   0  0  0  0  0  0  0  0  0  0  0  0
  -18.8190  -29.8060   23.6670 C   0  0  0  0  0  3  0  0  0  0  0  0
  -17.4700  -30.1880   23.7700 C   0  0  0  0  0  3  0  0  0  0  0  0
  -16.4570  -29.3470   23.2780 C   0  0  0  0  0  3  0  0  0  0  0  0
  -16.8000  -28.1180   22.6830 C   0  0  0  0  0  3  0  0  0  0  0  0
  -25.7350  -32.6300   23.8540 C   0  0  0  0  0  3  0  0  0  0  0  0
  -25.3760  -34.0200   24.1740 N   0  0  0  0  0  0  0  0  0  0  0  0
  -25.7050  -35.0820   23.4260 C   0  0  0  0  0  0  0  0  0  0  0  0
  -26.4070  -34.9950   22.4140 O   0  0  0  0  0  0  0  0  0  0  0  0
  -24.7540  -34.1580   24.9560 H   0  0  0  0  0  0  0  0  0  0  0  0
  -23.9420  -36.8310   23.0170 C   0  0  0  0  0  1  0  0  0  0  0  0
  -25.1680  -36.4580   23.8670 C   0  0  0  0  0  3  0  0  0  0  0  0
  -27.2560  -37.3950   24.7580 C   0  0  0  0  0  1  0  0  0  0  0  0
  -26.1770  -37.5370   23.7840 N   0  0  0  0  0  0  0  0  0  0  0  0
  -25.7430  -38.4460   23.9190 H   0  0  0  0  0  0  0  0  0  0  0  0
  -26.2380  -31.8770   25.1480 C   0  0  1  0  0  0  0  0  0  0  0  0
  -25.1220  -31.6010   26.1830 C   0  0  0  0  0  1  0  0  0  0  0  0
  -26.8800  -30.5200   24.7760 C   0  0  0  0  0  1  0  0  0  0  0  0
  -27.3410  -32.7100   25.8410 C   0  0  0  0  0  1  0  0  0  0  0  0
  -29.5170  -21.6170   19.5810 C   0  0  0  0  0  2  0  0  0  0  0  0
  -30.8610  -19.5460   18.8740 C   0  0  0  0  0  2  0  0  0  0  0  0
  -30.1920  -18.8130   19.9970 C   0  0  0  0  0  3  0  0  0  0  0  0
  -30.4250  -20.4020   20.0510 C   0  0  0  0  0  3  0  0  0  0  0  0
  -31.1720  -15.1010   20.1150 C   0  0  0  0  0  0  0  0  0  0  0  0
  -30.8380  -12.8610   19.0560 C   0  0  0  0  0  2  0  0  0  0  0  0
  -29.8610  -12.9600   17.8680 C   0  0  0  0  0  2  0  0  0  0  0  0
  -28.4060  -12.8040   18.3450 C   0  0  0  0  0  2  0  0  0  0  0  0
  -28.0930  -13.7030   19.5680 C   0  0  0  0  0  3  0  0  0  0  0  0
  -29.1830  -13.5790   20.6490 C   0  0  0  0  0  2  0  0  0  0  0  0
  -30.4740  -13.9170   20.0300 N   0  0  0  0  0  0  0  0  0  0  0  0
  -32.2820  -15.2010   19.5860 O   0  0  0  0  0  0  0  0  0  0  0  0
  -31.1350  -17.4890   22.1350 C   0  0  0  0  0  2  0  0  0  0  0  0
  -30.0970  -16.3900   21.9840 C   0  0  0  0  0  2  0  0  0  0  0  0
  -31.0780  -17.6610   20.6220 C   0  0  0  0  0  3  0  0  0  0  0  0
  -30.5370  -16.2380   20.5900 N   0  0  0  0  0  0  0  0  0  0  0  0
  -25.7680  -14.3370   20.4520 C   0  0  0  0  0  0  0  0  0  0  0  0
  -24.6960  -13.5780   20.8360 C   0  0  0  0  0  0  0  0  0  0  0  0
  -25.1100  -12.2160   20.7080 C   0  0  0  0  0  0  0  0  0  0  0  0
  -26.7660  -13.4390   20.1110 N   0  0  0  0  0  0  0  0  0  0  0  0
  -26.3790  -12.1550   20.3280 N   0  0  0  0  0  0  0  0  0  0  0  0
  -24.3500  -10.9700   20.8670 C   0  0  0  0  0  0  0  0  0  0  0  0
  -24.7430   -9.9780   21.7920 C   0  0  0  0  0  3  0  0  0  0  0  0
  -23.9850   -8.7980   21.9420 C   0  0  0  0  0  3  0  0  0  0  0  0
  -22.8170   -8.6020   21.1660 C   0  0  0  0  0  0  0  0  0  0  0  0
  -22.4420   -9.5820   20.2300 C   0  0  0  0  0  3  0  0  0  0  0  0
  -23.2010  -10.7540   20.0800 C   0  0  0  0  0  3  0  0  0  0  0  0
  -22.0340   -7.4750   21.2250 O   0  0  0  0  0  0  0  0  0  0  0  0
  -21.8790   -6.7660   22.3890 C   0  0  0  0  0  0  0  0  0  0  0  0
  -21.3780   -7.3650   23.5650 C   0  0  0  0  0  3  0  0  0  0  0  0
  -21.1690   -6.5840   24.7200 C   0  0  0  0  0  3  0  0  0  0  0  0
  -21.4490   -5.2060   24.6970 C   0  0  0  0  0  0  0  0  0  0  0  0
  -21.9420   -4.6050   23.5250 C   0  0  0  0  0  3  0  0  0  0  0  0
  -22.1520   -5.3840   22.3730 C   0  0  0  0  0  0  0  0  0  0  0  0
  -22.6070   -4.7970   21.2400 F   0  0  0  0  0  0  0  0  0  0  0  0
  -21.2410   -4.4530   25.8020 F   0  0  0  0  0  0  0  0  0  0  0  0
  -23.3320  -14.0840   21.2070 C   0  0  0  0  0  0  0  0  0  0  0  0
  -22.6370  -13.3730   22.0880 N   0  0  0  0  0  0  0  0  0  0  0  0
  -22.8970  -15.1410   20.7530 O   0  0  0  0  0  0  0  0  0  0  0  0
  -23.0100  -12.5180   22.4780 H   0  0  0  0  0  0  0  0  0  0  0  0
  -21.7240  -13.6880   22.3820 H   0  0  0  0  0  0  0  0  0  0  0  0
  -25.9750  -15.7100   20.3470 N   0  0  0  0  0  0  0  0  0  0  0  0
  -25.2480  -16.3850   20.5540 H   0  0  0  0  0  0  0  0  0  0  0  0
  -26.8370  -16.1380   20.0290 H   0  0  0  0  0  0  0  0  0  0  0  0
  3  7  1  0
  3  9  1  0
  4  1  1  0
  4  2  1  0
  5  6  1  0
  5  1  1  0
  5  8  1  0
  6  2  1  0
  7 11  1  0
  7  4  1  0
  9 10  1  1
  9  6  1  0
 12 23  2  0
 13 11  1  0
 13 18  1  0
 14 22  1  0
 14 24  1  0
 15 21  1  0
 15 17  1  0
 16 22  1  0
 17 16  1  0
 18 17  2  0
 19 20  1  0
 19 13  2  0
 20 15  2  0
 21 14  1  0
 22 12  1  0
 24 26  2  0
 25 24  1  0
 27 25  1  0
 28 37  2  0
 28 33  1  0
 29 25  1  0
 29 33  1  0
 30 29  1  0
 31 32  1  0
 31 30  1  0
 32 28  1  0
 33 34  2  0
 34 35  1  0
 36 35  2  0
 37 36  1  0
 38 12  1  0
 38 39  1  0
 38 48  1  0
 39 42  1  0
 40 44  1  0
 40 39  1  0
 41 40  2  0
 44 43  1  0
 46 44  1  0
 46 47  1  0
 46 45  1  0
 48 51  1  1
 48 49  1  0
 50 48  1  0
 52  9  1  0
 53 55  1  0
 54 53  1  0
 54 55  1  0
 54 66  1  0
 55 52  1  0
 56 67  1  0
 57 62  1  0
 58 59  1  0
 58 57  1  0
 60 59  1  0
 60 71  1  0
 60 61  1  0
 62 56  1  0
 62 61  1  0
 63 56  2  0
 65 64  1  0
 66 64  1  0
 67 66  1  0
 67 65  1  0
 68 69  2  0
 69 88  1  0
 70 69  1  0
 70 73  1  0
 71 72  1  0
 71 68  1  0
 72 70  2  0
 73 74  1  0
 74 75  2  0
 76 79  1  0
 76 75  1  0
 77 76  2  0
 78 77  1  0
 78 73  2  0
 79 80  1  0
 80 81  1  0
 81 82  2  0
 83 82  1  0
 83 87  1  0
 84 83  2  0
 85 80  2  0
 85 84  1  0
 86 85  1  0
 88 89  1  0
 89 92  1  0
 89 91  1  0
 90 88  2  0
 93 68  1  0
 93 94  1  0
 95 93  1  0
M  ISO  4   7 101  11 101  56 100  67 100
M  END
>  <TORSDO>  (74) 
F 18

>  <SCORE>  (74) 
-10.528

>  <name>  (74) 
73

>  <ligand_id>  (74) 
73

>  <original_smiles>  (74) 
[H]c1c([H])c([H])c2c(c1[H])C([H])([H])C([H])([H])C([H])([H])C2([H])N([H])C(=O)C1([H])N(C(=O)C([H])(N([H])C(=O)C([H])(N([H])C([H])([H])[H])C([H])([H])[H])C(C([H])([H])[H])(C([H])([H])[H])C([H])([H])[H])C([H])([H])c2c([H])c(OC3([H])C4([H])C([H])([H])C([H])(C([H])([H])[H])C([H])(C4([H])[H])[N+]([H])(C([H])([H])C4([H])C([H])([H])C4([H])C4([H])N(C(=O)N5C([H])([H])C([H])([H])C([H])([H])C([H])(n6nc(-c7c([H])c([H])c(Oc8c([H])c([H])c(F)c([H])c8F)c([H])c7[H])c(C(=O)N([H])[H])c6N([H])[H])C5([H])[H])C([H])([H])C4([H])[H])C3([H])[H])c([H])c([H])c2C1([H])[H]

>  <smiles>  (74) 
[H]c1c([H])c([H])c2c(c1[H])C([H])([H])C([H])([H])C([H])([H])C2([H])N([H])C(=O)C1([H])N(C(=O)C([H])(N([H])C(=O)C([H])(N([H])C([H])([H])[H])C([H])([H])[H])C(C([H])([H])[H])(C([H])([H])[H])C([H])([H])[H])C([H])([H])c2c([H])c(OC3([H])C4([H])C([H])([H])C([H])(C([H])([H])[H])C([H])(C4([H])[H])[N+]([H])(C([H])([H])C4([H])C([H])([H])C4([H])C4([H])N(C(=O)N5C([H])([H])C([H])([H])C([H])([H])C([H])(n6nc(-c7c([H])c([H])c(Oc8c([H])c([H])c(F)c([H])c8F)c([H])c7[H])c(C(=O)N([H])[H])c6N([H])[H])C5([H])[H])C([H])([H])C4([H])[H])C3([H])[H])c([H])c([H])c2C1([H])[H]

$$$$
74:0:0
     RDKit          3D

 91100  0  0  1  0  0  0  0  0999 V2000
  -28.2630  -20.3540   18.0960 C   0  0  0  0  0  3  0  0  0  0  0  0
  -28.8080  -19.1570   18.6930 C   0  0  0  0  0  3  0  0  0  0  0  0
  -28.1760  -21.4660   18.8400 C   0  0  0  0  0  3  0  0  0  0  0  0
  -29.2860  -19.1400   19.9600 C   0  0  0  0  0  0  0  0  0  0  0  0
  -29.3370  -20.4400   20.7100 C   0  0  0  0  0  0  0  0  0  0  0  0
  -28.7010  -21.5390   20.1480 N   0  0  0  0  0  0  0  0  0  0  0  0
  -29.9050  -20.5310   21.8060 O   0  0  0  0  0  0  0  0  0  0  0  0
  -30.7500  -14.6060   20.3750 C   0  0  0  0  0  0  0  0  0  0  0  0
  -30.3630  -12.3980   19.3440 C   0  0  0  0  0  2  0  0  0  0  0  0
  -29.4190  -12.5060   18.1330 C   0  0  0  0  0  2  0  0  0  0  0  0
  -27.9620  -12.3520   18.5890 C   0  0  0  0  0  2  0  0  0  0  0  0
  -27.6090  -13.2640   19.7970 C   0  0  0  0  0  3  0  0  0  0  0  0
  -28.6820  -13.2010   20.9100 C   0  0  0  0  0  2  0  0  0  0  0  0
  -29.9930  -13.4670   20.2960 N   0  0  0  0  0  0  0  0  0  0  0  0
  -31.9260  -14.6050   20.0060 O   0  0  0  0  0  0  0  0  0  0  0  0
  -30.9300  -17.1030   20.5820 C   0  0  0  0  0  2  0  0  0  0  0  0
  -28.9770  -16.4560   20.2400 C   0  0  0  0  0  2  0  0  0  0  0  0
  -29.5760  -17.8070   20.7300 C   0  0  0  0  0  3  0  0  0  0  0  0
  -30.2040  -15.8050   20.7330 N   0  0  0  0  0  0  0  0  0  0  0  0
  -25.2250  -13.8660   20.5400 C   0  0  0  0  0  0  0  0  0  0  0  0
  -24.1570  -13.0960   20.9120 C   0  0  0  0  0  0  0  0  0  0  0  0
  -24.6170  -11.7410   20.8830 C   0  0  0  0  0  0  0  0  0  0  0  0
  -26.2670  -12.9840   20.3040 N   0  0  0  0  0  0  0  0  0  0  0  0
  -25.9050  -11.7030   20.5710 N   0  0  0  0  0  0  0  0  0  0  0  0
  -23.8830  -10.4800   21.0670 C   0  0  0  0  0  0  0  0  0  0  0  0
  -24.3110   -9.5040   21.9930 C   0  0  0  0  0  3  0  0  0  0  0  0
  -23.5800   -8.3090   22.1630 C   0  0  0  0  0  3  0  0  0  0  0  0
  -22.4050   -8.0800   21.4100 C   0  0  0  0  0  0  0  0  0  0  0  0
  -21.9980   -9.0430   20.4740 C   0  0  0  0  0  3  0  0  0  0  0  0
  -22.7290  -10.2320   20.2990 C   0  0  0  0  0  3  0  0  0  0  0  0
  -21.6450   -6.9380   21.4920 O   0  0  0  0  0  0  0  0  0  0  0  0
  -21.5940   -6.1930   22.6410 C   0  0  0  0  0  0  0  0  0  0  0  0
  -21.1550   -6.7410   23.8680 C   0  0  0  0  0  3  0  0  0  0  0  0
  -21.0530   -5.9210   25.0080 C   0  0  0  0  0  3  0  0  0  0  0  0
  -21.3820   -4.5550   24.9260 C   0  0  0  0  0  0  0  0  0  0  0  0
  -21.8090   -4.0050   23.7070 C   0  0  0  0  0  3  0  0  0  0  0  0
  -21.9140   -4.8210   22.5670 C   0  0  0  0  0  0  0  0  0  0  0  0
  -22.3080   -4.2820   21.3880 F   0  0  0  0  0  0  0  0  0  0  0  0
  -21.2750   -3.7640   26.0230 F   0  0  0  0  0  0  0  0  0  0  0  0
  -22.7630  -13.5740   21.1850 C   0  0  0  0  0  0  0  0  0  0  0  0
  -22.0400  -12.8750   22.0520 N   0  0  0  0  0  0  0  0  0  0  0  0
  -22.3260  -14.6040   20.6700 O   0  0  0  0  0  0  0  0  0  0  0  0
  -22.4090  -12.0380   22.4820 H   0  0  0  0  0  0  0  0  0  0  0  0
  -21.1070  -13.1750   22.2850 H   0  0  0  0  0  0  0  0  0  0  0  0
  -25.3830  -15.2370   20.3520 N   0  0  0  0  0  0  0  0  0  0  0  0
  -24.6060  -15.8850   20.4320 H   0  0  0  0  0  0  0  0  0  0  0  0
  -26.2080  -15.6670   19.9610 H   0  0  0  0  0  0  0  0  0  0  0  0
  -28.4590  -22.8140   20.9150 C   0  0  0  0  0  3  0  0  0  0  0  0
  -28.6510  -24.1750   20.1490 C   0  0  0  0  0  3  0  0  0  0  0  0
  -28.5050  -25.4780   20.9940 C   0  0  0  0  0  2  0  0  0  0  0  0
  -28.4680  -26.6900   20.2010 O   0  0  0  0  0  0  0  0  0  0  0  0
  -24.6050  -31.8790   23.2290 C   0  0  0  0  0  0  0  0  0  0  0  0
  -27.2880  -27.4180   20.2120 C   0  0  0  0  0  0  0  0  0  0  0  0
  -23.4160  -30.4740   21.5740 C   0  0  0  0  0  3  0  0  0  0  0  0
  -24.8920  -28.9290   20.1690 C   0  0  0  0  0  0  0  0  0  0  0  0
  -25.9400  -30.8350   21.3990 C   0  0  0  0  0  2  0  0  0  0  0  0
  -26.0380  -29.4570   20.7720 C   0  0  0  0  0  0  0  0  0  0  0  0
  -27.2410  -28.7100   20.7880 C   0  0  0  0  0  3  0  0  0  0  0  0
  -26.1250  -26.9040   19.5990 C   0  0  0  0  0  3  0  0  0  0  0  0
  -24.9300  -27.6550   19.5750 C   0  0  0  0  0  3  0  0  0  0  0  0
  -23.6430  -29.7860   20.1980 C   0  0  0  0  0  2  0  0  0  0  0  0
  -24.6700  -31.0810   22.1270 N   0  0  0  0  0  0  0  0  0  0  0  0
  -23.5200  -32.1490   23.7630 O   0  0  0  0  0  0  0  0  0  0  0  0
  -22.7600  -29.4540   22.5310 C   0  0  0  0  0  0  0  0  0  0  0  0
  -21.4320  -29.2830   22.4060 N   0  0  0  0  0  0  0  0  0  0  0  0
  -23.4390  -28.8180   23.3420 O   0  0  0  0  0  0  0  0  0  0  0  0
  -20.9500  -29.8450   21.7190 H   0  0  0  0  0  0  0  0  0  0  0  0
  -18.0440  -28.1360   22.9160 C   0  0  0  0  0  0  0  0  0  0  0  0
  -20.6080  -28.3470   23.1730 C   0  0  0  0  0  3  0  0  0  0  0  0
  -20.6820  -26.9220   22.5780 C   0  0  0  0  0  2  0  0  0  0  0  0
  -19.5670  -26.6320   21.5690 C   0  0  0  0  0  2  0  0  0  0  0  0
  -18.1930  -26.7930   22.2230 C   0  0  0  0  0  2  0  0  0  0  0  0
  -19.1770  -28.8740   23.3480 C   0  0  0  0  0  0  0  0  0  0  0  0
  -18.9790  -30.1350   23.9530 C   0  0  0  0  0  3  0  0  0  0  0  0
  -17.6820  -30.6500   24.1390 C   0  0  0  0  0  3  0  0  0  0  0  0
  -16.5640  -29.9060   23.7260 C   0  0  0  0  0  3  0  0  0  0  0  0
  -16.7470  -28.6530   23.1150 C   0  0  0  0  0  3  0  0  0  0  0  0
  -25.8840  -32.5140   23.8610 C   0  0  0  0  0  3  0  0  0  0  0  0
  -26.3910  -31.7430   25.1400 C   0  0  1  0  0  0  0  0  0  0  0  0
  -25.2930  -31.4960   26.2030 C   0  0  0  0  0  1  0  0  0  0  0  0
  -26.9840  -30.3700   24.7480 C   0  0  0  0  0  1  0  0  0  0  0  0
  -27.5360  -32.5370   25.8110 C   0  0  0  0  0  1  0  0  0  0  0  0
  -25.5710  -33.9100   24.1880 N   0  0  0  0  0  0  0  0  0  0  0  0
  -25.9090  -34.9640   23.4290 C   0  0  0  0  0  0  0  0  0  0  0  0
  -26.5890  -34.8620   22.4060 O   0  0  0  0  0  0  0  0  0  0  0  0
  -24.9650  -34.0580   24.9800 H   0  0  0  0  0  0  0  0  0  0  0  0
  -24.1900  -36.7620   23.0480 C   0  0  0  0  0  1  0  0  0  0  0  0
  -25.4160  -36.3520   23.8820 C   0  0  0  0  0  3  0  0  0  0  0  0
  -27.5330  -37.2360   24.7580 C   0  0  0  0  0  1  0  0  0  0  0  0
  -26.4540  -37.4020   23.7870 N   0  0  0  0  0  0  0  0  0  0  0  0
  -26.0480  -38.3250   23.9230 H   0  0  0  0  0  0  0  0  0  0  0  0
  1  2  1  0
  1  3  2  0
  2  4  2  0
  3  6  1  0
  4  5  1  0
  5  7  2  0
  6  5  1  0
  6 48  1  0
  8 19  1  0
  9 14  1  0
 10 11  1  0
 10  9  1  0
 12 11  1  0
 12 23  1  0
 12 13  1  0
 14  8  1  0
 14 13  1  0
 15  8  2  0
 16 18  1  0
 16 19  1  0
 17 18  1  0
 17 19  1  0
 18  4  1  0
 20 21  2  0
 21 40  1  0
 22 21  1  0
 22 25  1  0
 23 20  1  0
 23 24  1  0
 24 22  2  0
 25 26  1  0
 26 27  2  0
 28 31  1  0
 28 27  1  0
 29 28  2  0
 30 29  1  0
 30 25  2  0
 31 32  1  0
 32 33  1  0
 33 34  2  0
 35 34  1  0
 35 39  1  0
 36 35  2  0
 37 32  2  0
 37 36  1  0
 38 37  1  0
 40 41  1  0
 41 44  1  0
 41 43  1  0
 42 40  2  0
 45 46  1  0
 45 20  1  0
 47 45  1  0
 49 48  2  0
 49 50  1  0
 51 53  1  0
 51 50  1  0
 52 63  2  0
 53 58  1  0
 54 62  1  0
 54 64  1  0
 55 61  1  0
 55 57  1  0
 56 62  1  0
 57 58  2  0
 57 56  1  0
 59 53  2  0
 60 59  1  0
 60 55  2  0
 61 54  1  0
 62 52  1  0
 64 66  2  0
 65 64  1  0
 67 65  1  0
 68 77  2  0
 68 73  1  0
 69 65  1  0
 69 73  1  0
 70 69  1  0
 71 72  1  0
 71 70  1  0
 72 68  1  0
 73 74  2  0
 74 75  1  0
 76 75  2  0
 77 76  1  0
 78 52  1  0
 78 83  1  0
 78 79  1  0
 79 82  1  1
 79 80  1  0
 81 79  1  0
 83 86  1  0
 84 88  1  0
 84 83  1  0
 85 84  2  0
 88 87  1  0
 90 88  1  0
 90 91  1  0
 90 89  1  0
M  ISO  4   8 100  19 100  50 101  51 101
M  END
>  <TORSDO>  (75) 
F 19

>  <SCORE>  (75) 
-14.542

>  <name>  (75) 
74

>  <ligand_id>  (75) 
74

>  <original_smiles>  (75) 
[H]c1c([H])c([H])c2c(c1[H])C([H])([H])C([H])([H])C([H])([H])C2([H])N([H])C(=O)C1([H])N(C(=O)C([H])(N([H])C(=O)C([H])(N([H])C([H])([H])[H])C([H])([H])[H])C(C([H])([H])[H])(C([H])([H])[H])C([H])([H])[H])C([H])([H])c2c([H])c(OC([H])([H])C([H])([H])C([H])([H])n3c([H])c([H])c([H])c(C4([H])C([H])([H])N(C(=O)N5C([H])([H])C([H])([H])C([H])([H])C([H])(n6nc(-c7c([H])c([H])c(Oc8c([H])c([H])c(F)c([H])c8F)c([H])c7[H])c(C(=O)N([H])[H])c6N([H])[H])C5([H])[H])C4([H])[H])c3=O)c([H])c([H])c2C1([H])[H]

>  <smiles>  (75) 
[H]c1c([H])c([H])c2c(c1[H])C([H])([H])C([H])([H])C([H])([H])C2([H])N([H])C(=O)C1([H])N(C(=O)C([H])(N([H])C(=O)C([H])(N([H])C([H])([H])[H])C([H])([H])[H])C(C([H])([H])[H])(C([H])([H])[H])C([H])([H])[H])C([H])([H])c2c([H])c(OC([H])([H])C([H])([H])C([H])([H])n3c([H])c([H])c([H])c(C4([H])C([H])([H])N(C(=O)N5C([H])([H])C([H])([H])C([H])([H])C([H])(n6nc(-c7c([H])c([H])c(Oc8c([H])c([H])c(F)c([H])c8F)c([H])c7[H])c(C(=O)N([H])[H])c6N([H])[H])C5([H])[H])C4([H])[H])c3=O)c([H])c([H])c2C1([H])[H]

$$$$
75:0:0
     RDKit          3D

 92101  0  0  1  0  0  0  0  0999 V2000
  -31.2510  -22.2650   20.4860 C   0  0  0  0  0  2  0  0  0  0  0  0
  -31.3380  -20.8650   19.8720 C   0  0  0  0  0  2  0  0  0  0  0  0
  -29.2900  -20.9160   20.9010 C   0  0  0  0  0  2  0  0  0  0  0  0
  -29.9070  -22.2990   21.2230 C   0  0  0  0  0  3  0  0  0  0  0  0
  -30.4530  -20.0420   20.6920 N   0  0  0  0  0  0  0  0  0  0  0  0
  -29.0590  -23.4680   20.8470 N   0  0  0  0  0  4  0  0  0  0  0  0
  -28.1670  -23.3360   21.3010 H   0  0  0  0  0  0  0  0  0  0  0  0
  -28.8880  -23.4700   19.8530 H   0  0  0  0  0  0  0  0  0  0  0  0
  -29.6050  -24.7950   21.2630 C   0  0  0  0  0  2  0  0  0  0  0  0
  -28.5420  -25.9160   21.3770 C   0  0  0  0  0  2  0  0  0  0  0  0
  -28.3960  -26.6810   20.1750 O   0  0  0  0  0  0  0  0  0  0  0  0
  -24.6170  -31.8910   23.2530 C   0  0  0  0  0  0  0  0  0  0  0  0
  -27.2580  -27.4520   20.1770 C   0  0  0  0  0  0  0  0  0  0  0  0
  -23.4070  -30.4820   21.6180 C   0  0  0  0  0  3  0  0  0  0  0  0
  -24.8600  -28.9440   20.1910 C   0  0  0  0  0  0  0  0  0  0  0  0
  -25.9290  -30.8480   21.4080 C   0  0  0  0  0  2  0  0  0  0  0  0
  -26.0170  -29.4750   20.7770 C   0  0  0  0  0  0  0  0  0  0  0  0
  -27.2210  -28.7330   20.7720 C   0  0  0  0  0  3  0  0  0  0  0  0
  -26.0900  -26.9340   19.5810 C   0  0  0  0  0  3  0  0  0  0  0  0
  -24.8900  -27.6710   19.5920 C   0  0  0  0  0  3  0  0  0  0  0  0
  -23.6120  -29.7980   20.2390 C   0  0  0  0  0  2  0  0  0  0  0  0
  -24.6700  -31.0890   22.1520 N   0  0  0  0  0  0  0  0  0  0  0  0
  -23.5380  -32.1630   23.7970 O   0  0  0  0  0  0  0  0  0  0  0  0
  -22.7620  -29.4620   22.5840 C   0  0  0  0  0  0  0  0  0  0  0  0
  -21.4380  -29.2730   22.4600 N   0  0  0  0  0  0  0  0  0  0  0  0
  -23.4500  -28.8430   23.4000 O   0  0  0  0  0  0  0  0  0  0  0  0
  -20.9440  -29.8240   21.7710 H   0  0  0  0  0  0  0  0  0  0  0  0
  -18.0710  -28.0670   22.9600 C   0  0  0  0  0  0  0  0  0  0  0  0
  -20.6270  -28.3370   23.2350 C   0  0  0  0  0  3  0  0  0  0  0  0
  -20.7380  -26.9040   22.6670 C   0  0  0  0  0  2  0  0  0  0  0  0
  -19.6380  -26.5700   21.6540 C   0  0  0  0  0  2  0  0  0  0  0  0
  -18.2550  -26.7140   22.2930 C   0  0  0  0  0  2  0  0  0  0  0  0
  -19.1860  -28.8360   23.3880 C   0  0  0  0  0  0  0  0  0  0  0  0
  -18.9600  -30.1030   23.9690 C   0  0  0  0  0  3  0  0  0  0  0  0
  -17.6530  -30.6000   24.1280 C   0  0  0  0  0  3  0  0  0  0  0  0
  -16.5530  -29.8270   23.7160 C   0  0  0  0  0  3  0  0  0  0  0  0
  -16.7630  -28.5630   23.1380 C   0  0  0  0  0  3  0  0  0  0  0  0
  -25.9050  -32.5240   23.8650 C   0  0  0  0  0  3  0  0  0  0  0  0
  -26.4350  -31.7520   25.1350 C   0  0  1  0  0  0  0  0  0  0  0  0
  -25.3520  -31.5100   26.2120 C   0  0  0  0  0  1  0  0  0  0  0  0
  -27.0170  -30.3770   24.7320 C   0  0  0  0  0  1  0  0  0  0  0  0
  -27.5890  -32.5480   25.7880 C   0  0  0  0  0  1  0  0  0  0  0  0
  -25.5970  -33.9210   24.1970 N   0  0  0  0  0  0  0  0  0  0  0  0
  -25.9230  -34.9720   23.4340 C   0  0  0  0  0  0  0  0  0  0  0  0
  -26.5880  -34.8700   22.3980 O   0  0  0  0  0  0  0  0  0  0  0  0
  -25.0060  -34.0740   25.0010 H   0  0  0  0  0  0  0  0  0  0  0  0
  -24.1880  -36.7580   23.0850 C   0  0  0  0  0  1  0  0  0  0  0  0
  -25.4340  -36.3600   23.8920 C   0  0  0  0  0  3  0  0  0  0  0  0
  -27.5720  -37.2490   24.7080 C   0  0  0  0  0  1  0  0  0  0  0  0
  -26.4630  -37.4150   23.7730 N   0  0  0  0  0  0  0  0  0  0  0  0
  -26.0560  -38.3340   23.9230 H   0  0  0  0  0  0  0  0  0  0  0  0
  -30.1530  -18.7730   20.0140 C   0  0  0  0  0  2  0  0  0  0  0  0
  -30.6970  -14.4850   20.4700 C   0  0  0  0  0  0  0  0  0  0  0  0
  -30.3480  -12.3370   19.3080 C   0  0  0  0  0  2  0  0  0  0  0  0
  -29.4050  -12.5500   18.1060 C   0  0  0  0  0  2  0  0  0  0  0  0
  -27.9350  -12.4040   18.5420 C   0  0  0  0  0  2  0  0  0  0  0  0
  -27.6020  -13.2400   19.8060 C   0  0  0  0  0  3  0  0  0  0  0  0
  -28.6640  -13.0420   20.9120 C   0  0  0  0  0  2  0  0  0  0  0  0
  -29.9880  -13.3280   20.3360 N   0  0  0  0  0  0  0  0  0  0  0  0
  -31.8250  -14.6230   19.9880 O   0  0  0  0  0  0  0  0  0  0  0  0
  -30.8220  -16.7130   21.5640 C   0  0  0  0  0  2  0  0  0  0  0  0
  -29.1350  -16.3730   20.3460 C   0  0  0  0  0  2  0  0  0  0  0  0
  -29.7520  -17.6270   20.9630 C   0  0  0  0  0  3  0  0  0  0  0  0
  -30.0830  -15.5270   21.0860 N   0  0  0  0  0  0  0  0  0  0  0  0
  -25.2060  -13.8490   20.5230 C   0  0  0  0  0  0  0  0  0  0  0  0
  -24.1400  -13.0770   20.9000 C   0  0  0  0  0  0  0  0  0  0  0  0
  -24.6030  -11.7260   20.8720 C   0  0  0  0  0  0  0  0  0  0  0  0
  -26.2520  -12.9680   20.2930 N   0  0  0  0  0  0  0  0  0  0  0  0
  -25.8930  -11.6860   20.5610 N   0  0  0  0  0  0  0  0  0  0  0  0
  -23.8790  -10.4640   21.0670 C   0  0  0  0  0  0  0  0  0  0  0  0
  -24.3260   -9.4910   21.9890 C   0  0  0  0  0  3  0  0  0  0  0  0
  -23.6040   -8.2940   22.1730 C   0  0  0  0  0  3  0  0  0  0  0  0
  -22.4180   -8.0600   21.4360 C   0  0  0  0  0  0  0  0  0  0  0  0
  -21.9890   -9.0210   20.5030 C   0  0  0  0  0  3  0  0  0  0  0  0
  -22.7130  -10.2120   20.3180 C   0  0  0  0  0  3  0  0  0  0  0  0
  -21.6650   -6.9150   21.5300 O   0  0  0  0  0  0  0  0  0  0  0  0
  -21.6480   -6.1570   22.6730 C   0  0  0  0  0  0  0  0  0  0  0  0
  -21.2700   -6.6970   23.9210 C   0  0  0  0  0  3  0  0  0  0  0  0
  -21.2000   -5.8660   25.0560 C   0  0  0  0  0  3  0  0  0  0  0  0
  -21.4970   -4.4940   24.9440 C   0  0  0  0  0  0  0  0  0  0  0  0
  -21.8690   -3.9530   23.7010 C   0  0  0  0  0  3  0  0  0  0  0  0
  -21.9400   -4.7820   22.5680 C   0  0  0  0  0  0  0  0  0  0  0  0
  -22.2790   -4.2510   21.3680 F   0  0  0  0  0  0  0  0  0  0  0  0
  -21.4230   -3.6930   26.0320 F   0  0  0  0  0  0  0  0  0  0  0  0
  -22.7440  -13.5550   21.1750 C   0  0  0  0  0  0  0  0  0  0  0  0
  -22.0190  -12.8610   22.0460 N   0  0  0  0  0  0  0  0  0  0  0  0
  -22.3020  -14.5770   20.6520 O   0  0  0  0  0  0  0  0  0  0  0  0
  -22.3880  -12.0340   22.4910 H   0  0  0  0  0  0  0  0  0  0  0  0
  -21.0810  -13.1610   22.2710 H   0  0  0  0  0  0  0  0  0  0  0  0
  -25.3650  -15.2190   20.3360 N   0  0  0  0  0  0  0  0  0  0  0  0
  -24.5950  -15.8690   20.4400 H   0  0  0  0  0  0  0  0  0  0  0  0
  -26.2080  -15.6540   19.9870 H   0  0  0  0  0  0  0  0  0  0  0  0
  1  4  1  0
  2  1  1  0
  2  5  1  0
  3  4  1  0
  4  6  1  0
  5  3  1  0
  6  9  1  0
  6  7  1  0
  8  6  1  0
  9 10  1  0
 11 13  1  0
 11 10  1  0
 12 23  2  0
 13 18  1  0
 14 22  1  0
 14 24  1  0
 15 21  1  0
 15 17  1  0
 16 22  1  0
 17 16  1  0
 18 17  2  0
 19 20  1  0
 19 13  2  0
 20 15  2  0
 21 14  1  0
 22 12  1  0
 24 26  2  0
 25 24  1  0
 27 25  1  0
 28 37  2  0
 28 33  1  0
 29 25  1  0
 29 33  1  0
 30 29  1  0
 31 32  1  0
 31 30  1  0
 32 28  1  0
 33 34  2  0
 34 35  1  0
 36 35  2  0
 37 36  1  0
 38 12  1  0
 38 43  1  0
 38 39  1  0
 39 42  1  1
 39 40  1  0
 41 39  1  0
 43 46  1  0
 44 48  1  0
 44 43  1  0
 45 44  2  0
 48 47  1  0
 50 48  1  0
 50 51  1  0
 50 49  1  0
 52  5  1  0
 53 64  1  0
 54 59  1  0
 55 56  1  0
 55 54  1  0
 57 56  1  0
 57 68  1  0
 57 58  1  0
 59 53  1  0
 59 58  1  0
 60 53  2  0
 62 63  1  0
 62 64  1  0
 63 52  1  0
 63 61  1  0
 64 61  1  0
 65 66  2  0
 66 85  1  0
 67 66  1  0
 67 70  1  0
 68 65  1  0
 68 69  1  0
 69 67  2  0
 70 71  1  0
 71 72  2  0
 73 76  1  0
 73 72  1  0
 74 73  2  0
 75 74  1  0
 75 70  2  0
 76 77  1  0
 77 78  1  0
 78 79  2  0
 80 79  1  0
 80 84  1  0
 81 80  2  0
 82 77  2  0
 82 81  1  0
 83 82  1  0
 85 86  1  0
 86 89  1  0
 86 88  1  0
 87 85  2  0
 90 91  1  0
 90 65  1  0
 92 90  1  0
M  ISO  4  10 101  11 101  53 100  64 100
M  END
>  <TORSDO>  (76) 
F 20

>  <SCORE>  (76) 
-14.122

>  <name>  (76) 
75

>  <ligand_id>  (76) 
75

>  <original_smiles>  (76) 
[H]c1c([H])c([H])c2c(c1[H])C([H])([H])C([H])([H])C([H])([H])C2([H])N([H])C(=O)C1([H])N(C(=O)C([H])(N([H])C(=O)C([H])(N([H])C([H])([H])[H])C([H])([H])[H])C(C([H])([H])[H])(C([H])([H])[H])C([H])([H])[H])C([H])([H])c2c([H])c(OC([H])([H])C([H])([H])[N+]([H])([H])C3([H])C([H])([H])N(C([H])([H])C4([H])C([H])([H])N(C(=O)N5C([H])([H])C([H])([H])C([H])([H])C([H])(n6nc(-c7c([H])c([H])c(Oc8c([H])c([H])c(F)c([H])c8F)c([H])c7[H])c(C(=O)N([H])[H])c6N([H])[H])C5([H])[H])C4([H])[H])C([H])([H])C3([H])[H])c([H])c([H])c2C1([H])[H]

>  <smiles>  (76) 
[H]c1c([H])c([H])c2c(c1[H])C([H])([H])C([H])([H])C([H])([H])C2([H])N([H])C(=O)C1([H])N(C(=O)C([H])(N([H])C(=O)C([H])(N([H])C([H])([H])[H])C([H])([H])[H])C(C([H])([H])[H])(C([H])([H])[H])C([H])([H])[H])C([H])([H])c2c([H])c(OC([H])([H])C([H])([H])[N+]([H])([H])C3([H])C([H])([H])N(C([H])([H])C4([H])C([H])([H])N(C(=O)N5C([H])([H])C([H])([H])C([H])([H])C([H])(n6nc(-c7c([H])c([H])c(Oc8c([H])c([H])c(F)c([H])c8F)c([H])c7[H])c(C(=O)N([H])[H])c6N([H])[H])C5([H])[H])C4([H])[H])C([H])([H])C3([H])[H])c([H])c([H])c2C1([H])[H]

$$$$
76:0:0
     RDKit          3D

 94103  0  0  1  0  0  0  0  0999 V2000
  -30.3200  -21.6130   20.7950 C   0  0  0  0  0  3  0  0  0  0  0  0
  -30.0970  -23.0440   20.6460 C   0  0  0  0  0  3  0  0  0  0  0  0
  -29.4320  -20.8510   20.0660 C   0  0  0  0  0  0  0  0  0  0  0  0
  -29.0370  -23.3250   19.8130 C   0  0  0  0  0  0  0  0  0  0  0  0
  -28.6390  -21.9430   19.4750 N   0  0  0  0  0  0  0  0  0  0  0  0
  -30.5670  -15.2290   19.9990 C   0  0  0  0  0  0  0  0  0  0  0  0
  -30.3670  -12.8550   19.0650 C   0  0  0  0  0  2  0  0  0  0  0  0
  -29.3740  -12.7440   17.8850 C   0  0  0  0  0  2  0  0  0  0  0  0
  -27.9390  -12.5220   18.3970 C   0  0  0  0  0  2  0  0  0  0  0  0
  -27.5850  -13.4670   19.5720 C   0  0  0  0  0  3  0  0  0  0  0  0
  -28.7010  -13.5140   20.6390 C   0  0  0  0  0  2  0  0  0  0  0  0
  -29.9160  -13.9780   19.9520 N   0  0  0  0  0  0  0  0  0  0  0  0
  -31.7660  -15.1920   19.6920 O   0  0  0  0  0  0  0  0  0  0  0  0
  -28.3400  -18.4000   20.7880 C   0  0  0  0  0  2  0  0  0  0  0  0
  -28.5360  -16.8480   20.5440 C   0  0  0  0  0  2  0  0  0  0  0  0
  -30.4500  -17.9920   19.9120 C   0  0  0  0  0  2  0  0  0  0  0  0
  -29.2900  -19.1840   19.8680 C   0  0  0  0  0  3  0  0  0  0  0  0
  -29.9150  -16.5280   20.1220 N   0  0  0  0  0  0  0  0  0  0  0  0
  -25.2600  -14.0700   20.4490 C   0  0  0  0  0  0  0  0  0  0  0  0
  -24.2010  -13.3070   20.8540 C   0  0  0  0  0  0  0  0  0  0  0  0
  -24.6390  -11.9500   20.7710 C   0  0  0  0  0  0  0  0  0  0  0  0
  -26.2730  -13.1800   20.1390 N   0  0  0  0  0  0  0  0  0  0  0  0
  -25.9130  -11.8970   20.3990 N   0  0  0  0  0  0  0  0  0  0  0  0
  -23.8970  -10.6980   20.9660 C   0  0  0  0  0  0  0  0  0  0  0  0
  -24.3340   -9.7160   21.8830 C   0  0  0  0  0  3  0  0  0  0  0  0
  -23.5900   -8.5310   22.0690 C   0  0  0  0  0  3  0  0  0  0  0  0
  -22.3970   -8.3190   21.3390 C   0  0  0  0  0  0  0  0  0  0  0  0
  -21.9800   -9.2880   20.4100 C   0  0  0  0  0  3  0  0  0  0  0  0
  -22.7240  -10.4660   20.2220 C   0  0  0  0  0  3  0  0  0  0  0  0
  -21.6250   -7.1870   21.4350 O   0  0  0  0  0  0  0  0  0  0  0  0
  -21.5520   -6.4630   22.5980 C   0  0  0  0  0  0  0  0  0  0  0  0
  -21.1380   -7.0460   23.8140 C   0  0  0  0  0  3  0  0  0  0  0  0
  -21.0110   -6.2510   24.9700 C   0  0  0  0  0  3  0  0  0  0  0  0
  -21.2880   -4.8710   24.9100 C   0  0  0  0  0  0  0  0  0  0  0  0
  -21.6940   -4.2870   23.6980 C   0  0  0  0  0  3  0  0  0  0  0  0
  -21.8230   -5.0810   22.5440 C   0  0  0  0  0  0  0  0  0  0  0  0
  -22.1960   -4.5080   21.3740 F   0  0  0  0  0  0  0  0  0  0  0  0
  -21.1570   -4.1050   26.0170 F   0  0  0  0  0  0  0  0  0  0  0  0
  -22.8290  -13.8050   21.2000 C   0  0  0  0  0  0  0  0  0  0  0  0
  -22.1400  -13.1200   22.1050 N   0  0  0  0  0  0  0  0  0  0  0  0
  -22.3810  -14.8390   20.7060 O   0  0  0  0  0  0  0  0  0  0  0  0
  -22.5170  -12.2830   22.5260 H   0  0  0  0  0  0  0  0  0  0  0  0
  -21.2210  -13.4350   22.3820 H   0  0  0  0  0  0  0  0  0  0  0  0
  -25.4310  -15.4420   20.2920 N   0  0  0  0  0  0  0  0  0  0  0  0
  -24.6750  -16.0960   20.4570 H   0  0  0  0  0  0  0  0  0  0  0  0
  -26.2660  -15.8790   19.9300 H   0  0  0  0  0  0  0  0  0  0  0  0
  -28.3260  -24.7420   19.2660 C   0  0  0  0  0  2  0  0  0  0  0  0
  -28.6000  -26.2300   19.7370 O   0  0  0  0  0  0  0  0  0  0  0  0
  -24.6730  -31.6340   23.0220 C   0  0  0  0  0  0  0  0  0  0  0  0
  -27.5330  -27.2320   19.7100 C   0  0  0  0  0  0  0  0  0  0  0  0
  -23.5770  -30.3080   21.2610 C   0  0  0  0  0  3  0  0  0  0  0  0
  -25.1300  -28.9120   19.7550 C   0  0  0  0  0  0  0  0  0  0  0  0
  -26.1240  -30.6890   21.1780 C   0  0  0  0  0  2  0  0  0  0  0  0
  -26.2790  -29.3490   20.4260 C   0  0  0  0  0  0  0  0  0  0  0  0
  -27.4780  -28.5280   20.3890 C   0  0  0  0  0  3  0  0  0  0  0  0
  -26.3500  -26.9250   18.9970 C   0  0  0  0  0  3  0  0  0  0  0  0
  -25.1820  -27.7170   19.0240 C   0  0  0  0  0  3  0  0  0  0  0  0
  -23.8600  -29.7490   19.8420 C   0  0  0  0  0  2  0  0  0  0  0  0
  -24.8100  -30.8970   21.8760 N   0  0  0  0  0  0  0  0  0  0  0  0
  -23.5630  -31.8270   23.5430 O   0  0  0  0  0  0  0  0  0  0  0  0
  -22.9280  -29.2020   22.1320 C   0  0  0  0  0  0  0  0  0  0  0  0
  -21.5960  -29.0320   22.0230 N   0  0  0  0  0  0  0  0  0  0  0  0
  -23.6220  -28.5020   22.8730 O   0  0  0  0  0  0  0  0  0  0  0  0
  -21.0890  -29.6520   21.4070 H   0  0  0  0  0  0  0  0  0  0  0  0
  -18.2290  -27.7950   22.5470 C   0  0  0  0  0  0  0  0  0  0  0  0
  -20.8020  -28.0120   22.7150 C   0  0  0  0  0  3  0  0  0  0  0  0
  -20.8590  -26.6590   21.9680 C   0  0  0  0  0  2  0  0  0  0  0  0
  -19.7050  -26.4660   20.9790 C   0  0  0  0  0  2  0  0  0  0  0  0
  -18.3580  -26.5380   21.7030 C   0  0  0  0  0  2  0  0  0  0  0  0
  -19.3760  -28.4960   23.0090 C   0  0  0  0  0  0  0  0  0  0  0  0
  -19.1980  -29.6760   23.7630 C   0  0  0  0  0  3  0  0  0  0  0  0
  -17.9080  -30.1560   24.0560 C   0  0  0  0  0  3  0  0  0  0  0  0
  -16.7760  -29.4520   23.6090 C   0  0  0  0  0  3  0  0  0  0  0  0
  -16.9380  -28.2720   22.8600 C   0  0  0  0  0  3  0  0  0  0  0  0
  -25.9010  -32.2880   23.7230 C   0  0  0  0  0  3  0  0  0  0  0  0
  -26.3820  -31.4890   24.9970 C   0  0  1  0  0  0  0  0  0  0  0  0
  -25.2550  -31.1990   26.0150 C   0  0  0  0  0  1  0  0  0  0  0  0
  -27.0110  -30.1350   24.5940 C   0  0  0  0  0  1  0  0  0  0  0  0
  -27.4900  -32.2880   25.7260 C   0  0  0  0  0  1  0  0  0  0  0  0
  -25.5310  -33.6620   24.0930 N   0  0  0  0  0  0  0  0  0  0  0  0
  -25.8460  -34.7570   23.3880 C   0  0  0  0  0  0  0  0  0  0  0  0
  -26.5440  -34.7180   22.3720 O   0  0  0  0  0  0  0  0  0  0  0  0
  -24.9140  -33.7650   24.8850 H   0  0  0  0  0  0  0  0  0  0  0  0
  -24.0640  -36.5060   23.0680 C   0  0  0  0  0  1  0  0  0  0  0  0
  -25.3030  -36.1110   23.8890 C   0  0  0  0  0  3  0  0  0  0  0  0
  -27.3870  -37.0380   24.7970 C   0  0  0  0  0  1  0  0  0  0  0  0
  -26.3000  -37.2030   23.8360 N   0  0  0  0  0  0  0  0  0  0  0  0
  -25.8580  -38.1030   24.0090 H   0  0  0  0  0  0  0  0  0  0  0  0
  -27.5160  -21.6700   18.5860 C   0  0  0  0  0  2  0  0  0  0  0  0
  -26.1740  -22.1060   19.2040 C   0  0  0  0  0  2  0  0  0  0  0  0
  -23.7720  -22.5120   18.7580 C   0  0  0  0  0  1  0  0  0  0  0  0
  -25.0510  -21.9780   18.2510 N   0  0  0  0  0  4  0  0  0  0  0  0
  -25.2800  -22.4630   17.3980 H   0  0  0  0  0  0  0  0  0  0  0  0
  -24.9150  -21.0060   18.0220 H   0  0  0  0  0  0  0  0  0  0  0  0
  2  1  1  0
  3  1  2  0
  4  2  2  0
  5  4  1  0
  5  3  1  0
  6 18  1  0
  7 12  1  0
  8  9  1  0
  8  7  1  0
 10  9  1  0
 10 22  1  0
 10 11  1  0
 12  6  1  0
 12 11  1  0
 13  6  2  0
 15 14  1  0
 16 18  1  0
 17 16  1  0
 17  3  1  0
 17 14  1  0
 18 15  1  0
 19 20  2  0
 20 39  1  0
 21 20  1  0
 21 24  1  0
 22 23  1  0
 22 19  1  0
 23 21  2  0
 24 25  1  0
 25 26  2  0
 27 30  1  0
 27 26  1  0
 28 27  2  0
 29 28  1  0
 29 24  2  0
 30 31  1  0
 31 32  1  0
 32 33  2  0
 34 33  1  0
 34 38  1  0
 35 34  2  0
 36 31  2  0
 36 35  1  0
 37 36  1  0
 39 40  1  0
 40 43  1  0
 40 42  1  0
 41 39  2  0
 44 19  1  0
 44 45  1  0
 46 44  1  0
 47 48  1  0
 47  4  1  0
 49 60  2  0
 50 48  1  0
 50 55  1  0
 51 59  1  0
 51 61  1  0
 52 58  1  0
 52 54  1  0
 53 59  1  0
 54 53  1  0
 55 54  2  0
 56 57  1  0
 56 50  2  0
 57 52  2  0
 58 51  1  0
 59 49  1  0
 61 63  2  0
 62 61  1  0
 64 62  1  0
 65 74  2  0
 65 70  1  0
 66 62  1  0
 66 70  1  0
 67 66  1  0
 68 69  1  0
 68 67  1  0
 69 65  1  0
 70 71  2  0
 71 72  1  0
 73 72  2  0
 74 73  1  0
 75 49  1  0
 75 80  1  0
 75 76  1  0
 76 79  1  1
 76 77  1  0
 78 76  1  0
 80 83  1  0
 81 85  1  0
 81 80  1  0
 82 81  2  0
 85 84  1  0
 87 85  1  0
 87 88  1  0
 87 86  1  0
 89 90  1  0
 89  5  1  0
 92 91  1  0
 92 90  1  0
 93 92  1  0
 94 92  1  0
M  ISO  4   6 100  18 100  47 101  48 101
M  END
>  <TORSDO>  (77) 
F 20

>  <SCORE>  (77) 
-13.001

>  <name>  (77) 
76

>  <ligand_id>  (77) 
76

>  <original_smiles>  (77) 
[H]c1c([H])c([H])c2c(c1[H])C([H])([H])C([H])([H])C([H])([H])C2([H])N([H])C(=O)C1([H])N(C(=O)C([H])(N([H])C(=O)C([H])(N([H])C([H])([H])[H])C([H])([H])[H])C(C([H])([H])[H])(C([H])([H])[H])C([H])([H])[H])C([H])([H])c2c([H])c(OC([H])([H])c3c([H])c([H])c(C4([H])C([H])([H])N(C(=O)N5C([H])([H])C([H])([H])C([H])([H])C([H])(n6nc(-c7c([H])c([H])c(Oc8c([H])c([H])c(F)c([H])c8F)c([H])c7[H])c(C(=O)N([H])[H])c6N([H])[H])C5([H])[H])C([H])([H])C4([H])[H])n3C([H])([H])C([H])([H])[N+]([H])([H])C([H])([H])[H])c([H])c([H])c2C1([H])[H]

>  <smiles>  (77) 
[H]c1c([H])c([H])c2c(c1[H])C([H])([H])C([H])([H])C([H])([H])C2([H])N([H])C(=O)C1([H])N(C(=O)C([H])(N([H])C(=O)C([H])(N([H])C([H])([H])[H])C([H])([H])[H])C(C([H])([H])[H])(C([H])([H])[H])C([H])([H])[H])C([H])([H])c2c([H])c(OC([H])([H])c3c([H])c([H])c(C4([H])C([H])([H])N(C(=O)N5C([H])([H])C([H])([H])C([H])([H])C([H])(n6nc(-c7c([H])c([H])c(Oc8c([H])c([H])c(F)c([H])c8F)c([H])c7[H])c(C(=O)N([H])[H])c6N([H])[H])C5([H])[H])C([H])([H])C4([H])[H])n3C([H])([H])C([H])([H])[N+]([H])([H])C([H])([H])[H])c([H])c([H])c2C1([H])[H]

$$$$
77:0:0
     RDKit          3D

 93102  0  0  1  0  0  0  0  0999 V2000
  -31.8590  -19.9640   20.8880 C   0  0  0  0  0  3  0  0  0  0  0  0
  -31.5840  -22.1040   20.0460 C   0  0  0  0  0  3  0  0  0  0  0  0
  -30.5310  -19.7680   21.0910 C   0  0  0  0  0  0  0  0  0  0  0  0
  -29.6260  -20.9040   20.8150 C   0  0  0  0  0  0  0  0  0  0  0  0
  -32.3930  -21.1530   20.3900 N   0  0  0  0  0  0  0  0  0  0  0  0
  -30.1940  -21.9910   20.2110 N   0  0  0  0  0  0  0  0  0  0  0  0
  -28.4150  -20.8720   21.0720 O   0  0  0  0  0  0  0  0  0  0  0  0
  -30.7380  -14.4840   20.1720 C   0  0  0  0  0  0  0  0  0  0  0  0
  -30.3350  -12.4040   18.9170 C   0  0  0  0  0  2  0  0  0  0  0  0
  -29.3350  -12.6900   17.7810 C   0  0  0  0  0  2  0  0  0  0  0  0
  -27.8850  -12.5410   18.2830 C   0  0  0  0  0  2  0  0  0  0  0  0
  -27.6250  -13.3120   19.6060 C   0  0  0  0  0  3  0  0  0  0  0  0
  -28.7370  -13.0260   20.6420 C   0  0  0  0  0  2  0  0  0  0  0  0
  -30.0320  -13.3330   20.0160 N   0  0  0  0  0  0  0  0  0  0  0  0
  -31.8370  -14.6750   19.6420 O   0  0  0  0  0  0  0  0  0  0  0  0
  -28.9980  -17.7870   20.5060 C   0  0  0  0  0  2  0  0  0  0  0  0
  -30.8970  -17.3820   22.1540 C   0  0  0  0  0  2  0  0  0  0  0  0
  -29.6760  -16.6100   19.7850 C   0  0  0  0  0  2  0  0  0  0  0  0
  -30.3300  -15.9440   22.0960 C   0  0  0  0  0  2  0  0  0  0  0  0
  -29.9110  -18.4360   21.5760 C   0  0  0  0  0  3  0  0  0  0  0  0
  -30.0530  -15.5210   20.7080 N   0  0  0  0  0  0  0  0  0  0  0  0
  -25.2570  -13.8960   20.4290 C   0  0  0  0  0  0  0  0  0  0  0  0
  -24.2100  -13.1110   20.8310 C   0  0  0  0  0  0  0  0  0  0  0  0
  -24.6750  -11.7630   20.7570 C   0  0  0  0  0  0  0  0  0  0  0  0
  -26.2950  -13.0240   20.1380 N   0  0  0  0  0  0  0  0  0  0  0  0
  -25.9500  -11.7350   20.3910 N   0  0  0  0  0  0  0  0  0  0  0  0
  -23.9630  -10.4940   20.9590 C   0  0  0  0  0  0  0  0  0  0  0  0
  -24.4170   -9.5350   21.8910 C   0  0  0  0  0  3  0  0  0  0  0  0
  -23.7090   -8.3280   22.0800 C   0  0  0  0  0  3  0  0  0  0  0  0
  -22.5310   -8.0740   21.3360 C   0  0  0  0  0  0  0  0  0  0  0  0
  -22.0960   -9.0230   20.3940 C   0  0  0  0  0  3  0  0  0  0  0  0
  -22.8050  -10.2200   20.2040 C   0  0  0  0  0  3  0  0  0  0  0  0
  -21.7910   -6.9200   21.4350 O   0  0  0  0  0  0  0  0  0  0  0  0
  -21.7320   -6.2010   22.6020 C   0  0  0  0  0  0  0  0  0  0  0  0
  -21.2750   -6.7760   23.8080 C   0  0  0  0  0  3  0  0  0  0  0  0
  -21.1630   -5.9830   24.9670 C   0  0  0  0  0  3  0  0  0  0  0  0
  -21.4990   -4.6150   24.9220 C   0  0  0  0  0  0  0  0  0  0  0  0
  -21.9490   -4.0410   23.7200 C   0  0  0  0  0  3  0  0  0  0  0  0
  -22.0630   -4.8320   22.5640 C   0  0  0  0  0  0  0  0  0  0  0  0
  -22.4770   -4.2680   21.4030 F   0  0  0  0  0  0  0  0  0  0  0  0
  -21.3830   -3.8520   26.0330 F   0  0  0  0  0  0  0  0  0  0  0  0
  -22.8240  -13.5760   21.1770 C   0  0  0  0  0  0  0  0  0  0  0  0
  -22.1390  -12.8590   22.0610 N   0  0  0  0  0  0  0  0  0  0  0  0
  -22.3580  -14.6090   20.6980 O   0  0  0  0  0  0  0  0  0  0  0  0
  -22.5310  -12.0230   22.4700 H   0  0  0  0  0  0  0  0  0  0  0  0
  -21.2130  -13.1510   22.3350 H   0  0  0  0  0  0  0  0  0  0  0  0
  -25.4110  -15.2690   20.2700 N   0  0  0  0  0  0  0  0  0  0  0  0
  -24.6520  -15.9240   20.4320 H   0  0  0  0  0  0  0  0  0  0  0  0
  -26.2580  -15.7160   19.9440 H   0  0  0  0  0  0  0  0  0  0  0  0
  -29.3750  -23.0530   19.5890 C   0  0  0  0  0  2  0  0  0  0  0  0
  -29.4770  -24.4540   20.2430 C   0  0  0  0  0  2  0  0  0  0  0  0
  -28.3100  -25.3310   19.7620 C   0  0  0  0  0  2  0  0  0  0  0  0
  -28.3950  -26.7030   20.1600 O   0  0  0  0  0  0  0  0  0  0  0  0
  -24.5850  -31.8700   23.2280 C   0  0  0  0  0  0  0  0  0  0  0  0
  -27.2200  -27.4350   20.1270 C   0  0  0  0  0  0  0  0  0  0  0  0
  -23.3760  -30.4750   21.5860 C   0  0  0  0  0  3  0  0  0  0  0  0
  -24.8260  -28.9490   20.1520 C   0  0  0  0  0  0  0  0  0  0  0  0
  -25.9040  -30.8320   21.3860 C   0  0  0  0  0  2  0  0  0  0  0  0
  -25.9860  -29.4640   20.7410 C   0  0  0  0  0  0  0  0  0  0  0  0
  -27.1850  -28.7140   20.7290 C   0  0  0  0  0  3  0  0  0  0  0  0
  -26.0370  -26.9460   19.5180 C   0  0  0  0  0  3  0  0  0  0  0  0
  -24.8460  -27.6880   19.5380 C   0  0  0  0  0  3  0  0  0  0  0  0
  -23.5820  -29.8050   20.2030 C   0  0  0  0  0  2  0  0  0  0  0  0
  -24.6390  -31.0720   22.1250 N   0  0  0  0  0  0  0  0  0  0  0  0
  -23.5040  -32.1410   23.7690 O   0  0  0  0  0  0  0  0  0  0  0  0
  -22.7280  -29.4460   22.5400 C   0  0  0  0  0  0  0  0  0  0  0  0
  -21.4020  -29.2690   22.4180 N   0  0  0  0  0  0  0  0  0  0  0  0
  -23.4130  -28.8120   23.3470 O   0  0  0  0  0  0  0  0  0  0  0  0
  -20.9090  -29.8340   21.7410 H   0  0  0  0  0  0  0  0  0  0  0  0
  -18.0230  -28.0990   22.9370 C   0  0  0  0  0  0  0  0  0  0  0  0
  -20.5850  -28.3310   23.1870 C   0  0  0  0  0  3  0  0  0  0  0  0
  -20.6690  -26.9040   22.5980 C   0  0  0  0  0  2  0  0  0  0  0  0
  -19.5540  -26.6010   21.5910 C   0  0  0  0  0  2  0  0  0  0  0  0
  -18.1810  -26.7550   22.2490 C   0  0  0  0  0  2  0  0  0  0  0  0
  -19.1530  -28.8460   23.3650 C   0  0  0  0  0  0  0  0  0  0  0  0
  -18.9520  -30.1070   23.9680 C   0  0  0  0  0  3  0  0  0  0  0  0
  -17.6540  -30.6220   24.1460 C   0  0  0  0  0  3  0  0  0  0  0  0
  -16.5380  -29.8700   23.7370 C   0  0  0  0  0  3  0  0  0  0  0  0
  -16.7240  -28.6100   23.1400 C   0  0  0  0  0  3  0  0  0  0  0  0
  -25.8720  -32.4990   23.8450 C   0  0  0  0  0  3  0  0  0  0  0  0
  -26.3960  -31.7230   25.1160 C   0  0  1  0  0  0  0  0  0  0  0  0
  -25.3070  -31.4780   26.1860 C   0  0  0  0  0  1  0  0  0  0  0  0
  -26.9800  -30.3500   24.7130 C   0  0  0  0  0  1  0  0  0  0  0  0
  -27.5470  -32.5170   25.7780 C   0  0  0  0  0  1  0  0  0  0  0  0
  -25.5650  -33.8970   24.1780 N   0  0  0  0  0  0  0  0  0  0  0  0
  -25.8960  -34.9490   23.4170 C   0  0  0  0  0  0  0  0  0  0  0  0
  -26.5650  -34.8440   22.3840 O   0  0  0  0  0  0  0  0  0  0  0  0
  -24.9750  -34.0520   24.9800 H   0  0  0  0  0  0  0  0  0  0  0  0
  -24.1720  -36.7430   23.0590 C   0  0  0  0  0  1  0  0  0  0  0  0
  -25.4100  -36.3370   23.8740 C   0  0  0  0  0  3  0  0  0  0  0  0
  -27.5400  -37.2180   24.7170 C   0  0  0  0  0  1  0  0  0  0  0  0
  -26.4440  -37.3880   23.7670 N   0  0  0  0  0  0  0  0  0  0  0  0
  -26.0380  -38.3080   23.9130 H   0  0  0  0  0  0  0  0  0  0  0  0
  1  3  2  0
  2  6  1  0
  2  5  2  0
  4  7  2  0
  4  3  1  0
  5  1  1  0
  6  4  1  0
  8 21  1  0
  9 14  1  0
 10 11  1  0
 10  9  1  0
 12 11  1  0
 12 25  1  0
 12 13  1  0
 14  8  1  0
 14 13  1  0
 15  8  2  0
 16 20  1  0
 18 16  1  0
 18 21  1  0
 19 17  1  0
 20  3  1  0
 20 17  1  0
 21 19  1  0
 22 23  2  0
 23 42  1  0
 24 23  1  0
 24 27  1  0
 25 26  1  0
 25 22  1  0
 26 24  2  0
 27 28  1  0
 28 29  2  0
 30 33  1  0
 30 29  1  0
 31 30  2  0
 32 31  1  0
 32 27  2  0
 33 34  1  0
 34 35  1  0
 35 36  2  0
 37 36  1  0
 37 41  1  0
 38 37  2  0
 39 34  2  0
 39 38  1  0
 40 39  1  0
 42 43  1  0
 43 46  1  0
 43 45  1  0
 44 42  2  0
 47 22  1  0
 47 48  1  0
 49 47  1  0
 50  6  1  0
 50 51  1  0
 52 53  1  0
 52 51  1  0
 54 65  2  0
 55 53  1  0
 55 60  1  0
 56 64  1  0
 56 66  1  0
 57 63  1  0
 57 59  1  0
 58 64  1  0
 59 58  1  0
 60 59  2  0
 61 62  1  0
 61 55  2  0
 62 57  2  0
 63 56  1  0
 64 54  1  0
 66 68  2  0
 67 66  1  0
 69 67  1  0
 70 79  2  0
 70 75  1  0
 71 67  1  0
 71 75  1  0
 72 71  1  0
 73 74  1  0
 73 72  1  0
 74 70  1  0
 75 76  2  0
 76 77  1  0
 78 77  2  0
 79 78  1  0
 80 54  1  0
 80 85  1  0
 80 81  1  0
 81 84  1  1
 81 82  1  0
 83 81  1  0
 85 88  1  0
 86 90  1  0
 86 85  1  0
 87 86  2  0
 90 89  1  0
 92 90  1  0
 92 93  1  0
 92 91  1  0
M  ISO  4   8 100  21 100  52 101  53 101
M  END
>  <TORSDO>  (78) 
F 19

>  <SCORE>  (78) 
-14.143

>  <name>  (78) 
77

>  <ligand_id>  (78) 
77

>  <original_smiles>  (78) 
[H]c1nc([H])n(C([H])([H])C([H])([H])C([H])([H])Oc2c([H])c([H])c3c(c2[H])C([H])([H])N(C(=O)C([H])(N([H])C(=O)C([H])(N([H])C([H])([H])[H])C([H])([H])[H])C(C([H])([H])[H])(C([H])([H])[H])C([H])([H])[H])C([H])(C(=O)N([H])C2([H])c4c([H])c([H])c([H])c([H])c4C([H])([H])C([H])([H])C2([H])[H])C3([H])[H])c(=O)c1C1([H])C([H])([H])C([H])([H])N(C(=O)N2C([H])([H])C([H])([H])C([H])([H])C([H])(n3nc(-c4c([H])c([H])c(Oc5c([H])c([H])c(F)c([H])c5F)c([H])c4[H])c(C(=O)N([H])[H])c3N([H])[H])C2([H])[H])C([H])([H])C1([H])[H]

>  <smiles>  (78) 
[H]c1nc([H])n(C([H])([H])C([H])([H])C([H])([H])Oc2c([H])c([H])c3c(c2[H])C([H])([H])N(C(=O)C([H])(N([H])C(=O)C([H])(N([H])C([H])([H])[H])C([H])([H])[H])C(C([H])([H])[H])(C([H])([H])[H])C([H])([H])[H])C([H])(C(=O)N([H])C2([H])c4c([H])c([H])c([H])c([H])c4C([H])([H])C([H])([H])C2([H])[H])C3([H])[H])c(=O)c1C1([H])C([H])([H])C([H])([H])N(C(=O)N2C([H])([H])C([H])([H])C([H])([H])C([H])(n3nc(-c4c([H])c([H])c(Oc5c([H])c([H])c(F)c([H])c5F)c([H])c4[H])c(C(=O)N([H])[H])c3N([H])[H])C2([H])[H])C([H])([H])C1([H])[H]

$$$$
78:0:0
     RDKit          3D

 96105  0  0  1  0  0  0  0  0999 V2000
  -30.8470  -24.5900   21.7860 C   0  0  0  0  0  3  0  0  0  0  0  0
  -30.9320  -23.2680   21.4430 C   0  0  0  0  0  0  0  0  0  0  0  0
  -29.7560  -25.0870   21.0200 C   0  0  0  0  0  0  0  0  0  0  0  0
  -31.8310  -22.1660   21.8670 C   0  0  0  0  0  2  0  0  0  0  0  0
  -31.8120  -21.0030   20.8590 C   0  0  0  0  0  2  0  0  0  0  0  0
  -29.6500  -21.7260   19.8480 C   0  0  0  0  0  3  0  0  0  0  0  0
  -29.2250  -24.1280   20.2640 N   0  0  0  0  0  0  0  0  0  0  0  0
  -29.9210  -22.9990   20.5490 N   0  0  0  0  0  0  0  0  0  0  0  0
  -30.4200  -20.5960   20.4960 N   0  0  1  0  0  4  0  0  0  0  0  0
  -29.9570  -20.4170   21.3730 H   0  0  0  0  0  0  0  0  0  0  0  0
  -27.3690  -21.3870   21.0800 C   0  0  0  0  0  1  0  0  0  0  0  0
  -28.1200  -21.4620   19.7380 C   0  0  0  0  0  2  0  0  0  0  0  0
  -29.1790  -26.4880   21.0070 C   0  0  0  0  0  2  0  0  0  0  0  0
  -28.4400  -26.7250   19.8120 O   0  0  0  0  0  0  0  0  0  0  0  0
  -24.4640  -31.7090   23.0770 C   0  0  0  0  0  0  0  0  0  0  0  0
  -27.2780  -27.4490   19.9140 C   0  0  0  0  0  0  0  0  0  0  0  0
  -23.3170  -30.3140   21.3830 C   0  0  0  0  0  3  0  0  0  0  0  0
  -24.8340  -28.8550   19.9460 C   0  0  0  0  0  0  0  0  0  0  0  0
  -25.8290  -30.7550   21.2280 C   0  0  0  0  0  2  0  0  0  0  0  0
  -25.9650  -29.4020   20.5670 C   0  0  0  0  0  0  0  0  0  0  0  0
  -27.1920  -28.7020   20.5620 C   0  0  0  0  0  3  0  0  0  0  0  0
  -26.1370  -26.9130   19.2880 C   0  0  0  0  0  3  0  0  0  0  0  0
  -24.9110  -27.6030   19.3100 C   0  0  0  0  0  3  0  0  0  0  0  0
  -23.5640  -29.6730   19.9920 C   0  0  0  0  0  2  0  0  0  0  0  0
  -24.5540  -30.9400   21.9560 N   0  0  0  0  0  0  0  0  0  0  0  0
  -23.3690  -31.9380   23.6110 O   0  0  0  0  0  0  0  0  0  0  0  0
  -22.6830  -29.2530   22.3110 C   0  0  0  0  0  0  0  0  0  0  0  0
  -21.3630  -29.0520   22.1760 N   0  0  0  0  0  0  0  0  0  0  0  0
  -23.3780  -28.6130   23.1060 O   0  0  0  0  0  0  0  0  0  0  0  0
  -20.8650  -29.6220   21.5070 H   0  0  0  0  0  0  0  0  0  0  0  0
  -18.0050  -27.8070   22.6470 C   0  0  0  0  0  0  0  0  0  0  0  0
  -20.5610  -28.0760   22.9140 C   0  0  0  0  0  3  0  0  0  0  0  0
  -20.6730  -26.6700   22.2800 C   0  0  0  0  0  2  0  0  0  0  0  0
  -19.5680  -26.3790   21.2600 C   0  0  0  0  0  2  0  0  0  0  0  0
  -18.1880  -26.4880   21.9150 C   0  0  0  0  0  2  0  0  0  0  0  0
  -19.1200  -28.5610   23.1010 C   0  0  0  0  0  0  0  0  0  0  0  0
  -18.8950  -29.7980   23.7420 C   0  0  0  0  0  3  0  0  0  0  0  0
  -17.5870  -30.2820   23.9350 C   0  0  0  0  0  3  0  0  0  0  0  0
  -16.4860  -29.5240   23.4980 C   0  0  0  0  0  3  0  0  0  0  0  0
  -16.6960  -28.2890   22.8600 C   0  0  0  0  0  3  0  0  0  0  0  0
  -25.7260  -32.3580   23.7280 C   0  0  0  0  0  3  0  0  0  0  0  0
  -25.3710  -33.7340   24.1020 N   0  0  0  0  0  0  0  0  0  0  0  0
  -25.6860  -34.8210   23.3850 C   0  0  0  0  0  0  0  0  0  0  0  0
  -26.3760  -34.7710   22.3620 O   0  0  0  0  0  0  0  0  0  0  0  0
  -24.7620  -33.8440   24.8990 H   0  0  0  0  0  0  0  0  0  0  0  0
  -23.9180  -36.5760   23.0500 C   0  0  0  0  0  1  0  0  0  0  0  0
  -25.1490  -36.1760   23.8800 C   0  0  0  0  0  3  0  0  0  0  0  0
  -27.2380  -37.0830   24.7990 C   0  0  0  0  0  1  0  0  0  0  0  0
  -26.1560  -37.2590   23.8340 N   0  0  0  0  0  0  0  0  0  0  0  0
  -25.7210  -38.1620   24.0070 H   0  0  0  0  0  0  0  0  0  0  0  0
  -26.2620  -31.5580   24.9790 C   0  0  1  0  0  0  0  0  0  0  0  0
  -25.1720  -31.2470   26.0300 C   0  0  0  0  0  1  0  0  0  0  0  0
  -26.8890  -30.2130   24.5390 C   0  0  0  0  0  1  0  0  0  0  0  0
  -27.3840  -32.3630   25.6740 C   0  0  0  0  0  1  0  0  0  0  0  0
  -30.3430  -19.3210   19.7000 C   0  0  0  0  0  2  0  0  0  0  0  0
  -32.4750  -17.8990   19.5030 C   0  0  0  0  0  1  0  0  0  0  0  0
  -31.1270  -18.0710   20.2360 C   0  0  0  0  0  3  0  0  0  0  0  0
  -30.2520  -16.7780   20.1050 C   0  0  0  0  0  2  0  0  0  0  0  0
  -31.2770  -14.5030   20.0160 C   0  0  0  0  0  0  0  0  0  0  0  0
  -30.8390  -12.3050   18.9830 C   0  0  0  0  0  2  0  0  0  0  0  0
  -29.8840  -12.4570   17.7810 C   0  0  0  0  0  2  0  0  0  0  0  0
  -28.4160  -12.3950   18.2420 C   0  0  0  0  0  2  0  0  0  0  0  0
  -28.1280  -13.3330   19.4420 C   0  0  0  0  0  3  0  0  0  0  0  0
  -29.1920  -13.1630   20.5510 C   0  0  0  0  0  2  0  0  0  0  0  0
  -30.5260  -13.3680   19.9530 N   0  0  0  0  0  0  0  0  0  0  0  0
  -32.3200  -14.6410   19.3710 O   0  0  0  0  0  0  0  0  0  0  0  0
  -30.9420  -15.5760   22.1800 C   0  0  0  0  0  1  0  0  0  0  0  0
  -30.7620  -15.5340   20.7290 N   0  0  0  0  0  0  0  0  0  0  0  0
  -25.7820  -14.0760   20.2000 C   0  0  0  0  0  0  0  0  0  0  0  0
  -24.6820  -13.3660   20.6070 C   0  0  0  0  0  0  0  0  0  0  0  0
  -25.0700  -11.9920   20.5850 C   0  0  0  0  0  0  0  0  0  0  0  0
  -26.7720  -13.1380   19.9580 N   0  0  0  0  0  0  0  0  0  0  0  0
  -26.3480  -11.8780   20.2450 N   0  0  0  0  0  0  0  0  0  0  0  0
  -24.2830  -10.7740   20.8130 C   0  0  0  0  0  0  0  0  0  0  0  0
  -24.6650   -9.8160   21.7780 C   0  0  0  0  0  3  0  0  0  0  0  0
  -23.8830   -8.6610   21.9920 C   0  0  0  0  0  3  0  0  0  0  0  0
  -22.7020   -8.4550   21.2400 C   0  0  0  0  0  0  0  0  0  0  0  0
  -22.3360   -9.4000   20.2640 C   0  0  0  0  0  3  0  0  0  0  0  0
  -23.1190  -10.5470   20.0500 C   0  0  0  0  0  3  0  0  0  0  0  0
  -21.8930   -7.3500   21.3600 O   0  0  0  0  0  0  0  0  0  0  0  0
  -21.7770   -6.6700   22.5450 C   0  0  0  0  0  0  0  0  0  0  0  0
  -21.3530   -7.3080   23.7320 C   0  0  0  0  0  3  0  0  0  0  0  0
  -21.1810   -6.5560   24.9120 C   0  0  0  0  0  3  0  0  0  0  0  0
  -21.4200   -5.1690   24.9050 C   0  0  0  0  0  0  0  0  0  0  0  0
  -21.8350   -4.5320   23.7230 C   0  0  0  0  0  3  0  0  0  0  0  0
  -22.0110   -5.2800   22.5450 C   0  0  0  0  0  0  0  0  0  0  0  0
  -22.3920   -4.6580   21.4040 F   0  0  0  0  0  0  0  0  0  0  0  0
  -21.2470   -4.4460   26.0360 F   0  0  0  0  0  0  0  0  0  0  0  0
  -23.3190  -13.9220   20.9090 C   0  0  0  0  0  0  0  0  0  0  0  0
  -22.5810  -13.2830   21.8090 N   0  0  0  0  0  0  0  0  0  0  0  0
  -22.9190  -14.9570   20.3770 O   0  0  0  0  0  0  0  0  0  0  0  0
  -22.9180  -12.4480   22.2640 H   0  0  0  0  0  0  0  0  0  0  0  0
  -21.6650  -13.6360   22.0480 H   0  0  0  0  0  0  0  0  0  0  0  0
  -26.0160  -15.4320   19.9980 N   0  0  0  0  0  0  0  0  0  0  0  0
  -25.2920  -16.1310   20.1170 H   0  0  0  0  0  0  0  0  0  0  0  0
  -26.8860  -15.8170   19.6530 H   0  0  0  0  0  0  0  0  0  0  0  0
  2  1  2  0
  2  4  1  0
  3  1  1  0
  5  4  1  0
  6 12  1  0
  6  9  1  0
  6  8  1  0
  7  8  1  0
  7  3  2  0
  8  2  1  0
  9  5  1  0
  9 10  1  1
 12 11  1  0
 13  3  1  0
 14 16  1  0
 14 13  1  0
 15 26  2  0
 16 21  1  0
 17 25  1  0
 17 27  1  0
 18 24  1  0
 18 20  1  0
 19 25  1  0
 20 19  1  0
 21 20  2  0
 22 23  1  0
 22 16  2  0
 23 18  2  0
 24 17  1  0
 25 15  1  0
 27 29  2  0
 28 27  1  0
 30 28  1  0
 31 40  2  0
 31 36  1  0
 32 28  1  0
 32 36  1  0
 33 32  1  0
 34 35  1  0
 34 33  1  0
 35 31  1  0
 36 37  2  0
 37 38  1  0
 39 38  2  0
 40 39  1  0
 41 15  1  0
 41 42  1  0
 41 51  1  0
 42 45  1  0
 43 47  1  0
 43 42  1  0
 44 43  2  0
 47 46  1  0
 49 47  1  0
 49 50  1  0
 49 48  1  0
 51 54  1  1
 51 52  1  0
 53 51  1  0
 55 57  1  0
 55  9  1  0
 57 56  1  0
 58 57  1  0
 58 68  1  0
 59 68  1  0
 60 65  1  0
 61 62  1  0
 61 60  1  0
 63 62  1  0
 63 72  1  0
 63 64  1  0
 65 59  1  0
 65 64  1  0
 66 59  2  0
 68 67  1  0
 69 70  2  0
 70 89  1  0
 71 70  1  0
 71 74  1  0
 72 69  1  0
 72 73  1  0
 73 71  2  0
 74 75  1  0
 75 76  2  0
 77 80  1  0
 77 76  1  0
 78 77  2  0
 79 78  1  0
 79 74  2  0
 80 81  1  0
 81 82  1  0
 82 83  2  0
 84 83  1  0
 84 88  1  0
 85 84  2  0
 86 81  2  0
 86 85  1  0
 87 86  1  0
 89 90  1  0
 90 93  1  0
 90 92  1  0
 91 89  2  0
 94 95  1  0
 94 69  1  0
 96 94  1  0
M  ISO  4  13 101  14 101  59 100  68 100
M  END
>  <TORSDO>  (79) 
F 21

>  <SCORE>  (79) 
-11.851

>  <name>  (79) 
78

>  <ligand_id>  (79) 
78

>  <original_smiles>  (79) 
[H]c1c([H])c([H])c2c(c1[H])C([H])([H])C([H])([H])C([H])([H])C2([H])N([H])C(=O)C1([H])N(C(=O)C([H])(N([H])C(=O)C([H])(N([H])C([H])([H])[H])C([H])([H])[H])C(C([H])([H])[H])(C([H])([H])[H])C([H])([H])[H])C([H])([H])c2c([H])c(OC([H])([H])c3nn4c(c3[H])C([H])([H])C([H])([H])[N+]([H])(C([H])([H])C([H])(C([H])([H])[H])C([H])([H])N(C(=O)N3C([H])([H])C([H])([H])C([H])([H])C([H])(n5nc(-c6c([H])c([H])c(Oc7c([H])c([H])c(F)c([H])c7F)c([H])c6[H])c(C(=O)N([H])[H])c5N([H])[H])C3([H])[H])C([H])([H])[H])C4([H])C([H])([H])C([H])([H])[H])c([H])c([H])c2C1([H])[H]

>  <smiles>  (79) 
[H]c1c([H])c([H])c2c(c1[H])C([H])([H])C([H])([H])C([H])([H])C2([H])N([H])C(=O)C1([H])N(C(=O)C([H])(N([H])C(=O)C([H])(N([H])C([H])([H])[H])C([H])([H])[H])C(C([H])([H])[H])(C([H])([H])[H])C([H])([H])[H])C([H])([H])c2c([H])c(OC([H])([H])c3nn4c(c3[H])C([H])([H])C([H])([H])[N+]([H])(C([H])([H])C([H])(C([H])([H])[H])C([H])([H])N(C(=O)N3C([H])([H])C([H])([H])C([H])([H])C([H])(n5nc(-c6c([H])c([H])c(Oc7c([H])c([H])c(F)c([H])c7F)c([H])c6[H])c(C(=O)N([H])[H])c5N([H])[H])C3([H])[H])C([H])([H])[H])C4([H])C([H])([H])C([H])([H])[H])c([H])c([H])c2C1([H])[H]

$$$$
79:0:0
     RDKit          3D

 96106  0  0  1  0  0  0  0  0999 V2000
  -30.5970  -14.5370   20.4170 C   0  0  0  0  0  0  0  0  0  0  0  0
  -30.2300  -12.3760   19.2840 C   0  0  0  0  0  2  0  0  0  0  0  0
  -29.2830  -12.5400   18.0810 C   0  0  0  0  0  2  0  0  0  0  0  0
  -27.8190  -12.3750   18.5290 C   0  0  0  0  0  2  0  0  0  0  0  0
  -27.4800  -13.2580   19.7560 C   0  0  0  0  0  3  0  0  0  0  0  0
  -28.5440  -13.1030   20.8720 C   0  0  0  0  0  2  0  0  0  0  0  0
  -29.8720  -13.3880   20.2960 N   0  0  0  0  0  0  0  0  0  0  0  0
  -31.6330  -14.7180   19.7690 O   0  0  0  0  0  0  0  0  0  0  0  0
  -30.9540  -21.5040   19.7010 C   0  0  0  0  0  0  0  0  0  0  0  0
  -30.8720  -19.4460   20.0060 C   0  0  0  0  0  0  0  0  0  0  0  0
  -29.4920  -17.4110   20.1400 C   0  0  0  0  0  2  0  0  0  0  0  0
  -31.7160  -17.4160   21.1690 C   0  0  0  0  0  2  0  0  0  0  0  0
  -29.0820  -16.3190   21.1440 C   0  0  0  0  0  2  0  0  0  0  0  0
  -31.2510  -16.2290   22.0540 C   0  0  0  0  0  2  0  0  0  0  0  0
  -30.4860  -20.8230   22.1010 C   0  0  0  0  0  1  0  0  0  0  0  0
  -31.1880  -20.9530   18.5030 N   0  0  0  0  0  0  0  0  0  0  0  0
  -31.1340  -19.5950   18.7060 N   0  0  0  0  0  0  0  0  0  0  0  0
  -30.7740  -20.6020   20.6920 N   0  0  0  0  0  0  0  0  0  0  0  0
  -30.6220  -18.2180   20.6070 N   0  0  0  0  0  0  0  0  0  0  0  0
  -30.2250  -15.4300   21.3680 N   0  0  0  0  0  0  0  0  0  0  0  0
  -25.0980  -13.8710   20.5210 C   0  0  0  0  0  0  0  0  0  0  0  0
  -24.0340  -13.0990   20.8970 C   0  0  0  0  0  0  0  0  0  0  0  0
  -24.4880  -11.7450   20.8360 C   0  0  0  0  0  0  0  0  0  0  0  0
  -26.1350  -12.9880   20.2560 N   0  0  0  0  0  0  0  0  0  0  0  0
  -25.7720  -11.7040   20.5040 N   0  0  0  0  0  0  0  0  0  0  0  0
  -23.7630  -10.4840   21.0220 C   0  0  0  0  0  0  0  0  0  0  0  0
  -24.1940   -9.5160   21.9550 C   0  0  0  0  0  3  0  0  0  0  0  0
  -23.4690   -8.3170   22.1290 C   0  0  0  0  0  3  0  0  0  0  0  0
  -22.2980   -8.0790   21.3710 C   0  0  0  0  0  0  0  0  0  0  0  0
  -21.8880   -9.0360   20.4250 C   0  0  0  0  0  3  0  0  0  0  0  0
  -22.6140  -10.2250   20.2490 C   0  0  0  0  0  3  0  0  0  0  0  0
  -21.5430   -6.9340   21.4540 O   0  0  0  0  0  0  0  0  0  0  0  0
  -21.4680   -6.2050   22.6140 C   0  0  0  0  0  0  0  0  0  0  0  0
  -20.9850   -6.7640   23.8170 C   0  0  0  0  0  3  0  0  0  0  0  0
  -20.8610   -5.9600   24.9670 C   0  0  0  0  0  3  0  0  0  0  0  0
  -21.2090   -4.5960   24.9140 C   0  0  0  0  0  0  0  0  0  0  0  0
  -21.6850   -4.0380   23.7150 C   0  0  0  0  0  3  0  0  0  0  0  0
  -21.8120   -4.8390   22.5670 C   0  0  0  0  0  0  0  0  0  0  0  0
  -22.2510   -4.2910   21.4100 F   0  0  0  0  0  0  0  0  0  0  0  0
  -21.0820   -3.8210   26.0160 F   0  0  0  0  0  0  0  0  0  0  0  0
  -22.6420  -13.5770   21.2020 C   0  0  0  0  0  0  0  0  0  0  0  0
  -21.9350  -12.8810   22.0850 N   0  0  0  0  0  0  0  0  0  0  0  0
  -22.1920  -14.6040   20.6930 O   0  0  0  0  0  0  0  0  0  0  0  0
  -22.3090  -12.0490   22.5180 H   0  0  0  0  0  0  0  0  0  0  0  0
  -21.0030  -13.1810   22.3350 H   0  0  0  0  0  0  0  0  0  0  0  0
  -25.2690  -15.2460   20.3720 N   0  0  0  0  0  0  0  0  0  0  0  0
  -24.5180  -15.9070   20.5400 H   0  0  0  0  0  0  0  0  0  0  0  0
  -26.1300  -15.6910   20.0850 H   0  0  0  0  0  0  0  0  0  0  0  0
  -29.3870  -23.5720   19.4510 C   0  0  0  0  0  2  0  0  0  0  0  0
  -31.3310  -24.0560   18.9880 C   0  0  0  0  0  2  0  0  0  0  0  0
  -30.7190  -22.9750   19.8780 C   0  0  0  0  0  3  0  0  0  0  0  0
  -30.1040  -24.8290   19.2270 N   0  0  1  0  0  4  0  0  0  0  0  0
  -30.1700  -25.3590   20.0840 H   0  0  0  0  0  0  0  0  0  0  0  0
  -29.6230  -25.6640   18.0990 C   0  0  0  0  0  2  0  0  0  0  0  0
  -28.1560  -26.0850   18.2710 C   0  0  0  0  0  2  0  0  0  0  0  0
  -28.0030  -26.8300   19.4780 O   0  0  0  0  0  0  0  0  0  0  0  0
  -24.4510  -31.7970   23.1160 C   0  0  0  0  0  0  0  0  0  0  0  0
  -26.8210  -27.5200   19.6200 C   0  0  0  0  0  0  0  0  0  0  0  0
  -23.1220  -30.5290   21.4600 C   0  0  0  0  0  3  0  0  0  0  0  0
  -24.4570  -29.0420   19.8770 C   0  0  0  0  0  0  0  0  0  0  0  0
  -25.6400  -30.8390   21.1510 C   0  0  0  0  0  2  0  0  0  0  0  0
  -25.6530  -29.5060   20.4350 C   0  0  0  0  0  0  0  0  0  0  0  0
  -26.8340  -28.7430   20.3190 C   0  0  0  0  0  3  0  0  0  0  0  0
  -25.5980  -27.0520   19.0800 C   0  0  0  0  0  3  0  0  0  0  0  0
  -24.4190  -27.8080   19.2070 C   0  0  0  0  0  3  0  0  0  0  0  0
  -23.2410  -29.9260   20.0350 C   0  0  0  0  0  2  0  0  0  0  0  0
  -24.4250  -31.0660   21.9670 N   0  0  0  0  0  0  0  0  0  0  0  0
  -23.4080  -32.0640   23.7270 O   0  0  0  0  0  0  0  0  0  0  0  0
  -22.4940  -29.4680   22.3900 C   0  0  0  0  0  0  0  0  0  0  0  0
  -21.1630  -29.3100   22.3020 N   0  0  0  0  0  0  0  0  0  0  0  0
  -23.1970  -28.7910   23.1440 O   0  0  0  0  0  0  0  0  0  0  0  0
  -20.6570  -29.9080   21.6630 H   0  0  0  0  0  0  0  0  0  0  0  0
  -17.7940  -28.1220   22.8400 C   0  0  0  0  0  0  0  0  0  0  0  0
  -20.3610  -28.3460   23.0530 C   0  0  0  0  0  3  0  0  0  0  0  0
  -20.4340  -26.9410   22.4130 C   0  0  0  0  0  2  0  0  0  0  0  0
  -19.3020  -26.6710   21.4160 C   0  0  0  0  0  2  0  0  0  0  0  0
  -17.9390  -26.8010   22.1040 C   0  0  0  0  0  2  0  0  0  0  0  0
  -18.9320  -28.8550   23.2720 C   0  0  0  0  0  0  0  0  0  0  0  0
  -18.7420  -30.0940   23.9220 C   0  0  0  0  0  3  0  0  0  0  0  0
  -17.4470  -30.6010   24.1420 C   0  0  0  0  0  3  0  0  0  0  0  0
  -16.3250  -29.8650   23.7270 C   0  0  0  0  0  3  0  0  0  0  0  0
  -16.4990  -28.6270   23.0810 C   0  0  0  0  0  3  0  0  0  0  0  0
  -25.7860  -32.3550   23.7020 C   0  0  0  0  0  3  0  0  0  0  0  0
  -25.5430  -33.7440   24.1130 N   0  0  0  0  0  0  0  0  0  0  0  0
  -25.8860  -34.8200   23.3920 C   0  0  0  0  0  0  0  0  0  0  0  0
  -26.5140  -34.7440   22.3320 O   0  0  0  0  0  0  0  0  0  0  0  0
  -24.9840  -33.8790   24.9430 H   0  0  0  0  0  0  0  0  0  0  0  0
  -24.2260  -36.6940   23.1690 C   0  0  0  0  0  1  0  0  0  0  0  0
  -25.4660  -36.1990   23.9330 C   0  0  0  0  0  3  0  0  0  0  0  0
  -27.6480  -36.9500   24.7660 C   0  0  0  0  0  1  0  0  0  0  0  0
  -26.5380  -37.2150   23.8560 N   0  0  0  0  0  0  0  0  0  0  0  0
  -26.1710  -38.1400   24.0650 H   0  0  0  0  0  0  0  0  0  0  0  0
  -26.3390  -31.5020   24.9090 C   0  0  1  0  0  0  0  0  0  0  0  0
  -25.2950  -31.2470   26.0200 C   0  0  0  0  0  1  0  0  0  0  0  0
  -26.8500  -30.1280   24.4180 C   0  0  0  0  0  1  0  0  0  0  0  0
  -27.5500  -32.2220   25.5470 C   0  0  0  0  0  1  0  0  0  0  0  0
  1 20  1  0
  2  7  1  0
  3  4  1  0
  3  2  1  0
  5  4  1  0
  5 24  1  0
  5  6  1  0
  7  1  1  0
  7  6  1  0
  8  1  2  0
  9 18  1  0
 10 19  1  0
 10 18  1  0
 11 19  1  0
 11 13  1  0
 12 14  1  0
 13 20  1  0
 16 17  1  0
 16  9  2  0
 17 10  2  0
 18 15  1  0
 19 12  1  0
 20 14  1  0
 21 22  2  0
 22 41  1  0
 23 22  1  0
 23 26  1  0
 24 25  1  0
 24 21  1  0
 25 23  2  0
 26 27  1  0
 27 28  2  0
 29 32  1  0
 29 28  1  0
 30 29  2  0
 31 30  1  0
 31 26  2  0
 32 33  1  0
 33 34  1  0
 34 35  2  0
 36 35  1  0
 36 40  1  0
 37 36  2  0
 38 33  2  0
 38 37  1  0
 39 38  1  0
 41 42  1  0
 42 45  1  0
 42 44  1  0
 43 41  2  0
 46 21  1  0
 46 47  1  0
 48 46  1  0
 49 51  1  0
 50 52  1  0
 50 51  1  0
 51  9  1  0
 52 49  1  0
 52 53  1  1
 54 55  1  0
 54 52  1  0
 55 56  1  0
 56 58  1  0
 57 68  2  0
 58 63  1  0
 59 67  1  0
 59 69  1  0
 60 66  1  0
 60 62  1  0
 61 67  1  0
 62 61  1  0
 63 62  2  0
 64 65  1  0
 64 58  2  0
 65 60  2  0
 66 59  1  0
 67 57  1  0
 69 71  2  0
 70 69  1  0
 72 70  1  0
 73 82  2  0
 73 78  1  0
 74 70  1  0
 74 78  1  0
 75 74  1  0
 76 77  1  0
 76 75  1  0
 77 73  1  0
 78 79  2  0
 79 80  1  0
 81 80  2  0
 82 81  1  0
 83 57  1  0
 83 84  1  0
 83 93  1  0
 84 87  1  0
 85 89  1  0
 85 84  1  0
 86 85  2  0
 89 88  1  0
 91 89  1  0
 91 92  1  0
 91 90  1  0
 93 96  1  1
 93 94  1  0
 95 93  1  0
M  ISO  4   1 100  20 100  55 101  56 101
M  END
>  <TORSDO>  (80) 
F 18

>  <SCORE>  (80) 
-14.218

>  <name>  (80) 
79

>  <ligand_id>  (80) 
79

>  <original_smiles>  (80) 
[H]c1c([H])c([H])c2c(c1[H])C([H])([H])C([H])([H])C([H])([H])C2([H])N([H])C(=O)C1([H])N(C(=O)C([H])(N([H])C(=O)C([H])(N([H])C([H])([H])[H])C([H])([H])[H])C(C([H])([H])[H])(C([H])([H])[H])C([H])([H])[H])C([H])([H])c2c([H])c(OC([H])([H])C([H])([H])[N+]3([H])C([H])([H])C([H])(c4nnc(N5C([H])([H])C([H])([H])N(C(=O)N6C([H])([H])C([H])([H])C([H])([H])C([H])(n7nc(-c8c([H])c([H])c(Oc9c([H])c([H])c(F)c([H])c9F)c([H])c8[H])c(C(=O)N([H])[H])c7N([H])[H])C6([H])[H])C([H])([H])C5([H])[H])n4C([H])([H])[H])C3([H])[H])c([H])c([H])c2C1([H])[H]

>  <smiles>  (80) 
[H]c1c([H])c([H])c2c(c1[H])C([H])([H])C([H])([H])C([H])([H])C2([H])N([H])C(=O)C1([H])N(C(=O)C([H])(N([H])C(=O)C([H])(N([H])C([H])([H])[H])C([H])([H])[H])C(C([H])([H])[H])(C([H])([H])[H])C([H])([H])[H])C([H])([H])c2c([H])c(OC([H])([H])C([H])([H])[N+]3([H])C([H])([H])C([H])(c4nnc(N5C([H])([H])C([H])([H])N(C(=O)N6C([H])([H])C([H])([H])C([H])([H])C([H])(n7nc(-c8c([H])c([H])c(Oc9c([H])c([H])c(F)c([H])c9F)c([H])c8[H])c(C(=O)N([H])[H])c7N([H])[H])C6([H])[H])C([H])([H])C5([H])[H])n4C([H])([H])[H])C3([H])[H])c([H])c([H])c2C1([H])[H]

$$$$
80:0:0
     RDKit          3D

 96106  0  0  1  0  0  0  0  0999 V2000
  -29.8890  -21.2600   21.7770 C   0  0  0  0  0  3  0  0  0  0  0  0
  -30.8460  -22.0440   21.1170 C   0  0  0  0  0  0  0  0  0  0  0  0
  -31.7750  -21.3740   20.3470 C   0  0  0  0  0  0  0  0  0  0  0  0
  -30.7830  -19.3790   20.7680 C   0  0  0  0  0  0  0  0  0  0  0  0
  -32.8290  -22.2880   19.7990 C   0  0  0  0  0  2  0  0  0  0  0  0
  -32.2650  -23.6940   20.1110 C   0  0  0  0  0  2  0  0  0  0  0  0
  -31.1400  -23.5370   21.1810 C   0  0  0  0  0  3  0  0  0  0  0  0
  -29.8630  -19.9190   21.5810 N   0  0  0  0  0  0  0  0  0  0  0  0
  -31.7540  -20.0480   20.1470 N   0  0  0  0  0  0  0  0  0  0  0  0
  -30.6490  -14.5560   20.3750 C   0  0  0  0  0  0  0  0  0  0  0  0
  -30.3200  -12.3770   19.2620 C   0  0  0  0  0  2  0  0  0  0  0  0
  -29.3550  -12.5410   18.0700 C   0  0  0  0  0  2  0  0  0  0  0  0
  -27.8920  -12.3650   18.5300 C   0  0  0  0  0  2  0  0  0  0  0  0
  -27.5560  -13.2230   19.7730 C   0  0  0  0  0  3  0  0  0  0  0  0
  -28.6410  -13.0950   20.8700 C   0  0  0  0  0  2  0  0  0  0  0  0
  -29.9540  -13.3870   20.2670 N   0  0  0  0  0  0  0  0  0  0  0  0
  -31.8130  -14.6770   19.9830 O   0  0  0  0  0  0  0  0  0  0  0  0
  -29.3530  -17.6690   19.5220 C   0  0  0  0  0  2  0  0  0  0  0  0
  -28.9830  -16.2170   19.8190 C   0  0  0  0  0  2  0  0  0  0  0  0
  -30.5830  -16.8190   21.4220 C   0  0  0  0  0  2  0  0  0  0  0  0
  -30.6020  -17.9170   20.3460 C   0  0  0  0  0  3  0  0  0  0  0  0
  -29.9470  -15.6500   20.7760 N   0  0  0  0  0  0  0  0  0  0  0  0
  -25.1910  -13.8530   20.5570 C   0  0  0  0  0  0  0  0  0  0  0  0
  -24.1290  -13.0840   20.9440 C   0  0  0  0  0  0  0  0  0  0  0  0
  -24.5830  -11.7320   20.8860 C   0  0  0  0  0  0  0  0  0  0  0  0
  -26.2220  -12.9620   20.2890 N   0  0  0  0  0  0  0  0  0  0  0  0
  -25.8630  -11.6830   20.5460 N   0  0  0  0  0  0  0  0  0  0  0  0
  -23.8580  -10.4710   21.0730 C   0  0  0  0  0  0  0  0  0  0  0  0
  -24.3040   -9.4960   21.9900 C   0  0  0  0  0  3  0  0  0  0  0  0
  -23.5800   -8.2970   22.1640 C   0  0  0  0  0  3  0  0  0  0  0  0
  -22.3980   -8.0690   21.4210 C   0  0  0  0  0  0  0  0  0  0  0  0
  -21.9710   -9.0340   20.4930 C   0  0  0  0  0  3  0  0  0  0  0  0
  -22.6950  -10.2250   20.3160 C   0  0  0  0  0  3  0  0  0  0  0  0
  -21.6420   -6.9250   21.5090 O   0  0  0  0  0  0  0  0  0  0  0  0
  -21.6020   -6.1790   22.6590 C   0  0  0  0  0  0  0  0  0  0  0  0
  -21.1640   -6.7230   23.8860 C   0  0  0  0  0  3  0  0  0  0  0  0
  -21.0720   -5.8990   25.0260 C   0  0  0  0  0  3  0  0  0  0  0  0
  -21.4070   -4.5340   24.9390 C   0  0  0  0  0  0  0  0  0  0  0  0
  -21.8390   -3.9930   23.7160 C   0  0  0  0  0  3  0  0  0  0  0  0
  -21.9340   -4.8120   22.5790 C   0  0  0  0  0  0  0  0  0  0  0  0
  -22.3300   -4.2800   21.3970 F   0  0  0  0  0  0  0  0  0  0  0  0
  -21.3100   -3.7410   26.0320 F   0  0  0  0  0  0  0  0  0  0  0  0
  -22.7410  -13.5660   21.2540 C   0  0  0  0  0  0  0  0  0  0  0  0
  -22.0270  -12.8590   22.1210 N   0  0  0  0  0  0  0  0  0  0  0  0
  -22.2980  -14.6030   20.7620 O   0  0  0  0  0  0  0  0  0  0  0  0
  -22.3970  -12.0170   22.5380 H   0  0  0  0  0  0  0  0  0  0  0  0
  -21.0990  -13.1630   22.3750 H   0  0  0  0  0  0  0  0  0  0  0  0
  -25.3580  -15.2250   20.3880 N   0  0  0  0  0  0  0  0  0  0  0  0
  -24.6000  -15.8820   20.5330 H   0  0  0  0  0  0  0  0  0  0  0  0
  -26.1980  -15.6640   20.0380 H   0  0  0  0  0  0  0  0  0  0  0  0
  -29.9860  -24.4530   20.9420 N   0  0  0  0  0  4  0  0  0  0  0  0
  -29.3430  -24.3700   21.7150 H   0  0  0  0  0  0  0  0  0  0  0  0
  -29.4870  -24.1880   20.1070 H   0  0  0  0  0  0  0  0  0  0  0  0
  -30.3630  -25.8880   20.8190 C   0  0  0  0  0  2  0  0  0  0  0  0
  -29.1910  -26.8600   21.0490 C   0  0  0  0  0  2  0  0  0  0  0  0
  -28.2040  -26.7020   20.0330 O   0  0  0  0  0  0  0  0  0  0  0  0
  -24.5070  -31.9370   23.2340 C   0  0  0  0  0  0  0  0  0  0  0  0
  -27.0750  -27.4910   20.1130 C   0  0  0  0  0  0  0  0  0  0  0  0
  -23.2560  -30.5440   21.6130 C   0  0  0  0  0  3  0  0  0  0  0  0
  -24.6730  -28.9900   20.1670 C   0  0  0  0  0  0  0  0  0  0  0  0
  -25.7760  -30.8870   21.3670 C   0  0  0  0  0  2  0  0  0  0  0  0
  -25.8400  -29.5120   20.7390 C   0  0  0  0  0  0  0  0  0  0  0  0
  -27.0390  -28.7700   20.7210 C   0  0  0  0  0  3  0  0  0  0  0  0
  -25.8950  -26.9840   19.5300 C   0  0  0  0  0  3  0  0  0  0  0  0
  -24.6930  -27.7200   19.5630 C   0  0  0  0  0  3  0  0  0  0  0  0
  -23.4350  -29.8560   20.2320 C   0  0  0  0  0  2  0  0  0  0  0  0
  -24.5320  -31.1370   22.1310 N   0  0  0  0  0  0  0  0  0  0  0  0
  -23.4410  -32.2190   23.7960 O   0  0  0  0  0  0  0  0  0  0  0  0
  -22.6140  -29.5310   22.5880 C   0  0  0  0  0  0  0  0  0  0  0  0
  -21.2890  -29.3510   22.4750 N   0  0  0  0  0  0  0  0  0  0  0  0
  -23.3060  -28.9090   23.3980 O   0  0  0  0  0  0  0  0  0  0  0  0
  -20.7920  -29.9050   21.7910 H   0  0  0  0  0  0  0  0  0  0  0  0
  -17.9190  -28.1590   22.9960 C   0  0  0  0  0  0  0  0  0  0  0  0
  -20.4770  -28.4200   23.2590 C   0  0  0  0  0  3  0  0  0  0  0  0
  -20.5780  -26.9840   22.6950 C   0  0  0  0  0  2  0  0  0  0  0  0
  -19.4740  -26.6520   21.6870 C   0  0  0  0  0  2  0  0  0  0  0  0
  -18.0950  -26.8030   22.3350 C   0  0  0  0  0  2  0  0  0  0  0  0
  -19.0390  -28.9250   23.4150 C   0  0  0  0  0  0  0  0  0  0  0  0
  -18.8220  -30.1950   23.9910 C   0  0  0  0  0  3  0  0  0  0  0  0
  -17.5190  -30.7000   24.1550 C   0  0  0  0  0  3  0  0  0  0  0  0
  -16.4130  -29.9300   23.7550 C   0  0  0  0  0  3  0  0  0  0  0  0
  -16.6130  -28.6630   23.1800 C   0  0  0  0  0  3  0  0  0  0  0  0
  -25.8130  -32.5520   23.8290 C   0  0  0  0  0  3  0  0  0  0  0  0
  -26.3520  -31.7720   25.0910 C   0  0  1  0  0  0  0  0  0  0  0  0
  -25.2820  -31.5400   26.1820 C   0  0  0  0  0  1  0  0  0  0  0  0
  -26.9130  -30.3910   24.6780 C   0  0  0  0  0  1  0  0  0  0  0  0
  -27.5260  -32.5520   25.7290 C   0  0  0  0  0  1  0  0  0  0  0  0
  -25.5300  -33.9540   24.1660 N   0  0  0  0  0  0  0  0  0  0  0  0
  -25.8700  -35.0010   23.4020 C   0  0  0  0  0  0  0  0  0  0  0  0
  -26.5280  -34.8890   22.3640 O   0  0  0  0  0  0  0  0  0  0  0  0
  -24.9470  -34.1170   24.9730 H   0  0  0  0  0  0  0  0  0  0  0  0
  -24.1740  -36.8230   23.0470 C   0  0  0  0  0  1  0  0  0  0  0  0
  -25.4040  -36.3950   23.8640 C   0  0  0  0  0  3  0  0  0  0  0  0
  -27.5510  -37.2350   24.7080 C   0  0  0  0  0  1  0  0  0  0  0  0
  -26.4540  -37.4310   23.7640 N   0  0  0  0  0  0  0  0  0  0  0  0
  -26.0640  -38.3560   23.9220 H   0  0  0  0  0  0  0  0  0  0  0  0
  2  7  1  0
  2  1  2  0
  3  2  1  0
  4  8  2  0
  5  6  1  0
  5  3  1  0
  6  7  1  0
  7 51  1  0
  8  1  1  0
  9  3  2  0
  9  4  1  0
 10 22  1  0
 11 16  1  0
 12 13  1  0
 12 11  1  0
 14 13  1  0
 14 26  1  0
 14 15  1  0
 16 10  1  0
 16 15  1  0
 17 10  2  0
 18 19  1  0
 18 21  1  0
 19 22  1  0
 21  4  1  0
 21 20  1  0
 22 20  1  0
 23 24  2  0
 24 43  1  0
 25 24  1  0
 25 28  1  0
 26 27  1  0
 26 23  1  0
 27 25  2  0
 28 29  1  0
 29 30  2  0
 31 34  1  0
 31 30  1  0
 32 31  2  0
 33 32  1  0
 33 28  2  0
 34 35  1  0
 35 36  1  0
 36 37  2  0
 38 37  1  0
 38 42  1  0
 39 38  2  0
 40 35  2  0
 40 39  1  0
 41 40  1  0
 43 44  1  0
 44 47  1  0
 44 46  1  0
 45 43  2  0
 48 49  1  0
 48 23  1  0
 50 48  1  0
 51 52  1  0
 53 51  1  0
 54 51  1  0
 54 55  1  0
 56 58  1  0
 56 55  1  0
 57 68  2  0
 58 63  1  0
 59 67  1  0
 59 69  1  0
 60 66  1  0
 60 62  1  0
 61 67  1  0
 62 61  1  0
 63 62  2  0
 64 65  1  0
 64 58  2  0
 65 60  2  0
 66 59  1  0
 67 57  1  0
 69 71  2  0
 70 69  1  0
 72 70  1  0
 73 82  2  0
 73 78  1  0
 74 70  1  0
 74 78  1  0
 75 74  1  0
 76 77  1  0
 76 75  1  0
 77 73  1  0
 78 79  2  0
 79 80  1  0
 81 80  2  0
 82 81  1  0
 83 57  1  0
 83 88  1  0
 83 84  1  0
 84 87  1  1
 84 85  1  0
 86 84  1  0
 88 91  1  0
 89 93  1  0
 89 88  1  0
 90 89  2  0
 93 92  1  0
 95 93  1  0
 95 96  1  0
 95 94  1  0
M  ISO  4  10 100  22 100  55 101  56 101
M  END
>  <TORSDO>  (81) 
F 19

>  <SCORE>  (81) 
-14.362

>  <name>  (81) 
80

>  <ligand_id>  (81) 
80

>  <original_smiles>  (81) 
[H]c1nc(C2([H])C([H])([H])N(C(=O)N3C([H])([H])C([H])([H])C([H])([H])C([H])(n4nc(-c5c([H])c([H])c(Oc6c([H])c([H])c(F)c([H])c6F)c([H])c5[H])c(C(=O)N([H])[H])c4N([H])[H])C3([H])[H])C([H])([H])C2([H])[H])nc2c1C([H])([N+]([H])([H])C([H])([H])C([H])([H])Oc1c([H])c([H])c3c(c1[H])C([H])([H])N(C(=O)C([H])(N([H])C(=O)C([H])(N([H])C([H])([H])[H])C([H])([H])[H])C(C([H])([H])[H])(C([H])([H])[H])C([H])([H])[H])C([H])(C(=O)N([H])C1([H])c4c([H])c([H])c([H])c([H])c4C([H])([H])C([H])([H])C1([H])[H])C3([H])[H])C([H])([H])C2([H])[H]

>  <smiles>  (81) 
[H]c1nc(C2([H])C([H])([H])N(C(=O)N3C([H])([H])C([H])([H])C([H])([H])C([H])(n4nc(-c5c([H])c([H])c(Oc6c([H])c([H])c(F)c([H])c6F)c([H])c5[H])c(C(=O)N([H])[H])c4N([H])[H])C3([H])[H])C([H])([H])C2([H])[H])nc2c1C([H])([N+]([H])([H])C([H])([H])C([H])([H])Oc1c([H])c([H])c3c(c1[H])C([H])([H])N(C(=O)C([H])(N([H])C(=O)C([H])(N([H])C([H])([H])[H])C([H])([H])[H])C(C([H])([H])[H])(C([H])([H])[H])C([H])([H])[H])C([H])(C(=O)N([H])C1([H])c4c([H])c([H])c([H])c([H])c4C([H])([H])C([H])([H])C1([H])[H])C3([H])[H])C([H])([H])C2([H])[H]

$$$$
81:0:0
     RDKit          3D

 99108  0  0  1  0  0  0  0  0999 V2000
  -30.5990  -20.2760   22.4670 C   0  0  0  0  0  0  0  0  0  0  0  0
  -31.4310  -20.6530   23.4580 C   0  0  0  0  0  3  0  0  0  0  0  0
  -29.0940  -20.1130   22.3630 C   0  0  0  0  0  2  0  0  0  0  0  0
  -30.8030  -20.3060   20.9620 C   0  0  0  0  0  3  0  0  0  0  0  0
  -29.3340  -20.8310   21.0090 C   0  0  0  0  0  3  0  0  0  0  0  0
  -32.4890  -17.1390   19.6880 C   0  0  0  0  0  2  0  0  0  0  0  0
  -32.4270  -18.6670   19.9430 C   0  0  0  0  0  2  0  0  0  0  0  0
  -30.4260  -17.7290   20.7430 C   0  0  0  0  0  2  0  0  0  0  0  0
  -31.0300  -16.6780   19.7860 C   0  0  0  0  0  3  0  0  0  0  0  0
  -31.0160  -18.9950   20.2530 N   0  0  1  0  0  4  0  0  0  0  0  0
  -30.6100  -19.1220   19.3400 H   0  0  0  0  0  0  0  0  0  0  0  0
  -31.3830  -14.2200   19.5010 C   0  0  0  0  0  0  0  0  0  0  0  0
  -30.9910  -11.9170   18.6860 C   0  0  0  0  0  2  0  0  0  0  0  0
  -29.9480  -11.9420   17.5460 C   0  0  0  0  0  2  0  0  0  0  0  0
  -28.5110  -11.9070   18.1060 C   0  0  0  0  0  2  0  0  0  0  0  0
  -28.2890  -12.9280   19.2540 C   0  0  0  0  0  3  0  0  0  0  0  0
  -29.4290  -12.8450   20.2940 C   0  0  0  0  0  2  0  0  0  0  0  0
  -30.7090  -13.0400   19.5940 N   0  0  0  0  0  0  0  0  0  0  0  0
  -32.3740  -14.3630   18.7830 O   0  0  0  0  0  0  0  0  0  0  0  0
  -30.8220  -15.2620   20.1490 N   0  0  0  0  0  0  0  0  0  0  0  0
  -30.0740  -15.0360   20.7890 H   0  0  0  0  0  0  0  0  0  0  0  0
  -26.0510  -13.7190   20.2500 C   0  0  0  0  0  0  0  0  0  0  0  0
  -24.9710  -13.0270   20.7300 C   0  0  0  0  0  0  0  0  0  0  0  0
  -25.3060  -11.6430   20.6180 C   0  0  0  0  0  0  0  0  0  0  0  0
  -26.9800  -12.7570   19.8820 N   0  0  0  0  0  0  0  0  0  0  0  0
  -26.5400  -11.5020   20.1530 N   0  0  0  0  0  0  0  0  0  0  0  0
  -24.5020  -10.4370   20.8720 C   0  0  0  0  0  0  0  0  0  0  0  0
  -24.7590   -9.5980   21.9770 C   0  0  0  0  0  3  0  0  0  0  0  0
  -23.9600   -8.4560   22.2080 C   0  0  0  0  0  3  0  0  0  0  0  0
  -22.8890   -8.1510   21.3360 C   0  0  0  0  0  0  0  0  0  0  0  0
  -22.6550   -8.9780   20.2250 C   0  0  0  0  0  3  0  0  0  0  0  0
  -23.4530  -10.1100   19.9900 C   0  0  0  0  0  3  0  0  0  0  0  0
  -22.0750   -7.0540   21.4690 O   0  0  0  0  0  0  0  0  0  0  0  0
  -21.5680   -6.6750   22.6880 C   0  0  0  0  0  0  0  0  0  0  0  0
  -20.7130   -7.5180   23.4320 C   0  0  0  0  0  3  0  0  0  0  0  0
  -20.1560   -7.0610   24.6450 C   0  0  0  0  0  3  0  0  0  0  0  0
  -20.4480   -5.7640   25.1090 C   0  0  0  0  0  0  0  0  0  0  0  0
  -21.2970   -4.9250   24.3680 C   0  0  0  0  0  3  0  0  0  0  0  0
  -21.8520   -5.3780   23.1600 C   0  0  0  0  0  0  0  0  0  0  0  0
  -22.6520   -4.5560   22.4360 F   0  0  0  0  0  0  0  0  0  0  0  0
  -19.9090   -5.3230   26.2700 F   0  0  0  0  0  0  0  0  0  0  0  0
  -23.6630  -13.6110   21.1830 C   0  0  0  0  0  0  0  0  0  0  0  0
  -23.0040  -12.9690   22.1410 N   0  0  0  0  0  0  0  0  0  0  0  0
  -23.2400  -14.6670   20.7150 O   0  0  0  0  0  0  0  0  0  0  0  0
  -23.3650  -12.1150   22.5400 H   0  0  0  0  0  0  0  0  0  0  0  0
  -22.1280  -13.3380   22.4840 H   0  0  0  0  0  0  0  0  0  0  0  0
  -26.3180  -15.0750   20.0890 N   0  0  0  0  0  0  0  0  0  0  0  0
  -25.6330  -15.7910   20.2970 H   0  0  0  0  0  0  0  0  0  0  0  0
  -27.1720  -15.4480   19.6920 H   0  0  0  0  0  0  0  0  0  0  0  0
  -30.1470  -19.8730   25.5920 C   0  0  0  0  0  1  0  0  0  0  0  0
  -31.1430  -20.8460   24.9440 C   0  0  0  0  0  2  0  0  0  0  0  0
  -28.3440  -20.7010   19.8360 C   0  0  0  0  0  2  0  0  0  0  0  0
  -28.1240  -22.0380   19.0880 C   0  0  0  0  0  2  0  0  0  0  0  0
  -29.3790  -22.5400   18.4770 N   0  0  0  0  0  4  0  0  0  0  0  0
  -29.5160  -22.0510   17.6040 H   0  0  0  0  0  0  0  0  0  0  0  0
  -30.1640  -22.3070   19.0700 H   0  0  0  0  0  0  0  0  0  0  0  0
  -29.4110  -23.9930   18.1840 C   0  0  0  0  0  2  0  0  0  0  0  0
  -30.0050  -24.8150   19.3440 C   0  0  0  0  0  2  0  0  0  0  0  0
  -29.9350  -26.2130   19.0690 O   0  0  0  0  0  0  0  0  0  0  0  0
  -26.3670  -29.5980   24.1810 C   0  0  0  0  0  0  0  0  0  0  0  0
  -28.7720  -26.8640   19.4070 C   0  0  0  0  0  0  0  0  0  0  0  0
  -25.0810  -29.1010   22.1260 C   0  0  0  0  0  3  0  0  0  0  0  0
  -26.4470  -28.3020   20.1300 C   0  0  0  0  0  0  0  0  0  0  0  0
  -27.6150  -29.4300   22.0300 C   0  0  0  0  0  2  0  0  0  0  0  0
  -27.6340  -28.4770   20.8540 C   0  0  0  0  0  0  0  0  0  0  0  0
  -28.8000  -27.7750   20.4840 C   0  0  0  0  0  3  0  0  0  0  0  0
  -27.5690  -26.6840   18.6910 C   0  0  0  0  0  3  0  0  0  0  0  0
  -26.4120  -27.4090   19.0440 C   0  0  0  0  0  3  0  0  0  0  0  0
  -25.2490  -29.1070   20.5820 C   0  0  0  0  0  2  0  0  0  0  0  0
  -26.3740  -29.3570   22.8390 N   0  0  0  0  0  0  0  0  0  0  0  0
  -25.3050  -29.6490   24.8150 O   0  0  0  0  0  0  0  0  0  0  0  0
  -24.3950  -27.7810   22.5500 C   0  0  0  0  0  0  0  0  0  0  0  0
  -23.2160  -27.5130   21.9770 N   0  0  0  0  0  0  0  0  0  0  0  0
  -24.9380  -27.0210   23.3590 O   0  0  0  0  0  0  0  0  0  0  0  0
  -22.8270  -28.2080   21.3580 H   0  0  0  0  0  0  0  0  0  0  0  0
  -20.4040  -25.6420   20.6790 C   0  0  0  0  0  0  0  0  0  0  0  0
  -22.4080  -26.3040   22.1680 C   0  0  0  0  0  3  0  0  0  0  0  0
  -23.1160  -25.0420   21.6100 C   0  0  0  0  0  2  0  0  0  0  0  0
  -22.7090  -24.7040   20.1730 C   0  0  0  0  0  2  0  0  0  0  0  0
  -21.1950  -24.4900   20.0790 C   0  0  0  0  0  2  0  0  0  0  0  0
  -20.9830  -26.5070   21.6460 C   0  0  0  0  0  0  0  0  0  0  0  0
  -20.2300  -27.5990   22.1330 C   0  0  0  0  0  3  0  0  0  0  0  0
  -18.9230  -27.8360   21.6720 C   0  0  0  0  0  3  0  0  0  0  0  0
  -18.3380  -26.9610   20.7460 C   0  0  0  0  0  3  0  0  0  0  0  0
  -19.0730  -25.8670   20.2530 C   0  0  0  0  0  3  0  0  0  0  0  0
  -27.6870  -29.8400   24.9760 C   0  0  0  0  0  3  0  0  0  0  0  0
  -27.5240  -31.0840   25.7400 N   0  0  0  0  0  0  0  0  0  0  0  0
  -28.0310  -32.2670   25.3800 C   0  0  0  0  0  0  0  0  0  0  0  0
  -28.7580  -32.4150   24.3910 O   0  0  0  0  0  0  0  0  0  0  0  0
  -26.8940  -31.0540   26.5280 H   0  0  0  0  0  0  0  0  0  0  0  0
  -26.5540  -34.2880   25.5860 C   0  0  0  0  0  1  0  0  0  0  0  0
  -27.6760  -33.4840   26.2560 C   0  0  0  0  0  3  0  0  0  0  0  0
  -29.8230  -33.7630   27.4140 C   0  0  0  0  0  1  0  0  0  0  0  0
  -28.8280  -34.3660   26.5310 N   0  0  0  0  0  0  0  0  0  0  0  0
  -28.5190  -35.2380   26.9500 H   0  0  0  0  0  0  0  0  0  0  0  0
  -28.0650  -28.6430   25.9330 C   0  0  1  0  0  0  0  0  0  0  0  0
  -26.8750  -28.1490   26.7870 C   0  0  0  0  0  1  0  0  0  0  0  0
  -28.6010  -27.4450   25.1160 C   0  0  0  0  0  1  0  0  0  0  0  0
  -29.2070  -29.0640   26.8890 C   0  0  0  0  0  1  0  0  0  0  0  0
  1  2  2  0
  2 51  1  0
  3  1  1  0
  4  5  1  0
  4  1  1  0
  5 52  1  0
  5  3  1  0
  6  9  1  0
  6  7  1  0
  7 10  1  0
  9 20  1  0
  9  8  1  0
 10 11  1  6
 10  8  1  0
 10  4  1  0
 12 18  1  0
 12 20  1  0
 13 18  1  0
 14 15  1  0
 14 13  1  0
 16 15  1  0
 16 25  1  0
 16 17  1  0
 18 17  1  0
 19 12  2  0
 20 21  1  0
 22 23  2  0
 23 42  1  0
 24 23  1  0
 24 27  1  0
 25 26  1  0
 25 22  1  0
 26 24  2  0
 27 28  1  0
 28 29  2  0
 30 33  1  0
 30 29  1  0
 31 30  2  0
 32 31  1  0
 32 27  2  0
 33 34  1  0
 34 39  2  0
 34 35  1  0
 35 36  2  0
 36 37  1  0
 37 41  1  0
 38 37  2  0
 39 38  1  0
 40 39  1  0
 42 43  1  0
 43 46  1  0
 43 45  1  0
 44 42  2  0
 47 22  1  0
 47 48  1  0
 49 47  1  0
 51 50  1  0
 53 52  1  0
 54 56  1  0
 54 53  1  0
 55 54  1  0
 57 54  1  0
 57 58  1  0
 59 58  1  0
 59 61  1  0
 60 71  2  0
 61 66  1  0
 62 72  1  0
 62 70  1  0
 63 69  1  0
 63 65  1  0
 64 70  1  0
 65 64  1  0
 66 65  2  0
 67 68  1  0
 67 61  2  0
 68 63  2  0
 69 62  1  0
 70 60  1  0
 72 74  2  0
 73 72  1  0
 75 73  1  0
 76 81  1  0
 77 73  1  0
 78 77  1  0
 79 78  1  0
 80 79  1  0
 80 76  1  0
 81 82  2  0
 81 77  1  0
 83 82  1  0
 84 83  2  0
 85 76  2  0
 85 84  1  0
 86 60  1  0
 86 87  1  0
 86 96  1  0
 87 90  1  0
 88 87  1  0
 88 92  1  0
 89 88  2  0
 92 91  1  0
 92 94  1  0
 94 95  1  0
 94 93  1  0
 96 97  1  1
 96 99  1  0
 98 96  1  0
M  ISO  4  12 100  20 100  58 101  59 101
M  END
>  <TORSDO>  (82) 
F 23

>  <SCORE>  (82) 
-5.395

>  <name>  (82) 
81

>  <ligand_id>  (82) 
81

>  <original_smiles>  (82) 
[H]C(=C1C([H])([H])C([H])(C([H])([H])C([H])([H])[N+]([H])([H])C([H])([H])C([H])([H])Oc2c([H])c([H])c3c(c2[H])C([H])([H])N(C(=O)C([H])(N([H])C(=O)C([H])(N([H])C([H])([H])[H])C([H])([H])[H])C(C([H])([H])[H])(C([H])([H])[H])C([H])([H])[H])C([H])(C(=O)N([H])C2([H])c4c([H])c([H])c([H])c([H])c4C([H])([H])C([H])([H])C2([H])[H])C3([H])[H])C1([H])[N+]1([H])C([H])([H])C([H])([H])C([H])(N([H])C(=O)N2C([H])([H])C([H])([H])C([H])([H])C([H])(n3nc(-c4c([H])c([H])c(Oc5c([H])c([H])c(F)c([H])c5F)c([H])c4[H])c(C(=O)N([H])[H])c3N([H])[H])C2([H])[H])C1([H])[H])C([H])([H])C([H])([H])[H]

>  <smiles>  (82) 
[H]C(=C1C([H])([H])C([H])(C([H])([H])C([H])([H])[N+]([H])([H])C([H])([H])C([H])([H])Oc2c([H])c([H])c3c(c2[H])C([H])([H])N(C(=O)C([H])(N([H])C(=O)C([H])(N([H])C([H])([H])[H])C([H])([H])[H])C(C([H])([H])[H])(C([H])([H])[H])C([H])([H])[H])C([H])(C(=O)N([H])C2([H])c4c([H])c([H])c([H])c([H])c4C([H])([H])C([H])([H])C2([H])[H])C3([H])[H])C1([H])[N+]1([H])C([H])([H])C([H])([H])C([H])(N([H])C(=O)N2C([H])([H])C([H])([H])C([H])([H])C([H])(n3nc(-c4c([H])c([H])c(Oc5c([H])c([H])c(F)c([H])c5F)c([H])c4[H])c(C(=O)N([H])[H])c3N([H])[H])C2([H])[H])C1([H])[H])C([H])([H])C([H])([H])[H]

$$$$
82:0:0
     RDKit          3D

 95105  0  0  1  0  0  0  0  0999 V2000
  -29.1870  -24.1980   20.2290 C   0  0  0  0  0  0  0  0  0  0  0  0
  -28.8340  -22.9180   19.8200 C   0  0  0  0  0  0  0  0  0  0  0  0
  -31.0120  -23.0470   19.8680 C   0  0  0  0  0  0  0  0  0  0  0  0
  -27.4740  -22.3040   19.6580 C   0  0  0  0  0  1  0  0  0  0  0  0
  -30.5820  -24.2500   20.2680 N   0  0  0  0  0  0  0  0  0  0  0  0
  -30.0130  -22.1860   19.5820 N   0  0  0  0  0  0  0  0  0  0  0  0
  -33.6060  -23.6280   19.9580 C   0  0  0  0  0  2  0  0  0  0  0  0
  -33.2500  -23.2210   18.5430 C   0  0  0  0  0  2  0  0  0  0  0  0
  -32.4610  -22.6700   19.7080 C   0  0  0  0  0  3  0  0  0  0  0  0
  -28.2980  -25.3430   20.7410 C   0  0  0  0  0  2  0  0  0  0  0  0
  -28.4870  -26.6740   20.1860 O   0  0  0  0  0  0  0  0  0  0  0  0
  -24.6220  -31.9130   23.2440 C   0  0  0  0  0  0  0  0  0  0  0  0
  -27.3410  -27.4610   20.1770 C   0  0  0  0  0  0  0  0  0  0  0  0
  -23.4500  -30.5040   21.5850 C   0  0  0  0  0  3  0  0  0  0  0  0
  -24.9390  -28.9810   20.1670 C   0  0  0  0  0  0  0  0  0  0  0  0
  -25.9820  -30.8710   21.4240 C   0  0  0  0  0  2  0  0  0  0  0  0
  -26.0910  -29.4990   20.7720 C   0  0  0  0  0  0  0  0  0  0  0  0
  -27.2990  -28.7540   20.7630 C   0  0  0  0  0  3  0  0  0  0  0  0
  -26.1680  -26.9700   19.5610 C   0  0  0  0  0  3  0  0  0  0  0  0
  -24.9750  -27.7160   19.5580 C   0  0  0  0  0  3  0  0  0  0  0  0
  -23.6840  -29.8310   20.2030 C   0  0  0  0  0  2  0  0  0  0  0  0
  -24.7030  -31.1120   22.1420 N   0  0  0  0  0  0  0  0  0  0  0  0
  -23.5310  -32.1780   23.7660 O   0  0  0  0  0  0  0  0  0  0  0  0
  -22.7940  -29.4750   22.5350 C   0  0  0  0  0  0  0  0  0  0  0  0
  -21.4690  -29.2920   22.4000 N   0  0  0  0  0  0  0  0  0  0  0  0
  -23.4770  -28.8460   23.3480 O   0  0  0  0  0  0  0  0  0  0  0  0
  -20.9830  -29.8520   21.7130 H   0  0  0  0  0  0  0  0  0  0  0  0
  -18.0980  -28.0820   22.8750 C   0  0  0  0  0  0  0  0  0  0  0  0
  -20.6520  -28.3460   23.1600 C   0  0  0  0  0  3  0  0  0  0  0  0
  -20.7630  -26.9210   22.5720 C   0  0  0  0  0  2  0  0  0  0  0  0
  -19.6690  -26.6040   21.5500 C   0  0  0  0  0  2  0  0  0  0  0  0
  -18.2840  -26.7380   22.1900 C   0  0  0  0  0  2  0  0  0  0  0  0
  -19.2110  -28.8460   23.3170 C   0  0  0  0  0  0  0  0  0  0  0  0
  -18.9850  -30.1030   23.9160 C   0  0  0  0  0  3  0  0  0  0  0  0
  -17.6780  -30.5970   24.0830 C   0  0  0  0  0  3  0  0  0  0  0  0
  -16.5790  -29.8310   23.6610 C   0  0  0  0  0  3  0  0  0  0  0  0
  -16.7890  -28.5760   23.0610 C   0  0  0  0  0  3  0  0  0  0  0  0
  -25.8940  -32.5530   23.8790 C   0  0  0  0  0  3  0  0  0  0  0  0
  -26.3980  -31.7970   25.1690 C   0  0  1  0  0  0  0  0  0  0  0  0
  -25.2910  -31.5580   26.2190 C   0  0  0  0  0  1  0  0  0  0  0  0
  -27.0000  -30.4220   24.7990 C   0  0  0  0  0  1  0  0  0  0  0  0
  -27.5270  -32.6110   25.8480 C   0  0  0  0  0  1  0  0  0  0  0  0
  -25.5700  -33.9530   24.1930 N   0  0  0  0  0  0  0  0  0  0  0  0
  -25.9060  -35.0020   23.4340 C   0  0  0  0  0  0  0  0  0  0  0  0
  -26.5940  -34.9000   22.4140 O   0  0  0  0  0  0  0  0  0  0  0  0
  -24.9560  -34.1110   24.9780 H   0  0  0  0  0  0  0  0  0  0  0  0
  -24.1770  -36.7900   23.0390 C   0  0  0  0  0  1  0  0  0  0  0  0
  -25.4010  -36.3900   23.8770 C   0  0  0  0  0  3  0  0  0  0  0  0
  -27.5080  -37.2930   24.7590 C   0  0  0  0  0  1  0  0  0  0  0  0
  -26.4300  -37.4490   23.7850 N   0  0  0  0  0  0  0  0  0  0  0  0
  -26.0110  -38.3660   23.9200 H   0  0  0  0  0  0  0  0  0  0  0  0
  -30.1130  -20.7970   19.0690 C   0  0  0  0  0  2  0  0  0  0  0  0
  -30.5310  -19.6980   20.1010 C   0  0  0  0  0  2  0  0  0  0  0  0
  -30.8730  -14.6590   20.0090 C   0  0  0  0  0  0  0  0  0  0  0  0
  -30.5130  -12.4440   18.9950 C   0  0  0  0  0  2  0  0  0  0  0  0
  -29.5110  -12.5830   17.8290 C   0  0  0  0  0  2  0  0  0  0  0  0
  -28.0650  -12.4320   18.3430 C   0  0  0  0  0  2  0  0  0  0  0  0
  -27.7690  -13.3030   19.5950 C   0  0  0  0  0  3  0  0  0  0  0  0
  -28.8960  -13.2070   20.6500 C   0  0  0  0  0  2  0  0  0  0  0  0
  -30.1740  -13.4830   19.9770 N   0  0  0  0  0  0  0  0  0  0  0  0
  -32.0720  -14.7200   19.7330 O   0  0  0  0  0  0  0  0  0  0  0  0
  -30.0160  -17.7400   18.4710 C   0  0  0  0  0  2  0  0  0  0  0  0
  -29.7170  -16.2470   18.6220 C   0  0  0  0  0  2  0  0  0  0  0  0
  -29.9140  -18.2710   19.8860 C   0  0  0  0  0  3  0  0  0  0  0  0
  -30.5200  -17.0670   20.6780 C   0  0  0  0  0  3  0  0  0  0  0  0
  -30.1030  -17.0220   22.1600 C   0  0  0  0  0  1  0  0  0  0  0  0
  -30.1320  -15.8090   19.9710 N   0  0  0  0  0  0  0  0  0  0  0  0
  -25.4250  -13.8830   20.4800 C   0  0  0  0  0  0  0  0  0  0  0  0
  -24.3790  -13.1000   20.8830 C   0  0  0  0  0  0  0  0  0  0  0  0
  -24.8360  -11.7490   20.7850 C   0  0  0  0  0  0  0  0  0  0  0  0
  -26.4530  -13.0080   20.1570 N   0  0  0  0  0  0  0  0  0  0  0  0
  -26.1070  -11.7190   20.4050 N   0  0  0  0  0  0  0  0  0  0  0  0
  -24.1190  -10.4810   20.9740 C   0  0  0  0  0  0  0  0  0  0  0  0
  -24.5610   -9.5170   21.9060 C   0  0  0  0  0  3  0  0  0  0  0  0
  -23.8440   -8.3150   22.0870 C   0  0  0  0  0  3  0  0  0  0  0  0
  -22.6740   -8.0660   21.3330 C   0  0  0  0  0  0  0  0  0  0  0  0
  -22.2500   -9.0180   20.3910 C   0  0  0  0  0  3  0  0  0  0  0  0
  -22.9670  -10.2130   20.2080 C   0  0  0  0  0  3  0  0  0  0  0  0
  -21.9300   -6.9140   21.4220 O   0  0  0  0  0  0  0  0  0  0  0  0
  -21.8350   -6.2080   22.5940 C   0  0  0  0  0  0  0  0  0  0  0  0
  -21.3150   -6.7860   23.7720 C   0  0  0  0  0  3  0  0  0  0  0  0
  -21.1690   -6.0050   24.9350 C   0  0  0  0  0  3  0  0  0  0  0  0
  -21.5330   -4.6450   24.9220 C   0  0  0  0  0  0  0  0  0  0  0  0
  -22.0450   -4.0660   23.7470 C   0  0  0  0  0  3  0  0  0  0  0  0
  -22.1930   -4.8450   22.5870 C   0  0  0  0  0  0  0  0  0  0  0  0
  -22.6680   -4.2760   21.4530 F   0  0  0  0  0  0  0  0  0  0  0  0
  -21.3850   -3.8930   26.0360 F   0  0  0  0  0  0  0  0  0  0  0  0
  -22.9980  -13.5670   21.2480 C   0  0  0  0  0  0  0  0  0  0  0  0
  -22.3190  -12.8470   22.1320 N   0  0  0  0  0  0  0  0  0  0  0  0
  -22.5340  -14.6060   20.7820 O   0  0  0  0  0  0  0  0  0  0  0  0
  -22.7100  -12.0050   22.5310 H   0  0  0  0  0  0  0  0  0  0  0  0
  -21.3960  -13.1390   22.4180 H   0  0  0  0  0  0  0  0  0  0  0  0
  -25.5860  -15.2580   20.3380 N   0  0  0  0  0  0  0  0  0  0  0  0
  -24.8380  -15.9170   20.5250 H   0  0  0  0  0  0  0  0  0  0  0  0
  -26.4360  -15.7040   20.0180 H   0  0  0  0  0  0  0  0  0  0  0  0
  1  5  1  0
  1 10  1  0
  2  1  2  0
  3  5  2  0
  4  2  1  0
  6  2  1  0
  6  3  1  0
  8  9  1  0
  8  7  1  0
  9  3  1  0
  9  7  1  0
 11 10  1  0
 12 23  2  0
 13 11  1  0
 13 18  1  0
 14 22  1  0
 14 24  1  0
 15 21  1  0
 15 17  1  0
 16 22  1  0
 17 16  1  0
 18 17  2  0
 19 13  2  0
 20 19  1  0
 20 15  2  0
 21 14  1  0
 22 12  1  0
 24 26  2  0
 25 24  1  0
 27 25  1  0
 28 37  2  0
 28 33  1  0
 29 25  1  0
 29 33  1  0
 30 29  1  0
 31 32  1  0
 31 30  1  0
 32 28  1  0
 33 34  2  0
 34 35  1  0
 36 35  2  0
 37 36  1  0
 38 12  1  0
 38 43  1  0
 38 39  1  0
 39 42  1  1
 39 40  1  0
 41 39  1  0
 43 46  1  0
 44 48  1  0
 44 43  1  0
 45 44  2  0
 48 47  1  0
 50 48  1  0
 50 51  1  0
 50 49  1  0
 52  6  1  0
 52 53  1  0
 55 60  1  0
 56 57  1  0
 56 55  1  0
 58 57  1  0
 58 71  1  0
 58 59  1  0
 60 54  1  0
 60 59  1  0
 61 54  2  0
 62 63  1  0
 62 64  1  0
 63 67  1  0
 64 53  1  0
 64 65  1  0
 65 66  1  0
 67 54  1  0
 67 65  1  0
 68 69  2  0
 69 88  1  0
 70 69  1  0
 70 73  1  0
 71 72  1  0
 71 68  1  0
 72 70  2  0
 73 74  1  0
 74 75  2  0
 76 79  1  0
 76 75  1  0
 77 76  2  0
 78 77  1  0
 78 73  2  0
 79 80  1  0
 80 81  1  0
 81 82  2  0
 83 82  1  0
 83 87  1  0
 84 83  2  0
 85 80  2  0
 85 84  1  0
 86 85  1  0
 88 89  1  0
 89 92  1  0
 89 91  1  0
 90 88  2  0
 93 68  1  0
 93 94  1  0
 95 93  1  0
M  ISO  4  10 101  11 101  54 100  67 100
M  END
>  <TORSDO>  (83) 
F 20

>  <SCORE>  (83) 
-13.357

>  <name>  (83) 
82

>  <ligand_id>  (83) 
82

>  <original_smiles>  (83) 
[H]c1c([H])c([H])c2c(c1[H])C([H])([H])C([H])([H])C([H])([H])C2([H])N([H])C(=O)C1([H])N(C(=O)C([H])(N([H])C(=O)C([H])(N([H])C([H])([H])[H])C([H])([H])[H])C(C([H])([H])[H])(C([H])([H])[H])C([H])([H])[H])C([H])([H])c2c([H])c(OC([H])([H])c3nc(C4([H])C([H])([H])C4([H])[H])n(C([H])([H])C([H])([H])C4([H])C([H])([H])C([H])([H])N(C(=O)N5C([H])([H])C([H])([H])C([H])([H])C([H])(n6nc(-c7c([H])c([H])c(Oc8c([H])c([H])c(F)c([H])c8F)c([H])c7[H])c(C(=O)N([H])[H])c6N([H])[H])C5([H])[H])C4([H])C([H])([H])[H])c3C([H])([H])[H])c([H])c([H])c2C1([H])[H]

>  <smiles>  (83) 
[H]c1c([H])c([H])c2c(c1[H])C([H])([H])C([H])([H])C([H])([H])C2([H])N([H])C(=O)C1([H])N(C(=O)C([H])(N([H])C(=O)C([H])(N([H])C([H])([H])[H])C([H])([H])[H])C(C([H])([H])[H])(C([H])([H])[H])C([H])([H])[H])C([H])([H])c2c([H])c(OC([H])([H])c3nc(C4([H])C([H])([H])C4([H])[H])n(C([H])([H])C([H])([H])C4([H])C([H])([H])C([H])([H])N(C(=O)N5C([H])([H])C([H])([H])C([H])([H])C([H])(n6nc(-c7c([H])c([H])c(Oc8c([H])c([H])c(F)c([H])c8F)c([H])c7[H])c(C(=O)N([H])[H])c6N([H])[H])C5([H])[H])C4([H])C([H])([H])[H])c3C([H])([H])[H])c([H])c([H])c2C1([H])[H]

$$$$
83:0:0
     RDKit          3D

 90 99  0  0  1  0  0  0  0  0999 V2000
  -28.7430  -23.7120   19.3090 C   0  0  0  0  0  2  0  0  0  0  0  0
  -28.5880  -23.7360   21.3530 C   0  0  0  0  0  2  0  0  0  0  0  0
  -28.4760  -22.5310   20.3290 C   0  0  0  0  0  3  0  0  0  0  0  0
  -28.0180  -24.7350   20.2730 C   0  0  0  0  0  3  0  0  0  0  0  0
  -29.4320  -21.3070   20.4770 N   0  0  0  0  0  4  0  0  0  0  0  0
  -29.4600  -21.1060   21.4630 H   0  0  0  0  0  0  0  0  0  0  0  0
  -30.3680  -21.5760   20.2230 H   0  0  0  0  0  0  0  0  0  0  0  0
  -29.1190  -19.9390   19.8190 C   0  0  0  0  0  2  0  0  0  0  0  0
  -30.6710  -14.7600   19.9380 C   0  0  0  0  0  0  0  0  0  0  0  0
  -30.3670  -12.4760   18.9410 C   0  0  0  0  0  2  0  0  0  0  0  0
  -29.3580  -12.5420   17.7720 C   0  0  0  0  0  2  0  0  0  0  0  0
  -27.9160  -12.3880   18.2930 C   0  0  0  0  0  2  0  0  0  0  0  0
  -27.6300  -13.2860   19.5230 C   0  0  0  0  0  3  0  0  0  0  0  0
  -28.7530  -13.1970   20.5790 C   0  0  0  0  0  2  0  0  0  0  0  0
  -30.0090  -13.5450   19.9060 N   0  0  0  0  0  0  0  0  0  0  0  0
  -31.8070  -14.8280   19.4550 O   0  0  0  0  0  0  0  0  0  0  0  0
  -29.4660  -17.9480   21.6150 C   0  0  0  0  0  2  0  0  0  0  0  0
  -29.9610  -16.4680   21.6270 C   0  0  0  0  0  2  0  0  0  0  0  0
  -29.8460  -17.2090   19.4170 C   0  0  0  0  0  2  0  0  0  0  0  0
  -29.9040  -18.5630   20.2820 C   0  0  0  0  0  3  0  0  0  0  0  0
  -29.9680  -15.9380   20.2540 N   0  0  0  0  0  0  0  0  0  0  0  0
  -25.3200  -13.9190   20.4360 C   0  0  0  0  0  0  0  0  0  0  0  0
  -24.2600  -13.1650   20.8550 C   0  0  0  0  0  0  0  0  0  0  0  0
  -24.6790  -11.8030   20.7530 C   0  0  0  0  0  0  0  0  0  0  0  0
  -26.3170  -13.0200   20.1000 N   0  0  0  0  0  0  0  0  0  0  0  0
  -25.9430  -11.7390   20.3550 N   0  0  0  0  0  0  0  0  0  0  0  0
  -23.9300  -10.5560   20.9590 C   0  0  0  0  0  0  0  0  0  0  0  0
  -24.3730   -9.5670   21.8640 C   0  0  0  0  0  3  0  0  0  0  0  0
  -23.6240   -8.3870   22.0580 C   0  0  0  0  0  3  0  0  0  0  0  0
  -22.4180   -8.1860   21.3460 C   0  0  0  0  0  0  0  0  0  0  0  0
  -21.9920   -9.1640   20.4290 C   0  0  0  0  0  3  0  0  0  0  0  0
  -22.7410  -10.3370   20.2340 C   0  0  0  0  0  3  0  0  0  0  0  0
  -21.6380   -7.0600   21.4500 O   0  0  0  0  0  0  0  0  0  0  0  0
  -21.5830   -6.3280   22.6100 C   0  0  0  0  0  0  0  0  0  0  0  0
  -21.1900   -6.9070   23.8370 C   0  0  0  0  0  3  0  0  0  0  0  0
  -21.0800   -6.1040   24.9890 C   0  0  0  0  0  3  0  0  0  0  0  0
  -21.3490   -4.7240   24.9150 C   0  0  0  0  0  0  0  0  0  0  0  0
  -21.7340   -4.1460   23.6930 C   0  0  0  0  0  3  0  0  0  0  0  0
  -21.8470   -4.9460   22.5430 C   0  0  0  0  0  0  0  0  0  0  0  0
  -22.1970   -4.3800   21.3620 F   0  0  0  0  0  0  0  0  0  0  0  0
  -21.2340   -3.9510   26.0190 F   0  0  0  0  0  0  0  0  0  0  0  0
  -22.9010  -13.6740   21.2360 C   0  0  0  0  0  0  0  0  0  0  0  0
  -22.2210  -12.9810   22.1430 N   0  0  0  0  0  0  0  0  0  0  0  0
  -22.4530  -14.7190   20.7670 O   0  0  0  0  0  0  0  0  0  0  0  0
  -22.5980  -12.1330   22.5410 H   0  0  0  0  0  0  0  0  0  0  0  0
  -21.3120  -13.3030   22.4460 H   0  0  0  0  0  0  0  0  0  0  0  0
  -25.5140  -15.2910   20.2900 N   0  0  0  0  0  0  0  0  0  0  0  0
  -24.7820  -15.9640   20.4840 H   0  0  0  0  0  0  0  0  0  0  0  0
  -26.3660  -15.7170   19.9430 H   0  0  0  0  0  0  0  0  0  0  0  0
  -28.3120  -26.2350   20.2950 O   0  0  0  0  0  0  0  0  0  0  0  0
  -24.5740  -31.7880   23.1940 C   0  0  0  0  0  0  0  0  0  0  0  0
  -27.2410  -27.1690   20.1970 C   0  0  0  0  0  0  0  0  0  0  0  0
  -23.4110  -30.3850   21.5330 C   0  0  0  0  0  3  0  0  0  0  0  0
  -24.8950  -28.8420   20.1240 C   0  0  0  0  0  0  0  0  0  0  0  0
  -25.9580  -30.6940   21.4050 C   0  0  0  0  0  2  0  0  0  0  0  0
  -26.0530  -29.3090   20.7580 C   0  0  0  0  0  0  0  0  0  0  0  0
  -27.2290  -28.4830   20.7880 C   0  0  0  0  0  3  0  0  0  0  0  0
  -26.0720  -26.8020   19.4930 C   0  0  0  0  0  3  0  0  0  0  0  0
  -24.9130  -27.5990   19.4750 C   0  0  0  0  0  3  0  0  0  0  0  0
  -23.6560  -29.7170   20.1550 C   0  0  0  0  0  2  0  0  0  0  0  0
  -24.6660  -30.9760   22.0990 N   0  0  0  0  0  0  0  0  0  0  0  0
  -23.4780  -32.0600   23.7060 O   0  0  0  0  0  0  0  0  0  0  0  0
  -22.7340  -29.3630   22.4810 C   0  0  0  0  0  0  0  0  0  0  0  0
  -21.4120  -29.1710   22.3260 N   0  0  0  0  0  0  0  0  0  0  0  0
  -23.3990  -28.7460   23.3160 O   0  0  0  0  0  0  0  0  0  0  0  0
  -20.9350  -29.7210   21.6250 H   0  0  0  0  0  0  0  0  0  0  0  0
  -18.0400  -27.9220   22.7470 C   0  0  0  0  0  0  0  0  0  0  0  0
  -20.5870  -28.2250   23.0800 C   0  0  0  0  0  3  0  0  0  0  0  0
  -20.7260  -26.7920   22.5160 C   0  0  0  0  0  2  0  0  0  0  0  0
  -19.6560  -26.4470   21.4770 C   0  0  0  0  0  2  0  0  0  0  0  0
  -18.2550  -26.5730   22.0840 C   0  0  0  0  0  2  0  0  0  0  0  0
  -19.1360  -28.7050   23.2010 C   0  0  0  0  0  0  0  0  0  0  0  0
  -18.8810  -29.9670   23.7820 C   0  0  0  0  0  3  0  0  0  0  0  0
  -17.5650  -30.4470   23.9120 C   0  0  0  0  0  3  0  0  0  0  0  0
  -16.4840  -29.6630   23.4720 C   0  0  0  0  0  3  0  0  0  0  0  0
  -16.7230  -28.4030   22.8970 C   0  0  0  0  0  3  0  0  0  0  0  0
  -25.8380  -32.4320   23.8410 C   0  0  0  0  0  3  0  0  0  0  0  0
  -25.5120  -33.8300   24.1610 N   0  0  0  0  0  0  0  0  0  0  0  0
  -25.8470  -34.8840   23.4050 C   0  0  0  0  0  0  0  0  0  0  0  0
  -26.5310  -34.7810   22.3830 O   0  0  0  0  0  0  0  0  0  0  0  0
  -24.9040  -33.9820   24.9530 H   0  0  0  0  0  0  0  0  0  0  0  0
  -24.1040  -36.6610   23.0300 C   0  0  0  0  0  1  0  0  0  0  0  0
  -25.3440  -36.2720   23.8510 C   0  0  0  0  0  3  0  0  0  0  0  0
  -27.4680  -37.1800   24.6890 C   0  0  0  0  0  1  0  0  0  0  0  0
  -26.3700  -37.3320   23.7370 N   0  0  0  0  0  0  0  0  0  0  0  0
  -25.9560  -38.2510   23.8730 H   0  0  0  0  0  0  0  0  0  0  0  0
  -26.3300  -31.6690   25.1330 C   0  0  1  0  0  0  0  0  0  0  0  0
  -25.2150  -31.4330   26.1790 C   0  0  0  0  0  1  0  0  0  0  0  0
  -26.9260  -30.2920   24.7630 C   0  0  0  0  0  1  0  0  0  0  0  0
  -27.4640  -32.4710   25.8130 C   0  0  0  0  0  1  0  0  0  0  0  0
  1  4  1  0
  1  3  1  0
  3  5  1  0
  3  2  1  0
  4 50  1  0
  4  2  1  0
  5  6  1  0
  7  5  1  0
  8  5  1  0
  9 21  1  0
 10 15  1  0
 11 12  1  0
 11 10  1  0
 13 12  1  0
 13 25  1  0
 13 14  1  0
 15  9  1  0
 15 14  1  0
 16  9  2  0
 17 18  1  0
 19 21  1  0
 19 20  1  0
 20  8  1  0
 20 17  1  0
 21 18  1  0
 22 23  2  0
 23 42  1  0
 24 23  1  0
 24 27  1  0
 25 26  1  0
 25 22  1  0
 26 24  2  0
 27 28  1  0
 28 29  2  0
 30 33  1  0
 30 29  1  0
 31 30  2  0
 32 31  1  0
 32 27  2  0
 33 34  1  0
 34 35  1  0
 35 36  2  0
 37 36  1  0
 37 41  1  0
 38 37  2  0
 39 34  2  0
 39 38  1  0
 40 39  1  0
 42 43  1  0
 43 46  1  0
 43 45  1  0
 44 42  2  0
 47 22  1  0
 47 48  1  0
 49 47  1  0
 51 62  2  0
 52 50  1  0
 52 57  1  0
 53 61  1  0
 53 63  1  0
 54 60  1  0
 54 56  1  0
 55 61  1  0
 56 57  2  0
 56 55  1  0
 58 52  2  0
 59 58  1  0
 59 54  2  0
 60 53  1  0
 61 51  1  0
 63 65  2  0
 64 63  1  0
 66 64  1  0
 67 76  2  0
 67 72  1  0
 68 64  1  0
 68 72  1  0
 69 68  1  0
 70 71  1  0
 70 69  1  0
 71 67  1  0
 72 73  2  0
 73 74  1  0
 75 74  2  0
 76 75  1  0
 77 51  1  0
 77 78  1  0
 77 87  1  0
 78 81  1  0
 79 83  1  0
 79 78  1  0
 80 79  2  0
 83 82  1  0
 85 83  1  0
 85 86  1  0
 85 84  1  0
 87 90  1  1
 87 88  1  0
 89 87  1  0
M  ISO  4   4 101   9 100  21 100  50 101
M  END
>  <TORSDO>  (84) 
F 18

>  <SCORE>  (84) 
-13.976

>  <name>  (84) 
83

>  <ligand_id>  (84) 
83

>  <original_smiles>  (84) 
[H]c1c([H])c([H])c2c(c1[H])C([H])([H])C([H])([H])C([H])([H])C2([H])N([H])C(=O)C1([H])N(C(=O)C([H])(N([H])C(=O)C([H])(N([H])C([H])([H])[H])C([H])([H])[H])C(C([H])([H])[H])(C([H])([H])[H])C([H])([H])[H])C([H])([H])c2c([H])c(OC3([H])C([H])([H])C([H])([N+]([H])([H])C([H])([H])C4([H])C([H])([H])N(C(=O)N5C([H])([H])C([H])([H])C([H])([H])C([H])(n6nc(-c7c([H])c([H])c(Oc8c([H])c([H])c(F)c([H])c8F)c([H])c7[H])c(C(=O)N([H])[H])c6N([H])[H])C5([H])[H])C([H])([H])C4([H])[H])C3([H])[H])c([H])c([H])c2C1([H])[H]

>  <smiles>  (84) 
[H]c1c([H])c([H])c2c(c1[H])C([H])([H])C([H])([H])C([H])([H])C2([H])N([H])C(=O)C1([H])N(C(=O)C([H])(N([H])C(=O)C([H])(N([H])C([H])([H])[H])C([H])([H])[H])C(C([H])([H])[H])(C([H])([H])[H])C([H])([H])[H])C([H])([H])c2c([H])c(OC3([H])C([H])([H])C([H])([N+]([H])([H])C([H])([H])C4([H])C([H])([H])N(C(=O)N5C([H])([H])C([H])([H])C([H])([H])C([H])(n6nc(-c7c([H])c([H])c(Oc8c([H])c([H])c(F)c([H])c8F)c([H])c7[H])c(C(=O)N([H])[H])c6N([H])[H])C5([H])[H])C([H])([H])C4([H])[H])C3([H])[H])c([H])c([H])c2C1([H])[H]

$$$$
84:0:0
     RDKit          3D

105116  0  0  1  0  0  0  0  0999 V2000
  -26.6360  -24.8790   20.9390 C   0  0  0  0  0  2  0  0  0  0  0  0
  -26.2050  -23.7670   20.2730 C   0  0  0  0  0  0  0  0  0  0  0  0
  -27.4310  -23.0940   19.9660 C   0  0  0  0  0  0  0  0  0  0  0  0
  -28.4910  -23.8520   20.2430 N   0  0  0  0  0  2  0  0  0  0  0  0
  -28.0040  -24.9870   20.7840 N   0  0  0  0  0  0  0  0  0  0  0  0
  -24.2950  -22.4680   18.8640 C   0  0  0  0  0  2  0  0  0  0  0  0
  -23.8830  -24.4400   19.2520 C   0  0  0  0  0  2  0  0  0  0  0  0
  -24.7540  -23.4110   19.9810 C   0  0  0  0  0  3  0  0  0  0  0  0
  -22.6610  -23.5200   17.2940 C   0  0  0  0  0  1  0  0  0  0  0  0
  -23.1240  -23.3300   18.6880 N   0  0  1  0  0  4  0  0  0  0  0  0
  -22.3690  -23.0420   19.2950 H   0  0  0  0  0  0  0  0  0  0  0  0
  -27.1150  -20.5830   20.3810 C   0  0  0  0  0  2  0  0  0  0  0  0
  -28.0380  -19.3700   20.1470 C   0  0  0  0  0  2  0  0  0  0  0  0
  -29.1090  -21.2760   19.2470 C   0  0  0  0  0  2  0  0  0  0  0  0
  -27.6430  -21.6840   19.4460 C   0  0  0  0  0  3  0  0  0  0  0  0
  -29.0660  -19.8050   19.1810 N   0  0  2  0  0  4  0  0  0  0  0  0
  -29.9620  -19.4440   19.4850 H   0  0  0  0  0  0  0  0  0  0  0  0
  -28.9600  -19.2560   17.8130 C   0  0  0  0  0  2  0  0  0  0  0  0
  -32.5030  -17.0370   17.4830 C   0  0  0  0  0  3  0  0  0  0  0  0
  -30.6150  -17.8570   16.4350 C   0  0  0  0  0  3  0  0  0  0  0  0
  -31.9610  -17.3900   18.7410 C   0  0  0  0  0  0  0  0  0  0  0  0
  -30.1100  -18.2780   17.6900 C   0  0  0  0  0  0  0  0  0  0  0  0
  -31.8170  -17.2360   16.3310 N   0  0  0  0  0  0  0  0  0  0  0  0
  -30.7660  -18.0130   18.8510 N   0  0  0  0  0  0  0  0  0  0  0  0
  -32.6530  -17.0080   20.0420 C   0  0  0  0  0  2  0  0  0  0  0  0
  -32.6910  -14.5780   19.6210 C   0  0  0  0  0  0  0  0  0  0  0  0
  -32.0950  -12.2840   18.9510 C   0  0  0  0  0  2  0  0  0  0  0  0
  -31.1260  -12.2720   17.7540 C   0  0  0  0  0  2  0  0  0  0  0  0
  -29.6660  -12.3850   18.2340 C   0  0  0  0  0  2  0  0  0  0  0  0
  -29.4650  -13.5760   19.2050 C   0  0  0  0  0  3  0  0  0  0  0  0
  -30.5170  -13.5280   20.3340 C   0  0  0  0  0  2  0  0  0  0  0  0
  -31.8660  -13.5080   19.7340 N   0  0  0  0  0  0  0  0  0  0  0  0
  -33.6680  -14.6120   18.8660 O   0  0  0  0  0  0  0  0  0  0  0  0
  -32.3490  -15.6240   20.3780 N   0  0  0  0  0  0  0  0  0  0  0  0
  -31.6300  -15.4730   21.0670 H   0  0  0  0  0  0  0  0  0  0  0  0
  -27.3090  -14.6810   20.0800 C   0  0  0  0  0  0  0  0  0  0  0  0
  -26.1040  -14.1600   20.4620 C   0  0  0  0  0  0  0  0  0  0  0  0
  -26.2310  -12.7430   20.3260 C   0  0  0  0  0  0  0  0  0  0  0  0
  -28.1080  -13.5970   19.7450 N   0  0  0  0  0  0  0  0  0  0  0  0
  -27.4590  -12.4240   19.9400 N   0  0  0  0  0  0  0  0  0  0  0  0
  -25.2360  -11.6780   20.4850 C   0  0  0  0  0  0  0  0  0  0  0  0
  -25.5060  -10.5220   21.2490 C   0  0  0  0  0  3  0  0  0  0  0  0
  -24.5220   -9.5210   21.3980 C   0  0  0  0  0  3  0  0  0  0  0  0
  -23.2580   -9.6710   20.7810 C   0  0  0  0  0  0  0  0  0  0  0  0
  -23.0060  -10.8120   20.0000 C   0  0  0  0  0  3  0  0  0  0  0  0
  -23.9870  -11.8060   19.8480 C   0  0  0  0  0  3  0  0  0  0  0  0
  -22.2530   -8.7390   20.8510 O   0  0  0  0  0  0  0  0  0  0  0  0
  -22.0640   -7.9670   21.9680 C   0  0  0  0  0  0  0  0  0  0  0  0
  -21.9320   -8.5370   23.2540 C   0  0  0  0  0  3  0  0  0  0  0  0
  -21.6730   -7.7120   24.3640 C   0  0  0  0  0  3  0  0  0  0  0  0
  -21.5330   -6.3210   24.1950 C   0  0  0  0  0  0  0  0  0  0  0  0
  -21.6560   -5.7540   22.9140 C   0  0  0  0  0  3  0  0  0  0  0  0
  -21.9170   -6.5740   21.8050 C   0  0  0  0  0  0  0  0  0  0  0  0
  -22.0160   -6.0240   20.5700 F   0  0  0  0  0  0  0  0  0  0  0  0
  -21.2720   -5.5310   25.2620 F   0  0  0  0  0  0  0  0  0  0  0  0
  -24.8780  -14.9340   20.8490 C   0  0  0  0  0  0  0  0  0  0  0  0
  -24.0410  -14.3610   21.7050 N   0  0  0  0  0  0  0  0  0  0  0  0
  -24.6830  -16.0750   20.4310 O   0  0  0  0  0  0  0  0  0  0  0  0
  -24.2200  -13.4380   22.0680 H   0  0  0  0  0  0  0  0  0  0  0  0
  -23.2100  -14.8460   22.0120 H   0  0  0  0  0  0  0  0  0  0  0  0
  -27.7890  -15.9800   19.9690 N   0  0  0  0  0  0  0  0  0  0  0  0
  -27.1580  -16.7650   20.0450 H   0  0  0  0  0  0  0  0  0  0  0  0
  -28.6890  -16.1980   19.5620 H   0  0  0  0  0  0  0  0  0  0  0  0
  -28.8990  -26.1100   21.1120 C   0  0  0  0  0  2  0  0  0  0  0  0
  -28.9330  -27.0690   20.0580 O   0  0  0  0  0  0  0  0  0  0  0  0
  -26.0150  -31.1690   24.9580 C   0  0  0  0  0  0  0  0  0  0  0  0
  -28.0180  -28.0640   20.2480 C   0  0  0  0  0  0  0  0  0  0  0  0
  -24.6090  -30.6400   22.9970 C   0  0  0  0  0  3  0  0  0  0  0  0
  -25.8360  -29.6720   20.9730 C   0  0  0  0  0  0  0  0  0  0  0  0
  -27.1450  -30.8030   22.7700 C   0  0  0  0  0  2  0  0  0  0  0  0
  -27.0540  -29.7940   21.6540 C   0  0  0  0  0  0  0  0  0  0  0  0
  -28.1540  -28.9870   21.3020 C   0  0  0  0  0  3  0  0  0  0  0  0
  -26.8290  -28.0220   19.4940 C   0  0  0  0  0  3  0  0  0  0  0  0
  -25.7220  -28.7940   19.8820 C   0  0  0  0  0  3  0  0  0  0  0  0
  -24.6960  -30.5400   21.4480 C   0  0  0  0  0  2  0  0  0  0  0  0
  -25.9470  -30.8580   23.6350 N   0  0  0  0  0  0  0  0  0  0  0  0
  -24.9860  -31.3120   25.6350 O   0  0  0  0  0  0  0  0  0  0  0  0
  -23.8830  -29.3850   23.5330 C   0  0  0  0  0  0  0  0  0  0  0  0
  -22.6100  -29.2150   23.1450 N   0  0  0  0  0  0  0  0  0  0  0  0
  -24.4740  -28.5720   24.2510 O   0  0  0  0  0  0  0  0  0  0  0  0
  -22.1930  -29.9390   22.5800 H   0  0  0  0  0  0  0  0  0  0  0  0
  -19.4180  -27.6770   22.4550 C   0  0  0  0  0  0  0  0  0  0  0  0
  -21.7460  -28.0900   23.5020 C   0  0  0  0  0  3  0  0  0  0  0  0
  -22.1840  -26.7920   22.7830 C   0  0  0  0  0  2  0  0  0  0  0  0
  -21.4480  -26.5680   21.4560 C   0  0  0  0  0  2  0  0  0  0  0  0
  -19.9370  -26.4730   21.6970 C   0  0  0  0  0  2  0  0  0  0  0  0
  -20.2690  -28.4420   23.2970 C   0  0  0  0  0  0  0  0  0  0  0  0
  -19.7400  -29.5690   23.9590 C   0  0  0  0  0  3  0  0  0  0  0  0
  -18.3920  -29.9350   23.7980 C   0  0  0  0  0  3  0  0  0  0  0  0
  -17.5520  -29.1650   22.9760 C   0  0  0  0  0  3  0  0  0  0  0  0
  -18.0630  -28.0370   22.3100 C   0  0  0  0  0  3  0  0  0  0  0  0
  -27.3850  -31.3910   25.6760 C   0  0  0  0  0  3  0  0  0  0  0  0
  -27.4070  -32.7770   26.1560 N   0  0  0  0  0  0  0  0  0  0  0  0
  -28.1090  -33.7690   25.5860 C   0  0  0  0  0  0  0  0  0  0  0  0
  -28.8650  -33.5880   24.6280 O   0  0  0  0  0  0  0  0  0  0  0  0
  -26.7580  -33.0180   26.8910 H   0  0  0  0  0  0  0  0  0  0  0  0
  -27.0020  -36.0110   25.2750 C   0  0  0  0  0  1  0  0  0  0  0  0
  -27.9370  -35.1820   26.1720 C   0  0  0  0  0  3  0  0  0  0  0  0
  -30.0800  -35.2990   27.3640 C   0  0  0  0  0  1  0  0  0  0  0  0
  -29.2180  -35.9000   26.3510 N   0  0  0  0  0  0  0  0  0  0  0  0
  -29.0600  -36.8710   26.6040 H   0  0  0  0  0  0  0  0  0  0  0  0
  -27.6380  -30.3800   26.8590 C   0  0  1  0  0  0  0  0  0  0  0  0
  -26.4240  -30.2080   27.8010 C   0  0  0  0  0  1  0  0  0  0  0  0
  -28.0160  -28.9820   26.3120 C   0  0  0  0  0  1  0  0  0  0  0  0
  -28.8370  -30.8600   27.7120 C   0  0  0  0  0  1  0  0  0  0  0  0
  2  1  1  0
  3  4  1  0
  3  2  2  0
  4  5  1  0
  5  1  1  0
  5 64  1  0
  6  8  1  0
  7  8  1  0
  8  2  1  0
  9 10  1  0
 10  6  1  0
 10  7  1  0
 10 11  1  1
 13 12  1  0
 14 15  1  0
 15  3  1  0
 15 12  1  0
 16 14  1  0
 16 17  1  1
 16 13  1  0
 18 16  1  0
 19 21  1  0
 20 22  2  0
 21 24  2  0
 21 25  1  0
 22 18  1  0
 22 24  1  0
 23 20  1  0
 23 19  2  0
 25 34  1  0
 26 32  1  0
 26 34  1  0
 27 32  1  0
 28 29  1  0
 28 27  1  0
 30 29  1  0
 30 39  1  0
 30 31  1  0
 32 31  1  0
 33 26  2  0
 34 35  1  0
 36 37  2  0
 37 56  1  0
 38 37  1  0
 38 41  1  0
 39 40  1  0
 39 36  1  0
 40 38  2  0
 41 42  1  0
 42 43  2  0
 44 47  1  0
 44 43  1  0
 45 44  2  0
 46 45  1  0
 46 41  2  0
 47 48  1  0
 48 49  1  0
 49 50  2  0
 51 50  1  0
 51 55  1  0
 52 51  2  0
 53 48  2  0
 53 52  1  0
 54 53  1  0
 56 57  1  0
 57 60  1  0
 57 59  1  0
 58 56  2  0
 61 62  1  0
 61 36  1  0
 63 61  1  0
 65 67  1  0
 65 64  1  0
 66 77  2  0
 67 72  1  0
 68 78  1  0
 68 76  1  0
 69 75  1  0
 69 71  1  0
 70 76  1  0
 71 70  1  0
 72 71  2  0
 73 74  1  0
 73 67  2  0
 74 69  2  0
 75 68  1  0
 76 66  1  0
 78 80  2  0
 79 78  1  0
 81 79  1  0
 82 87  1  0
 83 79  1  0
 84 83  1  0
 85 86  1  0
 85 84  1  0
 86 82  1  0
 87 83  1  0
 87 88  2  0
 89 88  1  0
 90 89  2  0
 91 82  2  0
 91 90  1  0
 92 66  1  0
 92 93  1  0
 92102  1  0
 93 96  1  0
 94 93  1  0
 94 98  1  0
 95 94  2  0
 98 97  1  0
 98100  1  0
100101  1  0
100 99  1  0
102105  1  1
102103  1  0
104102  1  0
M  ISO  4  26 100  34 100  64 101  65 101
M  END
>  <TORSDO>  (85) 
F 22

>  <SCORE>  (85) 
-8.774

>  <name>  (85) 
84

>  <ligand_id>  (85) 
84

>  <original_smiles>  (85) 
[H]c1nc([H])c(C([H])([H])[N+]2([H])C([H])([H])C([H])([H])C([H])(c3nn(C([H])([H])Oc4c([H])c([H])c5c(c4[H])C([H])([H])N(C(=O)C([H])(N([H])C(=O)C([H])(N([H])C([H])([H])[H])C([H])([H])[H])C(C([H])([H])[H])(C([H])([H])[H])C([H])([H])[H])C([H])(C(=O)N([H])C4([H])c6c([H])c([H])c([H])c([H])c6C([H])([H])C([H])([H])C4([H])[H])C5([H])[H])c([H])c3C3([H])C([H])([H])[N+]([H])(C([H])([H])[H])C3([H])[H])C2([H])[H])nc1C([H])([H])N([H])C(=O)N1C([H])([H])C([H])([H])C([H])([H])C([H])(n2nc(-c3c([H])c([H])c(Oc4c([H])c([H])c(F)c([H])c4F)c([H])c3[H])c(C(=O)N([H])[H])c2N([H])[H])C1([H])[H]

>  <smiles>  (85) 
[H]c1nc([H])c(C([H])([H])[N+]2([H])C([H])([H])C([H])([H])C([H])(c3nn(C([H])([H])Oc4c([H])c([H])c5c(c4[H])C([H])([H])N(C(=O)C([H])(N([H])C(=O)C([H])(N([H])C([H])([H])[H])C([H])([H])[H])C(C([H])([H])[H])(C([H])([H])[H])C([H])([H])[H])C([H])(C(=O)N([H])C4([H])c6c([H])c([H])c([H])c([H])c6C([H])([H])C([H])([H])C4([H])[H])C5([H])[H])c([H])c3C3([H])C([H])([H])[N+]([H])(C([H])([H])[H])C3([H])[H])C2([H])[H])nc1C([H])([H])N([H])C(=O)N1C([H])([H])C([H])([H])C([H])([H])C([H])(n2nc(-c3c([H])c([H])c(Oc4c([H])c([H])c(F)c([H])c4F)c([H])c3[H])c(C(=O)N([H])[H])c2N([H])[H])C1([H])[H]

$$$$
85:0:0
     RDKit          3D

 94103  0  0  1  0  0  0  0  0999 V2000
  -30.3990  -21.6770   22.1160 C   0  0  0  0  0  2  0  0  0  0  0  0
  -30.7070  -23.0950   21.6230 C   0  0  0  0  0  2  0  0  0  0  0  0
  -28.5430  -22.4680   20.8150 C   0  0  0  0  0  2  0  0  0  0  0  0
  -29.3160  -21.1690   21.1570 C   0  0  0  0  0  3  0  0  0  0  0  0
  -29.4340  -23.6330   21.0910 N   0  0  2  0  0  4  0  0  0  0  0  0
  -29.0080  -24.1470   21.8510 H   0  0  0  0  0  0  0  0  0  0  0  0
  -29.9240  -20.5140   19.8980 C   0  0  0  0  0  0  0  0  0  0  0  0
  -30.5560  -17.0570   18.8100 C   0  0  0  0  0  2  0  0  0  0  0  0
  -30.5530  -18.5590   18.5710 C   0  0  0  0  0  2  0  0  0  0  0  0
  -29.6950  -18.1350   20.7820 C   0  0  0  0  0  2  0  0  0  0  0  0
  -30.5140  -16.9070   20.3340 C   0  0  0  0  0  3  0  0  0  0  0  0
  -29.9840  -19.1670   19.7720 N   0  0  0  0  0  0  0  0  0  0  0  0
  -30.3460  -21.2530   19.0030 O   0  0  0  0  0  0  0  0  0  0  0  0
  -30.7060  -14.4630   20.4620 C   0  0  0  0  0  0  0  0  0  0  0  0
  -30.3550  -12.3060   19.3530 C   0  0  0  0  0  2  0  0  0  0  0  0
  -29.4260  -12.5320   18.1440 C   0  0  0  0  0  2  0  0  0  0  0  0
  -27.9500  -12.4080   18.5720 C   0  0  0  0  0  2  0  0  0  0  0  0
  -27.6160  -13.2440   19.8370 C   0  0  0  0  0  3  0  0  0  0  0  0
  -28.6740  -13.0470   20.9480 C   0  0  0  0  0  2  0  0  0  0  0  0
  -29.9970  -13.3090   20.3660 N   0  0  0  0  0  0  0  0  0  0  0  0
  -31.8740  -14.5550   20.0800 O   0  0  0  0  0  0  0  0  0  0  0  0
  -30.0030  -15.5810   20.7260 N   0  0  0  0  0  0  0  0  0  0  0  0
  -29.0350  -15.4870   20.9960 H   0  0  0  0  0  0  0  0  0  0  0  0
  -25.2180  -13.8440   20.5480 C   0  0  0  0  0  0  0  0  0  0  0  0
  -24.1520  -13.0690   20.9190 C   0  0  0  0  0  0  0  0  0  0  0  0
  -24.6170  -11.7180   20.8910 C   0  0  0  0  0  0  0  0  0  0  0  0
  -26.2660  -12.9650   20.3190 N   0  0  0  0  0  0  0  0  0  0  0  0
  -25.9080  -11.6820   20.5830 N   0  0  0  0  0  0  0  0  0  0  0  0
  -23.8940  -10.4540   21.0840 C   0  0  0  0  0  0  0  0  0  0  0  0
  -24.3430   -9.4780   22.0000 C   0  0  0  0  0  3  0  0  0  0  0  0
  -23.6210   -8.2790   22.1810 C   0  0  0  0  0  3  0  0  0  0  0  0
  -22.4330   -8.0480   21.4460 C   0  0  0  0  0  0  0  0  0  0  0  0
  -22.0010   -9.0130   20.5200 C   0  0  0  0  0  3  0  0  0  0  0  0
  -22.7250  -10.2040   20.3370 C   0  0  0  0  0  3  0  0  0  0  0  0
  -21.6800   -6.9020   21.5370 O   0  0  0  0  0  0  0  0  0  0  0  0
  -21.6730   -6.1350   22.6750 C   0  0  0  0  0  0  0  0  0  0  0  0
  -21.3120   -6.6690   23.9320 C   0  0  0  0  0  3  0  0  0  0  0  0
  -21.2490   -5.8290   25.0610 C   0  0  0  0  0  3  0  0  0  0  0  0
  -21.5370   -4.4560   24.9360 C   0  0  0  0  0  0  0  0  0  0  0  0
  -21.8920   -3.9220   23.6850 C   0  0  0  0  0  3  0  0  0  0  0  0
  -21.9560   -4.7590   22.5570 C   0  0  0  0  0  0  0  0  0  0  0  0
  -22.2770   -4.2360   21.3500 F   0  0  0  0  0  0  0  0  0  0  0  0
  -21.4710   -3.6470   26.0200 F   0  0  0  0  0  0  0  0  0  0  0  0
  -22.7530  -13.5430   21.1910 C   0  0  0  0  0  0  0  0  0  0  0  0
  -22.0280  -12.8490   22.0610 N   0  0  0  0  0  0  0  0  0  0  0  0
  -22.3130  -14.5660   20.6680 O   0  0  0  0  0  0  0  0  0  0  0  0
  -22.3960  -12.0200   22.5030 H   0  0  0  0  0  0  0  0  0  0  0  0
  -21.0900  -13.1490   22.2850 H   0  0  0  0  0  0  0  0  0  0  0  0
  -25.3800  -15.2130   20.3650 N   0  0  0  0  0  0  0  0  0  0  0  0
  -24.6070  -15.8630   20.4620 H   0  0  0  0  0  0  0  0  0  0  0  0
  -26.2230  -15.6500   20.0140 H   0  0  0  0  0  0  0  0  0  0  0  0
  -29.6200  -24.5910   19.9600 C   0  0  0  0  0  2  0  0  0  0  0  0
  -28.3480  -25.3860   19.5990 C   0  0  0  0  0  2  0  0  0  0  0  0
  -28.3680  -26.7140   20.1440 O   0  0  0  0  0  0  0  0  0  0  0  0
  -24.5950  -31.9010   23.2340 C   0  0  0  0  0  0  0  0  0  0  0  0
  -27.1900  -27.4400   20.1250 C   0  0  0  0  0  0  0  0  0  0  0  0
  -23.3670  -30.5020   21.6070 C   0  0  0  0  0  3  0  0  0  0  0  0
  -24.7990  -28.9640   20.1680 C   0  0  0  0  0  0  0  0  0  0  0  0
  -25.8950  -30.8480   21.3880 C   0  0  0  0  0  2  0  0  0  0  0  0
  -25.9670  -29.4770   20.7470 C   0  0  0  0  0  0  0  0  0  0  0  0
  -27.1600  -28.7200   20.7280 C   0  0  0  0  0  3  0  0  0  0  0  0
  -25.9980  -26.9520   19.5310 C   0  0  0  0  0  3  0  0  0  0  0  0
  -24.8110  -27.7010   19.5610 C   0  0  0  0  0  3  0  0  0  0  0  0
  -23.5610  -29.8270   20.2250 C   0  0  0  0  0  2  0  0  0  0  0  0
  -24.6380  -31.0990   22.1340 N   0  0  0  0  0  0  0  0  0  0  0  0
  -23.5180  -32.1780   23.7840 O   0  0  0  0  0  0  0  0  0  0  0  0
  -22.7250  -29.4810   22.5730 C   0  0  0  0  0  0  0  0  0  0  0  0
  -21.3990  -29.3000   22.4550 N   0  0  0  0  0  0  0  0  0  0  0  0
  -23.4140  -28.8540   23.3810 O   0  0  0  0  0  0  0  0  0  0  0  0
  -20.9040  -29.8560   21.7710 H   0  0  0  0  0  0  0  0  0  0  0  0
  -18.0280  -28.1050   22.9690 C   0  0  0  0  0  0  0  0  0  0  0  0
  -20.5860  -28.3650   23.2330 C   0  0  0  0  0  3  0  0  0  0  0  0
  -20.6890  -26.9310   22.6630 C   0  0  0  0  0  2  0  0  0  0  0  0
  -19.5830  -26.6030   21.6540 C   0  0  0  0  0  2  0  0  0  0  0  0
  -18.2030  -26.7510   22.3010 C   0  0  0  0  0  2  0  0  0  0  0  0
  -19.1470  -28.8700   23.3920 C   0  0  0  0  0  0  0  0  0  0  0  0
  -18.9310  -30.1370   23.9750 C   0  0  0  0  0  3  0  0  0  0  0  0
  -17.6260  -30.6400   24.1400 C   0  0  0  0  0  3  0  0  0  0  0  0
  -16.5220  -29.8720   23.7360 C   0  0  0  0  0  3  0  0  0  0  0  0
  -16.7230  -28.6060   23.1550 C   0  0  0  0  0  3  0  0  0  0  0  0
  -25.8890  -32.5280   23.8410 C   0  0  0  0  0  3  0  0  0  0  0  0
  -26.4250  -31.7490   25.1040 C   0  0  1  0  0  0  0  0  0  0  0  0
  -25.3470  -31.5070   26.1860 C   0  0  0  0  0  1  0  0  0  0  0  0
  -27.0000  -30.3730   24.6950 C   0  0  0  0  0  1  0  0  0  0  0  0
  -27.5850  -32.5390   25.7540 C   0  0  0  0  0  1  0  0  0  0  0  0
  -25.5850  -33.9240   24.1810 N   0  0  0  0  0  0  0  0  0  0  0  0
  -25.9080  -34.9790   23.4210 C   0  0  0  0  0  0  0  0  0  0  0  0
  -26.5680  -34.8800   22.3830 O   0  0  0  0  0  0  0  0  0  0  0  0
  -24.9990  -34.0750   24.9890 H   0  0  0  0  0  0  0  0  0  0  0  0
  -24.1760  -36.7700   23.0910 C   0  0  0  0  0  1  0  0  0  0  0  0
  -25.4250  -36.3640   23.8890 C   0  0  0  0  0  3  0  0  0  0  0  0
  -27.5700  -37.2440   24.6990 C   0  0  0  0  0  1  0  0  0  0  0  0
  -26.4570  -37.4190   23.7690 N   0  0  0  0  0  0  0  0  0  0  0  0
  -26.0520  -38.3380   23.9260 H   0  0  0  0  0  0  0  0  0  0  0  0
  2  1  1  0
  3  5  1  0
  3  4  1  0
  4  7  1  0
  4  1  1  0
  5  2  1  0
  5  6  1  1
  8 11  1  0
  9  8  1  0
  9 12  1  0
 11 22  1  0
 11 10  1  0
 12  7  1  0
 12 10  1  0
 13  7  2  0
 14 22  1  0
 15 20  1  0
 16 17  1  0
 16 15  1  0
 18 17  1  0
 18 27  1  0
 18 19  1  0
 20 14  1  0
 20 19  1  0
 21 14  2  0
 22 23  1  0
 24 25  2  0
 25 44  1  0
 26 25  1  0
 26 29  1  0
 27 24  1  0
 27 28  1  0
 28 26  2  0
 29 30  1  0
 30 31  2  0
 32 35  1  0
 32 31  1  0
 33 32  2  0
 34 33  1  0
 34 29  2  0
 35 36  1  0
 36 37  1  0
 37 38  2  0
 39 38  1  0
 39 43  1  0
 40 39  2  0
 41 36  2  0
 41 40  1  0
 42 41  1  0
 44 45  1  0
 45 48  1  0
 45 47  1  0
 46 44  2  0
 49 50  1  0
 49 24  1  0
 51 49  1  0
 52  5  1  0
 53 52  1  0
 53 54  1  0
 55 66  2  0
 56 54  1  0
 56 61  1  0
 57 65  1  0
 57 67  1  0
 58 64  1  0
 58 60  1  0
 59 65  1  0
 60 59  1  0
 61 60  2  0
 62 63  1  0
 62 56  2  0
 63 58  2  0
 64 57  1  0
 65 55  1  0
 67 69  2  0
 68 67  1  0
 70 68  1  0
 71 80  2  0
 71 76  1  0
 72 68  1  0
 72 76  1  0
 73 72  1  0
 74 75  1  0
 74 73  1  0
 75 71  1  0
 76 77  2  0
 77 78  1  0
 79 78  2  0
 80 79  1  0
 81 55  1  0
 81 86  1  0
 81 82  1  0
 82 85  1  1
 82 83  1  0
 84 82  1  0
 86 89  1  0
 87 91  1  0
 87 86  1  0
 88 87  2  0
 91 90  1  0
 93 91  1  0
 93 94  1  0
 93 92  1  0
M  ISO  4  14 100  22 100  53 101  54 101
M  END
>  <TORSDO>  (86) 
F 19

>  <SCORE>  (86) 
-14.488

>  <name>  (86) 
85

>  <ligand_id>  (86) 
85

>  <original_smiles>  (86) 
[H]c1c([H])c([H])c2c(c1[H])C([H])([H])C([H])([H])C([H])([H])C2([H])N([H])C(=O)C1([H])N(C(=O)C([H])(N([H])C(=O)C([H])(N([H])C([H])([H])[H])C([H])([H])[H])C(C([H])([H])[H])(C([H])([H])[H])C([H])([H])[H])C([H])([H])c2c([H])c(OC([H])([H])C([H])([H])[N+]3([H])C([H])([H])C([H])([H])C([H])(C(=O)N4C([H])([H])C([H])([H])C([H])(N([H])C(=O)N5C([H])([H])C([H])([H])C([H])([H])C([H])(n6nc(-c7c([H])c([H])c(Oc8c([H])c([H])c(F)c([H])c8F)c([H])c7[H])c(C(=O)N([H])[H])c6N([H])[H])C5([H])[H])C4([H])[H])C3([H])[H])c([H])c([H])c2C1([H])[H]

>  <smiles>  (86) 
[H]c1c([H])c([H])c2c(c1[H])C([H])([H])C([H])([H])C([H])([H])C2([H])N([H])C(=O)C1([H])N(C(=O)C([H])(N([H])C(=O)C([H])(N([H])C([H])([H])[H])C([H])([H])[H])C(C([H])([H])[H])(C([H])([H])[H])C([H])([H])[H])C([H])([H])c2c([H])c(OC([H])([H])C([H])([H])[N+]3([H])C([H])([H])C([H])([H])C([H])(C(=O)N4C([H])([H])C([H])([H])C([H])(N([H])C(=O)N5C([H])([H])C([H])([H])C([H])([H])C([H])(n6nc(-c7c([H])c([H])c(Oc8c([H])c([H])c(F)c([H])c8F)c([H])c7[H])c(C(=O)N([H])[H])c6N([H])[H])C5([H])[H])C4([H])[H])C3([H])[H])c([H])c([H])c2C1([H])[H]

$$$$
86:0:0
     RDKit          3D

 96106  0  0  1  0  0  0  0  0999 V2000
  -28.1140  -21.1150   20.4810 C   0  0  0  0  0  3  0  0  0  0  0  0
  -29.8430  -20.0140   19.2980 C   0  0  0  0  0  3  0  0  0  0  0  0
  -28.9090  -19.9640   20.3480 C   0  0  0  0  0  0  0  0  0  0  0  0
  -29.2580  -22.1640   18.7940 C   0  0  0  0  0  0  0  0  0  0  0  0
  -28.2710  -22.1930   19.6840 N   0  0  0  0  0  0  0  0  0  0  0  0
  -30.0450  -21.1200   18.5690 N   0  0  0  0  0  0  0  0  0  0  0  0
  -28.7470  -23.4690   16.5980 C   0  0  0  0  0  2  0  0  0  0  0  0
  -30.2240  -23.2280   16.5960 C   0  0  0  0  0  2  0  0  0  0  0  0
  -29.4880  -23.3890   17.9260 C   0  0  2  0  0  0  0  0  0  0  0  0
  -29.7280  -24.6630   18.7560 C   0  0  0  0  0  2  0  0  0  0  0  0
  -28.4190  -25.4370   18.9750 C   0  0  0  0  0  2  0  0  0  0  0  0
  -28.5150  -26.6940   19.6570 O   0  0  0  0  0  0  0  0  0  0  0  0
  -24.7600  -31.6420   23.2030 C   0  0  0  0  0  0  0  0  0  0  0  0
  -27.3290  -27.4040   19.7680 C   0  0  0  0  0  0  0  0  0  0  0  0
  -23.5130  -30.3340   21.5210 C   0  0  0  0  0  3  0  0  0  0  0  0
  -24.9280  -28.9010   19.9710 C   0  0  0  0  0  0  0  0  0  0  0  0
  -26.0360  -30.7150   21.2730 C   0  0  0  0  0  2  0  0  0  0  0  0
  -26.1060  -29.3860   20.5500 C   0  0  0  0  0  0  0  0  0  0  0  0
  -27.3080  -28.6440   20.4510 C   0  0  0  0  0  3  0  0  0  0  0  0
  -26.1110  -26.9330   19.2110 C   0  0  0  0  0  3  0  0  0  0  0  0
  -24.9230  -27.6700   19.3040 C   0  0  0  0  0  3  0  0  0  0  0  0
  -23.6850  -29.7460   20.0980 C   0  0  0  0  0  2  0  0  0  0  0  0
  -24.7900  -30.9090   22.0570 N   0  0  0  0  0  0  0  0  0  0  0  0
  -23.6930  -31.8760   23.7890 O   0  0  0  0  0  0  0  0  0  0  0  0
  -22.8990  -29.2480   22.4340 C   0  0  0  0  0  0  0  0  0  0  0  0
  -21.6010  -28.9630   22.2330 N   0  0  0  0  0  0  0  0  0  0  0  0
  -23.5870  -28.6650   23.2760 O   0  0  0  0  0  0  0  0  0  0  0  0
  -21.1050  -29.4890   21.5280 H   0  0  0  0  0  0  0  0  0  0  0  0
  -18.3540  -27.3910   22.4230 C   0  0  0  0  0  0  0  0  0  0  0  0
  -20.8210  -27.9560   22.9510 C   0  0  0  0  0  3  0  0  0  0  0  0
  -21.1480  -26.5320   22.4440 C   0  0  0  0  0  2  0  0  0  0  0  0
  -20.2060  -26.0540   21.3350 C   0  0  0  0  0  2  0  0  0  0  0  0
  -18.7560  -26.0530   21.8250 C   0  0  0  0  0  2  0  0  0  0  0  0
  -19.3240  -28.2910   22.9380 C   0  0  0  0  0  0  0  0  0  0  0  0
  -18.9000  -29.5370   23.4490 C   0  0  0  0  0  3  0  0  0  0  0  0
  -17.5360  -29.8850   23.4570 C   0  0  0  0  0  3  0  0  0  0  0  0
  -16.5790  -28.9830   22.9630 C   0  0  0  0  0  3  0  0  0  0  0  0
  -16.9870  -27.7390   22.4500 C   0  0  0  0  0  3  0  0  0  0  0  0
  -26.0610  -32.2450   23.8210 C   0  0  0  0  0  3  0  0  0  0  0  0
  -26.6060  -31.4180   25.0500 C   0  0  1  0  0  0  0  0  0  0  0  0
  -25.5300  -31.1090   26.1160 C   0  0  0  0  0  1  0  0  0  0  0  0
  -27.2050  -30.0730   24.5810 C   0  0  0  0  0  1  0  0  0  0  0  0
  -27.7530  -32.1970   25.7370 C   0  0  0  0  0  1  0  0  0  0  0  0
  -25.7620  -33.6270   24.2140 N   0  0  0  0  0  0  0  0  0  0  0  0
  -26.0740  -34.7090   23.4860 C   0  0  0  0  0  0  0  0  0  0  0  0
  -26.7160  -34.6450   22.4350 O   0  0  0  0  0  0  0  0  0  0  0  0
  -25.1870  -33.7500   25.0340 H   0  0  0  0  0  0  0  0  0  0  0  0
  -24.3270  -36.5030   23.2600 C   0  0  0  0  0  1  0  0  0  0  0  0
  -25.5980  -36.0760   24.0120 C   0  0  0  0  0  3  0  0  0  0  0  0
  -27.7570  -36.9380   24.8020 C   0  0  0  0  0  1  0  0  0  0  0  0
  -26.6230  -37.1370   23.9020 N   0  0  0  0  0  0  0  0  0  0  0  0
  -26.2200  -38.0490   24.0960 H   0  0  0  0  0  0  0  0  0  0  0  0
  -28.7280  -18.7780   21.3260 C   0  0  0  0  0  2  0  0  0  0  0  0
  -31.1160  -14.3170   19.6160 C   0  0  0  0  0  0  0  0  0  0  0  0
  -30.4960  -12.2500   18.4130 C   0  0  0  0  0  2  0  0  0  0  0  0
  -29.4060  -12.4840   17.3450 C   0  0  0  0  0  2  0  0  0  0  0  0
  -28.0080  -12.3090   17.9620 C   0  0  0  0  0  2  0  0  0  0  0  0
  -27.8500  -13.1280   19.2630 C   0  0  0  0  0  3  0  0  0  0  0  0
  -29.0360  -12.8960   20.2110 C   0  0  0  0  0  2  0  0  0  0  0  0
  -30.3030  -13.2150   19.5230 N   0  0  0  0  0  0  0  0  0  0  0  0
  -31.9960  -14.4990   18.7690 O   0  0  0  0  0  0  0  0  0  0  0  0
  -30.2960  -15.2770   21.8950 C   0  0  0  0  0  2  0  0  0  0  0  0
  -31.7060  -16.5630   20.4280 C   0  0  0  0  0  2  0  0  0  0  0  0
  -29.1730  -16.3650   21.9180 C   0  0  0  0  0  2  0  0  0  0  0  0
  -31.0250  -17.7480   21.1560 C   0  0  0  0  0  2  0  0  0  0  0  0
  -30.9580  -15.2830   20.5770 N   0  0  0  0  0  0  0  0  0  0  0  0
  -29.5530  -17.5540   21.0890 N   0  0  2  0  0  4  0  0  0  0  0  0
  -29.3520  -17.2640   20.1440 H   0  0  0  0  0  0  0  0  0  0  0  0
  -25.6510  -13.7220   20.4610 C   0  0  0  0  0  0  0  0  0  0  0  0
  -24.6310  -12.9420   20.9370 C   0  0  0  0  0  0  0  0  0  0  0  0
  -25.0140  -11.5910   20.6790 C   0  0  0  0  0  0  0  0  0  0  0  0
  -26.5890  -12.8420   19.9410 N   0  0  0  0  0  0  0  0  0  0  0  0
  -26.2220  -11.5490   20.1360 N   0  0  0  0  0  0  0  0  0  0  0  0
  -24.2710  -10.3350   20.8630 C   0  0  0  0  0  0  0  0  0  0  0  0
  -24.7680   -9.2970   21.6810 C   0  0  0  0  0  3  0  0  0  0  0  0
  -24.0300   -8.1050   21.8510 C   0  0  0  0  0  3  0  0  0  0  0  0
  -22.7810   -7.9470   21.2040 C   0  0  0  0  0  0  0  0  0  0  0  0
  -22.3030   -8.9760   20.3720 C   0  0  0  0  0  3  0  0  0  0  0  0
  -23.0410  -10.1590   20.2000 C   0  0  0  0  0  3  0  0  0  0  0  0
  -22.0050   -6.8170   21.2910 O   0  0  0  0  0  0  0  0  0  0  0  0
  -22.0120   -6.0230   22.4110 C   0  0  0  0  0  0  0  0  0  0  0  0
  -21.6840   -6.5330   23.6880 C   0  0  0  0  0  3  0  0  0  0  0  0
  -21.6350   -5.6690   24.7990 C   0  0  0  0  0  3  0  0  0  0  0  0
  -21.9030   -4.2960   24.6370 C   0  0  0  0  0  0  0  0  0  0  0  0
  -22.2230   -3.7870   23.3660 C   0  0  0  0  0  3  0  0  0  0  0  0
  -22.2750   -4.6470   22.2560 C   0  0  0  0  0  0  0  0  0  0  0  0
  -22.5620   -4.1460   21.0310 F   0  0  0  0  0  0  0  0  0  0  0  0
  -21.8490   -3.4640   25.7030 F   0  0  0  0  0  0  0  0  0  0  0  0
  -23.3250  -13.4260   21.5010 C   0  0  0  0  0  0  0  0  0  0  0  0
  -22.7460  -12.6790   22.4330 N   0  0  0  0  0  0  0  0  0  0  0  0
  -22.8360  -14.4990   21.1480 O   0  0  0  0  0  0  0  0  0  0  0  0
  -23.1560  -11.8080   22.7350 H   0  0  0  0  0  0  0  0  0  0  0  0
  -21.8750  -12.9810   22.8480 H   0  0  0  0  0  0  0  0  0  0  0  0
  -25.8500  -15.0980   20.4000 N   0  0  0  0  0  0  0  0  0  0  0  0
  -25.0940  -15.7320   20.6370 H   0  0  0  0  0  0  0  0  0  0  0  0
  -26.5430  -15.5220   19.8010 H   0  0  0  0  0  0  0  0  0  0  0  0
  2  3  1  0
  3  1  2  0
  3 53  1  0
  4  5  2  0
  5  1  1  0
  6  4  1  0
  6  2  2  0
  7  9  1  0
  8  7  1  0
  8  9  1  0
  9 10  1  1
  9  4  1  0
 10 11  1  0
 11 12  1  0
 12 14  1  0
 13 24  2  0
 14 19  1  0
 15 23  1  0
 15 25  1  0
 16 22  1  0
 16 18  1  0
 17 23  1  0
 18 17  1  0
 19 18  2  0
 20 21  1  0
 20 14  2  0
 21 16  2  0
 22 15  1  0
 23 13  1  0
 25 27  2  0
 26 25  1  0
 28 26  1  0
 29 38  2  0
 29 34  1  0
 30 26  1  0
 31 30  1  0
 32 33  1  0
 32 31  1  0
 33 29  1  0
 34 30  1  0
 34 35  2  0
 35 36  1  0
 37 36  2  0
 38 37  1  0
 39 13  1  0
 39 44  1  0
 39 40  1  0
 40 43  1  1
 40 41  1  0
 42 40  1  0
 44 47  1  0
 45 49  1  0
 45 44  1  0
 46 45  2  0
 49 48  1  0
 51 49  1  0
 51 52  1  0
 51 50  1  0
 54 66  1  0
 55 60  1  0
 56 57  1  0
 56 55  1  0
 58 57  1  0
 58 72  1  0
 58 59  1  0
 60 54  1  0
 60 59  1  0
 61 54  2  0
 62 64  1  0
 63 66  1  0
 63 65  1  0
 66 62  1  0
 67 65  1  0
 67 53  1  0
 67 64  1  0
 67 68  1  6
 69 70  2  0
 70 89  1  0
 71 74  1  0
 71 70  1  0
 72 73  1  0
 72 69  1  0
 73 71  2  0
 74 75  1  0
 75 76  2  0
 77 80  1  0
 77 76  1  0
 78 77  2  0
 79 78  1  0
 79 74  2  0
 80 81  1  0
 81 82  1  0
 82 83  2  0
 84 83  1  0
 84 88  1  0
 85 84  2  0
 86 81  2  0
 86 85  1  0
 87 86  1  0
 89 90  1  0
 90 92  1  0
 90 93  1  0
 91 89  2  0
 94 69  1  0
 94 95  1  0
 96 94  1  0
M  ISO  4  11 101  12 101  54 100  66 100
M  END
>  <TORSDO>  (87) 
F 20

>  <SCORE>  (87) 
-9.885

>  <name>  (87) 
86

>  <ligand_id>  (87) 
86

>  <original_smiles>  (87) 
[H]c1nc(C2(C([H])([H])C([H])([H])Oc3c([H])c([H])c4c(c3[H])C([H])([H])N(C(=O)C([H])(N([H])C(=O)C([H])(N([H])C([H])([H])[H])C([H])([H])[H])C(C([H])([H])[H])(C([H])([H])[H])C([H])([H])[H])C([H])(C(=O)N([H])C3([H])c5c([H])c([H])c([H])c([H])c5C([H])([H])C([H])([H])C3([H])[H])C4([H])[H])C([H])([H])C2([H])[H])nc([H])c1C([H])([H])[N+]1([H])C([H])([H])C([H])([H])N(C(=O)N2C([H])([H])C([H])([H])C([H])([H])C([H])(n3nc(-c4c([H])c([H])c(Oc5c([H])c([H])c(F)c([H])c5F)c([H])c4[H])c(C(=O)N([H])[H])c3N([H])[H])C2([H])[H])C([H])([H])C1([H])[H]

>  <smiles>  (87) 
[H]c1nc(C2(C([H])([H])C([H])([H])Oc3c([H])c([H])c4c(c3[H])C([H])([H])N(C(=O)C([H])(N([H])C(=O)C([H])(N([H])C([H])([H])[H])C([H])([H])[H])C(C([H])([H])[H])(C([H])([H])[H])C([H])([H])[H])C([H])(C(=O)N([H])C3([H])c5c([H])c([H])c([H])c([H])c5C([H])([H])C([H])([H])C3([H])[H])C4([H])[H])C([H])([H])C2([H])[H])nc([H])c1C([H])([H])[N+]1([H])C([H])([H])C([H])([H])N(C(=O)N2C([H])([H])C([H])([H])C([H])([H])C([H])(n3nc(-c4c([H])c([H])c(Oc5c([H])c([H])c(F)c([H])c5F)c([H])c4[H])c(C(=O)N([H])[H])c3N([H])[H])C2([H])[H])C([H])([H])C1([H])[H]

$$$$
87:0:0
     RDKit          3D

101110  0  0  1  0  0  0  0  0999 V2000
  -31.3740  -22.0780   22.1640 C   0  0  0  0  0  2  0  0  0  0  0  0
  -30.1620  -21.2620   21.8400 C   0  0  0  0  0  3  0  0  0  0  0  0
  -31.1780  -21.5810   20.7400 C   0  0  0  0  0  3  0  0  0  0  0  0
  -30.8560  -16.6630   22.4150 C   0  0  0  0  0  0  0  0  0  0  0  0
  -30.3870  -18.6780   22.6630 C   0  0  0  0  0  3  0  0  0  0  0  0
  -30.5990  -17.8040   21.6810 N   0  0  0  0  0  0  0  0  0  0  0  0
  -30.8680  -16.8200   23.7320 N   0  0  0  0  0  2  0  0  0  0  0  0
  -30.5860  -18.1370   23.8800 N   0  0  0  0  0  0  0  0  0  0  0  0
  -29.9480  -20.0080   22.5750 N   0  0  0  0  0  0  0  0  0  0  0  0
  -29.5380  -20.2450   23.4710 H   0  0  0  0  0  0  0  0  0  0  0  0
  -31.7340  -18.3490   26.0910 C   0  0  0  0  0  1  0  0  0  0  0  0
  -30.5160  -18.7130   25.2170 C   0  0  0  0  0  2  0  0  0  0  0  0
  -31.1180  -15.2980   21.8530 C   0  0  0  0  0  2  0  0  0  0  0  0
  -31.1560  -14.6260   19.3840 C   0  0  0  0  0  0  0  0  0  0  0  0
  -30.7120  -12.3470   18.6220 C   0  0  0  0  0  2  0  0  0  0  0  0
  -29.6610  -12.2750   17.5080 C   0  0  0  0  0  2  0  0  0  0  0  0
  -28.2980  -12.0280   18.1610 C   0  0  0  0  0  2  0  0  0  0  0  0
  -27.9660  -13.1110   19.2140 C   0  0  0  0  0  3  0  0  0  0  0  0
  -29.1230  -13.3400   20.2200 C   0  0  0  0  0  2  0  0  0  0  0  0
  -30.4230  -13.4830   19.5280 N   0  0  0  0  0  0  0  0  0  0  0  0
  -31.8150  -14.8890   18.3800 O   0  0  0  0  0  0  0  0  0  0  0  0
  -31.4780  -15.3520   20.4540 N   0  0  0  0  0  0  0  0  0  0  0  0
  -32.1380  -16.0870   20.2400 H   0  0  0  0  0  0  0  0  0  0  0  0
  -25.7410  -13.6920   20.3830 C   0  0  0  0  0  0  0  0  0  0  0  0
  -24.7100  -12.9110   20.8310 C   0  0  0  0  0  0  0  0  0  0  0  0
  -25.0970  -11.5590   20.5870 C   0  0  0  0  0  0  0  0  0  0  0  0
  -26.6930  -12.8130   19.8870 N   0  0  0  0  0  0  0  0  0  0  0  0
  -26.3160  -11.5180   20.0690 N   0  0  0  0  0  0  0  0  0  0  0  0
  -24.3480  -10.3090   20.7720 C   0  0  0  0  0  0  0  0  0  0  0  0
  -24.6790   -9.4090   21.8090 C   0  0  0  0  0  3  0  0  0  0  0  0
  -23.9390   -8.2180   21.9800 C   0  0  0  0  0  3  0  0  0  0  0  0
  -22.8530   -7.9240   21.1190 C   0  0  0  0  0  0  0  0  0  0  0  0
  -22.5430   -8.8180   20.0800 C   0  0  0  0  0  3  0  0  0  0  0  0
  -23.2790  -10.0010   19.9060 C   0  0  0  0  0  3  0  0  0  0  0  0
  -22.0960   -6.7770   21.1820 O   0  0  0  0  0  0  0  0  0  0  0  0
  -21.4800   -6.3940   22.3420 C   0  0  0  0  0  0  0  0  0  0  0  0
  -20.7260   -7.2960   23.1250 C   0  0  0  0  0  3  0  0  0  0  0  0
  -20.0440   -6.8380   24.2700 C   0  0  0  0  0  3  0  0  0  0  0  0
  -20.1100   -5.4780   24.6350 C   0  0  0  0  0  0  0  0  0  0  0  0
  -20.8470   -4.5730   23.8490 C   0  0  0  0  0  3  0  0  0  0  0  0
  -21.5290   -5.0330   22.7060 C   0  0  0  0  0  0  0  0  0  0  0  0
  -22.2230   -4.1530   21.9470 F   0  0  0  0  0  0  0  0  0  0  0  0
  -19.4490   -5.0380   25.7320 F   0  0  0  0  0  0  0  0  0  0  0  0
  -23.4090  -13.3990   21.3950 C   0  0  0  0  0  0  0  0  0  0  0  0
  -22.8790  -12.7100   22.3980 N   0  0  0  0  0  0  0  0  0  0  0  0
  -22.8650  -14.4210   20.9790 O   0  0  0  0  0  0  0  0  0  0  0  0
  -23.3270  -11.8840   22.7690 H   0  0  0  0  0  0  0  0  0  0  0  0
  -21.9840  -12.9970   22.7600 H   0  0  0  0  0  0  0  0  0  0  0  0
  -25.9130  -15.0720   20.3410 N   0  0  0  0  0  0  0  0  0  0  0  0
  -25.1820  -15.7140   20.6500 H   0  0  0  0  0  0  0  0  0  0  0  0
  -26.6890  -15.5360   19.8880 H   0  0  0  0  0  0  0  0  0  0  0  0
  -30.7430  -22.5220   19.6840 N   0  0  0  0  0  0  0  0  0  0  0  0
  -31.0420  -22.1790   18.7750 H   0  0  0  0  0  0  0  0  0  0  0  0
  -31.0270  -23.9610   19.8970 C   0  0  0  0  0  2  0  0  0  0  0  0
  -30.1640  -24.9800   19.0530 C   0  0  0  0  0  3  0  0  0  0  0  0
  -30.6690  -24.1590   16.7260 C   0  0  0  0  0  1  0  0  0  0  0  0
  -30.8080  -25.2260   17.7400 N   0  0  0  0  0  4  0  0  0  0  0  0
  -30.3920  -26.0620   17.3510 H   0  0  0  0  0  0  0  0  0  0  0  0
  -31.7890  -25.4270   17.8820 H   0  0  0  0  0  0  0  0  0  0  0  0
  -29.9580  -26.3620   19.7750 C   0  0  0  0  0  2  0  0  0  0  0  0
  -29.3830  -27.4280   18.9640 O   0  0  0  0  0  0  0  0  0  0  0  0
  -26.4740  -29.8540   25.0190 C   0  0  0  0  0  0  0  0  0  0  0  0
  -28.3850  -28.1690   19.5680 C   0  0  0  0  0  0  0  0  0  0  0  0
  -25.0730  -30.0230   22.9860 C   0  0  0  0  0  3  0  0  0  0  0  0
  -26.2790  -29.6270   20.7720 C   0  0  0  0  0  0  0  0  0  0  0  0
  -27.6260  -30.1090   22.8220 C   0  0  0  0  0  2  0  0  0  0  0  0
  -27.5020  -29.4870   21.4440 C   0  0  0  0  0  0  0  0  0  0  0  0
  -28.5610  -28.7660   20.8410 C   0  0  0  0  0  3  0  0  0  0  0  0
  -27.1550  -28.3410   18.9020 C   0  0  0  0  0  3  0  0  0  0  0  0
  -26.1040  -29.0640   19.4960 C   0  0  0  0  0  3  0  0  0  0  0  0
  -25.1840  -30.3920   21.4820 C   0  0  0  0  0  2  0  0  0  0  0  0
  -26.4110  -29.9700   23.6620 N   0  0  0  0  0  0  0  0  0  0  0  0
  -25.4450  -29.8320   25.7100 O   0  0  0  0  0  0  0  0  0  0  0  0
  -24.2720  -28.7070   23.1180 C   0  0  0  0  0  0  0  0  0  0  0  0
  -22.9970  -28.7370   22.6990 N   0  0  0  0  0  0  0  0  0  0  0  0
  -24.8020  -27.6850   23.5620 O   0  0  0  0  0  0  0  0  0  0  0  0
  -22.6340  -29.6130   22.3510 H   0  0  0  0  0  0  0  0  0  0  0  0
  -19.7300  -27.6590   21.5950 C   0  0  0  0  0  0  0  0  0  0  0  0
  -22.0690  -27.6070   22.6930 C   0  0  0  0  0  3  0  0  0  0  0  0
  -22.4470  -26.5810   21.6010 C   0  0  0  0  0  2  0  0  0  0  0  0
  -21.7170  -26.8170   20.2730 C   0  0  0  0  0  2  0  0  0  0  0  0
  -20.2000  -26.7470   20.4750 C   0  0  0  0  0  2  0  0  0  0  0  0
  -20.6120  -28.0750   22.6280 C   0  0  0  0  0  0  0  0  0  0  0  0
  -20.1330  -28.9510   23.6270 C   0  0  0  0  0  3  0  0  0  0  0  0
  -18.8020  -29.4080   23.6060 C   0  0  0  0  0  3  0  0  0  0  0  0
  -17.9290  -28.9810   22.5900 C   0  0  0  0  0  3  0  0  0  0  0  0
  -18.3910  -28.1060   21.5910 C   0  0  0  0  0  3  0  0  0  0  0  0
  -27.8390  -29.7730   25.7710 C   0  0  0  0  0  3  0  0  0  0  0  0
  -27.7070  -30.5510   27.0100 N   0  0  0  0  0  0  0  0  0  0  0  0
  -28.3410  -31.7050   27.2550 C   0  0  0  0  0  0  0  0  0  0  0  0
  -29.1660  -32.1950   26.4780 O   0  0  0  0  0  0  0  0  0  0  0  0
  -27.0070  -30.2380   27.6660 H   0  0  0  0  0  0  0  0  0  0  0  0
  -27.1340  -33.6610   28.2830 C   0  0  0  0  0  1  0  0  0  0  0  0
  -28.0080  -32.4300   28.5740 C   0  0  0  0  0  3  0  0  0  0  0  0
  -29.9570  -31.7190   29.8870 C   0  0  0  0  0  1  0  0  0  0  0  0
  -29.2050  -32.8430   29.3370 N   0  0  0  0  0  0  0  0  0  0  0  0
  -28.9470  -33.4580   30.1040 H   0  0  0  0  0  0  0  0  0  0  0  0
  -28.2890  -28.2940   26.0890 C   0  0  1  0  0  0  0  0  0  0  0  0
  -27.1810  -27.4360   26.7430 C   0  0  0  0  0  1  0  0  0  0  0  0
  -28.7460  -27.5710   24.7990 C   0  0  0  0  0  1  0  0  0  0  0  0
  -29.5040  -28.3090   27.0440 C   0  0  0  0  0  1  0  0  0  0  0  0
  2  1  1  0
  2  9  1  0
  3 52  1  0
  3  2  1  0
  3  1  1  0
  4  7  1  0
  5  9  1  0
  5  8  1  0
  6  4  2  0
  6  5  1  0
  7  8  1  0
  8 12  1  0
  9 10  1  0
 12 11  1  0
 13  4  1  0
 14 20  1  0
 14 22  1  0
 15 20  1  0
 16 17  1  0
 16 15  1  0
 18 17  1  0
 18 27  1  0
 18 19  1  0
 20 19  1  0
 21 14  2  0
 22 13  1  0
 23 22  1  0
 24 25  2  0
 25 44  1  0
 26 29  1  0
 26 25  1  0
 27 28  1  0
 27 24  1  0
 28 26  2  0
 29 30  1  0
 30 31  2  0
 32 35  1  0
 32 31  1  0
 33 32  2  0
 34 33  1  0
 34 29  2  0
 35 36  1  0
 36 41  2  0
 36 37  1  0
 37 38  2  0
 38 39  1  0
 39 43  1  0
 40 39  2  0
 41 40  1  0
 42 41  1  0
 44 45  1  0
 45 48  1  0
 45 47  1  0
 46 44  2  0
 49 24  1  0
 49 50  1  0
 51 49  1  0
 52 54  1  0
 53 52  1  0
 55 60  1  0
 55 54  1  0
 56 57  1  0
 57 59  1  0
 57 55  1  0
 58 57  1  0
 61 63  1  0
 61 60  1  0
 62 73  2  0
 63 68  1  0
 64 74  1  0
 64 72  1  0
 65 67  1  0
 65 71  1  0
 66 72  1  0
 67 66  1  0
 68 67  2  0
 69 70  1  0
 69 63  2  0
 70 65  2  0
 71 64  1  0
 72 62  1  0
 74 76  2  0
 75 74  1  0
 77 75  1  0
 78 83  1  0
 79 75  1  0
 80 79  1  0
 81 82  1  0
 81 80  1  0
 82 78  1  0
 83 79  1  0
 83 84  2  0
 85 84  1  0
 86 85  2  0
 87 78  2  0
 87 86  1  0
 88 62  1  0
 88 98  1  0
 88 89  1  0
 89 90  1  0
 89 92  1  0
 90 94  1  0
 91 90  2  0
 94 93  1  0
 94 96  1  0
 96 95  1  0
 96 97  1  0
 98 99  1  1
 98101  1  0
100 98  1  0
M  ISO  4  14 100  22 100  60 101  61 101
M  END
>  <TORSDO>  (88) 
F 24

>  <SCORE>  (88) 
3.566

>  <name>  (88) 
87

>  <ligand_id>  (88) 
87

>  <original_smiles>  (88) 
[H]c1c([H])c([H])c2c(c1[H])C([H])([H])C([H])([H])C([H])([H])C2([H])N([H])C(=O)C1([H])N(C(=O)C([H])(N([H])C(=O)C([H])(N([H])C([H])([H])[H])C([H])([H])[H])C(C([H])([H])[H])(C([H])([H])[H])C([H])([H])[H])C([H])([H])c2c([H])c(OC([H])([H])C([H])(C([H])([H])N([H])C3([H])C([H])([H])C3([H])N([H])c3nc(C([H])([H])N([H])C(=O)N4C([H])([H])C([H])([H])C([H])([H])C([H])(n5nc(-c6c([H])c([H])c(Oc7c([H])c([H])c(F)c([H])c7F)c([H])c6[H])c(C(=O)N([H])[H])c5N([H])[H])C4([H])[H])nn3C([H])([H])C([H])([H])[H])[N+]([H])([H])C([H])([H])[H])c([H])c([H])c2C1([H])[H]

>  <smiles>  (88) 
[H]c1c([H])c([H])c2c(c1[H])C([H])([H])C([H])([H])C([H])([H])C2([H])N([H])C(=O)C1([H])N(C(=O)C([H])(N([H])C(=O)C([H])(N([H])C([H])([H])[H])C([H])([H])[H])C(C([H])([H])[H])(C([H])([H])[H])C([H])([H])[H])C([H])([H])c2c([H])c(OC([H])([H])C([H])(C([H])([H])N([H])C3([H])C([H])([H])C3([H])N([H])c3nc(C([H])([H])N([H])C(=O)N4C([H])([H])C([H])([H])C([H])([H])C([H])(n5nc(-c6c([H])c([H])c(Oc7c([H])c([H])c(F)c([H])c7F)c([H])c6[H])c(C(=O)N([H])[H])c5N([H])[H])C4([H])[H])nn3C([H])([H])C([H])([H])[H])[N+]([H])([H])C([H])([H])[H])c([H])c([H])c2C1([H])[H]

$$$$
88:0:0
     RDKit          3D

 90 99  0  0  1  0  0  0  0  0999 V2000
  -29.8770  -21.6390   21.0350 C   0  0  0  0  0  3  0  0  0  0  0  0
  -29.6200  -20.4750   20.3440 C   0  0  0  0  0  0  0  0  0  0  0  0
  -28.7690  -20.8360   19.2940 N   0  0  0  0  0  0  0  0  0  0  0  0
  -28.5410  -22.1280   19.3070 N   0  0  0  0  0  0  0  0  0  0  0  0
  -29.2170  -22.6700   20.3550 N   0  0  0  0  0  0  0  0  0  0  0  0
  -29.8210  -18.2220   21.5460 C   0  0  0  0  0  2  0  0  0  0  0  0
  -29.9880  -18.0770   19.4990 C   0  0  0  0  0  2  0  0  0  0  0  0
  -30.4890  -17.1460   20.6380 C   0  0  0  0  0  3  0  0  0  0  0  0
  -30.2070  -19.1550   20.4760 N   0  0  0  0  0  0  0  0  0  0  0  0
  -30.6690  -14.6330   20.2970 C   0  0  0  0  0  0  0  0  0  0  0  0
  -30.3750  -12.4200   19.2220 C   0  0  0  0  0  2  0  0  0  0  0  0
  -29.4070  -12.5650   18.0290 C   0  0  0  0  0  2  0  0  0  0  0  0
  -27.9480  -12.4080   18.4950 C   0  0  0  0  0  2  0  0  0  0  0  0
  -27.6220  -13.2670   19.7470 C   0  0  0  0  0  3  0  0  0  0  0  0
  -28.7080  -13.1220   20.8360 C   0  0  0  0  0  2  0  0  0  0  0  0
  -30.0020  -13.4420   20.2200 N   0  0  0  0  0  0  0  0  0  0  0  0
  -31.8220  -14.7480   19.8740 O   0  0  0  0  0  0  0  0  0  0  0  0
  -29.9640  -15.7410   20.6760 N   0  0  0  0  0  0  0  0  0  0  0  0
  -29.0120  -15.6030   20.9760 H   0  0  0  0  0  0  0  0  0  0  0  0
  -25.2530  -13.8590   20.5400 C   0  0  0  0  0  0  0  0  0  0  0  0
  -24.1940  -13.0830   20.9270 C   0  0  0  0  0  0  0  0  0  0  0  0
  -24.6510  -11.7310   20.8610 C   0  0  0  0  0  0  0  0  0  0  0  0
  -26.2880  -12.9810   20.2650 N   0  0  0  0  0  0  0  0  0  0  0  0
  -25.9330  -11.6950   20.5170 N   0  0  0  0  0  0  0  0  0  0  0  0
  -23.9240  -10.4670   21.0500 C   0  0  0  0  0  0  0  0  0  0  0  0
  -24.3750   -9.4860   21.9600 C   0  0  0  0  0  3  0  0  0  0  0  0
  -23.6490   -8.2880   22.1390 C   0  0  0  0  0  3  0  0  0  0  0  0
  -22.4600   -8.0630   21.4040 C   0  0  0  0  0  0  0  0  0  0  0  0
  -22.0290   -9.0330   20.4830 C   0  0  0  0  0  3  0  0  0  0  0  0
  -22.7550  -10.2220   20.3030 C   0  0  0  0  0  3  0  0  0  0  0  0
  -21.7050   -6.9180   21.4930 O   0  0  0  0  0  0  0  0  0  0  0  0
  -21.6640   -6.1690   22.6410 C   0  0  0  0  0  0  0  0  0  0  0  0
  -21.2220   -6.7110   23.8680 C   0  0  0  0  0  3  0  0  0  0  0  0
  -21.1290   -5.8870   25.0080 C   0  0  0  0  0  3  0  0  0  0  0  0
  -21.4700   -4.5240   24.9230 C   0  0  0  0  0  0  0  0  0  0  0  0
  -21.9050   -3.9820   23.7000 C   0  0  0  0  0  3  0  0  0  0  0  0
  -21.9980   -4.8030   22.5620 C   0  0  0  0  0  0  0  0  0  0  0  0
  -22.3980   -4.2710   21.3820 F   0  0  0  0  0  0  0  0  0  0  0  0
  -21.3740   -3.7310   26.0150 F   0  0  0  0  0  0  0  0  0  0  0  0
  -22.8060  -13.5600   21.2440 C   0  0  0  0  0  0  0  0  0  0  0  0
  -22.1010  -12.8540   22.1220 N   0  0  0  0  0  0  0  0  0  0  0  0
  -22.3560  -14.5920   20.7480 O   0  0  0  0  0  0  0  0  0  0  0  0
  -22.4780  -12.0190   22.5440 H   0  0  0  0  0  0  0  0  0  0  0  0
  -21.1710  -13.1560   22.3760 H   0  0  0  0  0  0  0  0  0  0  0  0
  -25.4150  -15.2330   20.3800 N   0  0  0  0  0  0  0  0  0  0  0  0
  -24.6490  -15.8840   20.5140 H   0  0  0  0  0  0  0  0  0  0  0  0
  -26.2460  -15.6730   20.0060 H   0  0  0  0  0  0  0  0  0  0  0  0
  -29.3340  -24.1530   20.5510 C   0  0  0  0  0  3  0  0  0  0  0  0
  -28.1730  -25.0970   20.0480 C   0  0  0  0  0  3  0  0  0  0  0  0
  -28.3590  -26.5440   20.2670 O   0  0  0  0  0  0  0  0  0  0  0  0
  -24.6420  -31.9290   23.2550 C   0  0  0  0  0  0  0  0  0  0  0  0
  -27.2330  -27.3740   20.2060 C   0  0  0  0  0  0  0  0  0  0  0  0
  -23.4300  -30.5350   21.6150 C   0  0  0  0  0  3  0  0  0  0  0  0
  -24.8720  -28.9790   20.1920 C   0  0  0  0  0  0  0  0  0  0  0  0
  -25.9690  -30.8460   21.4320 C   0  0  0  0  0  2  0  0  0  0  0  0
  -26.0420  -29.4680   20.7880 C   0  0  0  0  0  0  0  0  0  0  0  0
  -27.2250  -28.6770   20.7850 C   0  0  0  0  0  3  0  0  0  0  0  0
  -26.0410  -26.9320   19.5850 C   0  0  0  0  0  3  0  0  0  0  0  0
  -24.8730  -27.7150   19.5830 C   0  0  0  0  0  3  0  0  0  0  0  0
  -23.6400  -29.8570   20.2370 C   0  0  0  0  0  2  0  0  0  0  0  0
  -24.6990  -31.1200   22.1580 N   0  0  0  0  0  0  0  0  0  0  0  0
  -23.5600  -32.2130   23.7880 O   0  0  0  0  0  0  0  0  0  0  0  0
  -22.7630  -29.5230   22.5760 C   0  0  0  0  0  0  0  0  0  0  0  0
  -21.4370  -29.3500   22.4440 N   0  0  0  0  0  0  0  0  0  0  0  0
  -23.4360  -28.8950   23.3980 O   0  0  0  0  0  0  0  0  0  0  0  0
  -20.9530  -29.9070   21.7540 H   0  0  0  0  0  0  0  0  0  0  0  0
  -18.0480  -28.1940   22.9510 C   0  0  0  0  0  0  0  0  0  0  0  0
  -20.6100  -28.4210   23.2160 C   0  0  0  0  0  3  0  0  0  0  0  0
  -20.6930  -26.9890   22.6350 C   0  0  0  0  0  2  0  0  0  0  0  0
  -19.5840  -26.6830   21.6230 C   0  0  0  0  0  2  0  0  0  0  0  0
  -18.2060  -26.8430   22.2720 C   0  0  0  0  0  2  0  0  0  0  0  0
  -19.1770  -28.9400   23.3800 C   0  0  0  0  0  0  0  0  0  0  0  0
  -18.9750  -30.2050   23.9760 C   0  0  0  0  0  3  0  0  0  0  0  0
  -17.6760  -30.7210   24.1470 C   0  0  0  0  0  3  0  0  0  0  0  0
  -16.5630  -29.9710   23.7340 C   0  0  0  0  0  3  0  0  0  0  0  0
  -16.7490  -28.7090   23.1420 C   0  0  0  0  0  3  0  0  0  0  0  0
  -25.9290  -32.5530   23.8770 C   0  0  0  0  0  3  0  0  0  0  0  0
  -26.4480  -31.7710   25.1450 C   0  0  1  0  0  0  0  0  0  0  0  0
  -25.3570  -31.5230   26.2120 C   0  0  0  0  0  1  0  0  0  0  0  0
  -27.0320  -30.3970   24.7400 C   0  0  0  0  0  1  0  0  0  0  0  0
  -27.6000  -32.5590   25.8120 C   0  0  0  0  0  1  0  0  0  0  0  0
  -25.6240  -33.9490   24.2190 N   0  0  0  0  0  0  0  0  0  0  0  0
  -25.9290  -35.0050   23.4530 C   0  0  0  0  0  0  0  0  0  0  0  0
  -26.5680  -34.9060   22.4020 O   0  0  0  0  0  0  0  0  0  0  0  0
  -25.0530  -34.0990   25.0380 H   0  0  0  0  0  0  0  0  0  0  0  0
  -24.1740  -36.7840   23.1670 C   0  0  0  0  0  1  0  0  0  0  0  0
  -25.4490  -36.3900   23.9280 C   0  0  0  0  0  3  0  0  0  0  0  0
  -27.6050  -37.2960   24.6770 C   0  0  0  0  0  1  0  0  0  0  0  0
  -26.4680  -37.4510   23.7730 N   0  0  0  0  0  0  0  0  0  0  0  0
  -26.0610  -38.3680   23.9300 H   0  0  0  0  0  0  0  0  0  0  0  0
  2  9  1  0
  2  1  2  0
  3  4  2  0
  3  2  1  0
  4  5  1  0
  5 48  1  0
  5  1  1  0
  7  9  1  0
  7  8  1  0
  8 18  1  0
  8  6  1  0
  9  6  1  0
 10 18  1  0
 11 16  1  0
 12 13  1  0
 12 11  1  0
 14 13  1  0
 14 23  1  0
 14 15  1  0
 16 10  1  0
 16 15  1  0
 17 10  2  0
 18 19  1  0
 20 21  2  0
 21 40  1  0
 22 21  1  0
 22 25  1  0
 23 24  1  0
 23 20  1  0
 24 22  2  0
 25 26  1  0
 26 27  2  0
 28 31  1  0
 28 27  1  0
 29 28  2  0
 30 29  1  0
 30 25  2  0
 31 32  1  0
 32 33  1  0
 33 34  2  0
 35 34  1  0
 35 39  1  0
 36 35  2  0
 37 32  2  0
 37 36  1  0
 38 37  1  0
 40 41  1  0
 41 44  1  0
 41 43  1  0
 42 40  2  0
 45 46  1  0
 45 20  1  0
 47 45  1  0
 49 50  1  0
 49 48  2  0
 51 62  2  0
 52 50  1  0
 52 57  1  0
 53 61  1  0
 53 63  1  0
 54 60  1  0
 54 56  1  0
 55 61  1  0
 56 55  1  0
 57 56  2  0
 58 52  2  0
 59 58  1  0
 59 54  2  0
 60 53  1  0
 61 51  1  0
 63 65  2  0
 64 63  1  0
 66 64  1  0
 67 76  2  0
 67 72  1  0
 68 64  1  0
 68 72  1  0
 69 68  1  0
 70 71  1  0
 70 69  1  0
 71 67  1  0
 72 73  2  0
 73 74  1  0
 75 74  2  0
 76 75  1  0
 77 51  1  0
 77 82  1  0
 77 78  1  0
 78 81  1  1
 78 79  1  0
 80 78  1  0
 82 85  1  0
 83 87  1  0
 83 82  1  0
 84 83  2  0
 87 86  1  0
 89 87  1  0
 89 90  1  0
 89 88  1  0
M  ISO  4  10 100  18 100  49 101  50 101
M  END
>  <TORSDO>  (89) 
F 19

>  <SCORE>  (89) 
-14.012

>  <name>  (89) 
88

>  <ligand_id>  (89) 
88

>  <original_smiles>  (89) 
[H]c1c([H])c([H])c2c(c1[H])C([H])([H])C([H])([H])C([H])([H])C2([H])N([H])C(=O)C1([H])N(C(=O)C([H])(N([H])C(=O)C([H])(N([H])C([H])([H])[H])C([H])([H])[H])C(C([H])([H])[H])(C([H])([H])[H])C([H])([H])[H])C([H])([H])c2c([H])c(OC([H])([H])C([H])([H])n3nnc(N4C([H])([H])C([H])(N([H])C(=O)N5C([H])([H])C([H])([H])C([H])([H])C([H])(n6nc(-c7c([H])c([H])c(Oc8c([H])c([H])c(F)c([H])c8F)c([H])c7[H])c(C(=O)N([H])[H])c6N([H])[H])C5([H])[H])C4([H])[H])c3[H])c([H])c([H])c2C1([H])[H]

>  <smiles>  (89) 
[H]c1c([H])c([H])c2c(c1[H])C([H])([H])C([H])([H])C([H])([H])C2([H])N([H])C(=O)C1([H])N(C(=O)C([H])(N([H])C(=O)C([H])(N([H])C([H])([H])[H])C([H])([H])[H])C(C([H])([H])[H])(C([H])([H])[H])C([H])([H])[H])C([H])([H])c2c([H])c(OC([H])([H])C([H])([H])n3nnc(N4C([H])([H])C([H])(N([H])C(=O)N5C([H])([H])C([H])([H])C([H])([H])C([H])(n6nc(-c7c([H])c([H])c(Oc8c([H])c([H])c(F)c([H])c8F)c([H])c7[H])c(C(=O)N([H])[H])c6N([H])[H])C5([H])[H])C4([H])[H])c3[H])c([H])c([H])c2C1([H])[H]

$$$$
89:0:0
     RDKit          3D

 93102  0  0  1  0  0  0  0  0999 V2000
  -31.6580  -19.9510   19.3250 C   0  0  0  0  0  3  0  0  0  0  0  0
  -31.3040  -18.7610   20.0560 C   0  0  0  0  0  3  0  0  0  0  0  0
  -31.6240  -21.1240   19.9700 C   0  0  0  0  0  3  0  0  0  0  0  0
  -30.9690  -18.8080   21.3690 C   0  0  0  0  0  0  0  0  0  0  0  0
  -30.9830  -20.1070   22.0860 C   0  0  0  0  0  0  0  0  0  0  0  0
  -31.2780  -21.2130   21.3300 N   0  0  0  0  0  0  0  0  0  0  0  0
  -30.7280  -20.2090   23.2910 O   0  0  0  0  0  0  0  0  0  0  0  0
  -30.8790  -14.4870   20.0500 C   0  0  0  0  0  0  0  0  0  0  0  0
  -30.4590  -12.4420   18.7140 C   0  0  0  0  0  2  0  0  0  0  0  0
  -29.4360  -12.7430   17.5960 C   0  0  0  0  0  2  0  0  0  0  0  0
  -27.9880  -12.5740   18.1080 C   0  0  0  0  0  2  0  0  0  0  0  0
  -27.7600  -13.2960   19.4600 C   0  0  0  0  0  3  0  0  0  0  0  0
  -28.8920  -12.9570   20.4650 C   0  0  0  0  0  2  0  0  0  0  0  0
  -30.1700  -13.3370   19.8480 N   0  0  0  0  0  0  0  0  0  0  0  0
  -31.9470  -14.6930   19.4590 O   0  0  0  0  0  0  0  0  0  0  0  0
  -29.0950  -17.1920   21.8840 C   0  0  0  0  0  2  0  0  0  0  0  0
  -29.1320  -16.1010   20.8200 C   0  0  0  0  0  2  0  0  0  0  0  0
  -31.3090  -16.2450   21.7540 C   0  0  0  0  0  2  0  0  0  0  0  0
  -30.5520  -17.5410   22.1340 C   0  0  0  0  0  3  0  0  0  0  0  0
  -30.4070  -15.3800   20.9690 N   0  0  0  0  0  0  0  0  0  0  0  0
  -25.4160  -13.8930   20.3450 C   0  0  0  0  0  0  0  0  0  0  0  0
  -24.3780  -13.1140   20.7790 C   0  0  0  0  0  0  0  0  0  0  0  0
  -24.8370  -11.7630   20.6910 C   0  0  0  0  0  0  0  0  0  0  0  0
  -26.4410  -13.0170   20.0220 N   0  0  0  0  0  0  0  0  0  0  0  0
  -26.1010  -11.7310   20.2870 N   0  0  0  0  0  0  0  0  0  0  0  0
  -24.1260  -10.4970   20.9090 C   0  0  0  0  0  0  0  0  0  0  0  0
  -24.5750   -9.5560   21.8630 C   0  0  0  0  0  3  0  0  0  0  0  0
  -23.8710   -8.3500   22.0650 C   0  0  0  0  0  3  0  0  0  0  0  0
  -22.7020   -8.0790   21.3120 C   0  0  0  0  0  0  0  0  0  0  0  0
  -22.2730   -9.0060   20.3490 C   0  0  0  0  0  3  0  0  0  0  0  0
  -22.9800  -10.2040   20.1450 C   0  0  0  0  0  3  0  0  0  0  0  0
  -21.9640   -6.9250   21.4240 O   0  0  0  0  0  0  0  0  0  0  0  0
  -21.8450   -6.2590   22.6170 C   0  0  0  0  0  0  0  0  0  0  0  0
  -21.3080   -6.8790   23.7670 C   0  0  0  0  0  3  0  0  0  0  0  0
  -21.1370   -6.1360   24.9500 C   0  0  0  0  0  3  0  0  0  0  0  0
  -21.4980   -4.7750   24.9860 C   0  0  0  0  0  0  0  0  0  0  0  0
  -22.0290   -4.1540   23.8420 C   0  0  0  0  0  3  0  0  0  0  0  0
  -22.1980   -4.8940   22.6580 C   0  0  0  0  0  0  0  0  0  0  0  0
  -22.6910   -4.2880   21.5510 F   0  0  0  0  0  0  0  0  0  0  0  0
  -21.3250   -4.0600   26.1210 F   0  0  0  0  0  0  0  0  0  0  0  0
  -23.0040  -13.5880   21.1600 C   0  0  0  0  0  0  0  0  0  0  0  0
  -22.3390  -12.8780   22.0650 N   0  0  0  0  0  0  0  0  0  0  0  0
  -22.5300  -14.6200   20.6890 O   0  0  0  0  0  0  0  0  0  0  0  0
  -22.7480  -12.0480   22.4730 H   0  0  0  0  0  0  0  0  0  0  0  0
  -21.4160  -13.1690   22.3560 H   0  0  0  0  0  0  0  0  0  0  0  0
  -25.5630  -15.2670   20.1830 N   0  0  0  0  0  0  0  0  0  0  0  0
  -24.8190  -15.9200   20.3960 H   0  0  0  0  0  0  0  0  0  0  0  0
  -26.3940  -15.7110   19.8170 H   0  0  0  0  0  0  0  0  0  0  0  0
  -31.2420  -22.5750   21.8940 C   0  0  0  0  0  2  0  0  0  0  0  0
  -29.8550  -23.2460   21.7300 C   0  0  0  0  0  2  0  0  0  0  0  0
  -29.9550  -24.7260   21.2950 C   0  0  0  0  0  2  0  0  0  0  0  0
  -28.5910  -25.4040   21.0520 C   0  0  0  0  0  2  0  0  0  0  0  0
  -28.7430  -26.6600   20.3730 O   0  0  0  0  0  0  0  0  0  0  0  0
  -24.6450  -31.7080   23.1830 C   0  0  0  0  0  0  0  0  0  0  0  0
  -27.5670  -27.3650   20.2590 C   0  0  0  0  0  0  0  0  0  0  0  0
  -23.5580  -30.2650   21.4930 C   0  0  0  0  0  3  0  0  0  0  0  0
  -25.1240  -28.7770   20.1330 C   0  0  0  0  0  0  0  0  0  0  0  0
  -26.0720  -30.7180   21.3920 C   0  0  0  0  0  2  0  0  0  0  0  0
  -26.2330  -29.3470   20.7700 C   0  0  0  0  0  0  0  0  0  0  0  0
  -27.4590  -28.6500   20.8280 C   0  0  0  0  0  3  0  0  0  0  0  0
  -26.4490  -26.8070   19.5990 C   0  0  0  0  0  3  0  0  0  0  0  0
  -25.2290  -27.5060   19.5390 C   0  0  0  0  0  3  0  0  0  0  0  0
  -23.8490  -29.5910   20.1230 C   0  0  0  0  0  2  0  0  0  0  0  0
  -24.7750  -30.9120   22.0820 N   0  0  0  0  0  0  0  0  0  0  0  0
  -23.5360  -31.9390   23.6790 O   0  0  0  0  0  0  0  0  0  0  0  0
  -22.9040  -29.2220   22.4270 C   0  0  0  0  0  0  0  0  0  0  0  0
  -21.5860  -29.0170   22.2650 N   0  0  0  0  0  0  0  0  0  0  0  0
  -23.5800  -28.5990   23.2510 O   0  0  0  0  0  0  0  0  0  0  0  0
  -21.1020  -29.5720   21.5740 H   0  0  0  0  0  0  0  0  0  0  0  0
  -18.2140  -27.7950   22.7030 C   0  0  0  0  0  0  0  0  0  0  0  0
  -20.7680  -28.0570   23.0080 C   0  0  0  0  0  3  0  0  0  0  0  0
  -20.8840  -26.6410   22.3970 C   0  0  0  0  0  2  0  0  0  0  0  0
  -19.7930  -26.3380   21.3640 C   0  0  0  0  0  2  0  0  0  0  0  0
  -18.4040  -26.4630   21.9980 C   0  0  0  0  0  2  0  0  0  0  0  0
  -19.3250  -28.5500   23.1630 C   0  0  0  0  0  0  0  0  0  0  0  0
  -19.0960  -29.7990   23.7820 C   0  0  0  0  0  3  0  0  0  0  0  0
  -17.7870  -30.2930   23.9450 C   0  0  0  0  0  3  0  0  0  0  0  0
  -16.6900  -29.5340   23.5000 C   0  0  0  0  0  3  0  0  0  0  0  0
  -16.9050  -28.2870   22.8860 C   0  0  0  0  0  3  0  0  0  0  0  0
  -25.8820  -32.3810   23.8560 C   0  0  0  0  0  3  0  0  0  0  0  0
  -26.3800  -31.6210   25.1460 C   0  0  1  0  0  0  0  0  0  0  0  0
  -25.2570  -31.3370   26.1700 C   0  0  0  0  0  1  0  0  0  0  0  0
  -27.0240  -30.2690   24.7600 C   0  0  0  0  0  1  0  0  0  0  0  0
  -27.4770  -32.4510   25.8530 C   0  0  0  0  0  1  0  0  0  0  0  0
  -25.5130  -33.7670   24.1770 N   0  0  0  0  0  0  0  0  0  0  0  0
  -25.8290  -34.8300   23.4250 C   0  0  0  0  0  0  0  0  0  0  0  0
  -26.5350  -34.7510   22.4160 O   0  0  0  0  0  0  0  0  0  0  0  0
  -24.8920  -33.9000   24.9610 H   0  0  0  0  0  0  0  0  0  0  0  0
  -24.0440  -36.5520   23.0150 C   0  0  0  0  0  1  0  0  0  0  0  0
  -25.2760  -36.1990   23.8630 C   0  0  0  0  0  3  0  0  0  0  0  0
  -27.3500  -37.1700   24.7550 C   0  0  0  0  0  1  0  0  0  0  0  0
  -26.2700  -37.2910   23.7770 N   0  0  0  0  0  0  0  0  0  0  0  0
  -25.8270  -38.1960   23.9050 H   0  0  0  0  0  0  0  0  0  0  0  0
  1  3  2  0
  1  2  1  0
  2  4  2  0
  3  6  1  0
  4  5  1  0
  5  7  2  0
  6 49  1  0
  6  5  1  0
  8 20  1  0
  9 14  1  0
 10 11  1  0
 10  9  1  0
 12 11  1  0
 12 24  1  0
 12 13  1  0
 14  8  1  0
 14 13  1  0
 15  8  2  0
 16 19  1  0
 17 20  1  0
 17 16  1  0
 18 19  1  0
 19  4  1  0
 20 18  1  0
 21 22  2  0
 22 41  1  0
 23 22  1  0
 23 26  1  0
 24 25  1  0
 24 21  1  0
 25 23  2  0
 26 27  1  0
 27 28  2  0
 29 32  1  0
 29 28  1  0
 30 29  2  0
 31 30  1  0
 31 26  2  0
 32 33  1  0
 33 38  2  0
 33 34  1  0
 34 35  2  0
 35 36  1  0
 36 40  1  0
 37 36  2  0
 38 37  1  0
 39 38  1  0
 41 42  1  0
 42 45  1  0
 42 44  1  0
 43 41  2  0
 46 21  1  0
 46 47  1  0
 48 46  1  0
 50 49  1  0
 51 50  1  0
 52 51  1  0
 53 52  1  0
 54 65  2  0
 55 53  1  0
 55 60  1  0
 56 64  1  0
 56 66  1  0
 57 59  1  0
 58 64  1  0
 59 60  2  0
 59 58  1  0
 61 55  2  0
 62 61  1  0
 62 57  2  0
 63 57  1  0
 63 56  1  0
 64 54  1  0
 66 68  2  0
 67 66  1  0
 69 67  1  0
 70 79  2  0
 70 75  1  0
 71 67  1  0
 71 75  1  0
 72 71  1  0
 73 74  1  0
 73 72  1  0
 74 70  1  0
 75 76  2  0
 76 77  1  0
 78 77  2  0
 79 78  1  0
 80 54  1  0
 80 85  1  0
 80 81  1  0
 81 84  1  1
 81 82  1  0
 83 81  1  0
 85 88  1  0
 86 90  1  0
 86 85  1  0
 87 86  2  0
 90 89  1  0
 92 90  1  0
 92 93  1  0
 92 91  1  0
M  ISO  4   8 100  20 100  52 101  53 101
M  END
>  <TORSDO>  (90) 
F 20

>  <SCORE>  (90) 
-12.429

>  <name>  (90) 
89

>  <ligand_id>  (90) 
89

>  <original_smiles>  (90) 
[H]c1c([H])c([H])c2c(c1[H])C([H])([H])C([H])([H])C([H])([H])C2([H])N([H])C(=O)C1([H])N(C(=O)C([H])(N([H])C(=O)C([H])(N([H])C([H])([H])[H])C([H])([H])[H])C(C([H])([H])[H])(C([H])([H])[H])C([H])([H])[H])C([H])([H])c2c([H])c(OC([H])([H])C([H])([H])C([H])([H])C([H])([H])n3c([H])c([H])c([H])c(C4([H])C([H])([H])N(C(=O)N5C([H])([H])C([H])([H])C([H])([H])C([H])(n6nc(-c7c([H])c([H])c(Oc8c([H])c([H])c(F)c([H])c8F)c([H])c7[H])c(C(=O)N([H])[H])c6N([H])[H])C5([H])[H])C([H])([H])C4([H])[H])c3=O)c([H])c([H])c2C1([H])[H]

>  <smiles>  (90) 
[H]c1c([H])c([H])c2c(c1[H])C([H])([H])C([H])([H])C([H])([H])C2([H])N([H])C(=O)C1([H])N(C(=O)C([H])(N([H])C(=O)C([H])(N([H])C([H])([H])[H])C([H])([H])[H])C(C([H])([H])[H])(C([H])([H])[H])C([H])([H])[H])C([H])([H])c2c([H])c(OC([H])([H])C([H])([H])C([H])([H])C([H])([H])n3c([H])c([H])c([H])c(C4([H])C([H])([H])N(C(=O)N5C([H])([H])C([H])([H])C([H])([H])C([H])(n6nc(-c7c([H])c([H])c(Oc8c([H])c([H])c(F)c([H])c8F)c([H])c7[H])c(C(=O)N([H])[H])c6N([H])[H])C5([H])[H])C([H])([H])C4([H])[H])c3=O)c([H])c([H])c2C1([H])[H]

$$$$
90:0:0
     RDKit          3D

 92101  0  0  1  0  0  0  0  0999 V2000
  -29.5180  -20.5140   18.6710 C   0  0  0  0  0  3  0  0  0  0  0  0
  -28.7600  -22.7120   18.6610 C   0  0  0  0  0  0  0  0  0  0  0  0
  -28.7130  -22.7310   20.0800 C   0  0  0  0  0  0  0  0  0  0  0  0
  -29.5150  -20.4980   20.0850 C   0  0  0  0  0  0  0  0  0  0  0  0
  -28.3120  -23.8980   17.8240 C   0  0  0  0  0  1  0  0  0  0  0  0
  -29.1660  -21.6190   17.9650 N   0  0  0  0  0  0  0  0  0  0  0  0
  -29.1260  -21.6190   20.7850 N   0  0  0  0  0  0  0  0  0  0  0  0
  -27.9930  -23.8900   20.8440 C   0  0  0  0  0  2  0  0  0  0  0  0
  -28.7100  -25.2570   21.2050 C   0  0  0  0  0  2  0  0  0  0  0  0
  -28.6940  -26.4230   20.3150 O   0  0  0  0  0  0  0  0  0  0  0  0
  -24.5770  -31.6320   23.1300 C   0  0  0  0  0  0  0  0  0  0  0  0
  -27.5340  -27.1890   20.2740 C   0  0  0  0  0  0  0  0  0  0  0  0
  -23.5220  -30.1650   21.4430 C   0  0  0  0  0  3  0  0  0  0  0  0
  -25.1080  -28.6660   20.1190 C   0  0  0  0  0  0  0  0  0  0  0  0
  -26.0450  -30.6020   21.3880 C   0  0  0  0  0  2  0  0  0  0  0  0
  -26.2170  -29.2210   20.7710 C   0  0  0  0  0  0  0  0  0  0  0  0
  -27.4360  -28.4920   20.8430 C   0  0  0  0  0  3  0  0  0  0  0  0
  -26.4100  -26.6770   19.5980 C   0  0  0  0  0  3  0  0  0  0  0  0
  -25.2030  -27.3960   19.5250 C   0  0  0  0  0  3  0  0  0  0  0  0
  -23.8370  -29.4870   20.0840 C   0  0  0  0  0  2  0  0  0  0  0  0
  -24.7290  -30.8180   22.0450 N   0  0  0  0  0  0  0  0  0  0  0  0
  -23.4560  -31.8660   23.6060 O   0  0  0  0  0  0  0  0  0  0  0  0
  -22.8550  -29.1290   22.3790 C   0  0  0  0  0  0  0  0  0  0  0  0
  -21.5370  -28.9260   22.2110 N   0  0  0  0  0  0  0  0  0  0  0  0
  -23.5230  -28.5150   23.2140 O   0  0  0  0  0  0  0  0  0  0  0  0
  -21.0570  -29.4780   21.5140 H   0  0  0  0  0  0  0  0  0  0  0  0
  -18.1640  -27.6880   22.6270 C   0  0  0  0  0  0  0  0  0  0  0  0
  -20.7140  -27.9690   22.9530 C   0  0  0  0  0  3  0  0  0  0  0  0
  -20.8440  -26.5470   22.3590 C   0  0  0  0  0  2  0  0  0  0  0  0
  -19.7650  -26.2270   21.3190 C   0  0  0  0  0  2  0  0  0  0  0  0
  -18.3690  -26.3500   21.9370 C   0  0  0  0  0  2  0  0  0  0  0  0
  -19.2660  -28.4550   23.0900 C   0  0  0  0  0  0  0  0  0  0  0  0
  -19.0230  -29.7070   23.6940 C   0  0  0  0  0  3  0  0  0  0  0  0
  -17.7100  -30.1930   23.8400 C   0  0  0  0  0  3  0  0  0  0  0  0
  -16.6220  -29.4230   23.3950 C   0  0  0  0  0  3  0  0  0  0  0  0
  -16.8500  -28.1730   22.7930 C   0  0  0  0  0  3  0  0  0  0  0  0
  -25.7980  -32.3220   23.8120 C   0  0  0  0  0  3  0  0  0  0  0  0
  -26.3040  -31.5620   25.0990 C   0  0  1  0  0  0  0  0  0  0  0  0
  -25.1820  -31.2470   26.1160 C   0  0  0  0  0  1  0  0  0  0  0  0
  -26.9780  -30.2240   24.7120 C   0  0  0  0  0  1  0  0  0  0  0  0
  -27.3820  -32.4050   25.8180 C   0  0  0  0  0  1  0  0  0  0  0  0
  -25.4020  -33.6970   24.1450 N   0  0  0  0  0  0  0  0  0  0  0  0
  -25.6940  -34.7750   23.4030 C   0  0  0  0  0  0  0  0  0  0  0  0
  -26.3940  -34.7200   22.3900 O   0  0  0  0  0  0  0  0  0  0  0  0
  -24.7840  -33.8120   24.9360 H   0  0  0  0  0  0  0  0  0  0  0  0
  -23.8680  -36.4610   23.0280 C   0  0  0  0  0  1  0  0  0  0  0  0
  -25.1170  -36.1290   23.8600 C   0  0  0  0  0  3  0  0  0  0  0  0
  -27.1790  -37.1360   24.7310 C   0  0  0  0  0  1  0  0  0  0  0  0
  -26.0850  -37.2430   23.7680 N   0  0  0  0  0  0  0  0  0  0  0  0
  -25.6230  -38.1360   23.9140 H   0  0  0  0  0  0  0  0  0  0  0  0
  -29.9780  -19.4100   20.8310 O   0  0  0  0  0  0  0  0  0  0  0  0
  -30.9890  -14.5420   19.9870 C   0  0  0  0  0  0  0  0  0  0  0  0
  -30.6280  -12.3720   18.8200 C   0  0  0  0  0  2  0  0  0  0  0  0
  -29.6080  -12.5490   17.6720 C   0  0  0  0  0  2  0  0  0  0  0  0
  -28.1590  -12.4160   18.1830 C   0  0  0  0  0  2  0  0  0  0  0  0
  -27.9060  -13.2360   19.4740 C   0  0  0  0  0  3  0  0  0  0  0  0
  -29.0260  -12.9850   20.5020 C   0  0  0  0  0  2  0  0  0  0  0  0
  -30.3010  -13.3590   19.8730 N   0  0  0  0  0  0  0  0  0  0  0  0
  -32.0930  -14.6710   19.4470 O   0  0  0  0  0  0  0  0  0  0  0  0
  -29.3370  -17.3410   21.8880 C   0  0  0  0  0  2  0  0  0  0  0  0
  -29.9860  -15.9430   21.8120 C   0  0  0  0  0  2  0  0  0  0  0  0
  -30.5040  -17.0300   19.8200 C   0  0  0  0  0  2  0  0  0  0  0  0
  -29.5530  -18.0400   20.5410 C   0  0  0  0  0  3  0  0  0  0  0  0
  -30.3040  -15.6670   20.4060 N   0  0  0  0  0  0  0  0  0  0  0  0
  -25.5700  -13.8620   20.3440 C   0  0  0  0  0  0  0  0  0  0  0  0
  -24.5150  -13.1000   20.7660 C   0  0  0  0  0  0  0  0  0  0  0  0
  -24.9520  -11.7420   20.6870 C   0  0  0  0  0  0  0  0  0  0  0  0
  -26.5840  -12.9700   20.0350 N   0  0  0  0  0  0  0  0  0  0  0  0
  -26.2210  -11.6880   20.2990 N   0  0  0  0  0  0  0  0  0  0  0  0
  -24.2190  -10.4880   20.9040 C   0  0  0  0  0  0  0  0  0  0  0  0
  -24.6360   -9.5460   21.8700 C   0  0  0  0  0  3  0  0  0  0  0  0
  -23.9020   -8.3570   22.0730 C   0  0  0  0  0  3  0  0  0  0  0  0
  -22.7380   -8.1010   21.3110 C   0  0  0  0  0  0  0  0  0  0  0  0
  -22.3410   -9.0330   20.3360 C   0  0  0  0  0  3  0  0  0  0  0  0
  -23.0740  -10.2130   20.1300 C   0  0  0  0  0  3  0  0  0  0  0  0
  -21.9770   -6.9620   21.4220 O   0  0  0  0  0  0  0  0  0  0  0  0
  -21.8290   -6.3080   22.6180 C   0  0  0  0  0  0  0  0  0  0  0  0
  -21.2930   -6.9500   23.7570 C   0  0  0  0  0  3  0  0  0  0  0  0
  -21.0910   -6.2200   24.9460 C   0  0  0  0  0  3  0  0  0  0  0  0
  -21.4180   -4.8510   24.9970 C   0  0  0  0  0  0  0  0  0  0  0  0
  -21.9490   -4.2120   23.8630 C   0  0  0  0  0  3  0  0  0  0  0  0
  -22.1500   -4.9370   22.6770 C   0  0  0  0  0  0  0  0  0  0  0  0
  -22.6400   -4.3090   21.5800 F   0  0  0  0  0  0  0  0  0  0  0  0
  -21.2180   -4.1490   26.1360 F   0  0  0  0  0  0  0  0  0  0  0  0
  -23.1440  -13.5940   21.1290 C   0  0  0  0  0  0  0  0  0  0  0  0
  -22.4700  -12.9120   22.0490 N   0  0  0  0  0  0  0  0  0  0  0  0
  -22.6830  -14.6210   20.6330 O   0  0  0  0  0  0  0  0  0  0  0  0
  -22.8560  -12.0790   22.4670 H   0  0  0  0  0  0  0  0  0  0  0  0
  -21.5560  -13.2300   22.3380 H   0  0  0  0  0  0  0  0  0  0  0  0
  -25.7450  -15.2330   20.1780 N   0  0  0  0  0  0  0  0  0  0  0  0
  -24.9990  -15.8980   20.3530 H   0  0  0  0  0  0  0  0  0  0  0  0
  -26.5830  -15.6670   19.8120 H   0  0  0  0  0  0  0  0  0  0  0  0
  1  4  1  0
  2  3  2  0
  3  7  1  0
  3  8  1  0
  4  7  2  0
  4 51  1  0
  5  2  1  0
  6  2  1  0
  6  1  2  0
  8  9  1  0
 10  9  1  0
 11 22  2  0
 12 10  1  0
 12 17  1  0
 13 21  1  0
 13 23  1  0
 14 16  1  0
 15 21  1  0
 16 17  2  0
 16 15  1  0
 18 12  2  0
 19 18  1  0
 19 14  2  0
 20 14  1  0
 20 13  1  0
 21 11  1  0
 23 25  2  0
 24 23  1  0
 26 24  1  0
 27 36  2  0
 27 32  1  0
 28 24  1  0
 28 32  1  0
 29 28  1  0
 30 31  1  0
 30 29  1  0
 31 27  1  0
 32 33  2  0
 33 34  1  0
 35 34  2  0
 36 35  1  0
 37 11  1  0
 37 42  1  0
 37 38  1  0
 38 41  1  1
 38 39  1  0
 40 38  1  0
 42 45  1  0
 43 47  1  0
 43 42  1  0
 44 43  2  0
 47 46  1  0
 49 47  1  0
 49 50  1  0
 49 48  1  0
 52 64  1  0
 53 58  1  0
 54 55  1  0
 54 53  1  0
 56 55  1  0
 56 68  1  0
 56 57  1  0
 58 52  1  0
 58 57  1  0
 59 52  2  0
 61 60  1  0
 62 64  1  0
 62 63  1  0
 63 51  1  0
 63 60  1  0
 64 61  1  0
 65 66  2  0
 66 85  1  0
 67 66  1  0
 67 70  1  0
 68 69  1  0
 68 65  1  0
 69 67  2  0
 70 71  1  0
 71 72  2  0
 73 76  1  0
 73 72  1  0
 74 73  2  0
 75 74  1  0
 75 70  2  0
 76 77  1  0
 77 82  2  0
 77 78  1  0
 78 79  2  0
 79 80  1  0
 80 84  1  0
 81 80  2  0
 82 81  1  0
 83 82  1  0
 85 86  1  0
 86 89  1  0
 86 88  1  0
 87 85  2  0
 90 65  1  0
 90 91  1  0
 92 90  1  0
M  ISO  4   9 101  10 101  52 100  64 100
M  END
>  <TORSDO>  (91) 
F 19

>  <SCORE>  (91) 
-13.007

>  <name>  (91) 
90

>  <ligand_id>  (91) 
90

>  <original_smiles>  (91) 
[H]c1nc(C([H])([H])[H])c(C([H])([H])C([H])([H])Oc2c([H])c([H])c3c(c2[H])C([H])([H])N(C(=O)C([H])(N([H])C(=O)C([H])(N([H])C([H])([H])[H])C([H])([H])[H])C(C([H])([H])[H])(C([H])([H])[H])C([H])([H])[H])C([H])(C(=O)N([H])C2([H])c4c([H])c([H])c([H])c([H])c4C([H])([H])C([H])([H])C2([H])[H])C3([H])[H])nc1OC1([H])C([H])([H])N(C(=O)N2C([H])([H])C([H])([H])C([H])([H])C([H])(n3nc(-c4c([H])c([H])c(Oc5c([H])c([H])c(F)c([H])c5F)c([H])c4[H])c(C(=O)N([H])[H])c3N([H])[H])C2([H])[H])C([H])([H])C1([H])[H]

>  <smiles>  (91) 
[H]c1nc(C([H])([H])[H])c(C([H])([H])C([H])([H])Oc2c([H])c([H])c3c(c2[H])C([H])([H])N(C(=O)C([H])(N([H])C(=O)C([H])(N([H])C([H])([H])[H])C([H])([H])[H])C(C([H])([H])[H])(C([H])([H])[H])C([H])([H])[H])C([H])(C(=O)N([H])C2([H])c4c([H])c([H])c([H])c([H])c4C([H])([H])C([H])([H])C2([H])[H])C3([H])[H])nc1OC1([H])C([H])([H])N(C(=O)N2C([H])([H])C([H])([H])C([H])([H])C([H])(n3nc(-c4c([H])c([H])c(Oc5c([H])c([H])c(F)c([H])c5F)c([H])c4[H])c(C(=O)N([H])[H])c3N([H])[H])C2([H])[H])C([H])([H])C1([H])[H]

$$$$
91:0:0
     RDKit          3D

 95103  0  0  1  0  0  0  0  0999 V2000
  -25.7490  -22.2930   20.7930 C   0  0  0  0  0  1  0  0  0  0  0  0
  -27.1420  -22.5500   21.4040 C   0  0  0  0  0  3  0  0  0  0  0  0
  -27.5950  -23.9590   21.2570 N   0  0  0  0  0  4  0  0  0  0  0  0
  -27.0390  -24.5260   21.8780 H   0  0  0  0  0  0  0  0  0  0  0  0
  -28.5480  -24.0080   21.5900 H   0  0  0  0  0  0  0  0  0  0  0  0
  -27.5270  -24.5530   19.8900 C   0  0  0  0  0  2  0  0  0  0  0  0
  -28.3810  -25.8500   19.7440 C   0  0  0  0  0  2  0  0  0  0  0  0
  -28.1350  -27.1210   19.0860 O   0  0  0  0  0  0  0  0  0  0  0  0
  -24.5450  -31.8430   22.9940 C   0  0  0  0  0  0  0  0  0  0  0  0
  -26.9390  -27.7930   19.2680 C   0  0  0  0  0  0  0  0  0  0  0  0
  -23.2020  -30.5730   21.3480 C   0  0  0  0  0  3  0  0  0  0  0  0
  -24.5300  -29.2140   19.6490 C   0  0  0  0  0  0  0  0  0  0  0  0
  -25.6860  -31.0180   20.9390 C   0  0  0  0  0  2  0  0  0  0  0  0
  -25.7300  -29.7150   20.1720 C   0  0  0  0  0  0  0  0  0  0  0  0
  -26.9390  -29.0160   19.9710 C   0  0  0  0  0  3  0  0  0  0  0  0
  -25.7280  -27.3030   18.7330 C   0  0  0  0  0  3  0  0  0  0  0  0
  -24.5240  -28.0090   18.9240 C   0  0  0  0  0  3  0  0  0  0  0  0
  -23.2820  -30.0370   19.8930 C   0  0  0  0  0  2  0  0  0  0  0  0
  -24.5020  -31.1550   21.8180 N   0  0  0  0  0  0  0  0  0  0  0  0
  -23.5180  -32.0340   23.6610 O   0  0  0  0  0  0  0  0  0  0  0  0
  -22.6600  -29.4520   22.2600 C   0  0  0  0  0  0  0  0  0  0  0  0
  -21.3350  -29.2380   22.2210 N   0  0  0  0  0  0  0  0  0  0  0  0
  -23.4270  -28.7790   22.9570 O   0  0  0  0  0  0  0  0  0  0  0  0
  -20.7750  -29.8420   21.6330 H   0  0  0  0  0  0  0  0  0  0  0  0
  -18.0660  -27.8020   22.8000 C   0  0  0  0  0  0  0  0  0  0  0  0
  -20.6110  -28.2050   22.9590 C   0  0  0  0  0  3  0  0  0  0  0  0
  -20.7710  -26.8170   22.2910 C   0  0  0  0  0  2  0  0  0  0  0  0
  -19.6340  -26.4730   21.3210 C   0  0  0  0  0  2  0  0  0  0  0  0
  -18.2860  -26.5050   22.0430 C   0  0  0  0  0  2  0  0  0  0  0  0
  -19.1570  -28.6070   23.2200 C   0  0  0  0  0  0  0  0  0  0  0  0
  -18.8990  -29.8210   23.8900 C   0  0  0  0  0  3  0  0  0  0  0  0
  -17.5770  -30.2360   24.1410 C   0  0  0  0  0  3  0  0  0  0  0  0
  -16.5000  -29.4310   23.7330 C   0  0  0  0  0  3  0  0  0  0  0  0
  -16.7440  -28.2160   23.0710 C   0  0  0  0  0  3  0  0  0  0  0  0
  -25.8760  -32.4430   23.5440 C   0  0  0  0  0  3  0  0  0  0  0  0
  -25.5770  -33.7890   24.0520 N   0  0  0  0  0  0  0  0  0  0  0  0
  -25.8410  -34.9250   23.3930 C   0  0  0  0  0  0  0  0  0  0  0  0
  -26.4350  -34.9480   22.3100 O   0  0  0  0  0  0  0  0  0  0  0  0
  -25.0360  -33.8440   24.9040 H   0  0  0  0  0  0  0  0  0  0  0  0
  -24.0750  -36.7120   23.3590 C   0  0  0  0  0  1  0  0  0  0  0  0
  -25.3730  -36.2420   24.0350 C   0  0  0  0  0  3  0  0  0  0  0  0
  -27.5540  -37.0620   24.8090 C   0  0  0  0  0  1  0  0  0  0  0  0
  -26.3850  -37.3170   23.9730 N   0  0  0  0  0  0  0  0  0  0  0  0
  -25.9820  -38.2070   24.2540 H   0  0  0  0  0  0  0  0  0  0  0  0
  -26.5400  -31.5560   24.6660 C   0  0  1  0  0  0  0  0  0  0  0  0
  -25.5700  -31.1790   25.8110 C   0  0  0  0  0  1  0  0  0  0  0  0
  -27.0950  -30.2430   24.0670 C   0  0  0  0  0  1  0  0  0  0  0  0
  -27.7460  -32.3030   25.2800 C   0  0  0  0  0  1  0  0  0  0  0  0
  -29.4620  -21.3220   21.6200 C   0  0  0  0  0  2  0  0  0  0  0  0
  -28.1790  -21.5780   20.8560 C   0  0  0  0  0  3  0  0  0  0  0  0
  -28.4260  -20.2240   21.4900 C   0  0  0  0  0  3  0  0  0  0  0  0
  -28.7880  -19.1660   20.5200 N   0  0  0  0  0  4  0  0  0  0  0  0
  -29.3130  -19.5600   19.7610 H   0  0  0  0  0  0  0  0  0  0  0  0
  -27.9360  -18.7860   20.1300 H   0  0  0  0  0  0  0  0  0  0  0  0
  -29.5810  -18.0580   21.0920 C   0  0  0  0  0  2  0  0  0  0  0  0
  -31.2090  -17.7600   19.1250 C   0  0  0  0  0  1  0  0  0  0  0  0
  -30.1090  -17.1080   19.9900 C   0  0  0  0  0  3  0  0  0  0  0  0
  -31.2560  -14.8630   20.0370 C   0  0  0  0  0  0  0  0  0  0  0  0
  -30.9330  -12.6920   18.9360 C   0  0  0  0  0  2  0  0  0  0  0  0
  -29.9470  -12.9150   17.7700 C   0  0  0  0  0  2  0  0  0  0  0  0
  -28.4820  -12.8260   18.2470 C   0  0  0  0  0  2  0  0  0  0  0  0
  -28.2150  -13.6650   19.5250 C   0  0  0  0  0  3  0  0  0  0  0  0
  -29.3010  -13.3850   20.5910 C   0  0  0  0  0  2  0  0  0  0  0  0
  -30.6160  -13.6690   19.9890 N   0  0  0  0  0  0  0  0  0  0  0  0
  -32.3300  -15.0870   19.4710 O   0  0  0  0  0  0  0  0  0  0  0  0
  -30.5000  -15.8250   20.5920 N   0  0  0  0  0  0  0  0  0  0  0  0
  -29.7730  -15.4260   21.1720 H   0  0  0  0  0  0  0  0  0  0  0  0
  -25.8850  -14.3540   20.3820 C   0  0  0  0  0  0  0  0  0  0  0  0
  -24.8020  -13.6150   20.7710 C   0  0  0  0  0  0  0  0  0  0  0  0
  -25.1860  -12.2480   20.6260 C   0  0  0  0  0  0  0  0  0  0  0  0
  -26.8710  -13.4360   20.0480 N   0  0  0  0  0  0  0  0  0  0  0  0
  -26.4540  -12.1620   20.2440 N   0  0  0  0  0  0  0  0  0  0  0  0
  -24.4070  -11.0160   20.7850 C   0  0  0  0  0  0  0  0  0  0  0  0
  -24.8150   -9.9910   21.6640 C   0  0  0  0  0  3  0  0  0  0  0  0
  -24.0430   -8.8190   21.8050 C   0  0  0  0  0  3  0  0  0  0  0  0
  -22.8460   -8.6640   21.0660 C   0  0  0  0  0  0  0  0  0  0  0  0
  -22.4570   -9.6770   20.1700 C   0  0  0  0  0  3  0  0  0  0  0  0
  -23.2300  -10.8420   20.0290 C   0  0  0  0  0  3  0  0  0  0  0  0
  -22.0460   -7.5500   21.1190 O   0  0  0  0  0  0  0  0  0  0  0  0
  -21.9490   -6.7860   22.2550 C   0  0  0  0  0  0  0  0  0  0  0  0
  -21.5510   -7.3380   23.4890 C   0  0  0  0  0  3  0  0  0  0  0  0
  -21.3970   -6.5030   24.6150 C   0  0  0  0  0  3  0  0  0  0  0  0
  -21.6330   -5.1200   24.5050 C   0  0  0  0  0  0  0  0  0  0  0  0
  -22.0280   -4.5710   23.2740 C   0  0  0  0  0  3  0  0  0  0  0  0
  -22.1810   -5.4000   22.1500 C   0  0  0  0  0  0  0  0  0  0  0  0
  -22.5400   -4.8610   20.9600 F   0  0  0  0  0  0  0  0  0  0  0  0
  -21.4780   -4.3180   25.5850 F   0  0  0  0  0  0  0  0  0  0  0  0
  -23.4510  -14.1430   21.1540 C   0  0  0  0  0  0  0  0  0  0  0  0
  -22.7430  -13.4470   22.0340 N   0  0  0  0  0  0  0  0  0  0  0  0
  -23.0310  -15.2070   20.7020 O   0  0  0  0  0  0  0  0  0  0  0  0
  -23.0950  -12.5810   22.4210 H   0  0  0  0  0  0  0  0  0  0  0  0
  -21.8340  -13.7820   22.3220 H   0  0  0  0  0  0  0  0  0  0  0  0
  -26.1060  -15.7230   20.2620 N   0  0  0  0  0  0  0  0  0  0  0  0
  -25.2930  -16.3280   20.3050 H   0  0  0  0  0  0  0  0  0  0  0  0
  -26.8090  -16.0650   19.6200 H   0  0  0  0  0  0  0  0  0  0  0  0
  2  1  1  0
  3  2  1  0
  3  5  1  0
  3  4  1  0
  6  3  1  0
  7  6  1  0
  8 10  1  0
  8  7  1  0
  9 20  2  0
 10 15  1  0
 11 19  1  0
 11 21  1  0
 12 18  1  0
 12 14  1  0
 13 19  1  0
 14 13  1  0
 15 14  2  0
 16 17  1  0
 16 10  2  0
 17 12  2  0
 18 11  1  0
 19  9  1  0
 21 23  2  0
 22 21  1  0
 24 22  1  0
 25 34  2  0
 25 30  1  0
 26 22  1  0
 26 30  1  0
 27 26  1  0
 28 29  1  0
 28 27  1  0
 29 25  1  0
 30 31  2  0
 31 32  1  0
 33 32  2  0
 34 33  1  0
 35  9  1  0
 35 36  1  0
 35 45  1  0
 36 39  1  0
 37 41  1  0
 37 36  1  0
 38 37  2  0
 41 40  1  0
 43 41  1  0
 43 44  1  0
 43 42  1  0
 45 48  1  1
 45 46  1  0
 47 45  1  0
 50  2  1  0
 50 51  1  0
 50 49  1  0
 51 52  1  0
 51 49  1  0
 52 55  1  0
 53 52  1  0
 54 52  1  0
 57 56  1  0
 57 66  1  0
 57 55  1  0
 58 66  1  0
 59 64  1  0
 60 61  1  0
 60 59  1  0
 62 61  1  0
 62 71  1  0
 62 63  1  0
 64 58  1  0
 64 63  1  0
 65 58  2  0
 66 67  1  0
 68 69  2  0
 69 88  1  0
 70 69  1  0
 70 73  1  0
 71 72  1  0
 71 68  1  0
 72 70  2  0
 73 74  1  0
 74 75  2  0
 76 79  1  0
 76 75  1  0
 77 76  2  0
 78 77  1  0
 78 73  2  0
 79 80  1  0
 80 81  1  0
 81 82  2  0
 83 82  1  0
 83 87  1  0
 84 83  2  0
 85 80  2  0
 85 84  1  0
 86 85  1  0
 88 89  1  0
 89 92  1  0
 89 91  1  0
 90 88  2  0
 93 94  1  0
 93 68  1  0
 95 93  1  0
M  ISO  4   7 101   8 101  58 100  66 100
M  END
>  <TORSDO>  (92) 
F 23

>  <SCORE>  (92) 
-9.704

>  <name>  (92) 
91

>  <ligand_id>  (92) 
91

>  <original_smiles>  (92) 
[H]c1c([H])c([H])c2c(c1[H])C([H])([H])C([H])([H])C([H])([H])C2([H])N([H])C(=O)C1([H])N(C(=O)C([H])(N([H])C(=O)C([H])(N([H])C([H])([H])[H])C([H])([H])[H])C(C([H])([H])[H])(C([H])([H])[H])C([H])([H])[H])C([H])([H])c2c([H])c(OC([H])([H])C([H])([H])[N+]([H])([H])C([H])(C([H])([H])[H])C3([H])C([H])([H])C3([H])[N+]([H])([H])C([H])([H])C([H])(N([H])C(=O)N3C([H])([H])C([H])([H])C([H])([H])C([H])(n4nc(-c5c([H])c([H])c(Oc6c([H])c([H])c(F)c([H])c6F)c([H])c5[H])c(C(=O)N([H])[H])c4N([H])[H])C3([H])[H])C([H])([H])[H])c([H])c([H])c2C1([H])[H]

>  <smiles>  (92) 
[H]c1c([H])c([H])c2c(c1[H])C([H])([H])C([H])([H])C([H])([H])C2([H])N([H])C(=O)C1([H])N(C(=O)C([H])(N([H])C(=O)C([H])(N([H])C([H])([H])[H])C([H])([H])[H])C(C([H])([H])[H])(C([H])([H])[H])C([H])([H])[H])C([H])([H])c2c([H])c(OC([H])([H])C([H])([H])[N+]([H])([H])C([H])(C([H])([H])[H])C3([H])C([H])([H])C3([H])[N+]([H])([H])C([H])([H])C([H])(N([H])C(=O)N3C([H])([H])C([H])([H])C([H])([H])C([H])(n4nc(-c5c([H])c([H])c(Oc6c([H])c([H])c(F)c([H])c6F)c([H])c5[H])c(C(=O)N([H])[H])c4N([H])[H])C3([H])[H])C([H])([H])[H])c([H])c([H])c2C1([H])[H]

$$$$
92:0:0
     RDKit          3D

 91100  0  0  1  0  0  0  0  0999 V2000
  -29.8500  -20.9130   20.7870 N   0  0  0  0  0  4  0  0  0  0  0  0
  -30.4580  -20.9740   19.9880 H   0  0  0  0  0  0  0  0  0  0  0  0
  -30.4190  -21.1320   21.5890 H   0  0  0  0  0  0  0  0  0  0  0  0
  -29.4380  -19.3850   20.9350 C   0  0  0  0  0  2  0  0  0  0  0  0
  -30.8190  -15.3570   20.7810 C   0  0  0  0  0  0  0  0  0  0  0  0
  -30.7600  -13.0040   19.8460 C   0  0  0  0  0  2  0  0  0  0  0  0
  -29.9120  -12.9070   18.5580 C   0  0  0  0  0  2  0  0  0  0  0  0
  -28.4170  -12.7210   18.8900 C   0  0  0  0  0  2  0  0  0  0  0  0
  -27.9210  -13.6440   20.0340 C   0  0  0  0  0  3  0  0  0  0  0  0
  -28.9040  -13.6940   21.2200 C   0  0  0  0  0  2  0  0  0  0  0  0
  -30.2060  -14.1070   20.6800 N   0  0  0  0  0  0  0  0  0  0  0  0
  -32.0540  -15.3700   20.7660 O   0  0  0  0  0  0  0  0  0  0  0  0
  -30.8600  -17.3950   17.0150 C   0  0  0  0  0  2  0  0  0  0  0  0
  -29.8180  -18.4500   17.2640 C   0  0  0  0  0  2  0  0  0  0  0  0
  -31.2730  -18.3340   19.4530 C   0  0  0  0  0  2  0  0  0  0  0  0
  -29.5510  -16.6880   19.2180 C   0  0  0  0  0  2  0  0  0  0  0  0
  -30.5250  -18.0960   20.7700 C   0  0  0  0  0  3  0  0  0  0  0  0
  -30.3930  -17.6720   18.4300 C   0  0  2  0  0  0  0  0  0  0  0  0
  -30.0810  -16.5790   20.5910 N   0  0  0  0  0  0  0  0  0  0  0  0
  -25.4890  -14.2080   20.5810 C   0  0  0  0  0  0  0  0  0  0  0  0
  -24.4090  -13.4250   20.8820 C   0  0  0  0  0  0  0  0  0  0  0  0
  -24.8910  -12.0810   20.9150 C   0  0  0  0  0  0  0  0  0  0  0  0
  -26.5570  -13.3390   20.4440 N   0  0  0  0  0  0  0  0  0  0  0  0
  -26.2030  -12.0560   20.7130 N   0  0  0  0  0  0  0  0  0  0  0  0
  -24.1690  -10.8130   21.0690 C   0  0  0  0  0  0  0  0  0  0  0  0
  -24.5650   -9.8490   22.0210 C   0  0  0  0  0  3  0  0  0  0  0  0
  -23.8450   -8.6450   22.1640 C   0  0  0  0  0  3  0  0  0  0  0  0
  -22.7120   -8.3950   21.3530 C   0  0  0  0  0  0  0  0  0  0  0  0
  -22.3330   -9.3480   20.3900 C   0  0  0  0  0  3  0  0  0  0  0  0
  -23.0560  -10.5450   20.2460 C   0  0  0  0  0  3  0  0  0  0  0  0
  -21.9640   -7.2430   21.4060 O   0  0  0  0  0  0  0  0  0  0  0  0
  -21.8730   -6.4970   22.5530 C   0  0  0  0  0  0  0  0  0  0  0  0
  -21.3330   -7.0250   23.7450 C   0  0  0  0  0  3  0  0  0  0  0  0
  -21.1940   -6.2020   24.8810 C   0  0  0  0  0  3  0  0  0  0  0  0
  -21.5840   -4.8520   24.8230 C   0  0  0  0  0  0  0  0  0  0  0  0
  -22.1170   -4.3210   23.6350 C   0  0  0  0  0  3  0  0  0  0  0  0
  -22.2580   -5.1420   22.5020 C   0  0  0  0  0  0  0  0  0  0  0  0
  -22.7510   -4.6210   21.3520 F   0  0  0  0  0  0  0  0  0  0  0  0
  -21.4420   -4.0570   25.9100 F   0  0  0  0  0  0  0  0  0  0  0  0
  -22.9890  -13.8860   21.0320 C   0  0  0  0  0  0  0  0  0  0  0  0
  -22.2180  -13.2310   21.8910 N   0  0  0  0  0  0  0  0  0  0  0  0
  -22.5710  -14.8670   20.4170 O   0  0  0  0  0  0  0  0  0  0  0  0
  -22.5660  -12.4380   22.4100 H   0  0  0  0  0  0  0  0  0  0  0  0
  -21.2610  -13.5260   22.0300 H   0  0  0  0  0  0  0  0  0  0  0  0
  -25.6470  -15.5760   20.3860 N   0  0  0  0  0  0  0  0  0  0  0  0
  -24.8630  -16.2190   20.4060 H   0  0  0  0  0  0  0  0  0  0  0  0
  -26.5190  -16.0190   20.1260 H   0  0  0  0  0  0  0  0  0  0  0  0
  -28.8050  -22.0960   20.6420 C   0  0  0  0  0  2  0  0  0  0  0  0
  -29.2160  -23.7320   20.5400 C   0  0  0  0  0  3  0  0  0  0  0  0
  -28.1220  -24.9810   20.2640 C   0  0  0  0  0  3  0  0  0  0  0  0
  -28.3770  -26.5150   20.2300 O   0  0  0  0  0  0  0  0  0  0  0  0
  -24.6350  -32.0550   23.2860 C   0  0  0  0  0  0  0  0  0  0  0  0
  -27.2910  -27.4620   20.1740 C   0  0  0  0  0  0  0  0  0  0  0  0
  -23.4510  -30.6620   21.6300 C   0  0  0  0  0  3  0  0  0  0  0  0
  -24.9220  -29.1480   20.1670 C   0  0  0  0  0  0  0  0  0  0  0  0
  -25.9950  -30.9930   21.4480 C   0  0  0  0  0  2  0  0  0  0  0  0
  -26.0940  -29.6140   20.7770 C   0  0  0  0  0  0  0  0  0  0  0  0
  -27.2780  -28.7890   20.7610 C   0  0  0  0  0  3  0  0  0  0  0  0
  -26.0910  -27.0920   19.5260 C   0  0  0  0  0  3  0  0  0  0  0  0
  -24.9330  -27.9020   19.5230 C   0  0  0  0  0  3  0  0  0  0  0  0
  -23.6730  -30.0130   20.2390 C   0  0  0  0  0  2  0  0  0  0  0  0
  -24.7130  -31.2580   22.1770 N   0  0  0  0  0  0  0  0  0  0  0  0
  -23.5470  -32.3050   23.8280 O   0  0  0  0  0  0  0  0  0  0  0  0
  -22.8030  -29.6250   22.5810 C   0  0  0  0  0  0  0  0  0  0  0  0
  -21.4780  -29.4270   22.4600 N   0  0  0  0  0  0  0  0  0  0  0  0
  -23.4940  -28.9990   23.3900 O   0  0  0  0  0  0  0  0  0  0  0  0
  -20.9780  -29.9820   21.7810 H   0  0  0  0  0  0  0  0  0  0  0  0
  -18.1230  -28.1610   22.9750 C   0  0  0  0  0  0  0  0  0  0  0  0
  -20.6800  -28.4620   23.2220 C   0  0  0  0  0  3  0  0  0  0  0  0
  -20.8010  -27.0430   22.6210 C   0  0  0  0  0  2  0  0  0  0  0  0
  -19.6940  -26.7190   21.6120 C   0  0  0  0  0  2  0  0  0  0  0  0
  -18.3160  -26.8290   22.2700 C   0  0  0  0  0  2  0  0  0  0  0  0
  -19.2330  -28.9350   23.4070 C   0  0  0  0  0  0  0  0  0  0  0  0
  -18.9950  -30.1810   24.0280 C   0  0  0  0  0  3  0  0  0  0  0  0
  -17.6840  -30.6540   24.2180 C   0  0  0  0  0  3  0  0  0  0  0  0
  -16.5890  -29.8780   23.8010 C   0  0  0  0  0  3  0  0  0  0  0  0
  -16.8090  -28.6320   23.1850 C   0  0  0  0  0  3  0  0  0  0  0  0
  -25.9040  -32.7050   23.9150 C   0  0  0  0  0  3  0  0  0  0  0  0
  -26.4230  -31.9410   25.1950 C   0  0  1  0  0  0  0  0  0  0  0  0
  -25.3190  -31.6560   26.2410 C   0  0  0  0  0  1  0  0  0  0  0  0
  -27.0620  -30.5890   24.8050 C   0  0  0  0  0  1  0  0  0  0  0  0
  -27.5340  -32.7700   25.8830 C   0  0  0  0  0  1  0  0  0  0  0  0
  -25.5750  -34.0990   24.2480 N   0  0  0  0  0  0  0  0  0  0  0  0
  -25.9240  -35.1650   23.5150 C   0  0  0  0  0  0  0  0  0  0  0  0
  -26.6240  -35.0770   22.5040 O   0  0  0  0  0  0  0  0  0  0  0  0
  -24.9550  -34.2390   25.0340 H   0  0  0  0  0  0  0  0  0  0  0  0
  -24.2220  -36.9730   23.1100 C   0  0  0  0  0  1  0  0  0  0  0  0
  -25.4180  -36.5460   23.9750 C   0  0  0  0  0  3  0  0  0  0  0  0
  -27.5040  -37.4100   24.9400 C   0  0  0  0  0  1  0  0  0  0  0  0
  -26.4590  -37.5970   23.9380 N   0  0  0  0  0  0  0  0  0  0  0  0
  -26.0490  -38.5160   24.0760 H   0  0  0  0  0  0  0  0  0  0  0  0
  1  4  1  0
  1  3  1  0
  2  1  1  0
  6 11  1  0
  7  8  1  0
  7  6  1  0
  9  8  1  0
  9 23  1  0
  9 10  1  0
 11  5  1  0
 11 10  1  0
 12  5  2  0
 13 14  1  0
 18 13  1  6
 14 18  1  0
 15 17  1  0
 16 19  1  0
 17  4  1  0
 18 16  1  0
 18 15  1  0
 19 17  1  0
 19  5  1  0
 20 21  2  0
 21 22  1  0
 21 40  1  0
 22 25  1  0
 23 20  1  0
 23 24  1  0
 24 22  2  0
 25 26  1  0
 26 27  2  0
 28 31  1  0
 28 27  1  0
 29 28  2  0
 30 29  1  0
 30 25  2  0
 31 32  1  0
 32 33  1  0
 33 34  2  0
 35 34  1  0
 35 39  1  0
 36 35  2  0
 37 32  2  0
 37 36  1  0
 38 37  1  0
 40 41  1  0
 41 44  1  0
 41 43  1  0
 42 40  2  0
 45 46  1  0
 45 20  1  0
 47 45  1  0
 48  1  1  0
 49 48  1  0
 50 49  2  0
 51 50  1  0
 52 63  2  0
 53 51  1  0
 53 58  1  0
 54 62  1  0
 54 64  1  0
 55 61  1  0
 55 57  1  0
 56 62  1  0
 57 56  1  0
 58 57  2  0
 59 53  2  0
 60 59  1  0
 60 55  2  0
 61 54  1  0
 62 52  1  0
 64 66  2  0
 65 64  1  0
 67 65  1  0
 68 77  2  0
 68 73  1  0
 69 65  1  0
 69 73  1  0
 70 69  1  0
 71 72  1  0
 71 70  1  0
 72 68  1  0
 73 74  2  0
 74 75  1  0
 76 75  2  0
 77 76  1  0
 78 52  1  0
 78 83  1  0
 78 79  1  0
 79 82  1  1
 79 80  1  0
 81 79  1  0
 83 86  1  0
 84 88  1  0
 84 83  1  0
 85 84  2  0
 88 87  1  0
 90 88  1  0
 90 91  1  0
 90 89  1  0
M  ISO  4   5 100  19 100  50 101  51 101
M  END
>  <TORSDO>  (93) 
F 20

>  <SCORE>  (93) 
-13.667

>  <name>  (93) 
92

>  <ligand_id>  (93) 
92

>  <original_smiles>  (93) 
[H]c1c([H])c([H])c2c(c1[H])C([H])([H])C([H])([H])C([H])([H])C2([H])N([H])C(=O)C1([H])N(C(=O)C([H])(N([H])C(=O)C([H])(N([H])C([H])([H])[H])C([H])([H])[H])C(C([H])([H])[H])(C([H])([H])[H])C([H])([H])[H])C([H])([H])c2c([H])c(OC([H])([H])C([H])([H])C([H])([H])[N+]([H])([H])C([H])([H])C3([H])N(C(=O)N4C([H])([H])C([H])([H])C([H])([H])C([H])(n5nc(-c6c([H])c([H])c(Oc7c([H])c([H])c(F)c([H])c7F)c([H])c6[H])c(C(=O)N([H])[H])c5N([H])[H])C4([H])[H])C([H])([H])C4(C([H])([H])C4([H])[H])C3([H])[H])c([H])c([H])c2C1([H])[H]

>  <smiles>  (93) 
[H]c1c([H])c([H])c2c(c1[H])C([H])([H])C([H])([H])C([H])([H])C2([H])N([H])C(=O)C1([H])N(C(=O)C([H])(N([H])C(=O)C([H])(N([H])C([H])([H])[H])C([H])([H])[H])C(C([H])([H])[H])(C([H])([H])[H])C([H])([H])[H])C([H])([H])c2c([H])c(OC([H])([H])C([H])([H])C([H])([H])[N+]([H])([H])C([H])([H])C3([H])N(C(=O)N4C([H])([H])C([H])([H])C([H])([H])C([H])(n5nc(-c6c([H])c([H])c(Oc7c([H])c([H])c(F)c([H])c7F)c([H])c6[H])c(C(=O)N([H])[H])c5N([H])[H])C4([H])[H])C([H])([H])C4(C([H])([H])C4([H])[H])C3([H])[H])c([H])c([H])c2C1([H])[H]

$$$$
93:0:0
     RDKit          3D

103112  0  0  1  0  0  0  0  0999 V2000
  -29.8250  -21.6660   25.0620 C   0  0  0  0  0  3  0  0  0  0  0  0
  -31.6730  -20.9080   23.1870 C   0  0  0  0  0  3  0  0  0  0  0  0
  -30.0430  -20.2880   24.8670 C   0  0  0  0  0  0  0  0  0  0  0  0
  -31.0220  -19.8890   23.9180 C   0  0  0  0  0  0  0  0  0  0  0  0
  -30.5320  -22.5900   24.2790 C   0  0  0  0  0  0  0  0  0  0  0  0
  -31.4250  -22.2280   23.3440 N   0  0  0  0  0  0  0  0  0  0  0  0
  -30.2690  -23.9520   24.4060 N   0  0  0  0  0  0  0  0  0  0  0  0
  -29.8440  -24.1890   25.2960 H   0  0  0  0  0  0  0  0  0  0  0  0
  -27.6840  -19.6520   25.5430 C   0  0  0  0  0  1  0  0  0  0  0  0
  -29.1770  -19.3070   25.6460 C   0  0  0  0  0  2  0  0  0  0  0  0
  -32.1240  -17.8400   24.6960 C   0  0  0  0  0  1  0  0  0  0  0  0
  -31.3600  -18.5460   23.6710 N   0  0  0  0  0  0  0  0  0  0  0  0
  -30.5540  -17.8260   22.6860 C   0  0  0  0  0  2  0  0  0  0  0  0
  -31.8940  -13.6400   19.0240 C   0  0  0  0  0  0  0  0  0  0  0  0
  -30.8520  -11.7140   17.8820 C   0  0  0  0  0  2  0  0  0  0  0  0
  -29.7330  -12.1950   16.9380 C   0  0  0  0  0  2  0  0  0  0  0  0
  -28.3990  -12.3410   17.6960 C   0  0  0  0  0  2  0  0  0  0  0  0
  -28.5490  -13.1470   19.0150 C   0  0  0  0  0  3  0  0  0  0  0  0
  -29.7380  -12.6160   19.8440 C   0  0  0  0  0  2  0  0  0  0  0  0
  -30.9460  -12.6650   19.0020 N   0  0  0  0  0  0  0  0  0  0  0  0
  -32.8090  -13.7050   18.1920 O   0  0  0  0  0  0  0  0  0  0  0  0
  -30.9200  -16.9660   20.3180 C   0  0  0  0  0  2  0  0  0  0  0  0
  -31.3890  -15.4270   22.2430 C   0  0  0  0  0  2  0  0  0  0  0  0
  -31.7530  -16.0340   19.4190 C   0  0  0  0  0  2  0  0  0  0  0  0
  -32.1760  -14.5160   21.2760 C   0  0  0  0  0  2  0  0  0  0  0  0
  -31.3970  -16.9000   21.7810 C   0  0  0  0  0  3  0  0  0  0  0  0
  -31.6780  -14.6480   19.9000 N   0  0  0  0  0  0  0  0  0  0  0  0
  -26.6310  -14.1970   20.3770 C   0  0  0  0  0  0  0  0  0  0  0  0
  -25.4950  -13.6590   20.9220 C   0  0  0  0  0  0  0  0  0  0  0  0
  -25.5380  -12.2640   20.6220 C   0  0  0  0  0  0  0  0  0  0  0  0
  -27.3090  -13.1400   19.7890 N   0  0  0  0  0  0  0  0  0  0  0  0
  -26.6630  -11.9630   19.9870 N   0  0  0  0  0  0  0  0  0  0  0  0
  -24.5460  -11.2060   20.8510 C   0  0  0  0  0  0  0  0  0  0  0  0
  -24.8810  -10.0120   21.5280 C   0  0  0  0  0  3  0  0  0  0  0  0
  -23.9050   -9.0180   21.7520 C   0  0  0  0  0  3  0  0  0  0  0  0
  -22.5770   -9.2120   21.3020 C   0  0  0  0  0  0  0  0  0  0  0  0
  -22.2550  -10.3930   20.6100 C   0  0  0  0  0  3  0  0  0  0  0  0
  -23.2280  -11.3790   20.3820 C   0  0  0  0  0  3  0  0  0  0  0  0
  -21.5680   -8.2910   21.4530 O   0  0  0  0  0  0  0  0  0  0  0  0
  -21.4930   -7.4810   22.5580 C   0  0  0  0  0  0  0  0  0  0  0  0
  -21.5010   -8.0060   23.8690 C   0  0  0  0  0  3  0  0  0  0  0  0
  -21.3520   -7.1430   24.9740 C   0  0  0  0  0  3  0  0  0  0  0  0
  -21.1850   -5.7610   24.7700 C   0  0  0  0  0  0  0  0  0  0  0  0
  -21.1710   -5.2370   23.4650 C   0  0  0  0  0  3  0  0  0  0  0  0
  -21.3220   -6.0960   22.3620 C   0  0  0  0  0  0  0  0  0  0  0  0
  -21.2870   -5.5890   21.1060 F   0  0  0  0  0  0  0  0  0  0  0  0
  -21.0330   -4.9320   25.8300 F   0  0  0  0  0  0  0  0  0  0  0  0
  -24.3860  -14.4090   21.5990 C   0  0  0  0  0  0  0  0  0  0  0  0
  -23.7380  -13.7920   22.5810 N   0  0  0  0  0  0  0  0  0  0  0  0
  -24.1170  -15.5710   21.2920 O   0  0  0  0  0  0  0  0  0  0  0  0
  -23.9700  -12.8460   22.8480 H   0  0  0  0  0  0  0  0  0  0  0  0
  -22.9970  -14.2720   23.0740 H   0  0  0  0  0  0  0  0  0  0  0  0
  -27.1320  -15.4940   20.3140 N   0  0  0  0  0  0  0  0  0  0  0  0
  -26.6260  -16.2890   20.6900 H   0  0  0  0  0  0  0  0  0  0  0  0
  -27.9860  -15.7550   19.8390 H   0  0  0  0  0  0  0  0  0  0  0  0
  -29.5300  -24.5170   23.2790 C   0  0  0  0  0  2  0  0  0  0  0  0
  -28.2670  -23.6980   22.9390 C   0  0  0  0  0  2  0  0  0  0  0  0
  -27.9350  -23.7460   21.5010 N   0  0  0  0  0  4  0  0  0  0  0  0
  -28.6710  -23.2810   20.9920 H   0  0  0  0  0  0  0  0  0  0  0  0
  -27.9250  -24.7110   21.2040 H   0  0  0  0  0  0  0  0  0  0  0  0
  -26.6380  -23.1050   21.1730 C   0  0  0  0  0  2  0  0  0  0  0  0
  -26.4080  -22.9820   19.6540 C   0  0  0  0  0  2  0  0  0  0  0  0
  -25.0540  -23.3020   19.3360 O   0  0  0  0  0  0  0  0  0  0  0  0
  -25.1960  -28.9400   23.7350 C   0  0  0  0  0  0  0  0  0  0  0  0
  -24.5560  -24.5230   19.7250 C   0  0  0  0  0  0  0  0  0  0  0  0
  -23.2450  -28.7810   22.2170 C   0  0  0  0  0  3  0  0  0  0  0  0
  -23.4180  -27.0260   20.3760 C   0  0  0  0  0  0  0  0  0  0  0  0
  -25.4930  -27.7630   21.5640 C   0  0  0  0  0  2  0  0  0  0  0  0
  -24.7210  -26.7200   20.7850 C   0  0  0  0  0  0  0  0  0  0  0  0
  -25.2950  -25.4730   20.4680 C   0  0  0  0  0  3  0  0  0  0  0  0
  -23.2480  -24.8460   19.3120 C   0  0  0  0  0  3  0  0  0  0  0  0
  -22.6690  -26.0880   19.6430 C   0  0  0  0  0  3  0  0  0  0  0  0
  -22.8870  -28.3880   20.7590 C   0  0  0  0  0  2  0  0  0  0  0  0
  -24.6740  -28.4860   22.5610 N   0  0  0  0  0  0  0  0  0  0  0  0
  -24.5230  -29.6370   24.5060 O   0  0  0  0  0  0  0  0  0  0  0  0
  -22.2340  -28.1050   23.1700 C   0  0  0  0  0  0  0  0  0  0  0  0
  -20.9360  -28.3470   22.9280 N   0  0  0  0  0  0  0  0  0  0  0  0
  -22.6170  -27.3620   24.0770 O   0  0  0  0  0  0  0  0  0  0  0  0
  -20.7060  -28.9710   22.1680 H   0  0  0  0  0  0  0  0  0  0  0  0
  -17.3400  -28.0040   22.9190 C   0  0  0  0  0  0  0  0  0  0  0  0
  -19.8040  -27.7890   23.6680 C   0  0  0  0  0  3  0  0  0  0  0  0
  -19.6500  -26.2770   23.3890 C   0  0  0  0  0  2  0  0  0  0  0  0
  -18.6830  -25.9690   22.2420 C   0  0  0  0  0  2  0  0  0  0  0  0
  -17.2910  -26.5320   22.5490 C   0  0  0  0  0  2  0  0  0  0  0  0
  -18.5240  -28.5980   23.4290 C   0  0  0  0  0  0  0  0  0  0  0  0
  -18.5280  -29.9790   23.7240 C   0  0  0  0  0  3  0  0  0  0  0  0
  -17.3750  -30.7610   23.5230 C   0  0  0  0  0  3  0  0  0  0  0  0
  -16.1990  -30.1650   23.0330 C   0  0  0  0  0  3  0  0  0  0  0  0
  -16.1830  -28.7910   22.7370 C   0  0  0  0  0  3  0  0  0  0  0  0
  -26.6670  -28.6300   24.1540 C   0  0  0  0  0  3  0  0  0  0  0  0
  -27.1740  -29.7940   24.8900 N   0  0  0  0  0  0  0  0  0  0  0  0
  -28.1690  -30.5850   24.4680 C   0  0  0  0  0  0  0  0  0  0  0  0
  -28.8130  -30.3620   23.4390 O   0  0  0  0  0  0  0  0  0  0  0  0
  -26.6600  -30.0660   25.7160 H   0  0  0  0  0  0  0  0  0  0  0  0
  -27.9650  -33.0840   24.6360 C   0  0  0  0  0  1  0  0  0  0  0  0
  -28.5040  -31.8190   25.3240 C   0  0  0  0  0  3  0  0  0  0  0  0
  -30.4900  -30.9430   26.4700 C   0  0  0  0  0  1  0  0  0  0  0  0
  -29.9510  -31.9770   25.5910 N   0  0  0  0  0  0  0  0  0  0  0  0
  -30.1440  -32.8820   26.0110 H   0  0  0  0  0  0  0  0  0  0  0  0
  -26.8040  -27.3160   25.0190 C   0  0  1  0  0  0  0  0  0  0  0  0
  -25.8360  -27.2640   26.2240 C   0  0  0  0  0  1  0  0  0  0  0  0
  -26.5480  -26.0640   24.1490 C   0  0  0  0  0  1  0  0  0  0  0  0
  -28.2480  -27.1940   25.5600 C   0  0  0  0  0  1  0  0  0  0  0  0
  2  6  2  0
  2  4  1  0
  3  1  1  0
  3 10  1  0
  4  3  2  0
  5  7  1  0
  5  1  2  0
  6  5  1  0
  7  8  1  0
  9 10  1  0
 12  4  1  0
 12 11  1  0
 13 12  1  0
 14 27  1  0
 15 20  1  0
 16 17  1  0
 16 15  1  0
 18 17  1  0
 18 31  1  0
 18 19  1  0
 20 14  1  0
 20 19  1  0
 21 14  2  0
 22 26  1  0
 24 27  1  0
 24 22  1  0
 25 23  1  0
 26 23  1  0
 26 13  1  0
 27 25  1  0
 28 29  2  0
 29 48  1  0
 30 33  1  0
 30 29  1  0
 31 32  1  0
 31 28  1  0
 32 30  2  0
 33 34  1  0
 34 35  2  0
 36 39  1  0
 36 35  1  0
 37 36  2  0
 38 37  1  0
 38 33  2  0
 39 40  1  0
 40 41  1  0
 41 42  2  0
 43 42  1  0
 43 47  1  0
 44 43  2  0
 45 40  2  0
 45 44  1  0
 46 45  1  0
 48 49  1  0
 49 51  1  0
 49 52  1  0
 50 48  2  0
 53 28  1  0
 53 54  1  0
 55 53  1  0
 56  7  1  0
 57 56  1  0
 58 57  1  0
 59 58  1  0
 60 58  1  0
 61 58  1  0
 62 61  1  0
 63 62  1  0
 63 65  1  0
 64 75  2  0
 65 70  1  0
 66 74  1  0
 66 76  1  0
 67 73  1  0
 67 69  1  0
 68 74  1  0
 69 68  1  0
 70 69  2  0
 71 72  1  0
 71 65  2  0
 72 67  2  0
 73 66  1  0
 74 64  1  0
 76 78  2  0
 77 76  1  0
 79 77  1  0
 80 85  1  0
 81 77  1  0
 82 81  1  0
 83 84  1  0
 83 82  1  0
 84 80  1  0
 85 81  1  0
 85 86  2  0
 87 86  1  0
 88 87  2  0
 89 80  2  0
 89 88  1  0
 90 64  1  0
 90 91  1  0
 90100  1  0
 91 94  1  0
 92 91  1  0
 92 96  1  0
 93 92  2  0
 96 95  1  0
 96 98  1  0
 98 99  1  0
 98 97  1  0
100103  1  1
100101  1  0
102100  1  0
M  ISO  4  14 100  27 100  62 101  63 101
M  END
>  <TORSDO>  (94) 
F 24

>  <SCORE>  (94) 
7.974

>  <name>  (94) 
93

>  <ligand_id>  (94) 
93

>  <original_smiles>  (94) 
[H]c1nc(N([H])C([H])([H])C([H])([H])[N+]([H])([H])C([H])([H])C([H])([H])Oc2c([H])c([H])c3c(c2[H])C([H])([H])N(C(=O)C([H])(N([H])C(=O)C([H])(N([H])C([H])([H])[H])C([H])([H])[H])C(C([H])([H])[H])(C([H])([H])[H])C([H])([H])[H])C([H])(C(=O)N([H])C2([H])c4c([H])c([H])c([H])c([H])c4C([H])([H])C([H])([H])C2([H])[H])C3([H])[H])c([H])c(C([H])([H])C([H])([H])[H])c1N(C([H])([H])[H])C([H])([H])C1([H])C([H])([H])C([H])([H])N(C(=O)N2C([H])([H])C([H])([H])C([H])([H])C([H])(n3nc(-c4c([H])c([H])c(Oc5c([H])c([H])c(F)c([H])c5F)c([H])c4[H])c(C(=O)N([H])[H])c3N([H])[H])C2([H])[H])C([H])([H])C1([H])[H]

>  <smiles>  (94) 
[H]c1nc(N([H])C([H])([H])C([H])([H])[N+]([H])([H])C([H])([H])C([H])([H])Oc2c([H])c([H])c3c(c2[H])C([H])([H])N(C(=O)C([H])(N([H])C(=O)C([H])(N([H])C([H])([H])[H])C([H])([H])[H])C(C([H])([H])[H])(C([H])([H])[H])C([H])([H])[H])C([H])(C(=O)N([H])C2([H])c4c([H])c([H])c([H])c([H])c4C([H])([H])C([H])([H])C2([H])[H])C3([H])[H])c([H])c(C([H])([H])C([H])([H])[H])c1N(C([H])([H])[H])C([H])([H])C1([H])C([H])([H])C([H])([H])N(C(=O)N2C([H])([H])C([H])([H])C([H])([H])C([H])(n3nc(-c4c([H])c([H])c(Oc5c([H])c([H])c(F)c([H])c5F)c([H])c4[H])c(C(=O)N([H])[H])c3N([H])[H])C2([H])[H])C([H])([H])C1([H])[H]

$$$$
