0:0:0
     RDKit          3D

 92101  0  0  1  0  0  0  0  0999 V2000
  -27.7580  -22.2800   20.0270 C   0  0  0  0  0  2  0  0  0  0  0  0
  -28.2510  -22.3990   22.0520 C   0  0  0  0  0  2  0  0  0  0  0  0
  -27.9120  -21.2160   21.1330 C   0  0  0  0  0  3  0  0  0  0  0  0
  -28.6050  -23.1490   20.8460 N   0  0  0  0  0  0  0  0  0  0  0  0
  -29.0350  -20.2540   20.9500 N   0  0  0  0  0  4  0  0  0  0  0  0
  -29.5290  -20.1970   21.8250 H   0  0  0  0  0  0  0  0  0  0  0  0
  -29.6780  -20.6220   20.2690 H   0  0  0  0  0  0  0  0  0  0  0  0
  -28.6100  -18.8770   20.5830 C   0  0  0  0  0  2  0  0  0  0  0  0
  -30.8390  -14.4660   20.1210 C   0  0  0  0  0  0  0  0  0  0  0  0
  -30.4490  -12.3250   18.9530 C   0  0  0  0  0  2  0  0  0  0  0  0
  -29.4760  -12.5360   17.7760 C   0  0  0  0  0  2  0  0  0  0  0  0
  -28.0140  -12.4200   18.2480 C   0  0  0  0  0  2  0  0  0  0  0  0
  -27.7250  -13.2710   19.5130 C   0  0  0  0  0  3  0  0  0  0  0  0
  -28.8060  -13.0420   20.5930 C   0  0  0  0  0  2  0  0  0  0  0  0
  -30.1190  -13.3170   19.9870 N   0  0  0  0  0  0  0  0  0  0  0  0
  -31.9400  -14.6270   19.5840 O   0  0  0  0  0  0  0  0  0  0  0  0
  -30.3830  -17.5770   21.9990 C   0  0  0  0  0  2  0  0  0  0  0  0
  -31.0440  -16.1990   21.8580 C   0  0  0  0  0  2  0  0  0  0  0  0
  -29.3250  -16.3980   20.2330 C   0  0  0  0  0  2  0  0  0  0  0  0
  -29.7550  -17.8250   20.6300 C   0  0  0  0  0  3  0  0  0  0  0  0
  -30.2710  -15.4540   20.8560 N   0  0  0  0  0  0  0  0  0  0  0  0
  -25.3630  -13.9320   20.2920 C   0  0  0  0  0  0  0  0  0  0  0  0
  -24.2920  -13.1820   20.6950 C   0  0  0  0  0  0  0  0  0  0  0  0
  -24.7240  -11.8210   20.6510 C   0  0  0  0  0  0  0  0  0  0  0  0
  -26.3830  -13.0280   20.0320 N   0  0  0  0  0  0  0  0  0  0  0  0
  -26.0030  -11.7540   20.3040 N   0  0  0  0  0  0  0  0  0  0  0  0
  -23.9770  -10.5730   20.8610 C   0  0  0  0  0  0  0  0  0  0  0  0
  -24.3860   -9.6230   21.8220 C   0  0  0  0  0  3  0  0  0  0  0  0
  -23.6420   -8.4390   22.0190 C   0  0  0  0  0  3  0  0  0  0  0  0
  -22.4760   -8.1990   21.2540 C   0  0  0  0  0  0  0  0  0  0  0  0
  -22.0870   -9.1390   20.2830 C   0  0  0  0  0  3  0  0  0  0  0  0
  -22.8310  -10.3140   20.0850 C   0  0  0  0  0  3  0  0  0  0  0  0
  -21.7050   -7.0670   21.3590 O   0  0  0  0  0  0  0  0  0  0  0  0
  -21.5900   -6.3820   22.5420 C   0  0  0  0  0  0  0  0  0  0  0  0
  -21.1170   -7.0030   23.7190 C   0  0  0  0  0  3  0  0  0  0  0  0
  -20.9480   -6.2440   24.8960 C   0  0  0  0  0  3  0  0  0  0  0  0
  -21.2410   -4.8670   24.8950 C   0  0  0  0  0  0  0  0  0  0  0  0
  -21.7080   -4.2470   23.7220 C   0  0  0  0  0  3  0  0  0  0  0  0
  -21.8780   -5.0020   22.5480 C   0  0  0  0  0  0  0  0  0  0  0  0
  -22.3070   -4.3950   21.4150 F   0  0  0  0  0  0  0  0  0  0  0  0
  -21.0720   -4.1370   26.0210 F   0  0  0  0  0  0  0  0  0  0  0  0
  -22.9130  -13.6880   21.0070 C   0  0  0  0  0  0  0  0  0  0  0  0
  -22.1990  -13.0120   21.9010 N   0  0  0  0  0  0  0  0  0  0  0  0
  -22.4790  -14.7180   20.4940 O   0  0  0  0  0  0  0  0  0  0  0  0
  -22.5630  -12.1780   22.3380 H   0  0  0  0  0  0  0  0  0  0  0  0
  -21.2750  -13.3340   22.1530 H   0  0  0  0  0  0  0  0  0  0  0  0
  -25.5490  -15.2980   20.1040 N   0  0  0  0  0  0  0  0  0  0  0  0
  -24.7910  -15.9610   20.2170 H   0  0  0  0  0  0  0  0  0  0  0  0
  -26.3800  -15.7090   19.7010 H   0  0  0  0  0  0  0  0  0  0  0  0
  -28.1460  -24.5460   20.9460 C   0  0  0  0  0  2  0  0  0  0  0  0
  -28.5690  -25.4220   19.7430 C   0  0  0  0  0  2  0  0  0  0  0  0
  -28.5050  -26.8250   20.0410 O   0  0  0  0  0  0  0  0  0  0  0  0
  -24.6320  -31.8770   23.2070 C   0  0  0  0  0  0  0  0  0  0  0  0
  -27.2960  -27.4930   20.0520 C   0  0  0  0  0  0  0  0  0  0  0  0
  -23.4260  -30.4840   21.5570 C   0  0  0  0  0  3  0  0  0  0  0  0
  -24.8810  -28.9740   20.1040 C   0  0  0  0  0  0  0  0  0  0  0  0
  -25.9470  -30.8670   21.3440 C   0  0  0  0  0  2  0  0  0  0  0  0
  -26.0380  -29.5050   20.6860 C   0  0  0  0  0  0  0  0  0  0  0  0
  -27.2450  -28.7730   20.6540 C   0  0  0  0  0  3  0  0  0  0  0  0
  -26.1150  -26.9710   19.4740 C   0  0  0  0  0  3  0  0  0  0  0  0
  -24.9140  -27.7070   19.4970 C   0  0  0  0  0  3  0  0  0  0  0  0
  -23.6300  -29.8210   20.1680 C   0  0  0  0  0  2  0  0  0  0  0  0
  -24.6870  -31.0910   22.0940 N   0  0  0  0  0  0  0  0  0  0  0  0
  -23.5530  -32.1320   23.7570 O   0  0  0  0  0  0  0  0  0  0  0  0
  -22.7910  -29.4450   22.5090 C   0  0  0  0  0  0  0  0  0  0  0  0
  -21.4670  -29.2550   22.3900 N   0  0  0  0  0  0  0  0  0  0  0  0
  -23.4870  -28.8140   23.3090 O   0  0  0  0  0  0  0  0  0  0  0  0
  -20.9680  -29.8170   21.7160 H   0  0  0  0  0  0  0  0  0  0  0  0
  -18.1090  -28.0210   22.8870 C   0  0  0  0  0  0  0  0  0  0  0  0
  -20.6640  -28.3020   23.1540 C   0  0  0  0  0  3  0  0  0  0  0  0
  -20.7800  -26.8780   22.5620 C   0  0  0  0  0  2  0  0  0  0  0  0
  -19.6780  -26.5550   21.5480 C   0  0  0  0  0  2  0  0  0  0  0  0
  -18.2970  -26.6800   22.1980 C   0  0  0  0  0  2  0  0  0  0  0  0
  -19.2210  -28.7890   23.3220 C   0  0  0  0  0  0  0  0  0  0  0  0
  -18.9920  -30.0460   23.9240 C   0  0  0  0  0  3  0  0  0  0  0  0
  -17.6830  -30.5340   24.0980 C   0  0  0  0  0  3  0  0  0  0  0  0
  -16.5850  -29.7620   23.6800 C   0  0  0  0  0  3  0  0  0  0  0  0
  -16.7990  -28.5070   23.0800 C   0  0  0  0  0  3  0  0  0  0  0  0
  -25.9180  -32.5110   23.8260 C   0  0  0  0  0  3  0  0  0  0  0  0
  -26.4510  -31.7300   25.0900 C   0  0  1  0  0  0  0  0  0  0  0  0
  -25.3670  -31.4740   26.1630 C   0  0  0  0  0  1  0  0  0  0  0  0
  -27.0390  -30.3620   24.6760 C   0  0  0  0  0  1  0  0  0  0  0  0
  -27.6000  -32.5250   25.7500 C   0  0  0  0  0  1  0  0  0  0  0  0
  -25.6020  -33.9030   24.1700 N   0  0  0  0  0  0  0  0  0  0  0  0
  -25.9240  -34.9650   23.4170 C   0  0  0  0  0  0  0  0  0  0  0  0
  -26.5900  -34.8740   22.3820 O   0  0  0  0  0  0  0  0  0  0  0  0
  -25.0110  -34.0480   24.9750 H   0  0  0  0  0  0  0  0  0  0  0  0
  -24.1810  -36.7460   23.0860 C   0  0  0  0  0  1  0  0  0  0  0  0
  -25.4280  -36.3450   23.8880 C   0  0  0  0  0  3  0  0  0  0  0  0
  -27.5600  -37.2360   24.7180 C   0  0  0  0  0  1  0  0  0  0  0  0
  -26.4530  -37.4050   23.7810 N   0  0  0  0  0  0  0  0  0  0  0  0
  -26.0420  -38.3210   23.9380 H   0  0  0  0  0  0  0  0  0  0  0  0
  1  4  1  0
  1  3  1  0
  3  5  1  0
  3  2  1  0
  4 50  1  0
  4  2  1  0
  5  6  1  0
  7  5  1  0
  8  5  1  0
  9 21  1  0
 10 15  1  0
 11 12  1  0
 11 10  1  0
 13 12  1  0
 13 25  1  0
 13 14  1  0
 15  9  1  0
 15 14  1  0
 16  9  2  0
 18 17  1  0
 19 20  1  0
 19 21  1  0
 20  8  1  0
 20 17  1  0
 21 18  1  0
 22 23  2  0
 23 42  1  0
 24 23  1  0
 24 27  1  0
 25 22  1  0
 25 26  1  0
 26 24  2  0
 27 28  1  0
 28 29  2  0
 30 33  1  0
 30 29  1  0
 31 30  2  0
 32 31  1  0
 32 27  2  0
 33 34  1  0
 34 39  2  0
 34 35  1  0
 35 36  2  0
 37 36  1  0
 37 41  1  0
 38 37  2  0
 39 38  1  0
 40 39  1  0
 42 43  1  0
 43 46  1  0
 43 45  1  0
 44 42  2  0
 47 48  1  0
 47 22  1  0
 49 47  1  0
 51 52  1  0
 51 50  1  0
 52 54  1  0
 53 64  2  0
 54 59  1  0
 55 63  1  0
 55 65  1  0
 56 62  1  0
 56 58  1  0
 57 63  1  0
 58 57  1  0
 59 58  2  0
 60 61  1  0
 60 54  2  0
 61 56  2  0
 62 55  1  0
 63 53  1  0
 65 67  2  0
 66 65  1  0
 68 66  1  0
 69 78  2  0
 69 74  1  0
 70 66  1  0
 70 74  1  0
 71 70  1  0
 72 73  1  0
 72 71  1  0
 73 69  1  0
 74 75  2  0
 75 76  1  0
 77 76  2  0
 78 77  1  0
 79 53  1  0
 79 84  1  0
 79 80  1  0
 80 83  1  1
 80 81  1  0
 82 80  1  0
 84 87  1  0
 85 89  1  0
 85 84  1  0
 86 85  2  0
 89 88  1  0
 91 89  1  0
 91 92  1  0
 91 90  1  0
M  ISO  4   9 100  21 100  51 101  52 101
M  END
>  <TORSDO>  (1) 
F 20

>  <SCORE>  (1) 
-13.616

>  <name>  (1) 
0

>  <ligand_id>  (1) 
0

>  <original_smiles>  (1) 
[H]c1c([H])c([H])c2c(c1[H])C([H])([H])C([H])([H])C([H])([H])C2([H])N([H])C(=O)C1([H])N(C(=O)C([H])(N([H])C(=O)C([H])(N([H])C([H])([H])[H])C([H])([H])[H])C(C([H])([H])[H])(C([H])([H])[H])C([H])([H])[H])C([H])([H])c2c([H])c(OC([H])([H])C([H])([H])N3C([H])([H])C([H])([N+]([H])([H])C([H])([H])C4([H])C([H])([H])N(C(=O)N5C([H])([H])C([H])([H])C([H])([H])C([H])(n6nc(-c7c([H])c([H])c(Oc8c([H])c([H])c(F)c([H])c8F)c([H])c7[H])c(C(=O)N([H])[H])c6N([H])[H])C5([H])[H])C([H])([H])C4([H])[H])C3([H])[H])c([H])c([H])c2C1([H])[H]

>  <smiles>  (1) 
[H]c1c([H])c([H])c2c(c1[H])C([H])([H])C([H])([H])C([H])([H])C2([H])N([H])C(=O)C1([H])N(C(=O)C([H])(N([H])C(=O)C([H])(N([H])C([H])([H])[H])C([H])([H])[H])C(C([H])([H])[H])(C([H])([H])[H])C([H])([H])[H])C([H])([H])c2c([H])c(OC([H])([H])C([H])([H])N3C([H])([H])C([H])([N+]([H])([H])C([H])([H])C4([H])C([H])([H])N(C(=O)N5C([H])([H])C([H])([H])C([H])([H])C([H])(n6nc(-c7c([H])c([H])c(Oc8c([H])c([H])c(F)c([H])c8F)c([H])c7[H])c(C(=O)N([H])[H])c6N([H])[H])C5([H])[H])C([H])([H])C4([H])[H])C3([H])[H])c([H])c([H])c2C1([H])[H]

$$$$
1:0:0
     RDKit          3D

 98108  0  0  1  0  0  0  0  0999 V2000
  -30.7360  -21.4500   20.8300 C   0  0  0  0  0  3  0  0  0  0  0  0
  -30.4600  -22.3570   21.8190 C   0  0  0  0  0  0  0  0  0  0  0  0
  -30.4550  -20.1960   21.4370 C   0  0  0  0  0  0  0  0  0  0  0  0
  -30.1080  -23.6060   24.3980 C   0  0  0  0  0  2  0  0  0  0  0  0
  -29.8500  -24.4390   23.1260 C   0  0  0  0  0  2  0  0  0  0  0  0
  -29.6840  -22.1350   24.2290 C   0  0  0  0  0  2  0  0  0  0  0  0
  -30.5740  -23.8600   21.8850 C   0  0  0  0  0  3  0  0  0  0  0  0
  -30.0540  -20.2920   22.6910 N   0  0  0  0  0  0  0  0  0  0  0  0
  -30.0780  -21.6220   22.9300 N   0  0  0  0  0  0  0  0  0  0  0  0
  -30.5940  -18.9860   20.7570 N   0  0  0  0  0  0  0  0  0  0  0  0
  -30.8770  -18.9990   19.7830 H   0  0  0  0  0  0  0  0  0  0  0  0
  -30.8200  -14.4440   20.0100 C   0  0  0  0  0  0  0  0  0  0  0  0
  -30.3750  -12.3730   18.7480 C   0  0  0  0  0  2  0  0  0  0  0  0
  -29.3430  -12.6440   17.6360 C   0  0  0  0  0  2  0  0  0  0  0  0
  -27.9080  -12.4920   18.1760 C   0  0  0  0  0  2  0  0  0  0  0  0
  -27.6810  -13.2770   19.4950 C   0  0  0  0  0  3  0  0  0  0  0  0
  -28.8160  -12.9940   20.5060 C   0  0  0  0  0  2  0  0  0  0  0  0
  -30.1000  -13.3010   19.8530 N   0  0  0  0  0  0  0  0  0  0  0  0
  -31.8410  -14.6940   19.3570 O   0  0  0  0  0  0  0  0  0  0  0  0
  -31.2820  -17.0800   22.2050 C   0  0  0  0  0  2  0  0  0  0  0  0
  -30.9490  -15.5890   22.1490 C   0  0  0  0  0  2  0  0  0  0  0  0
  -29.8550  -16.6490   20.3200 C   0  0  0  0  0  2  0  0  0  0  0  0
  -30.1870  -17.7220   21.3640 C   0  0  0  0  0  3  0  0  0  0  0  0
  -30.2990  -15.3550   20.8560 N   0  0  0  0  0  0  0  0  0  0  0  0
  -25.3380  -13.8680   20.3870 C   0  0  0  0  0  0  0  0  0  0  0  0
  -24.3010  -13.0870   20.8200 C   0  0  0  0  0  0  0  0  0  0  0  0
  -24.7600  -11.7360   20.7290 C   0  0  0  0  0  0  0  0  0  0  0  0
  -26.3650  -12.9940   20.0640 N   0  0  0  0  0  0  0  0  0  0  0  0
  -26.0230  -11.7060   20.3240 N   0  0  0  0  0  0  0  0  0  0  0  0
  -24.0520  -10.4680   20.9490 C   0  0  0  0  0  0  0  0  0  0  0  0
  -24.4780   -9.5440   21.9300 C   0  0  0  0  0  3  0  0  0  0  0  0
  -23.7690   -8.3410   22.1360 C   0  0  0  0  0  3  0  0  0  0  0  0
  -22.6210   -8.0520   21.3610 C   0  0  0  0  0  0  0  0  0  0  0  0
  -22.2150   -8.9640   20.3710 C   0  0  0  0  0  3  0  0  0  0  0  0
  -22.9240  -10.1590   20.1630 C   0  0  0  0  0  3  0  0  0  0  0  0
  -21.8870   -6.8960   21.4730 O   0  0  0  0  0  0  0  0  0  0  0  0
  -21.7410   -6.2510   22.6750 C   0  0  0  0  0  0  0  0  0  0  0  0
  -21.1650   -6.8850   23.7970 C   0  0  0  0  0  3  0  0  0  0  0  0
  -20.9690   -6.1630   24.9900 C   0  0  0  0  0  3  0  0  0  0  0  0
  -21.3400   -4.8070   25.0630 C   0  0  0  0  0  0  0  0  0  0  0  0
  -21.9090   -4.1720   23.9450 C   0  0  0  0  0  3  0  0  0  0  0  0
  -22.1060   -4.8910   22.7540 C   0  0  0  0  0  0  0  0  0  0  0  0
  -22.6360   -4.2690   21.6730 F   0  0  0  0  0  0  0  0  0  0  0  0
  -21.1460   -4.1110   26.2070 F   0  0  0  0  0  0  0  0  0  0  0  0
  -22.9270  -13.5540   21.2060 C   0  0  0  0  0  0  0  0  0  0  0  0
  -22.2740  -12.8470   22.1220 N   0  0  0  0  0  0  0  0  0  0  0  0
  -22.4430  -14.5800   20.7310 O   0  0  0  0  0  0  0  0  0  0  0  0
  -22.6780  -12.0160   22.5280 H   0  0  0  0  0  0  0  0  0  0  0  0
  -21.3560  -13.1420   22.4240 H   0  0  0  0  0  0  0  0  0  0  0  0
  -25.4870  -15.2420   20.2200 N   0  0  0  0  0  0  0  0  0  0  0  0
  -24.7320  -15.8950   20.3980 H   0  0  0  0  0  0  0  0  0  0  0  0
  -26.3160  -15.6870   19.8500 H   0  0  0  0  0  0  0  0  0  0  0  0
  -30.0970  -24.4920   20.6310 N   0  0  0  0  0  4  0  0  0  0  0  0
  -29.0930  -24.4250   20.5580 H   0  0  0  0  0  0  0  0  0  0  0  0
  -30.4740  -23.9300   19.8850 H   0  0  0  0  0  0  0  0  0  0  0  0
  -30.5410  -25.8890   20.3800 C   0  0  0  0  0  2  0  0  0  0  0  0
  -29.4350  -26.9340   20.6180 C   0  0  0  0  0  2  0  0  0  0  0  0
  -28.3650  -26.6720   19.7150 O   0  0  0  0  0  0  0  0  0  0  0  0
  -24.5290  -31.7270   23.0380 C   0  0  0  0  0  0  0  0  0  0  0  0
  -27.2210  -27.4320   19.8170 C   0  0  0  0  0  0  0  0  0  0  0  0
  -23.3180  -30.3350   21.3860 C   0  0  0  0  0  3  0  0  0  0  0  0
  -24.7800  -28.8600   19.9040 C   0  0  0  0  0  0  0  0  0  0  0  0
  -25.8260  -30.7600   21.1460 C   0  0  0  0  0  2  0  0  0  0  0  0
  -25.9310  -29.4030   20.4870 C   0  0  0  0  0  0  0  0  0  0  0  0
  -27.1510  -28.6970   20.4510 C   0  0  0  0  0  3  0  0  0  0  0  0
  -26.0540  -26.9030   19.2280 C   0  0  0  0  0  3  0  0  0  0  0  0
  -24.8330  -27.6040   19.2750 C   0  0  0  0  0  3  0  0  0  0  0  0
  -23.5160  -29.6850   19.9880 C   0  0  0  0  0  2  0  0  0  0  0  0
  -24.5760  -30.9540   21.9150 N   0  0  0  0  0  0  0  0  0  0  0  0
  -23.4550  -31.9650   23.6060 O   0  0  0  0  0  0  0  0  0  0  0  0
  -22.7070  -29.2810   22.3360 C   0  0  0  0  0  0  0  0  0  0  0  0
  -21.3880  -29.0610   22.2120 N   0  0  0  0  0  0  0  0  0  0  0  0
  -23.4150  -28.6650   23.1360 O   0  0  0  0  0  0  0  0  0  0  0  0
  -20.8770  -29.6120   21.5370 H   0  0  0  0  0  0  0  0  0  0  0  0
  -18.0530  -27.7680   22.7140 C   0  0  0  0  0  0  0  0  0  0  0  0
  -20.6050  -28.0890   22.9730 C   0  0  0  0  0  3  0  0  0  0  0  0
  -20.7420  -26.6710   22.3700 C   0  0  0  0  0  2  0  0  0  0  0  0
  -19.6400  -26.3370   21.3580 C   0  0  0  0  0  2  0  0  0  0  0  0
  -18.2600  -26.4350   22.0150 C   0  0  0  0  0  2  0  0  0  0  0  0
  -19.1540  -28.5510   23.1500 C   0  0  0  0  0  0  0  0  0  0  0  0
  -18.9090  -29.7980   23.7630 C   0  0  0  0  0  3  0  0  0  0  0  0
  -17.5920  -30.2640   23.9440 C   0  0  0  0  0  3  0  0  0  0  0  0
  -16.5050  -29.4780   23.5260 C   0  0  0  0  0  3  0  0  0  0  0  0
  -16.7370  -28.2310   22.9180 C   0  0  0  0  0  3  0  0  0  0  0  0
  -25.8160  -32.3660   23.6470 C   0  0  0  0  0  3  0  0  0  0  0  0
  -26.3900  -31.5620   24.8770 C   0  0  1  0  0  0  0  0  0  0  0  0
  -25.3300  -31.2420   25.9570 C   0  0  0  0  0  1  0  0  0  0  0  0
  -27.0110  -30.2240   24.4110 C   0  0  0  0  0  1  0  0  0  0  0  0
  -27.5270  -32.3690   25.5470 C   0  0  0  0  0  1  0  0  0  0  0  0
  -25.4860  -33.7440   24.0330 N   0  0  0  0  0  0  0  0  0  0  0  0
  -25.7920  -34.8300   23.3090 C   0  0  0  0  0  0  0  0  0  0  0  0
  -26.4540  -34.7780   22.2690 O   0  0  0  0  0  0  0  0  0  0  0  0
  -24.8970  -33.8580   24.8450 H   0  0  0  0  0  0  0  0  0  0  0  0
  -24.0420  -36.6110   23.0140 C   0  0  0  0  0  1  0  0  0  0  0  0
  -25.2800  -36.1900   23.8210 C   0  0  0  0  0  3  0  0  0  0  0  0
  -27.3900  -37.0670   24.7180 C   0  0  0  0  0  1  0  0  0  0  0  0
  -26.3000  -37.2600   23.7650 N   0  0  0  0  0  0  0  0  0  0  0  0
  -25.8790  -38.1680   23.9440 H   0  0  0  0  0  0  0  0  0  0  0  0
  1  3  1  0
  1  2  2  0
  2  7  1  0
  2  9  1  0
  3  8  2  0
  5  4  1  0
  6  4  1  0
  7 53  1  0
  7  5  1  0
  8  9  1  0
  9  6  1  0
 10  3  1  0
 11 10  1  0
 12 24  1  0
 13 18  1  0
 14 15  1  0
 14 13  1  0
 16 15  1  0
 16 28  1  0
 16 17  1  0
 18 12  1  0
 18 17  1  0
 19 12  2  0
 21 20  1  0
 22 24  1  0
 22 23  1  0
 23 10  1  0
 23 20  1  0
 24 21  1  0
 25 26  2  0
 26 45  1  0
 27 26  1  0
 27 30  1  0
 28 29  1  0
 28 25  1  0
 29 27  2  0
 30 31  1  0
 31 32  2  0
 33 36  1  0
 33 32  1  0
 34 33  2  0
 35 34  1  0
 35 30  2  0
 36 37  1  0
 37 42  2  0
 37 38  1  0
 38 39  2  0
 39 40  1  0
 40 44  1  0
 41 40  2  0
 42 41  1  0
 43 42  1  0
 45 46  1  0
 46 49  1  0
 46 48  1  0
 47 45  2  0
 50 25  1  0
 50 51  1  0
 52 50  1  0
 54 53  1  0
 55 53  1  0
 56 57  1  0
 56 53  1  0
 58 60  1  0
 58 57  1  0
 59 70  2  0
 60 65  1  0
 61 69  1  0
 61 71  1  0
 62 68  1  0
 62 64  1  0
 63 69  1  0
 64 63  1  0
 65 64  2  0
 66 67  1  0
 66 60  2  0
 67 62  2  0
 68 61  1  0
 69 59  1  0
 71 73  2  0
 72 71  1  0
 74 72  1  0
 75 84  2  0
 75 80  1  0
 76 72  1  0
 76 80  1  0
 77 76  1  0
 78 79  1  0
 78 77  1  0
 79 75  1  0
 80 81  2  0
 81 82  1  0
 83 82  2  0
 84 83  1  0
 85 59  1  0
 85 90  1  0
 85 86  1  0
 86 89  1  1
 86 87  1  0
 88 86  1  0
 90 93  1  0
 91 95  1  0
 91 90  1  0
 92 91  2  0
 95 94  1  0
 97 95  1  0
 97 98  1  0
 97 96  1  0
M  ISO  4  12 100  24 100  57 101  58 101
M  END
>  <TORSDO>  (2) 
F 19

>  <SCORE>  (2) 
-12.094

>  <name>  (2) 
1

>  <ligand_id>  (2) 
1

>  <original_smiles>  (2) 
[H]c1c([H])c([H])c2c(c1[H])C([H])([H])C([H])([H])C([H])([H])C2([H])N([H])C(=O)C1([H])N(C(=O)C([H])(N([H])C(=O)C([H])(N([H])C([H])([H])[H])C([H])([H])[H])C(C([H])([H])[H])(C([H])([H])[H])C([H])([H])[H])C([H])([H])c2c([H])c(OC([H])([H])C([H])([H])[N+]([H])([H])C3([H])c4c([H])c(N([H])C5([H])C([H])([H])N(C(=O)N6C([H])([H])C([H])([H])C([H])([H])C([H])(n7nc(-c8c([H])c([H])c(Oc9c([H])c([H])c(F)c([H])c9F)c([H])c8[H])c(C(=O)N([H])[H])c7N([H])[H])C6([H])[H])C([H])([H])C5([H])[H])nn4C([H])([H])C([H])([H])C3([H])[H])c([H])c([H])c2C1([H])[H]

>  <smiles>  (2) 
[H]c1c([H])c([H])c2c(c1[H])C([H])([H])C([H])([H])C([H])([H])C2([H])N([H])C(=O)C1([H])N(C(=O)C([H])(N([H])C(=O)C([H])(N([H])C([H])([H])[H])C([H])([H])[H])C(C([H])([H])[H])(C([H])([H])[H])C([H])([H])[H])C([H])([H])c2c([H])c(OC([H])([H])C([H])([H])[N+]([H])([H])C3([H])c4c([H])c(N([H])C5([H])C([H])([H])N(C(=O)N6C([H])([H])C([H])([H])C([H])([H])C([H])(n7nc(-c8c([H])c([H])c(Oc9c([H])c([H])c(F)c([H])c9F)c([H])c8[H])c(C(=O)N([H])[H])c7N([H])[H])C6([H])[H])C([H])([H])C5([H])[H])nn4C([H])([H])C([H])([H])C3([H])[H])c([H])c([H])c2C1([H])[H]

$$$$
2:0:0
     RDKit          3D

 98107  0  0  1  0  0  0  0  0999 V2000
  -30.1240  -22.1590   19.1030 N   0  0  0  0  0  4  0  0  0  0  0  0
  -30.7880  -22.3660   19.8300 H   0  0  0  0  0  0  0  0  0  0  0  0
  -29.3460  -21.7160   19.5600 H   0  0  0  0  0  0  0  0  0  0  0  0
  -30.6730  -19.1200   19.8100 C   0  0  0  0  0  3  0  0  0  0  0  0
  -29.7230  -17.6340   17.6600 C   0  0  0  0  0  3  0  0  0  0  0  0
  -30.4840  -19.7460   18.5630 C   0  0  0  0  0  0  0  0  0  0  0  0
  -30.0340  -18.9890   17.4930 C   0  0  0  0  0  0  0  0  0  0  0  0
  -30.3630  -17.7410   19.9050 C   0  0  0  0  0  0  0  0  0  0  0  0
  -29.9540  -19.7830   16.2250 C   0  0  0  0  0  2  0  0  0  0  0  0
  -30.1600  -21.2360   16.7010 C   0  0  0  0  0  2  0  0  0  0  0  0
  -30.7300  -21.1880   18.1570 C   0  0  0  0  0  3  0  0  0  0  0  0
  -29.8740  -17.0290   18.8570 N   0  0  0  0  0  0  0  0  0  0  0  0
  -30.5670  -16.9870   21.2230 C   0  0  0  0  0  2  0  0  0  0  0  0
  -30.7480  -14.5540   20.6660 C   0  0  0  0  0  0  0  0  0  0  0  0
  -30.3960  -12.3610   19.5850 C   0  0  0  0  0  2  0  0  0  0  0  0
  -29.5660  -12.5130   18.2870 C   0  0  0  0  0  2  0  0  0  0  0  0
  -28.0770  -12.8550   18.5370 C   0  0  0  0  0  2  0  0  0  0  0  0
  -27.6980  -12.7890   20.0160 C   0  0  0  0  0  3  0  0  0  0  0  0
  -28.6590  -13.2520   21.1010 C   0  0  0  0  0  2  0  0  0  0  0  0
  -30.0100  -13.4250   20.5320 N   0  0  0  0  0  0  0  0  0  0  0  0
  -31.8930  -14.6720   20.2240 O   0  0  0  0  0  0  0  0  0  0  0  0
  -30.1100  -15.5950   21.2130 N   0  0  0  0  0  0  0  0  0  0  0  0
  -29.1550  -15.4370   21.4840 H   0  0  0  0  0  0  0  0  0  0  0  0
  -25.2840  -13.8160   20.4670 C   0  0  0  0  0  0  0  0  0  0  0  0
  -24.1510  -13.1190   20.8190 C   0  0  0  0  0  0  0  0  0  0  0  0
  -24.5350  -11.7490   20.8570 C   0  0  0  0  0  0  0  0  0  0  0  0
  -26.2800  -12.8410   20.3440 N   0  0  0  0  0  0  0  0  0  0  0  0
  -25.8050  -11.6190   20.6110 N   0  0  0  0  0  0  0  0  0  0  0  0
  -23.8000  -10.5090   21.0470 C   0  0  0  0  0  0  0  0  0  0  0  0
  -24.2270   -9.5510   21.9920 C   0  0  0  0  0  3  0  0  0  0  0  0
  -23.5090   -8.3510   22.1540 C   0  0  0  0  0  3  0  0  0  0  0  0
  -22.3580   -8.1100   21.3700 C   0  0  0  0  0  0  0  0  0  0  0  0
  -21.9640   -9.0530   20.4030 C   0  0  0  0  0  3  0  0  0  0  0  0
  -22.6820  -10.2440   20.2370 C   0  0  0  0  0  3  0  0  0  0  0  0
  -21.6040   -6.9660   21.4520 O   0  0  0  0  0  0  0  0  0  0  0  0
  -21.5380   -6.2350   22.6110 C   0  0  0  0  0  0  0  0  0  0  0  0
  -21.1020   -6.8040   23.8280 C   0  0  0  0  0  3  0  0  0  0  0  0
  -20.9790   -5.9960   24.9770 C   0  0  0  0  0  3  0  0  0  0  0  0
  -21.2830   -4.6230   24.9090 C   0  0  0  0  0  0  0  0  0  0  0  0
  -21.7140   -4.0560   23.6970 C   0  0  0  0  0  3  0  0  0  0  0  0
  -21.8390   -4.8600   22.5510 C   0  0  0  0  0  0  0  0  0  0  0  0
  -22.2350   -4.3070   21.3780 F   0  0  0  0  0  0  0  0  0  0  0  0
  -21.1600   -3.8450   26.0090 F   0  0  0  0  0  0  0  0  0  0  0  0
  -22.7560  -13.6380   21.0290 C   0  0  0  0  0  0  0  0  0  0  0  0
  -21.9790  -12.9680   21.8740 N   0  0  0  0  0  0  0  0  0  0  0  0
  -22.3570  -14.6590   20.4710 O   0  0  0  0  0  0  0  0  0  0  0  0
  -22.3110  -12.1320   22.3360 H   0  0  0  0  0  0  0  0  0  0  0  0
  -21.0420  -13.2920   22.0640 H   0  0  0  0  0  0  0  0  0  0  0  0
  -25.5430  -15.1660   20.2440 N   0  0  0  0  0  0  0  0  0  0  0  0
  -24.8350  -15.8900   20.2990 H   0  0  0  0  0  0  0  0  0  0  0  0
  -26.4410  -15.5070   19.9190 H   0  0  0  0  0  0  0  0  0  0  0  0
  -29.6390  -23.4500   18.5500 C   0  0  0  0  0  2  0  0  0  0  0  0
  -29.5790  -24.5870   19.6030 C   0  0  0  0  0  3  0  0  0  0  0  0
  -29.1570  -24.0560   20.8940 N   0  0  0  0  0  0  0  0  0  0  0  0
  -28.1610  -23.8600   20.8620 H   0  0  0  0  0  0  0  0  0  0  0  0
  -29.2110  -24.8240   21.5570 H   0  0  0  0  0  0  0  0  0  0  0  0
  -28.5610  -25.6630   19.1630 C   0  0  0  0  0  2  0  0  0  0  0  0
  -28.4180  -26.7490   20.0960 O   0  0  0  0  0  0  0  0  0  0  0  0
  -24.6130  -31.9060   23.2580 C   0  0  0  0  0  0  0  0  0  0  0  0
  -27.2280  -27.4650   20.1080 C   0  0  0  0  0  0  0  0  0  0  0  0
  -23.3920  -30.5100   21.6280 C   0  0  0  0  0  3  0  0  0  0  0  0
  -24.8290  -28.9870   20.1810 C   0  0  0  0  0  0  0  0  0  0  0  0
  -25.9220  -30.8590   21.4130 C   0  0  0  0  0  2  0  0  0  0  0  0
  -25.9970  -29.4930   20.7610 C   0  0  0  0  0  0  0  0  0  0  0  0
  -27.1930  -28.7370   20.7340 C   0  0  0  0  0  3  0  0  0  0  0  0
  -26.0240  -26.9800   19.5340 C   0  0  0  0  0  3  0  0  0  0  0  0
  -24.8380  -27.7270   19.5730 C   0  0  0  0  0  3  0  0  0  0  0  0
  -23.5860  -29.8440   20.2430 C   0  0  0  0  0  2  0  0  0  0  0  0
  -24.6610  -31.1060   22.1560 N   0  0  0  0  0  0  0  0  0  0  0  0
  -23.5360  -32.1760   23.8090 O   0  0  0  0  0  0  0  0  0  0  0  0
  -22.7550  -29.4770   22.5880 C   0  0  0  0  0  0  0  0  0  0  0  0
  -21.4320  -29.2850   22.4670 N   0  0  0  0  0  0  0  0  0  0  0  0
  -23.4470  -28.8530   23.3980 O   0  0  0  0  0  0  0  0  0  0  0  0
  -20.9330  -29.8430   21.7880 H   0  0  0  0  0  0  0  0  0  0  0  0
  -18.0710  -28.0580   22.9700 C   0  0  0  0  0  0  0  0  0  0  0  0
  -20.6250  -28.3430   23.2410 C   0  0  0  0  0  3  0  0  0  0  0  0
  -20.7430  -26.9100   22.6720 C   0  0  0  0  0  2  0  0  0  0  0  0
  -19.6450  -26.5720   21.6590 C   0  0  0  0  0  2  0  0  0  0  0  0
  -18.2620  -26.7060   22.3030 C   0  0  0  0  0  2  0  0  0  0  0  0
  -19.1810  -28.8330   23.3960 C   0  0  0  0  0  0  0  0  0  0  0  0
  -18.9500  -30.0980   23.9780 C   0  0  0  0  0  3  0  0  0  0  0  0
  -17.6410  -30.5880   24.1380 C   0  0  0  0  0  3  0  0  0  0  0  0
  -16.5440  -29.8090   23.7280 C   0  0  0  0  0  3  0  0  0  0  0  0
  -16.7600  -28.5450   23.1510 C   0  0  0  0  0  3  0  0  0  0  0  0
  -25.9060  -32.5360   23.8640 C   0  0  0  0  0  3  0  0  0  0  0  0
  -25.5990  -33.9350   24.1930 N   0  0  0  0  0  0  0  0  0  0  0  0
  -25.9270  -34.9860   23.4300 C   0  0  0  0  0  0  0  0  0  0  0  0
  -26.5890  -34.8800   22.3940 O   0  0  0  0  0  0  0  0  0  0  0  0
  -25.0090  -34.0910   24.9960 H   0  0  0  0  0  0  0  0  0  0  0  0
  -24.1980  -36.7780   23.0780 C   0  0  0  0  0  1  0  0  0  0  0  0
  -25.4420  -36.3750   23.8860 C   0  0  0  0  0  3  0  0  0  0  0  0
  -27.5800  -37.2580   24.7100 C   0  0  0  0  0  1  0  0  0  0  0  0
  -26.4750  -37.4260   23.7690 N   0  0  0  0  0  0  0  0  0  0  0  0
  -26.0720  -38.3480   23.9160 H   0  0  0  0  0  0  0  0  0  0  0  0
  -26.4380  -31.7660   25.1340 C   0  0  1  0  0  0  0  0  0  0  0  0
  -25.3590  -31.5270   26.2140 C   0  0  0  0  0  1  0  0  0  0  0  0
  -27.0180  -30.3880   24.7360 C   0  0  0  0  0  1  0  0  0  0  0  0
  -27.5960  -32.5620   25.7820 C   0  0  0  0  0  1  0  0  0  0  0  0
  1  3  1  0
  1  2  1  0
  4  8  1  0
  5 12  1  0
  6  4  2  0
  7  5  2  0
  7  6  1  0
  8 13  1  0
  9 10  1  0
  9  7  1  0
 10 11  1  0
 11  6  1  0
 11  1  1  0
 12  8  2  0
 14 22  1  0
 15 20  1  0
 16 17  1  0
 16 15  1  0
 18 17  1  0
 18 27  1  0
 18 19  1  0
 20 14  1  0
 20 19  1  0
 21 14  2  0
 22 13  1  0
 22 23  1  0
 24 25  2  0
 25 26  1  0
 25 44  1  0
 26 29  1  0
 27 24  1  0
 27 28  1  0
 28 26  2  0
 29 30  1  0
 30 31  2  0
 32 35  1  0
 32 31  1  0
 33 32  2  0
 34 33  1  0
 34 29  2  0
 35 36  1  0
 36 37  1  0
 37 38  2  0
 39 38  1  0
 39 43  1  0
 40 39  2  0
 41 36  2  0
 41 40  1  0
 42 41  1  0
 44 45  1  0
 45 48  1  0
 45 47  1  0
 46 44  2  0
 49 50  1  0
 49 24  1  0
 51 49  1  0
 52  1  1  0
 53 52  1  0
 53 54  1  0
 54 56  1  0
 55 54  1  0
 57 53  1  0
 57 58  1  0
 58 60  1  0
 59 70  2  0
 60 65  1  0
 61 69  1  0
 61 71  1  0
 62 68  1  0
 62 64  1  0
 63 69  1  0
 64 63  1  0
 65 64  2  0
 66 67  1  0
 66 60  2  0
 67 62  2  0
 68 61  1  0
 69 59  1  0
 71 73  2  0
 72 71  1  0
 74 72  1  0
 75 84  2  0
 75 80  1  0
 76 72  1  0
 76 80  1  0
 77 76  1  0
 78 79  1  0
 78 77  1  0
 79 75  1  0
 80 81  2  0
 81 82  1  0
 83 82  2  0
 84 83  1  0
 85 59  1  0
 85 86  1  0
 85 95  1  0
 86 89  1  0
 87 91  1  0
 87 86  1  0
 88 87  2  0
 91 90  1  0
 93 91  1  0
 93 94  1  0
 93 92  1  0
 95 98  1  1
 95 96  1  0
 97 95  1  0
M  ISO  4  14 100  22 100  57 101  58 101
M  END
>  <TORSDO>  (3) 
F 22

>  <SCORE>  (3) 
-12.969

>  <name>  (3) 
2

>  <ligand_id>  (3) 
2

>  <original_smiles>  (3) 
[H]c1nc(C([H])([H])N([H])C(=O)N2C([H])([H])C([H])([H])C([H])([H])C([H])(n3nc(-c4c([H])c([H])c(Oc5c([H])c([H])c(F)c([H])c5F)c([H])c4[H])c(C(=O)N([H])[H])c3N([H])[H])C2([H])[H])c([H])c2c1C([H])([H])C([H])([H])C2([H])[N+]([H])([H])C([H])([H])C([H])(N([H])[H])C([H])([H])Oc1c([H])c([H])c2c(c1[H])C([H])([H])N(C(=O)C([H])(N([H])C(=O)C([H])(N([H])C([H])([H])[H])C([H])([H])[H])C(C([H])([H])[H])(C([H])([H])[H])C([H])([H])[H])C([H])(C(=O)N([H])C1([H])c3c([H])c([H])c([H])c([H])c3C([H])([H])C([H])([H])C1([H])[H])C2([H])[H]

>  <smiles>  (3) 
[H]c1nc(C([H])([H])N([H])C(=O)N2C([H])([H])C([H])([H])C([H])([H])C([H])(n3nc(-c4c([H])c([H])c(Oc5c([H])c([H])c(F)c([H])c5F)c([H])c4[H])c(C(=O)N([H])[H])c3N([H])[H])C2([H])[H])c([H])c2c1C([H])([H])C([H])([H])C2([H])[N+]([H])([H])C([H])([H])C([H])(N([H])[H])C([H])([H])Oc1c([H])c([H])c2c(c1[H])C([H])([H])N(C(=O)C([H])(N([H])C(=O)C([H])(N([H])C([H])([H])[H])C([H])([H])[H])C(C([H])([H])[H])(C([H])([H])[H])C([H])([H])[H])C([H])(C(=O)N([H])C1([H])c3c([H])c([H])c([H])c([H])c3C([H])([H])C([H])([H])C1([H])[H])C2([H])[H]

$$$$
3:0:0
     RDKit          3D

 92101  0  0  1  0  0  0  0  0999 V2000
  -28.4240  -20.6890   18.5940 C   0  0  0  0  0  2  0  0  0  0  0  0
  -28.4830  -22.2320   18.6740 C   0  0  0  0  0  2  0  0  0  0  0  0
  -29.3550  -21.3830   20.6640 C   0  0  0  0  0  2  0  0  0  0  0  0
  -28.6670  -20.1350   20.0110 C   0  0  0  0  0  3  0  0  0  0  0  0
  -28.6570  -22.5640   20.0870 N   0  0  0  0  0  0  0  0  0  0  0  0
  -30.6870  -14.6320   20.3540 C   0  0  0  0  0  0  0  0  0  0  0  0
  -30.4200  -12.3950   19.3300 C   0  0  0  0  0  2  0  0  0  0  0  0
  -29.4660  -12.5000   18.1230 C   0  0  0  0  0  2  0  0  0  0  0  0
  -27.9970  -12.3730   18.5710 C   0  0  0  0  0  2  0  0  0  0  0  0
  -27.6540  -13.2440   19.8110 C   0  0  0  0  0  3  0  0  0  0  0  0
  -28.7310  -13.1230   20.9120 C   0  0  0  0  0  2  0  0  0  0  0  0
  -30.0230  -13.4390   20.2930 N   0  0  0  0  0  0  0  0  0  0  0  0
  -31.8840  -14.7110   20.0620 O   0  0  0  0  0  0  0  0  0  0  0  0
  -29.6270  -16.4150   19.1170 C   0  0  0  0  0  2  0  0  0  0  0  0
  -30.3640  -16.8360   21.3910 C   0  0  0  0  0  2  0  0  0  0  0  0
  -28.8070  -17.7430   19.1570 C   0  0  0  0  0  2  0  0  0  0  0  0
  -29.5610  -18.1880   21.3880 C   0  0  0  0  0  2  0  0  0  0  0  0
  -29.9380  -15.7870   20.4250 N   0  0  0  0  0  0  0  0  0  0  0  0
  -29.4000  -18.7940   20.0380 N   0  0  2  0  0  4  0  0  0  0  0  0
  -30.3270  -18.9720   19.6830 H   0  0  0  0  0  0  0  0  0  0  0  0
  -25.2760  -13.8450   20.5640 C   0  0  0  0  0  0  0  0  0  0  0  0
  -24.2110  -13.0690   20.9370 C   0  0  0  0  0  0  0  0  0  0  0  0
  -24.6740  -11.7180   20.8970 C   0  0  0  0  0  0  0  0  0  0  0  0
  -26.3150  -12.9620   20.3150 N   0  0  0  0  0  0  0  0  0  0  0  0
  -25.9590  -11.6780   20.5760 N   0  0  0  0  0  0  0  0  0  0  0  0
  -23.9500  -10.4560   21.0830 C   0  0  0  0  0  0  0  0  0  0  0  0
  -24.3940   -9.4750   21.9980 C   0  0  0  0  0  3  0  0  0  0  0  0
  -23.6650   -8.2790   22.1740 C   0  0  0  0  0  3  0  0  0  0  0  0
  -22.4800   -8.0550   21.4320 C   0  0  0  0  0  0  0  0  0  0  0  0
  -22.0560   -9.0240   20.5040 C   0  0  0  0  0  3  0  0  0  0  0  0
  -22.7850  -10.2120   20.3270 C   0  0  0  0  0  3  0  0  0  0  0  0
  -21.7220   -6.9120   21.5190 O   0  0  0  0  0  0  0  0  0  0  0  0
  -21.6880   -6.1540   22.6630 C   0  0  0  0  0  0  0  0  0  0  0  0
  -21.2620   -6.6900   23.8970 C   0  0  0  0  0  3  0  0  0  0  0  0
  -21.1770   -5.8610   25.0340 C   0  0  0  0  0  3  0  0  0  0  0  0
  -21.5090   -4.4960   24.9340 C   0  0  0  0  0  0  0  0  0  0  0  0
  -21.9280   -3.9590   23.7040 C   0  0  0  0  0  3  0  0  0  0  0  0
  -22.0150   -4.7860   22.5700 C   0  0  0  0  0  0  0  0  0  0  0  0
  -22.3990   -4.2590   21.3820 F   0  0  0  0  0  0  0  0  0  0  0  0
  -21.4210   -3.6960   26.0230 F   0  0  0  0  0  0  0  0  0  0  0  0
  -22.8170  -13.5480   21.2220 C   0  0  0  0  0  0  0  0  0  0  0  0
  -22.0970  -12.8500   22.0950 N   0  0  0  0  0  0  0  0  0  0  0  0
  -22.3730  -14.5740   20.7070 O   0  0  0  0  0  0  0  0  0  0  0  0
  -22.4700  -12.0200   22.5310 H   0  0  0  0  0  0  0  0  0  0  0  0
  -21.1610  -13.1510   22.3270 H   0  0  0  0  0  0  0  0  0  0  0  0
  -25.4440  -15.2150   20.3950 N   0  0  0  0  0  0  0  0  0  0  0  0
  -24.6860  -15.8770   20.5160 H   0  0  0  0  0  0  0  0  0  0  0  0
  -26.3030  -15.6470   20.0810 H   0  0  0  0  0  0  0  0  0  0  0  0
  -30.5300  -24.2490   19.9180 C   0  0  0  0  0  1  0  0  0  0  0  0
  -29.1000  -23.9660   20.4050 C   0  0  0  0  0  3  0  0  0  0  0  0
  -28.0980  -25.0770   19.8900 C   0  0  0  0  0  2  0  0  0  0  0  0
  -28.3280  -26.4960   20.2220 O   0  0  0  0  0  0  0  0  0  0  0  0
  -24.6290  -31.8760   23.2590 C   0  0  0  0  0  0  0  0  0  0  0  0
  -27.2200  -27.3510   20.1600 C   0  0  0  0  0  0  0  0  0  0  0  0
  -23.4230  -30.4960   21.6090 C   0  0  0  0  0  3  0  0  0  0  0  0
  -24.8670  -28.9660   20.1680 C   0  0  0  0  0  0  0  0  0  0  0  0
  -25.9630  -30.8140   21.4300 C   0  0  0  0  0  2  0  0  0  0  0  0
  -26.0390  -29.4450   20.7680 C   0  0  0  0  0  0  0  0  0  0  0  0
  -27.2190  -28.6480   20.7570 C   0  0  0  0  0  3  0  0  0  0  0  0
  -26.0240  -26.9330   19.5260 C   0  0  0  0  0  3  0  0  0  0  0  0
  -24.8600  -27.7140   19.5440 C   0  0  0  0  0  3  0  0  0  0  0  0
  -23.6330  -29.8400   20.2220 C   0  0  0  0  0  2  0  0  0  0  0  0
  -24.6910  -31.0770   22.1550 N   0  0  0  0  0  0  0  0  0  0  0  0
  -23.5460  -32.1500   23.7950 O   0  0  0  0  0  0  0  0  0  0  0  0
  -22.7610  -29.4650   22.5540 C   0  0  0  0  0  0  0  0  0  0  0  0
  -21.4360  -29.2860   22.4170 N   0  0  0  0  0  0  0  0  0  0  0  0
  -23.4370  -28.8330   23.3700 O   0  0  0  0  0  0  0  0  0  0  0  0
  -20.9500  -29.8470   21.7310 H   0  0  0  0  0  0  0  0  0  0  0  0
  -18.0560  -28.0950   22.8910 C   0  0  0  0  0  0  0  0  0  0  0  0
  -20.6130  -28.3460   23.1780 C   0  0  0  0  0  3  0  0  0  0  0  0
  -20.7160  -26.9170   22.5930 C   0  0  0  0  0  2  0  0  0  0  0  0
  -19.6180  -26.6030   21.5730 C   0  0  0  0  0  2  0  0  0  0  0  0
  -18.2320  -26.7500   22.2090 C   0  0  0  0  0  2  0  0  0  0  0  0
  -19.1740  -28.8510   23.3320 C   0  0  0  0  0  0  0  0  0  0  0  0
  -18.9550  -30.1120   23.9290 C   0  0  0  0  0  3  0  0  0  0  0  0
  -17.6510  -30.6160   24.0900 C   0  0  0  0  0  3  0  0  0  0  0  0
  -16.5470  -29.8560   23.6670 C   0  0  0  0  0  3  0  0  0  0  0  0
  -16.7500  -28.5980   23.0720 C   0  0  0  0  0  3  0  0  0  0  0  0
  -25.9130  -32.4990   23.8870 C   0  0  0  0  0  3  0  0  0  0  0  0
  -25.6090  -33.8980   24.2200 N   0  0  0  0  0  0  0  0  0  0  0  0
  -25.9230  -34.9480   23.4510 C   0  0  0  0  0  0  0  0  0  0  0  0
  -26.5740  -34.8440   22.4080 O   0  0  0  0  0  0  0  0  0  0  0  0
  -25.0300  -34.0530   25.0330 H   0  0  0  0  0  0  0  0  0  0  0  0
  -24.1790  -36.7320   23.1360 C   0  0  0  0  0  1  0  0  0  0  0  0
  -25.4410  -36.3360   23.9170 C   0  0  0  0  0  3  0  0  0  0  0  0
  -27.5920  -37.2340   24.6920 C   0  0  0  0  0  1  0  0  0  0  0  0
  -26.4650  -37.3940   23.7750 N   0  0  0  0  0  0  0  0  0  0  0  0
  -26.0580  -38.3110   23.9340 H   0  0  0  0  0  0  0  0  0  0  0  0
  -26.4190  -31.7210   25.1630 C   0  0  1  0  0  0  0  0  0  0  0  0
  -25.3180  -31.4830   26.2220 C   0  0  0  0  0  1  0  0  0  0  0  0
  -26.9980  -30.3420   24.7690 C   0  0  0  0  0  1  0  0  0  0  0  0
  -27.5670  -32.5090   25.8370 C   0  0  0  0  0  1  0  0  0  0  0  0
  1  2  1  0
  2  5  1  0
  4  1  1  0
  4 19  1  0
  4  3  1  0
  5 50  1  0
  5  3  1  0
  6 18  1  0
  7 12  1  0
  8  9  1  0
  8  7  1  0
 10  9  1  0
 10 24  1  0
 10 11  1  0
 12  6  1  0
 12 11  1  0
 13  6  2  0
 14 16  1  0
 14 18  1  0
 16 19  1  0
 17 15  1  0
 18 15  1  0
 19 20  1  6
 19 17  1  0
 21 22  2  0
 22 41  1  0
 23 22  1  0
 23 26  1  0
 24 21  1  0
 24 25  1  0
 25 23  2  0
 26 27  1  0
 27 28  2  0
 29 32  1  0
 29 28  1  0
 30 29  2  0
 31 30  1  0
 31 26  2  0
 32 33  1  0
 33 34  1  0
 34 35  2  0
 36 35  1  0
 36 40  1  0
 37 36  2  0
 38 33  2  0
 38 37  1  0
 39 38  1  0
 41 42  1  0
 42 45  1  0
 42 44  1  0
 43 41  2  0
 46 47  1  0
 46 21  1  0
 48 46  1  0
 50 49  1  0
 51 52  1  0
 51 50  1  0
 53 64  2  0
 54 52  1  0
 54 59  1  0
 55 63  1  0
 55 65  1  0
 56 62  1  0
 56 58  1  0
 57 63  1  0
 58 57  1  0
 59 58  2  0
 60 61  1  0
 60 54  2  0
 61 56  2  0
 62 55  1  0
 63 53  1  0
 65 67  2  0
 66 65  1  0
 68 66  1  0
 69 78  2  0
 69 74  1  0
 70 66  1  0
 70 74  1  0
 71 70  1  0
 72 73  1  0
 72 71  1  0
 73 69  1  0
 74 75  2  0
 75 76  1  0
 77 76  2  0
 78 77  1  0
 79 53  1  0
 79 80  1  0
 79 89  1  0
 80 83  1  0
 81 85  1  0
 81 80  1  0
 82 81  2  0
 85 84  1  0
 87 85  1  0
 87 88  1  0
 87 86  1  0
 89 92  1  1
 89 90  1  0
 91 89  1  0
M  ISO  4   6 100  18 100  51 101  52 101
M  END
>  <TORSDO>  (4) 
F 18

>  <SCORE>  (4) 
-14.576

>  <name>  (4) 
3

>  <ligand_id>  (4) 
3

>  <original_smiles>  (4) 
[H]c1c([H])c([H])c2c(c1[H])C([H])([H])C([H])([H])C([H])([H])C2([H])N([H])C(=O)C1([H])N(C(=O)C([H])(N([H])C(=O)C([H])(N([H])C([H])([H])[H])C([H])([H])[H])C(C([H])([H])[H])(C([H])([H])[H])C([H])([H])[H])C([H])([H])c2c([H])c(OC([H])([H])C([H])(N3C([H])([H])C([H])([H])C([H])([N+]4([H])C([H])([H])C([H])([H])N(C(=O)N5C([H])([H])C([H])([H])C([H])([H])C([H])(n6nc(-c7c([H])c([H])c(Oc8c([H])c([H])c(F)c([H])c8F)c([H])c7[H])c(C(=O)N([H])[H])c6N([H])[H])C5([H])[H])C([H])([H])C4([H])[H])C3([H])[H])C([H])([H])[H])c([H])c([H])c2C1([H])[H]

>  <smiles>  (4) 
[H]c1c([H])c([H])c2c(c1[H])C([H])([H])C([H])([H])C([H])([H])C2([H])N([H])C(=O)C1([H])N(C(=O)C([H])(N([H])C(=O)C([H])(N([H])C([H])([H])[H])C([H])([H])[H])C(C([H])([H])[H])(C([H])([H])[H])C([H])([H])[H])C([H])([H])c2c([H])c(OC([H])([H])C([H])(N3C([H])([H])C([H])([H])C([H])([N+]4([H])C([H])([H])C([H])([H])N(C(=O)N5C([H])([H])C([H])([H])C([H])([H])C([H])(n6nc(-c7c([H])c([H])c(Oc8c([H])c([H])c(F)c([H])c8F)c([H])c7[H])c(C(=O)N([H])[H])c6N([H])[H])C5([H])[H])C([H])([H])C4([H])[H])C3([H])[H])C([H])([H])[H])c([H])c([H])c2C1([H])[H]

$$$$
4:0:0
     RDKit          3D

 97107  0  0  1  0  0  0  0  0999 V2000
  -29.9480  -22.4670   21.4880 C   0  0  0  0  0  2  0  0  0  0  0  0
  -30.1960  -23.1370   19.2980 C   0  0  0  0  0  2  0  0  0  0  0  0
  -31.0180  -21.5240   20.9220 C   0  0  0  0  0  3  0  0  0  0  0  0
  -31.1130  -21.9020   19.4240 C   0  0  0  0  0  3  0  0  0  0  0  0
  -30.0990  -23.6710   20.6590 N   0  0  0  0  0  0  0  0  0  0  0  0
  -30.6750  -14.5480   20.2090 C   0  0  0  0  0  0  0  0  0  0  0  0
  -30.3320  -12.4350   18.9930 C   0  0  0  0  0  2  0  0  0  0  0  0
  -29.3280  -12.6610   17.8440 C   0  0  0  0  0  2  0  0  0  0  0  0
  -27.8810  -12.4920   18.3490 C   0  0  0  0  0  2  0  0  0  0  0  0
  -27.5980  -13.3130   19.6360 C   0  0  0  0  0  3  0  0  0  0  0  0
  -28.7000  -13.0580   20.6890 C   0  0  0  0  0  2  0  0  0  0  0  0
  -29.9950  -13.3800   20.0700 N   0  0  0  0  0  0  0  0  0  0  0  0
  -31.7660  -14.7570   19.6700 O   0  0  0  0  0  0  0  0  0  0  0  0
  -31.3240  -18.3970   22.8700 C   0  0  0  0  0  3  0  0  0  0  0  0
  -30.6760  -17.4790   22.0520 C   0  0  0  0  0  0  0  0  0  0  0  0
  -30.1140  -17.9200   20.8900 C   0  0  0  0  0  0  0  0  0  0  0  0
  -30.8570  -20.0350   21.2980 C   0  0  0  0  0  0  0  0  0  0  0  0
  -30.6200  -15.9790   22.1460 C   0  0  0  0  0  2  0  0  0  0  0  0
  -29.5770  -16.7470   20.1140 C   0  0  0  0  0  2  0  0  0  0  0  0
  -31.4090  -19.6830   22.4690 N   0  0  0  0  0  0  0  0  0  0  0  0
  -30.1630  -19.2110   20.4940 N   0  0  0  0  0  0  0  0  0  0  0  0
  -30.0240  -15.5380   20.8660 N   0  0  0  0  0  0  0  0  0  0  0  0
  -25.2270  -13.9130   20.4430 C   0  0  0  0  0  0  0  0  0  0  0  0
  -24.1730  -13.1300   20.8340 C   0  0  0  0  0  0  0  0  0  0  0  0
  -24.6370  -11.7830   20.7710 C   0  0  0  0  0  0  0  0  0  0  0  0
  -26.2660  -13.0350   20.1650 N   0  0  0  0  0  0  0  0  0  0  0  0
  -25.9170  -11.7500   20.4200 N   0  0  0  0  0  0  0  0  0  0  0  0
  -23.9230  -10.5160   20.9670 C   0  0  0  0  0  0  0  0  0  0  0  0
  -24.3650   -9.5550   21.9010 C   0  0  0  0  0  3  0  0  0  0  0  0
  -23.6520   -8.3490   22.0830 C   0  0  0  0  0  3  0  0  0  0  0  0
  -22.4790   -8.0990   21.3320 C   0  0  0  0  0  0  0  0  0  0  0  0
  -22.0540   -9.0490   20.3880 C   0  0  0  0  0  3  0  0  0  0  0  0
  -22.7680  -10.2460   20.2040 C   0  0  0  0  0  3  0  0  0  0  0  0
  -21.7350   -6.9480   21.4240 O   0  0  0  0  0  0  0  0  0  0  0  0
  -21.6680   -6.2300   22.5890 C   0  0  0  0  0  0  0  0  0  0  0  0
  -21.1980   -6.8040   23.7910 C   0  0  0  0  0  3  0  0  0  0  0  0
  -21.0760   -6.0120   24.9490 C   0  0  0  0  0  3  0  0  0  0  0  0
  -21.4100   -4.6450   24.9070 C   0  0  0  0  0  0  0  0  0  0  0  0
  -21.8730   -4.0690   23.7110 C   0  0  0  0  0  3  0  0  0  0  0  0
  -21.9950   -4.8590   22.5540 C   0  0  0  0  0  0  0  0  0  0  0  0
  -22.4220   -4.2960   21.3980 F   0  0  0  0  0  0  0  0  0  0  0  0
  -21.2850   -3.8800   26.0190 F   0  0  0  0  0  0  0  0  0  0  0  0
  -22.7850  -13.6040   21.1640 C   0  0  0  0  0  0  0  0  0  0  0  0
  -22.0890  -12.8840   22.0410 N   0  0  0  0  0  0  0  0  0  0  0  0
  -22.3280  -14.6340   20.6820 O   0  0  0  0  0  0  0  0  0  0  0  0
  -22.4710  -12.0420   22.4450 H   0  0  0  0  0  0  0  0  0  0  0  0
  -21.1600  -13.1810   22.3090 H   0  0  0  0  0  0  0  0  0  0  0  0
  -25.3830  -15.2820   20.2730 N   0  0  0  0  0  0  0  0  0  0  0  0
  -24.6180  -15.9360   20.4100 H   0  0  0  0  0  0  0  0  0  0  0  0
  -26.2210  -15.7250   19.9190 H   0  0  0  0  0  0  0  0  0  0  0  0
  -32.4820  -22.2540   19.0020 N   0  0  0  0  0  4  0  0  0  0  0  0
  -32.8350  -23.0040   19.5710 H   0  0  0  0  0  0  0  0  0  0  0  0
  -32.4590  -22.5710   18.0470 H   0  0  0  0  0  0  0  0  0  0  0  0
  -33.1050  -21.4690   19.0580 H   0  0  0  0  0  0  0  0  0  0  0  0
  -29.0480  -24.6810   20.8930 C   0  0  0  0  0  2  0  0  0  0  0  0
  -28.8100  -25.6460   19.7020 C   0  0  0  0  0  2  0  0  0  0  0  0
  -28.5140  -26.9520   20.1870 O   0  0  0  0  0  0  0  0  0  0  0  0
  -24.5600  -31.9340   23.2280 C   0  0  0  0  0  0  0  0  0  0  0  0
  -27.2610  -27.5250   20.1660 C   0  0  0  0  0  0  0  0  0  0  0  0
  -23.3470  -30.5200   21.5890 C   0  0  0  0  0  3  0  0  0  0  0  0
  -24.8150  -28.9530   20.1940 C   0  0  0  0  0  0  0  0  0  0  0  0
  -25.8550  -30.9010   21.3570 C   0  0  0  0  0  2  0  0  0  0  0  0
  -25.9600  -29.5120   20.7710 C   0  0  0  0  0  0  0  0  0  0  0  0
  -27.1760  -28.8030   20.7590 C   0  0  0  0  0  3  0  0  0  0  0  0
  -26.1020  -26.9700   19.5700 C   0  0  0  0  0  3  0  0  0  0  0  0
  -24.8780  -27.6750   19.6020 C   0  0  0  0  0  3  0  0  0  0  0  0
  -23.5650  -29.8100   20.2210 C   0  0  0  0  0  2  0  0  0  0  0  0
  -24.6070  -31.1330   22.1220 N   0  0  0  0  0  0  0  0  0  0  0  0
  -23.4830  -32.2070   23.7750 O   0  0  0  0  0  0  0  0  0  0  0  0
  -22.6980  -29.5130   22.5660 C   0  0  0  0  0  0  0  0  0  0  0  0
  -21.3710  -29.3370   22.4540 N   0  0  0  0  0  0  0  0  0  0  0  0
  -23.3880  -28.8910   23.3770 O   0  0  0  0  0  0  0  0  0  0  0  0
  -20.8760  -29.9060   21.7800 H   0  0  0  0  0  0  0  0  0  0  0  0
  -18.0000  -28.1510   22.9670 C   0  0  0  0  0  0  0  0  0  0  0  0
  -20.5590  -28.4030   23.2310 C   0  0  0  0  0  3  0  0  0  0  0  0
  -20.6540  -26.9680   22.6610 C   0  0  0  0  0  2  0  0  0  0  0  0
  -19.5490  -26.6470   21.6480 C   0  0  0  0  0  2  0  0  0  0  0  0
  -18.1700  -26.7990   22.2950 C   0  0  0  0  0  2  0  0  0  0  0  0
  -19.1230  -28.9090   23.3930 C   0  0  0  0  0  0  0  0  0  0  0  0
  -18.9130  -30.1770   23.9790 C   0  0  0  0  0  3  0  0  0  0  0  0
  -17.6100  -30.6840   24.1450 C   0  0  0  0  0  3  0  0  0  0  0  0
  -16.5020  -29.9230   23.7340 C   0  0  0  0  0  3  0  0  0  0  0  0
  -16.6980  -28.6600   23.1500 C   0  0  0  0  0  3  0  0  0  0  0  0
  -25.8490  -32.5680   23.8390 C   0  0  0  0  0  3  0  0  0  0  0  0
  -26.3840  -31.7930   25.1040 C   0  0  1  0  0  0  0  0  0  0  0  0
  -25.3070  -31.5500   26.1880 C   0  0  0  0  0  1  0  0  0  0  0  0
  -26.9680  -30.4220   24.6890 C   0  0  0  0  0  1  0  0  0  0  0  0
  -27.5360  -32.5880   25.7620 C   0  0  0  0  0  1  0  0  0  0  0  0
  -25.5450  -33.9670   24.1700 N   0  0  0  0  0  0  0  0  0  0  0  0
  -25.8840  -35.0190   23.4120 C   0  0  0  0  0  0  0  0  0  0  0  0
  -26.5620  -34.9150   22.3860 O   0  0  0  0  0  0  0  0  0  0  0  0
  -24.9470  -34.1220   24.9670 H   0  0  0  0  0  0  0  0  0  0  0  0
  -24.1760  -36.8300   23.0350 C   0  0  0  0  0  1  0  0  0  0  0  0
  -25.3980  -36.4080   23.8680 C   0  0  0  0  0  3  0  0  0  0  0  0
  -27.5220  -37.2860   24.7330 C   0  0  0  0  0  1  0  0  0  0  0  0
  -26.4350  -37.4590   23.7730 N   0  0  0  0  0  0  0  0  0  0  0  0
  -26.0280  -38.3790   23.9170 H   0  0  0  0  0  0  0  0  0  0  0  0
  2  4  1  0
  2  5  1  0
  3 17  1  0
  3  1  1  0
  4 51  1  0
  4  3  1  0
  5 55  1  0
  5  1  1  0
  6 22  1  0
  7 12  1  0
  8  9  1  0
  8  7  1  0
 10  9  1  0
 10 26  1  0
 10 11  1  0
 12  6  1  0
 12 11  1  0
 13  6  2  0
 15 18  1  0
 15 14  2  0
 16 15  1  0
 17 20  2  0
 19 22  1  0
 19 16  1  0
 20 14  1  0
 21 16  2  0
 21 17  1  0
 22 18  1  0
 23 24  2  0
 24 43  1  0
 25 24  1  0
 25 28  1  0
 26 27  1  0
 26 23  1  0
 27 25  2  0
 28 29  1  0
 29 30  2  0
 31 34  1  0
 31 30  1  0
 32 31  2  0
 33 32  1  0
 33 28  2  0
 34 35  1  0
 35 36  1  0
 36 37  2  0
 38 37  1  0
 38 42  1  0
 39 38  2  0
 40 35  2  0
 40 39  1  0
 41 40  1  0
 43 44  1  0
 44 47  1  0
 44 46  1  0
 45 43  2  0
 48 49  1  0
 48 23  1  0
 50 48  1  0
 51 54  1  0
 51 52  1  0
 53 51  1  0
 56 57  1  0
 56 55  1  0
 58 69  2  0
 59 57  1  0
 59 64  1  0
 60 68  1  0
 60 70  1  0
 61 67  1  0
 61 63  1  0
 62 68  1  0
 63 62  1  0
 64 63  2  0
 65 66  1  0
 65 59  2  0
 66 61  2  0
 67 60  1  0
 68 58  1  0
 70 72  2  0
 71 70  1  0
 73 71  1  0
 74 83  2  0
 74 79  1  0
 75 71  1  0
 75 79  1  0
 76 75  1  0
 77 78  1  0
 77 76  1  0
 78 74  1  0
 79 80  2  0
 80 81  1  0
 82 81  2  0
 83 82  1  0
 84 58  1  0
 84 89  1  0
 84 85  1  0
 85 88  1  1
 85 86  1  0
 87 85  1  0
 89 92  1  0
 90 94  1  0
 90 89  1  0
 91 90  2  0
 94 93  1  0
 96 94  1  0
 96 97  1  0
 96 95  1  0
M  ISO  4   6 100  22 100  56 101  57 101
M  END
>  <TORSDO>  (5) 
F 19

>  <SCORE>  (5) 
-14.436

>  <name>  (5) 
4

>  <ligand_id>  (5) 
4

>  <original_smiles>  (5) 
[H]c1nc(C2([H])C([H])([H])N(C([H])([H])C([H])([H])Oc3c([H])c([H])c4c(c3[H])C([H])([H])N(C(=O)C([H])(N([H])C(=O)C([H])(N([H])C([H])([H])[H])C([H])([H])[H])C(C([H])([H])[H])(C([H])([H])[H])C([H])([H])[H])C([H])(C(=O)N([H])C3([H])c5c([H])c([H])c([H])c([H])c5C([H])([H])C([H])([H])C3([H])[H])C4([H])[H])C([H])([H])C2([H])[N+]([H])([H])[H])nc2c1C([H])([H])N(C(=O)N1C([H])([H])C([H])([H])C([H])([H])C([H])(n3nc(-c4c([H])c([H])c(Oc5c([H])c([H])c(F)c([H])c5F)c([H])c4[H])c(C(=O)N([H])[H])c3N([H])[H])C1([H])[H])C2([H])[H]

>  <smiles>  (5) 
[H]c1nc(C2([H])C([H])([H])N(C([H])([H])C([H])([H])Oc3c([H])c([H])c4c(c3[H])C([H])([H])N(C(=O)C([H])(N([H])C(=O)C([H])(N([H])C([H])([H])[H])C([H])([H])[H])C(C([H])([H])[H])(C([H])([H])[H])C([H])([H])[H])C([H])(C(=O)N([H])C3([H])c5c([H])c([H])c([H])c([H])c5C([H])([H])C([H])([H])C3([H])[H])C4([H])[H])C([H])([H])C2([H])[N+]([H])([H])[H])nc2c1C([H])([H])N(C(=O)N1C([H])([H])C([H])([H])C([H])([H])C([H])(n3nc(-c4c([H])c([H])c(Oc5c([H])c([H])c(F)c([H])c5F)c([H])c4[H])c(C(=O)N([H])[H])c3N([H])[H])C1([H])[H])C2([H])[H]

$$$$
5:0:0
     RDKit          3D

102112  0  0  1  0  0  0  0  0999 V2000
  -31.6100  -24.9820   24.6980 C   0  0  0  0  0  2  0  0  0  0  0  0
  -31.5050  -26.3190   23.9520 C   0  0  0  0  0  2  0  0  0  0  0  0
  -29.7660  -24.9100   23.0650 C   0  0  0  0  0  2  0  0  0  0  0  0
  -30.5200  -24.0580   24.1100 C   0  0  0  0  0  3  0  0  0  0  0  0
  -30.0490  -26.3650   23.4710 C   0  0  0  0  0  3  0  0  0  0  0  0
  -31.0130  -20.4100   23.2180 C   0  0  0  0  0  3  0  0  0  0  0  0
  -29.0870  -20.2930   25.0640 C   0  0  0  0  0  3  0  0  0  0  0  0
  -30.4000  -19.1930   23.5550 C   0  0  0  0  0  0  0  0  0  0  0  0
  -30.5480  -21.5590   23.8680 C   0  0  0  0  0  0  0  0  0  0  0  0
  -29.4410  -19.1480   24.4930 N   0  0  0  0  0  0  0  0  0  0  0  0
  -29.5830  -21.4950   24.7950 N   0  0  0  0  0  0  0  0  0  0  0  0
  -31.0740  -22.8210   23.5530 N   0  0  0  0  0  0  0  0  0  0  0  0
  -31.7970  -22.8830   22.8440 H   0  0  0  0  0  0  0  0  0  0  0  0
  -31.7150  -14.9400   20.1120 C   0  0  0  0  0  0  0  0  0  0  0  0
  -31.2780  -12.9110   18.7670 C   0  0  0  0  0  2  0  0  0  0  0  0
  -30.2770  -13.1880   17.6290 C   0  0  0  0  0  2  0  0  0  0  0  0
  -28.8310  -13.0040   18.1250 C   0  0  0  0  0  2  0  0  0  0  0  0
  -28.5600  -13.7770   19.4390 C   0  0  0  0  0  3  0  0  0  0  0  0
  -29.6630  -13.5040   20.4880 C   0  0  0  0  0  2  0  0  0  0  0  0
  -30.9700  -13.8210   19.8850 N   0  0  0  0  0  0  0  0  0  0  0  0
  -32.7420  -15.1930   19.4740 O   0  0  0  0  0  0  0  0  0  0  0  0
  -32.1070  -17.5950   22.7040 C   0  0  0  0  0  2  0  0  0  0  0  0
  -29.7130  -17.4560   21.9770 C   0  0  0  0  0  2  0  0  0  0  0  0
  -32.2560  -16.1400   22.1820 C   0  0  0  0  0  2  0  0  0  0  0  0
  -30.3820  -16.8440   20.7370 C   0  0  0  0  0  2  0  0  0  0  0  0
  -30.7080  -17.9670   22.9230 N   0  0  0  0  0  0  0  0  0  0  0  0
  -31.3040  -15.7600   21.1100 N   0  0  0  0  0  0  0  0  0  0  0  0
  -26.1620  -14.3520   20.1790 C   0  0  0  0  0  0  0  0  0  0  0  0
  -25.1300  -13.5680   20.6160 C   0  0  0  0  0  0  0  0  0  0  0  0
  -25.6340  -12.2320   20.6420 C   0  0  0  0  0  0  0  0  0  0  0  0
  -27.2290  -13.4920   19.9660 N   0  0  0  0  0  0  0  0  0  0  0  0
  -26.9150  -12.2140   20.3010 N   0  0  0  0  0  0  0  0  0  0  0  0
  -24.9550  -10.9580   20.9150 C   0  0  0  0  0  0  0  0  0  0  0  0
  -25.3110  -10.1530   22.0200 C   0  0  0  0  0  3  0  0  0  0  0  0
  -24.6320   -8.9420   22.2720 C   0  0  0  0  0  3  0  0  0  0  0  0
  -23.5820   -8.5260   21.4170 C   0  0  0  0  0  0  0  0  0  0  0  0
  -23.2460   -9.3200   20.3060 C   0  0  0  0  0  3  0  0  0  0  0  0
  -23.9270  -10.5230   20.0540 C   0  0  0  0  0  3  0  0  0  0  0  0
  -22.8860   -7.3520   21.5690 O   0  0  0  0  0  0  0  0  0  0  0  0
  -22.3770   -6.9690   22.7850 C   0  0  0  0  0  0  0  0  0  0  0  0
  -21.5330   -7.8130   23.5380 C   0  0  0  0  0  3  0  0  0  0  0  0
  -20.9750   -7.3540   24.7470 C   0  0  0  0  0  3  0  0  0  0  0  0
  -21.2530   -6.0510   25.2010 C   0  0  0  0  0  0  0  0  0  0  0  0
  -22.0910   -5.2060   24.4490 C   0  0  0  0  0  3  0  0  0  0  0  0
  -22.6480   -5.6640   23.2430 C   0  0  0  0  0  0  0  0  0  0  0  0
  -23.4370   -4.8410   22.5110 F   0  0  0  0  0  0  0  0  0  0  0  0
  -20.7120   -5.6050   26.3580 F   0  0  0  0  0  0  0  0  0  0  0  0
  -23.7230  -14.0150   20.9010 C   0  0  0  0  0  0  0  0  0  0  0  0
  -23.0560  -13.3720   21.8530 N   0  0  0  0  0  0  0  0  0  0  0  0
  -23.2250  -14.9730   20.3130 O   0  0  0  0  0  0  0  0  0  0  0  0
  -23.4710  -12.5990   22.3510 H   0  0  0  0  0  0  0  0  0  0  0  0
  -22.1180  -13.6630   22.0890 H   0  0  0  0  0  0  0  0  0  0  0  0
  -26.2800  -15.7170   19.9270 N   0  0  0  0  0  0  0  0  0  0  0  0
  -25.4940  -16.3520   20.0220 H   0  0  0  0  0  0  0  0  0  0  0  0
  -27.1030  -16.1590   19.5410 H   0  0  0  0  0  0  0  0  0  0  0  0
  -29.7480  -27.3880   22.4360 N   0  0  0  0  0  4  0  0  0  0  0  0
  -29.9540  -28.2950   22.8260 H   0  0  0  0  0  0  0  0  0  0  0  0
  -28.7530  -27.3630   22.2650 H   0  0  0  0  0  0  0  0  0  0  0  0
  -30.4410  -27.2770   21.1280 C   0  0  0  0  0  2  0  0  0  0  0  0
  -30.4540  -28.0060   18.6950 C   0  0  0  0  0  1  0  0  0  0  0  0
  -29.7220  -28.0870   20.0390 C   0  0  0  0  0  3  0  0  0  0  0  0
  -28.4400  -27.4840   19.8420 O   0  0  0  0  0  0  0  0  0  0  0  0
  -24.3380  -32.0200   23.5830 C   0  0  0  0  0  0  0  0  0  0  0  0
  -27.2670  -28.1930   20.0050 C   0  0  0  0  0  0  0  0  0  0  0  0
  -23.2130  -30.7720   21.7620 C   0  0  0  0  0  3  0  0  0  0  0  0
  -24.7620  -29.5030   20.1770 C   0  0  0  0  0  0  0  0  0  0  0  0
  -25.7070  -31.2990   21.6380 C   0  0  0  0  0  2  0  0  0  0  0  0
  -25.8750  -30.0230   20.8440 C   0  0  0  0  0  0  0  0  0  0  0  0
  -27.1220  -29.3740   20.7730 C   0  0  0  0  0  3  0  0  0  0  0  0
  -26.1320  -27.6720   19.3510 C   0  0  0  0  0  3  0  0  0  0  0  0
  -24.8820  -28.3170   19.4300 C   0  0  0  0  0  3  0  0  0  0  0  0
  -23.4660  -30.2720   20.3120 C   0  0  0  0  0  2  0  0  0  0  0  0
  -24.4360  -31.3710   22.3880 N   0  0  0  0  0  0  0  0  0  0  0  0
  -23.2420  -32.1620   24.1430 O   0  0  0  0  0  0  0  0  0  0  0  0
  -22.6160  -29.6070   22.5840 C   0  0  0  0  0  0  0  0  0  0  0  0
  -21.3130  -29.3490   22.3900 N   0  0  0  0  0  0  0  0  0  0  0  0
  -23.3210  -28.9420   23.3490 O   0  0  0  0  0  0  0  0  0  0  0  0
  -20.8040  -29.9440   21.7510 H   0  0  0  0  0  0  0  0  0  0  0  0
  -18.0540  -27.7980   22.5340 C   0  0  0  0  0  0  0  0  0  0  0  0
  -20.5460  -28.2780   23.0260 C   0  0  0  0  0  3  0  0  0  0  0  0
  -20.8350  -26.9150   22.3560 C   0  0  0  0  0  2  0  0  0  0  0  0
  -19.8460  -26.5710   21.2370 C   0  0  0  0  0  2  0  0  0  0  0  0
  -18.4150  -26.5300   21.7800 C   0  0  0  0  0  2  0  0  0  0  0  0
  -19.0560  -28.6270   23.1060 C   0  0  0  0  0  0  0  0  0  0  0  0
  -18.6700  -29.8140   23.7660 C   0  0  0  0  0  3  0  0  0  0  0  0
  -17.3140  -30.1760   23.8630 C   0  0  0  0  0  3  0  0  0  0  0  0
  -16.3250  -29.3440   23.3110 C   0  0  0  0  0  3  0  0  0  0  0  0
  -16.6940  -28.1570   22.6510 C   0  0  0  0  0  3  0  0  0  0  0  0
  -25.5870  -32.6380   24.2870 C   0  0  0  0  0  3  0  0  0  0  0  0
  -25.9800  -31.8980   25.6240 C   0  0  1  0  0  0  0  0  0  0  0  0
  -24.7910  -31.6680   26.5860 C   0  0  0  0  0  1  0  0  0  0  0  0
  -26.6150  -30.5220   25.3180 C   0  0  0  0  0  1  0  0  0  0  0  0
  -27.0540  -32.7180   26.3810 C   0  0  0  0  0  1  0  0  0  0  0  0
  -25.2970  -34.0560   24.5380 N   0  0  0  0  0  0  0  0  0  0  0  0
  -25.7540  -35.0670   23.7870 C   0  0  0  0  0  0  0  0  0  0  0  0
  -26.5280  -34.9030   22.8400 O   0  0  0  0  0  0  0  0  0  0  0  0
  -24.6210  -34.2580   25.2580 H   0  0  0  0  0  0  0  0  0  0  0  0
  -24.1580  -36.9090   23.1730 C   0  0  0  0  0  1  0  0  0  0  0  0
  -25.2740  -36.4860   24.1420 C   0  0  0  0  0  3  0  0  0  0  0  0
  -27.3430  -37.3020   25.1820 C   0  0  0  0  0  1  0  0  0  0  0  0
  -26.3560  -37.4950   24.1230 N   0  0  0  0  0  0  0  0  0  0  0  0
  -25.9760  -38.4340   24.2050 H   0  0  0  0  0  0  0  0  0  0  0  0
  2  1  1  0
  3  5  1  0
  3  4  1  0
  4 12  1  0
  4  1  1  0
  5 56  1  0
  5  2  1  0
  6  8  2  0
  6  9  1  0
  8 10  1  0
  9 11  2  0
 10  7  2  0
 11  7  1  0
 12  9  1  0
 13 12  1  0
 14 27  1  0
 15 20  1  0
 16 17  1  0
 16 15  1  0
 18 17  1  0
 18 31  1  0
 18 19  1  0
 20 14  1  0
 20 19  1  0
 21 14  2  0
 22 26  1  0
 23 26  1  0
 24 22  1  0
 25 27  1  0
 25 23  1  0
 26  8  1  0
 27 24  1  0
 28 29  2  0
 29 30  1  0
 29 48  1  0
 30 33  1  0
 31 28  1  0
 31 32  1  0
 32 30  2  0
 33 34  1  0
 34 35  2  0
 36 39  1  0
 36 35  1  0
 37 36  2  0
 38 37  1  0
 38 33  2  0
 39 40  1  0
 40 45  2  0
 40 41  1  0
 41 42  2  0
 42 43  1  0
 43 47  1  0
 44 43  2  0
 45 44  1  0
 46 45  1  0
 48 49  1  0
 49 52  1  0
 49 51  1  0
 50 48  2  0
 53 54  1  0
 53 28  1  0
 55 53  1  0
 56 57  1  0
 58 56  1  0
 59 56  1  0
 61 60  1  0
 61 59  1  0
 62 64  1  0
 62 61  1  0
 63 74  2  0
 64 69  1  0
 65 73  1  0
 65 75  1  0
 66 72  1  0
 66 68  1  0
 67 73  1  0
 68 67  1  0
 69 68  2  0
 70 71  1  0
 70 64  2  0
 71 66  2  0
 72 65  1  0
 73 63  1  0
 75 77  2  0
 76 75  1  0
 78 76  1  0
 79 88  2  0
 79 84  1  0
 80 76  1  0
 80 84  1  0
 81 80  1  0
 82 83  1  0
 82 81  1  0
 83 79  1  0
 84 85  2  0
 85 86  1  0
 87 86  2  0
 88 87  1  0
 89 63  1  0
 89 94  1  0
 89 90  1  0
 90 93  1  1
 90 91  1  0
 92 90  1  0
 94 97  1  0
 95 99  1  0
 95 94  1  0
 96 95  2  0
 99 98  1  0
101 99  1  0
101102  1  0
101100  1  0
M  ISO  4  14 100  27 100  61 101  62 101
M  END
>  <TORSDO>  (6) 
F 20

>  <SCORE>  (6) 
8.789

>  <name>  (6) 
5

>  <ligand_id>  (6) 
5

>  <original_smiles>  (6) 
[H]c1nc(N2C([H])([H])C([H])([H])N(C(=O)N3C([H])([H])C([H])([H])C([H])([H])C([H])(n4nc(-c5c([H])c([H])c(Oc6c([H])c([H])c(F)c([H])c6F)c([H])c5[H])c(C(=O)N([H])[H])c4N([H])[H])C3([H])[H])C([H])([H])C2([H])[H])c([H])c(N([H])C2([H])C([H])([H])C([H])([H])C([H])([N+]([H])([H])C([H])([H])C([H])(Oc3c([H])c([H])c4c(c3[H])C([H])([H])N(C(=O)C([H])(N([H])C(=O)C([H])(N([H])C([H])([H])[H])C([H])([H])[H])C(C([H])([H])[H])(C([H])([H])[H])C([H])([H])[H])C([H])(C(=O)N([H])C3([H])c5c([H])c([H])c([H])c([H])c5C([H])([H])C([H])([H])C3([H])[H])C4([H])[H])C([H])([H])[H])C2([H])[H])n1

>  <smiles>  (6) 
[H]c1nc(N2C([H])([H])C([H])([H])N(C(=O)N3C([H])([H])C([H])([H])C([H])([H])C([H])(n4nc(-c5c([H])c([H])c(Oc6c([H])c([H])c(F)c([H])c6F)c([H])c5[H])c(C(=O)N([H])[H])c4N([H])[H])C3([H])[H])C([H])([H])C2([H])[H])c([H])c(N([H])C2([H])C([H])([H])C([H])([H])C([H])([N+]([H])([H])C([H])([H])C([H])(Oc3c([H])c([H])c4c(c3[H])C([H])([H])N(C(=O)C([H])(N([H])C(=O)C([H])(N([H])C([H])([H])[H])C([H])([H])[H])C(C([H])([H])[H])(C([H])([H])[H])C([H])([H])[H])C([H])(C(=O)N([H])C3([H])c5c([H])c([H])c([H])c([H])c5C([H])([H])C([H])([H])C3([H])[H])C4([H])[H])C([H])([H])[H])C2([H])[H])n1

$$$$
6:0:0
     RDKit          3D

 99106  0  0  1  0  0  0  0  0999 V2000
  -32.2870  -13.5990   19.1020 C   0  0  0  0  0  3  0  0  0  0  0  0
  -28.9690  -14.5150   18.7610 C   0  0  0  0  0  3  0  0  0  0  0  0
  -29.7810  -12.4960   19.7460 C   0  0  0  0  0  2  0  0  0  0  0  0
  -31.7170  -15.0250   18.4610 C   0  0  0  0  0  3  0  0  0  0  0  0
  -31.4090  -12.4310   19.7450 N   0  0  0  0  0  0  0  0  0  0  0  0
  -30.1920  -15.4160   18.2660 N   0  0  0  0  0  2  0  0  0  0  0  0
  -30.9150  -15.3030   21.1210 C   0  0  0  0  0  0  0  0  0  0  0  0
  -30.4810  -13.0770   17.7800 C   0  0  0  0  0  1  0  0  0  0  0  0
  -28.9770  -12.1940   17.4200 C   0  0  0  0  0  2  0  0  0  0  0  0
  -27.5240  -12.3190   18.4250 C   0  0  0  0  0  3  0  0  0  0  0  0
  -27.2450  -13.3740   19.8560 C   0  0  0  0  0  0  0  0  0  0  0  0
  -28.4710  -14.3370   20.9010 C   0  0  0  0  0  2  0  0  0  0  0  0
  -30.1190  -14.6510   20.2720 N   0  0  0  0  0  0  0  0  0  0  0  0
  -31.7240  -14.6100   21.6460 O   0  0  0  0  0  0  0  0  0  0  0  0
  -33.5080  -16.2960   19.6260 C   0  0  0  0  0  2  0  0  0  0  0  0
  -31.7420  -17.4520   18.5540 C   0  0  0  0  0  2  0  0  0  0  0  0
  -32.8310  -16.8080   20.9460 C   0  0  0  0  0  2  0  0  0  0  0  0
  -30.8650  -17.5400   19.8730 C   0  0  0  0  0  2  0  0  0  0  0  0
  -32.5360  -16.2010   18.5100 N   0  0  0  0  0  0  0  0  0  0  0  0
  -31.3660  -16.5710   20.8530 N   0  0  0  0  0  0  0  0  0  0  0  0
  -24.9380  -13.8100   20.6510 C   0  0  0  0  0  0  0  0  0  0  0  0
  -23.8920  -13.0140   20.9820 C   0  0  0  0  0  0  0  0  0  0  0  0
  -24.3580  -11.6660   20.9240 C   0  0  0  0  0  0  0  0  0  0  0  0
  -25.9970  -12.9620   20.4430 N   0  0  0  0  0  0  0  0  0  0  0  0
  -25.6470  -11.6540   20.6130 N   0  0  0  0  0  0  0  0  0  0  0  0
  -23.6210  -10.4060   21.1100 C   0  0  0  0  0  0  0  0  0  0  0  0
  -24.0860   -9.3930   21.9780 C   0  0  0  0  0  3  0  0  0  0  0  0
  -23.3210   -8.2250   22.1900 C   0  0  0  0  0  3  0  0  0  0  0  0
  -22.0770   -8.0610   21.5330 C   0  0  0  0  0  0  0  0  0  0  0  0
  -21.6350   -9.0570   20.6460 C   0  0  0  0  0  3  0  0  0  0  0  0
  -22.4010  -10.2160   20.4310 C   0  0  0  0  0  3  0  0  0  0  0  0
  -21.2770   -6.9500   21.6610 O   0  0  0  0  0  0  0  0  0  0  0  0
  -21.3640   -6.1170   22.7480 C   0  0  0  0  0  0  0  0  0  0  0  0
  -21.1610   -6.5840   24.0640 C   0  0  0  0  0  3  0  0  0  0  0  0
  -21.1910   -5.6820   25.1450 C   0  0  0  0  0  3  0  0  0  0  0  0
  -21.4180   -4.3100   24.9150 C   0  0  0  0  0  0  0  0  0  0  0  0
  -21.6160   -3.8430   23.6030 C   0  0  0  0  0  3  0  0  0  0  0  0
  -21.5860   -4.7430   22.5240 C   0  0  0  0  0  0  0  0  0  0  0  0
  -21.7540   -4.2820   21.2610 F   0  0  0  0  0  0  0  0  0  0  0  0
  -21.4390   -3.4420   25.9510 F   0  0  0  0  0  0  0  0  0  0  0  0
  -22.5150  -13.5090   21.2570 C   0  0  0  0  0  0  0  0  0  0  0  0
  -21.8040  -12.8450   22.1560 N   0  0  0  0  0  0  0  0  0  0  0  0
  -22.0970  -14.5360   20.7240 O   0  0  0  0  0  0  0  0  0  0  0  0
  -22.1720  -12.0210   22.6080 H   0  0  0  0  0  0  0  0  0  0  0  0
  -20.8750  -13.1630   22.3970 H   0  0  0  0  0  0  0  0  0  0  0  0
  -25.0480  -15.1910   20.4900 N   0  0  0  0  0  0  0  0  0  0  0  0
  -24.2450  -15.7970   20.6170 H   0  0  0  0  0  0  0  0  0  0  0  0
  -25.8920  -15.6970   20.2620 H   0  0  0  0  0  0  0  0  0  0  0  0
  -29.8560   -9.9080   19.9870 C   0  0  0  0  0  1  0  0  0  0  0  0
  -29.4150  -11.2390   20.6220 C   0  0  0  0  0  3  0  0  0  0  0  0
  -30.0480  -11.3130   21.7980 F   0  0  0  0  0  0  0  0  0  0  0  0
  -27.9590  -16.1170   18.9590 C   0  0  0  0  0  1  0  0  0  0  0  0
  -28.1340  -18.0400   18.5300 C   0  0  0  0  0  1  0  0  0  0  0  0
  -27.4200  -19.6070   18.9980 N   0  0  0  0  0  4  0  0  0  0  0  0
  -26.4560  -19.5150   18.7160 H   0  0  0  0  0  0  0  0  0  0  0  0
  -27.3920  -19.5380   20.0030 H   0  0  0  0  0  0  0  0  0  0  0  0
  -27.7760  -21.3420   18.7330 C   0  0  0  0  0  3  0  0  0  0  0  0
  -27.1220  -23.1030   19.3160 C   0  0  0  0  0  3  0  0  0  0  0  0
  -27.5330  -24.8450   19.4180 O   0  0  0  0  0  0  0  0  0  0  0  0
  -24.5950  -31.2790   22.9040 C   0  0  0  0  0  0  0  0  0  0  0  0
  -26.7020  -26.1570   19.5670 C   0  0  0  0  0  0  0  0  0  0  0  0
  -23.3010  -30.0020   21.2630 C   0  0  0  0  0  3  0  0  0  0  0  0
  -24.6030  -28.3510   19.7330 C   0  0  0  0  0  0  0  0  0  0  0  0
  -25.8840  -29.9940   21.0740 C   0  0  0  0  0  2  0  0  0  0  0  0
  -25.8410  -28.5910   20.3380 C   0  0  0  0  0  0  0  0  0  0  0  0
  -26.8860  -27.5210   20.2240 C   0  0  0  0  0  3  0  0  0  0  0  0
  -25.4400  -26.1470   18.9390 C   0  0  0  0  0  3  0  0  0  0  0  0
  -24.4430  -27.1570   19.0160 C   0  0  0  0  0  3  0  0  0  0  0  0
  -23.4630  -29.3690   19.8570 C   0  0  0  0  0  2  0  0  0  0  0  0
  -24.6230  -30.4560   21.7980 N   0  0  0  0  0  0  0  0  0  0  0  0
  -23.5290  -31.6100   23.4520 O   0  0  0  0  0  0  0  0  0  0  0  0
  -22.5710  -29.0110   22.2100 C   0  0  0  0  0  0  0  0  0  0  0  0
  -21.2290  -28.9310   22.1300 N   0  0  0  0  0  0  0  0  0  0  0  0
  -23.2240  -28.3150   22.9920 O   0  0  0  0  0  0  0  0  0  0  0  0
  -20.7560  -29.5380   21.4750 H   0  0  0  0  0  0  0  0  0  0  0  0
  -17.8040  -27.8680   22.7080 C   0  0  0  0  0  0  0  0  0  0  0  0
  -20.3810  -28.0080   22.8920 C   0  0  0  0  0  3  0  0  0  0  0  0
  -20.3960  -26.5950   22.2640 C   0  0  0  0  0  2  0  0  0  0  0  0
  -19.2490  -26.3620   21.2760 C   0  0  0  0  0  2  0  0  0  0  0  0
  -17.8950  -26.5430   21.9700 C   0  0  0  0  0  2  0  0  0  0  0  0
  -18.9690  -28.5650   23.1250 C   0  0  0  0  0  0  0  0  0  0  0  0
  -18.8240  -29.8050   23.7820 C   0  0  0  0  0  3  0  0  0  0  0  0
  -17.5490  -30.3510   24.0200 C   0  0  0  0  0  3  0  0  0  0  0  0
  -16.3980  -29.6520   23.6140 C   0  0  0  0  0  3  0  0  0  0  0  0
  -16.5280  -28.4120   22.9630 C   0  0  0  0  0  3  0  0  0  0  0  0
  -25.8970  -31.8560   23.5320 C   0  0  0  0  0  3  0  0  0  0  0  0
  -25.6270  -33.2420   23.9650 N   0  0  0  0  0  0  0  0  0  0  0  0
  -26.0060  -34.3470   23.3080 C   0  0  0  0  0  0  0  0  0  0  0  0
  -26.6770  -34.3040   22.2740 O   0  0  0  0  0  0  0  0  0  0  0  0
  -25.0260  -33.3490   24.7690 H   0  0  0  0  0  0  0  0  0  0  0  0
  -24.3520  -36.2400   23.1130 C   0  0  0  0  0  1  0  0  0  0  0  0
  -25.5750  -35.7120   23.8830 C   0  0  0  0  0  3  0  0  0  0  0  0
  -27.7400  -36.4420   24.7850 C   0  0  0  0  0  1  0  0  0  0  0  0
  -26.6500  -36.7310   23.8580 N   0  0  0  0  0  0  0  0  0  0  0  0
  -26.2810  -37.6510   24.0790 H   0  0  0  0  0  0  0  0  0  0  0  0
  -26.4150  -31.0100   24.7610 C   0  0  1  0  0  0  0  0  0  0  0  0
  -25.3390  -30.7650   25.8470 C   0  0  0  0  0  1  0  0  0  0  0  0
  -26.9370  -29.6300   24.3050 C   0  0  0  0  0  1  0  0  0  0  0  0
  -27.6140  -31.7290   25.4230 C   0  0  0  0  0  1  0  0  0  0  0  0
  1  5  2  0
  2 52  1  0
  2 13  1  0
  3 50  1  0
  4 19  1  0
  4  1  1  0
  5  3  1  0
  6  4  1  0
  6  2  1  0
  7 14  2  0
  9  8  1  0
  9 10  1  0
 10 11  2  0
 11 24  1  0
 11 12  1  0
 13 12  1  0
 13  7  1  0
 15 17  1  0
 16 18  1  0
 18 20  1  0
 19 16  1  0
 19 15  1  0
 20 17  1  0
 20  7  1  0
 21 22  2  0
 22 41  1  0
 23 22  1  0
 23 26  1  0
 24 25  1  0
 24 21  1  0
 25 23  2  0
 26 27  1  0
 27 28  2  0
 29 32  1  0
 29 28  1  0
 30 29  2  0
 31 30  1  0
 31 26  2  0
 32 33  1  0
 33 34  1  0
 34 35  2  0
 36 35  1  0
 36 40  1  0
 37 36  2  0
 38 33  2  0
 38 37  1  0
 39 38  1  0
 41 42  1  0
 42 45  1  0
 42 44  1  0
 43 41  2  0
 46 47  1  0
 46 21  1  0
 48 46  1  0
 50 49  1  0
 50 51  1  0
 53 54  1  0
 54 56  1  0
 55 54  1  0
 57 54  1  0
 57 58  2  0
 58 59  1  0
 59 61  1  0
 60 71  2  0
 61 66  1  0
 62 70  1  0
 62 72  1  0
 63 69  1  0
 63 65  1  0
 64 70  1  0
 65 64  1  0
 66 65  2  0
 67 68  1  0
 67 61  2  0
 68 63  2  0
 69 62  1  0
 70 60  1  0
 72 74  2  0
 73 72  1  0
 75 73  1  0
 76 85  2  0
 76 81  1  0
 77 73  1  0
 77 81  1  0
 78 77  1  0
 79 80  1  0
 79 78  1  0
 80 76  1  0
 81 82  2  0
 82 83  1  0
 84 83  2  0
 85 84  1  0
 86 60  1  0
 86 87  1  0
 86 96  1  0
 87 90  1  0
 88 92  1  0
 88 87  1  0
 89 88  2  0
 92 91  1  0
 94 92  1  0
 94 95  1  0
 94 93  1  0
 96 99  1  1
 96 97  1  0
 98 96  1  0
M  ISO  4   7 100  20 100  58 101  59 101
M  END
>  <TORSDO>  (7) 
F 22

>  <SCORE>  (7) 
-12.640

>  <name>  (7) 
6

>  <ligand_id>  (7) 
6

>  <original_smiles>  (7) 
[H]c1nc(C([H])(F)C([H])([H])[H])c(C([H])([H])C([H])([H])[N+]([H])([H])C([H])([H])C([H])([H])Oc2c([H])c([H])c3c(c2[H])C([H])([H])N(C(=O)C([H])(N([H])C(=O)C([H])(N([H])C([H])([H])[H])C([H])([H])[H])C(C([H])([H])[H])(C([H])([H])[H])C([H])([H])[H])C([H])(C(=O)N([H])C2([H])c4c([H])c([H])c([H])c([H])c4C([H])([H])C([H])([H])C2([H])[H])C3([H])[H])nc1N1C([H])([H])C([H])([H])N(C(=O)N2C([H])([H])C([H])([H])C([H])([H])C([H])(n3nc(-c4c([H])c([H])c(Oc5c([H])c([H])c(F)c([H])c5F)c([H])c4[H])c(C(=O)N([H])[H])c3N([H])[H])C2([H])[H])C([H])([H])C1([H])[H]

>  <smiles>  (7) 
[H]c1nc(C([H])(F)C([H])([H])[H])c(C([H])([H])C([H])([H])[N+]([H])([H])C([H])([H])C([H])([H])Oc2c([H])c([H])c3c(c2[H])C([H])([H])N(C(=O)C([H])(N([H])C(=O)C([H])(N([H])C([H])([H])[H])C([H])([H])[H])C(C([H])([H])[H])(C([H])([H])[H])C([H])([H])[H])C([H])(C(=O)N([H])C2([H])c4c([H])c([H])c([H])c([H])c4C([H])([H])C([H])([H])C2([H])[H])C3([H])[H])nc1N1C([H])([H])C([H])([H])N(C(=O)N2C([H])([H])C([H])([H])C([H])([H])C([H])(n3nc(-c4c([H])c([H])c(Oc5c([H])c([H])c(F)c([H])c5F)c([H])c4[H])c(C(=O)N([H])[H])c3N([H])[H])C2([H])[H])C([H])([H])C1([H])[H]

$$$$
7:0:0
     RDKit          3D

 92101  0  0  1  0  0  0  0  0999 V2000
  -27.9660  -20.6340   20.8370 C   0  0  0  0  0  2  0  0  0  0  0  0
  -27.8890  -22.1670   20.9210 C   0  0  0  0  0  2  0  0  0  0  0  0
  -29.4680  -20.3640   20.8550 C   0  0  0  0  0  3  0  0  0  0  0  0
  -30.0010  -21.5850   20.0100 C   0  0  0  0  0  3  0  0  0  0  0  0
  -31.3820  -22.0760   20.4830 C   0  0  0  0  0  1  0  0  0  0  0  0
  -28.9440  -22.6540   20.0280 N   0  0  0  0  0  0  0  0  0  0  0  0
  -30.7550  -14.7000   19.9930 C   0  0  0  0  0  0  0  0  0  0  0  0
  -30.3740  -12.4920   18.9330 C   0  0  0  0  0  2  0  0  0  0  0  0
  -29.3730  -12.6570   17.7730 C   0  0  0  0  0  2  0  0  0  0  0  0
  -27.9290  -12.5130   18.2910 C   0  0  0  0  0  2  0  0  0  0  0  0
  -27.6550  -13.3650   19.5600 C   0  0  0  0  0  3  0  0  0  0  0  0
  -28.7820  -13.2280   20.6080 C   0  0  0  0  0  2  0  0  0  0  0  0
  -30.0490  -13.5290   19.9340 N   0  0  0  0  0  0  0  0  0  0  0  0
  -31.9140  -14.7630   19.5700 O   0  0  0  0  0  0  0  0  0  0  0  0
  -29.8040  -16.7760   19.1370 C   0  0  0  0  0  2  0  0  0  0  0  0
  -30.6350  -16.6430   21.4290 C   0  0  0  0  0  2  0  0  0  0  0  0
  -29.1930  -18.1920   19.4510 C   0  0  0  0  0  2  0  0  0  0  0  0
  -30.0020  -18.0470   21.7050 C   0  0  0  0  0  2  0  0  0  0  0  0
  -30.0900  -15.8700   20.2880 N   0  0  0  0  0  0  0  0  0  0  0  0
  -29.9240  -18.9400   20.5120 N   0  0  2  0  0  4  0  0  0  0  0  0
  -30.8750  -19.0440   20.1900 H   0  0  0  0  0  0  0  0  0  0  0  0
  -25.3240  -13.9570   20.4520 C   0  0  0  0  0  0  0  0  0  0  0  0
  -24.2740  -13.1810   20.8620 C   0  0  0  0  0  0  0  0  0  0  0  0
  -24.7190  -11.8270   20.7600 C   0  0  0  0  0  0  0  0  0  0  0  0
  -26.3410  -13.0760   20.1250 N   0  0  0  0  0  0  0  0  0  0  0  0
  -25.9890  -11.7880   20.3720 N   0  0  0  0  0  0  0  0  0  0  0  0
  -23.9920  -10.5660   20.9540 C   0  0  0  0  0  0  0  0  0  0  0  0
  -24.4320   -9.5920   21.8780 C   0  0  0  0  0  3  0  0  0  0  0  0
  -23.7050   -8.3970   22.0620 C   0  0  0  0  0  3  0  0  0  0  0  0
  -22.5220   -8.1650   21.3200 C   0  0  0  0  0  0  0  0  0  0  0  0
  -22.1020   -9.1250   20.3840 C   0  0  0  0  0  3  0  0  0  0  0  0
  -22.8290  -10.3130   20.2000 C   0  0  0  0  0  3  0  0  0  0  0  0
  -21.7660   -7.0210   21.4120 O   0  0  0  0  0  0  0  0  0  0  0  0
  -21.6700   -6.3130   22.5830 C   0  0  0  0  0  0  0  0  0  0  0  0
  -21.1640   -6.8980   23.7650 C   0  0  0  0  0  3  0  0  0  0  0  0
  -21.0160   -6.1170   24.9300 C   0  0  0  0  0  3  0  0  0  0  0  0
  -21.3640   -4.7530   24.9120 C   0  0  0  0  0  0  0  0  0  0  0  0
  -21.8620   -4.1680   23.7340 C   0  0  0  0  0  3  0  0  0  0  0  0
  -22.0120   -4.9460   22.5730 C   0  0  0  0  0  0  0  0  0  0  0  0
  -22.4710   -4.3730   21.4340 F   0  0  0  0  0  0  0  0  0  0  0  0
  -21.2150   -4.0010   26.0280 F   0  0  0  0  0  0  0  0  0  0  0  0
  -22.9020  -13.6610   21.2360 C   0  0  0  0  0  0  0  0  0  0  0  0
  -22.2250  -12.9450   22.1260 N   0  0  0  0  0  0  0  0  0  0  0  0
  -22.4440  -14.7050   20.7730 O   0  0  0  0  0  0  0  0  0  0  0  0
  -22.6110  -12.1000   22.5190 H   0  0  0  0  0  0  0  0  0  0  0  0
  -21.3080  -13.2500   22.4230 H   0  0  0  0  0  0  0  0  0  0  0  0
  -25.4950  -15.3310   20.3100 N   0  0  0  0  0  0  0  0  0  0  0  0
  -24.7510  -15.9960   20.4890 H   0  0  0  0  0  0  0  0  0  0  0  0
  -26.3350  -15.7670   19.9520 H   0  0  0  0  0  0  0  0  0  0  0  0
  -29.2920  -24.1060   20.2210 C   0  0  0  0  0  3  0  0  0  0  0  0
  -28.1590  -25.1530   19.8550 C   0  0  0  0  0  3  0  0  0  0  0  0
  -28.3740  -26.5920   20.1180 O   0  0  0  0  0  0  0  0  0  0  0  0
  -24.6510  -31.8970   23.2600 C   0  0  0  0  0  0  0  0  0  0  0  0
  -27.2500  -27.4310   20.0810 C   0  0  0  0  0  0  0  0  0  0  0  0
  -23.4360  -30.5330   21.5990 C   0  0  0  0  0  3  0  0  0  0  0  0
  -24.8820  -29.0270   20.1220 C   0  0  0  0  0  0  0  0  0  0  0  0
  -25.9730  -30.8650   21.4050 C   0  0  0  0  0  2  0  0  0  0  0  0
  -26.0510  -29.5050   20.7270 C   0  0  0  0  0  0  0  0  0  0  0  0
  -27.2390  -28.7180   20.7000 C   0  0  0  0  0  3  0  0  0  0  0  0
  -26.0590  -27.0100   19.4470 C   0  0  0  0  0  3  0  0  0  0  0  0
  -24.8880  -27.7860   19.4700 C   0  0  0  0  0  3  0  0  0  0  0  0
  -23.6360  -29.8870   20.2030 C   0  0  0  0  0  2  0  0  0  0  0  0
  -24.7070  -31.1130   22.1440 N   0  0  0  0  0  0  0  0  0  0  0  0
  -23.5720  -32.1610   23.8070 O   0  0  0  0  0  0  0  0  0  0  0  0
  -22.7850  -29.4920   22.5400 C   0  0  0  0  0  0  0  0  0  0  0  0
  -21.4620  -29.3030   22.4050 N   0  0  0  0  0  0  0  0  0  0  0  0
  -23.4670  -28.8610   23.3510 O   0  0  0  0  0  0  0  0  0  0  0  0
  -20.9730  -29.8590   21.7180 H   0  0  0  0  0  0  0  0  0  0  0  0
  -18.0940  -28.0660   22.8660 C   0  0  0  0  0  0  0  0  0  0  0  0
  -20.6480  -28.3470   23.1560 C   0  0  0  0  0  3  0  0  0  0  0  0
  -20.7670  -26.9250   22.5610 C   0  0  0  0  0  2  0  0  0  0  0  0
  -19.6740  -26.6060   21.5350 C   0  0  0  0  0  2  0  0  0  0  0  0
  -18.2860  -26.7280   22.1720 C   0  0  0  0  0  2  0  0  0  0  0  0
  -19.2010  -28.8330   23.3130 C   0  0  0  0  0  0  0  0  0  0  0  0
  -18.9660  -30.0860   23.9200 C   0  0  0  0  0  3  0  0  0  0  0  0
  -17.6560  -30.5730   24.0830 C   0  0  0  0  0  3  0  0  0  0  0  0
  -16.5610  -29.8030   23.6520 C   0  0  0  0  0  3  0  0  0  0  0  0
  -16.7820  -28.5500   23.0510 C   0  0  0  0  0  3  0  0  0  0  0  0
  -25.9390  -32.5130   23.8890 C   0  0  0  0  0  3  0  0  0  0  0  0
  -25.6350  -33.9070   24.2380 N   0  0  0  0  0  0  0  0  0  0  0  0
  -25.9340  -34.9650   23.4740 C   0  0  0  0  0  0  0  0  0  0  0  0
  -26.5640  -34.8710   22.4170 O   0  0  0  0  0  0  0  0  0  0  0  0
  -25.0660  -34.0560   25.0590 H   0  0  0  0  0  0  0  0  0  0  0  0
  -24.1680  -36.7370   23.2140 C   0  0  0  0  0  1  0  0  0  0  0  0
  -25.4570  -36.3490   23.9560 C   0  0  0  0  0  3  0  0  0  0  0  0
  -27.6230  -37.2590   24.6720 C   0  0  0  0  0  1  0  0  0  0  0  0
  -26.4720  -37.4120   23.7850 N   0  0  0  0  0  0  0  0  0  0  0  0
  -26.0640  -38.3300   23.9450 H   0  0  0  0  0  0  0  0  0  0  0  0
  -26.4530  -31.7190   25.1520 C   0  0  1  0  0  0  0  0  0  0  0  0
  -25.3590  -31.4640   26.2150 C   0  0  0  0  0  1  0  0  0  0  0  0
  -27.0350  -30.3470   24.7410 C   0  0  0  0  0  1  0  0  0  0  0  0
  -27.6090  -32.4990   25.8230 C   0  0  0  0  0  1  0  0  0  0  0  0
  1  2  1  0
  3  1  1  0
  4  6  1  0
  4  5  1  0
  4  3  1  0
  6 50  1  0
  6  2  1  0
  7 19  1  0
  8 13  1  0
  9 10  1  0
  9  8  1  0
 11 10  1  0
 11 25  1  0
 11 12  1  0
 13  7  1  0
 13 12  1  0
 14  7  2  0
 15 17  1  0
 15 19  1  0
 16 18  1  0
 17 20  1  0
 19 16  1  0
 20 21  1  6
 20  3  1  0
 20 18  1  0
 22 23  2  0
 23 42  1  0
 24 23  1  0
 24 27  1  0
 25 26  1  0
 25 22  1  0
 26 24  2  0
 27 28  1  0
 28 29  2  0
 30 33  1  0
 30 29  1  0
 31 30  2  0
 32 31  1  0
 32 27  2  0
 33 34  1  0
 34 35  1  0
 35 36  2  0
 37 36  1  0
 37 41  1  0
 38 37  2  0
 39 34  2  0
 39 38  1  0
 40 39  1  0
 42 43  1  0
 43 46  1  0
 43 45  1  0
 44 42  2  0
 47 22  1  0
 47 48  1  0
 49 47  1  0
 51 52  1  0
 51 50  2  0
 53 64  2  0
 54 52  1  0
 54 59  1  0
 55 63  1  0
 55 65  1  0
 56 62  1  0
 56 58  1  0
 57 63  1  0
 58 57  1  0
 59 58  2  0
 60 61  1  0
 60 54  2  0
 61 56  2  0
 62 55  1  0
 63 53  1  0
 65 67  2  0
 66 65  1  0
 68 66  1  0
 69 78  2  0
 69 74  1  0
 70 66  1  0
 70 74  1  0
 71 70  1  0
 72 73  1  0
 72 71  1  0
 73 69  1  0
 74 75  2  0
 75 76  1  0
 77 76  2  0
 78 77  1  0
 79 53  1  0
 79 80  1  0
 79 89  1  0
 80 83  1  0
 81 85  1  0
 81 80  1  0
 82 81  2  0
 85 84  1  0
 87 88  1  0
 87 85  1  0
 87 86  1  0
 89 92  1  1
 89 90  1  0
 91 89  1  0
M  ISO  4   7 100  19 100  51 101  52 101
M  END
>  <TORSDO>  (8) 
F 18

>  <SCORE>  (8) 
-14.383

>  <name>  (8) 
7

>  <ligand_id>  (8) 
7

>  <original_smiles>  (8) 
[H]c1c([H])c([H])c2c(c1[H])C([H])([H])C([H])([H])C([H])([H])C2([H])N([H])C(=O)C1([H])N(C(=O)C([H])(N([H])C(=O)C([H])(N([H])C([H])([H])[H])C([H])([H])[H])C(C([H])([H])[H])(C([H])([H])[H])C([H])([H])[H])C([H])([H])c2c([H])c(OC([H])([H])C([H])([H])N3C([H])([H])C([H])([H])C([H])([N+]4([H])C([H])([H])C([H])([H])N(C(=O)N5C([H])([H])C([H])([H])C([H])([H])C([H])(n6nc(-c7c([H])c([H])c(Oc8c([H])c([H])c(F)c([H])c8F)c([H])c7[H])c(C(=O)N([H])[H])c6N([H])[H])C5([H])[H])C([H])([H])C4([H])[H])C3([H])C([H])([H])[H])c([H])c([H])c2C1([H])[H]

>  <smiles>  (8) 
[H]c1c([H])c([H])c2c(c1[H])C([H])([H])C([H])([H])C([H])([H])C2([H])N([H])C(=O)C1([H])N(C(=O)C([H])(N([H])C(=O)C([H])(N([H])C([H])([H])[H])C([H])([H])[H])C(C([H])([H])[H])(C([H])([H])[H])C([H])([H])[H])C([H])([H])c2c([H])c(OC([H])([H])C([H])([H])N3C([H])([H])C([H])([H])C([H])([N+]4([H])C([H])([H])C([H])([H])N(C(=O)N5C([H])([H])C([H])([H])C([H])([H])C([H])(n6nc(-c7c([H])c([H])c(Oc8c([H])c([H])c(F)c([H])c8F)c([H])c7[H])c(C(=O)N([H])[H])c6N([H])[H])C5([H])[H])C([H])([H])C4([H])[H])C3([H])C([H])([H])[H])c([H])c([H])c2C1([H])[H]

$$$$
8:0:0
     RDKit          3D

 97101  0  0  1  0  0  0  0  0999 V2000
  -25.5050  -25.0840   17.6430 C   0  0  0  0  0  3  0  0  0  0  0  0
  -26.0540  -23.6460   17.8340 C   0  0  0  0  0  3  0  0  0  0  0  0
  -27.4480  -25.8210   18.2700 C   0  0  0  0  0  3  0  0  0  0  0  0
  -26.1050  -26.4350   17.8920 C   0  0  0  0  0  0  0  0  0  0  0  0
  -27.3780  -23.1420   18.3320 C   0  0  0  0  0  0  0  0  0  0  0  0
  -27.9840  -24.4450   18.4690 N   0  0  0  0  0  0  0  0  0  0  0  0
  -28.0830  -21.6290   18.3580 N   0  0  0  0  0  0  0  0  0  0  0  0
  -28.7330  -21.6420   17.5840 H   0  0  0  0  0  0  0  0  0  0  0  0
  -30.2170  -15.6210   19.5720 C   0  0  0  0  0  0  0  0  0  0  0  0
  -30.3370  -13.0300   18.9420 C   0  0  0  0  0  2  0  0  0  0  0  0
  -29.3870  -12.5930   17.8030 C   0  0  0  0  0  2  0  0  0  0  0  0
  -27.9810  -12.2890   18.3500 C   0  0  0  0  0  2  0  0  0  0  0  0
  -27.5610  -13.2750   19.4690 C   0  0  0  0  0  3  0  0  0  0  0  0
  -28.6720  -13.6110   20.4760 C   0  0  0  0  0  2  0  0  0  0  0  0
  -29.7300  -14.2400   19.6560 N   0  0  0  0  0  0  0  0  0  0  0  0
  -31.4610  -15.5110   19.4780 O   0  0  0  0  0  0  0  0  0  0  0  0
  -29.8290  -19.7810   19.8360 C   0  0  0  0  0  2  0  0  0  0  0  0
  -30.0970  -18.2230   20.3410 C   0  0  0  0  0  2  0  0  0  0  0  0
  -28.6960  -18.2910   18.6690 C   0  0  0  0  0  2  0  0  0  0  0  0
  -28.4260  -20.0660   19.1620 C   0  0  0  0  0  3  0  0  0  0  0  0
  -29.5010  -17.0650   19.5660 N   0  0  0  0  0  0  0  0  0  0  0  0
  -25.2840  -13.8160   20.4320 C   0  0  0  0  0  0  0  0  0  0  0  0
  -24.2450  -13.0440   20.8410 C   0  0  0  0  0  0  0  0  0  0  0  0
  -24.6950  -11.6870   20.7580 C   0  0  0  0  0  0  0  0  0  0  0  0
  -26.2970  -12.9390   20.0980 N   0  0  0  0  0  0  0  0  0  0  0  0
  -25.9640  -11.6480   20.3670 N   0  0  0  0  0  0  0  0  0  0  0  0
  -23.9660  -10.4340   20.9620 C   0  0  0  0  0  0  0  0  0  0  0  0
  -24.3870   -9.4780   21.9150 C   0  0  0  0  0  3  0  0  0  0  0  0
  -23.6510   -8.2880   22.1100 C   0  0  0  0  0  3  0  0  0  0  0  0
  -22.4760   -8.0470   21.3580 C   0  0  0  0  0  0  0  0  0  0  0  0
  -22.0730   -8.9920   20.3980 C   0  0  0  0  0  3  0  0  0  0  0  0
  -22.8080  -10.1730   20.2000 C   0  0  0  0  0  3  0  0  0  0  0  0
  -21.7120   -6.9110   21.4640 O   0  0  0  0  0  0  0  0  0  0  0  0
  -21.6210   -6.2140   22.6410 C   0  0  0  0  0  0  0  0  0  0  0  0
  -21.1040   -6.8010   23.8170 C   0  0  0  0  0  3  0  0  0  0  0  0
  -20.9610   -6.0260   24.9860 C   0  0  0  0  0  3  0  0  0  0  0  0
  -21.3200   -4.6660   24.9800 C   0  0  0  0  0  0  0  0  0  0  0  0
  -21.8280   -4.0780   23.8090 C   0  0  0  0  0  3  0  0  0  0  0  0
  -21.9710   -4.8480   22.6410 C   0  0  0  0  0  0  0  0  0  0  0  0
  -22.4420   -4.2700   21.5090 F   0  0  0  0  0  0  0  0  0  0  0  0
  -21.1750   -3.9210   26.1000 F   0  0  0  0  0  0  0  0  0  0  0  0
  -22.8720  -13.5290   21.1930 C   0  0  0  0  0  0  0  0  0  0  0  0
  -22.1840  -12.8310   22.0810 N   0  0  0  0  0  0  0  0  0  0  0  0
  -22.4250  -14.5720   20.7130 O   0  0  0  0  0  0  0  0  0  0  0  0
  -22.5690  -11.9890   22.4870 H   0  0  0  0  0  0  0  0  0  0  0  0
  -21.2630  -13.1350   22.3620 H   0  0  0  0  0  0  0  0  0  0  0  0
  -25.4550  -15.1930   20.2700 N   0  0  0  0  0  0  0  0  0  0  0  0
  -24.7020  -15.8470   20.4550 H   0  0  0  0  0  0  0  0  0  0  0  0
  -26.2860  -15.6370   19.9050 H   0  0  0  0  0  0  0  0  0  0  0  0
  -25.4910  -28.2980   17.8010 C   0  0  0  0  0  1  0  0  0  0  0  0
  -24.3320  -29.9050   18.5960 C   0  0  0  0  0 15  0  0  0  0  0  0
  -23.6250  -30.7910   20.1590 N   0  0  0  0  0  2  0  0  0  0  0  0
  -23.1060  -31.5410   19.7160 H   0  0  0  0  0  0  0  0  0  0  0  0
  -24.4520  -31.2940   20.4620 H   0  0  0  0  0  0  0  0  0  0  0  0
  -22.7240  -30.6440   21.8740 C   0  0  0  0  0 15  0  0  0  0  0  0
  -23.9470  -29.6490   23.9700 C   0  0  0  0  0 15  0  0  0  0  0  0
  -25.5590  -28.4790   23.7180 O   0  0  0  0  0  1  0  0  0  0  0  0
  -24.9970  -31.7630   22.9060 C   0  0  0  0  0  0  0  0  0  0  0  0
  -26.5000  -27.7550   22.7680 C   0  0  0  0  0  3  0  0  0  0  0  0
  -23.8240  -28.7120   21.9380 C   0  0  0  0  0  3  0  0  0  0  0  0
  -25.0700  -27.9000   20.8210 C   0  0  1  0  0  0  0  0  0  0  0  0
  -26.1100  -30.3720   21.1650 C   0  0  0  0  0  2  0  0  0  0  0  0
  -26.1580  -28.8920   20.9960 C   0  0  0  0  0  3  0  0  0  0  0  0
  -27.1840  -28.4270   21.7710 C   0  0  0  0  0  2  0  0  0  0  0  0
  -26.1940  -26.4800   22.2290 C   0  0  0  0  0  2  0  0  0  0  0  0
  -25.2970  -26.5890   21.2140 C   0  0  0  0  0  2  0  0  0  0  0  0
  -23.5760  -27.9630   20.8340 C   0  0  0  0  0  2  0  0  0  0  0  0
  -25.0640  -30.4120   22.0590 N   0  0  0  0  0  2  0  0  0  0  0  0
  -23.9150  -32.2400   23.3930 O   0  0  0  0  0  0  0  0  0  0  0  0
  -22.3320  -28.3110   22.7800 C   0  0  0  0  0  0  0  0  0  0  0  0
  -21.0550  -28.6990   22.5440 N   0  0  0  0  0  0  0  0  0  0  0  0
  -22.4870  -27.7840   23.8830 O   0  0  0  0  0  0  0  0  0  0  0  0
  -20.7660  -29.2200   21.7270 H   0  0  0  0  0  0  0  0  0  0  0  0
  -17.5320  -28.2360   22.9840 C   0  0  0  0  0  0  0  0  0  0  0  0
  -20.0290  -28.1970   23.4530 C   0  0  0  0  0  3  0  0  0  0  0  0
  -19.9160  -26.6850   23.1750 C   0  0  0  0  0  2  0  0  0  0  0  0
  -19.0160  -26.4570   21.9790 C   0  0  0  0  0  2  0  0  0  0  0  0
  -17.6100  -26.8260   22.4140 C   0  0  0  0  0  2  0  0  0  0  0  0
  -18.6870  -28.9300   23.4200 C   0  0  0  0  0  0  0  0  0  0  0  0
  -18.5660  -30.2550   23.9040 C   0  0  0  0  0  3  0  0  0  0  0  0
  -17.3080  -30.8840   23.9550 C   0  0  0  0  0  3  0  0  0  0  0  0
  -16.1610  -30.1790   23.5260 C   0  0  0  0  0  3  0  0  0  0  0  0
  -16.2800  -28.8610   23.0400 C   0  0  0  0  0  3  0  0  0  0  0  0
  -26.0090  -32.5250   23.9090 C   0  0  0  0  0  3  0  0  0  0  0  0
  -25.4840  -33.9130   24.1660 N   0  0  0  0  0  0  0  0  0  0  0  0
  -25.7030  -34.9760   23.4080 C   0  0  0  0  0  0  0  0  0  0  0  0
  -26.4520  -34.8910   22.4420 O   0  0  0  0  0  0  0  0  0  0  0  0
  -24.8630  -34.0000   24.9540 H   0  0  0  0  0  0  0  0  0  0  0  0
  -23.9330  -36.6870   22.8310 C   0  0  0  0  0  1  0  0  0  0  0  0
  -25.0730  -36.3280   23.7950 C   0  0  0  0  0  3  0  0  0  0  0  0
  -27.0390  -37.2970   24.9120 C   0  0  0  0  0  1  0  0  0  0  0  0
  -26.0620  -37.4270   23.8360 N   0  0  0  0  0  0  0  0  0  0  0  0
  -25.5920  -38.3210   23.9450 H   0  0  0  0  0  0  0  0  0  0  0  0
  -26.1630  -31.9730   25.4300 C   0  0  1  0  0  0  0  0  0  0  0  0
  -24.9090  -31.8060   26.3780 C   0  0  0  0  0  1  0  0  0  0  0  0
  -27.0000  -30.6890   25.4370 C   0  0  0  0  0  1  0  0  0  0  0  0
  -27.0560  -32.9980   26.1870 C   0  0  0  0  0  1  0  0  0  0  0  0
  1  2  2  0
  1  4  1  0
  2  5  1  0
  3  6  1  0
  4  3  2  0
  5  7  1  0
  5  6  2  0
  8  7  1  0
  9 15  1  0
 10 15  1  0
 11 12  1  0
 11 10  1  0
 13 12  1  0
 13 25  1  0
 13 14  1  0
 15 14  1  0
 16  9  2  0
 17 18  1  0
 19 20  1  0
 19 21  1  0
 20  7  1  0
 20 17  1  0
 21  9  1  0
 21 18  1  0
 22 23  2  0
 23 42  1  0
 24 23  1  0
 24 27  1  0
 25 26  1  0
 25 22  1  0
 26 24  2  0
 27 28  1  0
 28 29  2  0
 30 33  1  0
 30 29  1  0
 31 30  2  0
 32 31  1  0
 32 27  2  0
 33 34  1  0
 34 35  1  0
 35 36  2  0
 37 36  1  0
 37 41  1  0
 38 37  2  0
 39 34  2  0
 39 38  1  0
 40 39  1  0
 42 43  1  0
 43 46  1  0
 43 45  1  0
 44 42  2  0
 47 22  1  0
 47 48  1  0
 49 47  1  0
 50  4  1  0
 52 54  1  0
 53 52  1  0
 58 69  2  0
 59 57  1  0
 60 70  1  0
 61 67  1  1
 61 63  1  0
 61 66  1  0
 61 60  1  0
 62 68  1  0
 63 62  1  0
 63 64  1  0
 64 59  1  0
 65 59  1  0
 66 65  1  0
 67 60  1  0
 68 58  1  0
 70 72  2  0
 71 70  1  0
 73 71  1  0
 74 83  2  0
 74 79  1  0
 75 71  1  0
 76 75  1  0
 77 78  1  0
 77 76  1  0
 78 74  1  0
 79 75  1  0
 79 80  2  0
 80 81  1  0
 82 81  2  0
 83 82  1  0
 84 58  1  0
 84 85  1  0
 84 94  1  0
 85 88  1  0
 86 90  1  0
 86 85  1  0
 87 86  2  0
 90 89  1  0
 90 92  1  0
 92 93  1  0
 92 91  1  0
 94 96  1  6
 94 97  1  0
 94 95  1  0
M  ISO  4   9 100  21 100  56 101  57 101
M  END
>  <TORSDO>  (9) 
F 21

>  <SCORE>  (9) 
-16.937

>  <name>  (9) 
8

>  <ligand_id>  (9) 
8

>  <original_smiles>  (9) 
[H]c1nc(N([H])C2([H])C([H])([H])N(C(=O)N3C([H])([H])C([H])([H])C([H])([H])C([H])(n4nc(-c5c([H])c([H])c(Oc6c([H])c([H])c(F)c([H])c6F)c([H])c5[H])c(C(=O)N([H])[H])c4N([H])[H])C3([H])[H])C([H])([H])C2([H])[H])c([H])c([H])c1C([H])([H])C([H])([H])[N+]([H])([H])C([H])([H])C([H])([H])Oc1c([H])c([H])c2c(c1[H])C([H])([H])N(C(=O)C([H])(N([H])C(=O)C([H])(N([H])C([H])([H])[H])C([H])([H])[H])C(C([H])([H])[H])(C([H])([H])[H])C([H])([H])[H])C([H])(C(=O)N([H])C1([H])c3c([H])c([H])c([H])c([H])c3C([H])([H])C([H])([H])C1([H])[H])C2([H])[H]

>  <smiles>  (9) 
[H]c1nc(N([H])C2([H])C([H])([H])N(C(=O)N3C([H])([H])C([H])([H])C([H])([H])C([H])(n4nc(-c5c([H])c([H])c(Oc6c([H])c([H])c(F)c([H])c6F)c([H])c5[H])c(C(=O)N([H])[H])c4N([H])[H])C3([H])[H])C([H])([H])C2([H])[H])c([H])c([H])c1C([H])([H])C([H])([H])[N+]([H])([H])C([H])([H])C([H])([H])Oc1c([H])c([H])c2c(c1[H])C([H])([H])N(C(=O)C([H])(N([H])C(=O)C([H])(N([H])C([H])([H])[H])C([H])([H])[H])C(C([H])([H])[H])(C([H])([H])[H])C([H])([H])[H])C([H])(C(=O)N([H])C1([H])c3c([H])c([H])c([H])c([H])c3C([H])([H])C([H])([H])C1([H])[H])C2([H])[H]

$$$$
9:0:0
     RDKit          3D

 93102  0  0  1  0  0  0  0  0999 V2000
  -28.4330  -20.8340   21.2280 C   0  0  0  0  0  2  0  0  0  0  0  0
  -29.6120  -20.8480   18.9370 C   0  0  0  0  0  2  0  0  0  0  0  0
  -29.0360  -22.2440   21.4550 C   0  0  0  0  0  2  0  0  0  0  0  0
  -30.1300  -22.2670   19.2970 C   0  0  0  0  0  2  0  0  0  0  0  0
  -29.1040  -19.9680   20.1190 C   0  0  0  0  0  3  0  0  0  0  0  0
  -29.1770  -22.9920   20.1780 N   0  0  2  0  0  4  0  0  0  0  0  0
  -28.2830  -22.9500   19.7110 H   0  0  0  0  0  0  0  0  0  0  0  0
  -29.5530  -17.9090   21.5430 C   0  0  0  0  0  2  0  0  0  0  0  0
  -30.3650  -17.8110   19.6840 C   0  0  0  0  0  2  0  0  0  0  0  0
  -30.5760  -16.9450   20.9290 C   0  0  0  0  0  3  0  0  0  0  0  0
  -30.0780  -18.9310   20.6090 N   0  0  1  0  0  4  0  0  0  0  0  0
  -30.9370  -19.3230   20.9660 H   0  0  0  0  0  0  0  0  0  0  0  0
  -30.7990  -14.5490   20.1570 C   0  0  0  0  0  0  0  0  0  0  0  0
  -30.4410  -12.3960   18.9970 C   0  0  0  0  0  2  0  0  0  0  0  0
  -29.4400  -12.5980   17.8400 C   0  0  0  0  0  2  0  0  0  0  0  0
  -27.9890  -12.4590   18.3400 C   0  0  0  0  0  2  0  0  0  0  0  0
  -27.7160  -13.3030   19.6130 C   0  0  0  0  0  3  0  0  0  0  0  0
  -28.8200  -13.0710   20.6710 C   0  0  0  0  0  2  0  0  0  0  0  0
  -30.1200  -13.3750   20.0470 N   0  0  0  0  0  0  0  0  0  0  0  0
  -31.8710  -14.7620   19.5820 O   0  0  0  0  0  0  0  0  0  0  0  0
  -30.1640  -15.5290   20.8320 N   0  0  0  0  0  0  0  0  0  0  0  0
  -29.3120  -15.2560   21.3000 H   0  0  0  0  0  0  0  0  0  0  0  0
  -25.3720  -13.9400   20.4630 C   0  0  0  0  0  0  0  0  0  0  0  0
  -24.3070  -13.1800   20.8670 C   0  0  0  0  0  0  0  0  0  0  0  0
  -24.7360  -11.8200   20.7710 C   0  0  0  0  0  0  0  0  0  0  0  0
  -26.3830  -13.0440   20.1520 N   0  0  0  0  0  0  0  0  0  0  0  0
  -26.0060  -11.7630   20.3940 N   0  0  0  0  0  0  0  0  0  0  0  0
  -23.9930  -10.5680   20.9620 C   0  0  0  0  0  0  0  0  0  0  0  0
  -24.4230   -9.5870   21.8850 C   0  0  0  0  0  3  0  0  0  0  0  0
  -23.6820   -8.4000   22.0650 C   0  0  0  0  0  3  0  0  0  0  0  0
  -22.4980   -8.1820   21.3210 C   0  0  0  0  0  0  0  0  0  0  0  0
  -22.0870   -9.1500   20.3890 C   0  0  0  0  0  3  0  0  0  0  0  0
  -22.8280  -10.3310   20.2070 C   0  0  0  0  0  3  0  0  0  0  0  0
  -21.7280   -7.0480   21.4110 O   0  0  0  0  0  0  0  0  0  0  0  0
  -21.6430   -6.3260   22.5740 C   0  0  0  0  0  0  0  0  0  0  0  0
  -21.1530   -6.8960   23.7700 C   0  0  0  0  0  3  0  0  0  0  0  0
  -21.0160   -6.1000   24.9240 C   0  0  0  0  0  3  0  0  0  0  0  0
  -21.3590   -4.7350   24.8850 C   0  0  0  0  0  0  0  0  0  0  0  0
  -21.8430   -4.1660   23.6940 C   0  0  0  0  0  3  0  0  0  0  0  0
  -21.9810   -4.9590   22.5410 C   0  0  0  0  0  0  0  0  0  0  0  0
  -22.4270   -4.4000   21.3910 F   0  0  0  0  0  0  0  0  0  0  0  0
  -21.2210   -3.9680   25.9920 F   0  0  0  0  0  0  0  0  0  0  0  0
  -22.9380  -13.6760   21.2300 C   0  0  0  0  0  0  0  0  0  0  0  0
  -22.2440  -12.9680   22.1140 N   0  0  0  0  0  0  0  0  0  0  0  0
  -22.4940  -14.7250   20.7660 O   0  0  0  0  0  0  0  0  0  0  0  0
  -22.6170  -12.1170   22.5090 H   0  0  0  0  0  0  0  0  0  0  0  0
  -21.3270  -13.2800   22.4020 H   0  0  0  0  0  0  0  0  0  0  0  0
  -25.5570  -15.3110   20.3130 N   0  0  0  0  0  0  0  0  0  0  0  0
  -24.8040  -15.9740   20.4590 H   0  0  0  0  0  0  0  0  0  0  0  0
  -26.3840  -15.7320   19.9100 H   0  0  0  0  0  0  0  0  0  0  0  0
  -29.4530  -24.4610   20.3400 C   0  0  0  0  0  2  0  0  0  0  0  0
  -28.2210  -25.3210   19.9530 C   0  0  0  0  0  2  0  0  0  0  0  0
  -28.3540  -26.7420   20.1870 O   0  0  0  0  0  0  0  0  0  0  0  0
  -24.5650  -31.9630   23.2480 C   0  0  0  0  0  0  0  0  0  0  0  0
  -27.1870  -27.4930   20.1540 C   0  0  0  0  0  0  0  0  0  0  0  0
  -23.3490  -30.5560   21.6190 C   0  0  0  0  0  3  0  0  0  0  0  0
  -24.7930  -29.0210   20.1810 C   0  0  0  0  0  0  0  0  0  0  0  0
  -25.8770  -30.9060   21.4090 C   0  0  0  0  0  2  0  0  0  0  0  0
  -25.9570  -29.5360   20.7630 C   0  0  0  0  0  0  0  0  0  0  0  0
  -27.1550  -28.7810   20.7460 C   0  0  0  0  0  3  0  0  0  0  0  0
  -25.9990  -27.0080   19.5510 C   0  0  0  0  0  3  0  0  0  0  0  0
  -24.8110  -27.7590   19.5680 C   0  0  0  0  0  3  0  0  0  0  0  0
  -23.5500  -29.8800   20.2370 C   0  0  0  0  0  2  0  0  0  0  0  0
  -24.6150  -31.1570   22.1490 N   0  0  0  0  0  0  0  0  0  0  0  0
  -23.4870  -32.2400   23.7910 O   0  0  0  0  0  0  0  0  0  0  0  0
  -22.7040  -29.5350   22.5860 C   0  0  0  0  0  0  0  0  0  0  0  0
  -21.3860  -29.3200   22.4410 N   0  0  0  0  0  0  0  0  0  0  0  0
  -23.3880  -28.9390   23.4220 O   0  0  0  0  0  0  0  0  0  0  0  0
  -20.8990  -29.8540   21.7350 H   0  0  0  0  0  0  0  0  0  0  0  0
  -18.0310  -28.0490   22.8930 C   0  0  0  0  0  0  0  0  0  0  0  0
  -20.5750  -28.3770   23.2110 C   0  0  0  0  0  3  0  0  0  0  0  0
  -20.7260  -26.9390   22.6650 C   0  0  0  0  0  2  0  0  0  0  0  0
  -19.6520  -26.5690   21.6360 C   0  0  0  0  0  2  0  0  0  0  0  0
  -18.2540  -26.6910   22.2480 C   0  0  0  0  0  2  0  0  0  0  0  0
  -19.1220  -28.8470   23.3290 C   0  0  0  0  0  0  0  0  0  0  0  0
  -18.8620  -30.1160   23.8890 C   0  0  0  0  0  3  0  0  0  0  0  0
  -17.5410  -30.5880   24.0200 C   0  0  0  0  0  3  0  0  0  0  0  0
  -16.4650  -29.7870   23.6010 C   0  0  0  0  0  3  0  0  0  0  0  0
  -16.7100  -28.5200   23.0440 C   0  0  0  0  0  3  0  0  0  0  0  0
  -25.8550  -32.5950   23.8570 C   0  0  0  0  0  3  0  0  0  0  0  0
  -26.3750  -31.8350   25.1390 C   0  0  1  0  0  0  0  0  0  0  0  0
  -25.2820  -31.5970   26.2070 C   0  0  0  0  0  1  0  0  0  0  0  0
  -26.9690  -30.4590   24.7560 C   0  0  0  0  0  1  0  0  0  0  0  0
  -27.5220  -32.6400   25.7940 C   0  0  0  0  0  1  0  0  0  0  0  0
  -25.5560  -33.9990   24.1700 N   0  0  0  0  0  0  0  0  0  0  0  0
  -25.8790  -35.0370   23.3900 C   0  0  0  0  0  0  0  0  0  0  0  0
  -26.5360  -34.9150   22.3520 O   0  0  0  0  0  0  0  0  0  0  0  0
  -24.9800  -34.1690   24.9830 H   0  0  0  0  0  0  0  0  0  0  0  0
  -24.1510  -36.8270   23.0200 C   0  0  0  0  0  1  0  0  0  0  0  0
  -25.3970  -36.4330   23.8300 C   0  0  0  0  0  3  0  0  0  0  0  0
  -27.5350  -37.3270   24.6370 C   0  0  0  0  0  1  0  0  0  0  0  0
  -26.4310  -37.4820   23.6950 N   0  0  0  0  0  0  0  0  0  0  0  0
  -26.0260  -38.4060   23.8260 H   0  0  0  0  0  0  0  0  0  0  0  0
  1  3  1  0
  2  4  1  0
  4  6  1  0
  5  2  1  0
  5 11  1  0
  5  1  1  0
  6 51  1  0
  6  3  1  0
  6  7  1  6
  9 11  1  0
  9 10  1  0
 10 21  1  0
 10  8  1  0
 11 12  1  1
 11  8  1  0
 13 21  1  0
 14 19  1  0
 15 16  1  0
 15 14  1  0
 17 16  1  0
 17 26  1  0
 17 18  1  0
 19 13  1  0
 19 18  1  0
 20 13  2  0
 21 22  1  0
 23 24  2  0
 24 43  1  0
 25 24  1  0
 25 28  1  0
 26 27  1  0
 26 23  1  0
 27 25  2  0
 28 29  1  0
 29 30  2  0
 31 34  1  0
 31 30  1  0
 32 31  2  0
 33 32  1  0
 33 28  2  0
 34 35  1  0
 35 36  1  0
 36 37  2  0
 38 37  1  0
 38 42  1  0
 39 38  2  0
 40 35  2  0
 40 39  1  0
 41 40  1  0
 43 44  1  0
 44 47  1  0
 44 46  1  0
 45 43  2  0
 48 49  1  0
 48 23  1  0
 50 48  1  0
 52 53  1  0
 52 51  1  0
 54 65  2  0
 55 53  1  0
 55 60  1  0
 56 64  1  0
 56 66  1  0
 57 63  1  0
 57 59  1  0
 58 64  1  0
 59 58  1  0
 60 59  2  0
 61 62  1  0
 61 55  2  0
 62 57  2  0
 63 56  1  0
 64 54  1  0
 66 68  2  0
 67 66  1  0
 69 67  1  0
 70 79  2  0
 70 75  1  0
 71 67  1  0
 71 75  1  0
 72 71  1  0
 73 74  1  0
 73 72  1  0
 74 70  1  0
 75 76  2  0
 76 77  1  0
 78 77  2  0
 79 78  1  0
 80 54  1  0
 80 85  1  0
 80 81  1  0
 81 84  1  1
 81 82  1  0
 83 81  1  0
 85 88  1  0
 86 90  1  0
 86 85  1  0
 87 86  2  0
 90 89  1  0
 92 93  1  0
 92 90  1  0
 92 91  1  0
M  ISO  4  13 100  21 100  52 101  53 101
M  END
>  <TORSDO>  (10) 
F 19

>  <SCORE>  (10) 
-13.852

>  <name>  (10) 
9

>  <ligand_id>  (10) 
9

>  <original_smiles>  (10) 
[H]c1c([H])c([H])c2c(c1[H])C([H])([H])C([H])([H])C([H])([H])C2([H])N([H])C(=O)C1([H])N(C(=O)C([H])(N([H])C(=O)C([H])(N([H])C([H])([H])[H])C([H])([H])[H])C(C([H])([H])[H])(C([H])([H])[H])C([H])([H])[H])C([H])([H])c2c([H])c(OC([H])([H])C([H])([H])[N+]3([H])C([H])([H])C([H])([H])C([H])([N+]4([H])C([H])([H])C([H])(N([H])C(=O)N5C([H])([H])C([H])([H])C([H])([H])C([H])(n6nc(-c7c([H])c([H])c(Oc8c([H])c([H])c(F)c([H])c8F)c([H])c7[H])c(C(=O)N([H])[H])c6N([H])[H])C5([H])[H])C4([H])[H])C([H])([H])C3([H])[H])c([H])c([H])c2C1([H])[H]

>  <smiles>  (10) 
[H]c1c([H])c([H])c2c(c1[H])C([H])([H])C([H])([H])C([H])([H])C2([H])N([H])C(=O)C1([H])N(C(=O)C([H])(N([H])C(=O)C([H])(N([H])C([H])([H])[H])C([H])([H])[H])C(C([H])([H])[H])(C([H])([H])[H])C([H])([H])[H])C([H])([H])c2c([H])c(OC([H])([H])C([H])([H])[N+]3([H])C([H])([H])C([H])([H])C([H])([N+]4([H])C([H])([H])C([H])(N([H])C(=O)N5C([H])([H])C([H])([H])C([H])([H])C([H])(n6nc(-c7c([H])c([H])c(Oc8c([H])c([H])c(F)c([H])c8F)c([H])c7[H])c(C(=O)N([H])[H])c6N([H])[H])C5([H])[H])C4([H])[H])C([H])([H])C3([H])[H])c([H])c([H])c2C1([H])[H]

$$$$
10:0:0
     RDKit          3D

 96106  0  0  1  0  0  0  0  0999 V2000
  -29.3000  -22.4160   21.7930 C   0  0  0  0  0  3  0  0  0  0  0  0
  -29.9630  -23.5490   21.2650 C   0  0  0  0  0  0  0  0  0  0  0  0
  -31.0760  -23.3470   20.4670 C   0  0  0  0  0  0  0  0  0  0  0  0
  -29.8220  -21.1510   21.4060 C   0  0  0  0  0  0  0  0  0  0  0  0
  -30.7530  -25.5950   20.4060 C   0  0  0  0  0  2  0  0  0  0  0  0
  -29.6610  -25.0260   21.3700 C   0  0  0  0  0  3  0  0  0  0  0  0
  -31.5370  -22.1330   20.1100 N   0  0  0  0  0  0  0  0  0  0  0  0
  -30.9040  -21.0460   20.5810 N   0  0  0  0  0  0  0  0  0  0  0  0
  -31.6770  -24.5210   20.0330 N   0  0  0  0  0  0  0  0  0  0  0  0
  -29.2250  -19.9550   21.8530 N   0  0  0  0  0  0  0  0  0  0  0  0
  -32.0470  -24.5080   19.0880 H   0  0  0  0  0  0  0  0  0  0  0  0
  -28.3250  -20.0380   22.3100 H   0  0  0  0  0  0  0  0  0  0  0  0
  -30.7390  -14.5380   20.5800 C   0  0  0  0  0  0  0  0  0  0  0  0
  -30.4260  -12.3520   19.4540 C   0  0  0  0  0  2  0  0  0  0  0  0
  -29.5150  -12.5110   18.2230 C   0  0  0  0  0  2  0  0  0  0  0  0
  -28.0350  -12.3560   18.6190 C   0  0  0  0  0  2  0  0  0  0  0  0
  -27.6620  -13.2010   19.8680 C   0  0  0  0  0  3  0  0  0  0  0  0
  -28.7080  -13.0300   21.0010 C   0  0  0  0  0  2  0  0  0  0  0  0
  -30.0240  -13.3750   20.4460 N   0  0  0  0  0  0  0  0  0  0  0  0
  -31.8830  -14.5930   20.1050 O   0  0  0  0  0  0  0  0  0  0  0  0
  -28.5070  -17.6040   21.4590 C   0  0  0  0  0  2  0  0  0  0  0  0
  -30.7750  -18.0160   22.2150 C   0  0  0  0  0  2  0  0  0  0  0  0
  -28.8880  -16.2090   20.8960 C   0  0  0  0  0  2  0  0  0  0  0  0
  -31.2550  -16.6530   21.6600 C   0  0  0  0  0  2  0  0  0  0  0  0
  -29.6440  -18.6230   21.3780 C   0  0  0  0  0  3  0  0  0  0  0  0
  -30.2330  -15.6510   21.2250 N   0  0  0  0  0  0  0  0  0  0  0  0
  -25.2640  -13.8150   20.5610 C   0  0  0  0  0  0  0  0  0  0  0  0
  -24.1880  -13.0460   20.9130 C   0  0  0  0  0  0  0  0  0  0  0  0
  -24.6410  -11.6910   20.8690 C   0  0  0  0  0  0  0  0  0  0  0  0
  -26.3050  -12.9280   20.3310 N   0  0  0  0  0  0  0  0  0  0  0  0
  -25.9340  -11.6450   20.5720 N   0  0  0  0  0  0  0  0  0  0  0  0
  -23.9060  -10.4330   21.0380 C   0  0  0  0  0  0  0  0  0  0  0  0
  -24.3630   -9.4270   21.9160 C   0  0  0  0  0  3  0  0  0  0  0  0
  -23.6330   -8.2310   22.0740 C   0  0  0  0  0  3  0  0  0  0  0  0
  -22.4310   -8.0340   21.3550 C   0  0  0  0  0  0  0  0  0  0  0  0
  -21.9920   -9.0280   20.4650 C   0  0  0  0  0  3  0  0  0  0  0  0
  -22.7220  -10.2170   20.3050 C   0  0  0  0  0  3  0  0  0  0  0  0
  -21.6700   -6.8920   21.4250 O   0  0  0  0  0  0  0  0  0  0  0  0
  -21.6910   -6.0760   22.5270 C   0  0  0  0  0  0  0  0  0  0  0  0
  -21.4040   -6.5640   23.8200 C   0  0  0  0  0  3  0  0  0  0  0  0
  -21.3640   -5.6770   24.9150 C   0  0  0  0  0  3  0  0  0  0  0  0
  -21.6040   -4.3040   24.7180 C   0  0  0  0  0  0  0  0  0  0  0  0
  -21.8850   -3.8160   23.4310 C   0  0  0  0  0  3  0  0  0  0  0  0
  -21.9220   -4.6990   22.3380 C   0  0  0  0  0  0  0  0  0  0  0  0
  -22.1700   -4.2180   21.0960 F   0  0  0  0  0  0  0  0  0  0  0  0
  -21.5600   -3.4510   25.7700 F   0  0  0  0  0  0  0  0  0  0  0  0
  -22.7910  -13.5310   21.1760 C   0  0  0  0  0  0  0  0  0  0  0  0
  -22.0520  -12.8370   22.0330 N   0  0  0  0  0  0  0  0  0  0  0  0
  -22.3640  -14.5590   20.6560 O   0  0  0  0  0  0  0  0  0  0  0  0
  -22.4080  -12.0050   22.4780 H   0  0  0  0  0  0  0  0  0  0  0  0
  -21.1150  -13.1490   22.2440 H   0  0  0  0  0  0  0  0  0  0  0  0
  -25.4380  -15.1860   20.3980 N   0  0  0  0  0  0  0  0  0  0  0  0
  -24.6770  -15.8460   20.5170 H   0  0  0  0  0  0  0  0  0  0  0  0
  -26.2850  -15.6240   20.0630 H   0  0  0  0  0  0  0  0  0  0  0  0
  -28.2190  -25.4460   20.9640 C   0  0  0  0  0  2  0  0  0  0  0  0
  -28.3380  -26.7030   20.2710 O   0  0  0  0  0  0  0  0  0  0  0  0
  -24.6070  -31.8750   23.2150 C   0  0  0  0  0  0  0  0  0  0  0  0
  -27.2010  -27.4480   20.1730 C   0  0  0  0  0  0  0  0  0  0  0  0
  -23.3930  -30.4970   21.5530 C   0  0  0  0  0  3  0  0  0  0  0  0
  -24.8380  -28.9690   20.1130 C   0  0  0  0  0  0  0  0  0  0  0  0
  -25.9160  -30.8540   21.3620 C   0  0  0  0  0  2  0  0  0  0  0  0
  -25.9940  -29.4910   20.7120 C   0  0  0  0  0  0  0  0  0  0  0  0
  -27.1840  -28.7420   20.7280 C   0  0  0  0  0  3  0  0  0  0  0  0
  -26.0520  -26.9390   19.5390 C   0  0  0  0  0  3  0  0  0  0  0  0
  -24.8660  -27.6970   19.5100 C   0  0  0  0  0  3  0  0  0  0  0  0
  -23.5980  -29.8330   20.1640 C   0  0  0  0  0  2  0  0  0  0  0  0
  -24.6570  -31.0900   22.1010 N   0  0  0  0  0  0  0  0  0  0  0  0
  -23.5280  -32.1480   23.7550 O   0  0  0  0  0  0  0  0  0  0  0  0
  -22.7380  -29.4680   22.5010 C   0  0  0  0  0  0  0  0  0  0  0  0
  -21.4120  -29.2990   22.3750 N   0  0  0  0  0  0  0  0  0  0  0  0
  -23.4170  -28.8230   23.3050 O   0  0  0  0  0  0  0  0  0  0  0  0
  -20.9240  -29.8740   21.7020 H   0  0  0  0  0  0  0  0  0  0  0  0
  -18.0280  -28.1310   22.8490 C   0  0  0  0  0  0  0  0  0  0  0  0
  -20.5840  -28.3600   23.1340 C   0  0  0  0  0  3  0  0  0  0  0  0
  -20.6750  -26.9340   22.5450 C   0  0  0  0  0  2  0  0  0  0  0  0
  -19.5760  -26.6330   21.5210 C   0  0  0  0  0  2  0  0  0  0  0  0
  -18.1920  -26.7880   22.1580 C   0  0  0  0  0  2  0  0  0  0  0  0
  -19.1510  -28.8780   23.2910 C   0  0  0  0  0  0  0  0  0  0  0  0
  -18.9440  -30.1400   23.8910 C   0  0  0  0  0  3  0  0  0  0  0  0
  -17.6440  -30.6530   24.0530 C   0  0  0  0  0  3  0  0  0  0  0  0
  -16.5330  -29.9030   23.6280 C   0  0  0  0  0  3  0  0  0  0  0  0
  -16.7280  -28.6420   23.0350 C   0  0  0  0  0  3  0  0  0  0  0  0
  -25.8970  -32.4870   23.8450 C   0  0  0  0  0  3  0  0  0  0  0  0
  -25.5860  -33.8670   24.2370 N   0  0  0  0  0  0  0  0  0  0  0  0
  -25.9010  -34.9520   23.5150 C   0  0  0  0  0  0  0  0  0  0  0  0
  -26.5580  -34.8950   22.4720 O   0  0  0  0  0  0  0  0  0  0  0  0
  -25.0010  -33.9850   25.0510 H   0  0  0  0  0  0  0  0  0  0  0  0
  -24.1450  -36.7340   23.2630 C   0  0  0  0  0  1  0  0  0  0  0  0
  -25.4080  -36.3160   24.0340 C   0  0  0  0  0  3  0  0  0  0  0  0
  -27.5590  -37.1820   24.8440 C   0  0  0  0  0  1  0  0  0  0  0  0
  -26.4280  -37.3850   23.9420 N   0  0  0  0  0  0  0  0  0  0  0  0
  -26.0190  -38.2930   24.1460 H   0  0  0  0  0  0  0  0  0  0  0  0
  -26.4410  -31.6630   25.0770 C   0  0  1  0  0  0  0  0  0  0  0  0
  -25.3710  -31.3760   26.1540 C   0  0  0  0  0  1  0  0  0  0  0  0
  -27.0230  -30.3080   24.6110 C   0  0  0  0  0  1  0  0  0  0  0  0
  -27.6010  -32.4350   25.7520 C   0  0  0  0  0  1  0  0  0  0  0  0
  2  6  1  0
  2  1  2  0
  3  2  1  0
  4  1  1  0
  4 10  1  0
  5  6  1  0
  6 55  1  0
  7  3  2  0
  7  8  1  0
  8  4  2  0
  9  5  1  0
  9  3  1  0
 10 12  1  0
 11  9  1  0
 13 26  1  0
 14 19  1  0
 15 16  1  0
 15 14  1  0
 17 16  1  0
 17 30  1  0
 17 18  1  0
 19 13  1  0
 19 18  1  0
 20 13  2  0
 23 26  1  0
 23 21  1  0
 24 22  1  0
 25 21  1  0
 25 10  1  0
 25 22  1  0
 26 24  1  0
 27 28  2  0
 28 47  1  0
 29 28  1  0
 29 32  1  0
 30 27  1  0
 30 31  1  0
 31 29  2  0
 32 33  1  0
 33 34  2  0
 35 38  1  0
 35 34  1  0
 36 35  2  0
 37 36  1  0
 37 32  2  0
 38 39  1  0
 39 40  1  0
 40 41  2  0
 42 41  1  0
 42 46  1  0
 43 42  2  0
 44 39  2  0
 44 43  1  0
 45 44  1  0
 47 48  1  0
 48 51  1  0
 48 50  1  0
 49 47  2  0
 52 53  1  0
 52 27  1  0
 54 52  1  0
 56 55  1  0
 57 68  2  0
 58 56  1  0
 58 63  1  0
 59 67  1  0
 59 69  1  0
 60 66  1  0
 60 62  1  0
 61 67  1  0
 62 63  2  0
 62 61  1  0
 64 58  2  0
 65 64  1  0
 65 60  2  0
 66 59  1  0
 67 57  1  0
 69 71  2  0
 70 69  1  0
 72 70  1  0
 73 82  2  0
 73 78  1  0
 74 70  1  0
 74 78  1  0
 75 74  1  0
 76 77  1  0
 76 75  1  0
 77 73  1  0
 78 79  2  0
 79 80  1  0
 81 80  2  0
 82 81  1  0
 83 57  1  0
 83 84  1  0
 83 93  1  0
 84 87  1  0
 85 89  1  0
 85 84  1  0
 86 85  2  0
 89 88  1  0
 91 89  1  0
 91 92  1  0
 91 90  1  0
 93 96  1  1
 93 94  1  0
 95 93  1  0
M  ISO  4  13 100  26 100  55 101  56 101
M  END
>  <TORSDO>  (11) 
F 17

>  <SCORE>  (11) 
-13.383

>  <name>  (11) 
10

>  <ligand_id>  (11) 
10

>  <original_smiles>  (11) 
[H]c1c([H])c([H])c2c(c1[H])C([H])([H])C([H])([H])C([H])([H])C2([H])N([H])C(=O)C1([H])N(C(=O)C([H])(N([H])C(=O)C([H])(N([H])C([H])([H])[H])C([H])([H])[H])C(C([H])([H])[H])(C([H])([H])[H])C([H])([H])[H])C([H])([H])c2c([H])c(OC([H])([H])C3([H])c4c(nnc(N([H])C5([H])C([H])([H])C([H])([H])N(C(=O)N6C([H])([H])C([H])([H])C([H])([H])C([H])(n7nc(-c8c([H])c([H])c(Oc9c([H])c([H])c(F)c([H])c9F)c([H])c8[H])c(C(=O)N([H])[H])c7N([H])[H])C6([H])[H])C([H])([H])C5([H])[H])c4[H])N([H])C3([H])[H])c([H])c([H])c2C1([H])[H]

>  <smiles>  (11) 
[H]c1c([H])c([H])c2c(c1[H])C([H])([H])C([H])([H])C([H])([H])C2([H])N([H])C(=O)C1([H])N(C(=O)C([H])(N([H])C(=O)C([H])(N([H])C([H])([H])[H])C([H])([H])[H])C(C([H])([H])[H])(C([H])([H])[H])C([H])([H])[H])C([H])([H])c2c([H])c(OC([H])([H])C3([H])c4c(nnc(N([H])C5([H])C([H])([H])C([H])([H])N(C(=O)N6C([H])([H])C([H])([H])C([H])([H])C([H])(n7nc(-c8c([H])c([H])c(Oc9c([H])c([H])c(F)c([H])c9F)c([H])c8[H])c(C(=O)N([H])[H])c7N([H])[H])C6([H])[H])C([H])([H])C5([H])[H])c4[H])N([H])C3([H])[H])c([H])c([H])c2C1([H])[H]

$$$$
11:0:0
     RDKit          3D

 91100  0  0  1  0  0  0  0  0999 V2000
  -31.2790  -20.1840   19.1480 C   0  0  0  0  0  2  0  0  0  0  0  0
  -30.6940  -19.1740   19.9760 C   0  0  0  0  0  0  0  0  0  0  0  0
  -29.0870  -20.7750   20.5550 C   0  0  0  0  0  3  0  0  0  0  0  0
  -29.6660  -21.7740   19.7020 C   0  0  0  0  0  0  0  0  0  0  0  0
  -30.7880  -21.4570   19.0050 N   0  0  0  0  0  0  0  0  0  0  0  0
  -29.5860  -19.4990   20.6960 N   0  0  0  0  0  0  0  0  0  0  0  0
  -31.4510  -15.3050   20.7480 C   0  0  0  0  0  0  0  0  0  0  0  0
  -31.3330  -12.9030   20.1530 C   0  0  0  0  0  2  0  0  0  0  0  0
  -30.5800  -12.7700   18.8120 C   0  0  0  0  0  2  0  0  0  0  0  0
  -29.0650  -12.6560   19.0590 C   0  0  0  0  0  2  0  0  0  0  0  0
  -28.5320  -13.7300   20.0460 C   0  0  0  0  0  3  0  0  0  0  0  0
  -29.4290  -13.8680   21.2960 C   0  0  0  0  0  2  0  0  0  0  0  0
  -30.8000  -14.0990   20.8350 N   0  0  0  0  0  0  0  0  0  0  0  0
  -32.6790  -15.3370   20.6320 O   0  0  0  0  0  0  0  0  0  0  0  0
  -30.6440  -16.7970   19.0210 C   0  0  0  0  0  2  0  0  0  0  0  0
  -31.2960  -17.7280   19.9870 C   0  0  0  0  0  3  0  0  0  0  0  0
  -30.7110  -16.4160   20.4000 N   0  0  0  0  0  0  0  0  0  0  0  0
  -26.1060  -14.4120   20.5290 C   0  0  0  0  0  0  0  0  0  0  0  0
  -24.9800  -13.6780   20.7860 C   0  0  0  0  0  0  0  0  0  0  0  0
  -25.3930  -12.3100   20.8020 C   0  0  0  0  0  0  0  0  0  0  0  0
  -27.1350  -13.4930   20.4000 N   0  0  0  0  0  0  0  0  0  0  0  0
  -26.7060  -12.2240   20.6270 N   0  0  0  0  0  0  0  0  0  0  0  0
  -24.6040  -11.0770   20.9170 C   0  0  0  0  0  0  0  0  0  0  0  0
  -24.9060  -10.0930   21.8840 C   0  0  0  0  0  3  0  0  0  0  0  0
  -24.1220   -8.9250   21.9870 C   0  0  0  0  0  3  0  0  0  0  0  0
  -23.0200   -8.7310   21.1210 C   0  0  0  0  0  0  0  0  0  0  0  0
  -22.7380   -9.7020   20.1430 C   0  0  0  0  0  3  0  0  0  0  0  0
  -23.5230  -10.8610   20.0390 C   0  0  0  0  0  3  0  0  0  0  0  0
  -22.2170   -7.6160   21.1310 O   0  0  0  0  0  0  0  0  0  0  0  0
  -22.0220   -6.8810   22.2710 C   0  0  0  0  0  0  0  0  0  0  0  0
  -21.4640   -7.4490   23.4380 C   0  0  0  0  0  3  0  0  0  0  0  0
  -21.2140   -6.6400   24.5650 C   0  0  0  0  0  3  0  0  0  0  0  0
  -21.5120   -5.2650   24.5260 C   0  0  0  0  0  0  0  0  0  0  0  0
  -22.0620   -4.6970   23.3630 C   0  0  0  0  0  3  0  0  0  0  0  0
  -22.3130   -5.5030   22.2390 C   0  0  0  0  0  0  0  0  0  0  0  0
  -22.8230   -4.9450   21.1130 F   0  0  0  0  0  0  0  0  0  0  0  0
  -21.2660   -4.4870   25.6050 F   0  0  0  0  0  0  0  0  0  0  0  0
  -23.5810  -14.2080   20.9130 C   0  0  0  0  0  0  0  0  0  0  0  0
  -22.7430  -13.5440   21.6990 N   0  0  0  0  0  0  0  0  0  0  0  0
  -23.2380  -15.2470   20.3500 O   0  0  0  0  0  0  0  0  0  0  0  0
  -23.0300  -12.7030   22.1780 H   0  0  0  0  0  0  0  0  0  0  0  0
  -21.7990  -13.8810   21.8240 H   0  0  0  0  0  0  0  0  0  0  0  0
  -26.3400  -15.7740   20.3720 N   0  0  0  0  0  0  0  0  0  0  0  0
  -25.5980  -16.4640   20.4280 H   0  0  0  0  0  0  0  0  0  0  0  0
  -27.2490  -16.1840   20.1920 H   0  0  0  0  0  0  0  0  0  0  0  0
  -28.1790  -22.0100   22.5740 C   0  0  0  0  0  1  0  0  0  0  0  0
  -27.8580  -21.0850   21.3920 C   0  0  0  0  0  2  0  0  0  0  0  0
  -29.0760  -23.0510   19.5540 O   0  0  0  0  0  0  0  0  0  0  0  0
  -29.6290  -24.1710   18.7740 C   0  0  0  0  0  2  0  0  0  0  0  0
  -28.5350  -25.2840   18.4330 C   0  0  0  0  0  2  0  0  0  0  0  0
  -28.7390  -26.7500   18.6110 O   0  0  0  0  0  0  0  0  0  0  0  0
  -24.8320  -31.0990   22.8650 C   0  0  0  0  0  0  0  0  0  0  0  0
  -27.5810  -27.5360   18.7770 C   0  0  0  0  0  0  0  0  0  0  0  0
  -23.6470  -30.0210   20.9900 C   0  0  0  0  0  3  0  0  0  0  0  0
  -25.1240  -28.9470   19.2050 C   0  0  0  0  0  0  0  0  0  0  0  0
  -26.1500  -30.5550   20.8050 C   0  0  0  0  0  2  0  0  0  0  0  0
  -26.2890  -29.3670   19.8590 C   0  0  0  0  0  0  0  0  0  0  0  0
  -27.5200  -28.6780   19.6380 C   0  0  0  0  0  3  0  0  0  0  0  0
  -26.3840  -27.1840   18.1050 C   0  0  0  0  0  3  0  0  0  0  0  0
  -25.1740  -27.8640   18.3200 C   0  0  0  0  0  3  0  0  0  0  0  0
  -23.8380  -29.6970   19.4870 C   0  0  0  0  0  2  0  0  0  0  0  0
  -24.8970  -30.5640   21.6120 N   0  0  0  0  0  0  0  0  0  0  0  0
  -23.7580  -31.1690   23.4810 O   0  0  0  0  0  0  0  0  0  0  0  0
  -23.0980  -28.7660   21.7110 C   0  0  0  0  0  0  0  0  0  0  0  0
  -21.7840  -28.5140   21.5760 N   0  0  0  0  0  0  0  0  0  0  0  0
  -23.8510  -28.0310   22.3560 O   0  0  0  0  0  0  0  0  0  0  0  0
  -21.2300  -29.1690   21.0400 H   0  0  0  0  0  0  0  0  0  0  0  0
  -18.5250  -26.9710   21.8710 C   0  0  0  0  0  0  0  0  0  0  0  0
  -21.0670  -27.3690   22.1370 C   0  0  0  0  0  3  0  0  0  0  0  0
  -21.2500  -26.1100   21.2580 C   0  0  0  0  0  2  0  0  0  0  0  0
  -20.1380  -25.9290   20.2210 C   0  0  0  0  0  2  0  0  0  0  0  0
  -18.7740  -25.8200   20.9100 C   0  0  0  0  0  2  0  0  0  0  0  0
  -19.6010  -27.7070   22.4350 C   0  0  0  0  0  0  0  0  0  0  0  0
  -19.3140  -28.7890   23.2960 C   0  0  0  0  0  3  0  0  0  0  0  0
  -17.9830  -29.1360   23.5950 C   0  0  0  0  0  3  0  0  0  0  0  0
  -16.9220  -28.3970   23.0450 C   0  0  0  0  0  3  0  0  0  0  0  0
  -17.1950  -27.3130   22.1900 C   0  0  0  0  0  3  0  0  0  0  0  0
  -26.0990  -31.6700   23.5740 C   0  0  0  0  0  3  0  0  0  0  0  0
  -26.6850  -30.7000   24.6710 C   0  0  1  0  0  0  0  0  0  0  0  0
  -25.6360  -30.2110   25.6950 C   0  0  0  0  0  1  0  0  0  0  0  0
  -27.3200  -29.4520   24.0150 C   0  0  0  0  0  1  0  0  0  0  0  0
  -27.8160  -31.4130   25.4490 C   0  0  0  0  0  1  0  0  0  0  0  0
  -25.7300  -32.9620   24.1700 N   0  0  0  0  0  0  0  0  0  0  0  0
  -25.9770  -34.1560   23.6140 C   0  0  0  0  0  0  0  0  0  0  0  0
  -26.6100  -34.2860   22.5630 O   0  0  0  0  0  0  0  0  0  0  0  0
  -25.1590  -32.9280   25.0030 H   0  0  0  0  0  0  0  0  0  0  0  0
  -24.1380  -35.8730   23.6610 C   0  0  0  0  0  1  0  0  0  0  0  0
  -25.4360  -35.4040   24.3390 C   0  0  0  0  0  3  0  0  0  0  0  0
  -27.5500  -36.2560   25.2520 C   0  0  0  0  0  1  0  0  0  0  0  0
  -26.4040  -36.5220   24.3870 N   0  0  0  0  0  0  0  0  0  0  0  0
  -25.9530  -37.3730   24.7110 H   0  0  0  0  0  0  0  0  0  0  0  0
  1  2  1  0
  2  6  2  0
  3  6  1  0
  3 47  1  0
  4  3  1  0
  5  1  1  0
  5  4  2  0
  7 13  1  0
  8 13  1  0
  9 10  1  0
  9  8  1  0
 11 10  1  0
 11 21  1  0
 11 12  1  0
 13 12  1  0
 14  7  2  0
 15 16  1  0
 15 17  1  0
 16  2  1  0
 16 17  1  0
 17  7  1  0
 18 19  2  0
 19 20  1  0
 19 38  1  0
 20 23  1  0
 21 18  1  0
 21 22  1  0
 22 20  2  0
 23 24  1  0
 24 25  2  0
 26 29  1  0
 26 25  1  0
 27 26  2  0
 28 27  1  0
 28 23  2  0
 29 30  1  0
 30 31  1  0
 31 32  2  0
 33 32  1  0
 33 37  1  0
 34 33  2  0
 35 30  2  0
 35 34  1  0
 36 35  1  0
 38 39  1  0
 39 42  1  0
 39 41  1  0
 40 38  2  0
 43 44  1  0
 43 18  1  0
 45 43  1  0
 47 46  1  0
 48  4  1  0
 49 48  1  0
 50 51  1  0
 50 49  1  0
 51 53  1  0
 52 63  2  0
 53 58  1  0
 54 62  1  0
 54 64  1  0
 55 61  1  0
 55 57  1  0
 56 62  1  0
 57 56  1  0
 58 57  2  0
 59 60  1  0
 59 53  2  0
 60 55  2  0
 61 54  1  0
 62 52  1  0
 64 66  2  0
 65 64  1  0
 67 65  1  0
 68 77  2  0
 68 73  1  0
 69 65  1  0
 69 73  1  0
 70 69  1  0
 71 72  1  0
 71 70  1  0
 72 68  1  0
 73 74  2  0
 74 75  1  0
 76 75  2  0
 77 76  1  0
 78 52  1  0
 78 83  1  0
 78 79  1  0
 79 82  1  1
 79 80  1  0
 81 79  1  0
 83 86  1  0
 84 83  1  0
 84 88  1  0
 85 84  2  0
 88 87  1  0
 88 90  1  0
 90 91  1  0
 90 89  1  0
M  ISO  4   7 100  17 100  50 101  51 101
M  END
>  <TORSDO>  (12) 
F 20

>  <SCORE>  (12) 
-8.630

>  <name>  (12) 
11

>  <ligand_id>  (12) 
11

>  <original_smiles>  (12) 
[H]c1nc(OC([H])([H])C([H])([H])Oc2c([H])c([H])c3c(c2[H])C([H])([H])N(C(=O)C([H])(N([H])C(=O)C([H])(N([H])C([H])([H])[H])C([H])([H])[H])C(C([H])([H])[H])(C([H])([H])[H])C([H])([H])[H])C([H])(C(=O)N([H])C2([H])c4c([H])c([H])c([H])c([H])c4C([H])([H])C([H])([H])C2([H])[H])C3([H])[H])c(C([H])([H])C([H])([H])[H])nc1C1([H])N(C(=O)N2C([H])([H])C([H])([H])C([H])([H])C([H])(n3nc(-c4c([H])c([H])c(Oc5c([H])c([H])c(F)c([H])c5F)c([H])c4[H])c(C(=O)N([H])[H])c3N([H])[H])C2([H])[H])C1([H])[H]

>  <smiles>  (12) 
[H]c1nc(OC([H])([H])C([H])([H])Oc2c([H])c([H])c3c(c2[H])C([H])([H])N(C(=O)C([H])(N([H])C(=O)C([H])(N([H])C([H])([H])[H])C([H])([H])[H])C(C([H])([H])[H])(C([H])([H])[H])C([H])([H])[H])C([H])(C(=O)N([H])C2([H])c4c([H])c([H])c([H])c([H])c4C([H])([H])C([H])([H])C2([H])[H])C3([H])[H])c(C([H])([H])C([H])([H])[H])nc1C1([H])N(C(=O)N2C([H])([H])C([H])([H])C([H])([H])C([H])(n3nc(-c4c([H])c([H])c(Oc5c([H])c([H])c(F)c([H])c5F)c([H])c4[H])c(C(=O)N([H])[H])c3N([H])[H])C2([H])[H])C1([H])[H]

$$$$
12:0:0
     RDKit          3D

 94103  0  0  1  0  0  0  0  0999 V2000
  -28.2000  -20.0260   20.5610 C   0  0  0  0  0  3  0  0  0  0  0  0
  -30.5730  -20.5360   20.5910 C   0  0  0  0  0  3  0  0  0  0  0  0
  -28.0060  -21.3860   20.2630 C   0  0  0  0  0  0  0  0  0  0  0  0
  -29.5320  -19.5730   20.7250 C   0  0  0  0  0  3  0  0  0  0  0  0
  -29.0960  -22.2360   20.1530 C   0  0  0  0  0  0  0  0  0  0  0  0
  -28.6540  -23.5690   19.7590 C   0  0  0  0  0  0  0  0  0  0  0  0
  -29.4600  -24.6340   19.5730 C   0  0  0  0  0  2  0  0  0  0  0  0
  -26.7030  -22.0940   19.9810 C   0  0  0  0  0  3  0  0  0  0  0  0
  -27.1440  -23.5170   19.5580 C   0  0  0  0  0  3  0  0  0  0  0  0
  -30.3730  -21.8460   20.3150 N   0  0  0  0  0  0  0  0  0  0  0  0
  -29.7570  -18.2090   21.0060 N   0  0  0  0  0  0  0  0  0  0  0  0
  -28.9650  -17.5710   21.0120 H   0  0  0  0  0  0  0  0  0  0  0  0
  -31.0890  -17.6200   20.8910 C   0  0  0  0  0  2  0  0  0  0  0  0
  -31.2170  -16.3350   21.7250 C   0  0  0  0  0  2  0  0  0  0  0  0
  -30.8670  -14.4300   20.1530 C   0  0  0  0  0  0  0  0  0  0  0  0
  -30.4370  -12.3430   18.9010 C   0  0  0  0  0  2  0  0  0  0  0  0
  -29.4250  -12.5620   17.7610 C   0  0  0  0  0  2  0  0  0  0  0  0
  -27.9810  -12.4170   18.2790 C   0  0  0  0  0  2  0  0  0  0  0  0
  -27.7230  -13.2540   19.5590 C   0  0  0  0  0  3  0  0  0  0  0  0
  -28.8320  -13.0070   20.6050 C   0  0  0  0  0  2  0  0  0  0  0  0
  -30.1340  -13.3000   19.9760 N   0  0  0  0  0  0  0  0  0  0  0  0
  -31.8610  -14.7080   19.4730 O   0  0  0  0  0  0  0  0  0  0  0  0
  -30.4710  -15.2090   21.1680 N   0  0  0  0  0  0  0  0  0  0  0  0
  -29.6490  -14.9100   21.6700 H   0  0  0  0  0  0  0  0  0  0  0  0
  -25.3830  -13.8840   20.4300 C   0  0  0  0  0  0  0  0  0  0  0  0
  -24.3250  -13.1190   20.8440 C   0  0  0  0  0  0  0  0  0  0  0  0
  -24.7580  -11.7600   20.7450 C   0  0  0  0  0  0  0  0  0  0  0  0
  -26.3950  -12.9920   20.1100 N   0  0  0  0  0  0  0  0  0  0  0  0
  -26.0260  -11.7080   20.3530 N   0  0  0  0  0  0  0  0  0  0  0  0
  -24.0230  -10.5060   20.9450 C   0  0  0  0  0  0  0  0  0  0  0  0
  -24.4420   -9.5470   21.8930 C   0  0  0  0  0  3  0  0  0  0  0  0
  -23.7090   -8.3550   22.0790 C   0  0  0  0  0  3  0  0  0  0  0  0
  -22.5400   -8.1140   21.3160 C   0  0  0  0  0  0  0  0  0  0  0  0
  -22.1390   -9.0630   20.3590 C   0  0  0  0  0  3  0  0  0  0  0  0
  -22.8740  -10.2460   20.1710 C   0  0  0  0  0  3  0  0  0  0  0  0
  -21.7780   -6.9750   21.4110 O   0  0  0  0  0  0  0  0  0  0  0  0
  -21.6680   -6.2780   22.5870 C   0  0  0  0  0  0  0  0  0  0  0  0
  -21.1260   -6.8620   23.7520 C   0  0  0  0  0  3  0  0  0  0  0  0
  -20.9670   -6.0890   24.9200 C   0  0  0  0  0  3  0  0  0  0  0  0
  -21.3430   -4.7330   24.9220 C   0  0  0  0  0  0  0  0  0  0  0  0
  -21.8810   -4.1480   23.7610 C   0  0  0  0  0  3  0  0  0  0  0  0
  -22.0400   -4.9180   22.5960 C   0  0  0  0  0  0  0  0  0  0  0  0
  -22.5380   -4.3450   21.4750 F   0  0  0  0  0  0  0  0  0  0  0  0
  -21.1840   -3.9860   26.0410 F   0  0  0  0  0  0  0  0  0  0  0  0
  -22.9580  -13.6110   21.2200 C   0  0  0  0  0  0  0  0  0  0  0  0
  -22.2720  -12.8970   22.1060 N   0  0  0  0  0  0  0  0  0  0  0  0
  -22.5090  -14.6620   20.7640 O   0  0  0  0  0  0  0  0  0  0  0  0
  -22.6480  -12.0450   22.4950 H   0  0  0  0  0  0  0  0  0  0  0  0
  -21.3570  -13.2080   22.4000 H   0  0  0  0  0  0  0  0  0  0  0  0
  -25.5650  -15.2550   20.2830 N   0  0  0  0  0  0  0  0  0  0  0  0
  -24.8210  -15.9230   20.4560 H   0  0  0  0  0  0  0  0  0  0  0  0
  -26.4060  -15.6850   19.9170 H   0  0  0  0  0  0  0  0  0  0  0  0
  -29.0540  -25.9870   19.0220 C   0  0  0  0  0  2  0  0  0  0  0  0
  -28.7310  -26.9130   20.0630 O   0  0  0  0  0  0  0  0  0  0  0  0
  -24.6530  -31.7940   23.2310 C   0  0  0  0  0  0  0  0  0  0  0  0
  -27.5070  -27.5500   20.0560 C   0  0  0  0  0  0  0  0  0  0  0  0
  -23.5240  -30.4020   21.5270 C   0  0  0  0  0  3  0  0  0  0  0  0
  -25.0530  -28.9620   20.0860 C   0  0  0  0  0  0  0  0  0  0  0  0
  -26.0380  -30.8540   21.3870 C   0  0  0  0  0  2  0  0  0  0  0  0
  -26.1810  -29.5070   20.7100 C   0  0  0  0  0  0  0  0  0  0  0  0
  -27.4060  -28.8050   20.6990 C   0  0  0  0  0  3  0  0  0  0  0  0
  -26.3460  -27.0060   19.4550 C   0  0  0  0  0  3  0  0  0  0  0  0
  -25.1280  -27.7090   19.4620 C   0  0  0  0  0  3  0  0  0  0  0  0
  -23.7790  -29.7730   20.1310 C   0  0  0  0  0  2  0  0  0  0  0  0
  -24.7550  -31.0300   22.1080 N   0  0  0  0  0  0  0  0  0  0  0  0
  -23.5550  -32.0140   23.7580 O   0  0  0  0  0  0  0  0  0  0  0  0
  -22.8960  -29.3280   22.4430 C   0  0  0  0  0  0  0  0  0  0  0  0
  -21.5820  -29.0990   22.2820 N   0  0  0  0  0  0  0  0  0  0  0  0
  -23.5850  -28.7050   23.2540 O   0  0  0  0  0  0  0  0  0  0  0  0
  -21.0820  -29.6590   21.6040 H   0  0  0  0  0  0  0  0  0  0  0  0
  -18.2440  -27.7800   22.6800 C   0  0  0  0  0  0  0  0  0  0  0  0
  -20.7860  -28.1120   23.0080 C   0  0  0  0  0  3  0  0  0  0  0  0
  -20.9460  -26.7030   22.3920 C   0  0  0  0  0  2  0  0  0  0  0  0
  -19.8740  -26.3770   21.3470 C   0  0  0  0  0  2  0  0  0  0  0  0
  -18.4760  -26.4590   21.9670 C   0  0  0  0  0  2  0  0  0  0  0  0
  -19.3290  -28.5640   23.1540 C   0  0  0  0  0  0  0  0  0  0  0  0
  -19.0590  -29.8030   23.7750 C   0  0  0  0  0  3  0  0  0  0  0  0
  -17.7350  -30.2570   23.9290 C   0  0  0  0  0  3  0  0  0  0  0  0
  -16.6650  -29.4700   23.4720 C   0  0  0  0  0  3  0  0  0  0  0  0
  -16.9200  -28.2330   22.8550 C   0  0  0  0  0  3  0  0  0  0  0  0
  -25.9060  -32.4510   23.8900 C   0  0  0  0  0  3  0  0  0  0  0  0
  -26.4000  -31.6900   25.1820 C   0  0  1  0  0  0  0  0  0  0  0  0
  -25.2790  -31.4200   26.2130 C   0  0  0  0  0  1  0  0  0  0  0  0
  -27.0330  -30.3300   24.8060 C   0  0  0  0  0  1  0  0  0  0  0  0
  -27.5060  -32.5150   25.8830 C   0  0  0  0  0  1  0  0  0  0  0  0
  -25.5590  -33.8430   24.2050 N   0  0  0  0  0  0  0  0  0  0  0  0
  -25.8800  -34.8980   23.4420 C   0  0  0  0  0  0  0  0  0  0  0  0
  -26.5700  -34.8030   22.4230 O   0  0  0  0  0  0  0  0  0  0  0  0
  -24.9490  -33.9900   24.9960 H   0  0  0  0  0  0  0  0  0  0  0  0
  -24.1130  -36.6410   23.0470 C   0  0  0  0  0  1  0  0  0  0  0  0
  -25.3510  -36.2760   23.8810 C   0  0  0  0  0  3  0  0  0  0  0  0
  -27.4390  -37.2260   24.7530 C   0  0  0  0  0  1  0  0  0  0  0  0
  -26.3580  -37.3540   23.7810 N   0  0  0  0  0  0  0  0  0  0  0  0
  -25.9230  -38.2630   23.9080 H   0  0  0  0  0  0  0  0  0  0  0  0
  1  4  1  0
  2  4  1  0
  3  1  2  0
  4 11  1  0
  5  3  1  0
  5 10  1  0
  6  5  2  0
  7  6  1  0
  8  3  1  0
  9  6  1  0
  9  8  2  0
 10  2  2  0
 11 12  1  0
 13 11  1  0
 13 14  1  0
 15 23  1  0
 16 21  1  0
 17 18  1  0
 17 16  1  0
 19 18  1  0
 19 28  1  0
 19 20  1  0
 21 15  1  0
 21 20  1  0
 22 15  2  0
 23 24  1  0
 23 14  1  0
 25 26  2  0
 26 45  1  0
 27 26  1  0
 27 30  1  0
 28 29  1  0
 28 25  1  0
 29 27  2  0
 30 31  1  0
 31 32  2  0
 33 36  1  0
 33 32  1  0
 34 33  2  0
 35 34  1  0
 35 30  2  0
 36 37  1  0
 37 42  2  0
 37 38  1  0
 38 39  2  0
 39 40  1  0
 40 44  1  0
 41 40  2  0
 42 41  1  0
 43 42  1  0
 45 46  1  0
 46 49  1  0
 46 48  1  0
 47 45  2  0
 50 25  1  0
 50 51  1  0
 52 50  1  0
 53  7  1  0
 53 54  1  0
 55 66  2  0
 56 54  1  0
 56 61  1  0
 57 65  1  0
 57 67  1  0
 58 64  1  0
 58 60  1  0
 59 65  1  0
 60 59  1  0
 61 60  2  0
 62 63  1  0
 62 56  2  0
 63 58  2  0
 64 57  1  0
 65 55  1  0
 67 69  2  0
 68 67  1  0
 70 68  1  0
 71 80  2  0
 71 76  1  0
 72 68  1  0
 72 76  1  0
 73 72  1  0
 74 75  1  0
 74 73  1  0
 75 71  1  0
 76 77  2  0
 77 78  1  0
 79 78  2  0
 80 79  1  0
 81 55  1  0
 81 86  1  0
 81 82  1  0
 82 85  1  1
 82 83  1  0
 84 82  1  0
 86 89  1  0
 87 91  1  0
 87 86  1  0
 88 87  2  0
 91 90  1  0
 93 91  1  0
 93 94  1  0
 93 92  1  0
M  ISO  4  15 100  23 100  53 101  54 101
M  END
>  <TORSDO>  (13) 
F 20

>  <SCORE>  (13) 
-13.554

>  <name>  (13) 
12

>  <ligand_id>  (13) 
12

>  <original_smiles>  (13) 
[H]C(=C1c2nc([H])c(N([H])C([H])([H])C([H])([H])N([H])C(=O)N3C([H])([H])C([H])([H])C([H])([H])C([H])(n4nc(-c5c([H])c([H])c(Oc6c([H])c([H])c(F)c([H])c6F)c([H])c5[H])c(C(=O)N([H])[H])c4N([H])[H])C3([H])[H])c([H])c2C([H])([H])C1([H])[H])C([H])([H])Oc1c([H])c([H])c2c(c1[H])C([H])([H])N(C(=O)C([H])(N([H])C(=O)C([H])(N([H])C([H])([H])[H])C([H])([H])[H])C(C([H])([H])[H])(C([H])([H])[H])C([H])([H])[H])C([H])(C(=O)N([H])C1([H])c3c([H])c([H])c([H])c([H])c3C([H])([H])C([H])([H])C1([H])[H])C2([H])[H]

>  <smiles>  (13) 
[H]C(=C1c2nc([H])c(N([H])C([H])([H])C([H])([H])N([H])C(=O)N3C([H])([H])C([H])([H])C([H])([H])C([H])(n4nc(-c5c([H])c([H])c(Oc6c([H])c([H])c(F)c([H])c6F)c([H])c5[H])c(C(=O)N([H])[H])c4N([H])[H])C3([H])[H])c([H])c2C([H])([H])C1([H])[H])C([H])([H])Oc1c([H])c([H])c2c(c1[H])C([H])([H])N(C(=O)C([H])(N([H])C(=O)C([H])(N([H])C([H])([H])[H])C([H])([H])[H])C(C([H])([H])[H])(C([H])([H])[H])C([H])([H])[H])C([H])(C(=O)N([H])C1([H])c3c([H])c([H])c([H])c([H])c3C([H])([H])C([H])([H])C1([H])[H])C2([H])[H]

$$$$
13:0:0
     RDKit          3D

 91100  0  0  1  0  0  0  0  0999 V2000
  -30.1690  -20.2650   20.1450 C   0  0  0  0  0  2  0  0  0  0  0  0
  -28.2470  -19.8880   21.4820 C   0  0  0  0  0  3  0  0  0  0  0  0
  -29.3700  -19.3350   20.8470 C   0  0  0  0  0  0  0  0  0  0  0  0
  -28.7750  -21.9840   20.7460 C   0  0  0  0  0  0  0  0  0  0  0  0
  -29.8670  -21.5890   20.0950 N   0  0  0  0  0  0  0  0  0  0  0  0
  -27.9600  -21.2010   21.4340 N   0  0  0  0  0  0  0  0  0  0  0  0
  -31.0970  -14.7010   19.6130 C   0  0  0  0  0  0  0  0  0  0  0  0
  -30.6840  -12.5460   18.4590 C   0  0  0  0  0  2  0  0  0  0  0  0
  -29.6070  -12.7300   17.3710 C   0  0  0  0  0  2  0  0  0  0  0  0
  -28.1970  -12.5550   17.9680 C   0  0  0  0  0  2  0  0  0  0  0  0
  -27.9930  -13.3900   19.2590 C   0  0  0  0  0  3  0  0  0  0  0  0
  -29.1670  -13.1920   20.2420 C   0  0  0  0  0  2  0  0  0  0  0  0
  -30.4160  -13.5190   19.5320 N   0  0  0  0  0  0  0  0  0  0  0  0
  -32.1060  -14.9280   18.9360 O   0  0  0  0  0  0  0  0  0  0  0  0
  -30.6380  -17.4100   22.0430 C   0  0  0  0  0  2  0  0  0  0  0  0
  -30.8940  -15.9230   21.7400 C   0  0  0  0  0  2  0  0  0  0  0  0
  -30.1030  -16.9910   19.7620 C   0  0  0  0  0  2  0  0  0  0  0  0
  -29.6320  -17.8190   20.9740 C   0  0  0  0  0  3  0  0  0  0  0  0
  -30.5100  -15.6910   20.3380 N   0  0  0  0  0  0  0  0  0  0  0  0
  -25.7090  -13.9700   20.2960 C   0  0  0  0  0  0  0  0  0  0  0  0
  -24.6850  -13.1840   20.7490 C   0  0  0  0  0  0  0  0  0  0  0  0
  -25.1190  -11.8330   20.5820 C   0  0  0  0  0  0  0  0  0  0  0  0
  -26.7060  -13.0970   19.8870 N   0  0  0  0  0  0  0  0  0  0  0  0
  -26.3610  -11.8030   20.1140 N   0  0  0  0  0  0  0  0  0  0  0  0
  -24.4060  -10.5670   20.7860 C   0  0  0  0  0  0  0  0  0  0  0  0
  -24.8450   -9.6150   21.7330 C   0  0  0  0  0  3  0  0  0  0  0  0
  -24.1300   -8.4140   21.9250 C   0  0  0  0  0  3  0  0  0  0  0  0
  -22.9610   -8.1550   21.1700 C   0  0  0  0  0  0  0  0  0  0  0  0
  -22.5410   -9.0950   20.2130 C   0  0  0  0  0  3  0  0  0  0  0  0
  -23.2570  -10.2890   20.0200 C   0  0  0  0  0  3  0  0  0  0  0  0
  -22.2180   -7.0040   21.2700 O   0  0  0  0  0  0  0  0  0  0  0  0
  -22.0290   -6.3710   22.4720 C   0  0  0  0  0  0  0  0  0  0  0  0
  -21.4320   -7.0220   23.5720 C   0  0  0  0  0  3  0  0  0  0  0  0
  -21.1950   -6.3120   24.7660 C   0  0  0  0  0  3  0  0  0  0  0  0
  -21.5460   -4.9510   24.8600 C   0  0  0  0  0  0  0  0  0  0  0  0
  -22.1370   -4.3010   23.7630 C   0  0  0  0  0  3  0  0  0  0  0  0
  -22.3750   -5.0080   22.5710 C   0  0  0  0  0  0  0  0  0  0  0  0
  -22.9250   -4.3690   21.5100 F   0  0  0  0  0  0  0  0  0  0  0  0
  -21.3120   -4.2680   26.0040 F   0  0  0  0  0  0  0  0  0  0  0  0
  -23.3410  -13.6530   21.2250 C   0  0  0  0  0  0  0  0  0  0  0  0
  -22.7260  -12.9180   22.1460 N   0  0  0  0  0  0  0  0  0  0  0  0
  -22.8490  -14.7030   20.8150 O   0  0  0  0  0  0  0  0  0  0  0  0
  -23.1420  -12.0670   22.4950 H   0  0  0  0  0  0  0  0  0  0  0  0
  -21.8310  -13.2110   22.5080 H   0  0  0  0  0  0  0  0  0  0  0  0
  -25.8680  -15.3480   20.1810 N   0  0  0  0  0  0  0  0  0  0  0  0
  -25.1250  -15.9960   20.4190 H   0  0  0  0  0  0  0  0  0  0  0  0
  -26.6860  -15.8050   19.7970 H   0  0  0  0  0  0  0  0  0  0  0  0
  -28.4010  -23.2880   20.7850 O   0  0  0  0  0  0  0  0  0  0  0  0
  -29.0590  -24.3060   20.0130 C   0  0  0  0  0  2  0  0  0  0  0  0
  -28.5870  -25.6760   20.5800 C   0  0  0  0  0  2  0  0  0  0  0  0
  -28.6640  -26.8190   19.6970 O   0  0  0  0  0  0  0  0  0  0  0  0
  -24.7140  -31.6990   23.0980 C   0  0  0  0  0  0  0  0  0  0  0  0
  -27.5170  -27.5880   19.7070 C   0  0  0  0  0  0  0  0  0  0  0  0
  -23.5710  -30.4060   21.3270 C   0  0  0  0  0  3  0  0  0  0  0  0
  -25.0890  -29.0380   19.7980 C   0  0  0  0  0  0  0  0  0  0  0  0
  -26.0900  -30.8470   21.1990 C   0  0  0  0  0  2  0  0  0  0  0  0
  -26.2250  -29.5390   20.4460 C   0  0  0  0  0  0  0  0  0  0  0  0
  -27.4470  -28.8200   20.3990 C   0  0  0  0  0  3  0  0  0  0  0  0
  -26.3700  -27.1120   19.0430 C   0  0  0  0  0  3  0  0  0  0  0  0
  -25.1580  -27.8250   19.0920 C   0  0  0  0  0  3  0  0  0  0  0  0
  -23.8170  -29.8520   19.9000 C   0  0  0  0  0  2  0  0  0  0  0  0
  -24.8080  -30.9940   21.9330 N   0  0  0  0  0  0  0  0  0  0  0  0
  -23.6190  -31.8940   23.6420 O   0  0  0  0  0  0  0  0  0  0  0  0
  -22.9370  -29.2900   22.1910 C   0  0  0  0  0  0  0  0  0  0  0  0
  -21.6150  -29.1010   22.0520 N   0  0  0  0  0  0  0  0  0  0  0  0
  -23.6330  -28.5990   22.9410 O   0  0  0  0  0  0  0  0  0  0  0  0
  -21.1140  -29.7060   21.4150 H   0  0  0  0  0  0  0  0  0  0  0  0
  -18.2510  -27.8520   22.4890 C   0  0  0  0  0  0  0  0  0  0  0  0
  -20.8140  -28.0870   22.7380 C   0  0  0  0  0  3  0  0  0  0  0  0
  -20.9070  -26.7240   22.0130 C   0  0  0  0  0  2  0  0  0  0  0  0
  -19.7870  -26.5080   20.9920 C   0  0  0  0  0  2  0  0  0  0  0  0
  -18.4170  -26.5840   21.6710 C   0  0  0  0  0  2  0  0  0  0  0  0
  -19.3780  -28.5670   22.9760 C   0  0  0  0  0  0  0  0  0  0  0  0
  -19.1710  -29.7620   23.7000 C   0  0  0  0  0  3  0  0  0  0  0  0
  -17.8700  -30.2420   23.9410 C   0  0  0  0  0  3  0  0  0  0  0  0
  -16.7580  -29.5220   23.4700 C   0  0  0  0  0  3  0  0  0  0  0  0
  -16.9490  -28.3280   22.7500 C   0  0  0  0  0  3  0  0  0  0  0  0
  -25.9740  -32.3140   23.7850 C   0  0  0  0  0  3  0  0  0  0  0  0
  -26.5080  -31.4480   24.9910 C   0  0  1  0  0  0  0  0  0  0  0  0
  -25.4110  -31.0740   26.0170 C   0  0  0  0  0  1  0  0  0  0  0  0
  -27.1450  -30.1350   24.4820 C   0  0  0  0  0  1  0  0  0  0  0  0
  -27.6250  -32.2210   25.7340 C   0  0  0  0  0  1  0  0  0  0  0  0
  -25.6190  -33.6670   24.2310 N   0  0  0  0  0  0  0  0  0  0  0  0
  -25.9240  -34.7910   23.5670 C   0  0  0  0  0  0  0  0  0  0  0  0
  -26.6090  -34.7980   22.5390 O   0  0  0  0  0  0  0  0  0  0  0  0
  -25.0080  -33.7340   25.0320 H   0  0  0  0  0  0  0  0  0  0  0  0
  -24.1370  -36.5490   23.3530 C   0  0  0  0  0  1  0  0  0  0  0  0
  -25.3880  -36.1180   24.1360 C   0  0  0  0  0  3  0  0  0  0  0  0
  -27.4850  -36.9980   25.0550 C   0  0  0  0  0  1  0  0  0  0  0  0
  -26.3830  -37.2120   24.1220 N   0  0  0  0  0  0  0  0  0  0  0  0
  -25.9450  -38.1000   24.3520 H   0  0  0  0  0  0  0  0  0  0  0  0
  1  3  1  0
  3  2  2  0
  4 48  1  0
  4  6  2  0
  5  1  1  0
  5  4  2  0
  6  2  1  0
  7 19  1  0
  8 13  1  0
  9 10  1  0
  9  8  1  0
 11 10  1  0
 11 23  1  0
 11 12  1  0
 13  7  1  0
 13 12  1  0
 14  7  2  0
 16 15  1  0
 17 19  1  0
 17 18  1  0
 18  3  1  0
 18 15  1  0
 19 16  1  0
 20 21  2  0
 21 40  1  0
 22 21  1  0
 22 25  1  0
 23 24  1  0
 23 20  1  0
 24 22  2  0
 25 26  1  0
 26 27  2  0
 28 31  1  0
 28 27  1  0
 29 28  2  0
 30 29  1  0
 30 25  2  0
 31 32  1  0
 32 37  2  0
 32 33  1  0
 33 34  2  0
 34 35  1  0
 35 39  1  0
 36 35  2  0
 37 36  1  0
 38 37  1  0
 40 41  1  0
 41 43  1  0
 41 44  1  0
 42 40  2  0
 45 20  1  0
 45 46  1  0
 47 45  1  0
 49 50  1  0
 49 48  1  0
 51 53  1  0
 51 50  1  0
 52 63  2  0
 53 58  1  0
 54 62  1  0
 54 64  1  0
 55 61  1  0
 55 57  1  0
 56 62  1  0
 57 56  1  0
 58 57  2  0
 59 60  1  0
 59 53  2  0
 60 55  2  0
 61 54  1  0
 62 52  1  0
 64 66  2  0
 65 64  1  0
 67 65  1  0
 68 77  2  0
 68 73  1  0
 69 65  1  0
 69 73  1  0
 70 69  1  0
 71 72  1  0
 71 70  1  0
 72 68  1  0
 73 74  2  0
 74 75  1  0
 76 75  2  0
 77 76  1  0
 78 52  1  0
 78 83  1  0
 78 79  1  0
 79 82  1  1
 79 80  1  0
 81 79  1  0
 83 86  1  0
 84 88  1  0
 84 83  1  0
 85 84  2  0
 88 87  1  0
 90 88  1  0
 90 91  1  0
 90 89  1  0
M  ISO  4   7 100  19 100  50 101  51 101
M  END
>  <TORSDO>  (14) 
F 19

>  <SCORE>  (14) 
-11.167

>  <name>  (14) 
13

>  <ligand_id>  (14) 
13

>  <original_smiles>  (14) 
[H]c1nc(OC([H])([H])C([H])([H])Oc2c([H])c([H])c3c(c2[H])C([H])([H])N(C(=O)C([H])(N([H])C(=O)C([H])(N([H])C([H])([H])[H])C([H])([H])[H])C(C([H])([H])[H])(C([H])([H])[H])C([H])([H])[H])C([H])(C(=O)N([H])C2([H])c4c([H])c([H])c([H])c([H])c4C([H])([H])C([H])([H])C2([H])[H])C3([H])[H])nc([H])c1C1([H])C([H])([H])N(C(=O)N2C([H])([H])C([H])([H])C([H])([H])C([H])(n3nc(-c4c([H])c([H])c(Oc5c([H])c([H])c(F)c([H])c5F)c([H])c4[H])c(C(=O)N([H])[H])c3N([H])[H])C2([H])[H])C([H])([H])C1([H])[H]

>  <smiles>  (14) 
[H]c1nc(OC([H])([H])C([H])([H])Oc2c([H])c([H])c3c(c2[H])C([H])([H])N(C(=O)C([H])(N([H])C(=O)C([H])(N([H])C([H])([H])[H])C([H])([H])[H])C(C([H])([H])[H])(C([H])([H])[H])C([H])([H])[H])C([H])(C(=O)N([H])C2([H])c4c([H])c([H])c([H])c([H])c4C([H])([H])C([H])([H])C2([H])[H])C3([H])[H])nc([H])c1C1([H])C([H])([H])N(C(=O)N2C([H])([H])C([H])([H])C([H])([H])C([H])(n3nc(-c4c([H])c([H])c(Oc5c([H])c([H])c(F)c([H])c5F)c([H])c4[H])c(C(=O)N([H])[H])c3N([H])[H])C2([H])[H])C([H])([H])C1([H])[H]

$$$$
14:0:0
     RDKit          3D

 93102  0  0  1  0  0  0  0  0999 V2000
  -30.6580  -21.2040   21.2540 C   0  0  0  0  0  2  0  0  0  0  0  0
  -28.7110  -22.0920   19.9390 C   0  0  0  0  0  2  0  0  0  0  0  0
  -30.7040  -22.5870   21.9460 C   0  0  0  0  0  2  0  0  0  0  0  0
  -29.2370  -20.8080   20.8080 C   0  0  0  0  0  3  0  0  0  0  0  0
  -28.8820  -23.6070   20.5830 C   0  0  0  0  0  3  0  0  0  0  0  0
  -30.5840  -25.0200   21.7580 C   0  0  0  0  0  1  0  0  0  0  0  0
  -30.2950  -23.7330   21.0740 N   0  0  1  0  0  4  0  0  0  0  0  0
  -30.9080  -23.7210   20.2710 H   0  0  0  0  0  0  0  0  0  0  0  0
  -30.6250  -14.9580   19.9670 C   0  0  0  0  0  0  0  0  0  0  0  0
  -30.3860  -12.6690   18.9490 C   0  0  0  0  0  2  0  0  0  0  0  0
  -29.3820  -12.7040   17.7770 C   0  0  0  0  0  2  0  0  0  0  0  0
  -27.9470  -12.4890   18.2920 C   0  0  0  0  0  2  0  0  0  0  0  0
  -27.6250  -13.3630   19.5340 C   0  0  0  0  0  3  0  0  0  0  0  0
  -28.7500  -13.3200   20.5890 C   0  0  0  0  0  2  0  0  0  0  0  0
  -29.9820  -13.7330   19.9100 N   0  0  0  0  0  0  0  0  0  0  0  0
  -31.7980  -14.9980   19.5750 O   0  0  0  0  0  0  0  0  0  0  0  0
  -28.9930  -16.7090   21.0620 C   0  0  0  0  0  2  0  0  0  0  0  0
  -30.0520  -17.2440   18.9560 C   0  0  0  0  0  2  0  0  0  0  0  0
  -29.0520  -18.2760   21.4340 C   0  0  0  0  0  2  0  0  0  0  0  0
  -30.1890  -18.7730   19.3940 C   0  0  0  0  0  2  0  0  0  0  0  0
  -29.8930  -16.1730   19.9960 N   0  0  0  0  0  0  0  0  0  0  0  0
  -29.1340  -19.3050   20.3230 N   0  0  2  0  0  4  0  0  0  0  0  0
  -28.2540  -19.2370   19.8330 H   0  0  0  0  0  0  0  0  0  0  0  0
  -25.2910  -13.8940   20.4390 C   0  0  0  0  0  0  0  0  0  0  0  0
  -24.2620  -13.0970   20.8570 C   0  0  0  0  0  0  0  0  0  0  0  0
  -24.7350  -11.7540   20.7530 C   0  0  0  0  0  0  0  0  0  0  0  0
  -26.3240  -13.0360   20.1060 N   0  0  0  0  0  0  0  0  0  0  0  0
  -26.0030  -11.7410   20.3580 N   0  0  0  0  0  0  0  0  0  0  0  0
  -24.0330  -10.4770   20.9480 C   0  0  0  0  0  0  0  0  0  0  0  0
  -24.5000   -9.5110   21.8670 C   0  0  0  0  0  3  0  0  0  0  0  0
  -23.7960   -8.3010   22.0500 C   0  0  0  0  0  3  0  0  0  0  0  0
  -22.6120   -8.0500   21.3170 C   0  0  0  0  0  0  0  0  0  0  0  0
  -22.1640   -9.0070   20.3890 C   0  0  0  0  0  3  0  0  0  0  0  0
  -22.8700  -10.2070   20.2020 C   0  0  0  0  0  3  0  0  0  0  0  0
  -21.8750   -6.8950   21.4130 O   0  0  0  0  0  0  0  0  0  0  0  0
  -21.8030   -6.1810   22.5830 C   0  0  0  0  0  0  0  0  0  0  0  0
  -21.3130   -6.7560   23.7760 C   0  0  0  0  0  3  0  0  0  0  0  0
  -21.1910   -5.9690   24.9390 C   0  0  0  0  0  3  0  0  0  0  0  0
  -21.5490   -4.6070   24.9070 C   0  0  0  0  0  0  0  0  0  0  0  0
  -22.0310   -4.0310   23.7180 C   0  0  0  0  0  3  0  0  0  0  0  0
  -22.1550   -4.8170   22.5590 C   0  0  0  0  0  0  0  0  0  0  0  0
  -22.6010   -4.2520   21.4100 F   0  0  0  0  0  0  0  0  0  0  0  0
  -21.4240   -3.8480   26.0200 F   0  0  0  0  0  0  0  0  0  0  0  0
  -22.8830  -13.5530   21.2320 C   0  0  0  0  0  0  0  0  0  0  0  0
  -22.2210  -12.8310   22.1290 N   0  0  0  0  0  0  0  0  0  0  0  0
  -22.4010  -14.5850   20.7650 O   0  0  0  0  0  0  0  0  0  0  0  0
  -22.6220  -11.9950   22.5260 H   0  0  0  0  0  0  0  0  0  0  0  0
  -21.2980  -13.1170   22.4240 H   0  0  0  0  0  0  0  0  0  0  0  0
  -25.4270  -15.2710   20.2860 N   0  0  0  0  0  0  0  0  0  0  0  0
  -24.6450  -15.9000   20.4300 H   0  0  0  0  0  0  0  0  0  0  0  0
  -26.2130  -15.7110   19.8270 H   0  0  0  0  0  0  0  0  0  0  0  0
  -28.3560  -24.9360   19.7400 C   0  0  0  0  0  2  0  0  0  0  0  0
  -28.3920  -26.3950   20.2130 O   0  0  0  0  0  0  0  0  0  0  0  0
  -24.6500  -31.8920   23.1930 C   0  0  0  0  0  0  0  0  0  0  0  0
  -27.2970  -27.3060   20.1100 C   0  0  0  0  0  0  0  0  0  0  0  0
  -23.4700  -30.5010   21.5320 C   0  0  0  0  0  3  0  0  0  0  0  0
  -24.9420  -28.9780   20.0890 C   0  0  0  0  0  0  0  0  0  0  0  0
  -26.0140  -30.8180   21.3770 C   0  0  0  0  0  2  0  0  0  0  0  0
  -26.1060  -29.4410   20.7130 C   0  0  0  0  0  0  0  0  0  0  0  0
  -27.2820  -28.6150   20.7170 C   0  0  0  0  0  3  0  0  0  0  0  0
  -26.1150  -26.9420   19.4230 C   0  0  0  0  0  3  0  0  0  0  0  0
  -24.9570  -27.7400   19.4300 C   0  0  0  0  0  3  0  0  0  0  0  0
  -23.7000  -29.8480   20.1440 C   0  0  0  0  0  2  0  0  0  0  0  0
  -24.7300  -31.0910   22.0900 N   0  0  0  0  0  0  0  0  0  0  0  0
  -23.5600  -32.1540   23.7250 O   0  0  0  0  0  0  0  0  0  0  0  0
  -22.8080  -29.4680   22.4780 C   0  0  0  0  0  0  0  0  0  0  0  0
  -21.4800  -29.2960   22.3600 N   0  0  0  0  0  0  0  0  0  0  0  0
  -23.4910  -28.8270   23.2810 O   0  0  0  0  0  0  0  0  0  0  0  0
  -20.9870  -29.8660   21.6890 H   0  0  0  0  0  0  0  0  0  0  0  0
  -18.1020  -28.1060   22.8860 C   0  0  0  0  0  0  0  0  0  0  0  0
  -20.6670  -28.3440   23.1210 C   0  0  0  0  0  3  0  0  0  0  0  0
  -20.7500  -26.9270   22.5090 C   0  0  0  0  0  2  0  0  0  0  0  0
  -19.6310  -26.6370   21.5040 C   0  0  0  0  0  2  0  0  0  0  0  0
  -18.2600  -26.7730   22.1730 C   0  0  0  0  0  2  0  0  0  0  0  0
  -19.2320  -28.8510   23.3170 C   0  0  0  0  0  0  0  0  0  0  0  0
  -19.0290  -30.0980   23.9450 C   0  0  0  0  0  3  0  0  0  0  0  0
  -17.7300  -30.6010   24.1450 C   0  0  0  0  0  3  0  0  0  0  0  0
  -16.6150  -29.8530   23.7290 C   0  0  0  0  0  3  0  0  0  0  0  0
  -16.8020  -28.6070   23.1040 C   0  0  0  0  0  3  0  0  0  0  0  0
  -25.9200  -32.5330   23.8310 C   0  0  0  0  0  3  0  0  0  0  0  0
  -25.5940  -33.9250   24.1720 N   0  0  0  0  0  0  0  0  0  0  0  0
  -25.9050  -34.9890   23.4200 C   0  0  0  0  0  0  0  0  0  0  0  0
  -26.5650  -34.9020   22.3810 O   0  0  0  0  0  0  0  0  0  0  0  0
  -25.0070  -34.0660   24.9820 H   0  0  0  0  0  0  0  0  0  0  0  0
  -24.1460  -36.7610   23.1050 C   0  0  0  0  0  1  0  0  0  0  0  0
  -25.4050  -36.3680   23.8940 C   0  0  0  0  0  3  0  0  0  0  0  0
  -27.5370  -37.2830   24.7010 C   0  0  0  0  0  1  0  0  0  0  0  0
  -26.4200  -37.4370   23.7720 N   0  0  0  0  0  0  0  0  0  0  0  0
  -26.0020  -38.3500   23.9270 H   0  0  0  0  0  0  0  0  0  0  0  0
  -26.4370  -31.7550   25.1040 C   0  0  1  0  0  0  0  0  0  0  0  0
  -25.3380  -31.4980   26.1620 C   0  0  0  0  0  1  0  0  0  0  0  0
  -27.0360  -30.3860   24.7080 C   0  0  0  0  0  1  0  0  0  0  0  0
  -27.5720  -32.5560   25.7810 C   0  0  0  0  0  1  0  0  0  0  0  0
  1  3  1  0
  2  5  1  0
  4  2  1  0
  4  1  1  0
  5 52  1  0
  5  7  1  0
  7  6  1  0
  7  3  1  0
  7  8  1  6
  9 21  1  0
 10 15  1  0
 11 12  1  0
 11 10  1  0
 13 12  1  0
 13 27  1  0
 13 14  1  0
 15  9  1  0
 15 14  1  0
 16  9  2  0
 17 19  1  0
 18 20  1  0
 18 21  1  0
 20 22  1  0
 21 17  1  0
 22 23  1  6
 22  4  1  0
 22 19  1  0
 24 25  2  0
 25 44  1  0
 26 25  1  0
 26 29  1  0
 27 28  1  0
 27 24  1  0
 28 26  2  0
 29 30  1  0
 30 31  2  0
 32 35  1  0
 32 31  1  0
 33 32  2  0
 34 33  1  0
 34 29  2  0
 35 36  1  0
 36 37  1  0
 37 38  2  0
 39 38  1  0
 39 43  1  0
 40 39  2  0
 41 36  2  0
 41 40  1  0
 42 41  1  0
 44 45  1  0
 45 48  1  0
 45 47  1  0
 46 44  2  0
 49 50  1  0
 49 24  1  0
 51 49  1  0
 52 53  1  0
 54 65  2  0
 55 53  1  0
 55 60  1  0
 56 64  1  0
 56 66  1  0
 57 63  1  0
 57 59  1  0
 58 64  1  0
 59 60  2  0
 59 58  1  0
 61 62  1  0
 61 55  2  0
 62 57  2  0
 63 56  1  0
 64 54  1  0
 66 68  2  0
 67 66  1  0
 69 67  1  0
 70 79  2  0
 70 75  1  0
 71 67  1  0
 71 75  1  0
 72 71  1  0
 73 74  1  0
 73 72  1  0
 74 70  1  0
 75 76  2  0
 76 77  1  0
 78 77  2  0
 79 78  1  0
 80 54  1  0
 80 81  1  0
 80 90  1  0
 81 84  1  0
 82 86  1  0
 82 81  1  0
 83 82  2  0
 86 85  1  0
 88 86  1  0
 88 89  1  0
 88 87  1  0
 90 93  1  1
 90 91  1  0
 92 90  1  0
M  ISO  4   9 100  21 100  52 101  53 101
M  END
>  <TORSDO>  (15) 
F 17

>  <SCORE>  (15) 
-14.448

>  <name>  (15) 
14

>  <ligand_id>  (15) 
14

>  <original_smiles>  (15) 
[H]c1c([H])c([H])c2c(c1[H])C([H])([H])C([H])([H])C([H])([H])C2([H])N([H])C(=O)C1([H])N(C(=O)C([H])(N([H])C(=O)C([H])(N([H])C([H])([H])[H])C([H])([H])[H])C(C([H])([H])[H])(C([H])([H])[H])C([H])([H])[H])C([H])([H])c2c([H])c(OC([H])([H])C3([H])C([H])([H])C([H])([N+]4([H])C([H])([H])C([H])([H])N(C(=O)N5C([H])([H])C([H])([H])C([H])([H])C([H])(n6nc(-c7c([H])c([H])c(Oc8c([H])c([H])c(F)c([H])c8F)c([H])c7[H])c(C(=O)N([H])[H])c6N([H])[H])C5([H])[H])C([H])([H])C4([H])[H])C([H])([H])C([H])([H])[N+]3([H])C([H])([H])[H])c([H])c([H])c2C1([H])[H]

>  <smiles>  (15) 
[H]c1c([H])c([H])c2c(c1[H])C([H])([H])C([H])([H])C([H])([H])C2([H])N([H])C(=O)C1([H])N(C(=O)C([H])(N([H])C(=O)C([H])(N([H])C([H])([H])[H])C([H])([H])[H])C(C([H])([H])[H])(C([H])([H])[H])C([H])([H])[H])C([H])([H])c2c([H])c(OC([H])([H])C3([H])C([H])([H])C([H])([N+]4([H])C([H])([H])C([H])([H])N(C(=O)N5C([H])([H])C([H])([H])C([H])([H])C([H])(n6nc(-c7c([H])c([H])c(Oc8c([H])c([H])c(F)c([H])c8F)c([H])c7[H])c(C(=O)N([H])[H])c6N([H])[H])C5([H])[H])C([H])([H])C4([H])[H])C([H])([H])C([H])([H])[N+]3([H])C([H])([H])[H])c([H])c([H])c2C1([H])[H]

$$$$
15:0:0
     RDKit          3D

 96105  0  0  1  0  0  0  0  0999 V2000
  -30.6170  -14.5160   20.1900 C   0  0  0  0  0  0  0  0  0  0  0  0
  -30.2400  -12.3770   19.0140 C   0  0  0  0  0  2  0  0  0  0  0  0
  -29.2150  -12.5390   17.8750 C   0  0  0  0  0  2  0  0  0  0  0  0
  -27.7720  -12.3810   18.3890 C   0  0  0  0  0  2  0  0  0  0  0  0
  -27.5080  -13.2360   19.6540 C   0  0  0  0  0  3  0  0  0  0  0  0
  -28.6290  -13.0090   20.6970 C   0  0  0  0  0  2  0  0  0  0  0  0
  -29.9170  -13.3520   20.0700 N   0  0  0  0  0  0  0  0  0  0  0  0
  -31.5830  -14.7660   19.4580 O   0  0  0  0  0  0  0  0  0  0  0  0
  -29.7290  -20.1050   19.9700 C   0  0  0  0  0  3  0  0  0  0  0  0
  -31.7110  -20.1560   18.0830 C   0  0  0  0  0  3  0  0  0  0  0  0
  -29.9080  -21.2880   19.2230 C   0  0  0  0  0  0  0  0  0  0  0  0
  -30.9130  -21.3030   18.2210 C   0  0  0  0  0  0  0  0  0  0  0  0
  -30.5830  -19.0100   19.7520 C   0  0  0  0  0  0  0  0  0  0  0  0
  -31.6760  -17.4070   21.2360 C   0  0  0  0  0  2  0  0  0  0  0  0
  -29.1960  -17.4900   21.0960 C   0  0  0  0  0  2  0  0  0  0  0  0
  -31.4870  -16.0200   21.9070 C   0  0  0  0  0  2  0  0  0  0  0  0
  -29.1160  -16.0030   21.5150 C   0  0  0  0  0  2  0  0  0  0  0  0
  -31.5640  -19.0420   18.8310 N   0  0  0  0  0  0  0  0  0  0  0  0
  -30.4820  -17.8250   20.4930 N   0  0  0  0  0  0  0  0  0  0  0  0
  -30.3800  -15.2710   21.2930 N   0  0  0  0  0  0  0  0  0  0  0  0
  -31.2060  -22.6480   17.1630 Cl  0  0  0  0  0  0  0  0  0  0  0  0
  -25.1810  -13.8600   20.5670 C   0  0  0  0  0  0  0  0  0  0  0  0
  -24.1280  -13.0890   20.9770 C   0  0  0  0  0  0  0  0  0  0  0  0
  -24.5530  -11.7310   20.8370 C   0  0  0  0  0  0  0  0  0  0  0  0
  -26.1870  -12.9720   20.2150 N   0  0  0  0  0  0  0  0  0  0  0  0
  -25.8130  -11.6840   20.4270 N   0  0  0  0  0  0  0  0  0  0  0  0
  -23.8190  -10.4730   21.0160 C   0  0  0  0  0  0  0  0  0  0  0  0
  -24.2890   -9.4570   21.8780 C   0  0  0  0  0  3  0  0  0  0  0  0
  -23.5540   -8.2640   22.0460 C   0  0  0  0  0  3  0  0  0  0  0  0
  -22.3340   -8.0780   21.3520 C   0  0  0  0  0  0  0  0  0  0  0  0
  -21.8830   -9.0830   20.4760 C   0  0  0  0  0  3  0  0  0  0  0  0
  -22.6200  -10.2660   20.3060 C   0  0  0  0  0  3  0  0  0  0  0  0
  -21.5680   -6.9410   21.4330 O   0  0  0  0  0  0  0  0  0  0  0  0
  -21.5470   -6.1640   22.5640 C   0  0  0  0  0  0  0  0  0  0  0  0
  -21.1380   -6.6800   23.8150 C   0  0  0  0  0  3  0  0  0  0  0  0
  -21.0670   -5.8290   24.9350 C   0  0  0  0  0  3  0  0  0  0  0  0
  -21.3950   -4.4660   24.8080 C   0  0  0  0  0  0  0  0  0  0  0  0
  -21.7970   -3.9500   23.5630 C   0  0  0  0  0  3  0  0  0  0  0  0
  -21.8700   -4.7980   22.4440 C   0  0  0  0  0  0  0  0  0  0  0  0
  -22.2370   -4.2930   21.2420 F   0  0  0  0  0  0  0  0  0  0  0  0
  -21.3170   -3.6470   25.8830 F   0  0  0  0  0  0  0  0  0  0  0  0
  -22.7650  -13.5730   21.3850 C   0  0  0  0  0  0  0  0  0  0  0  0
  -22.1050  -12.8570   22.2880 N   0  0  0  0  0  0  0  0  0  0  0  0
  -22.3000  -14.6210   20.9400 O   0  0  0  0  0  0  0  0  0  0  0  0
  -22.4970  -12.0090   22.6700 H   0  0  0  0  0  0  0  0  0  0  0  0
  -21.1960  -13.1620   22.6040 H   0  0  0  0  0  0  0  0  0  0  0  0
  -25.3590  -15.2370   20.4460 N   0  0  0  0  0  0  0  0  0  0  0  0
  -24.6030  -15.8890   20.6260 H   0  0  0  0  0  0  0  0  0  0  0  0
  -26.1760  -15.6770   20.0450 H   0  0  0  0  0  0  0  0  0  0  0  0
  -29.0370  -22.4720   19.5360 C   0  0  0  0  0  0  0  0  0  0  0  0
  -29.6880  -23.6140   19.7850 N   0  0  0  0  0  0  0  0  0  0  0  0
  -27.8140  -22.3540   19.6540 O   0  0  0  0  0  0  0  0  0  0  0  0
  -30.6910  -23.5910   19.6570 H   0  0  0  0  0  0  0  0  0  0  0  0
  -29.1010  -24.8710   20.2270 C   0  0  0  0  0  2  0  0  0  0  0  0
  -28.1810  -25.4980   19.1670 C   0  0  0  0  0  2  0  0  0  0  0  0
  -28.1250  -26.8940   19.4360 O   0  0  0  0  0  0  0  0  0  0  0  0
  -24.3710  -31.6540   23.0780 C   0  0  0  0  0  0  0  0  0  0  0  0
  -26.9120  -27.5310   19.5250 C   0  0  0  0  0  0  0  0  0  0  0  0
  -23.1020  -30.3790   21.3780 C   0  0  0  0  0  3  0  0  0  0  0  0
  -24.4990  -28.9750   19.7750 C   0  0  0  0  0  0  0  0  0  0  0  0
  -25.6100  -30.7850   21.1010 C   0  0  0  0  0  2  0  0  0  0  0  0
  -25.6740  -29.4720   20.3500 C   0  0  0  0  0  0  0  0  0  0  0  0
  -26.8790  -28.7560   20.2240 C   0  0  0  0  0  3  0  0  0  0  0  0
  -25.7180  -27.0450   18.9400 C   0  0  0  0  0  3  0  0  0  0  0  0
  -24.5130  -27.7600   19.0700 C   0  0  0  0  0  3  0  0  0  0  0  0
  -23.2540  -29.8100   19.9410 C   0  0  0  0  0  2  0  0  0  0  0  0
  -24.3820  -30.9500   21.9110 N   0  0  0  0  0  0  0  0  0  0  0  0
  -23.3130  -31.8680   23.6850 O   0  0  0  0  0  0  0  0  0  0  0  0
  -22.5030  -29.2740   22.2790 C   0  0  0  0  0  0  0  0  0  0  0  0
  -21.1710  -29.1150   22.2220 N   0  0  0  0  0  0  0  0  0  0  0  0
  -23.2300  -28.5680   22.9830 O   0  0  0  0  0  0  0  0  0  0  0  0
  -20.6460  -29.7380   21.6230 H   0  0  0  0  0  0  0  0  0  0  0  0
  -17.8150  -27.9480   22.8690 C   0  0  0  0  0  0  0  0  0  0  0  0
  -20.3920  -28.1150   22.9510 C   0  0  0  0  0  3  0  0  0  0  0  0
  -20.4020  -26.7550   22.2150 C   0  0  0  0  0  2  0  0  0  0  0  0
  -19.2120  -26.5730   21.2670 C   0  0  0  0  0  2  0  0  0  0  0  0
  -17.8940  -26.6790   22.0380 C   0  0  0  0  0  2  0  0  0  0  0  0
  -18.9880  -28.6330   23.2840 C   0  0  0  0  0  0  0  0  0  0  0  0
  -18.8580  -29.8280   24.0260 C   0  0  0  0  0  3  0  0  0  0  0  0
  -17.5870  -30.3390   24.3500 C   0  0  0  0  0  3  0  0  0  0  0  0
  -16.4290  -29.6480   23.9520 C   0  0  0  0  0  3  0  0  0  0  0  0
  -16.5460  -28.4530   23.2190 C   0  0  0  0  0  3  0  0  0  0  0  0
  -25.6790  -32.2460   23.6900 C   0  0  0  0  0  3  0  0  0  0  0  0
  -25.4000  -33.6370   24.0690 N   0  0  0  0  0  0  0  0  0  0  0  0
  -25.7570  -34.7070   23.3450 C   0  0  0  0  0  0  0  0  0  0  0  0
  -26.4250  -34.6240   22.3110 O   0  0  0  0  0  0  0  0  0  0  0  0
  -24.8180  -33.7760   24.8810 H   0  0  0  0  0  0  0  0  0  0  0  0
  -24.0710  -36.5440   23.0360 C   0  0  0  0  0  1  0  0  0  0  0  0
  -25.2960  -36.0890   23.8450 C   0  0  0  0  0  3  0  0  0  0  0  0
  -27.4380  -36.9000   24.7320 C   0  0  0  0  0  1  0  0  0  0  0  0
  -26.3550  -37.1210   23.7770 N   0  0  0  0  0  0  0  0  0  0  0  0
  -25.9690  -38.0460   23.9430 H   0  0  0  0  0  0  0  0  0  0  0  0
  -26.2120  -31.4290   24.9310 C   0  0  1  0  0  0  0  0  0  0  0  0
  -25.1410  -31.1860   26.0190 C   0  0  0  0  0  1  0  0  0  0  0  0
  -26.7480  -30.0510   24.4810 C   0  0  0  0  0  1  0  0  0  0  0  0
  -27.4060  -32.1710   25.5760 C   0  0  0  0  0  1  0  0  0  0  0  0
  1 20  1  0
  2  7  1  0
  3  4  1  0
  3  2  1  0
  5  4  1  0
  5 25  1  0
  5  6  1  0
  7  1  1  0
  7  6  1  0
  8  1  2  0
 10 12  2  0
 10 18  1  0
 11 50  1  0
 11  9  2  0
 12 11  1  0
 13  9  1  0
 13 19  1  0
 14 16  1  0
 15 17  1  0
 18 13  2  0
 19 15  1  0
 19 14  1  0
 20 17  1  0
 20 16  1  0
 21 12  1  0
 22 23  2  0
 23 42  1  0
 24 23  1  0
 24 27  1  0
 25 26  1  0
 25 22  1  0
 26 24  2  0
 27 28  1  0
 28 29  2  0
 30 33  1  0
 30 29  1  0
 31 30  2  0
 32 31  1  0
 32 27  2  0
 33 34  1  0
 34 35  1  0
 35 36  2  0
 37 36  1  0
 37 41  1  0
 38 37  2  0
 39 34  2  0
 39 38  1  0
 40 39  1  0
 42 43  1  0
 43 46  1  0
 43 45  1  0
 44 42  2  0
 47 22  1  0
 47 48  1  0
 49 47  1  0
 50 52  2  0
 50 51  1  0
 51 54  1  0
 53 51  1  0
 55 56  1  0
 55 54  1  0
 56 58  1  0
 57 68  2  0
 58 63  1  0
 59 67  1  0
 59 69  1  0
 60 66  1  0
 60 62  1  0
 61 67  1  0
 62 61  1  0
 63 62  2  0
 64 65  1  0
 64 58  2  0
 65 60  2  0
 66 59  1  0
 67 57  1  0
 69 71  2  0
 70 69  1  0
 72 70  1  0
 73 82  2  0
 73 78  1  0
 74 70  1  0
 74 78  1  0
 75 74  1  0
 76 77  1  0
 76 75  1  0
 77 73  1  0
 78 79  2  0
 79 80  1  0
 81 80  2  0
 82 81  1  0
 83 57  1  0
 83 84  1  0
 83 93  1  0
 84 87  1  0
 85 89  1  0
 85 84  1  0
 86 85  2  0
 89 88  1  0
 91 89  1  0
 91 92  1  0
 91 90  1  0
 93 96  1  1
 93 94  1  0
 95 93  1  0
M  ISO  4   1 100  20 100  55 101  56 101
M  END
>  <TORSDO>  (16) 
F 18

>  <SCORE>  (16) 
-13.186

>  <name>  (16) 
15

>  <ligand_id>  (16) 
15

>  <original_smiles>  (16) 
[H]c1nc(N2C([H])([H])C([H])([H])N(C(=O)N3C([H])([H])C([H])([H])C([H])([H])C([H])(n4nc(-c5c([H])c([H])c(Oc6c([H])c([H])c(F)c([H])c6F)c([H])c5[H])c(C(=O)N([H])[H])c4N([H])[H])C3([H])[H])C([H])([H])C2([H])[H])c([H])c(C(=O)N([H])C([H])([H])C([H])([H])Oc2c([H])c([H])c3c(c2[H])C([H])([H])N(C(=O)C([H])(N([H])C(=O)C([H])(N([H])C([H])([H])[H])C([H])([H])[H])C(C([H])([H])[H])(C([H])([H])[H])C([H])([H])[H])C([H])(C(=O)N([H])C2([H])c4c([H])c([H])c([H])c([H])c4C([H])([H])C([H])([H])C2([H])[H])C3([H])[H])c1Cl

>  <smiles>  (16) 
[H]c1nc(N2C([H])([H])C([H])([H])N(C(=O)N3C([H])([H])C([H])([H])C([H])([H])C([H])(n4nc(-c5c([H])c([H])c(Oc6c([H])c([H])c(F)c([H])c6F)c([H])c5[H])c(C(=O)N([H])[H])c4N([H])[H])C3([H])[H])C([H])([H])C2([H])[H])c([H])c(C(=O)N([H])C([H])([H])C([H])([H])Oc2c([H])c([H])c3c(c2[H])C([H])([H])N(C(=O)C([H])(N([H])C(=O)C([H])(N([H])C([H])([H])[H])C([H])([H])[H])C(C([H])([H])[H])(C([H])([H])[H])C([H])([H])[H])C([H])(C(=O)N([H])C2([H])c4c([H])c([H])c([H])c([H])c4C([H])([H])C([H])([H])C2([H])[H])C3([H])[H])c1Cl

$$$$
16:0:0
     RDKit          3D

 92102  0  0  1  0  0  0  0  0999 V2000
  -30.6020  -14.8380   20.4110 C   0  0  0  0  0  0  0  0  0  0  0  0
  -30.3910  -12.5530   19.3930 C   0  0  0  0  0  2  0  0  0  0  0  0
  -29.4650  -12.6100   18.1590 C   0  0  0  0  0  2  0  0  0  0  0  0
  -27.9930  -12.4360   18.5790 C   0  0  0  0  0  2  0  0  0  0  0  0
  -27.6090  -13.3310   19.7880 C   0  0  0  0  0  3  0  0  0  0  0  0
  -28.6580  -13.2660   20.9180 C   0  0  0  0  0  2  0  0  0  0  0  0
  -29.9520  -13.6220   20.3240 N   0  0  0  0  0  0  0  0  0  0  0  0
  -31.8030  -14.8890   20.1250 O   0  0  0  0  0  0  0  0  0  0  0  0
  -28.4890  -22.7750   19.4080 C   0  0  0  0  0  3  0  0  0  0  0  0
  -28.7570  -21.3600   19.3350 C   0  0  0  0  0  3  0  0  0  0  0  0
  -28.6830  -23.4930   20.6220 C   0  0  0  0  0  0  0  0  0  0  0  0
  -29.2140  -20.6290   20.4760 C   0  0  0  0  0  0  0  0  0  0  0  0
  -31.6500  -18.6010   20.8770 C   0  0  0  0  0  2  0  0  0  0  0  0
  -31.3530  -18.5300   19.3740 C   0  0  0  0  0  2  0  0  0  0  0  0
  -29.9170  -16.9330   21.7390 C   0  0  0  0  0  2  0  0  0  0  0  0
  -29.4260  -16.8460   19.3680 C   0  0  0  0  0  2  0  0  0  0  0  0
  -30.2540  -18.4860   21.5050 C   0  0  0  0  0  3  0  0  0  0  0  0
  -29.8240  -18.3950   19.3320 C   0  0  0  0  0  3  0  0  0  0  0  0
  -29.1620  -22.7370   21.6720 N   0  0  0  0  0  0  0  0  0  0  0  0
  -29.4190  -21.3910   21.6020 N   0  0  0  0  0  0  0  0  0  0  0  0
  -29.3820  -19.1630   20.5170 N   0  0  0  0  0  0  0  0  0  0  0  0
  -29.8630  -16.0260   20.5450 N   0  0  0  0  0  0  0  0  0  0  0  0
  -25.2180  -13.9260   20.4890 C   0  0  0  0  0  0  0  0  0  0  0  0
  -24.1470  -13.1560   20.8500 C   0  0  0  0  0  0  0  0  0  0  0  0
  -24.6080  -11.8040   20.8380 C   0  0  0  0  0  0  0  0  0  0  0  0
  -26.2630  -13.0440   20.2710 N   0  0  0  0  0  0  0  0  0  0  0  0
  -25.9030  -11.7620   20.5450 N   0  0  0  0  0  0  0  0  0  0  0  0
  -23.8760  -10.5460   21.0280 C   0  0  0  0  0  0  0  0  0  0  0  0
  -24.2990   -9.5790   21.9670 C   0  0  0  0  0  3  0  0  0  0  0  0
  -23.5670   -8.3860   22.1470 C   0  0  0  0  0  3  0  0  0  0  0  0
  -22.3970   -8.1500   21.3870 C   0  0  0  0  0  0  0  0  0  0  0  0
  -21.9920   -9.1050   20.4360 C   0  0  0  0  0  3  0  0  0  0  0  0
  -22.7260  -10.2900   20.2540 C   0  0  0  0  0  3  0  0  0  0  0  0
  -21.6360   -7.0090   21.4740 O   0  0  0  0  0  0  0  0  0  0  0  0
  -21.5790   -6.2700   22.6290 C   0  0  0  0  0  0  0  0  0  0  0  0
  -21.1530   -6.8310   23.8520 C   0  0  0  0  0  3  0  0  0  0  0  0
  -21.0410   -6.0190   24.9980 C   0  0  0  0  0  3  0  0  0  0  0  0
  -21.3450   -4.6470   24.9220 C   0  0  0  0  0  0  0  0  0  0  0  0
  -21.7640   -4.0850   23.7030 C   0  0  0  0  0  3  0  0  0  0  0  0
  -21.8770   -4.8940   22.5590 C   0  0  0  0  0  0  0  0  0  0  0  0
  -22.2610   -4.3430   21.3820 F   0  0  0  0  0  0  0  0  0  0  0  0
  -21.2320   -3.8650   26.0210 F   0  0  0  0  0  0  0  0  0  0  0  0
  -22.7470  -13.6390   21.0980 C   0  0  0  0  0  0  0  0  0  0  0  0
  -22.0080  -12.9560   21.9640 N   0  0  0  0  0  0  0  0  0  0  0  0
  -22.3170  -14.6580   20.5570 O   0  0  0  0  0  0  0  0  0  0  0  0
  -22.3690  -12.1330   22.4230 H   0  0  0  0  0  0  0  0  0  0  0  0
  -21.0680  -13.2640   22.1740 H   0  0  0  0  0  0  0  0  0  0  0  0
  -25.3890  -15.2950   20.3060 N   0  0  0  0  0  0  0  0  0  0  0  0
  -24.6270  -15.9560   20.4150 H   0  0  0  0  0  0  0  0  0  0  0  0
  -26.2560  -15.7340   20.0250 H   0  0  0  0  0  0  0  0  0  0  0  0
  -28.0290  -24.9440   20.9470 C   0  0  0  0  0  2  0  0  0  0  0  0
  -28.3950  -26.3080   20.3710 O   0  0  0  0  0  0  0  0  0  0  0  0
  -24.6740  -31.9110   23.2590 C   0  0  0  0  0  0  0  0  0  0  0  0
  -27.3410  -27.2630   20.3030 C   0  0  0  0  0  0  0  0  0  0  0  0
  -23.5080  -30.4900   21.6160 C   0  0  0  0  0  3  0  0  0  0  0  0
  -24.9910  -28.9320   20.2230 C   0  0  0  0  0  0  0  0  0  0  0  0
  -26.0560  -30.8000   21.4790 C   0  0  0  0  0  2  0  0  0  0  0  0
  -26.1540  -29.4100   20.8430 C   0  0  0  0  0  0  0  0  0  0  0  0
  -27.3350  -28.5900   20.8700 C   0  0  0  0  0  3  0  0  0  0  0  0
  -26.1630  -26.8770   19.6290 C   0  0  0  0  0  3  0  0  0  0  0  0
  -25.0030  -27.6760   19.6010 C   0  0  0  0  0  3  0  0  0  0  0  0
  -23.7520  -29.8080   20.2450 C   0  0  0  0  0  2  0  0  0  0  0  0
  -24.7650  -31.0870   22.1740 N   0  0  0  0  0  0  0  0  0  0  0  0
  -23.5800  -32.1880   23.7710 O   0  0  0  0  0  0  0  0  0  0  0  0
  -22.8310  -29.4810   22.5750 C   0  0  0  0  0  0  0  0  0  0  0  0
  -21.5050  -29.3030   22.4370 N   0  0  0  0  0  0  0  0  0  0  0  0
  -23.5010  -28.8590   23.4050 O   0  0  0  0  0  0  0  0  0  0  0  0
  -21.0240  -29.8560   21.7420 H   0  0  0  0  0  0  0  0  0  0  0  0
  -18.1210  -28.1170   22.9320 C   0  0  0  0  0  0  0  0  0  0  0  0
  -20.6800  -28.3690   23.2070 C   0  0  0  0  0  3  0  0  0  0  0  0
  -20.7780  -26.9360   22.6330 C   0  0  0  0  0  2  0  0  0  0  0  0
  -19.6780  -26.6160   21.6170 C   0  0  0  0  0  2  0  0  0  0  0  0
  -18.2950  -26.7660   22.2560 C   0  0  0  0  0  2  0  0  0  0  0  0
  -19.2400  -28.8760   23.3640 C   0  0  0  0  0  0  0  0  0  0  0  0
  -19.0230  -30.1380   23.9560 C   0  0  0  0  0  3  0  0  0  0  0  0
  -17.7200  -30.6430   24.1200 C   0  0  0  0  0  3  0  0  0  0  0  0
  -16.6140  -29.8810   23.7040 C   0  0  0  0  0  3  0  0  0  0  0  0
  -16.8150  -28.6200   23.1160 C   0  0  0  0  0  3  0  0  0  0  0  0
  -25.9410  -32.5610   23.8960 C   0  0  0  0  0  3  0  0  0  0  0  0
  -25.6120  -33.9580   24.2170 N   0  0  0  0  0  0  0  0  0  0  0  0
  -25.9310  -35.0120   23.4530 C   0  0  0  0  0  0  0  0  0  0  0  0
  -26.6030  -34.9110   22.4240 O   0  0  0  0  0  0  0  0  0  0  0  0
  -25.0140  -34.1100   25.0160 H   0  0  0  0  0  0  0  0  0  0  0  0
  -24.1760  -36.7790   23.0980 C   0  0  0  0  0  1  0  0  0  0  0  0
  -25.4280  -36.3980   23.9040 C   0  0  0  0  0  3  0  0  0  0  0  0
  -27.5550  -37.3180   24.7140 C   0  0  0  0  0  1  0  0  0  0  0  0
  -26.4450  -37.4640   23.7770 N   0  0  0  0  0  0  0  0  0  0  0  0
  -26.0270  -38.3790   23.9210 H   0  0  0  0  0  0  0  0  0  0  0  0
  -26.4450  -31.8030   25.1860 C   0  0  1  0  0  0  0  0  0  0  0  0
  -25.3400  -31.5630   26.2400 C   0  0  0  0  0  1  0  0  0  0  0  0
  -27.0460  -30.4280   24.8160 C   0  0  0  0  0  1  0  0  0  0  0  0
  -27.5800  -32.6120   25.8580 C   0  0  0  0  0  1  0  0  0  0  0  0
  1 22  1  0
  2  7  1  0
  3  4  1  0
  3  2  1  0
  5  4  1  0
  5 26  1  0
  5  6  1  0
  7  1  1  0
  7  6  1  0
  8  1  2  0
  9 11  1  0
 10  9  2  0
 10 12  1  0
 11 51  1  0
 11 19  2  0
 12 21  1  0
 12 20  2  0
 14 13  1  0
 16 22  1  0
 17 13  1  0
 17 15  1  0
 18 16  1  0
 18 14  1  0
 18 21  1  0
 20 19  1  0
 21 17  1  0
 22 15  1  0
 23 24  2  0
 24 43  1  0
 25 24  1  0
 25 28  1  0
 26 23  1  0
 26 27  1  0
 27 25  2  0
 28 29  1  0
 29 30  2  0
 31 34  1  0
 31 30  1  0
 32 31  2  0
 33 32  1  0
 33 28  2  0
 34 35  1  0
 35 36  1  0
 36 37  2  0
 38 37  1  0
 38 42  1  0
 39 38  2  0
 40 35  2  0
 40 39  1  0
 41 40  1  0
 43 44  1  0
 44 47  1  0
 44 46  1  0
 45 43  2  0
 48 49  1  0
 48 23  1  0
 50 48  1  0
 52 51  1  0
 53 64  2  0
 54 52  1  0
 54 59  1  0
 55 63  1  0
 55 65  1  0
 56 62  1  0
 56 58  1  0
 57 63  1  0
 58 59  2  0
 58 57  1  0
 60 54  2  0
 61 60  1  0
 61 56  2  0
 62 55  1  0
 63 53  1  0
 65 67  2  0
 66 65  1  0
 68 66  1  0
 69 78  2  0
 69 74  1  0
 70 66  1  0
 70 74  1  0
 71 70  1  0
 72 73  1  0
 72 71  1  0
 73 69  1  0
 74 75  2  0
 75 76  1  0
 77 76  2  0
 78 77  1  0
 79 53  1  0
 79 80  1  0
 79 89  1  0
 80 83  1  0
 81 85  1  0
 81 80  1  0
 82 81  2  0
 85 84  1  0
 87 85  1  0
 87 88  1  0
 87 86  1  0
 89 92  1  1
 89 90  1  0
 91 89  1  0
M  ISO  4   1 100  22 100  51 101  52 101
M  END
>  <TORSDO>  (17) 
F 16

>  <SCORE>  (17) 
-15.870

>  <name>  (17) 
16

>  <ligand_id>  (17) 
16

>  <original_smiles>  (17) 
[H]c1c(N2C3([H])C([H])([H])N(C(=O)N4C([H])([H])C([H])([H])C([H])([H])C([H])(n5nc(-c6c([H])c([H])c(Oc7c([H])c([H])c(F)c([H])c7F)c([H])c6[H])c(C(=O)N([H])[H])c5N([H])[H])C4([H])[H])C([H])([H])C2([H])C([H])([H])C3([H])[H])nnc(C([H])([H])Oc2c([H])c([H])c3c(c2[H])C([H])([H])N(C(=O)C([H])(N([H])C(=O)C([H])(N([H])C([H])([H])[H])C([H])([H])[H])C(C([H])([H])[H])(C([H])([H])[H])C([H])([H])[H])C([H])(C(=O)N([H])C2([H])c4c([H])c([H])c([H])c([H])c4C([H])([H])C([H])([H])C2([H])[H])C3([H])[H])c1[H]

>  <smiles>  (17) 
[H]c1c(N2C3([H])C([H])([H])N(C(=O)N4C([H])([H])C([H])([H])C([H])([H])C([H])(n5nc(-c6c([H])c([H])c(Oc7c([H])c([H])c(F)c([H])c7F)c([H])c6[H])c(C(=O)N([H])[H])c5N([H])[H])C4([H])[H])C([H])([H])C2([H])C([H])([H])C3([H])[H])nnc(C([H])([H])Oc2c([H])c([H])c3c(c2[H])C([H])([H])N(C(=O)C([H])(N([H])C(=O)C([H])(N([H])C([H])([H])[H])C([H])([H])[H])C(C([H])([H])[H])(C([H])([H])[H])C([H])([H])[H])C([H])(C(=O)N([H])C2([H])c4c([H])c([H])c([H])c([H])c4C([H])([H])C([H])([H])C2([H])[H])C3([H])[H])c1[H]

$$$$
17:0:0
     RDKit          3D

 91101  0  0  1  0  0  0  0  0999 V2000
  -27.5370  -21.0100   19.8550 C   0  0  0  0  0  3  0  0  0  0  0  0
  -27.2320  -22.3600   19.7140 C   0  0  0  0  0  0  0  0  0  0  0  0
  -28.4060  -23.1390   19.9980 C   0  0  0  0  0  0  0  0  0  0  0  0
  -29.3710  -22.1300   20.2970 N   0  0  0  0  0  0  0  0  0  0  0  0
  -28.8620  -20.7700   20.1920 N   0  0  0  0  0  0  0  0  0  0  0  0
  -24.9750  -22.1140   18.3870 C   0  0  0  0  0  2  0  0  0  0  0  0
  -25.6660  -23.3460   17.8580 C   0  0  0  0  0  2  0  0  0  0  0  0
  -25.8960  -22.9100   19.2860 C   0  0  0  0  0  3  0  0  0  0  0  0
  -30.8270  -18.9230   20.3170 C   0  0  0  0  0  2  0  0  0  0  0  0
  -29.4250  -19.3390   20.7200 C   0  0  0  0  0  3  0  0  0  0  0  0
  -29.7770  -17.8930   19.8990 C   0  0  0  0  0  3  0  0  0  0  0  0
  -30.5530  -15.1810   20.0890 C   0  0  0  0  0  0  0  0  0  0  0  0
  -30.4390  -12.7990   19.1640 C   0  0  0  0  0  2  0  0  0  0  0  0
  -29.4760  -12.7390   17.9530 C   0  0  0  0  0  2  0  0  0  0  0  0
  -28.0250  -12.5120   18.4200 C   0  0  0  0  0  2  0  0  0  0  0  0
  -27.6480  -13.4210   19.6180 C   0  0  0  0  0  3  0  0  0  0  0  0
  -28.7360  -13.4440   20.7160 C   0  0  0  0  0  2  0  0  0  0  0  0
  -29.9820  -13.8940   20.0820 N   0  0  0  0  0  0  0  0  0  0  0  0
  -31.7160  -15.2470   19.6730 O   0  0  0  0  0  0  0  0  0  0  0  0
  -29.7920  -16.3720   20.3900 N   0  0  0  0  0  0  0  0  0  0  0  0
  -28.9170  -16.1240   20.8310 H   0  0  0  0  0  0  0  0  0  0  0  0
  -25.2970  -13.9850   20.4470 C   0  0  0  0  0  0  0  0  0  0  0  0
  -24.2430  -13.2070   20.8400 C   0  0  0  0  0  0  0  0  0  0  0  0
  -24.7030  -11.8560   20.7740 C   0  0  0  0  0  0  0  0  0  0  0  0
  -26.3290  -13.1090   20.1560 N   0  0  0  0  0  0  0  0  0  0  0  0
  -25.9840  -11.8220   20.4180 N   0  0  0  0  0  0  0  0  0  0  0  0
  -23.9790  -10.5930   20.9690 C   0  0  0  0  0  0  0  0  0  0  0  0
  -24.4230   -9.6210   21.8940 C   0  0  0  0  0  3  0  0  0  0  0  0
  -23.6960   -8.4240   22.0800 C   0  0  0  0  0  3  0  0  0  0  0  0
  -22.5110   -8.1920   21.3420 C   0  0  0  0  0  0  0  0  0  0  0  0
  -22.0850   -9.1530   20.4070 C   0  0  0  0  0  3  0  0  0  0  0  0
  -22.8130  -10.3400   20.2190 C   0  0  0  0  0  3  0  0  0  0  0  0
  -21.7540   -7.0490   21.4370 O   0  0  0  0  0  0  0  0  0  0  0  0
  -21.7040   -6.3130   22.5940 C   0  0  0  0  0  0  0  0  0  0  0  0
  -21.2510   -6.8670   23.8100 C   0  0  0  0  0  3  0  0  0  0  0  0
  -21.1500   -6.0560   24.9600 C   0  0  0  0  0  3  0  0  0  0  0  0
  -21.4930   -4.6920   24.8910 C   0  0  0  0  0  0  0  0  0  0  0  0
  -21.9380   -4.1380   23.6780 C   0  0  0  0  0  3  0  0  0  0  0  0
  -22.0400   -4.9460   22.5320 C   0  0  0  0  0  0  0  0  0  0  0  0
  -22.4500   -4.4010   21.3610 F   0  0  0  0  0  0  0  0  0  0  0  0
  -21.3890   -3.9120   25.9920 F   0  0  0  0  0  0  0  0  0  0  0  0
  -22.8570  -13.6860   21.1600 C   0  0  0  0  0  0  0  0  0  0  0  0
  -22.1520  -12.9790   22.0370 N   0  0  0  0  0  0  0  0  0  0  0  0
  -22.4100  -14.7210   20.6690 O   0  0  0  0  0  0  0  0  0  0  0  0
  -22.5270  -12.1430   22.4580 H   0  0  0  0  0  0  0  0  0  0  0  0
  -21.2230  -13.2820   22.2920 H   0  0  0  0  0  0  0  0  0  0  0  0
  -25.4580  -15.3580   20.2840 N   0  0  0  0  0  0  0  0  0  0  0  0
  -24.6940  -16.0110   20.4250 H   0  0  0  0  0  0  0  0  0  0  0  0
  -26.2870  -15.7970   19.9050 H   0  0  0  0  0  0  0  0  0  0  0  0
  -28.5660  -24.7870   19.6010 C   0  0  0  0  0  2  0  0  0  0  0  0
  -28.2970  -26.1540   20.3640 O   0  0  0  0  0  0  0  0  0  0  0  0
  -24.6150  -31.9110   23.2130 C   0  0  0  0  0  0  0  0  0  0  0  0
  -27.2530  -27.1610   20.1930 C   0  0  0  0  0  0  0  0  0  0  0  0
  -23.4390  -30.5030   21.5630 C   0  0  0  0  0  3  0  0  0  0  0  0
  -24.9130  -28.9290   20.1400 C   0  0  0  0  0  0  0  0  0  0  0  0
  -25.9940  -30.7700   21.4250 C   0  0  0  0  0  2  0  0  0  0  0  0
  -26.0810  -29.3730   20.7690 C   0  0  0  0  0  0  0  0  0  0  0  0
  -27.2420  -28.5000   20.7860 C   0  0  0  0  0  3  0  0  0  0  0  0
  -26.0620  -26.8400   19.5090 C   0  0  0  0  0  3  0  0  0  0  0  0
  -24.9210  -27.6810   19.4940 C   0  0  0  0  0  3  0  0  0  0  0  0
  -23.6770  -29.8220   20.1870 C   0  0  0  0  0  2  0  0  0  0  0  0
  -24.7020  -31.0870   22.1220 N   0  0  0  0  0  0  0  0  0  0  0  0
  -23.5220  -32.1890   23.7320 O   0  0  0  0  0  0  0  0  0  0  0  0
  -22.7570  -29.4980   22.5260 C   0  0  0  0  0  0  0  0  0  0  0  0
  -21.4280  -29.3290   22.4020 N   0  0  0  0  0  0  0  0  0  0  0  0
  -23.4290  -28.8690   23.3490 O   0  0  0  0  0  0  0  0  0  0  0  0
  -20.9430  -29.8870   21.7140 H   0  0  0  0  0  0  0  0  0  0  0  0
  -18.0460  -28.1350   22.9220 C   0  0  0  0  0  0  0  0  0  0  0  0
  -20.6070  -28.3880   23.1710 C   0  0  0  0  0  3  0  0  0  0  0  0
  -20.6990  -26.9620   22.5810 C   0  0  0  0  0  2  0  0  0  0  0  0
  -19.5890  -26.6510   21.5720 C   0  0  0  0  0  2  0  0  0  0  0  0
  -18.2130  -26.7920   22.2280 C   0  0  0  0  0  2  0  0  0  0  0  0
  -19.1700  -28.8900   23.3500 C   0  0  0  0  0  0  0  0  0  0  0  0
  -18.9570  -30.1450   23.9610 C   0  0  0  0  0  3  0  0  0  0  0  0
  -17.6540  -30.6440   24.1470 C   0  0  0  0  0  3  0  0  0  0  0  0
  -16.5450  -29.8860   23.7330 C   0  0  0  0  0  3  0  0  0  0  0  0
  -16.7410  -28.6330   23.1270 C   0  0  0  0  0  3  0  0  0  0  0  0
  -25.8810  -32.5600   23.8490 C   0  0  0  0  0  3  0  0  0  0  0  0
  -26.3780  -31.8070   25.1460 C   0  0  1  0  0  0  0  0  0  0  0  0
  -25.2670  -31.5810   26.1990 C   0  0  0  0  0  1  0  0  0  0  0  0
  -26.9730  -30.4270   24.7900 C   0  0  0  0  0  1  0  0  0  0  0  0
  -27.5140  -32.6140   25.8180 C   0  0  0  0  0  1  0  0  0  0  0  0
  -25.5580  -33.9600   24.1680 N   0  0  0  0  0  0  0  0  0  0  0  0
  -25.8950  -35.0160   23.4140 C   0  0  0  0  0  0  0  0  0  0  0  0
  -26.5750  -34.9130   22.3900 O   0  0  0  0  0  0  0  0  0  0  0  0
  -24.9540  -34.1130   24.9630 H   0  0  0  0  0  0  0  0  0  0  0  0
  -24.1710  -36.8130   23.0360 C   0  0  0  0  0  1  0  0  0  0  0  0
  -25.4000  -36.4050   23.8660 C   0  0  0  0  0  3  0  0  0  0  0  0
  -27.5170  -37.2990   24.7360 C   0  0  0  0  0  1  0  0  0  0  0  0
  -26.4340  -37.4600   23.7680 N   0  0  0  0  0  0  0  0  0  0  0  0
  -26.0230  -38.3800   23.9010 H   0  0  0  0  0  0  0  0  0  0  0  0
  1  5  1  0
  2  1  2  0
  2  3  1  0
  3  4  2  0
  5  4  1  0
  6  8  1  0
  7  6  1  0
  7  8  1  0
  8  2  1  0
  9 10  1  0
 10  5  1  0
 11  9  1  0
 11 20  1  0
 11 10  1  0
 12 20  1  0
 13 18  1  0
 14 15  1  0
 14 13  1  0
 16 15  1  0
 16 25  1  0
 16 17  1  0
 18 12  1  0
 18 17  1  0
 19 12  2  0
 20 21  1  0
 22 23  2  0
 23 42  1  0
 24 23  1  0
 24 27  1  0
 25 26  1  0
 25 22  1  0
 26 24  2  0
 27 28  1  0
 28 29  2  0
 30 33  1  0
 30 29  1  0
 31 30  2  0
 32 31  1  0
 32 27  2  0
 33 34  1  0
 34 35  1  0
 35 36  2  0
 37 36  1  0
 37 41  1  0
 38 37  2  0
 39 34  2  0
 39 38  1  0
 40 39  1  0
 42 43  1  0
 43 46  1  0
 43 45  1  0
 44 42  2  0
 47 48  1  0
 47 22  1  0
 49 47  1  0
 50  3  1  0
 50 51  1  0
 52 63  2  0
 53 51  1  0
 53 58  1  0
 54 62  1  0
 54 64  1  0
 55 61  1  0
 55 57  1  0
 56 62  1  0
 57 58  2  0
 57 56  1  0
 59 53  2  0
 60 59  1  0
 60 55  2  0
 61 54  1  0
 62 52  1  0
 64 66  2  0
 65 64  1  0
 67 65  1  0
 68 77  2  0
 68 73  1  0
 69 65  1  0
 69 73  1  0
 70 69  1  0
 71 72  1  0
 71 70  1  0
 72 68  1  0
 73 74  2  0
 74 75  1  0
 76 75  2  0
 77 76  1  0
 78 52  1  0
 78 83  1  0
 78 79  1  0
 79 82  1  1
 79 80  1  0
 81 79  1  0
 83 86  1  0
 84 88  1  0
 84 83  1  0
 85 84  2  0
 88 87  1  0
 90 88  1  0
 90 91  1  0
 90 89  1  0
M  ISO  4  12 100  20 100  50 101  51 101
M  END
>  <TORSDO>  (18) 
F 19

>  <SCORE>  (18) 
-14.854

>  <name>  (18) 
17

>  <ligand_id>  (18) 
17

>  <original_smiles>  (18) 
[H]c1c([H])c([H])c2c(c1[H])C([H])([H])C([H])([H])C([H])([H])C2([H])N([H])C(=O)C1([H])N(C(=O)C([H])(N([H])C(=O)C([H])(N([H])C([H])([H])[H])C([H])([H])[H])C(C([H])([H])[H])(C([H])([H])[H])C([H])([H])[H])C([H])([H])c2c([H])c(OC([H])([H])c3nn(C4([H])C([H])([H])C4([H])N([H])C(=O)N4C([H])([H])C([H])([H])C([H])([H])C([H])(n5nc(-c6c([H])c([H])c(Oc7c([H])c([H])c(F)c([H])c7F)c([H])c6[H])c(C(=O)N([H])[H])c5N([H])[H])C4([H])[H])c([H])c3C3([H])C([H])([H])C3([H])[H])c([H])c([H])c2C1([H])[H]

>  <smiles>  (18) 
[H]c1c([H])c([H])c2c(c1[H])C([H])([H])C([H])([H])C([H])([H])C2([H])N([H])C(=O)C1([H])N(C(=O)C([H])(N([H])C(=O)C([H])(N([H])C([H])([H])[H])C([H])([H])[H])C(C([H])([H])[H])(C([H])([H])[H])C([H])([H])[H])C([H])([H])c2c([H])c(OC([H])([H])c3nn(C4([H])C([H])([H])C4([H])N([H])C(=O)N4C([H])([H])C([H])([H])C([H])([H])C([H])(n5nc(-c6c([H])c([H])c(Oc7c([H])c([H])c(F)c([H])c7F)c([H])c6[H])c(C(=O)N([H])[H])c5N([H])[H])C4([H])[H])c([H])c3C3([H])C([H])([H])C3([H])[H])c([H])c([H])c2C1([H])[H]

$$$$
18:0:0
     RDKit          3D

 97107  0  0  1  0  0  0  0  0999 V2000
  -29.0240  -22.2120   22.7510 C   0  0  0  0  0  2  0  0  0  0  0  0
  -29.5460  -23.0960   20.4410 C   0  0  0  0  0  2  0  0  0  0  0  0
  -27.7310  -23.0430   22.7290 C   0  0  0  0  0  2  0  0  0  0  0  0
  -28.2700  -23.9370   20.5050 C   0  0  0  0  0  2  0  0  0  0  0  0
  -29.4460  -21.8400   21.3200 C   0  0  0  0  0  3  0  0  0  0  0  0
  -27.9150  -24.2750   21.9120 N   0  0  1  0  0  4  0  0  0  0  0  0
  -28.7100  -24.7660   22.2920 H   0  0  0  0  0  0  0  0  0  0  0  0
  -36.6590  -20.5850   19.7170 C   0  0  0  0  0  0  0  0  0  0  0  0
  -38.3350  -20.3310   17.9160 C   0  0  0  0  0  2  0  0  0  0  0  0
  -37.9170  -21.0880   16.6370 C   0  0  0  0  0  2  0  0  0  0  0  0
  -36.9520  -20.2600   15.7620 C   0  0  0  0  0  2  0  0  0  0  0  0
  -35.8050  -19.6210   16.5890 C   0  0  0  0  0  3  0  0  0  0  0  0
  -36.4290  -18.8890   17.7980 C   0  0  0  0  0  2  0  0  0  0  0  0
  -37.1220  -19.8920   18.6310 N   0  0  0  0  0  0  0  0  0  0  0  0
  -37.2570  -21.5910   20.1310 O   0  0  0  0  0  0  0  0  0  0  0  0
  -31.9200  -21.5300   21.8740 C   0  0  0  0  0  3  0  0  0  0  0  0
  -31.9250  -19.5160   19.9930 C   0  0  0  0  0  3  0  0  0  0  0  0
  -33.1480  -20.9570   21.5190 C   0  0  0  0  0  0  0  0  0  0  0  0
  -33.1480  -19.9510   20.5350 C   0  0  0  0  0  0  0  0  0  0  0  0
  -30.7510  -21.0780   21.2250 C   0  0  0  0  0  0  0  0  0  0  0  0
  -34.4610  -21.4280   22.1160 C   0  0  0  0  0  2  0  0  0  0  0  0
  -34.4440  -19.3920   19.9870 C   0  0  0  0  0  2  0  0  0  0  0  0
  -35.5650  -20.3730   21.9140 C   0  0  0  0  0  2  0  0  0  0  0  0
  -30.7490  -20.0740   20.3240 N   0  0  0  0  0  0  0  0  0  0  0  0
  -35.6820  -20.0200   20.4860 N   0  0  0  0  0  0  0  0  0  0  0  0
  -33.6240  -18.7970   15.4840 C   0  0  0  0  0  0  0  0  0  0  0  0
  -33.3740  -17.7640   14.6210 C   0  0  0  0  0  0  0  0  0  0  0  0
  -34.6310  -17.1150   14.4110 C   0  0  0  0  0  0  0  0  0  0  0  0
  -34.9800  -18.7340   15.7710 N   0  0  0  0  0  0  0  0  0  0  0  0
  -35.5730  -17.6840   15.1500 N   0  0  0  0  0  0  0  0  0  0  0  0
  -35.0050  -16.0210   13.5070 C   0  0  0  0  0  0  0  0  0  0  0  0
  -35.6490  -14.8580   13.9850 C   0  0  0  0  0  3  0  0  0  0  0  0
  -35.9840  -13.8120   13.0990 C   0  0  0  0  0  3  0  0  0  0  0  0
  -35.6730  -13.9200   11.7230 C   0  0  0  0  0  0  0  0  0  0  0  0
  -35.0510  -15.0890   11.2500 C   0  0  0  0  0  3  0  0  0  0  0  0
  -34.7240  -16.1320   12.1320 C   0  0  0  0  0  3  0  0  0  0  0  0
  -35.9860  -12.9640   10.7860 O   0  0  0  0  0  0  0  0  0  0  0  0
  -36.1060  -11.6400   11.1230 C   0  0  0  0  0  0  0  0  0  0  0  0
  -35.0490  -10.9290   11.7330 C   0  0  0  0  0  3  0  0  0  0  0  0
  -35.1880   -9.5510   11.9990 C   0  0  0  0  0  3  0  0  0  0  0  0
  -36.3770   -8.8840   11.6480 C   0  0  0  0  0  0  0  0  0  0  0  0
  -37.4290   -9.5890   11.0370 C   0  0  0  0  0  3  0  0  0  0  0  0
  -37.2920  -10.9630   10.7740 C   0  0  0  0  0  0  0  0  0  0  0  0
  -38.2990  -11.6350   10.1650 F   0  0  0  0  0  0  0  0  0  0  0  0
  -36.5100   -7.5600   11.8960 F   0  0  0  0  0  0  0  0  0  0  0  0
  -32.0680  -17.4460   13.9500 C   0  0  0  0  0  0  0  0  0  0  0  0
  -31.7920  -16.1690   13.7140 N   0  0  0  0  0  0  0  0  0  0  0  0
  -31.2600  -18.3320   13.6740 O   0  0  0  0  0  0  0  0  0  0  0  0
  -32.4410  -15.4370   13.9620 H   0  0  0  0  0  0  0  0  0  0  0  0
  -30.9150  -15.9220   13.2800 H   0  0  0  0  0  0  0  0  0  0  0  0
  -32.8200  -19.7920   16.0340 N   0  0  0  0  0  0  0  0  0  0  0  0
  -31.8350  -19.8810   15.8080 H   0  0  0  0  0  0  0  0  0  0  0  0
  -33.1690  -20.5560   16.5990 H   0  0  0  0  0  0  0  0  0  0  0  0
  -26.7770  -25.2250   21.9880 C   0  0  0  0  0  2  0  0  0  0  0  0
  -25.5710  -25.4320   24.2540 C   0  0  0  0  0  1  0  0  0  0  0  0
  -26.6840  -25.9760   23.3470 C   0  0  0  0  0  3  0  0  0  0  0  0
  -26.5850  -27.4050   23.2050 O   0  0  0  0  0  0  0  0  0  0  0  0
  -21.9550  -26.6230   17.8750 C   0  0  0  0  0  0  0  0  0  0  0  0
  -26.0900  -27.8840   22.0160 C   0  0  0  0  0  0  0  0  0  0  0  0
  -23.7570  -28.2800   17.5090 C   0  0  0  0  0  3  0  0  0  0  0  0
  -25.1270  -28.8940   19.5680 C   0  0  0  0  0  0  0  0  0  0  0  0
  -22.9190  -27.7600   19.8660 C   0  0  0  0  0  2  0  0  0  0  0  0
  -24.3120  -28.0760   20.3600 C   0  0  0  0  0  0  0  0  0  0  0  0
  -24.7870  -27.5650   21.5880 C   0  0  0  0  0  3  0  0  0  0  0  0
  -26.8870  -28.7450   21.2330 C   0  0  0  0  0  3  0  0  0  0  0  0
  -26.4210  -29.2320   19.9990 C   0  0  0  0  0  3  0  0  0  0  0  0
  -24.5460  -29.3840   18.2620 C   0  0  0  0  0  2  0  0  0  0  0  0
  -22.8520  -27.4960   18.4110 N   0  0  0  0  0  0  0  0  0  0  0  0
  -21.8380  -26.4990   16.6480 O   0  0  0  0  0  0  0  0  0  0  0  0
  -24.7650  -27.4010   16.7380 C   0  0  0  0  0  0  0  0  0  0  0  0
  -25.2740  -27.9270   15.6120 N   0  0  0  0  0  0  0  0  0  0  0  0
  -25.0950  -26.2910   17.1650 O   0  0  0  0  0  0  0  0  0  0  0  0
  -24.9460  -28.8390   15.3270 H   0  0  0  0  0  0  0  0  0  0  0  0
  -27.2230  -28.3810   12.6010 C   0  0  0  0  0  0  0  0  0  0  0  0
  -26.2670  -27.2970   14.7440 C   0  0  0  0  0  3  0  0  0  0  0  0
  -27.6930  -27.4430   15.3270 C   0  0  0  0  0  2  0  0  0  0  0  0
  -28.4570  -28.6600   14.7950 C   0  0  0  0  0  2  0  0  0  0  0  0
  -28.5700  -28.5930   13.2690 C   0  0  0  0  0  2  0  0  0  0  0  0
  -26.1380  -27.7820   13.2970 C   0  0  0  0  0  0  0  0  0  0  0  0
  -24.9010  -27.6300   12.6360 C   0  0  0  0  0  3  0  0  0  0  0  0
  -24.7360  -28.0560   11.3050 C   0  0  0  0  0  3  0  0  0  0  0  0
  -25.8150  -28.6370   10.6180 C   0  0  0  0  0  3  0  0  0  0  0  0
  -27.0540  -28.7960   11.2640 C   0  0  0  0  0  3  0  0  0  0  0  0
  -21.0150  -25.7590   18.7740 C   0  0  0  0  0  3  0  0  0  0  0  0
  -19.7560  -25.5740   18.0440 N   0  0  0  0  0  0  0  0  0  0  0  0
  -18.6680  -26.3420   18.1980 C   0  0  0  0  0  0  0  0  0  0  0  0
  -18.5970  -27.2450   19.0390 O   0  0  0  0  0  0  0  0  0  0  0  0
  -19.7560  -24.8890   17.3030 H   0  0  0  0  0  0  0  0  0  0  0  0
  -17.4780  -27.0590   16.1020 C   0  0  0  0  0  1  0  0  0  0  0  0
  -17.4680  -26.0640   17.2720 C   0  0  0  0  0  3  0  0  0  0  0  0
  -15.9680  -25.0390   18.9220 C   0  0  0  0  0  1  0  0  0  0  0  0
  -16.1640  -26.1250   17.9660 N   0  0  0  0  0  0  0  0  0  0  0  0
  -15.3980  -26.1040   17.2990 H   0  0  0  0  0  0  0  0  0  0  0  0
  -21.6430  -24.3680   19.1740 C   0  0  1  0  0  0  0  0  0  0  0  0
  -22.2020  -23.5730   17.9710 C   0  0  0  0  0  1  0  0  0  0  0  0
  -22.7990  -24.5640   20.1840 C   0  0  0  0  0  1  0  0  0  0  0  0
  -20.5790  -23.4870   19.8720 C   0  0  0  0  0  1  0  0  0  0  0  0
  2  4  1  0
  2  5  1  0
  3  1  1  0
  4  6  1  0
  5 20  1  0
  5  1  1  0
  6 54  1  0
  6  7  1  1
  6  3  1  0
  8 15  2  0
  8 25  1  0
  9 14  1  0
 10  9  1  0
 11 10  1  0
 12 11  1  0
 12 13  1  0
 13 14  1  0
 14  8  1  0
 17 24  2  0
 17 19  1  0
 18 16  1  0
 18 21  1  0
 19 18  2  0
 20 16  2  0
 22 25  1  0
 22 19  1  0
 23 21  1  0
 24 20  1  0
 25 23  1  0
 26 29  1  0
 26 51  1  0
 27 26  2  0
 28 27  1  0
 28 30  2  0
 29 12  1  0
 30 29  1  0
 31 32  1  0
 31 28  1  0
 33 32  2  0
 34 33  1  0
 35 34  2  0
 35 36  1  0
 36 31  2  0
 37 38  1  0
 37 34  1  0
 38 39  1  0
 39 40  2  0
 41 45  1  0
 41 40  1  0
 42 41  2  0
 43 42  1  0
 43 38  2  0
 44 43  1  0
 46 27  1  0
 47 46  1  0
 47 49  1  0
 48 46  2  0
 50 47  1  0
 51 53  1  0
 52 51  1  0
 54 56  1  0
 56 55  1  0
 57 56  1  0
 58 68  1  0
 59 57  1  0
 60 70  1  0
 60 67  1  0
 60 68  1  0
 61 66  2  0
 61 63  1  0
 62 63  1  0
 63 64  2  0
 64 59  1  0
 65 59  2  0
 66 65  1  0
 67 61  1  0
 68 62  1  0
 69 58  2  0
 70 72  2  0
 71 70  1  0
 73 71  1  0
 74 78  1  0
 74 79  1  0
 75 76  1  0
 75 71  1  0
 77 76  1  0
 78 77  1  0
 79 75  1  0
 80 79  2  0
 81 80  1  0
 82 83  1  0
 82 81  2  0
 83 74  2  0
 84 58  1  0
 84 94  1  0
 85 86  1  0
 85 84  1  0
 86 87  2  0
 88 85  1  0
 90 89  1  0
 90 92  1  0
 90 86  1  0
 92 91  1  0
 93 92  1  0
 94 97  1  1
 94 96  1  0
 95 94  1  0
M  ISO  4   8 100  25 100  56 101  57 101
M  END
>  <TORSDO>  (19) 
F 18

>  <SCORE>  (19) 
-4.743

>  <name>  (19) 
18

>  <ligand_id>  (19) 
18

>  <original_smiles>  (19) 
[H]c1nc(C2([H])C([H])([H])C([H])([H])[N+]([H])(C([H])([H])C([H])(Oc3c([H])c([H])c4c(c3[H])C([H])([H])N(C(=O)C([H])(N([H])C(=O)C([H])(N([H])C([H])([H])[H])C([H])([H])[H])C(C([H])([H])[H])(C([H])([H])[H])C([H])([H])[H])C([H])(C(=O)N([H])C3([H])c5c([H])c([H])c([H])c([H])c5C([H])([H])C([H])([H])C3([H])[H])C4([H])[H])C([H])([H])[H])C([H])([H])C2([H])[H])c([H])c2c1C([H])([H])N(C(=O)N1C([H])([H])C([H])([H])C([H])([H])C([H])(n3nc(-c4c([H])c([H])c(Oc5c([H])c([H])c(F)c([H])c5F)c([H])c4[H])c(C(=O)N([H])[H])c3N([H])[H])C1([H])[H])C([H])([H])C2([H])[H]

>  <smiles>  (19) 
[H]c1nc(C2([H])C([H])([H])C([H])([H])[N+]([H])(C([H])([H])C([H])(Oc3c([H])c([H])c4c(c3[H])C([H])([H])N(C(=O)C([H])(N([H])C(=O)C([H])(N([H])C([H])([H])[H])C([H])([H])[H])C(C([H])([H])[H])(C([H])([H])[H])C([H])([H])[H])C([H])(C(=O)N([H])C3([H])c5c([H])c([H])c([H])c([H])c5C([H])([H])C([H])([H])C3([H])[H])C4([H])[H])C([H])([H])[H])C([H])([H])C2([H])[H])c([H])c2c1C([H])([H])N(C(=O)N1C([H])([H])C([H])([H])C([H])([H])C([H])(n3nc(-c4c([H])c([H])c(Oc5c([H])c([H])c(F)c([H])c5F)c([H])c4[H])c(C(=O)N([H])[H])c3N([H])[H])C1([H])[H])C([H])([H])C2([H])[H]

$$$$
19:0:0
     RDKit          3D

 99109  0  0  1  0  0  0  0  0999 V2000
  -30.6740  -23.7340   21.6050 C   0  0  0  0  0  2  0  0  0  0  0  0
  -32.6500  -23.7440   19.9160 C   0  0  0  0  0  2  0  0  0  0  0  0
  -30.5470  -25.2290   21.2480 C   0  0  0  0  0  2  0  0  0  0  0  0
  -32.2370  -25.1910   19.5010 C   0  0  0  0  0  2  0  0  0  0  0  0
  -31.6020  -22.8870   20.6950 C   0  0  0  0  0  3  0  0  0  0  0  0
  -30.8320  -25.5520   19.8240 N   0  0  2  0  0  4  0  0  0  0  0  0
  -30.2120  -24.9860   19.2560 H   0  0  0  0  0  0  0  0  0  0  0  0
  -32.2290  -21.7160   21.4040 N   0  0  0  0  0  4  0  0  0  0  0  0
  -32.7430  -21.1760   20.7250 H   0  0  0  0  0  0  0  0  0  0  0  0
  -32.9040  -22.0750   22.0600 H   0  0  0  0  0  0  0  0  0  0  0  0
  -32.0220  -20.0710   23.3350 C   0  0  0  0  0  2  0  0  0  0  0  0
  -32.1170  -18.5730   22.9820 C   0  0  0  0  0  2  0  0  0  0  0  0
  -30.9330  -19.5670   21.2570 C   0  0  0  0  0  2  0  0  0  0  0  0
  -31.3400  -20.7600   22.1360 C   0  0  0  0  0  3  0  0  0  0  0  0
  -30.9930  -18.3460   22.0690 N   0  0  0  0  0  0  0  0  0  0  0  0
  -31.0590  -17.1260   21.2310 C   0  0  0  0  0  2  0  0  0  0  0  0
  -30.4170  -14.1550   20.1040 C   0  0  0  0  0  0  0  0  0  0  0  0
  -30.3260  -11.8270   19.2410 C   0  0  0  0  0  2  0  0  0  0  0  0
  -29.3470  -11.8010   18.0520 C   0  0  0  0  0  2  0  0  0  0  0  0
  -27.8940  -11.5940   18.5210 C   0  0  0  0  0  2  0  0  0  0  0  0
  -27.5250  -12.5470   19.6880 C   0  0  0  0  0  3  0  0  0  0  0  0
  -28.6100  -12.5280   20.7880 C   0  0  0  0  0  2  0  0  0  0  0  0
  -29.8870  -12.8980   20.1520 N   0  0  0  0  0  0  0  0  0  0  0  0
  -31.5310  -14.3840   19.6170 O   0  0  0  0  0  0  0  0  0  0  0  0
  -28.4810  -16.9130   20.4870 C   0  0  0  0  0  2  0  0  0  0  0  0
  -28.8860  -15.9520   19.3860 C   0  0  0  0  0  2  0  0  0  0  0  0
  -29.6910  -16.3830   21.2700 C   0  0  0  0  0  3  0  0  0  0  0  0
  -29.5470  -15.1450   20.4350 N   0  0  0  0  0  0  0  0  0  0  0  0
  -25.1450  -13.1930   20.4540 C   0  0  0  0  0  0  0  0  0  0  0  0
  -24.0830  -12.4410   20.8620 C   0  0  0  0  0  0  0  0  0  0  0  0
  -24.5370  -11.0840   20.8490 C   0  0  0  0  0  0  0  0  0  0  0  0
  -26.1820  -12.3020   20.2140 N   0  0  0  0  0  0  0  0  0  0  0  0
  -25.8200  -11.0280   20.5120 N   0  0  0  0  0  0  0  0  0  0  0  0
  -23.8170   -9.8320   21.0940 C   0  0  0  0  0  0  0  0  0  0  0  0
  -24.2500   -8.9180   22.0810 C   0  0  0  0  0  3  0  0  0  0  0  0
  -23.5360   -7.7270   22.3100 C   0  0  0  0  0  3  0  0  0  0  0  0
  -22.3770   -7.4390   21.5510 C   0  0  0  0  0  0  0  0  0  0  0  0
  -21.9600   -8.3420   20.5570 C   0  0  0  0  0  3  0  0  0  0  0  0
  -22.6750   -9.5290   20.3250 C   0  0  0  0  0  3  0  0  0  0  0  0
  -21.6370   -6.2870   21.6850 O   0  0  0  0  0  0  0  0  0  0  0  0
  -21.5650   -5.6160   22.8810 C   0  0  0  0  0  0  0  0  0  0  0  0
  -21.0690   -6.2350   24.0480 C   0  0  0  0  0  3  0  0  0  0  0  0
  -20.9390   -5.4910   25.2380 C   0  0  0  0  0  3  0  0  0  0  0  0
  -21.2920   -4.1280   25.2570 C   0  0  0  0  0  0  0  0  0  0  0  0
  -21.7890   -3.5110   24.0950 C   0  0  0  0  0  3  0  0  0  0  0  0
  -21.9190   -4.2520   22.9070 C   0  0  0  0  0  0  0  0  0  0  0  0
  -22.3770   -3.6500   21.7830 F   0  0  0  0  0  0  0  0  0  0  0  0
  -21.1590   -3.4120   26.3940 F   0  0  0  0  0  0  0  0  0  0  0  0
  -22.6950  -12.9320   21.1690 C   0  0  0  0  0  0  0  0  0  0  0  0
  -21.9870  -12.2690   22.0730 N   0  0  0  0  0  0  0  0  0  0  0  0
  -22.2480  -13.9510   20.6410 O   0  0  0  0  0  0  0  0  0  0  0  0
  -22.3680  -11.4600   22.5380 H   0  0  0  0  0  0  0  0  0  0  0  0
  -21.0590  -12.5900   22.3180 H   0  0  0  0  0  0  0  0  0  0  0  0
  -25.3070  -14.5580   20.2440 N   0  0  0  0  0  0  0  0  0  0  0  0
  -24.5250  -15.1910   20.3510 H   0  0  0  0  0  0  0  0  0  0  0  0
  -26.1640  -14.9930   19.9310 H   0  0  0  0  0  0  0  0  0  0  0  0
  -30.5530  -26.9720   19.4250 C   0  0  0  0  0  2  0  0  0  0  0  0
  -29.4640  -27.7020   20.2180 C   0  0  0  0  0  2  0  0  0  0  0  0
  -28.2280  -27.0550   19.8990 O   0  0  0  0  0  0  0  0  0  0  0  0
  -24.5170  -32.0270   23.3990 C   0  0  0  0  0  0  0  0  0  0  0  0
  -27.0730  -27.7800   20.0470 C   0  0  0  0  0  0  0  0  0  0  0  0
  -23.2470  -30.6940   21.7410 C   0  0  0  0  0  3  0  0  0  0  0  0
  -24.6480  -29.2200   20.2040 C   0  0  0  0  0  0  0  0  0  0  0  0
  -25.7540  -31.0760   21.4700 C   0  0  0  0  0  2  0  0  0  0  0  0
  -25.8120  -29.7370   20.7790 C   0  0  0  0  0  0  0  0  0  0  0  0
  -27.0160  -29.0230   20.7170 C   0  0  0  0  0  3  0  0  0  0  0  0
  -25.8880  -27.2590   19.4770 C   0  0  0  0  0  3  0  0  0  0  0  0
  -24.6760  -27.9680   19.5570 C   0  0  0  0  0  3  0  0  0  0  0  0
  -23.4040  -30.0690   20.3280 C   0  0  0  0  0  2  0  0  0  0  0  0
  -24.5260  -31.2770   22.2610 N   0  0  0  0  0  0  0  0  0  0  0  0
  -23.4570  -32.2790   23.9860 O   0  0  0  0  0  0  0  0  0  0  0  0
  -22.6280  -29.6310   22.6760 C   0  0  0  0  0  0  0  0  0  0  0  0
  -21.3130  -29.4070   22.5320 N   0  0  0  0  0  0  0  0  0  0  0  0
  -23.3260  -29.0160   23.4840 O   0  0  0  0  0  0  0  0  0  0  0  0
  -20.8080  -29.9650   21.8590 H   0  0  0  0  0  0  0  0  0  0  0  0
  -17.9930  -28.0500   22.9130 C   0  0  0  0  0  0  0  0  0  0  0  0
  -20.5220  -28.4310   23.2750 C   0  0  0  0  0  3  0  0  0  0  0  0
  -20.7120  -27.0060   22.7050 C   0  0  0  0  0  2  0  0  0  0  0  0
  -19.6650  -26.6300   21.6530 C   0  0  0  0  0  2  0  0  0  0  0  0
  -18.2560  -26.7110   22.2480 C   0  0  0  0  0  2  0  0  0  0  0  0
  -19.0570  -28.8670   23.3770 C   0  0  0  0  0  0  0  0  0  0  0  0
  -18.7550  -30.1240   23.9490 C   0  0  0  0  0  3  0  0  0  0  0  0
  -17.4230  -30.5630   24.0670 C   0  0  0  0  0  3  0  0  0  0  0  0
  -16.3740  -29.7420   23.6210 C   0  0  0  0  0  3  0  0  0  0  0  0
  -16.6590  -28.4900   23.0500 C   0  0  0  0  0  3  0  0  0  0  0  0
  -25.8280  -32.6220   23.9990 C   0  0  0  0  0  3  0  0  0  0  0  0
  -25.5590  -34.0190   24.3530 N   0  0  0  0  0  0  0  0  0  0  0  0
  -25.9050  -35.0710   23.6000 C   0  0  0  0  0  0  0  0  0  0  0  0
  -26.5530  -34.9700   22.5550 O   0  0  0  0  0  0  0  0  0  0  0  0
  -24.9820  -34.1780   25.1670 H   0  0  0  0  0  0  0  0  0  0  0  0
  -24.1990  -36.8940   23.2990 C   0  0  0  0  0  1  0  0  0  0  0  0
  -25.4510  -36.4630   24.0820 C   0  0  0  0  0  3  0  0  0  0  0  0
  -27.6220  -37.2950   24.8710 C   0  0  0  0  0  1  0  0  0  0  0  0
  -26.5000  -37.4990   23.9590 N   0  0  0  0  0  0  0  0  0  0  0  0
  -26.1120  -38.4220   24.1400 H   0  0  0  0  0  0  0  0  0  0  0  0
  -26.3610  -31.8220   25.2500 C   0  0  1  0  0  0  0  0  0  0  0  0
  -25.2820  -31.5570   26.3270 C   0  0  0  0  0  1  0  0  0  0  0  0
  -26.9370  -30.4540   24.8180 C   0  0  0  0  0  1  0  0  0  0  0  0
  -27.5210  -32.5980   25.9180 C   0  0  0  0  0  1  0  0  0  0  0  0
  2  5  1  0
  3  1  1  0
  4  6  1  0
  4  2  1  0
  5  8  1  0
  5  1  1  0
  6  3  1  0
  6  7  1  6
  8 10  1  0
  9  8  1  0
 12 11  1  0
 13 15  1  0
 13 14  1  0
 14  8  1  0
 14 11  1  0
 15 12  1  0
 16 15  1  0
 17 23  1  0
 17 28  1  0
 18 23  1  0
 19 20  1  0
 19 18  1  0
 21 20  1  0
 21 32  1  0
 21 22  1  0
 23 22  1  0
 24 17  2  0
 25 27  1  0
 26 28  1  0
 26 25  1  0
 27 16  1  0
 28 27  1  0
 29 30  2  0
 30 49  1  0
 31 30  1  0
 31 34  1  0
 32 29  1  0
 32 33  1  0
 33 31  2  0
 34 35  1  0
 35 36  2  0
 37 40  1  0
 37 36  1  0
 38 37  2  0
 39 38  1  0
 39 34  2  0
 40 41  1  0
 41 46  2  0
 41 42  1  0
 42 43  2  0
 43 44  1  0
 44 48  1  0
 45 44  2  0
 46 45  1  0
 47 46  1  0
 49 50  1  0
 50 53  1  0
 50 52  1  0
 51 49  2  0
 54 55  1  0
 54 29  1  0
 56 54  1  0
 57  6  1  0
 57 58  1  0
 59 61  1  0
 59 58  1  0
 60 71  2  0
 61 66  1  0
 62 70  1  0
 62 72  1  0
 63 69  1  0
 63 65  1  0
 64 70  1  0
 65 64  1  0
 66 65  2  0
 67 68  1  0
 67 61  2  0
 68 63  2  0
 69 62  1  0
 70 60  1  0
 72 74  2  0
 73 72  1  0
 75 73  1  0
 76 85  2  0
 76 81  1  0
 77 73  1  0
 77 81  1  0
 78 77  1  0
 79 80  1  0
 79 78  1  0
 80 76  1  0
 81 82  2  0
 82 83  1  0
 84 83  2  0
 85 84  1  0
 86 60  1  0
 86 87  1  0
 86 96  1  0
 87 90  1  0
 88 92  1  0
 88 87  1  0
 89 88  2  0
 92 91  1  0
 94 92  1  0
 94 95  1  0
 94 93  1  0
 96 99  1  1
 96 97  1  0
 98 96  1  0
M  ISO  4  17 100  28 100  58 101  59 101
M  END
>  <TORSDO>  (20) 
F 21

>  <SCORE>  (20) 
-11.864

>  <name>  (20) 
19

>  <ligand_id>  (20) 
19

>  <original_smiles>  (20) 
[H]c1c([H])c([H])c2c(c1[H])C([H])([H])C([H])([H])C([H])([H])C2([H])N([H])C(=O)C1([H])N(C(=O)C([H])(N([H])C(=O)C([H])(N([H])C([H])([H])[H])C([H])([H])[H])C(C([H])([H])[H])(C([H])([H])[H])C([H])([H])[H])C([H])([H])c2c([H])c(OC([H])([H])C([H])([H])[N+]3([H])C([H])([H])C([H])([H])C([H])([N+]([H])([H])C4([H])C([H])([H])N(C([H])([H])C5([H])N(C(=O)N6C([H])([H])C([H])([H])C([H])([H])C([H])(n7nc(-c8c([H])c([H])c(Oc9c([H])c([H])c(F)c([H])c9F)c([H])c8[H])c(C(=O)N([H])[H])c7N([H])[H])C6([H])[H])C([H])([H])C5([H])[H])C([H])([H])C4([H])[H])C([H])([H])C3([H])[H])c([H])c([H])c2C1([H])[H]

>  <smiles>  (20) 
[H]c1c([H])c([H])c2c(c1[H])C([H])([H])C([H])([H])C([H])([H])C2([H])N([H])C(=O)C1([H])N(C(=O)C([H])(N([H])C(=O)C([H])(N([H])C([H])([H])[H])C([H])([H])[H])C(C([H])([H])[H])(C([H])([H])[H])C([H])([H])[H])C([H])([H])c2c([H])c(OC([H])([H])C([H])([H])[N+]3([H])C([H])([H])C([H])([H])C([H])([N+]([H])([H])C4([H])C([H])([H])N(C([H])([H])C5([H])N(C(=O)N6C([H])([H])C([H])([H])C([H])([H])C([H])(n7nc(-c8c([H])c([H])c(Oc9c([H])c([H])c(F)c([H])c9F)c([H])c8[H])c(C(=O)N([H])[H])c7N([H])[H])C6([H])[H])C([H])([H])C5([H])[H])C([H])([H])C4([H])[H])C([H])([H])C3([H])[H])c([H])c([H])c2C1([H])[H]

$$$$
20:0:0
     RDKit          3D

 95105  0  0  1  0  0  0  0  0999 V2000
  -29.4440  -24.2750   22.8560 C   0  0  0  0  0  2  0  0  0  0  0  0
  -30.6110  -23.3060   22.7520 C   0  0  0  0  0  2  0  0  0  0  0  0
  -28.9420  -20.7270   22.1680 C   0  0  0  0  0  2  0  0  0  0  0  0
  -28.8860  -20.4980   20.6410 C   0  0  0  0  0  3  0  0  0  0  0  0
  -29.5240  -21.7600   19.9080 C   0  0  0  0  0  3  0  0  0  0  0  0
  -29.3380  -23.0460   21.9880 C   0  0  2  0  0  0  0  0  0  0  0  0
  -29.2330  -21.7920   18.3980 C   0  0  0  0  0  1  0  0  0  0  0  0
  -29.2710  -23.1080   20.5340 N   0  0  0  0  0  0  0  0  0  0  0  0
  -28.4740  -22.0350   22.4820 O   0  0  0  0  0  0  0  0  0  0  0  0
  -30.8670  -14.8740   19.9450 C   0  0  0  0  0  0  0  0  0  0  0  0
  -30.5320  -12.6150   18.9510 C   0  0  0  0  0  2  0  0  0  0  0  0
  -29.5330  -12.6640   17.7780 C   0  0  0  0  0  2  0  0  0  0  0  0
  -28.0950  -12.4700   18.2920 C   0  0  0  0  0  2  0  0  0  0  0  0
  -27.7780  -13.3730   19.5100 C   0  0  0  0  0  3  0  0  0  0  0  0
  -28.9030  -13.3270   20.5750 C   0  0  0  0  0  2  0  0  0  0  0  0
  -30.1530  -13.6930   19.8990 N   0  0  0  0  0  0  0  0  0  0  0  0
  -32.0400  -14.8500   19.5600 O   0  0  0  0  0  0  0  0  0  0  0  0
  -28.9010  -16.5440   20.0510 C   0  0  0  0  0  2  0  0  0  0  0  0
  -31.2360  -17.2930   20.2440 C   0  0  0  0  0  2  0  0  0  0  0  0
  -28.4550  -17.9870   20.5050 C   0  0  0  0  0  2  0  0  0  0  0  0
  -30.7290  -18.6770   20.7750 C   0  0  0  0  0  2  0  0  0  0  0  0
  -30.3090  -16.1190   20.2600 N   0  0  0  0  0  0  0  0  0  0  0  0
  -29.4090  -19.1030   20.2300 N   0  0  2  0  0  4  0  0  0  0  0  0
  -29.5080  -19.1340   19.2260 H   0  0  0  0  0  0  0  0  0  0  0  0
  -25.4450  -13.9670   20.3990 C   0  0  0  0  0  0  0  0  0  0  0  0
  -24.4020  -13.1890   20.8200 C   0  0  0  0  0  0  0  0  0  0  0  0
  -24.8560  -11.8370   20.7260 C   0  0  0  0  0  0  0  0  0  0  0  0
  -26.4680  -13.0880   20.0790 N   0  0  0  0  0  0  0  0  0  0  0  0
  -26.1240  -11.8020   20.3360 N   0  0  0  0  0  0  0  0  0  0  0  0
  -24.1380  -10.5730   20.9230 C   0  0  0  0  0  0  0  0  0  0  0  0
  -24.5760   -9.6130   21.8610 C   0  0  0  0  0  3  0  0  0  0  0  0
  -23.8580   -8.4120   22.0440 C   0  0  0  0  0  3  0  0  0  0  0  0
  -22.6870   -8.1640   21.2870 C   0  0  0  0  0  0  0  0  0  0  0  0
  -22.2710   -9.1130   20.3370 C   0  0  0  0  0  3  0  0  0  0  0  0
  -22.9890  -10.3050   20.1520 C   0  0  0  0  0  3  0  0  0  0  0  0
  -21.9400   -7.0160   21.3820 O   0  0  0  0  0  0  0  0  0  0  0  0
  -21.8240   -6.3280   22.5620 C   0  0  0  0  0  0  0  0  0  0  0  0
  -21.3100   -6.9330   23.7300 C   0  0  0  0  0  3  0  0  0  0  0  0
  -21.1430   -6.1700   24.9040 C   0  0  0  0  0  3  0  0  0  0  0  0
  -21.4820   -4.8040   24.9100 C   0  0  0  0  0  0  0  0  0  0  0  0
  -21.9900   -4.1990   23.7470 C   0  0  0  0  0  3  0  0  0  0  0  0
  -22.1580   -4.9590   22.5770 C   0  0  0  0  0  0  0  0  0  0  0  0
  -22.6270   -4.3660   21.4520 F   0  0  0  0  0  0  0  0  0  0  0  0
  -21.3150   -4.0690   26.0340 F   0  0  0  0  0  0  0  0  0  0  0  0
  -23.0260  -13.6640   21.1860 C   0  0  0  0  0  0  0  0  0  0  0  0
  -22.3500  -12.9530   22.0810 N   0  0  0  0  0  0  0  0  0  0  0  0
  -22.5620  -14.7010   20.7120 O   0  0  0  0  0  0  0  0  0  0  0  0
  -22.7370  -12.1150   22.4860 H   0  0  0  0  0  0  0  0  0  0  0  0
  -21.4280  -13.2550   22.3670 H   0  0  0  0  0  0  0  0  0  0  0  0
  -25.5930  -15.3400   20.2300 N   0  0  0  0  0  0  0  0  0  0  0  0
  -24.7910  -15.9530   20.3290 H   0  0  0  0  0  0  0  0  0  0  0  0
  -26.3260  -15.7390   19.6610 H   0  0  0  0  0  0  0  0  0  0  0  0
  -28.2600  -24.1150   20.0630 C   0  0  0  0  0  2  0  0  0  0  0  0
  -28.8340  -25.4520   19.4170 C   0  0  0  0  0  2  0  0  0  0  0  0
  -28.6690  -26.7670   20.0600 O   0  0  0  0  0  0  0  0  0  0  0  0
  -24.7010  -31.8350   23.2210 C   0  0  0  0  0  0  0  0  0  0  0  0
  -27.4880  -27.5110   20.0070 C   0  0  0  0  0  0  0  0  0  0  0  0
  -23.5500  -30.4530   21.5260 C   0  0  0  0  0  3  0  0  0  0  0  0
  -25.0570  -29.0100   20.0470 C   0  0  0  0  0  0  0  0  0  0  0  0
  -26.0700  -30.8800   21.3570 C   0  0  0  0  0  2  0  0  0  0  0  0
  -26.2010  -29.5310   20.6630 C   0  0  0  0  0  0  0  0  0  0  0  0
  -27.4160  -28.7910   20.6340 C   0  0  0  0  0  3  0  0  0  0  0  0
  -26.3200  -27.0280   19.3770 C   0  0  0  0  0  3  0  0  0  0  0  0
  -25.1170  -27.7640   19.3970 C   0  0  0  0  0  3  0  0  0  0  0  0
  -23.7890  -29.8330   20.1230 C   0  0  0  0  0  2  0  0  0  0  0  0
  -24.7920  -31.0730   22.0920 N   0  0  0  0  0  0  0  0  0  0  0  0
  -23.6080  -32.0530   23.7640 O   0  0  0  0  0  0  0  0  0  0  0  0
  -22.9260  -29.3780   22.4490 C   0  0  0  0  0  0  0  0  0  0  0  0
  -21.6130  -29.1390   22.2940 N   0  0  0  0  0  0  0  0  0  0  0  0
  -23.6240  -28.7640   23.2600 O   0  0  0  0  0  0  0  0  0  0  0  0
  -21.1070  -29.6910   21.6150 H   0  0  0  0  0  0  0  0  0  0  0  0
  -18.2980  -27.7490   22.6840 C   0  0  0  0  0  0  0  0  0  0  0  0
  -20.8310  -28.1410   23.0250 C   0  0  0  0  0  3  0  0  0  0  0  0
  -21.0270  -26.7320   22.4230 C   0  0  0  0  0  2  0  0  0  0  0  0
  -19.9700  -26.3710   21.3750 C   0  0  0  0  0  2  0  0  0  0  0  0
  -18.5670  -26.4260   21.9860 C   0  0  0  0  0  2  0  0  0  0  0  0
  -19.3630  -28.5610   23.1580 C   0  0  0  0  0  0  0  0  0  0  0  0
  -19.0600  -29.7980   23.7690 C   0  0  0  0  0  3  0  0  0  0  0  0
  -17.7260  -30.2230   23.9120 C   0  0  0  0  0  3  0  0  0  0  0  0
  -16.6750  -29.4080   23.4560 C   0  0  0  0  0  3  0  0  0  0  0  0
  -16.9630  -28.1730   22.8470 C   0  0  0  0  0  3  0  0  0  0  0  0
  -25.9600  -32.4920   23.8680 C   0  0  0  0  0  3  0  0  0  0  0  0
  -25.6160  -33.8820   24.1990 N   0  0  0  0  0  0  0  0  0  0  0  0
  -25.9290  -34.9430   23.4440 C   0  0  0  0  0  0  0  0  0  0  0  0
  -26.6100  -34.8560   22.4180 O   0  0  0  0  0  0  0  0  0  0  0  0
  -25.0120  -34.0220   24.9960 H   0  0  0  0  0  0  0  0  0  0  0  0
  -24.1580  -36.6940   23.0900 C   0  0  0  0  0  1  0  0  0  0  0  0
  -25.4100  -36.3200   23.9000 C   0  0  0  0  0  3  0  0  0  0  0  0
  -27.5180  -37.2660   24.7340 C   0  0  0  0  0  1  0  0  0  0  0  0
  -26.4180  -37.3960   23.7820 N   0  0  0  0  0  0  0  0  0  0  0  0
  -25.9920  -38.3090   23.9140 H   0  0  0  0  0  0  0  0  0  0  0  0
  -26.4690  -31.7250   25.1510 C   0  0  1  0  0  0  0  0  0  0  0  0
  -25.3630  -31.4580   26.1960 C   0  0  0  0  0  1  0  0  0  0  0  0
  -27.0920  -30.3630   24.7650 C   0  0  0  0  0  1  0  0  0  0  0  0
  -27.5860  -32.5430   25.8400 C   0  0  0  0  0  1  0  0  0  0  0  0
  2  1  1  0
  3  9  1  0
  4  3  1  0
  5  7  1  0
  5  8  1  0
  5  4  1  0
  6  9  1  0
  6  2  1  6
  6  1  1  0
  8  6  1  0
 10 22  1  0
 11 16  1  0
 12 13  1  0
 12 11  1  0
 14 13  1  0
 14 28  1  0
 14 15  1  0
 16 10  1  0
 16 15  1  0
 17 10  2  0
 18 22  1  0
 18 20  1  0
 19 22  1  0
 19 21  1  0
 23 24  1  6
 23 20  1  0
 23  4  1  0
 23 21  1  0
 25 26  2  0
 26 45  1  0
 27 26  1  0
 27 30  1  0
 28 29  1  0
 28 25  1  0
 29 27  2  0
 30 31  1  0
 31 32  2  0
 33 36  1  0
 33 32  1  0
 34 33  2  0
 35 34  1  0
 35 30  2  0
 36 37  1  0
 37 42  2  0
 37 38  1  0
 38 39  2  0
 39 40  1  0
 40 44  1  0
 41 40  2  0
 42 41  1  0
 43 42  1  0
 45 46  1  0
 46 49  1  0
 46 48  1  0
 47 45  2  0
 50 51  1  0
 50 25  1  0
 52 50  1  0
 53  8  1  0
 54 55  1  0
 54 53  1  0
 56 67  2  0
 57 55  1  0
 57 62  1  0
 58 66  1  0
 58 68  1  0
 59 65  1  0
 59 61  1  0
 60 66  1  0
 61 60  1  0
 62 61  2  0
 63 64  1  0
 63 57  2  0
 64 59  2  0
 65 58  1  0
 66 56  1  0
 68 70  2  0
 69 68  1  0
 71 69  1  0
 72 81  2  0
 72 77  1  0
 73 69  1  0
 73 77  1  0
 74 73  1  0
 75 76  1  0
 75 74  1  0
 76 72  1  0
 77 78  2  0
 78 79  1  0
 80 79  2  0
 81 80  1  0
 82 56  1  0
 82 83  1  0
 82 92  1  0
 83 86  1  0
 84 88  1  0
 84 83  1  0
 85 84  2  0
 88 87  1  0
 90 88  1  0
 90 91  1  0
 90 89  1  0
 92 95  1  1
 92 93  1  0
 94 92  1  0
M  ISO  4  10 100  22 100  54 101  55 101
M  END
>  <TORSDO>  (21) 
F 18

>  <SCORE>  (21) 
-13.419

>  <name>  (21) 
20

>  <ligand_id>  (21) 
20

>  <original_smiles>  (21) 
[H]c1c([H])c([H])c2c(c1[H])C([H])([H])C([H])([H])C([H])([H])C2([H])N([H])C(=O)C1([H])N(C(=O)C([H])(N([H])C(=O)C([H])(N([H])C([H])([H])[H])C([H])([H])[H])C(C([H])([H])[H])(C([H])([H])[H])C([H])([H])[H])C([H])([H])c2c([H])c(OC([H])([H])C([H])([H])N3C([H])(C([H])([H])[H])C([H])([N+]4([H])C([H])([H])C([H])([H])N(C(=O)N5C([H])([H])C([H])([H])C([H])([H])C([H])(n6nc(-c7c([H])c([H])c(Oc8c([H])c([H])c(F)c([H])c8F)c([H])c7[H])c(C(=O)N([H])[H])c6N([H])[H])C5([H])[H])C([H])([H])C4([H])[H])C([H])([H])OC34C([H])([H])C4([H])[H])c([H])c([H])c2C1([H])[H]

>  <smiles>  (21) 
[H]c1c([H])c([H])c2c(c1[H])C([H])([H])C([H])([H])C([H])([H])C2([H])N([H])C(=O)C1([H])N(C(=O)C([H])(N([H])C(=O)C([H])(N([H])C([H])([H])[H])C([H])([H])[H])C(C([H])([H])[H])(C([H])([H])[H])C([H])([H])[H])C([H])([H])c2c([H])c(OC([H])([H])C([H])([H])N3C([H])(C([H])([H])[H])C([H])([N+]4([H])C([H])([H])C([H])([H])N(C(=O)N5C([H])([H])C([H])([H])C([H])([H])C([H])(n6nc(-c7c([H])c([H])c(Oc8c([H])c([H])c(F)c([H])c8F)c([H])c7[H])c(C(=O)N([H])[H])c6N([H])[H])C5([H])[H])C([H])([H])C4([H])[H])C([H])([H])OC34C([H])([H])C4([H])[H])c([H])c([H])c2C1([H])[H]

$$$$
21:0:0
     RDKit          3D

 98108  0  0  1  0  0  0  0  0999 V2000
  -32.0050  -22.2490   20.8060 C   0  0  0  0  0  3  0  0  0  0  0  0
  -30.9290  -21.3970   20.5040 C   0  0  0  0  0  0  0  0  0  0  0  0
  -31.1580  -19.9990   20.6230 C   0  0  0  0  0  0  0  0  0  0  0  0
  -33.3270  -20.4730   21.2880 C   0  0  0  0  0  0  0  0  0  0  0  0
  -30.7360  -17.7700   19.6200 C   0  0  0  0  0  2  0  0  0  0  0  0
  -29.7230  -18.1440   21.3620 C   0  0  0  0  0  2  0  0  0  0  0  0
  -29.5360  -17.0690   20.2750 C   0  0  0  0  0  3  0  0  0  0  0  0
  -33.2070  -21.7850   21.1820 N   0  0  0  0  0  0  0  0  0  0  0  0
  -32.3690  -19.5850   21.0530 N   0  0  0  0  0  0  0  0  0  0  0  0
  -30.2110  -18.9860   20.2650 N   0  0  0  0  0  0  0  0  0  0  0  0
  -30.4500  -14.7100   20.1590 C   0  0  0  0  0  0  0  0  0  0  0  0
  -30.1950  -12.5850   18.9330 C   0  0  0  0  0  2  0  0  0  0  0  0
  -29.1620  -12.8130   17.8080 C   0  0  0  0  0  2  0  0  0  0  0  0
  -27.7280  -12.5780   18.3230 C   0  0  0  0  0  2  0  0  0  0  0  0
  -27.4430  -13.3200   19.6580 C   0  0  0  0  0  3  0  0  0  0  0  0
  -28.5850  -13.0840   20.6770 C   0  0  0  0  0  2  0  0  0  0  0  0
  -29.8540  -13.4910   20.0450 N   0  0  0  0  0  0  0  0  0  0  0  0
  -31.5180  -14.9840   19.6060 O   0  0  0  0  0  0  0  0  0  0  0  0
  -29.6840  -15.6650   20.7230 N   0  0  0  0  0  0  0  0  0  0  0  0
  -28.8770  -15.2960   21.2020 H   0  0  0  0  0  0  0  0  0  0  0  0
  -25.0730  -13.7680   20.5540 C   0  0  0  0  0  0  0  0  0  0  0  0
  -24.0700  -12.9250   20.9540 C   0  0  0  0  0  0  0  0  0  0  0  0
  -24.5930  -11.6020   20.8230 C   0  0  0  0  0  0  0  0  0  0  0  0
  -26.1390  -12.9530   20.2090 N   0  0  0  0  0  0  0  0  0  0  0  0
  -25.8580  -11.6420   20.4270 N   0  0  0  0  0  0  0  0  0  0  0  0
  -23.9410  -10.2960   20.9920 C   0  0  0  0  0  0  0  0  0  0  0  0
  -24.3770   -9.3790   21.9730 C   0  0  0  0  0  3  0  0  0  0  0  0
  -23.7240   -8.1370   22.1320 C   0  0  0  0  0  3  0  0  0  0  0  0
  -22.6240   -7.8010   21.3090 C   0  0  0  0  0  0  0  0  0  0  0  0
  -22.2080   -8.7080   20.3190 C   0  0  0  0  0  3  0  0  0  0  0  0
  -22.8610   -9.9420   20.1570 C   0  0  0  0  0  3  0  0  0  0  0  0
  -21.9460   -6.6080   21.3760 O   0  0  0  0  0  0  0  0  0  0  0  0
  -21.7230   -5.9700   22.5710 C   0  0  0  0  0  0  0  0  0  0  0  0
  -21.0050   -6.5840   23.6200 C   0  0  0  0  0  3  0  0  0  0  0  0
  -20.7390   -5.8680   24.8050 C   0  0  0  0  0  3  0  0  0  0  0  0
  -21.1790   -4.5380   24.9390 C   0  0  0  0  0  0  0  0  0  0  0  0
  -21.8880   -3.9230   23.8920 C   0  0  0  0  0  3  0  0  0  0  0  0
  -22.1560   -4.6370   22.7100 C   0  0  0  0  0  0  0  0  0  0  0  0
  -22.8210   -4.0310   21.6970 F   0  0  0  0  0  0  0  0  0  0  0  0
  -20.9170   -3.8470   26.0720 F   0  0  0  0  0  0  0  0  0  0  0  0
  -22.6730  -13.3130   21.3400 C   0  0  0  0  0  0  0  0  0  0  0  0
  -22.0460  -12.5520   22.2310 N   0  0  0  0  0  0  0  0  0  0  0  0
  -22.1430  -14.3270   20.8870 O   0  0  0  0  0  0  0  0  0  0  0  0
  -22.4870  -11.7320   22.6210 H   0  0  0  0  0  0  0  0  0  0  0  0
  -21.1100  -12.7920   22.5270 H   0  0  0  0  0  0  0  0  0  0  0  0
  -25.1620  -15.1530   20.4380 N   0  0  0  0  0  0  0  0  0  0  0  0
  -24.3760  -15.7660   20.6260 H   0  0  0  0  0  0  0  0  0  0  0  0
  -25.9630  -15.6420   20.0590 H   0  0  0  0  0  0  0  0  0  0  0  0
  -35.1290  -19.6650   23.0100 C   0  0  0  0  0  2  0  0  0  0  0  0
  -35.7770  -20.7750   22.2250 C   0  0  0  0  0  2  0  0  0  0  0  0
  -34.6960  -19.9290   21.5840 C   0  0  0  0  0  3  0  0  0  0  0  0
  -29.6320  -22.0030   19.9290 C   0  0  0  0  0  2  0  0  0  0  0  0
  -28.9480  -23.0620   20.7310 N   0  0  0  0  0  4  0  0  0  0  0  0
  -28.9080  -22.8130   21.7060 H   0  0  0  0  0  0  0  0  0  0  0  0
  -27.9910  -23.0220   20.4100 H   0  0  0  0  0  0  0  0  0  0  0  0
  -29.3580  -24.4940   20.5510 C   0  0  0  0  0  2  0  0  0  0  0  0
  -28.1120  -25.4020   20.3530 C   0  0  0  0  0  2  0  0  0  0  0  0
  -28.3110  -26.8340   20.4180 O   0  0  0  0  0  0  0  0  0  0  0  0
  -24.5860  -32.0790   23.5250 C   0  0  0  0  0  0  0  0  0  0  0  0
  -27.1560  -27.6090   20.3970 C   0  0  0  0  0  0  0  0  0  0  0  0
  -23.3520  -30.7050   21.8830 C   0  0  0  0  0  3  0  0  0  0  0  0
  -24.7770  -29.1650   20.4370 C   0  0  0  0  0  0  0  0  0  0  0  0
  -25.8840  -31.0300   21.6730 C   0  0  0  0  0  2  0  0  0  0  0  0
  -25.9500  -29.6630   21.0200 C   0  0  0  0  0  0  0  0  0  0  0  0
  -27.1410  -28.8950   20.9940 C   0  0  0  0  0  3  0  0  0  0  0  0
  -25.9580  -27.1420   19.7990 C   0  0  0  0  0  3  0  0  0  0  0  0
  -24.7790  -27.9030   19.8250 C   0  0  0  0  0  3  0  0  0  0  0  0
  -23.5450  -30.0390   20.4980 C   0  0  0  0  0  2  0  0  0  0  0  0
  -24.6260  -31.2850   22.4180 N   0  0  0  0  0  0  0  0  0  0  0  0
  -23.5110  -32.3600   24.0760 O   0  0  0  0  0  0  0  0  0  0  0  0
  -22.6930  -29.6840   22.8400 C   0  0  0  0  0  0  0  0  0  0  0  0
  -21.3930  -29.4180   22.6330 N   0  0  0  0  0  0  0  0  0  0  0  0
  -23.3530  -29.1320   23.7260 O   0  0  0  0  0  0  0  0  0  0  0  0
  -20.9190  -29.9200   21.8960 H   0  0  0  0  0  0  0  0  0  0  0  0
  -18.1060  -27.9320   22.8650 C   0  0  0  0  0  0  0  0  0  0  0  0
  -20.5810  -28.4630   23.3890 C   0  0  0  0  0  3  0  0  0  0  0  0
  -20.8780  -27.0100   22.9530 C   0  0  0  0  0  2  0  0  0  0  0  0
  -19.9350  -26.5020   21.8580 C   0  0  0  0  0  2  0  0  0  0  0  0
  -18.4800  -26.5590   22.3320 C   0  0  0  0  0  2  0  0  0  0  0  0
  -19.0940  -28.8300   23.3470 C   0  0  0  0  0  0  0  0  0  0  0  0
  -18.6950  -30.1080   23.7980 C   0  0  0  0  0  3  0  0  0  0  0  0
  -17.3410  -30.4890   23.7750 C   0  0  0  0  0  3  0  0  0  0  0  0
  -16.3650  -29.5900   23.3120 C   0  0  0  0  0  3  0  0  0  0  0  0
  -16.7480  -28.3130   22.8610 C   0  0  0  0  0  3  0  0  0  0  0  0
  -25.8820  -32.6920   24.1390 C   0  0  0  0  0  3  0  0  0  0  0  0
  -25.6090  -34.1050   24.4330 N   0  0  0  0  0  0  0  0  0  0  0  0
  -25.9600  -35.1280   23.6410 C   0  0  0  0  0  0  0  0  0  0  0  0
  -26.6200  -34.9790   22.6100 O   0  0  0  0  0  0  0  0  0  0  0  0
  -25.0220  -34.2950   25.2320 H   0  0  0  0  0  0  0  0  0  0  0  0
  -24.2610  -36.9410   23.2540 C   0  0  0  0  0  1  0  0  0  0  0  0
  -25.5060  -36.5390   24.0620 C   0  0  0  0  0  3  0  0  0  0  0  0
  -27.6680  -37.4090   24.8340 C   0  0  0  0  0  1  0  0  0  0  0  0
  -26.5560  -37.5680   23.8990 N   0  0  0  0  0  0  0  0  0  0  0  0
  -26.1710  -38.5010   24.0180 H   0  0  0  0  0  0  0  0  0  0  0  0
  -26.3720  -31.9380   25.4370 C   0  0  1  0  0  0  0  0  0  0  0  0
  -25.2580  -31.7220   26.4880 C   0  0  0  0  0  1  0  0  0  0  0  0
  -26.9570  -30.5520   25.0780 C   0  0  0  0  0  1  0  0  0  0  0  0
  -27.5110  -32.7400   26.1080 C   0  0  0  0  0  1  0  0  0  0  0  0
  1  8  1  0
  2  3  1  0
  2  1  2  0
  3  9  2  0
  4 51  1  0
  5 10  1  0
  5  7  1  0
  7 19  1  0
  7  6  1  0
  8  4  2  0
  9  4  1  0
 10  3  1  0
 10  6  1  0
 11 19  1  0
 12 17  1  0
 13 14  1  0
 13 12  1  0
 15 14  1  0
 15 24  1  0
 15 16  1  0
 17 11  1  0
 17 16  1  0
 18 11  2  0
 19 20  1  0
 21 22  2  0
 22 41  1  0
 23 22  1  0
 23 26  1  0
 24 25  1  0
 24 21  1  0
 25 23  2  0
 26 27  1  0
 27 28  2  0
 29 32  1  0
 29 28  1  0
 30 29  2  0
 31 30  1  0
 31 26  2  0
 32 33  1  0
 33 38  2  0
 33 34  1  0
 34 35  2  0
 35 36  1  0
 36 40  1  0
 37 36  2  0
 38 37  1  0
 39 38  1  0
 41 42  1  0
 42 45  1  0
 42 44  1  0
 43 41  2  0
 46 21  1  0
 46 47  1  0
 48 46  1  0
 50 49  1  0
 51 50  1  0
 51 49  1  0
 52  2  1  0
 52 53  1  0
 53 54  1  0
 55 53  1  0
 56 53  1  0
 57 58  1  0
 57 56  1  0
 59 70  2  0
 60 58  1  0
 60 65  1  0
 61 69  1  0
 61 71  1  0
 62 68  1  0
 62 64  1  0
 63 69  1  0
 64 63  1  0
 65 64  2  0
 66 67  1  0
 66 60  2  0
 67 62  2  0
 68 61  1  0
 69 59  1  0
 71 73  2  0
 72 71  1  0
 74 72  1  0
 75 80  1  0
 76 72  1  0
 77 76  1  0
 78 79  1  0
 78 77  1  0
 79 75  1  0
 80 76  1  0
 80 81  2  0
 82 81  1  0
 83 82  2  0
 84 75  2  0
 84 83  1  0
 85 59  1  0
 85 86  1  0
 85 95  1  0
 86 89  1  0
 87 91  1  0
 87 86  1  0
 88 87  2  0
 91 90  1  0
 93 94  1  0
 93 91  1  0
 93 92  1  0
 95 98  1  1
 95 96  1  0
 97 95  1  0
M  ISO  4  11 100  19 100  57 101  58 101
M  END
>  <TORSDO>  (22) 
F 21

>  <SCORE>  (22) 
-12.432

>  <name>  (22) 
21

>  <ligand_id>  (22) 
21

>  <original_smiles>  (22) 
[H]c1nc(C2([H])C([H])([H])C2([H])[H])nc(N2C([H])([H])C([H])(N([H])C(=O)N3C([H])([H])C([H])([H])C([H])([H])C([H])(n4nc(-c5c([H])c([H])c(Oc6c([H])c([H])c(F)c([H])c6F)c([H])c5[H])c(C(=O)N([H])[H])c4N([H])[H])C3([H])[H])C2([H])[H])c1C([H])([H])[N+]([H])([H])C([H])([H])C([H])([H])Oc1c([H])c([H])c2c(c1[H])C([H])([H])N(C(=O)C([H])(N([H])C(=O)C([H])(N([H])C([H])([H])[H])C([H])([H])[H])C(C([H])([H])[H])(C([H])([H])[H])C([H])([H])[H])C([H])(C(=O)N([H])C1([H])c3c([H])c([H])c([H])c([H])c3C([H])([H])C([H])([H])C1([H])[H])C2([H])[H]

>  <smiles>  (22) 
[H]c1nc(C2([H])C([H])([H])C2([H])[H])nc(N2C([H])([H])C([H])(N([H])C(=O)N3C([H])([H])C([H])([H])C([H])([H])C([H])(n4nc(-c5c([H])c([H])c(Oc6c([H])c([H])c(F)c([H])c6F)c([H])c5[H])c(C(=O)N([H])[H])c4N([H])[H])C3([H])[H])C2([H])[H])c1C([H])([H])[N+]([H])([H])C([H])([H])C([H])([H])Oc1c([H])c([H])c2c(c1[H])C([H])([H])N(C(=O)C([H])(N([H])C(=O)C([H])(N([H])C([H])([H])[H])C([H])([H])[H])C(C([H])([H])[H])(C([H])([H])[H])C([H])([H])[H])C([H])(C(=O)N([H])C1([H])c3c([H])c([H])c([H])c([H])c3C([H])([H])C([H])([H])C1([H])[H])C2([H])[H]

$$$$
22:0:0
     RDKit          3D

 88 97  0  0  1  0  0  0  0  0999 V2000
  -28.7040  -22.1980   19.1120 C   0  0  0  0  0  3  0  0  0  0  0  0
  -28.6700  -22.4190   21.3940 C   0  0  0  0  0  3  0  0  0  0  0  0
  -28.4990  -23.1470   20.1730 C   0  0  0  0  0  0  0  0  0  0  0  0
  -29.1540  -20.2370   20.4370 C   0  0  0  0  0  0  0  0  0  0  0  0
  -29.0110  -20.8390   19.2350 N   0  0  0  0  0  0  0  0  0  0  0  0
  -28.9870  -21.0600   21.5070 N   0  0  0  0  0  0  0  0  0  0  0  0
  -30.5930  -15.0830   20.2980 C   0  0  0  0  0  0  0  0  0  0  0  0
  -30.3850  -12.7280   19.3770 C   0  0  0  0  0  2  0  0  0  0  0  0
  -29.4600  -12.6350   18.1450 C   0  0  0  0  0  2  0  0  0  0  0  0
  -28.0050  -12.4160   18.5930 C   0  0  0  0  0  2  0  0  0  0  0  0
  -27.5910  -13.3670   19.7460 C   0  0  0  0  0  3  0  0  0  0  0  0
  -28.6500  -13.4640   20.8660 C   0  0  0  0  0  2  0  0  0  0  0  0
  -29.9040  -13.8690   20.2230 N   0  0  0  0  0  0  0  0  0  0  0  0
  -31.8040  -15.0140   20.0630 O   0  0  0  0  0  0  0  0  0  0  0  0
  -28.7420  -17.2020   20.4930 C   0  0  0  0  0  2  0  0  0  0  0  0
  -30.7120  -17.7360   20.0530 C   0  0  0  0  0  2  0  0  0  0  0  0
  -29.5250  -18.6030   20.6330 C   0  0  0  0  0  3  0  0  0  0  0  0
  -30.0310  -16.4100   20.3540 N   0  0  0  0  0  0  0  0  0  0  0  0
  -25.2220  -13.9260   20.5150 C   0  0  0  0  0  0  0  0  0  0  0  0
  -24.1630  -13.1440   20.8840 C   0  0  0  0  0  0  0  0  0  0  0  0
  -24.6310  -11.7940   20.8410 C   0  0  0  0  0  0  0  0  0  0  0  0
  -26.2650  -13.0540   20.2610 N   0  0  0  0  0  0  0  0  0  0  0  0
  -25.9220  -11.7660   20.5250 N   0  0  0  0  0  0  0  0  0  0  0  0
  -23.9080  -10.5290   21.0230 C   0  0  0  0  0  0  0  0  0  0  0  0
  -24.3280   -9.5640   21.9650 C   0  0  0  0  0  3  0  0  0  0  0  0
  -23.6010   -8.3670   22.1360 C   0  0  0  0  0  3  0  0  0  0  0  0
  -22.4400   -8.1250   21.3660 C   0  0  0  0  0  0  0  0  0  0  0  0
  -22.0380   -9.0780   20.4140 C   0  0  0  0  0  3  0  0  0  0  0  0
  -22.7650  -10.2670   20.2410 C   0  0  0  0  0  3  0  0  0  0  0  0
  -21.6860   -6.9790   21.4470 O   0  0  0  0  0  0  0  0  0  0  0  0
  -21.6040   -6.2510   22.6070 C   0  0  0  0  0  0  0  0  0  0  0  0
  -21.1080   -6.8110   23.8050 C   0  0  0  0  0  3  0  0  0  0  0  0
  -20.9760   -6.0090   24.9550 C   0  0  0  0  0  3  0  0  0  0  0  0
  -21.3280   -4.6470   24.9090 C   0  0  0  0  0  0  0  0  0  0  0  0
  -21.8170   -4.0860   23.7160 C   0  0  0  0  0  3  0  0  0  0  0  0
  -21.9500   -4.8860   22.5680 C   0  0  0  0  0  0  0  0  0  0  0  0
  -22.4010   -4.3340   21.4150 F   0  0  0  0  0  0  0  0  0  0  0  0
  -21.1940   -3.8750   26.0130 F   0  0  0  0  0  0  0  0  0  0  0  0
  -22.7660  -13.6160   21.1600 C   0  0  0  0  0  0  0  0  0  0  0  0
  -22.0440  -12.9180   22.0260 N   0  0  0  0  0  0  0  0  0  0  0  0
  -22.3250  -14.6420   20.6430 O   0  0  0  0  0  0  0  0  0  0  0  0
  -22.4150  -12.0880   22.4670 H   0  0  0  0  0  0  0  0  0  0  0  0
  -21.1060  -13.2160   22.2560 H   0  0  0  0  0  0  0  0  0  0  0  0
  -25.3820  -15.2970   20.3470 N   0  0  0  0  0  0  0  0  0  0  0  0
  -24.6140  -15.9500   20.4620 H   0  0  0  0  0  0  0  0  0  0  0  0
  -26.2270  -15.7360   20.0060 H   0  0  0  0  0  0  0  0  0  0  0  0
  -27.7630  -24.6350   19.9540 C   0  0  0  0  0  2  0  0  0  0  0  0
  -28.1770  -26.1260   20.2460 O   0  0  0  0  0  0  0  0  0  0  0  0
  -24.6240  -31.9120   23.2370 C   0  0  0  0  0  0  0  0  0  0  0  0
  -27.1720  -27.1790   20.1650 C   0  0  0  0  0  0  0  0  0  0  0  0
  -23.4220  -30.5350   21.5890 C   0  0  0  0  0  3  0  0  0  0  0  0
  -24.8650  -28.9740   20.1460 C   0  0  0  0  0  0  0  0  0  0  0  0
  -25.9820  -30.7800   21.4330 C   0  0  0  0  0  2  0  0  0  0  0  0
  -26.0500  -29.3930   20.7640 C   0  0  0  0  0  0  0  0  0  0  0  0
  -27.2040  -28.5120   20.7590 C   0  0  0  0  0  3  0  0  0  0  0  0
  -25.9630  -26.8910   19.4900 C   0  0  0  0  0  3  0  0  0  0  0  0
  -24.8390  -27.7390   19.4910 C   0  0  0  0  0  3  0  0  0  0  0  0
  -23.6420  -29.8770   20.2040 C   0  0  0  0  0  2  0  0  0  0  0  0
  -24.6960  -31.0980   22.1410 N   0  0  0  0  0  0  0  0  0  0  0  0
  -23.5380  -32.1950   23.7680 O   0  0  0  0  0  0  0  0  0  0  0  0
  -22.7400  -29.5190   22.5410 C   0  0  0  0  0  0  0  0  0  0  0  0
  -21.4110  -29.3490   22.4120 N   0  0  0  0  0  0  0  0  0  0  0  0
  -23.4100  -28.8860   23.3640 O   0  0  0  0  0  0  0  0  0  0  0  0
  -20.9260  -29.9090   21.7250 H   0  0  0  0  0  0  0  0  0  0  0  0
  -18.0280  -28.1470   22.9080 C   0  0  0  0  0  0  0  0  0  0  0  0
  -20.5880  -28.4070   23.1760 C   0  0  0  0  0  3  0  0  0  0  0  0
  -20.6890  -26.9780   22.5920 C   0  0  0  0  0  2  0  0  0  0  0  0
  -19.5860  -26.6620   21.5770 C   0  0  0  0  0  2  0  0  0  0  0  0
  -18.2040  -26.8030   22.2210 C   0  0  0  0  0  2  0  0  0  0  0  0
  -19.1460  -28.9060   23.3430 C   0  0  0  0  0  0  0  0  0  0  0  0
  -18.9260  -30.1620   23.9480 C   0  0  0  0  0  3  0  0  0  0  0  0
  -17.6210  -30.6600   24.1210 C   0  0  0  0  0  3  0  0  0  0  0  0
  -16.5170  -29.8980   23.7020 C   0  0  0  0  0  3  0  0  0  0  0  0
  -16.7220  -28.6420   23.1010 C   0  0  0  0  0  3  0  0  0  0  0  0
  -25.9020  -32.5420   23.8690 C   0  0  0  0  0  3  0  0  0  0  0  0
  -25.5910  -33.9390   24.2120 N   0  0  0  0  0  0  0  0  0  0  0  0
  -25.8940  -35.0010   23.4520 C   0  0  0  0  0  0  0  0  0  0  0  0
  -26.5310  -34.9060   22.4000 O   0  0  0  0  0  0  0  0  0  0  0  0
  -25.0210  -34.0840   25.0320 H   0  0  0  0  0  0  0  0  0  0  0  0
  -24.1340  -36.7790   23.1840 C   0  0  0  0  0  1  0  0  0  0  0  0
  -25.4150  -36.3840   23.9350 C   0  0  0  0  0  3  0  0  0  0  0  0
  -27.5750  -37.2950   24.6710 C   0  0  0  0  0  1  0  0  0  0  0  0
  -26.4320  -37.4470   23.7740 N   0  0  0  0  0  0  0  0  0  0  0  0
  -26.0240  -38.3630   23.9350 H   0  0  0  0  0  0  0  0  0  0  0  0
  -26.4100  -31.7640   25.1450 C   0  0  1  0  0  0  0  0  0  0  0  0
  -25.3100  -31.5240   26.2050 C   0  0  0  0  0  1  0  0  0  0  0  0
  -26.9940  -30.3860   24.7560 C   0  0  0  0  0  1  0  0  0  0  0  0
  -27.5590  -32.5530   25.8160 C   0  0  0  0  0  1  0  0  0  0  0  0
  1  5  1  0
  1  3  2  0
  2  6  2  0
  3  2  1  0
  4  6  1  0
  5  4  2  0
  7 18  1  0
  8 13  1  0
  9 10  1  0
  9  8  1  0
 11 10  1  0
 11 22  1  0
 11 12  1  0
 13  7  1  0
 13 12  1  0
 14  7  2  0
 15 17  1  0
 16 18  1  0
 16 17  1  0
 17  4  1  0
 18 15  1  0
 19 20  2  0
 20 39  1  0
 21 20  1  0
 21 24  1  0
 22 19  1  0
 22 23  1  0
 23 21  2  0
 24 25  1  0
 25 26  2  0
 27 30  1  0
 27 26  1  0
 28 27  2  0
 29 28  1  0
 29 24  2  0
 30 31  1  0
 31 32  1  0
 32 33  2  0
 34 33  1  0
 34 38  1  0
 35 34  2  0
 36 31  2  0
 36 35  1  0
 37 36  1  0
 39 40  1  0
 40 43  1  0
 40 42  1  0
 41 39  2  0
 44 45  1  0
 44 19  1  0
 46 44  1  0
 47  3  1  0
 47 48  1  0
 49 60  2  0
 50 48  1  0
 50 55  1  0
 51 59  1  0
 51 61  1  0
 52 58  1  0
 52 54  1  0
 53 59  1  0
 54 53  1  0
 55 54  2  0
 56 57  1  0
 56 50  2  0
 57 52  2  0
 58 51  1  0
 59 49  1  0
 61 63  2  0
 62 61  1  0
 64 62  1  0
 65 74  2  0
 65 70  1  0
 66 62  1  0
 66 70  1  0
 67 66  1  0
 68 69  1  0
 68 67  1  0
 69 65  1  0
 70 71  2  0
 71 72  1  0
 73 72  2  0
 74 73  1  0
 75 49  1  0
 75 76  1  0
 75 85  1  0
 76 79  1  0
 77 81  1  0
 77 76  1  0
 78 77  2  0
 81 80  1  0
 83 81  1  0
 83 84  1  0
 83 82  1  0
 85 88  1  1
 85 86  1  0
 87 85  1  0
M  ISO  4   7 100  18 100  47 101  48 101
M  END
>  <TORSDO>  (23) 
F 17

>  <SCORE>  (23) 
-15.210

>  <name>  (23) 
22

>  <ligand_id>  (23) 
22

>  <original_smiles>  (23) 
[H]c1nc(C2([H])C([H])([H])N(C(=O)N3C([H])([H])C([H])([H])C([H])([H])C([H])(n4nc(-c5c([H])c([H])c(Oc6c([H])c([H])c(F)c([H])c6F)c([H])c5[H])c(C(=O)N([H])[H])c4N([H])[H])C3([H])[H])C2([H])[H])nc([H])c1C([H])([H])Oc1c([H])c([H])c2c(c1[H])C([H])([H])N(C(=O)C([H])(N([H])C(=O)C([H])(N([H])C([H])([H])[H])C([H])([H])[H])C(C([H])([H])[H])(C([H])([H])[H])C([H])([H])[H])C([H])(C(=O)N([H])C1([H])c3c([H])c([H])c([H])c([H])c3C([H])([H])C([H])([H])C1([H])[H])C2([H])[H]

>  <smiles>  (23) 
[H]c1nc(C2([H])C([H])([H])N(C(=O)N3C([H])([H])C([H])([H])C([H])([H])C([H])(n4nc(-c5c([H])c([H])c(Oc6c([H])c([H])c(F)c([H])c6F)c([H])c5[H])c(C(=O)N([H])[H])c4N([H])[H])C3([H])[H])C2([H])[H])nc([H])c1C([H])([H])Oc1c([H])c([H])c2c(c1[H])C([H])([H])N(C(=O)C([H])(N([H])C(=O)C([H])(N([H])C([H])([H])[H])C([H])([H])[H])C(C([H])([H])[H])(C([H])([H])[H])C([H])([H])[H])C([H])(C(=O)N([H])C1([H])c3c([H])c([H])c([H])c([H])c3C([H])([H])C([H])([H])C1([H])[H])C2([H])[H]

$$$$
23:0:0
     RDKit          3D

 94104  0  0  1  0  0  0  0  0999 V2000
  -30.6540  -14.7350   20.3820 C   0  0  0  0  0  0  0  0  0  0  0  0
  -30.4180  -12.4760   19.3670 C   0  0  0  0  0  2  0  0  0  0  0  0
  -29.4940  -12.5910   18.1350 C   0  0  0  0  0  2  0  0  0  0  0  0
  -28.0180  -12.4320   18.5580 C   0  0  0  0  0  2  0  0  0  0  0  0
  -27.6440  -13.3090   19.7850 C   0  0  0  0  0  3  0  0  0  0  0  0
  -28.7010  -13.2010   20.9100 C   0  0  0  0  0  2  0  0  0  0  0  0
  -30.0030  -13.5260   20.3200 N   0  0  0  0  0  0  0  0  0  0  0  0
  -31.8520  -14.8050   20.0980 O   0  0  0  0  0  0  0  0  0  0  0  0
  -30.4860  -22.9840   19.3780 C   0  0  0  0  0  3  0  0  0  0  0  0
  -31.4050  -21.9530   19.1730 C   0  0  0  0  0  0  0  0  0  0  0  0
  -29.2160  -22.6630   19.8550 C   0  0  0  0  0  0  0  0  0  0  0  0
  -29.8840  -20.3790   19.8940 C   0  0  0  0  0  0  0  0  0  0  0  0
  -30.1980  -18.0830   19.0060 C   0  0  0  0  0  2  0  0  0  0  0  0
  -29.8990  -18.3140   21.3310 C   0  0  0  0  0  2  0  0  0  0  0  0
  -29.6800  -16.6070   19.0320 C   0  0  0  0  0  2  0  0  0  0  0  0
  -29.5350  -16.7680   21.4530 C   0  0  0  0  0  2  0  0  0  0  0  0
  -31.1000  -20.6690   19.4420 N   0  0  0  0  0  0  0  0  0  0  0  0
  -28.9270  -21.3270   20.1160 N   0  0  0  0  0  0  0  0  0  0  0  0
  -29.6200  -18.9690   20.0360 N   0  0  0  0  0  0  0  0  0  0  0  0
  -29.8770  -15.8810   20.3090 N   0  0  0  0  0  0  0  0  0  0  0  0
  -25.2490  -13.9040   20.4930 C   0  0  0  0  0  0  0  0  0  0  0  0
  -24.1780  -13.1320   20.8510 C   0  0  0  0  0  0  0  0  0  0  0  0
  -24.6410  -11.7810   20.8310 C   0  0  0  0  0  0  0  0  0  0  0  0
  -26.2960  -13.0250   20.2690 N   0  0  0  0  0  0  0  0  0  0  0  0
  -25.9350  -11.7430   20.5350 N   0  0  0  0  0  0  0  0  0  0  0  0
  -23.9140  -10.5180   21.0190 C   0  0  0  0  0  0  0  0  0  0  0  0
  -24.3340   -9.5550   21.9630 C   0  0  0  0  0  3  0  0  0  0  0  0
  -23.6050   -8.3580   22.1400 C   0  0  0  0  0  3  0  0  0  0  0  0
  -22.4430   -8.1140   21.3700 C   0  0  0  0  0  0  0  0  0  0  0  0
  -22.0400   -9.0660   20.4170 C   0  0  0  0  0  3  0  0  0  0  0  0
  -22.7700  -10.2530   20.2380 C   0  0  0  0  0  3  0  0  0  0  0  0
  -21.6880   -6.9700   21.4530 O   0  0  0  0  0  0  0  0  0  0  0  0
  -21.6120   -6.2400   22.6130 C   0  0  0  0  0  0  0  0  0  0  0  0
  -21.1450   -6.8050   23.8190 C   0  0  0  0  0  3  0  0  0  0  0  0
  -21.0180   -6.0030   24.9700 C   0  0  0  0  0  3  0  0  0  0  0  0
  -21.3480   -4.6350   24.9150 C   0  0  0  0  0  0  0  0  0  0  0  0
  -21.8100   -4.0690   23.7140 C   0  0  0  0  0  3  0  0  0  0  0  0
  -21.9380   -4.8700   22.5660 C   0  0  0  0  0  0  0  0  0  0  0  0
  -22.3630   -4.3140   21.4040 F   0  0  0  0  0  0  0  0  0  0  0  0
  -21.2180   -3.8630   26.0190 F   0  0  0  0  0  0  0  0  0  0  0  0
  -22.7770  -13.6100   21.1010 C   0  0  0  0  0  0  0  0  0  0  0  0
  -22.0340  -12.9190   21.9590 N   0  0  0  0  0  0  0  0  0  0  0  0
  -22.3490  -14.6340   20.5730 O   0  0  0  0  0  0  0  0  0  0  0  0
  -22.3950  -12.0960   22.4190 H   0  0  0  0  0  0  0  0  0  0  0  0
  -21.0950  -13.2260   22.1670 H   0  0  0  0  0  0  0  0  0  0  0  0
  -25.4140  -15.2740   20.3160 N   0  0  0  0  0  0  0  0  0  0  0  0
  -24.6470  -15.9280   20.4260 H   0  0  0  0  0  0  0  0  0  0  0  0
  -26.2760  -15.7140   20.0210 H   0  0  0  0  0  0  0  0  0  0  0  0
  -32.8800  -23.1060   17.3690 C   0  0  0  0  0  2  0  0  0  0  0  0
  -33.2420  -21.6440   17.3040 C   0  0  0  0  0  2  0  0  0  0  0  0
  -32.7630  -22.2400   18.6090 C   0  0  0  0  0  3  0  0  0  0  0  0
  -28.1620  -23.8390   19.9040 C   0  0  0  0  0  2  0  0  0  0  0  0
  -28.4250  -25.1300   20.8280 C   0  0  0  0  0  2  0  0  0  0  0  0
  -28.4900  -26.5350   20.3310 O   0  0  0  0  0  0  0  0  0  0  0  0
  -24.6390  -31.9200   23.2960 C   0  0  0  0  0  0  0  0  0  0  0  0
  -27.3490  -27.3470   20.3410 C   0  0  0  0  0  0  0  0  0  0  0  0
  -23.4810  -30.4970   21.6430 C   0  0  0  0  0  3  0  0  0  0  0  0
  -24.9720  -28.9330   20.2730 C   0  0  0  0  0  0  0  0  0  0  0  0
  -26.0230  -30.8290   21.5120 C   0  0  0  0  0  2  0  0  0  0  0  0
  -26.1260  -29.4440   20.8810 C   0  0  0  0  0  0  0  0  0  0  0  0
  -27.3210  -28.6640   20.8940 C   0  0  0  0  0  3  0  0  0  0  0  0
  -26.1700  -26.8730   19.7300 C   0  0  0  0  0  3  0  0  0  0  0  0
  -24.9960  -27.6530   19.6890 C   0  0  0  0  0  3  0  0  0  0  0  0
  -23.7300  -29.8010   20.2790 C   0  0  0  0  0  2  0  0  0  0  0  0
  -24.7320  -31.1020   22.2060 N   0  0  0  0  0  0  0  0  0  0  0  0
  -23.5410  -32.1940   23.8040 O   0  0  0  0  0  0  0  0  0  0  0  0
  -22.8070  -29.4860   22.6020 C   0  0  0  0  0  0  0  0  0  0  0  0
  -21.4810  -29.3110   22.4610 N   0  0  0  0  0  0  0  0  0  0  0  0
  -23.4770  -28.8600   23.4290 O   0  0  0  0  0  0  0  0  0  0  0  0
  -21.0030  -29.8660   21.7640 H   0  0  0  0  0  0  0  0  0  0  0  0
  -18.0900  -28.1550   22.9590 C   0  0  0  0  0  0  0  0  0  0  0  0
  -20.6520  -28.3810   23.2280 C   0  0  0  0  0  3  0  0  0  0  0  0
  -20.7350  -26.9520   22.6430 C   0  0  0  0  0  2  0  0  0  0  0  0
  -19.6290  -26.6490   21.6280 C   0  0  0  0  0  2  0  0  0  0  0  0
  -18.2480  -26.8090   22.2740 C   0  0  0  0  0  2  0  0  0  0  0  0
  -19.2190  -28.9000   23.3940 C   0  0  0  0  0  0  0  0  0  0  0  0
  -19.0170  -30.1610   23.9960 C   0  0  0  0  0  3  0  0  0  0  0  0
  -17.7180  -30.6760   24.1670 C   0  0  0  0  0  3  0  0  0  0  0  0
  -16.6040  -29.9290   23.7490 C   0  0  0  0  0  3  0  0  0  0  0  0
  -16.7910  -28.6710   23.1490 C   0  0  0  0  0  3  0  0  0  0  0  0
  -25.9010  -32.5690   23.9400 C   0  0  0  0  0  3  0  0  0  0  0  0
  -25.5770  -33.9720   24.2390 N   0  0  0  0  0  0  0  0  0  0  0  0
  -25.9120  -35.0130   23.4650 C   0  0  0  0  0  0  0  0  0  0  0  0
  -26.5960  -34.8950   22.4440 O   0  0  0  0  0  0  0  0  0  0  0  0
  -24.9700  -34.1360   25.0270 H   0  0  0  0  0  0  0  0  0  0  0  0
  -24.1740  -36.7860   23.0570 C   0  0  0  0  0  1  0  0  0  0  0  0
  -25.4090  -36.4050   23.8900 C   0  0  0  0  0  3  0  0  0  0  0  0
  -27.5240  -37.3260   24.7330 C   0  0  0  0  0  1  0  0  0  0  0  0
  -26.4350  -37.4650   23.7690 N   0  0  0  0  0  0  0  0  0  0  0  0
  -26.0200  -38.3840   23.8880 H   0  0  0  0  0  0  0  0  0  0  0  0
  -26.3880  -31.8250   25.2440 C   0  0  1  0  0  0  0  0  0  0  0  0
  -25.2690  -31.6000   26.2870 C   0  0  0  0  0  1  0  0  0  0  0  0
  -26.9900  -30.4440   24.8970 C   0  0  0  0  0  1  0  0  0  0  0  0
  -27.5160  -32.6400   25.9220 C   0  0  0  0  0  1  0  0  0  0  0  0
  2  7  1  0
  3  4  1  0
  3  2  1  0
  5  4  1  0
  5 24  1  0
  5  6  1  0
  7  1  1  0
  7  6  1  0
  8  1  2  0
  9 11  1  0
 10  9  2  0
 10 17  1  0
 11 52  1  0
 11 18  2  0
 12 19  1  0
 12 18  1  0
 13 15  1  0
 13 19  1  0
 14 16  1  0
 15 20  1  0
 17 12  2  0
 19 14  1  0
 20  1  1  0
 20 16  1  0
 21 22  2  0
 22 41  1  0
 23 22  1  0
 23 26  1  0
 24 21  1  0
 24 25  1  0
 25 23  2  0
 26 27  1  0
 27 28  2  0
 29 32  1  0
 29 28  1  0
 30 29  2  0
 31 30  1  0
 31 26  2  0
 32 33  1  0
 33 34  1  0
 34 35  2  0
 36 35  1  0
 36 40  1  0
 37 36  2  0
 38 33  2  0
 38 37  1  0
 39 38  1  0
 41 42  1  0
 42 45  1  0
 42 44  1  0
 43 41  2  0
 46 47  1  0
 46 21  1  0
 48 46  1  0
 49 51  1  0
 50 49  1  0
 50 51  1  0
 51 10  1  0
 52 53  1  0
 54 56  1  0
 54 53  1  0
 55 66  2  0
 56 61  1  0
 57 65  1  0
 57 67  1  0
 58 64  1  0
 58 60  1  0
 59 65  1  0
 60 61  2  0
 60 59  1  0
 62 56  2  0
 63 62  1  0
 63 58  2  0
 64 57  1  0
 65 55  1  0
 67 69  2  0
 68 67  1  0
 70 68  1  0
 71 80  2  0
 71 76  1  0
 72 68  1  0
 72 76  1  0
 73 72  1  0
 74 75  1  0
 74 73  1  0
 75 71  1  0
 76 77  2  0
 77 78  1  0
 79 78  2  0
 80 79  1  0
 81 55  1  0
 81 82  1  0
 81 91  1  0
 82 85  1  0
 83 87  1  0
 83 82  1  0
 84 83  2  0
 87 86  1  0
 89 90  1  0
 89 87  1  0
 89 88  1  0
 91 94  1  1
 91 92  1  0
 93 91  1  0
M  ISO  4   1 100  20 100  53 101  54 101
M  END
>  <TORSDO>  (24) 
F 18

>  <SCORE>  (24) 
-14.533

>  <name>  (24) 
23

>  <ligand_id>  (24) 
23

>  <original_smiles>  (24) 
[H]c1c(C([H])([H])C([H])([H])Oc2c([H])c([H])c3c(c2[H])C([H])([H])N(C(=O)C([H])(N([H])C(=O)C([H])(N([H])C([H])([H])[H])C([H])([H])[H])C(C([H])([H])[H])(C([H])([H])[H])C([H])([H])[H])C([H])(C(=O)N([H])C2([H])c4c([H])c([H])c([H])c([H])c4C([H])([H])C([H])([H])C2([H])[H])C3([H])[H])nc(N2C([H])([H])C([H])([H])N(C(=O)N3C([H])([H])C([H])([H])C([H])([H])C([H])(n4nc(-c5c([H])c([H])c(Oc6c([H])c([H])c(F)c([H])c6F)c([H])c5[H])c(C(=O)N([H])[H])c4N([H])[H])C3([H])[H])C([H])([H])C2([H])[H])nc1C1([H])C([H])([H])C1([H])[H]

>  <smiles>  (24) 
[H]c1c(C([H])([H])C([H])([H])Oc2c([H])c([H])c3c(c2[H])C([H])([H])N(C(=O)C([H])(N([H])C(=O)C([H])(N([H])C([H])([H])[H])C([H])([H])[H])C(C([H])([H])[H])(C([H])([H])[H])C([H])([H])[H])C([H])(C(=O)N([H])C2([H])c4c([H])c([H])c([H])c([H])c4C([H])([H])C([H])([H])C2([H])[H])C3([H])[H])nc(N2C([H])([H])C([H])([H])N(C(=O)N3C([H])([H])C([H])([H])C([H])([H])C([H])(n4nc(-c5c([H])c([H])c(Oc6c([H])c([H])c(F)c([H])c6F)c([H])c5[H])c(C(=O)N([H])[H])c4N([H])[H])C3([H])[H])C([H])([H])C2([H])[H])nc1C1([H])C([H])([H])C1([H])[H]

$$$$
24:0:0
     RDKit          3D

 92102  0  0  1  0  0  0  0  0999 V2000
  -30.6370  -14.8300   20.3760 C   0  0  0  0  0  0  0  0  0  0  0  0
  -30.4090  -12.5040   19.4600 C   0  0  0  0  0  2  0  0  0  0  0  0
  -29.4990  -12.4990   18.2140 C   0  0  0  0  0  2  0  0  0  0  0  0
  -28.0270  -12.3360   18.6300 C   0  0  0  0  0  2  0  0  0  0  0  0
  -27.6260  -13.2890   19.7890 C   0  0  0  0  0  3  0  0  0  0  0  0
  -28.6650  -13.2970   20.9310 C   0  0  0  0  0  2  0  0  0  0  0  0
  -29.9640  -13.6230   20.3320 N   0  0  0  0  0  0  0  0  0  0  0  0
  -31.8360  -14.8340   20.0770 O   0  0  0  0  0  0  0  0  0  0  0  0
  -28.1690  -22.6100   21.0560 C   0  0  0  0  0  2  0  0  0  0  0  0
  -28.6640  -23.4310   19.9950 C   0  0  0  0  0  3  0  0  0  0  0  0
  -29.2410  -20.6840   20.2550 C   0  0  0  0  0  0  0  0  0  0  0  0
  -31.3840  -17.5890   21.7200 C   0  0  0  0  0  2  0  0  0  0  0  0
  -31.7510  -18.3350   20.4100 C   0  0  0  0  0  2  0  0  0  0  0  0
  -29.0040  -18.3050   21.3820 C   0  0  0  0  0  2  0  0  0  0  0  0
  -29.9850  -16.9830   19.2150 C   0  0  0  0  0  2  0  0  0  0  0  0
  -29.9520  -17.0120   21.5690 C   0  0  0  0  0  3  0  0  0  0  0  0
  -30.4790  -18.4750   19.5370 C   0  0  0  0  0  3  0  0  0  0  0  0
  -28.4540  -21.2630   21.1790 N   0  0  0  0  0  0  0  0  0  0  0  0
  -29.4800  -22.7630   19.1120 N   0  0  0  0  0  0  0  0  0  0  0  0
  -29.7760  -21.4270   19.2490 N   0  0  0  0  0  0  0  0  0  0  0  0
  -29.4760  -19.2420   20.3170 N   0  0  0  0  0  0  0  0  0  0  0  0
  -29.9340  -16.0520   20.4040 N   0  0  0  0  0  0  0  0  0  0  0  0
  -25.2410  -13.9050   20.4930 C   0  0  0  0  0  0  0  0  0  0  0  0
  -24.1630  -13.1450   20.8550 C   0  0  0  0  0  0  0  0  0  0  0  0
  -24.6110  -11.7890   20.8410 C   0  0  0  0  0  0  0  0  0  0  0  0
  -26.2780  -13.0130   20.2740 N   0  0  0  0  0  0  0  0  0  0  0  0
  -25.9060  -11.7350   20.5480 N   0  0  0  0  0  0  0  0  0  0  0  0
  -23.8680  -10.5360   21.0320 C   0  0  0  0  0  0  0  0  0  0  0  0
  -24.2820   -9.5650   21.9690 C   0  0  0  0  0  3  0  0  0  0  0  0
  -23.5370   -8.3790   22.1490 C   0  0  0  0  0  3  0  0  0  0  0  0
  -22.3650   -8.1550   21.3900 C   0  0  0  0  0  0  0  0  0  0  0  0
  -21.9690   -9.1150   20.4410 C   0  0  0  0  0  3  0  0  0  0  0  0
  -22.7140  -10.2930   20.2590 C   0  0  0  0  0  3  0  0  0  0  0  0
  -21.5920   -7.0220   21.4780 O   0  0  0  0  0  0  0  0  0  0  0  0
  -21.5280   -6.2820   22.6310 C   0  0  0  0  0  0  0  0  0  0  0  0
  -21.1170   -6.8500   23.8580 C   0  0  0  0  0  3  0  0  0  0  0  0
  -20.9980   -6.0390   25.0040 C   0  0  0  0  0  3  0  0  0  0  0  0
  -21.2790   -4.6620   24.9250 C   0  0  0  0  0  0  0  0  0  0  0  0
  -21.6820   -4.0940   23.7040 C   0  0  0  0  0  3  0  0  0  0  0  0
  -21.8030   -4.9020   22.5590 C   0  0  0  0  0  0  0  0  0  0  0  0
  -22.1720   -4.3460   21.3800 F   0  0  0  0  0  0  0  0  0  0  0  0
  -21.1570   -3.8810   26.0240 F   0  0  0  0  0  0  0  0  0  0  0  0
  -22.7680  -13.6400   21.1040 C   0  0  0  0  0  0  0  0  0  0  0  0
  -22.0260  -12.9660   21.9750 N   0  0  0  0  0  0  0  0  0  0  0  0
  -22.3470  -14.6620   20.5630 O   0  0  0  0  0  0  0  0  0  0  0  0
  -22.3790  -12.1400   22.4330 H   0  0  0  0  0  0  0  0  0  0  0  0
  -21.0900  -13.2820   22.1860 H   0  0  0  0  0  0  0  0  0  0  0  0
  -25.4260  -15.2720   20.3070 N   0  0  0  0  0  0  0  0  0  0  0  0
  -24.6670  -15.9400   20.4030 H   0  0  0  0  0  0  0  0  0  0  0  0
  -26.2900  -15.6960   19.9970 H   0  0  0  0  0  0  0  0  0  0  0  0
  -27.9440  -24.8150   19.5610 C   0  0  0  0  0  2  0  0  0  0  0  0
  -28.3060  -26.2620   19.8940 O   0  0  0  0  0  0  0  0  0  0  0  0
  -24.6490  -31.7600   23.0440 C   0  0  0  0  0  0  0  0  0  0  0  0
  -27.2500  -27.2280   19.8340 C   0  0  0  0  0  0  0  0  0  0  0  0
  -23.4440  -30.3980   21.3810 C   0  0  0  0  0  3  0  0  0  0  0  0
  -24.8940  -28.9070   19.8870 C   0  0  0  0  0  0  0  0  0  0  0  0
  -25.9900  -30.7180   21.1900 C   0  0  0  0  0  2  0  0  0  0  0  0
  -26.0730  -29.3550   20.4980 C   0  0  0  0  0  0  0  0  0  0  0  0
  -27.2530  -28.5290   20.4650 C   0  0  0  0  0  3  0  0  0  0  0  0
  -26.0480  -26.8910   19.1630 C   0  0  0  0  0  3  0  0  0  0  0  0
  -24.8900  -27.6860   19.2070 C   0  0  0  0  0  3  0  0  0  0  0  0
  -23.6530  -29.7750   19.9780 C   0  0  0  0  0  2  0  0  0  0  0  0
  -24.7150  -30.9760   21.9260 N   0  0  0  0  0  0  0  0  0  0  0  0
  -23.5670  -32.0130   23.5940 O   0  0  0  0  0  0  0  0  0  0  0  0
  -22.7980  -29.3450   22.3180 C   0  0  0  0  0  0  0  0  0  0  0  0
  -21.4670  -29.1840   22.2270 N   0  0  0  0  0  0  0  0  0  0  0  0
  -23.4950  -28.6820   23.0900 O   0  0  0  0  0  0  0  0  0  0  0  0
  -20.9620  -29.7710   21.5790 H   0  0  0  0  0  0  0  0  0  0  0  0
  -18.0930  -28.0060   22.8150 C   0  0  0  0  0  0  0  0  0  0  0  0
  -20.6650  -28.2210   22.9860 C   0  0  0  0  0  3  0  0  0  0  0  0
  -20.7200  -26.8170   22.3390 C   0  0  0  0  0  2  0  0  0  0  0  0
  -19.5710  -26.5590   21.3590 C   0  0  0  0  0  2  0  0  0  0  0  0
  -18.2210  -26.6890   22.0670 C   0  0  0  0  0  2  0  0  0  0  0  0
  -19.2400  -28.7330   23.2320 C   0  0  0  0  0  0  0  0  0  0  0  0
  -19.0650  -29.9670   23.8940 C   0  0  0  0  0  3  0  0  0  0  0  0
  -17.7760  -30.4750   24.1410 C   0  0  0  0  0  3  0  0  0  0  0  0
  -16.6440  -29.7460   23.7390 C   0  0  0  0  0  3  0  0  0  0  0  0
  -16.8030  -28.5120   23.0820 C   0  0  0  0  0  3  0  0  0  0  0  0
  -25.9290  -32.3930   23.6690 C   0  0  0  0  0  3  0  0  0  0  0  0
  -25.5960  -33.7720   24.0600 N   0  0  0  0  0  0  0  0  0  0  0  0
  -25.8890  -34.8620   23.3390 C   0  0  0  0  0  0  0  0  0  0  0  0
  -26.5360  -34.8130   22.2880 O   0  0  0  0  0  0  0  0  0  0  0  0
  -25.0190  -33.8810   24.8810 H   0  0  0  0  0  0  0  0  0  0  0  0
  -24.1160  -36.6320   23.1030 C   0  0  0  0  0  1  0  0  0  0  0  0
  -25.3860  -36.2210   23.8640 C   0  0  0  0  0  3  0  0  0  0  0  0
  -27.5260  -37.1160   24.6710 C   0  0  0  0  0  1  0  0  0  0  0  0
  -26.3920  -37.3010   23.7670 N   0  0  0  0  0  0  0  0  0  0  0  0
  -25.9720  -38.2030   23.9670 H   0  0  0  0  0  0  0  0  0  0  0  0
  -26.4790  -31.5840   24.9080 C   0  0  1  0  0  0  0  0  0  0  0  0
  -25.4090  -31.2960   25.9870 C   0  0  0  0  0  1  0  0  0  0  0  0
  -27.0720  -30.2280   24.4610 C   0  0  0  0  0  1  0  0  0  0  0  0
  -27.6320  -32.3710   25.5750 C   0  0  0  0  0  1  0  0  0  0  0  0
  1 22  1  0
  2  7  1  0
  3  4  1  0
  3  2  1  0
  5  4  1  0
  5 26  1  0
  5  6  1  0
  7  1  1  0
  7  6  1  0
  8  1  2  0
  9 18  1  0
 10 51  1  0
 10  9  1  0
 11 21  1  0
 11 18  2  0
 13 12  1  0
 15 22  1  0
 16 14  1  0
 16 12  1  0
 17 15  1  0
 17 21  1  0
 17 13  1  0
 19 20  2  0
 19 10  1  0
 20 11  1  0
 21 14  1  0
 22 16  1  0
 23 24  2  0
 24 43  1  0
 25 24  1  0
 25 28  1  0
 26 23  1  0
 26 27  1  0
 27 25  2  0
 28 29  1  0
 29 30  2  0
 31 34  1  0
 31 30  1  0
 32 31  2  0
 33 32  1  0
 33 28  2  0
 34 35  1  0
 35 36  1  0
 36 37  2  0
 38 37  1  0
 38 42  1  0
 39 38  2  0
 40 35  2  0
 40 39  1  0
 41 40  1  0
 43 44  1  0
 44 47  1  0
 44 46  1  0
 45 43  2  0
 48 49  1  0
 48 23  1  0
 50 48  1  0
 51 52  1  0
 53 64  2  0
 54 52  1  0
 54 59  1  0
 55 63  1  0
 55 65  1  0
 56 62  1  0
 56 58  1  0
 57 63  1  0
 58 57  1  0
 59 58  2  0
 60 61  1  0
 60 54  2  0
 61 56  2  0
 62 55  1  0
 63 53  1  0
 65 67  2  0
 66 65  1  0
 68 66  1  0
 69 78  2  0
 69 74  1  0
 70 66  1  0
 70 74  1  0
 71 70  1  0
 72 73  1  0
 72 71  1  0
 73 69  1  0
 74 75  2  0
 75 76  1  0
 77 76  2  0
 78 77  1  0
 79 53  1  0
 79 80  1  0
 79 89  1  0
 80 83  1  0
 81 85  1  0
 81 80  1  0
 82 81  2  0
 85 84  1  0
 87 85  1  0
 87 88  1  0
 87 86  1  0
 89 92  1  1
 89 90  1  0
 91 89  1  0
M  ISO  4   1 100  22 100  51 101  52 101
M  END
>  <TORSDO>  (25) 
F 16

>  <SCORE>  (25) 
-15.005

>  <name>  (25) 
24

>  <ligand_id>  (25) 
24

>  <original_smiles>  (25) 
[H]c1nc(N2C([H])([H])C3([H])N(C(=O)N4C([H])([H])C([H])([H])C([H])([H])C([H])(n5nc(-c6c([H])c([H])c(Oc7c([H])c([H])c(F)c([H])c7F)c([H])c6[H])c(C(=O)N([H])[H])c5N([H])[H])C4([H])[H])C([H])([H])C2([H])C([H])([H])C3([H])[H])nnc1C([H])([H])Oc1c([H])c([H])c2c(c1[H])C([H])([H])N(C(=O)C([H])(N([H])C(=O)C([H])(N([H])C([H])([H])[H])C([H])([H])[H])C(C([H])([H])[H])(C([H])([H])[H])C([H])([H])[H])C([H])(C(=O)N([H])C1([H])c3c([H])c([H])c([H])c([H])c3C([H])([H])C([H])([H])C1([H])[H])C2([H])[H]

>  <smiles>  (25) 
[H]c1nc(N2C([H])([H])C3([H])N(C(=O)N4C([H])([H])C([H])([H])C([H])([H])C([H])(n5nc(-c6c([H])c([H])c(Oc7c([H])c([H])c(F)c([H])c7F)c([H])c6[H])c(C(=O)N([H])[H])c5N([H])[H])C4([H])[H])C([H])([H])C2([H])C([H])([H])C3([H])[H])nnc1C([H])([H])Oc1c([H])c([H])c2c(c1[H])C([H])([H])N(C(=O)C([H])(N([H])C(=O)C([H])(N([H])C([H])([H])[H])C([H])([H])[H])C(C([H])([H])[H])(C([H])([H])[H])C([H])([H])[H])C([H])(C(=O)N([H])C1([H])c3c([H])c([H])c([H])c([H])c3C([H])([H])C([H])([H])C1([H])[H])C2([H])[H]

$$$$
25:0:0
     RDKit          3D

 97100  0  0  1  0  0  0  0  0999 V2000
  -23.2950  -21.1980   18.6800 C   0  0  0  0  0  3  0  0  0  0  0  0
  -22.0460  -21.3740   19.2630 C   0  0  0  0  0  2  0  0  0  0  0  0
  -21.3210  -22.6970   17.4910 C   0  0  0  0  0  3  0  0  0  0  0  0
  -22.4890  -22.6740   16.6710 C   0  0  0  0  0  3  0  0  0  0  0  0
  -23.8100  -21.7590   17.4680 C   0  0  0  0  0  0  0  0  0  0  0  0
  -21.1340  -22.1120   18.6680 N   0  0  0  0  0  0  0  0  0  0  0  0
  -20.2350  -22.2450   19.1370 H   0  0  0  0  0  0  0  0  0  0  0  0
  -26.3100  -20.6740   19.1900 C   0  0  0  0  0  3  0  0  0  0  0  0
  -26.0580  -19.4790   17.8200 C   0  0  0  0  0  3  0  0  0  0  0  0
  -27.5240  -19.4370   18.8110 C   0  0  0  0  0  3  0  0  0  0  0  0
  -25.4800  -21.0190   17.8220 N   0  0  0  0  0  0  0  0  0  0  0  0
  -29.7990  -17.5760   20.6770 C   0  0  0  0  0  0  0  0  0  0  0  0
  -31.1120  -15.3850   21.7620 C   0  0  0  0  0  2  0  0  0  0  0  0
  -31.0650  -14.0580   20.9210 C   0  0  0  0  0  2  0  0  0  0  0  0
  -29.6490  -13.4540   20.8970 C   0  0  0  0  0  2  0  0  0  0  0  0
  -28.6240  -14.5990   20.8330 C   0  0  0  0  0  3  0  0  0  0  0  0
  -28.8080  -15.6150   21.9470 C   0  0  0  0  0  2  0  0  0  0  0  0
  -29.9230  -16.3340   21.4400 N   0  0  0  0  0  0  0  0  0  0  0  0
  -30.9870  -18.0280   20.7860 O   0  0  0  0  0  0  0  0  0  0  0  0
  -28.4830  -18.1340   19.8340 N   0  0  0  0  0  0  0  0  0  0  0  0
  -27.7990  -17.3890   19.9340 H   0  0  0  0  0  0  0  0  0  0  0  0
  -26.1780  -15.0360   20.6180 C   0  0  0  0  0  0  0  0  0  0  0  0
  -25.0990  -14.2180   20.7390 C   0  0  0  0  0  0  0  0  0  0  0  0
  -25.6160  -12.9260   21.0650 C   0  0  0  0  0  0  0  0  0  0  0  0
  -27.2610  -14.2150   20.8370 N   0  0  0  0  0  0  0  0  0  0  0  0
  -26.9290  -12.9620   21.1970 N   0  0  0  0  0  0  0  0  0  0  0  0
  -24.9500  -11.6370   21.1780 C   0  0  0  0  0  0  0  0  0  0  0  0
  -25.0960  -10.8320   22.3280 C   0  0  0  0  0  3  0  0  0  0  0  0
  -24.4270   -9.5950   22.4140 C   0  0  0  0  0  3  0  0  0  0  0  0
  -23.6060   -9.1610   21.3470 C   0  0  0  0  0  0  0  0  0  0  0  0
  -23.4900   -9.9550   20.1940 C   0  0  0  0  0  3  0  0  0  0  0  0
  -24.1610  -11.1830   20.1060 C   0  0  0  0  0  3  0  0  0  0  0  0
  -22.9300   -7.9690   21.3320 O   0  0  0  0  0  0  0  0  0  0  0  0
  -22.5940   -7.3240   22.4930 C   0  0  0  0  0  0  0  0  0  0  0  0
  -21.7980   -7.9390   23.4840 C   0  0  0  0  0  3  0  0  0  0  0  0
  -21.4210   -7.2120   24.6310 C   0  0  0  0  0  3  0  0  0  0  0  0
  -21.8310   -5.8730   24.7820 C   0  0  0  0  0  0  0  0  0  0  0  0
  -22.6210   -5.2610   23.7930 C   0  0  0  0  0  3  0  0  0  0  0  0
  -23.0000   -5.9850   22.6510 C   0  0  0  0  0  0  0  0  0  0  0  0
  -23.7460   -5.3890   21.6910 F   0  0  0  0  0  0  0  0  0  0  0  0
  -21.4600   -5.1710   25.8770 F   0  0  0  0  0  0  0  0  0  0  0  0
  -23.6840  -14.5920   20.4370 C   0  0  0  0  0  0  0  0  0  0  0  0
  -22.7310  -13.9630   21.1120 N   0  0  0  0  0  0  0  0  0  0  0  0
  -23.4250  -15.4840   19.6300 O   0  0  0  0  0  0  0  0  0  0  0  0
  -22.9580  -13.2430   21.7820 H   0  0  0  0  0  0  0  0  0  0  0  0
  -21.7630  -14.2030   20.9590 H   0  0  0  0  0  0  0  0  0  0  0  0
  -26.3360  -16.3830   20.3000 N   0  0  0  0  0  0  0  0  0  0  0  0
  -25.4570  -16.7460   19.9450 H   0  0  0  0  0  0  0  0  0  0  0  0
  -27.0720  -16.5350   19.6200 H   0  0  0  0  0  0  0  0  0  0  0  0
  -21.6460  -23.9320   15.3330 C   0  0  0  0  0 15  0  0  0  0  0  0
  -21.5120  -24.5480   13.4410 N   0  0  0  0  0  2  0  0  0  0  0  0
  -20.5480  -24.7830   13.2750 H   0  0  0  0  0  0  0  0  0  0  0  0
  -21.7110  -23.7570   12.8520 H   0  0  0  0  0  0  0  0  0  0  0  0
  -23.5390  -26.7740   11.1270 C   0  0  0  0  0  1  0  0  0  0  0  0
  -23.0190  -26.4390   12.6300 C   0  0  0  0  0  1  0  0  0  0  0  0
  -24.9200  -26.5750   13.5210 C   0  0  0  0  0  1  0  0  0  0  0  0
  -25.9610  -25.9500   14.9090 O   0  0  0  0  0  0  0  0  0  0  0  0
  -24.4190  -27.7060   19.9540 C   0  0  0  0  0  0  0  0  0  0  0  0
  -27.3500  -25.9640   15.3430 C   0  0  0  0  0  3  0  0  0  0  0  0
  -24.3250  -28.4060   17.6240 C   0  0  0  0  0  3  0  0  0  0  0  0
  -26.5120  -28.2150   16.2280 C   0  0  0  0  0  3  0  0  0  0  0  0
  -26.5310  -27.6170   18.6360 C   0  0  0  0  0  2  0  0  0  0  0  0
  -26.9190  -27.3150   17.2100 C   0  0  0  0  0  3  0  0  0  0  0  0
  -27.5430  -26.1410   16.7520 C   0  0  0  0  0  2  0  0  0  0  0  0
  -27.8590  -26.9830   14.5960 C   0  0  0  0  0  2  0  0  0  0  0  0
  -27.1820  -28.1600   14.9660 C   0  0  0  0  0  2  0  0  0  0  0  0
  -25.2890  -29.0530   16.5590 C   0  0  0  0  0  2  0  0  0  0  0  0
  -25.0950  -27.9400   18.8010 N   0  0  0  0  0  0  0  0  0  0  0  0
  -23.2100  -27.9710   20.0620 O   0  0  0  0  0  0  0  0  0  0  0  0
  -23.4890  -27.1760   17.1720 C   0  0  0  0  0  0  0  0  0  0  0  0
  -22.2510  -26.9990   17.5470 N   0  0  0  0  0  0  0  0  0  0  0  0
  -23.9760  -26.2680   16.5210 O   0  0  0  0  0  0  0  0  0  0  0  0
  -21.8400  -27.6250   18.2270 H   0  0  0  0  0  0  0  0  0  0  0  0
  -18.5720  -26.8700   17.7440 C   0  0  0  0  0  0  0  0  0  0  0  0
  -21.3150  -26.1750   16.7270 C   0  0  0  0  0  2  0  0  0  0  0  0
  -21.2330  -26.7800   14.6910 C   0  0  0  0  0 15  0  0  0  0  0  0
  -19.0080  -27.9880   14.3690 C   0  0  0  0  0 15  0  0  0  0  0  0
  -17.8940  -27.6670   16.2120 C   0  0  0  0  0  1  0  0  0  0  0  0
  -19.9890  -26.2860   17.9300 C   0  0  0  0  0  0  0  0  0  0  0  0
  -20.3730  -25.9490   19.3140 C   0  0  0  0  0  3  0  0  0  0  0  0
  -19.5480  -25.9740   20.4740 C   0  0  0  0  0  3  0  0  0  0  0  0
  -18.2070  -26.3220   20.2920 C   0  0  0  0  0  3  0  0  0  0  0  0
  -17.7670  -26.7520   18.9870 C   0  0  0  0  0  3  0  0  0  0  0  0
  -25.1460  -27.1170   21.1860 C   0  0  0  0  0  3  0  0  0  0  0  0
  -24.7290  -27.9310   22.3290 N   0  0  0  0  0  0  0  0  0  0  0  0
  -25.4740  -28.8970   22.8760 C   0  0  0  0  0  0  0  0  0  0  0  0
  -26.6330  -29.1310   22.5240 O   0  0  0  0  0  0  0  0  0  0  0  0
  -23.7720  -27.8290   22.6320 H   0  0  0  0  0  0  0  0  0  0  0  0
  -24.3840  -31.0920   23.4460 C   0  0  0  0  0  1  0  0  0  0  0  0
  -24.8300  -29.7290   24.0000 C   0  0  0  0  0  3  0  0  0  0  0  0
  -25.9930  -28.6970   25.8990 C   0  0  0  0  0  1  0  0  0  0  0  0
  -25.7210  -29.9280   25.1620 N   0  0  0  0  0  0  0  0  0  0  0  0
  -25.3220  -30.6040   25.8080 H   0  0  0  0  0  0  0  0  0  0  0  0
  -24.8250  -25.5930   21.4280 C   0  0  1  0  0  0  0  0  0  0  0  0
  -23.3130  -25.2680   21.4570 C   0  0  0  0  0  1  0  0  0  0  0  0
  -25.4740  -24.6990   20.3440 C   0  0  0  0  0  1  0  0  0  0  0  0
  -25.4400  -25.1570   22.7790 C   0  0  0  0  0  1  0  0  0  0  0  0
  1  2  1  0
  3  6  1  0
  4  5  1  0
  4  3  2  0
  5 11  1  0
  5  1  2  0
  6  7  1  0
  6  2  1  0
  8 11  1  0
  9 11  1  0
  9 10  1  0
  9  8  1  0
 10  8  1  0
 10 20  1  0
 12 19  2  0
 12 18  1  0
 14 13  1  0
 15 14  1  0
 16 25  1  0
 16 15  1  0
 16 17  1  0
 18 13  1  0
 18 17  1  0
 20 21  1  0
 20 12  1  0
 22 23  2  0
 22 25  1  0
 23 24  1  0
 24 27  1  0
 24 26  2  0
 25 26  1  0
 27 28  1  0
 28 29  2  0
 30 29  1  0
 31 30  2  0
 32 31  1  0
 32 27  2  0
 33 30  1  0
 33 34  1  0
 34 39  2  0
 34 35  1  0
 35 36  2  0
 36 37  1  0
 37 41  1  0
 38 37  2  0
 39 38  1  0
 40 39  1  0
 42 23  1  0
 42 43  1  0
 43 45  1  0
 44 42  2  0
 46 43  1  0
 47 22  1  0
 48 47  1  0
 49 47  1  0
 52 51  1  0
 53 51  1  0
 54 55  1  0
 56 57  1  0
 58 69  2  0
 59 57  1  0
 59 64  1  0
 60 70  1  0
 60 68  1  0
 61 66  1  0
 61 67  1  0
 61 63  1  0
 62 68  1  0
 63 64  1  0
 63 62  1  0
 65 66  1  0
 65 59  1  0
 67 60  1  0
 68 58  1  0
 70 71  1  0
 71 73  1  0
 72 70  2  0
 74 79  2  0
 74 83  1  0
 75 71  1  0
 75 79  1  0
 78 74  1  0
 79 80  1  0
 80 81  2  0
 82 81  1  0
 83 82  2  0
 84 58  1  0
 84 94  1  0
 84 85  1  0
 85 88  1  0
 85 86  1  0
 86 90  1  0
 87 86  2  0
 90 89  1  0
 90 92  1  0
 92 93  1  0
 92 91  1  0
 94 95  1  1
 94 97  1  0
 96 94  1  0
M  ISO  4  12 100  20 100  56 101  57 101
M  END
>  <TORSDO>  (26) 
F 21

>  <SCORE>  (26) 
3.004

>  <name>  (26) 
25

>  <ligand_id>  (26) 
25

>  <original_smiles>  (26) 
[H]c1c([H])c([H])c2c(c1[H])C([H])([H])C([H])([H])C([H])([H])C2([H])N([H])C(=O)C1([H])N(C(=O)C([H])(N([H])C(=O)C([H])(N([H])C([H])([H])[H])C([H])([H])[H])C(C([H])([H])[H])(C([H])([H])[H])C([H])([H])[H])C([H])([H])c2c([H])c(OC([H])([H])C([H])(C([H])([H])[H])[N+]([H])([H])C([H])([H])c3c(N4C([H])([H])C([H])(N([H])C(=O)N5C([H])([H])C([H])([H])C([H])([H])C([H])(n6nc(-c7c([H])c([H])c(Oc8c([H])c([H])c(F)c([H])c8F)c([H])c7[H])c(C(=O)N([H])[H])c6N([H])[H])C5([H])[H])C4([H])[H])c([H])c([H])[n+]([H])c3[H])c([H])c([H])c2C1([H])[H]

>  <smiles>  (26) 
[H]c1c([H])c([H])c2c(c1[H])C([H])([H])C([H])([H])C([H])([H])C2([H])N([H])C(=O)C1([H])N(C(=O)C([H])(N([H])C(=O)C([H])(N([H])C([H])([H])[H])C([H])([H])[H])C(C([H])([H])[H])(C([H])([H])[H])C([H])([H])[H])C([H])([H])c2c([H])c(OC([H])([H])C([H])(C([H])([H])[H])[N+]([H])([H])C([H])([H])c3c(N4C([H])([H])C([H])(N([H])C(=O)N5C([H])([H])C([H])([H])C([H])([H])C([H])(n6nc(-c7c([H])c([H])c(Oc8c([H])c([H])c(F)c([H])c8F)c([H])c7[H])c(C(=O)N([H])[H])c6N([H])[H])C5([H])[H])C4([H])[H])c([H])c([H])[n+]([H])c3[H])c([H])c([H])c2C1([H])[H]

$$$$
27:0:0
     RDKit          3D

 96105  0  0  1  0  0  0  0  0999 V2000
  -28.4790  -21.7820   20.7950 N   0  0  0  0  0  4  0  0  0  0  0  0
  -28.6570  -21.1410   21.5490 H   0  0  0  0  0  0  0  0  0  0  0  0
  -27.4810  -21.8520   20.6860 H   0  0  0  0  0  0  0  0  0  0  0  0
  -27.8900  -20.6010   18.7050 C   0  0  0  0  0  2  0  0  0  0  0  0
  -28.2770  -19.1470   18.4470 C   0  0  0  0  0  2  0  0  0  0  0  0
  -29.9160  -19.9340   19.8460 C   0  0  0  0  0  2  0  0  0  0  0  0
  -29.0260  -21.1720   19.5600 C   0  0  0  0  0  3  0  0  0  0  0  0
  -29.0400  -18.7780   19.6370 N   0  0  0  0  0  0  0  0  0  0  0  0
  -29.7030  -17.4830   19.4110 C   0  0  0  0  0  2  0  0  0  0  0  0
  -31.1740  -14.5970   20.1000 C   0  0  0  0  0  0  0  0  0  0  0  0
  -30.7920  -12.4550   18.9180 C   0  0  0  0  0  2  0  0  0  0  0  0
  -29.7960  -12.6750   17.7600 C   0  0  0  0  0  2  0  0  0  0  0  0
  -28.3380  -12.5770   18.2540 C   0  0  0  0  0  2  0  0  0  0  0  0
  -28.0810  -13.4250   19.5300 C   0  0  0  0  0  3  0  0  0  0  0  0
  -29.1700  -13.1470   20.5870 C   0  0  0  0  0  2  0  0  0  0  0  0
  -30.4790  -13.4340   19.9710 N   0  0  0  0  0  0  0  0  0  0  0  0
  -32.2310  -14.8220   19.5000 O   0  0  0  0  0  0  0  0  0  0  0  0
  -30.1310  -17.1490   22.0180 C   0  0  0  0  0  2  0  0  0  0  0  0
  -30.7590  -15.7780   22.2210 C   0  0  0  0  0  2  0  0  0  0  0  0
  -30.5980  -17.0290   20.5730 C   0  0  0  0  0  3  0  0  0  0  0  0
  -30.5260  -15.5640   20.7880 N   0  0  0  0  0  0  0  0  0  0  0  0
  -25.7480  -14.1190   20.3750 C   0  0  0  0  0  0  0  0  0  0  0  0
  -24.6660  -13.3810   20.7750 C   0  0  0  0  0  0  0  0  0  0  0  0
  -25.0660  -12.0120   20.6870 C   0  0  0  0  0  0  0  0  0  0  0  0
  -26.7400  -13.2000   20.0690 N   0  0  0  0  0  0  0  0  0  0  0  0
  -26.3350  -11.9280   20.3140 N   0  0  0  0  0  0  0  0  0  0  0  0
  -24.2980  -10.7770   20.8820 C   0  0  0  0  0  0  0  0  0  0  0  0
  -24.6970   -9.7970   21.8180 C   0  0  0  0  0  3  0  0  0  0  0  0
  -23.9310   -8.6260   22.0010 C   0  0  0  0  0  3  0  0  0  0  0  0
  -22.7510   -8.4250   21.2460 C   0  0  0  0  0  0  0  0  0  0  0  0
  -22.3700   -9.3930   20.2990 C   0  0  0  0  0  3  0  0  0  0  0  0
  -23.1380  -10.5550   20.1140 C   0  0  0  0  0  3  0  0  0  0  0  0
  -21.9580   -7.3080   21.3380 O   0  0  0  0  0  0  0  0  0  0  0  0
  -21.8260   -6.6140   22.5130 C   0  0  0  0  0  0  0  0  0  0  0  0
  -21.3620   -7.2300   23.6960 C   0  0  0  0  0  3  0  0  0  0  0  0
  -21.1750   -6.4630   24.8640 C   0  0  0  0  0  3  0  0  0  0  0  0
  -21.4440   -5.0810   24.8490 C   0  0  0  0  0  0  0  0  0  0  0  0
  -21.9020   -4.4650   23.6720 C   0  0  0  0  0  3  0  0  0  0  0  0
  -22.0910   -5.2290   22.5070 C   0  0  0  0  0  0  0  0  0  0  0  0
  -22.5130   -4.6270   21.3690 F   0  0  0  0  0  0  0  0  0  0  0  0
  -21.2550   -4.3410   25.9670 F   0  0  0  0  0  0  0  0  0  0  0  0
  -23.3050  -13.9090   21.1330 C   0  0  0  0  0  0  0  0  0  0  0  0
  -22.6040  -13.2330   22.0370 N   0  0  0  0  0  0  0  0  0  0  0  0
  -22.8760  -14.9540   20.6480 O   0  0  0  0  0  0  0  0  0  0  0  0
  -22.9620  -12.3890   22.4560 H   0  0  0  0  0  0  0  0  0  0  0  0
  -21.6940  -13.5730   22.3180 H   0  0  0  0  0  0  0  0  0  0  0  0
  -25.9640  -15.4850   20.2340 N   0  0  0  0  0  0  0  0  0  0  0  0
  -25.2430  -16.1680   20.4410 H   0  0  0  0  0  0  0  0  0  0  0  0
  -26.8460  -15.9050   19.9720 H   0  0  0  0  0  0  0  0  0  0  0  0
  -28.9820  -23.1270   21.1700 C   0  0  0  0  0  2  0  0  0  0  0  0
  -28.1960  -24.2830   20.4900 C   0  0  0  0  0  3  0  0  0  0  0  0
  -28.4860  -24.2940   19.0640 N   0  0  0  0  0  0  0  0  0  0  0  0
  -29.4730  -24.4940   18.9390 H   0  0  0  0  0  0  0  0  0  0  0  0
  -28.0460  -25.1320   18.6930 H   0  0  0  0  0  0  0  0  0  0  0  0
  -28.5430  -25.6760   21.0880 C   0  0  0  0  0  2  0  0  0  0  0  0
  -28.3700  -26.7570   20.1640 O   0  0  0  0  0  0  0  0  0  0  0  0
  -24.5230  -31.9150   23.2460 C   0  0  0  0  0  0  0  0  0  0  0  0
  -27.1870  -27.4510   20.2340 C   0  0  0  0  0  0  0  0  0  0  0  0
  -23.3260  -30.4990   21.6070 C   0  0  0  0  0  3  0  0  0  0  0  0
  -24.7880  -28.9400   20.2150 C   0  0  0  0  0  0  0  0  0  0  0  0
  -25.8510  -30.8560   21.4210 C   0  0  0  0  0  2  0  0  0  0  0  0
  -25.9410  -29.4760   20.8040 C   0  0  0  0  0  0  0  0  0  0  0  0
  -27.1450  -28.7390   20.8100 C   0  0  0  0  0  3  0  0  0  0  0  0
  -26.0220  -26.9190   19.6460 C   0  0  0  0  0  3  0  0  0  0  0  0
  -24.8230  -27.6590   19.6350 C   0  0  0  0  0  3  0  0  0  0  0  0
  -23.5440  -29.8000   20.2380 C   0  0  0  0  0  2  0  0  0  0  0  0
  -24.5850  -31.1060   22.1500 N   0  0  0  0  0  0  0  0  0  0  0  0
  -23.4390  -32.1940   23.7760 O   0  0  0  0  0  0  0  0  0  0  0  0
  -22.6660  -29.4890   22.5730 C   0  0  0  0  0  0  0  0  0  0  0  0
  -21.3430  -29.3070   22.4350 N   0  0  0  0  0  0  0  0  0  0  0  0
  -23.3430  -28.8720   23.4000 O   0  0  0  0  0  0  0  0  0  0  0  0
  -20.8600  -29.8580   21.7390 H   0  0  0  0  0  0  0  0  0  0  0  0
  -17.9610  -28.1360   22.9250 C   0  0  0  0  0  0  0  0  0  0  0  0
  -20.5190  -28.3780   23.2070 C   0  0  0  0  0  3  0  0  0  0  0  0
  -20.6150  -26.9440   22.6380 C   0  0  0  0  0  2  0  0  0  0  0  0
  -19.5160  -26.6230   21.6200 C   0  0  0  0  0  2  0  0  0  0  0  0
  -18.1320  -26.7810   22.2570 C   0  0  0  0  0  2  0  0  0  0  0  0
  -19.0830  -28.8920   23.3570 C   0  0  0  0  0  0  0  0  0  0  0  0
  -18.8710  -30.1600   23.9390 C   0  0  0  0  0  3  0  0  0  0  0  0
  -17.5680  -30.6720   24.0950 C   0  0  0  0  0  3  0  0  0  0  0  0
  -16.4610  -29.9120   23.6800 C   0  0  0  0  0  3  0  0  0  0  0  0
  -16.6580  -28.6460   23.1010 C   0  0  0  0  0  3  0  0  0  0  0  0
  -25.8070  -32.5470   23.8700 C   0  0  0  0  0  3  0  0  0  0  0  0
  -25.4940  -33.9430   24.2030 N   0  0  0  0  0  0  0  0  0  0  0  0
  -25.8260  -34.9990   23.4480 C   0  0  0  0  0  0  0  0  0  0  0  0
  -26.5010  -34.9000   22.4190 O   0  0  0  0  0  0  0  0  0  0  0  0
  -24.8950  -34.0930   25.0020 H   0  0  0  0  0  0  0  0  0  0  0  0
  -24.0990  -36.7900   23.0830 C   0  0  0  0  0  1  0  0  0  0  0  0
  -25.3320  -36.3830   23.9070 C   0  0  0  0  0  3  0  0  0  0  0  0
  -27.4570  -37.2660   24.7640 C   0  0  0  0  0  1  0  0  0  0  0  0
  -26.3640  -37.4380   23.8100 N   0  0  0  0  0  0  0  0  0  0  0  0
  -25.9550  -38.3560   23.9580 H   0  0  0  0  0  0  0  0  0  0  0  0
  -26.3300  -31.7710   25.1400 C   0  0  1  0  0  0  0  0  0  0  0  0
  -25.2380  -31.5160   26.2050 C   0  0  0  0  0  1  0  0  0  0  0  0
  -26.9240  -30.4020   24.7350 C   0  0  0  0  0  1  0  0  0  0  0  0
  -27.4720  -32.5710   25.8090 C   0  0  0  0  0  1  0  0  0  0  0  0
  1 50  1  0
  1  2  1  0
  3  1  1  0
  4  7  1  0
  5  4  1  0
  5  8  1  0
  7  6  1  0
  7  1  1  0
  8  6  1  0
  9  8  1  0
 10 21  1  0
 11 16  1  0
 12 13  1  0
 12 11  1  0
 14 13  1  0
 14 25  1  0
 14 15  1  0
 16 10  1  0
 16 15  1  0
 17 10  2  0
 18 19  1  0
 20  9  1  0
 20 21  1  0
 20 18  1  0
 21 19  1  0
 22 23  2  0
 23 42  1  0
 24 23  1  0
 24 27  1  0
 25 26  1  0
 25 22  1  0
 26 24  2  0
 27 28  1  0
 28 29  2  0
 30 33  1  0
 30 29  1  0
 31 30  2  0
 32 31  1  0
 32 27  2  0
 33 34  1  0
 34 35  1  0
 35 36  2  0
 37 36  1  0
 37 41  1  0
 38 37  2  0
 39 34  2  0
 39 38  1  0
 40 39  1  0
 42 43  1  0
 43 46  1  0
 43 45  1  0
 44 42  2  0
 47 22  1  0
 47 48  1  0
 49 47  1  0
 51 55  1  0
 51 50  1  0
 52 51  1  0
 53 52  1  0
 54 52  1  0
 56 58  1  0
 56 55  1  0
 57 68  2  0
 58 63  1  0
 59 67  1  0
 59 69  1  0
 60 66  1  0
 60 62  1  0
 61 67  1  0
 62 63  2  0
 62 61  1  0
 64 58  2  0
 65 64  1  0
 65 60  2  0
 66 59  1  0
 67 57  1  0
 69 71  2  0
 70 69  1  0
 72 70  1  0
 73 82  2  0
 73 78  1  0
 74 70  1  0
 74 78  1  0
 75 74  1  0
 76 77  1  0
 76 75  1  0
 77 73  1  0
 78 79  2  0
 79 80  1  0
 81 80  2  0
 82 81  1  0
 83 57  1  0
 83 84  1  0
 83 93  1  0
 84 87  1  0
 85 89  1  0
 85 84  1  0
 86 85  2  0
 89 88  1  0
 91 89  1  0
 91 92  1  0
 91 90  1  0
 93 96  1  1
 93 94  1  0
 95 93  1  0
M  ISO  4  10 100  21 100  55 101  56 101
M  END
>  <TORSDO>  (27) 
F 22

>  <SCORE>  (27) 
-12.977

>  <name>  (27) 
27

>  <ligand_id>  (27) 
27

>  <original_smiles>  (27) 
[H]c1c([H])c([H])c2c(c1[H])C([H])([H])C([H])([H])C([H])([H])C2([H])N([H])C(=O)C1([H])N(C(=O)C([H])(N([H])C(=O)C([H])(N([H])C([H])([H])[H])C([H])([H])[H])C(C([H])([H])[H])(C([H])([H])[H])C([H])([H])[H])C([H])([H])c2c([H])c(OC([H])([H])C([H])(N([H])[H])C([H])([H])[N+]([H])([H])C3([H])C([H])([H])N(C([H])([H])C4([H])N(C(=O)N5C([H])([H])C([H])([H])C([H])([H])C([H])(n6nc(-c7c([H])c([H])c(Oc8c([H])c([H])c(F)c([H])c8F)c([H])c7[H])c(C(=O)N([H])[H])c6N([H])[H])C5([H])[H])C([H])([H])C4([H])[H])C([H])([H])C3([H])[H])c([H])c([H])c2C1([H])[H]

>  <smiles>  (27) 
[H]c1c([H])c([H])c2c(c1[H])C([H])([H])C([H])([H])C([H])([H])C2([H])N([H])C(=O)C1([H])N(C(=O)C([H])(N([H])C(=O)C([H])(N([H])C([H])([H])[H])C([H])([H])[H])C(C([H])([H])[H])(C([H])([H])[H])C([H])([H])[H])C([H])([H])c2c([H])c(OC([H])([H])C([H])(N([H])[H])C([H])([H])[N+]([H])([H])C3([H])C([H])([H])N(C([H])([H])C4([H])N(C(=O)N5C([H])([H])C([H])([H])C([H])([H])C([H])(n6nc(-c7c([H])c([H])c(Oc8c([H])c([H])c(F)c([H])c8F)c([H])c7[H])c(C(=O)N([H])[H])c6N([H])[H])C5([H])[H])C([H])([H])C4([H])[H])C([H])([H])C3([H])[H])c([H])c([H])c2C1([H])[H]

$$$$
28:0:0
     RDKit          3D

103114  0  0  1  0  0  0  0  0999 V2000
  -29.4660  -19.3480   20.6120 N   0  0  0  0  0  4  0  0  0  0  0  0
  -28.7550  -19.2760   19.9000 H   0  0  0  0  0  0  0  0  0  0  0  0
  -29.0060  -19.3670   21.5070 H   0  0  0  0  0  0  0  0  0  0  0  0
  -30.2230  -20.6130   20.4000 C   0  0  0  0  0  2  0  0  0  0  0  0
  -28.7700  -22.6430   19.8400 C   0  0  0  0  0  3  0  0  0  0  0  0
  -28.4120  -23.9850   20.0880 C   0  0  0  0  0  3  0  0  0  0  0  0
  -29.5520  -21.9460   20.7870 C   0  0  0  0  0  0  0  0  0  0  0  0
  -29.8610  -22.6220   21.9960 C   0  0  0  0  0  0  0  0  0  0  0  0
  -28.8380  -24.5940   21.2810 C   0  0  0  0  0  0  0  0  0  0  0  0
  -29.5240  -23.9140   22.2220 N   0  0  0  0  0  0  0  0  0  0  0  0
  -30.3380  -20.6440   23.6560 C   0  0  0  0  0  2  0  0  0  0  0  0
  -30.1370  -21.8750   24.4990 C   0  0  0  0  0  2  0  0  0  0  0  0
  -30.6840  -22.0080   23.0930 C   0  0  0  0  0  3  0  0  0  0  0  0
  -28.8320  -25.9650   21.4370 O   0  0  0  0  0  0  0  0  0  0  0  0
  -27.7660  -31.8470   25.3060 C   0  0  0  0  0  0  0  0  0  0  0  0
  -28.0170  -26.6180   22.3360 C   0  0  0  0  0  0  0  0  0  0  0  0
  -26.1680  -29.9990   25.6990 C   0  0  0  0  0  3  0  0  0  0  0  0
  -26.2810  -28.0620   24.0420 C   0  0  0  0  0  0  0  0  0  0  0  0
  -27.3400  -30.2480   23.4420 C   0  0  0  0  0  2  0  0  0  0  0  0
  -27.2530  -28.7410   23.3000 C   0  0  0  0  0  0  0  0  0  0  0  0
  -28.1190  -28.0240   22.4460 C   0  0  0  0  0  3  0  0  0  0  0  0
  -27.0300  -25.9460   23.0920 C   0  0  0  0  0  3  0  0  0  0  0  0
  -26.1670  -26.6630   23.9440 C   0  0  0  0  0  3  0  0  0  0  0  0
  -25.3870  -28.9010   24.9270 C   0  0  0  0  0  2  0  0  0  0  0  0
  -27.1430  -30.7310   24.8290 N   0  0  0  0  0  0  0  0  0  0  0  0
  -27.5100  -32.2910   26.4330 O   0  0  0  0  0  0  0  0  0  0  0  0
  -26.8230  -29.3540   26.9410 C   0  0  0  0  0  0  0  0  0  0  0  0
  -26.2770  -29.6570   28.1310 N   0  0  0  0  0  0  0  0  0  0  0  0
  -27.7760  -28.5810   26.8230 O   0  0  0  0  0  0  0  0  0  0  0  0
  -25.5030  -30.3060   28.1450 H   0  0  0  0  0  0  0  0  0  0  0  0
  -26.0380  -30.1840   31.6960 C   0  0  0  0  0  0  0  0  0  0  0  0
  -26.7020  -29.1350   29.4290 C   0  0  0  0  0  3  0  0  0  0  0  0
  -25.8370  -27.9250   29.8510 C   0  0  0  0  0  2  0  0  0  0  0  0
  -24.6390  -28.3140   30.7220 C   0  0  0  0  0  2  0  0  0  0  0  0
  -25.1080  -29.0210   31.9960 C   0  0  0  0  0  2  0  0  0  0  0  0
  -26.7750  -30.2450   30.4840 C   0  0  0  0  0  0  0  0  0  0  0  0
  -27.5990  -31.3660   30.2390 C   0  0  0  0  0  3  0  0  0  0  0  0
  -27.6940  -32.4080   31.1800 C   0  0  0  0  0  3  0  0  0  0  0  0
  -26.9750  -32.3350   32.3850 C   0  0  0  0  0  3  0  0  0  0  0  0
  -26.1530  -31.2230   32.6430 C   0  0  0  0  0  3  0  0  0  0  0  0
  -28.8120  -32.6310   24.4510 C   0  0  0  0  0  3  0  0  0  0  0  0
  -28.5520  -34.0640   24.6390 N   0  0  0  0  0  0  0  0  0  0  0  0
  -27.9480  -34.8520   23.7400 C   0  0  0  0  0  0  0  0  0  0  0  0
  -27.6100  -34.4540   22.6210 O   0  0  0  0  0  0  0  0  0  0  0  0
  -28.7530  -34.4440   25.5530 H   0  0  0  0  0  0  0  0  0  0  0  0
  -26.1900  -36.4740   24.5150 C   0  0  0  0  0  1  0  0  0  0  0  0
  -27.6730  -36.3120   24.1470 C   0  0  0  0  0  3  0  0  0  0  0  0
  -29.4790  -37.3990   22.8860 C   0  0  0  0  0  1  0  0  0  0  0  0
  -28.0380  -37.2920   23.1010 N   0  0  0  0  0  0  0  0  0  0  0  0
  -27.6840  -38.2160   23.3360 H   0  0  0  0  0  0  0  0  0  0  0  0
  -30.3070  -32.2820   24.8200 C   0  0  1  0  0  0  0  0  0  0  0  0
  -30.5980  -32.3260   26.3370 C   0  0  0  0  0  1  0  0  0  0  0  0
  -30.6770  -30.8710   24.3070 C   0  0  0  0  0  1  0  0  0  0  0  0
  -31.2640  -33.2750   24.1210 C   0  0  0  0  0  1  0  0  0  0  0  0
  -30.3570  -18.1550   20.5470 C   0  0  0  0  0  2  0  0  0  0  0  0
  -29.6510  -16.7710   20.4340 C   0  0  0  0  0  2  0  0  0  0  0  0
  -29.8390  -13.8600   18.6430 C   0  0  0  0  0  0  0  0  0  0  0  0
  -28.6750  -12.3140   17.0960 C   0  0  0  0  0  2  0  0  0  0  0  0
  -27.3430  -12.8890   16.5760 C   0  0  0  0  0  2  0  0  0  0  0  0
  -26.1940  -12.5620   17.5470 C   0  0  0  0  0  2  0  0  0  0  0  0
  -26.5440  -12.9280   19.0110 C   0  0  0  0  0  3  0  0  0  0  0  0
  -27.9250  -12.3700   19.4030 C   0  0  0  0  0  2  0  0  0  0  0  0
  -28.9360  -12.8540   18.4430 N   0  0  0  0  0  0  0  0  0  0  0  0
  -30.4290  -14.3960   17.6970 O   0  0  0  0  0  0  0  0  0  0  0  0
  -31.5450  -15.3780   21.4890 C   0  0  0  0  0  2  0  0  0  0  0  0
  -30.4850  -13.3360   20.9610 C   0  0  0  0  0  2  0  0  0  0  0  0
  -31.8140  -13.8810   21.4850 C   0  0  0  0  0  3  0  0  0  0  0  0
  -30.6680  -15.6040   20.2390 C   0  0  0  0  0  3  0  0  0  0  0  0
  -30.0470  -14.2860   19.9230 N   0  0  0  0  0  0  0  0  0  0  0  0
  -24.6340  -13.2300   20.7110 C   0  0  0  0  0  0  0  0  0  0  0  0
  -23.8280  -12.3270   21.3520 C   0  0  0  0  0  0  0  0  0  0  0  0
  -24.2650  -11.0360   20.9240 C   0  0  0  0  0  0  0  0  0  0  0  0
  -25.5080  -12.4800   19.9400 N   0  0  0  0  0  0  0  0  0  0  0  0
  -25.3150  -11.1480   20.1190 N   0  0  0  0  0  0  0  0  0  0  0  0
  -23.7080   -9.7020   21.1870 C   0  0  0  0  0  0  0  0  0  0  0  0
  -24.3470   -8.7940   22.0600 C   0  0  0  0  0  3  0  0  0  0  0  0
  -23.7820   -7.5240   22.3090 C   0  0  0  0  0  3  0  0  0  0  0  0
  -22.5660   -7.1540   21.6860 C   0  0  0  0  0  0  0  0  0  0  0  0
  -21.9480   -8.0530   20.8010 C   0  0  0  0  0  3  0  0  0  0  0  0
  -22.5140   -9.3140   20.5490 C   0  0  0  0  0  3  0  0  0  0  0  0
  -21.9580   -5.9330   21.8480 O   0  0  0  0  0  0  0  0  0  0  0  0
  -21.8650   -5.3320   23.0790 C   0  0  0  0  0  0  0  0  0  0  0  0
  -21.1800   -5.9400   24.1540 C   0  0  0  0  0  3  0  0  0  0  0  0
  -21.0500   -5.2570   25.3800 C   0  0  0  0  0  3  0  0  0  0  0  0
  -21.5930   -3.9670   25.5310 C   0  0  0  0  0  0  0  0  0  0  0  0
  -22.2700   -3.3580   24.4580 C   0  0  0  0  0  3  0  0  0  0  0  0
  -22.4030   -4.0390   23.2350 C   0  0  0  0  0  0  0  0  0  0  0  0
  -23.0380   -3.4400   22.1990 F   0  0  0  0  0  0  0  0  0  0  0  0
  -21.4610   -3.3080   26.7050 F   0  0  0  0  0  0  0  0  0  0  0  0
  -22.6560  -12.6430   22.2350 C   0  0  0  0  0  0  0  0  0  0  0  0
  -22.3550  -11.7690   23.1900 N   0  0  0  0  0  0  0  0  0  0  0  0
  -22.0290  -13.6940   22.1130 O   0  0  0  0  0  0  0  0  0  0  0  0
  -22.8820  -10.9160   23.3030 H   0  0  0  0  0  0  0  0  0  0  0  0
  -21.5850  -11.9570   23.8170 H   0  0  0  0  0  0  0  0  0  0  0  0
  -24.6860  -14.6210   20.7040 N   0  0  0  0  0  0  0  0  0  0  0  0
  -24.0200  -15.1920   21.2120 H   0  0  0  0  0  0  0  0  0  0  0  0
  -25.3250  -15.1660   20.1400 H   0  0  0  0  0  0  0  0  0  0  0  0
  -32.2380  -13.3220   22.7910 N   0  0  0  0  0  4  0  0  0  0  0  0
  -32.7770  -14.0310   23.2640 H   0  0  0  0  0  0  0  0  0  0  0  0
  -31.4310  -13.1360   23.3650 H   0  0  0  0  0  0  0  0  0  0  0  0
  -33.2400  -11.3600   23.9980 C   0  0  0  0  0  2  0  0  0  0  0  0
  -32.3300  -10.8080   22.9210 C   0  0  0  0  0  2  0  0  0  0  0  0
  -33.0750  -12.1050   22.6910 C   0  0  0  0  0  3  0  0  0  0  0  0
  1  3  1  0
  2  1  1  0
  4  1  1  0
  4  7  1  0
  5  6  2  0
  5  7  1  0
  6  9  1  0
  7  8  2  0
  8 10  1  0
  8 13  1  0
  9 14  1  0
  9 10  2  0
 11 12  1  0
 13 11  1  0
 13 12  1  0
 14 16  1  0
 15 26  2  0
 16 21  2  0
 16 22  1  0
 17 27  1  0
 18 24  1  0
 19 25  1  0
 20 19  1  0
 20 18  2  0
 21 20  1  0
 22 23  2  0
 23 18  1  0
 24 17  1  0
 25 15  1  0
 25 17  1  0
 27 28  1  0
 28 30  1  0
 29 27  2  0
 31 35  1  0
 31 40  1  0
 32 28  1  0
 32 33  1  0
 32 36  1  0
 33 34  1  0
 34 35  1  0
 36 31  2  0
 37 36  1  0
 37 38  2  0
 38 39  1  0
 39 40  2  0
 41 42  1  0
 41 51  1  0
 41 15  1  0
 42 45  1  0
 43 47  1  0
 43 42  1  0
 44 43  2  0
 47 46  1  0
 48 49  1  0
 49 50  1  0
 49 47  1  0
 51 52  1  1
 53 51  1  0
 54 51  1  0
 55  1  1  0
 56 55  1  0
 57 69  1  0
 58 63  1  0
 59 58  1  0
 59 60  1  0
 61 60  1  0
 61 62  1  0
 61 73  1  0
 63 57  1  0
 63 62  1  0
 64 57  2  0
 66 67  1  0
 67 65  1  0
 67 98  1  0
 68 56  1  0
 68 65  1  0
 69 68  1  0
 69 66  1  0
 70 71  2  0
 71 90  1  0
 72 75  1  0
 72 71  1  0
 73 74  1  0
 73 70  1  0
 74 72  2  0
 75 76  1  0
 76 77  2  0
 78 81  1  0
 78 77  1  0
 79 78  2  0
 80 79  1  0
 80 75  2  0
 81 82  1  0
 82 87  2  0
 82 83  1  0
 83 84  2  0
 84 85  1  0
 85 89  1  0
 86 85  2  0
 87 86  1  0
 88 87  1  0
 90 91  1  0
 91 93  1  0
 91 94  1  0
 92 90  2  0
 95 70  1  0
 95 96  1  0
 97 95  1  0
 98 99  1  0
 98100  1  0
102101  1  0
103 98  1  0
103102  1  0
103101  1  0
M  ISO  4   9 101  14 101  57 100  69 100
M  END
>  <TORSDO>  (28) 
F 23

>  <SCORE>  (28) 
-0.969

>  <name>  (28) 
28

>  <ligand_id>  (28) 
28

>  <original_smiles>  (28) 
[H]c1c(Oc2c([H])c([H])c3c(c2[H])C([H])([H])N(C(=O)C([H])(N([H])C(=O)C([H])(N([H])C([H])([H])[H])C([H])([H])[H])C(C([H])([H])[H])(C([H])([H])[H])C([H])([H])[H])C([H])(C(=O)N([H])C2([H])c4c([H])c([H])c([H])c([H])c4C([H])([H])C([H])([H])C2([H])[H])C3([H])[H])nc(C2([H])C([H])([H])C2([H])[H])c(C([H])([H])[N+]([H])([H])C([H])([H])C([H])([H])C2([H])N(C(=O)N3C([H])([H])C([H])([H])C([H])([H])C([H])(n4nc(-c5c([H])c([H])c(Oc6c([H])c([H])c(F)c([H])c6F)c([H])c5[H])c(C(=O)N([H])[H])c4N([H])[H])C3([H])[H])C([H])([H])C([H])([N+]([H])([H])C3([H])C([H])([H])C3([H])[H])C2([H])[H])c1[H]

>  <smiles>  (28) 
[H]c1c(Oc2c([H])c([H])c3c(c2[H])C([H])([H])N(C(=O)C([H])(N([H])C(=O)C([H])(N([H])C([H])([H])[H])C([H])([H])[H])C(C([H])([H])[H])(C([H])([H])[H])C([H])([H])[H])C([H])(C(=O)N([H])C2([H])c4c([H])c([H])c([H])c([H])c4C([H])([H])C([H])([H])C2([H])[H])C3([H])[H])nc(C2([H])C([H])([H])C2([H])[H])c(C([H])([H])[N+]([H])([H])C([H])([H])C([H])([H])C2([H])N(C(=O)N3C([H])([H])C([H])([H])C([H])([H])C([H])(n4nc(-c5c([H])c([H])c(Oc6c([H])c([H])c(F)c([H])c6F)c([H])c5[H])c(C(=O)N([H])[H])c4N([H])[H])C3([H])[H])C([H])([H])C([H])([N+]([H])([H])C3([H])C([H])([H])C3([H])[H])C2([H])[H])c1[H]

$$$$
29:0:0
     RDKit          3D

 95104  0  0  1  0  0  0  0  0999 V2000
  -30.6450  -14.5300   20.4670 C   0  0  0  0  0  0  0  0  0  0  0  0
  -30.3500  -12.3400   19.3750 C   0  0  0  0  0  2  0  0  0  0  0  0
  -29.4020  -12.4900   18.1690 C   0  0  0  0  0  2  0  0  0  0  0  0
  -27.9300  -12.3430   18.6050 C   0  0  0  0  0  2  0  0  0  0  0  0
  -27.5810  -13.2150   19.8390 C   0  0  0  0  0  3  0  0  0  0  0  0
  -28.6460  -13.0630   20.9510 C   0  0  0  0  0  2  0  0  0  0  0  0
  -29.9680  -13.3550   20.3660 N   0  0  0  0  0  0  0  0  0  0  0  0
  -31.7700  -14.7100   19.9920 O   0  0  0  0  0  0  0  0  0  0  0  0
  -31.9800  -21.6080   21.2870 C   0  0  0  0  0  3  0  0  0  0  0  0
  -29.7700  -20.6340   20.0890 C   0  0  0  0  0  3  0  0  0  0  0  0
  -31.1050  -22.4530   20.5630 C   0  0  0  0  0  0  0  0  0  0  0  0
  -30.6580  -19.7710   20.7940 C   0  0  0  0  0  0  0  0  0  0  0  0
  -29.9140  -17.6750   19.7350 C   0  0  0  0  0  2  0  0  0  0  0  0
  -31.2420  -17.5640   21.8130 C   0  0  0  0  0  2  0  0  0  0  0  0
  -29.1480  -16.4180   20.1710 C   0  0  0  0  0  2  0  0  0  0  0  0
  -30.5090  -16.2580   22.1980 C   0  0  0  0  0  2  0  0  0  0  0  0
  -29.9850  -21.9700   19.9700 N   0  0  0  0  0  0  0  0  0  0  0  0
  -31.7600  -20.2760   21.4030 N   0  0  0  0  0  0  0  0  0  0  0  0
  -30.4270  -18.3790   20.9060 N   0  0  0  0  0  0  0  0  0  0  0  0
  -29.9670  -15.5490   21.0310 N   0  0  0  0  0  0  0  0  0  0  0  0
  -25.1960  -13.8430   20.5710 C   0  0  0  0  0  0  0  0  0  0  0  0
  -24.1240  -13.0750   20.9390 C   0  0  0  0  0  0  0  0  0  0  0  0
  -24.5740  -11.7200   20.8870 C   0  0  0  0  0  0  0  0  0  0  0  0
  -26.2330  -12.9520   20.3280 N   0  0  0  0  0  0  0  0  0  0  0  0
  -25.8610  -11.6710   20.5720 N   0  0  0  0  0  0  0  0  0  0  0  0
  -23.8410  -10.4620   21.0630 C   0  0  0  0  0  0  0  0  0  0  0  0
  -24.2660   -9.4880   21.9930 C   0  0  0  0  0  3  0  0  0  0  0  0
  -23.5380   -8.2900   22.1570 C   0  0  0  0  0  3  0  0  0  0  0  0
  -22.3710   -8.0610   21.3910 C   0  0  0  0  0  0  0  0  0  0  0  0
  -21.9660   -9.0240   20.4500 C   0  0  0  0  0  3  0  0  0  0  0  0
  -22.6950  -10.2130   20.2830 C   0  0  0  0  0  3  0  0  0  0  0  0
  -21.6110   -6.9190   21.4670 O   0  0  0  0  0  0  0  0  0  0  0  0
  -21.5270   -6.1860   22.6240 C   0  0  0  0  0  0  0  0  0  0  0  0
  -21.0490   -6.7500   23.8280 C   0  0  0  0  0  3  0  0  0  0  0  0
  -20.9170   -5.9440   24.9760 C   0  0  0  0  0  3  0  0  0  0  0  0
  -21.2470   -4.5760   24.9200 C   0  0  0  0  0  0  0  0  0  0  0  0
  -21.7150   -4.0130   23.7190 C   0  0  0  0  0  3  0  0  0  0  0  0
  -21.8520   -4.8160   22.5740 C   0  0  0  0  0  0  0  0  0  0  0  0
  -22.2850   -4.2630   21.4150 F   0  0  0  0  0  0  0  0  0  0  0  0
  -21.1090   -3.7990   26.0200 F   0  0  0  0  0  0  0  0  0  0  0  0
  -22.7330  -13.5590   21.2260 C   0  0  0  0  0  0  0  0  0  0  0  0
  -22.0040  -12.8610   22.0900 N   0  0  0  0  0  0  0  0  0  0  0  0
  -22.3000  -14.5940   20.7200 O   0  0  0  0  0  0  0  0  0  0  0  0
  -22.3650  -12.0240   22.5230 H   0  0  0  0  0  0  0  0  0  0  0  0
  -21.0720  -13.1730   22.3250 H   0  0  0  0  0  0  0  0  0  0  0  0
  -25.3690  -15.2140   20.4020 N   0  0  0  0  0  0  0  0  0  0  0  0
  -24.6110  -15.8760   20.5220 H   0  0  0  0  0  0  0  0  0  0  0  0
  -26.2240  -15.6450   20.0760 H   0  0  0  0  0  0  0  0  0  0  0  0
  -31.4160  -23.9330   20.3700 C   0  0  0  0  0  2  0  0  0  0  0  0
  -30.2240  -24.8000   20.4970 N   0  0  0  0  0  4  0  0  0  0  0  0
  -29.9040  -24.7550   21.4500 H   0  0  0  0  0  0  0  0  0  0  0  0
  -29.5040  -24.3950   19.9180 H   0  0  0  0  0  0  0  0  0  0  0  0
  -30.4700  -26.2080   20.0860 C   0  0  0  0  0  2  0  0  0  0  0  0
  -29.3140  -27.1640   20.4350 C   0  0  0  0  0  2  0  0  0  0  0  0
  -28.1400  -26.7890   19.7210 O   0  0  0  0  0  0  0  0  0  0  0  0
  -24.4790  -31.8940   23.1760 C   0  0  0  0  0  0  0  0  0  0  0  0
  -27.0090  -27.5680   19.8610 C   0  0  0  0  0  0  0  0  0  0  0  0
  -23.2020  -30.5470   21.5360 C   0  0  0  0  0  3  0  0  0  0  0  0
  -24.5980  -29.0450   20.0170 C   0  0  0  0  0  0  0  0  0  0  0  0
  -25.7140  -30.9130   21.2510 C   0  0  0  0  0  2  0  0  0  0  0  0
  -25.7720  -29.5580   20.5790 C   0  0  0  0  0  0  0  0  0  0  0  0
  -26.9750  -28.8270   20.5120 C   0  0  0  0  0  3  0  0  0  0  0  0
  -25.8160  -27.0680   19.2980 C   0  0  0  0  0  3  0  0  0  0  0  0
  -24.6110  -27.7930   19.3780 C   0  0  0  0  0  3  0  0  0  0  0  0
  -23.3560  -29.9010   20.1320 C   0  0  0  0  0  2  0  0  0  0  0  0
  -24.4850  -31.1300   22.0470 N   0  0  0  0  0  0  0  0  0  0  0  0
  -23.4220  -32.1550   23.7660 O   0  0  0  0  0  0  0  0  0  0  0  0
  -22.5830  -29.5010   22.4900 C   0  0  0  0  0  0  0  0  0  0  0  0
  -21.2560  -29.3190   22.3950 N   0  0  0  0  0  0  0  0  0  0  0  0
  -23.2920  -28.8570   23.2680 O   0  0  0  0  0  0  0  0  0  0  0  0
  -20.7480  -29.8920   21.7380 H   0  0  0  0  0  0  0  0  0  0  0  0
  -17.9040  -28.0820   22.9200 C   0  0  0  0  0  0  0  0  0  0  0  0
  -20.4620  -28.3610   23.1620 C   0  0  0  0  0  3  0  0  0  0  0  0
  -20.5710  -26.9410   22.5610 C   0  0  0  0  0  2  0  0  0  0  0  0
  -19.4590  -26.6220   21.5580 C   0  0  0  0  0  2  0  0  0  0  0  0
  -18.0850  -26.7450   22.2230 C   0  0  0  0  0  2  0  0  0  0  0  0
  -19.0210  -28.8480   23.3470 C   0  0  0  0  0  0  0  0  0  0  0  0
  -18.7990  -30.1020   23.9560 C   0  0  0  0  0  3  0  0  0  0  0  0
  -17.4920  -30.5880   24.1470 C   0  0  0  0  0  3  0  0  0  0  0  0
  -16.3890  -29.8170   23.7390 C   0  0  0  0  0  3  0  0  0  0  0  0
  -16.5960  -28.5660   23.1320 C   0  0  0  0  0  3  0  0  0  0  0  0
  -25.7940  -32.4950   23.7660 C   0  0  0  0  0  3  0  0  0  0  0  0
  -26.3510  -31.6860   25.0010 C   0  0  1  0  0  0  0  0  0  0  0  0
  -25.2980  -31.4380   26.1050 C   0  0  0  0  0  1  0  0  0  0  0  0
  -26.8960  -30.3100   24.5480 C   0  0  0  0  0  1  0  0  0  0  0  0
  -27.5380  -32.4480   25.6340 C   0  0  0  0  0  1  0  0  0  0  0  0
  -25.5130  -33.8880   24.1380 N   0  0  0  0  0  0  0  0  0  0  0  0
  -25.8350  -34.9530   23.3900 C   0  0  0  0  0  0  0  0  0  0  0  0
  -26.4700  -34.8650   22.3360 O   0  0  0  0  0  0  0  0  0  0  0  0
  -24.9450  -34.0310   24.9590 H   0  0  0  0  0  0  0  0  0  0  0  0
  -24.1210  -36.7730   23.1270 C   0  0  0  0  0  1  0  0  0  0  0  0
  -25.3790  -36.3350   23.8950 C   0  0  0  0  0  3  0  0  0  0  0  0
  -27.5450  -37.1760   24.6880 C   0  0  0  0  0  1  0  0  0  0  0  0
  -26.4220  -37.3780   23.7780 N   0  0  0  0  0  0  0  0  0  0  0  0
  -26.0300  -38.3000   23.9570 H   0  0  0  0  0  0  0  0  0  0  0  0
  1 20  1  0
  2  7  1  0
  3  4  1  0
  3  2  1  0
  5  4  1  0
  5 24  1  0
  5  6  1  0
  7  1  1  0
  7  6  1  0
  8  1  2  0
  9 18  1  0
 10 12  1  0
 11  9  2  0
 12 19  1  0
 12 18  2  0
 13 15  1  0
 13 19  1  0
 14 16  1  0
 15 20  1  0
 17 10  2  0
 17 11  1  0
 19 14  1  0
 20 16  1  0
 21 22  2  0
 22 41  1  0
 23 22  1  0
 23 26  1  0
 24 21  1  0
 24 25  1  0
 25 23  2  0
 26 27  1  0
 27 28  2  0
 29 32  1  0
 29 28  1  0
 30 29  2  0
 31 30  1  0
 31 26  2  0
 32 33  1  0
 33 34  1  0
 34 35  2  0
 36 35  1  0
 36 40  1  0
 37 36  2  0
 38 33  2  0
 38 37  1  0
 39 38  1  0
 41 42  1  0
 42 45  1  0
 42 44  1  0
 43 41  2  0
 46 47  1  0
 46 21  1  0
 48 46  1  0
 49 50  1  0
 49 11  1  0
 50 51  1  0
 52 50  1  0
 53 54  1  0
 53 50  1  0
 55 57  1  0
 55 54  1  0
 56 67  2  0
 57 62  1  0
 58 66  1  0
 58 68  1  0
 59 65  1  0
 59 61  1  0
 60 66  1  0
 61 60  1  0
 62 61  2  0
 63 64  1  0
 63 57  2  0
 64 59  2  0
 65 58  1  0
 66 56  1  0
 68 70  2  0
 69 68  1  0
 71 69  1  0
 72 81  2  0
 72 77  1  0
 73 69  1  0
 73 77  1  0
 74 73  1  0
 75 76  1  0
 75 74  1  0
 76 72  1  0
 77 78  2  0
 78 79  1  0
 80 79  2  0
 81 80  1  0
 82 56  1  0
 82 87  1  0
 82 83  1  0
 83 86  1  1
 83 84  1  0
 85 83  1  0
 87 90  1  0
 88 92  1  0
 88 87  1  0
 89 88  2  0
 92 91  1  0
 94 92  1  0
 94 95  1  0
 94 93  1  0
M  ISO  4   1 100  20 100  54 101  55 101
M  END
>  <TORSDO>  (29) 
F 19

>  <SCORE>  (29) 
-14.252

>  <name>  (29) 
29

>  <ligand_id>  (29) 
29

>  <original_smiles>  (29) 
[H]c1nc(C([H])([H])[N+]([H])([H])C([H])([H])C([H])([H])Oc2c([H])c([H])c3c(c2[H])C([H])([H])N(C(=O)C([H])(N([H])C(=O)C([H])(N([H])C([H])([H])[H])C([H])([H])[H])C(C([H])([H])[H])(C([H])([H])[H])C([H])([H])[H])C([H])(C(=O)N([H])C2([H])c4c([H])c([H])c([H])c([H])c4C([H])([H])C([H])([H])C2([H])[H])C3([H])[H])c([H])nc1N1C([H])([H])C([H])([H])N(C(=O)N2C([H])([H])C([H])([H])C([H])([H])C([H])(n3nc(-c4c([H])c([H])c(Oc5c([H])c([H])c(F)c([H])c5F)c([H])c4[H])c(C(=O)N([H])[H])c3N([H])[H])C2([H])[H])C([H])([H])C1([H])[H]

>  <smiles>  (29) 
[H]c1nc(C([H])([H])[N+]([H])([H])C([H])([H])C([H])([H])Oc2c([H])c([H])c3c(c2[H])C([H])([H])N(C(=O)C([H])(N([H])C(=O)C([H])(N([H])C([H])([H])[H])C([H])([H])[H])C(C([H])([H])[H])(C([H])([H])[H])C([H])([H])[H])C([H])(C(=O)N([H])C2([H])c4c([H])c([H])c([H])c([H])c4C([H])([H])C([H])([H])C2([H])[H])C3([H])[H])c([H])nc1N1C([H])([H])C([H])([H])N(C(=O)N2C([H])([H])C([H])([H])C([H])([H])C([H])(n3nc(-c4c([H])c([H])c(Oc5c([H])c([H])c(F)c([H])c5F)c([H])c4[H])c(C(=O)N([H])[H])c3N([H])[H])C2([H])[H])C([H])([H])C1([H])[H]

$$$$
30:0:0
     RDKit          3D

101102  0  0  1  0  0  0  0  0999 V2000
  -18.7440  -26.2420   19.2580 C   0  0  0  0  0  2  0  0  0  0  0  0
  -20.0800  -27.0690   18.4620 C   0  0  0  0  0  0  0  0  0  0  0  0
  -18.9830  -25.6520   20.8680 C   0  0  0  0  0  3  0  0  0  0  0  0
  -22.2510  -26.5490   20.4270 C   0  0  0  0  0  1  0  0  0  0  0  0
  -21.6190  -27.2740   19.1120 N   0  0  0  0  0  0  0  0  0  0  0  0
  -20.4380  -26.3190   21.4430 N   0  0  0  0  0  1  0  0  0  0  0  0
  -23.8710  -24.9740   20.3760 N   0  0  0  0  0 15  0  0  0  0  0  0
  -24.6490  -25.5310   20.0340 H   0  0  0  0  0  0  0  0  0  0  0  0
  -29.0720  -17.7870   20.2410 C   0  0  0  0  0  2  0  0  0  0  0  0
  -30.5580  -15.0910   19.5130 C   0  0  0  0  0  2  0  0  0  0  0  0
  -30.3210  -13.7920   18.5480 C   0  0  0  0  0  2  0  0  0  0  0  0
  -29.1630  -12.9090   18.9980 C   0  0  0  0  0  2  0  0  0  0  0  0
  -28.2420  -13.8960   19.7050 C   0  0  0  0  0  3  0  0  0  0  0  0
  -28.8390  -14.8490   20.7940 C   0  0  0  0  0  2  0  0  0  0  0  0
  -29.3190  -16.1130   20.0750 N   0  0  0  0  0  0  0  0  0  0  0  0
  -30.3980  -17.7430   20.2780 O   0  0  0  0  0  1  0  0  0  0  0  0
  -26.8460  -22.5330   20.7980 C   0  0  0  0  0  2  0  0  0  0  0  0
  -27.8490  -20.9440   20.9770 C   0  0  0  0  0  3  0  0  0  0  0  0
  -26.1520  -20.8000   20.0540 C   0  0  0  0  0  1  0  0  0  0  0  0
  -25.1050  -22.9460   20.6160 C   0  0  0  0  0  1  0  0  0  0  0  0
  -27.8000  -19.3980   20.3390 N   0  0  0  0  0  1  0  0  0  0  0  0
  -25.9230  -14.2530   20.3500 C   0  0  0  0  0  0  0  0  0  0  0  0
  -24.9080  -13.4330   20.7010 C   0  0  0  0  0  0  0  0  0  0  0  0
  -25.4370  -12.1040   20.6790 C   0  0  0  0  0  0  0  0  0  0  0  0
  -26.9890  -13.4180   20.1390 N   0  0  0  0  0  0  0  0  0  0  0  0
  -26.7350  -12.1150   20.3890 N   0  0  0  0  0  0  0  0  0  0  0  0
  -24.7540  -10.8240   20.8430 C   0  0  0  0  0  0  0  0  0  0  0  0
  -25.1340   -9.9010   21.8410 C   0  0  0  0  0  3  0  0  0  0  0  0
  -24.4300   -8.6890   21.9920 C   0  0  0  0  0  3  0  0  0  0  0  0
  -23.3360   -8.3950   21.1420 C   0  0  0  0  0  0  0  0  0  0  0  0
  -22.9850   -9.3050   20.1320 C   0  0  0  0  0  3  0  0  0  0  0  0
  -23.6890  -10.5080   19.9790 C   0  0  0  0  0  3  0  0  0  0  0  0
  -22.6100   -7.2320   21.1980 O   0  0  0  0  0  0  0  0  0  0  0  0
  -22.2790   -6.6520   22.3950 C   0  0  0  0  0  0  0  0  0  0  0  0
  -21.6610   -7.3820   23.4330 C   0  0  0  0  0  3  0  0  0  0  0  0
  -21.2750   -6.7300   24.6210 C   0  0  0  0  0  3  0  0  0  0  0  0
  -21.4970   -5.3470   24.7670 C   0  0  0  0  0  0  0  0  0  0  0  0
  -22.1090   -4.6180   23.7340 C   0  0  0  0  0  3  0  0  0  0  0  0
  -22.4960   -5.2680   22.5500 C   0  0  0  0  0  0  0  0  0  0  0  0
  -23.0660   -4.5590   21.5460 F   0  0  0  0  0  0  0  0  0  0  0  0
  -21.1200   -4.7150   25.9040 F   0  0  0  0  0  0  0  0  0  0  0  0
  -23.5020  -13.8750   20.9340 C   0  0  0  0  0  0  0  0  0  0  0  0
  -22.8150  -13.2560   21.8810 N   0  0  0  0  0  0  0  0  0  0  0  0
  -23.0260  -14.8190   20.3050 O   0  0  0  0  0  0  0  0  0  0  0  0
  -23.2200  -12.4980   22.4110 H   0  0  0  0  0  0  0  0  0  0  0  0
  -21.8690  -13.5480   22.0850 H   0  0  0  0  0  0  0  0  0  0  0  0
  -26.0290  -15.6320   20.1600 N   0  0  0  0  0  0  0  0  0  0  0  0
  -25.2150  -16.2370   20.1930 H   0  0  0  0  0  0  0  0  0  0  0  0
  -26.8270  -16.0480   19.7020 H   0  0  0  0  0  0  0  0  0  0  0  0
  -19.8720  -27.5570   17.0770 C   0  0  0  0  0  0  0  0  0  0  0  0
  -18.5250  -27.2870   16.4250 C   0  0  0  0  0  1  0  0  0  0  0  0
  -20.7460  -28.1320   16.4260 O   0  0  0  0  0  0  0  0  0  0  0  0
  -19.9830  -22.5410   21.1950 C   0  0  0  0  0  2  0  0  0  0  0  0
  -19.1830  -23.7550   20.6420 C   0  0  0  0  0  3  0  0  0  0  0  0
  -20.5550  -22.7390   19.7610 C   0  0  0  0  0  3  0  0  0  0  0  0
  -22.2610  -23.0260   19.4040 N   0  0  0  0  0  4  0  0  0  0  0  0
  -22.5000  -22.2860   18.7540 H   0  0  0  0  0  0  0  0  0  0  0  0
  -22.7180  -22.7770   20.2740 H   0  0  0  0  0  0  0  0  0  0  0  0
  -23.2970  -24.3400   18.8700 C   0  0  0  0  0  2  0  0  0  0  0  0
  -25.0480  -25.0150   19.3240 C   0  0  0  0  0  3  0  0  0  0  0  0
  -26.1240  -25.9420   20.3540 O   0  0  0  0  0  0  0  0  0  0  0  0
  -27.8560  -32.0400   23.8960 C   0  0  0  0  0  0  0  0  0  0  0  0
  -26.6440  -27.2660   20.1340 C   0  0  0  0  0  0  0  0  0  0  0  0
  -25.7610  -31.2660   22.9250 C   0  0  0  0  0  3  0  0  0  0  0  0
  -25.8780  -29.8030   20.8490 C   0  0  0  0  0  0  0  0  0  0  0  0
  -27.9980  -30.6530   21.7830 C   0  0  0  0  0  2  0  0  0  0  0  0
  -27.2200  -29.5070   21.0950 C   0  0  0  0  0  0  0  0  0  0  0  0
  -27.6270  -28.1420   20.8010 C   0  0  0  0  0  3  0  0  0  0  0  0
  -25.6620  -27.8830   19.4280 C   0  0  0  0  0  3  0  0  0  0  0  0
  -25.1200  -29.0090   20.0010 C   0  0  0  0  0  3  0  0  0  0  0  0
  -25.2310  -30.9890   21.5040 C   0  0  0  0  0  2  0  0  0  0  0  0
  -27.2520  -31.3760   22.8700 N   0  0  0  0  0  0  0  0  0  0  0  0
  -27.1900  -32.6060   24.7780 O   0  0  0  0  0  0  0  0  0  0  0  0
  -25.3650  -30.1730   23.9870 C   0  0  0  0  0  0  0  0  0  0  0  0
  -24.1820  -30.0990   24.5810 N   0  0  0  0  0  0  0  0  0  0  0  0
  -26.1670  -29.3250   24.3240 O   0  0  0  0  0  0  0  0  0  0  0  0
  -23.4970  -30.7780   24.2690 H   0  0  0  0  0  0  0  0  0  0  0  0
  -22.8670  -27.9160   23.4050 C   0  0  0  0  0  2  0  0  0  0  0  0
  -23.5980  -29.1710   25.6660 C   0  0  0  0  0  2  0  0  0  0  0  0
  -24.5430  -27.7870   26.8780 C   0  0  0  0  0 15  0  0  0  0  0  0
  -25.3710  -25.8550   26.1390 C   0  0  0  0  0 15  0  0  0  0  0  0
  -25.3200  -25.8630   23.8180 C   0  0  0  0  0 15  0  0  0  0  0  0
  -22.5100  -28.9460   24.4620 C   0  0  0  0  0  3  0  0  0  0  0  0
  -21.3610  -29.8790   24.4410 C   0  0  0  0  0  2  0  0  0  0  0  0
  -20.1690  -29.7100   23.7060 C   0  0  0  0  0  2  0  0  0  0  0  0
  -20.1520  -28.4930   23.0220 C   0  0  0  0  0  3  0  0  0  0  0  0
  -21.3920  -27.6890   22.9210 C   0  0  0  0  0  3  0  0  0  0  0  0
  -29.4040  -32.1200   24.0060 C   0  0  0  0  0  3  0  0  0  0  0  0
  -29.7200  -33.2960   24.8310 N   0  0  0  0  0  0  0  0  0  0  0  0
  -30.0770  -34.4940   24.3530 C   0  0  0  0  0  0  0  0  0  0  0  0
  -30.2530  -34.7090   23.1510 O   0  0  0  0  0  0  0  0  0  0  0  0
  -29.5370  -33.2140   25.8210 H   0  0  0  0  0  0  0  0  0  0  0  0
  -28.9840  -36.4560   25.4920 C   0  0  0  0  0  1  0  0  0  0  0  0
  -30.2790  -35.6350   25.3700 C   0  0  0  0  0  3  0  0  0  0  0  0
  -32.7140  -35.9020   25.2030 C   0  0  0  0  0  1  0  0  0  0  0  0
  -31.4070  -36.5310   25.0340 N   0  0  0  0  0  0  0  0  0  0  0  0
  -31.3820  -37.3730   25.6060 H   0  0  0  0  0  0  0  0  0  0  0  0
  -30.0360  -30.8210   24.6440 C   0  0  1  0  0  0  0  0  0  0  0  0
  -29.3410  -30.3630   25.9480 C   0  0  0  0  0  1  0  0  0  0  0  0
  -30.0030  -29.6300   23.6630 C   0  0  0  0  0  1  0  0  0  0  0  0
  -31.5280  -31.0750   24.9580 C   0  0  0  0  0  1  0  0  0  0  0  0
  1  3  1  0
  2  5  2  0
  2  1  1  0
  3  6  1  0
  5  4  1  0
  9 16  1  0
 10 15  1  0
 11 12  1  0
 11 10  1  0
 13 12  1  0
 13 25  1  0
 13 14  1  0
 15  9  1  0
 15 14  1  0
 17 18  1  0
 18 19  1  0
 20 17  1  0
 21 18  1  0
 22 23  2  0
 23 42  1  0
 24 23  1  0
 24 27  1  0
 25 22  1  0
 25 26  1  0
 26 24  2  0
 27 28  1  0
 28 29  2  0
 30 33  1  0
 30 29  1  0
 31 30  2  0
 32 31  1  0
 32 27  2  0
 33 34  1  0
 34 39  2  0
 34 35  1  0
 35 36  2  0
 36 37  1  0
 37 41  1  0
 38 37  2  0
 39 38  1  0
 40 39  1  0
 42 43  1  0
 43 46  1  0
 43 45  1  0
 44 42  2  0
 47 48  1  0
 47 22  1  0
 49 47  1  0
 50  2  1  0
 51 50  1  0
 52 50  2  0
 54  3  1  0
 54 53  1  0
 55 56  1  0
 55 54  1  0
 55 53  1  0
 56 58  1  0
 57 56  1  0
 59 60  1  0
 59 56  1  0
 60  8  1  0
 60 61  1  0
 62 73  2  0
 63 61  1  0
 63 68  1  0
 64 74  1  0
 65 67  1  0
 65 71  1  0
 66 72  1  0
 67 66  1  0
 68 67  2  0
 69 70  1  0
 69 63  2  0
 70 65  2  0
 71 64  1  0
 72 64  1  0
 72 62  1  0
 74 76  2  0
 74 75  1  0
 75 79  1  0
 77 75  1  0
 78 83  1  0
 83 79  1  0
 84 83  1  0
 85 84  1  0
 86 85  1  0
 87 86  2  0
 87 78  1  0
 88 62  1  0
 88 98  1  0
 88 89  1  0
 89 92  1  0
 90 89  1  0
 90 94  1  0
 91 90  2  0
 94 93  1  0
 96 95  1  0
 96 94  1  0
 96 97  1  0
 98101  1  1
 98 99  1  0
100 98  1  0
M  ISO  4   9 100  21 100  60 101  61 101
M  END
>  <TORSDO>  (30) 
F 21

>  <SCORE>  (30) 
-6.024

>  <name>  (30) 
30

>  <ligand_id>  (30) 
30

>  <original_smiles>  (30) 
[H]c1c(C(=O)C([H])([H])[H])nc(N([H])C2([H])C([H])([H])N(C(=O)N3C([H])([H])C([H])([H])C([H])([H])C([H])(n4nc(-c5c([H])c([H])c(Oc6c([H])c([H])c(F)c([H])c6F)c([H])c5[H])c(C(=O)N([H])[H])c4N([H])[H])C3([H])[H])C([H])([H])C2([H])[H])nc1C1([H])C([H])([H])C1([H])[N+]([H])([H])C([H])([H])C([H])([H])Oc1c([H])c([H])c2c(c1[H])C([H])([H])N(C(=O)C([H])(N([H])C(=O)C([H])(N([H])C([H])([H])[H])C([H])([H])[H])C(C([H])([H])[H])(C([H])([H])[H])C([H])([H])[H])C([H])(C(=O)N([H])C1([H])c3c([H])c([H])c([H])c([H])c3C([H])([H])C([H])([H])C1([H])[H])C2([H])[H]

>  <smiles>  (30) 
[H]c1c(C(=O)C([H])([H])[H])nc(N([H])C2([H])C([H])([H])N(C(=O)N3C([H])([H])C([H])([H])C([H])([H])C([H])(n4nc(-c5c([H])c([H])c(Oc6c([H])c([H])c(F)c([H])c6F)c([H])c5[H])c(C(=O)N([H])[H])c4N([H])[H])C3([H])[H])C([H])([H])C2([H])[H])nc1C1([H])C([H])([H])C1([H])[N+]([H])([H])C([H])([H])C([H])([H])Oc1c([H])c([H])c2c(c1[H])C([H])([H])N(C(=O)C([H])(N([H])C(=O)C([H])(N([H])C([H])([H])[H])C([H])([H])[H])C(C([H])([H])[H])(C([H])([H])[H])C([H])([H])[H])C([H])(C(=O)N([H])C1([H])c3c([H])c([H])c([H])c([H])c3C([H])([H])C([H])([H])C1([H])[H])C2([H])[H]

$$$$
31:0:0
     RDKit          3D

 99109  0  0  1  0  0  0  0  0999 V2000
  -28.4820  -22.3070   19.9700 C   0  0  0  0  0  0  0  0  0  0  0  0
  -28.8700  -23.7040   20.1070 C   0  0  0  0  0  0  0  0  0  0  0  0
  -29.4790  -21.2770   20.1550 C   0  0  0  0  0  0  0  0  0  0  0  0
  -30.9770  -22.9570   20.6520 C   0  0  0  0  0  0  0  0  0  0  0  0
  -29.7180  -18.7080   20.7820 C   0  0  0  0  0  2  0  0  0  0  0  0
  -29.7280  -19.4380   18.5710 C   0  0  0  0  0  2  0  0  0  0  0  0
  -30.2330  -17.4600   19.9030 C   0  0  0  0  0  3  0  0  0  0  0  0
  -29.6470  -17.8940   18.5450 C   0  0  0  0  0  3  0  0  0  0  0  0
  -32.3830  -23.3180   21.0850 C   0  0  0  0  0  1  0  0  0  0  0  0
  -30.1430  -23.9780   20.4530 N   0  0  0  0  0  0  0  0  0  0  0  0
  -30.7180  -21.6550   20.5010 N   0  0  0  0  0  0  0  0  0  0  0  0
  -29.2910  -19.8560   19.9010 N   0  0  0  0  0  0  0  0  0  0  0  0
  -30.6480  -14.8560   19.9830 C   0  0  0  0  0  0  0  0  0  0  0  0
  -30.3690  -12.5980   18.9550 C   0  0  0  0  0  2  0  0  0  0  0  0
  -29.3610  -12.6960   17.7880 C   0  0  0  0  0  2  0  0  0  0  0  0
  -27.9210  -12.5110   18.3050 C   0  0  0  0  0  2  0  0  0  0  0  0
  -27.6220  -13.3770   19.5580 C   0  0  0  0  0  3  0  0  0  0  0  0
  -28.7500  -13.2790   20.6130 C   0  0  0  0  0  2  0  0  0  0  0  0
  -30.0080  -13.6370   19.9480 N   0  0  0  0  0  0  0  0  0  0  0  0
  -31.7930  -14.9620   19.5390 O   0  0  0  0  0  0  0  0  0  0  0  0
  -29.9120  -16.0000   20.2620 N   0  0  0  0  0  0  0  0  0  0  0  0
  -28.9840  -15.8320   20.6220 H   0  0  0  0  0  0  0  0  0  0  0  0
  -25.2890  -13.9470   20.4640 C   0  0  0  0  0  0  0  0  0  0  0  0
  -24.2460  -13.1650   20.8750 C   0  0  0  0  0  0  0  0  0  0  0  0
  -24.6970  -11.8150   20.7650 C   0  0  0  0  0  0  0  0  0  0  0  0
  -26.3100  -13.0740   20.1260 N   0  0  0  0  0  0  0  0  0  0  0  0
  -25.9630  -11.7820   20.3680 N   0  0  0  0  0  0  0  0  0  0  0  0
  -23.9760  -10.5500   20.9590 C   0  0  0  0  0  0  0  0  0  0  0  0
  -24.4310   -9.5710   21.8700 C   0  0  0  0  0  3  0  0  0  0  0  0
  -23.7110   -8.3710   22.0530 C   0  0  0  0  0  3  0  0  0  0  0  0
  -22.5200   -8.1420   21.3250 C   0  0  0  0  0  0  0  0  0  0  0  0
  -22.0830   -9.1070   20.4020 C   0  0  0  0  0  3  0  0  0  0  0  0
  -22.8040  -10.2990   20.2170 C   0  0  0  0  0  3  0  0  0  0  0  0
  -21.7680   -6.9950   21.4190 O   0  0  0  0  0  0  0  0  0  0  0  0
  -21.7090   -6.2660   22.5790 C   0  0  0  0  0  0  0  0  0  0  0  0
  -21.1980   -6.8120   23.7770 C   0  0  0  0  0  3  0  0  0  0  0  0
  -21.0900   -6.0060   24.9280 C   0  0  0  0  0  3  0  0  0  0  0  0
  -21.4820   -4.6550   24.8830 C   0  0  0  0  0  0  0  0  0  0  0  0
  -21.9830   -4.1070   23.6880 C   0  0  0  0  0  3  0  0  0  0  0  0
  -22.0920   -4.9100   22.5400 C   0  0  0  0  0  0  0  0  0  0  0  0
  -22.5580   -4.3720   21.3870 F   0  0  0  0  0  0  0  0  0  0  0  0
  -21.3700   -3.8790   25.9850 F   0  0  0  0  0  0  0  0  0  0  0  0
  -22.8730  -13.6370   21.2570 C   0  0  0  0  0  0  0  0  0  0  0  0
  -22.1990  -12.9170   22.1470 N   0  0  0  0  0  0  0  0  0  0  0  0
  -22.4100  -14.6820   20.8010 O   0  0  0  0  0  0  0  0  0  0  0  0
  -22.5860  -12.0710   22.5380 H   0  0  0  0  0  0  0  0  0  0  0  0
  -21.2800  -13.2170   22.4400 H   0  0  0  0  0  0  0  0  0  0  0  0
  -25.4490  -15.3240   20.3240 N   0  0  0  0  0  0  0  0  0  0  0  0
  -24.6910  -15.9720   20.5070 H   0  0  0  0  0  0  0  0  0  0  0  0
  -26.2690  -15.7760   19.9440 H   0  0  0  0  0  0  0  0  0  0  0  0
  -30.3090  -17.2850   17.3790 N   0  0  0  0  0  4  0  0  0  0  0  0
  -31.2820  -17.5310   17.3430 H   0  0  0  0  0  0  0  0  0  0  0  0
  -29.8660  -17.5950   16.5320 H   0  0  0  0  0  0  0  0  0  0  0  0
  -30.2350  -16.2850   17.4100 H   0  0  0  0  0  0  0  0  0  0  0  0
  -26.4910  -21.0140   18.7190 C   0  0  0  0  0  2  0  0  0  0  0  0
  -26.1770  -22.4870   18.6440 C   0  0  0  0  0  2  0  0  0  0  0  0
  -27.0230  -21.9520   19.7820 C   0  0  0  0  0  3  0  0  0  0  0  0
  -27.8910  -24.9480   19.8610 C   0  0  0  0  0  2  0  0  0  0  0  0
  -28.2280  -26.4050   20.1040 O   0  0  0  0  0  0  0  0  0  0  0  0
  -24.5900  -31.9020   23.1940 C   0  0  0  0  0  0  0  0  0  0  0  0
  -27.1520  -27.3360   20.0440 C   0  0  0  0  0  0  0  0  0  0  0  0
  -23.3670  -30.5260   21.5540 C   0  0  0  0  0  3  0  0  0  0  0  0
  -24.8010  -29.0020   20.0800 C   0  0  0  0  0  0  0  0  0  0  0  0
  -25.9110  -30.8330   21.3470 C   0  0  0  0  0  2  0  0  0  0  0  0
  -25.9820  -29.4610   20.6750 C   0  0  0  0  0  0  0  0  0  0  0  0
  -27.1610  -28.6410   20.6470 C   0  0  0  0  0  3  0  0  0  0  0  0
  -25.9440  -26.9620   19.4060 C   0  0  0  0  0  3  0  0  0  0  0  0
  -24.7880  -27.7610   19.4330 C   0  0  0  0  0  3  0  0  0  0  0  0
  -23.5660  -29.8780   20.1590 C   0  0  0  0  0  2  0  0  0  0  0  0
  -24.6440  -31.1050   22.0870 N   0  0  0  0  0  0  0  0  0  0  0  0
  -23.5120  -32.1730   23.7430 O   0  0  0  0  0  0  0  0  0  0  0  0
  -22.7170  -29.4930   22.5060 C   0  0  0  0  0  0  0  0  0  0  0  0
  -21.3910  -29.3070   22.3880 N   0  0  0  0  0  0  0  0  0  0  0  0
  -23.4060  -28.8650   23.3140 O   0  0  0  0  0  0  0  0  0  0  0  0
  -20.8940  -29.8660   21.7090 H   0  0  0  0  0  0  0  0  0  0  0  0
  -18.0230  -28.0870   22.9090 C   0  0  0  0  0  0  0  0  0  0  0  0
  -20.5840  -28.3560   23.1550 C   0  0  0  0  0  3  0  0  0  0  0  0
  -20.6860  -26.9330   22.5600 C   0  0  0  0  0  2  0  0  0  0  0  0
  -19.5750  -26.6180   21.5540 C   0  0  0  0  0  2  0  0  0  0  0  0
  -18.2000  -26.7470   22.2130 C   0  0  0  0  0  2  0  0  0  0  0  0
  -19.1430  -28.8490   23.3360 C   0  0  0  0  0  0  0  0  0  0  0  0
  -18.9230  -30.1020   23.9470 C   0  0  0  0  0  3  0  0  0  0  0  0
  -17.6170  -30.5940   24.1340 C   0  0  0  0  0  3  0  0  0  0  0  0
  -16.5120  -29.8270   23.7240 C   0  0  0  0  0  3  0  0  0  0  0  0
  -16.7170  -28.5760   23.1150 C   0  0  0  0  0  3  0  0  0  0  0  0
  -25.8780  -32.5290   23.8080 C   0  0  0  0  0  3  0  0  0  0  0  0
  -26.4060  -31.7460   25.0740 C   0  0  1  0  0  0  0  0  0  0  0  0
  -25.3210  -31.4950   26.1480 C   0  0  0  0  0  1  0  0  0  0  0  0
  -26.9900  -30.3730   24.6670 C   0  0  0  0  0  1  0  0  0  0  0  0
  -27.5590  -32.5380   25.7350 C   0  0  0  0  0  1  0  0  0  0  0  0
  -25.5720  -33.9250   24.1550 N   0  0  0  0  0  0  0  0  0  0  0  0
  -25.8740  -34.9840   23.3920 C   0  0  0  0  0  0  0  0  0  0  0  0
  -26.5090  -34.8890   22.3390 O   0  0  0  0  0  0  0  0  0  0  0  0
  -25.0030  -34.0720   24.9740 H   0  0  0  0  0  0  0  0  0  0  0  0
  -24.1290  -36.7740   23.1050 C   0  0  0  0  0  1  0  0  0  0  0  0
  -25.3950  -36.3680   23.8740 C   0  0  0  0  0  3  0  0  0  0  0  0
  -27.5430  -37.2650   24.6580 C   0  0  0  0  0  1  0  0  0  0  0  0
  -26.4200  -37.4260   23.7380 N   0  0  0  0  0  0  0  0  0  0  0  0
  -26.0120  -38.3450   23.8900 H   0  0  0  0  0  0  0  0  0  0  0  0
  1  2  2  0
  1  3  1  0
  2 10  1  0
  3 11  2  0
  4  9  1  0
  6 12  1  0
  7 21  1  0
  7  5  1  0
  8 51  1  0
  8  6  1  0
  8  7  1  0
 10  4  2  0
 11  4  1  0
 12  3  1  0
 12  5  1  0
 13 21  1  0
 14 19  1  0
 15 16  1  0
 15 14  1  0
 17 16  1  0
 17 26  1  0
 17 18  1  0
 19 13  1  0
 19 18  1  0
 20 13  2  0
 21 22  1  0
 23 24  2  0
 24 43  1  0
 25 24  1  0
 25 28  1  0
 26 27  1  0
 26 23  1  0
 27 25  2  0
 28 29  1  0
 29 30  2  0
 31 34  1  0
 31 30  1  0
 32 31  2  0
 33 32  1  0
 33 28  2  0
 34 35  1  0
 35 36  1  0
 36 37  2  0
 38 37  1  0
 38 42  1  0
 39 38  2  0
 40 35  2  0
 40 39  1  0
 41 40  1  0
 43 44  1  0
 44 47  1  0
 44 46  1  0
 45 43  2  0
 48 23  1  0
 48 49  1  0
 50 48  1  0
 51 54  1  0
 52 51  1  0
 53 51  1  0
 55 57  1  0
 56 55  1  0
 56 57  1  0
 57  1  1  0
 58 59  1  0
 58  2  1  0
 60 71  2  0
 61 59  1  0
 61 66  1  0
 62 70  1  0
 62 72  1  0
 63 69  1  0
 63 65  1  0
 64 70  1  0
 65 64  1  0
 66 65  2  0
 67 68  1  0
 67 61  2  0
 68 63  2  0
 69 62  1  0
 70 60  1  0
 72 74  2  0
 73 72  1  0
 75 73  1  0
 76 85  2  0
 76 81  1  0
 77 73  1  0
 77 81  1  0
 78 77  1  0
 79 80  1  0
 79 78  1  0
 80 76  1  0
 81 82  2  0
 82 83  1  0
 84 83  2  0
 85 84  1  0
 86 60  1  0
 86 91  1  0
 86 87  1  0
 87 90  1  1
 87 88  1  0
 89 87  1  0
 91 94  1  0
 92 96  1  0
 92 91  1  0
 93 92  2  0
 96 95  1  0
 98 96  1  0
 98 99  1  0
 98 97  1  0
M  ISO  4  13 100  21 100  58 101  59 101
M  END
>  <TORSDO>  (31) 
F 19

>  <SCORE>  (31) 
-13.681

>  <name>  (31) 
31

>  <ligand_id>  (31) 
31

>  <original_smiles>  (31) 
[H]c1c([H])c([H])c2c(c1[H])C([H])([H])C([H])([H])C([H])([H])C2([H])N([H])C(=O)C1([H])N(C(=O)C([H])(N([H])C(=O)C([H])(N([H])C([H])([H])[H])C([H])([H])[H])C(C([H])([H])[H])(C([H])([H])[H])C([H])([H])[H])C([H])([H])c2c([H])c(OC([H])([H])c3nc(C([H])([H])[H])nc(N4C([H])([H])C([H])(N([H])C(=O)N5C([H])([H])C([H])([H])C([H])([H])C([H])(n6nc(-c7c([H])c([H])c(Oc8c([H])c([H])c(F)c([H])c8F)c([H])c7[H])c(C(=O)N([H])[H])c6N([H])[H])C5([H])[H])C([H])([N+]([H])([H])[H])C4([H])[H])c3C3([H])C([H])([H])C3([H])[H])c([H])c([H])c2C1([H])[H]

>  <smiles>  (31) 
[H]c1c([H])c([H])c2c(c1[H])C([H])([H])C([H])([H])C([H])([H])C2([H])N([H])C(=O)C1([H])N(C(=O)C([H])(N([H])C(=O)C([H])(N([H])C([H])([H])[H])C([H])([H])[H])C(C([H])([H])[H])(C([H])([H])[H])C([H])([H])[H])C([H])([H])c2c([H])c(OC([H])([H])c3nc(C([H])([H])[H])nc(N4C([H])([H])C([H])(N([H])C(=O)N5C([H])([H])C([H])([H])C([H])([H])C([H])(n6nc(-c7c([H])c([H])c(Oc8c([H])c([H])c(F)c([H])c8F)c([H])c7[H])c(C(=O)N([H])[H])c6N([H])[H])C5([H])[H])C([H])([N+]([H])([H])[H])C4([H])[H])c3C3([H])C([H])([H])C3([H])[H])c([H])c([H])c2C1([H])[H]

$$$$
32:0:0
     RDKit          3D

 88 97  0  0  1  0  0  0  0  0999 V2000
  -29.0650  -21.1660   21.5060 C   0  0  0  0  0  3  0  0  0  0  0  0
  -28.6240  -22.1640   19.0860 C   0  0  0  0  0  3  0  0  0  0  0  0
  -29.1300  -20.1990   20.4270 C   0  0  0  0  0  0  0  0  0  0  0  0
  -28.5250  -23.1300   20.1660 C   0  0  0  0  0  0  0  0  0  0  0  0
  -28.9210  -20.7930   19.1970 N   0  0  0  0  0  0  0  0  0  0  0  0
  -28.7640  -22.5370   21.3920 N   0  0  0  0  0  0  0  0  0  0  0  0
  -30.5710  -15.0590   20.2920 C   0  0  0  0  0  0  0  0  0  0  0  0
  -30.3700  -12.7010   19.3850 C   0  0  0  0  0  2  0  0  0  0  0  0
  -29.4480  -12.6120   18.1500 C   0  0  0  0  0  2  0  0  0  0  0  0
  -27.9960  -12.3810   18.5970 C   0  0  0  0  0  2  0  0  0  0  0  0
  -27.5750  -13.3370   19.7440 C   0  0  0  0  0  3  0  0  0  0  0  0
  -28.6300  -13.4340   20.8680 C   0  0  0  0  0  2  0  0  0  0  0  0
  -29.8910  -13.8380   20.2350 N   0  0  0  0  0  0  0  0  0  0  0  0
  -31.7810  -14.9970   20.0520 O   0  0  0  0  0  0  0  0  0  0  0  0
  -28.7500  -17.1820   20.1970 C   0  0  0  0  0  2  0  0  0  0  0  0
  -30.7420  -17.6990   20.3250 C   0  0  0  0  0  2  0  0  0  0  0  0
  -29.4550  -18.5620   20.6330 C   0  0  0  0  0  3  0  0  0  0  0  0
  -30.0090  -16.3750   20.4780 N   0  0  0  0  0  0  0  0  0  0  0  0
  -25.2020  -13.8940   20.5050 C   0  0  0  0  0  0  0  0  0  0  0  0
  -24.1440  -13.1110   20.8750 C   0  0  0  0  0  0  0  0  0  0  0  0
  -24.6160  -11.7630   20.8380 C   0  0  0  0  0  0  0  0  0  0  0  0
  -26.2470  -13.0230   20.2560 N   0  0  0  0  0  0  0  0  0  0  0  0
  -25.9070  -11.7350   20.5250 N   0  0  0  0  0  0  0  0  0  0  0  0
  -23.8950  -10.4960   21.0210 C   0  0  0  0  0  0  0  0  0  0  0  0
  -24.3180   -9.5350   21.9660 C   0  0  0  0  0  3  0  0  0  0  0  0
  -23.5960   -8.3340   22.1400 C   0  0  0  0  0  3  0  0  0  0  0  0
  -22.4370   -8.0860   21.3670 C   0  0  0  0  0  0  0  0  0  0  0  0
  -22.0340   -9.0350   20.4100 C   0  0  0  0  0  3  0  0  0  0  0  0
  -22.7570  -10.2270   20.2360 C   0  0  0  0  0  3  0  0  0  0  0  0
  -21.6860   -6.9380   21.4480 O   0  0  0  0  0  0  0  0  0  0  0  0
  -21.6010   -6.2160   22.6100 C   0  0  0  0  0  0  0  0  0  0  0  0
  -21.1080   -6.7820   23.8060 C   0  0  0  0  0  3  0  0  0  0  0  0
  -20.9730   -5.9840   24.9600 C   0  0  0  0  0  3  0  0  0  0  0  0
  -21.3200   -4.6190   24.9160 C   0  0  0  0  0  0  0  0  0  0  0  0
  -21.8050   -4.0520   23.7260 C   0  0  0  0  0  3  0  0  0  0  0  0
  -21.9420   -4.8490   22.5750 C   0  0  0  0  0  0  0  0  0  0  0  0
  -22.3900   -4.2920   21.4240 F   0  0  0  0  0  0  0  0  0  0  0  0
  -21.1830   -3.8510   26.0220 F   0  0  0  0  0  0  0  0  0  0  0  0
  -22.7450  -13.5800   21.1460 C   0  0  0  0  0  0  0  0  0  0  0  0
  -22.0200  -12.8800   22.0120 N   0  0  0  0  0  0  0  0  0  0  0  0
  -22.3030  -14.6030   20.6270 O   0  0  0  0  0  0  0  0  0  0  0  0
  -22.3920  -12.0520   22.4540 H   0  0  0  0  0  0  0  0  0  0  0  0
  -21.0810  -13.1770   22.2360 H   0  0  0  0  0  0  0  0  0  0  0  0
  -25.3570  -15.2650   20.3310 N   0  0  0  0  0  0  0  0  0  0  0  0
  -24.5860  -15.9150   20.4360 H   0  0  0  0  0  0  0  0  0  0  0  0
  -26.2000  -15.7020   19.9800 H   0  0  0  0  0  0  0  0  0  0  0  0
  -27.7570  -24.6110   19.9930 C   0  0  0  0  0  2  0  0  0  0  0  0
  -28.1740  -26.1080   20.2660 O   0  0  0  0  0  0  0  0  0  0  0  0
  -24.6490  -31.9180   23.2530 C   0  0  0  0  0  0  0  0  0  0  0  0
  -27.1650  -27.1570   20.1940 C   0  0  0  0  0  0  0  0  0  0  0  0
  -23.4320  -30.5340   21.6200 C   0  0  0  0  0  3  0  0  0  0  0  0
  -24.8620  -28.9590   20.1790 C   0  0  0  0  0  0  0  0  0  0  0  0
  -25.9930  -30.7710   21.4480 C   0  0  0  0  0  2  0  0  0  0  0  0
  -26.0520  -29.3790   20.7860 C   0  0  0  0  0  0  0  0  0  0  0  0
  -27.2040  -28.4940   20.7780 C   0  0  0  0  0  3  0  0  0  0  0  0
  -25.9460  -26.8630   19.5380 C   0  0  0  0  0  3  0  0  0  0  0  0
  -24.8250  -27.7150   19.5400 C   0  0  0  0  0  3  0  0  0  0  0  0
  -23.6410  -29.8630   20.2370 C   0  0  0  0  0  2  0  0  0  0  0  0
  -24.7130  -31.0960   22.1600 N   0  0  0  0  0  0  0  0  0  0  0  0
  -23.5660  -32.2070   23.7840 O   0  0  0  0  0  0  0  0  0  0  0  0
  -22.7510  -29.5290   22.5830 C   0  0  0  0  0  0  0  0  0  0  0  0
  -21.4220  -29.3570   22.4580 N   0  0  0  0  0  0  0  0  0  0  0  0
  -23.4220  -28.9050   23.4080 O   0  0  0  0  0  0  0  0  0  0  0  0
  -20.9350  -29.9090   21.7660 H   0  0  0  0  0  0  0  0  0  0  0  0
  -18.0420  -28.1560   22.9640 C   0  0  0  0  0  0  0  0  0  0  0  0
  -20.6010  -28.4230   23.2330 C   0  0  0  0  0  3  0  0  0  0  0  0
  -20.7060  -26.9880   22.6660 C   0  0  0  0  0  2  0  0  0  0  0  0
  -19.6060  -26.6600   21.6510 C   0  0  0  0  0  2  0  0  0  0  0  0
  -18.2230  -26.8060   22.2910 C   0  0  0  0  0  2  0  0  0  0  0  0
  -19.1590  -28.9230   23.3920 C   0  0  0  0  0  0  0  0  0  0  0  0
  -18.9360  -30.1860   23.9810 C   0  0  0  0  0  3  0  0  0  0  0  0
  -17.6290  -30.6840   24.1460 C   0  0  0  0  0  3  0  0  0  0  0  0
  -16.5270  -29.9140   23.7340 C   0  0  0  0  0  3  0  0  0  0  0  0
  -16.7340  -28.6520   23.1500 C   0  0  0  0  0  3  0  0  0  0  0  0
  -25.9320  -32.5460   23.8740 C   0  0  0  0  0  3  0  0  0  0  0  0
  -25.6270  -33.9460   24.2160 N   0  0  0  0  0  0  0  0  0  0  0  0
  -25.9320  -35.0040   23.4550 C   0  0  0  0  0  0  0  0  0  0  0  0
  -26.5710  -34.9060   22.4030 O   0  0  0  0  0  0  0  0  0  0  0  0
  -25.0560  -34.0950   25.0360 H   0  0  0  0  0  0  0  0  0  0  0  0
  -24.1790  -36.7910   23.1860 C   0  0  0  0  0  1  0  0  0  0  0  0
  -25.4590  -36.3900   23.9370 C   0  0  0  0  0  3  0  0  0  0  0  0
  -27.6210  -37.2920   24.6750 C   0  0  0  0  0  1  0  0  0  0  0  0
  -26.4790  -37.4490   23.7780 N   0  0  0  0  0  0  0  0  0  0  0  0
  -26.0720  -38.3660   23.9420 H   0  0  0  0  0  0  0  0  0  0  0  0
  -26.4480  -31.7720   25.1500 C   0  0  1  0  0  0  0  0  0  0  0  0
  -25.3540  -31.5410   26.2190 C   0  0  0  0  0  1  0  0  0  0  0  0
  -27.0240  -30.3910   24.7620 C   0  0  0  0  0  1  0  0  0  0  0  0
  -27.6040  -32.5610   25.8110 C   0  0  0  0  0  1  0  0  0  0  0  0
  2  5  2  0
  2  4  1  0
  3  1  2  0
  4  6  2  0
  5  3  1  0
  6  1  1  0
  7 18  1  0
  8 13  1  0
  9 10  1  0
  9  8  1  0
 11 10  1  0
 11 22  1  0
 11 12  1  0
 13  7  1  0
 13 12  1  0
 14  7  2  0
 15 18  1  0
 15 17  1  0
 16 18  1  0
 16 17  1  0
 17  3  1  0
 19 20  2  0
 20 39  1  0
 21 20  1  0
 21 24  1  0
 22 19  1  0
 22 23  1  0
 23 21  2  0
 24 25  1  0
 25 26  2  0
 27 30  1  0
 27 26  1  0
 28 27  2  0
 29 28  1  0
 29 24  2  0
 30 31  1  0
 31 32  1  0
 32 33  2  0
 34 33  1  0
 34 38  1  0
 35 34  2  0
 36 31  2  0
 36 35  1  0
 37 36  1  0
 39 40  1  0
 40 43  1  0
 40 42  1  0
 41 39  2  0
 44 45  1  0
 44 19  1  0
 46 44  1  0
 47  4  1  0
 47 48  1  0
 49 60  2  0
 50 48  1  0
 50 55  1  0
 51 59  1  0
 51 61  1  0
 52 58  1  0
 52 54  1  0
 53 59  1  0
 54 53  1  0
 55 54  2  0
 56 57  1  0
 56 50  2  0
 57 52  2  0
 58 51  1  0
 59 49  1  0
 61 63  2  0
 62 61  1  0
 64 62  1  0
 65 74  2  0
 65 70  1  0
 66 62  1  0
 66 70  1  0
 67 66  1  0
 68 69  1  0
 68 67  1  0
 69 65  1  0
 70 71  2  0
 71 72  1  0
 73 72  2  0
 74 73  1  0
 75 49  1  0
 75 76  1  0
 75 85  1  0
 76 79  1  0
 77 81  1  0
 77 76  1  0
 78 77  2  0
 81 80  1  0
 83 81  1  0
 83 84  1  0
 83 82  1  0
 85 88  1  1
 85 86  1  0
 87 85  1  0
M  ISO  4   7 100  18 100  47 101  48 101
M  END
>  <TORSDO>  (32) 
F 17

>  <SCORE>  (32) 
-15.130

>  <name>  (32) 
32

>  <ligand_id>  (32) 
32

>  <original_smiles>  (32) 
[H]c1nc(C2([H])C([H])([H])N(C(=O)N3C([H])([H])C([H])([H])C([H])([H])C([H])(n4nc(-c5c([H])c([H])c(Oc6c([H])c([H])c(F)c([H])c6F)c([H])c5[H])c(C(=O)N([H])[H])c4N([H])[H])C3([H])[H])C2([H])[H])c([H])nc1C([H])([H])Oc1c([H])c([H])c2c(c1[H])C([H])([H])N(C(=O)C([H])(N([H])C(=O)C([H])(N([H])C([H])([H])[H])C([H])([H])[H])C(C([H])([H])[H])(C([H])([H])[H])C([H])([H])[H])C([H])(C(=O)N([H])C1([H])c3c([H])c([H])c([H])c([H])c3C([H])([H])C([H])([H])C1([H])[H])C2([H])[H]

>  <smiles>  (32) 
[H]c1nc(C2([H])C([H])([H])N(C(=O)N3C([H])([H])C([H])([H])C([H])([H])C([H])(n4nc(-c5c([H])c([H])c(Oc6c([H])c([H])c(F)c([H])c6F)c([H])c5[H])c(C(=O)N([H])[H])c4N([H])[H])C3([H])[H])C2([H])[H])c([H])nc1C([H])([H])Oc1c([H])c([H])c2c(c1[H])C([H])([H])N(C(=O)C([H])(N([H])C(=O)C([H])(N([H])C([H])([H])[H])C([H])([H])[H])C(C([H])([H])[H])(C([H])([H])[H])C([H])([H])[H])C([H])(C(=O)N([H])C1([H])c3c([H])c([H])c([H])c([H])c3C([H])([H])C([H])([H])C1([H])[H])C2([H])[H]

$$$$
33:0:0
     RDKit          3D

 97106  0  0  1  0  0  0  0  0999 V2000
  -30.8000  -20.4080   22.1380 C   0  0  0  0  0  3  0  0  0  0  0  0
  -30.4490  -19.1940   21.6040 C   0  0  0  0  0  0  0  0  0  0  0  0
  -30.0360  -21.3710   21.4050 C   0  0  0  0  0  0  0  0  0  0  0  0
  -30.8300  -17.7670   21.8760 C   0  0  0  0  0  2  0  0  0  0  0  0
  -30.4980  -16.8640   20.6600 C   0  0  0  0  0  3  0  0  0  0  0  0
  -28.9640  -18.4420   19.7060 C   0  0  0  0  0  3  0  0  0  0  0  0
  -29.2880  -20.7770   20.4780 N   0  0  0  0  0  0  0  0  0  0  0  0
  -29.5340  -19.4470   20.6120 N   0  0  0  0  0  0  0  0  0  0  0  0
  -29.1850  -17.1410   20.2280 O   0  0  0  0  0  0  0  0  0  0  0  0
  -31.0830  -14.5040   20.1610 C   0  0  0  0  0  0  0  0  0  0  0  0
  -30.6440  -12.4050   18.9320 C   0  0  0  0  0  2  0  0  0  0  0  0
  -29.6590  -12.7050   17.7810 C   0  0  0  0  0  2  0  0  0  0  0  0
  -28.1990  -12.6170   18.2700 C   0  0  0  0  0  2  0  0  0  0  0  0
  -27.9630  -13.4080   19.5840 C   0  0  0  0  0  3  0  0  0  0  0  0
  -29.0530  -13.0820   20.6320 C   0  0  0  0  0  2  0  0  0  0  0  0
  -30.3740  -13.3480   20.0310 N   0  0  0  0  0  0  0  0  0  0  0  0
  -32.1130  -14.7320   19.5190 O   0  0  0  0  0  0  0  0  0  0  0  0
  -30.5420  -15.4370   20.9700 N   0  0  0  0  0  0  0  0  0  0  0  0
  -29.8650  -15.1160   21.6470 H   0  0  0  0  0  0  0  0  0  0  0  0
  -25.6160  -14.0900   20.3930 C   0  0  0  0  0  0  0  0  0  0  0  0
  -24.5330  -13.3560   20.7920 C   0  0  0  0  0  0  0  0  0  0  0  0
  -24.9380  -11.9900   20.7210 C   0  0  0  0  0  0  0  0  0  0  0  0
  -26.6180  -13.1750   20.1100 N   0  0  0  0  0  0  0  0  0  0  0  0
  -26.2130  -11.9050   20.3580 N   0  0  0  0  0  0  0  0  0  0  0  0
  -24.1710  -10.7540   20.9210 C   0  0  0  0  0  0  0  0  0  0  0  0
  -24.5880   -9.7680   21.8410 C   0  0  0  0  0  3  0  0  0  0  0  0
  -23.8240   -8.5960   22.0290 C   0  0  0  0  0  3  0  0  0  0  0  0
  -22.6280   -8.4030   21.2970 C   0  0  0  0  0  0  0  0  0  0  0  0
  -22.2300   -9.3780   20.3660 C   0  0  0  0  0  3  0  0  0  0  0  0
  -22.9940  -10.5410   20.1750 C   0  0  0  0  0  3  0  0  0  0  0  0
  -21.8370   -7.2860   21.3950 O   0  0  0  0  0  0  0  0  0  0  0  0
  -21.7470   -6.5670   22.5600 C   0  0  0  0  0  0  0  0  0  0  0  0
  -21.3030   -7.1540   23.7660 C   0  0  0  0  0  3  0  0  0  0  0  0
  -21.1590   -6.3620   24.9220 C   0  0  0  0  0  3  0  0  0  0  0  0
  -21.4490   -4.9860   24.8740 C   0  0  0  0  0  0  0  0  0  0  0  0
  -21.8840   -4.3980   23.6740 C   0  0  0  0  0  3  0  0  0  0  0  0
  -22.0290   -5.1860   22.5180 C   0  0  0  0  0  0  0  0  0  0  0  0
  -22.4300   -4.6120   21.3590 F   0  0  0  0  0  0  0  0  0  0  0  0
  -21.3030   -4.2220   25.9840 F   0  0  0  0  0  0  0  0  0  0  0  0
  -23.1710  -13.8850   21.1340 C   0  0  0  0  0  0  0  0  0  0  0  0
  -22.4700  -13.2250   22.0510 N   0  0  0  0  0  0  0  0  0  0  0  0
  -22.7370  -14.9170   20.6240 O   0  0  0  0  0  0  0  0  0  0  0  0
  -22.8370  -12.3920   22.4860 H   0  0  0  0  0  0  0  0  0  0  0  0
  -21.5550  -13.5580   22.3190 H   0  0  0  0  0  0  0  0  0  0  0  0
  -25.8310  -15.4510   20.2350 N   0  0  0  0  0  0  0  0  0  0  0  0
  -25.1080  -16.1440   20.3950 H   0  0  0  0  0  0  0  0  0  0  0  0
  -26.7170  -15.8530   19.9520 H   0  0  0  0  0  0  0  0  0  0  0  0
  -29.9880  -22.8850   21.5970 C   0  0  0  0  0  2  0  0  0  0  0  0
  -28.8280  -23.5010   20.9040 N   0  0  0  0  0  4  0  0  0  0  0  0
  -28.1630  -22.7440   20.8870 H   0  0  0  0  0  0  0  0  0  0  0  0
  -29.0670  -23.6800   19.9430 H   0  0  0  0  0  0  0  0  0  0  0  0
  -28.1810  -24.6850   21.5510 C   0  0  0  0  0  2  0  0  0  0  0  0
  -28.8730  -26.0600   21.3180 C   0  0  0  0  0  2  0  0  0  0  0  0
  -28.4980  -26.7030   20.0880 O   0  0  0  0  0  0  0  0  0  0  0  0
  -24.6470  -31.8130   23.2750 C   0  0  0  0  0  0  0  0  0  0  0  0
  -27.3510  -27.4670   20.1280 C   0  0  0  0  0  0  0  0  0  0  0  0
  -23.4660  -30.4470   21.5840 C   0  0  0  0  0  3  0  0  0  0  0  0
  -24.9480  -28.9570   20.1350 C   0  0  0  0  0  0  0  0  0  0  0  0
  -25.9880  -30.8320   21.4170 C   0  0  0  0  0  2  0  0  0  0  0  0
  -26.0930  -29.4740   20.7550 C   0  0  0  0  0  0  0  0  0  0  0  0
  -27.2980  -28.7360   20.7550 C   0  0  0  0  0  3  0  0  0  0  0  0
  -26.1970  -26.9720   19.4870 C   0  0  0  0  0  3  0  0  0  0  0  0
  -24.9940  -27.7050   19.4970 C   0  0  0  0  0  3  0  0  0  0  0  0
  -23.6950  -29.8010   20.1890 C   0  0  0  0  0  2  0  0  0  0  0  0
  -24.7180  -31.0430   22.1510 N   0  0  0  0  0  0  0  0  0  0  0  0
  -23.5590  -32.0610   23.8130 O   0  0  0  0  0  0  0  0  0  0  0  0
  -22.8140  -29.3960   22.5120 C   0  0  0  0  0  0  0  0  0  0  0  0
  -21.4890  -29.2160   22.3790 N   0  0  0  0  0  0  0  0  0  0  0  0
  -23.4980  -28.7440   23.3050 O   0  0  0  0  0  0  0  0  0  0  0  0
  -21.0000  -29.7870   21.7020 H   0  0  0  0  0  0  0  0  0  0  0  0
  -18.1150  -28.0220   22.8530 C   0  0  0  0  0  0  0  0  0  0  0  0
  -20.6750  -28.2560   23.1230 C   0  0  0  0  0  3  0  0  0  0  0  0
  -20.7690  -26.8480   22.4920 C   0  0  0  0  0  2  0  0  0  0  0  0
  -19.6620  -26.5690   21.4730 C   0  0  0  0  0  2  0  0  0  0  0  0
  -18.2840  -26.6990   22.1260 C   0  0  0  0  0  2  0  0  0  0  0  0
  -19.2400  -28.7620   23.3050 C   0  0  0  0  0  0  0  0  0  0  0  0
  -19.0280  -30.0050   23.9390 C   0  0  0  0  0  3  0  0  0  0  0  0
  -17.7270  -30.5070   24.1270 C   0  0  0  0  0  3  0  0  0  0  0  0
  -16.6150  -29.7640   23.6910 C   0  0  0  0  0  3  0  0  0  0  0  0
  -16.8120  -28.5240   23.0580 C   0  0  0  0  0  3  0  0  0  0  0  0
  -25.9240  -32.4370   23.9220 C   0  0  0  0  0  3  0  0  0  0  0  0
  -25.6230  -33.8420   24.2310 N   0  0  0  0  0  0  0  0  0  0  0  0
  -25.9840  -34.8800   23.4670 C   0  0  0  0  0  0  0  0  0  0  0  0
  -26.6770  -34.7560   22.4530 O   0  0  0  0  0  0  0  0  0  0  0  0
  -25.0200  -34.0130   25.0220 H   0  0  0  0  0  0  0  0  0  0  0  0
  -24.2870  -36.6800   23.0470 C   0  0  0  0  0  1  0  0  0  0  0  0
  -25.5030  -36.2790   23.8960 C   0  0  0  0  0  3  0  0  0  0  0  0
  -27.6220  -37.1540   24.7710 C   0  0  0  0  0  1  0  0  0  0  0  0
  -26.5500  -37.3190   23.7950 N   0  0  0  0  0  0  0  0  0  0  0  0
  -26.1510  -38.2450   23.9160 H   0  0  0  0  0  0  0  0  0  0  0  0
  -26.4020  -31.6700   25.2140 C   0  0  1  0  0  0  0  0  0  0  0  0
  -25.2830  -31.4700   26.2630 C   0  0  0  0  0  1  0  0  0  0  0  0
  -26.9610  -30.2780   24.8420 C   0  0  0  0  0  1  0  0  0  0  0  0
  -27.5590  -32.4460   25.8870 C   0  0  0  0  0  1  0  0  0  0  0  0
  -27.4330  -18.5850   19.5190 C   0  0  0  0  0  2  0  0  0  0  0  0
  -25.5430  -19.6530   18.1660 C   0  0  0  0  0  1  0  0  0  0  0  0
  -27.0540  -19.6280   18.4530 C   0  0  0  0  0  2  0  0  0  0  0  0
  2  4  1  0
  2  1  2  0
  3 48  1  0
  3  1  1  0
  5 18  1  0
  5  4  1  0
  6 95  1  0
  6  9  1  0
  6  8  1  0
  7  8  1  0
  7  3  2  0
  8  2  1  0
  9  5  1  0
 10 18  1  0
 11 16  1  0
 12 13  1  0
 12 11  1  0
 14 13  1  0
 14 23  1  0
 14 15  1  0
 16 10  1  0
 16 15  1  0
 17 10  2  0
 18 19  1  0
 20 21  2  0
 21 40  1  0
 22 21  1  0
 22 25  1  0
 23 24  1  0
 23 20  1  0
 24 22  2  0
 25 26  1  0
 26 27  2  0
 28 31  1  0
 28 27  1  0
 29 28  2  0
 30 29  1  0
 30 25  2  0
 31 32  1  0
 32 33  1  0
 33 34  2  0
 35 34  1  0
 35 39  1  0
 36 35  2  0
 37 32  2  0
 37 36  1  0
 38 37  1  0
 40 41  1  0
 41 44  1  0
 41 43  1  0
 42 40  2  0
 45 20  1  0
 45 46  1  0
 47 45  1  0
 49 52  1  0
 49 48  1  0
 50 49  1  0
 51 49  1  0
 53 52  1  0
 54 56  1  0
 54 53  1  0
 55 66  2  0
 56 61  1  0
 57 65  1  0
 57 67  1  0
 58 64  1  0
 58 60  1  0
 59 65  1  0
 60 61  2  0
 60 59  1  0
 62 63  1  0
 62 56  2  0
 63 58  2  0
 64 57  1  0
 65 55  1  0
 67 69  2  0
 68 67  1  0
 70 68  1  0
 71 80  2  0
 71 76  1  0
 72 68  1  0
 72 76  1  0
 73 72  1  0
 74 75  1  0
 74 73  1  0
 75 71  1  0
 76 77  2  0
 77 78  1  0
 79 78  2  0
 80 79  1  0
 81 55  1  0
 81 82  1  0
 81 91  1  0
 82 85  1  0
 83 87  1  0
 83 82  1  0
 84 83  2  0
 87 86  1  0
 89 87  1  0
 89 90  1  0
 89 88  1  0
 91 94  1  1
 91 92  1  0
 93 91  1  0
 96 97  1  0
 97 95  1  0
M  ISO  4  10 100  18 100  53 101  54 101
M  END
>  <TORSDO>  (33) 
F 22

>  <SCORE>  (33) 
-12.965

>  <name>  (33) 
33

>  <ligand_id>  (33) 
33

>  <original_smiles>  (33) 
[H]c1c([H])c([H])c2c(c1[H])C([H])([H])C([H])([H])C([H])([H])C2([H])N([H])C(=O)C1([H])N(C(=O)C([H])(N([H])C(=O)C([H])(N([H])C([H])([H])[H])C([H])([H])[H])C(C([H])([H])[H])(C([H])([H])[H])C([H])([H])[H])C([H])([H])c2c([H])c(OC([H])([H])C([H])([H])[N+]([H])([H])C([H])([H])c3nn4c(c3[H])C([H])([H])C([H])(N([H])C(=O)N3C([H])([H])C([H])([H])C([H])([H])C([H])(n5nc(-c6c([H])c([H])c(Oc7c([H])c([H])c(F)c([H])c7F)c([H])c6[H])c(C(=O)N([H])[H])c5N([H])[H])C3([H])[H])OC4([H])C([H])([H])C([H])([H])C([H])([H])[H])c([H])c([H])c2C1([H])[H]

>  <smiles>  (33) 
[H]c1c([H])c([H])c2c(c1[H])C([H])([H])C([H])([H])C([H])([H])C2([H])N([H])C(=O)C1([H])N(C(=O)C([H])(N([H])C(=O)C([H])(N([H])C([H])([H])[H])C([H])([H])[H])C(C([H])([H])[H])(C([H])([H])[H])C([H])([H])[H])C([H])([H])c2c([H])c(OC([H])([H])C([H])([H])[N+]([H])([H])C([H])([H])c3nn4c(c3[H])C([H])([H])C([H])(N([H])C(=O)N3C([H])([H])C([H])([H])C([H])([H])C([H])(n5nc(-c6c([H])c([H])c(Oc7c([H])c([H])c(F)c([H])c7F)c([H])c6[H])c(C(=O)N([H])[H])c5N([H])[H])C3([H])[H])OC4([H])C([H])([H])C([H])([H])C([H])([H])[H])c([H])c([H])c2C1([H])[H]

$$$$
34:0:0
     RDKit          3D

 93102  0  0  1  0  0  0  0  0999 V2000
  -29.1410  -22.8560   20.4250 N   0  0  0  0  0  4  0  0  0  0  0  0
  -29.0770  -22.9120   19.4200 H   0  0  0  0  0  0  0  0  0  0  0  0
  -30.0880  -23.1220   20.6490 H   0  0  0  0  0  0  0  0  0  0  0  0
  -26.7360  -23.6540   20.7070 C   0  0  0  0  0  1  0  0  0  0  0  0
  -28.2090  -23.8750   21.0880 C   0  0  0  0  0  3  0  0  0  0  0  0
  -28.6380  -25.4290   21.1760 C   0  0  0  0  0  2  0  0  0  0  0  0
  -28.3720  -26.4660   20.1630 O   0  0  0  0  0  0  0  0  0  0  0  0
  -24.5760  -31.8650   23.2100 C   0  0  0  0  0  0  0  0  0  0  0  0
  -27.2480  -27.2950   20.2430 C   0  0  0  0  0  0  0  0  0  0  0  0
  -23.4030  -30.4600   21.5530 C   0  0  0  0  0  3  0  0  0  0  0  0
  -24.8840  -28.8980   20.1740 C   0  0  0  0  0  0  0  0  0  0  0  0
  -25.9450  -30.7790   21.4190 C   0  0  0  0  0  2  0  0  0  0  0  0
  -26.0390  -29.3900   20.7970 C   0  0  0  0  0  0  0  0  0  0  0  0
  -27.2270  -28.5980   20.8320 C   0  0  0  0  0  3  0  0  0  0  0  0
  -26.0790  -26.8570   19.5920 C   0  0  0  0  0  3  0  0  0  0  0  0
  -24.9030  -27.6320   19.5690 C   0  0  0  0  0  3  0  0  0  0  0  0
  -23.6470  -29.7740   20.1850 C   0  0  0  0  0  2  0  0  0  0  0  0
  -24.6590  -31.0530   22.1180 N   0  0  0  0  0  0  0  0  0  0  0  0
  -23.4820  -32.1460   23.7240 O   0  0  0  0  0  0  0  0  0  0  0  0
  -22.7240  -29.4470   22.5060 C   0  0  0  0  0  0  0  0  0  0  0  0
  -21.3970  -29.2890   22.3670 N   0  0  0  0  0  0  0  0  0  0  0  0
  -23.3890  -28.8090   23.3240 O   0  0  0  0  0  0  0  0  0  0  0  0
  -20.9200  -29.8560   21.6810 H   0  0  0  0  0  0  0  0  0  0  0  0
  -17.9920  -28.1670   22.8690 C   0  0  0  0  0  0  0  0  0  0  0  0
  -20.5580  -28.3580   23.1270 C   0  0  0  0  0  3  0  0  0  0  0  0
  -20.6210  -26.9350   22.5270 C   0  0  0  0  0  2  0  0  0  0  0  0
  -19.5050  -26.6560   21.5150 C   0  0  0  0  0  2  0  0  0  0  0  0
  -18.1320  -26.8240   22.1690 C   0  0  0  0  0  2  0  0  0  0  0  0
  -19.1330  -28.8950   23.3030 C   0  0  0  0  0  0  0  0  0  0  0  0
  -18.9480  -30.1530   23.9180 C   0  0  0  0  0  3  0  0  0  0  0  0
  -17.6570  -30.6840   24.1000 C   0  0  0  0  0  3  0  0  0  0  0  0
  -16.5320  -29.9520   23.6830 C   0  0  0  0  0  3  0  0  0  0  0  0
  -16.7000  -28.6950   23.0730 C   0  0  0  0  0  3  0  0  0  0  0  0
  -25.8460  -32.4990   23.8550 C   0  0  0  0  0  3  0  0  0  0  0  0
  -26.3300  -31.7400   25.1510 C   0  0  1  0  0  0  0  0  0  0  0  0
  -25.2080  -31.5140   26.1930 C   0  0  0  0  0  1  0  0  0  0  0  0
  -26.9200  -30.3580   24.7890 C   0  0  0  0  0  1  0  0  0  0  0  0
  -27.4700  -32.5380   25.8310 C   0  0  0  0  0  1  0  0  0  0  0  0
  -25.5380  -33.9020   24.1620 N   0  0  0  0  0  0  0  0  0  0  0  0
  -25.9000  -34.9440   23.4000 C   0  0  0  0  0  0  0  0  0  0  0  0
  -26.5990  -34.8250   22.3910 O   0  0  0  0  0  0  0  0  0  0  0  0
  -24.9180  -34.0700   24.9410 H   0  0  0  0  0  0  0  0  0  0  0  0
  -24.2050  -36.7530   22.9720 C   0  0  0  0  0  1  0  0  0  0  0  0
  -25.4110  -36.3400   23.8290 C   0  0  0  0  0  3  0  0  0  0  0  0
  -27.5180  -37.2160   24.7370 C   0  0  0  0  0  1  0  0  0  0  0  0
  -26.4580  -37.3820   23.7460 N   0  0  0  0  0  0  0  0  0  0  0  0
  -26.0540  -38.3060   23.8720 H   0  0  0  0  0  0  0  0  0  0  0  0
  -29.0360  -21.3900   20.8490 C   0  0  0  0  0  2  0  0  0  0  0  0
  -28.5380  -20.7300   18.3150 C   0  0  0  0  0  2  0  0  0  0  0  0
  -27.5160  -20.0420   19.1600 C   0  0  0  0  0  2  0  0  0  0  0  0
  -28.9120  -20.2710   19.7320 C   0  0  2  0  0  0  0  0  0  0  0  0
  -30.9670  -14.7120   20.0160 C   0  0  0  0  0  0  0  0  0  0  0  0
  -30.6300  -12.4430   19.0650 C   0  0  0  0  0  2  0  0  0  0  0  0
  -29.6750  -12.5270   17.8580 C   0  0  0  0  0  2  0  0  0  0  0  0
  -28.2150  -12.3940   18.3280 C   0  0  0  0  0  2  0  0  0  0  0  0
  -27.8840  -13.3100   19.5380 C   0  0  0  0  0  3  0  0  0  0  0  0
  -28.9720  -13.2470   20.6310 C   0  0  0  0  0  2  0  0  0  0  0  0
  -30.2550  -13.5400   19.9820 N   0  0  0  0  0  0  0  0  0  0  0  0
  -32.1650  -14.6940   19.7140 O   0  0  0  0  0  0  0  0  0  0  0  0
  -29.9840  -16.7150   21.1500 C   0  0  0  0  0  2  0  0  0  0  0  0
  -30.8140  -16.9090   18.9460 C   0  0  0  0  0  2  0  0  0  0  0  0
  -29.1470  -18.0340   20.9080 C   0  0  0  0  0  2  0  0  0  0  0  0
  -29.9550  -18.1950   18.7310 C   0  0  0  0  0  2  0  0  0  0  0  0
  -30.2940  -15.9230   19.9340 N   0  0  0  0  0  0  0  0  0  0  0  0
  -29.7390  -19.0000   19.9480 N   0  0  0  0  0  0  0  0  0  0  0  0
  -25.5280  -13.9290   20.3380 C   0  0  0  0  0  0  0  0  0  0  0  0
  -24.4610  -13.1690   20.7290 C   0  0  0  0  0  0  0  0  0  0  0  0
  -24.9040  -11.8110   20.6820 C   0  0  0  0  0  0  0  0  0  0  0  0
  -26.5520  -13.0370   20.0690 N   0  0  0  0  0  0  0  0  0  0  0  0
  -26.1850  -11.7590   20.3410 N   0  0  0  0  0  0  0  0  0  0  0  0
  -24.1620  -10.5600   20.8820 C   0  0  0  0  0  0  0  0  0  0  0  0
  -24.5520   -9.6200   21.8620 C   0  0  0  0  0  3  0  0  0  0  0  0
  -23.8100   -8.4340   22.0510 C   0  0  0  0  0  3  0  0  0  0  0  0
  -22.6650   -8.1770   21.2590 C   0  0  0  0  0  0  0  0  0  0  0  0
  -22.2960   -9.1050   20.2690 C   0  0  0  0  0  3  0  0  0  0  0  0
  -23.0380  -10.2830   20.0790 C   0  0  0  0  0  3  0  0  0  0  0  0
  -21.9000   -7.0390   21.3550 O   0  0  0  0  0  0  0  0  0  0  0  0
  -21.7390   -6.3780   22.5450 C   0  0  0  0  0  0  0  0  0  0  0  0
  -21.1740   -7.0080   23.6760 C   0  0  0  0  0  3  0  0  0  0  0  0
  -20.9620   -6.2720   24.8590 C   0  0  0  0  0  3  0  0  0  0  0  0
  -21.3060   -4.9080   24.9110 C   0  0  0  0  0  0  0  0  0  0  0  0
  -21.8650   -4.2780   23.7860 C   0  0  0  0  0  3  0  0  0  0  0  0
  -22.0780   -5.0120   22.6050 C   0  0  0  0  0  0  0  0  0  0  0  0
  -22.5970   -4.3960   21.5160 F   0  0  0  0  0  0  0  0  0  0  0  0
  -21.0960   -4.1990   26.0450 F   0  0  0  0  0  0  0  0  0  0  0  0
  -23.0780  -13.6640   21.0390 C   0  0  0  0  0  0  0  0  0  0  0  0
  -22.3640  -12.9750   21.9200 N   0  0  0  0  0  0  0  0  0  0  0  0
  -22.6450  -14.7000   20.5340 O   0  0  0  0  0  0  0  0  0  0  0  0
  -22.7310  -12.1380   22.3470 H   0  0  0  0  0  0  0  0  0  0  0  0
  -21.4360  -13.2880   22.1710 H   0  0  0  0  0  0  0  0  0  0  0  0
  -25.7070  -15.2990   20.1640 N   0  0  0  0  0  0  0  0  0  0  0  0
  -24.9500  -15.9600   20.2980 H   0  0  0  0  0  0  0  0  0  0  0  0
  -26.5560  -15.7280   19.8200 H   0  0  0  0  0  0  0  0  0  0  0  0
  1  3  1  0
  1 48  1  0
  1  5  1  0
  2  1  1  0
  5  4  1  0
  5  6  1  0
  7  9  1  0
  7  6  1  0
  8 19  2  0
  9 14  1  0
 10 18  1  0
 10 20  1  0
 11 17  1  0
 11 13  1  0
 12 18  1  0
 13 14  2  0
 13 12  1  0
 15  9  2  0
 16 15  1  0
 16 11  2  0
 17 10  1  0
 18  8  1  0
 20 22  2  0
 21 20  1  0
 23 21  1  0
 24 33  2  0
 24 29  1  0
 25 21  1  0
 25 29  1  0
 26 25  1  0
 27 28  1  0
 27 26  1  0
 28 24  1  0
 29 30  2  0
 30 31  1  0
 32 31  2  0
 33 32  1  0
 34  8  1  0
 34 39  1  0
 34 35  1  0
 35 38  1  1
 35 36  1  0
 37 35  1  0
 39 42  1  0
 40 44  1  0
 40 39  1  0
 41 40  2  0
 44 43  1  0
 46 44  1  0
 46 47  1  0
 46 45  1  0
 49 50  1  0
 49 51  1  0
 50 51  1  0
 51 65  1  0
 51 48  1  1
 53 58  1  0
 54 55  1  0
 54 53  1  0
 56 55  1  0
 56 69  1  0
 56 57  1  0
 58 52  1  0
 58 57  1  0
 59 52  2  0
 61 64  1  0
 62 60  1  0
 63 61  1  0
 64 52  1  0
 64 60  1  0
 65 63  1  0
 65 62  1  0
 66 67  2  0
 67 86  1  0
 68 67  1  0
 68 71  1  0
 69 66  1  0
 69 70  1  0
 70 68  2  0
 71 72  1  0
 72 73  2  0
 74 77  1  0
 74 73  1  0
 75 74  2  0
 76 75  1  0
 76 71  2  0
 77 78  1  0
 78 83  2  0
 78 79  1  0
 79 80  2  0
 80 81  1  0
 81 85  1  0
 82 81  2  0
 83 82  1  0
 84 83  1  0
 86 87  1  0
 87 90  1  0
 87 89  1  0
 88 86  2  0
 91 92  1  0
 91 66  1  0
 93 91  1  0
M  ISO  4   6 101   7 101  52 100  64 100
M  END
>  <TORSDO>  (34) 
F 20

>  <SCORE>  (34) 
-13.873

>  <name>  (34) 
34

>  <ligand_id>  (34) 
34

>  <original_smiles>  (34) 
[H]c1c([H])c([H])c2c(c1[H])C([H])([H])C([H])([H])C([H])([H])C2([H])N([H])C(=O)C1([H])N(C(=O)C([H])(N([H])C(=O)C([H])(N([H])C([H])([H])[H])C([H])([H])[H])C(C([H])([H])[H])(C([H])([H])[H])C([H])([H])[H])C([H])([H])c2c([H])c(OC([H])([H])C([H])(C([H])([H])[H])[N+]([H])([H])C([H])([H])C3(N4C([H])([H])C([H])([H])N(C(=O)N5C([H])([H])C([H])([H])C([H])([H])C([H])(n6nc(-c7c([H])c([H])c(Oc8c([H])c([H])c(F)c([H])c8F)c([H])c7[H])c(C(=O)N([H])[H])c6N([H])[H])C5([H])[H])C([H])([H])C4([H])[H])C([H])([H])C3([H])[H])c([H])c([H])c2C1([H])[H]

>  <smiles>  (34) 
[H]c1c([H])c([H])c2c(c1[H])C([H])([H])C([H])([H])C([H])([H])C2([H])N([H])C(=O)C1([H])N(C(=O)C([H])(N([H])C(=O)C([H])(N([H])C([H])([H])[H])C([H])([H])[H])C(C([H])([H])[H])(C([H])([H])[H])C([H])([H])[H])C([H])([H])c2c([H])c(OC([H])([H])C([H])(C([H])([H])[H])[N+]([H])([H])C([H])([H])C3(N4C([H])([H])C([H])([H])N(C(=O)N5C([H])([H])C([H])([H])C([H])([H])C([H])(n6nc(-c7c([H])c([H])c(Oc8c([H])c([H])c(F)c([H])c8F)c([H])c7[H])c(C(=O)N([H])[H])c6N([H])[H])C5([H])[H])C([H])([H])C4([H])[H])C([H])([H])C3([H])[H])c([H])c([H])c2C1([H])[H]

$$$$
35:0:0
     RDKit          3D

 95104  0  0  1  0  0  0  0  0999 V2000
  -28.7860  -20.8310   18.9900 C   0  0  0  0  0  2  0  0  0  0  0  0
  -31.0520  -21.6560   20.0180 C   0  0  0  0  0  2  0  0  0  0  0  0
  -28.2310  -22.2330   19.3350 C   0  0  0  0  0  2  0  0  0  0  0  0
  -30.3200  -22.9820   20.3010 C   0  0  0  0  0  2  0  0  0  0  0  0
  -30.1530  -20.4440   19.6420 C   0  0  0  0  0  3  0  0  0  0  0  0
  -29.3090  -23.2460   19.2450 N   0  0  2  0  0  4  0  0  0  0  0  0
  -29.7700  -23.0450   18.3700 H   0  0  0  0  0  0  0  0  0  0  0  0
  -30.0890  -19.3840   20.7010 N   0  0  0  0  0  4  0  0  0  0  0  0
  -31.0310  -19.2460   21.0310 H   0  0  0  0  0  0  0  0  0  0  0  0
  -29.5530  -19.7060   21.4920 H   0  0  0  0  0  0  0  0  0  0  0  0
  -30.6570  -14.5400   20.5440 C   0  0  0  0  0  0  0  0  0  0  0  0
  -30.4020  -12.3280   19.5250 C   0  0  0  0  0  2  0  0  0  0  0  0
  -29.4870  -12.4770   18.2900 C   0  0  0  0  0  2  0  0  0  0  0  0
  -28.0020  -12.3690   18.6890 C   0  0  0  0  0  2  0  0  0  0  0  0
  -27.6270  -13.2390   19.9200 C   0  0  0  0  0  3  0  0  0  0  0  0
  -28.6650  -13.0930   21.0550 C   0  0  0  0  0  2  0  0  0  0  0  0
  -29.9950  -13.3560   20.4890 N   0  0  0  0  0  0  0  0  0  0  0  0
  -31.8700  -14.6500   20.3460 O   0  0  0  0  0  0  0  0  0  0  0  0
  -29.9990  -17.5550   18.9090 C   0  0  0  0  0  2  0  0  0  0  0  0
  -29.6780  -16.0690   18.9730 C   0  0  0  0  0  2  0  0  0  0  0  0
  -30.0350  -16.8550   21.1790 C   0  0  0  0  0  2  0  0  0  0  0  0
  -29.5820  -18.0370   20.2910 C   0  0  0  0  0  3  0  0  0  0  0  0
  -29.8650  -15.6280   20.3720 N   0  0  0  0  0  0  0  0  0  0  0  0
  -25.2210  -13.8620   20.5740 C   0  0  0  0  0  0  0  0  0  0  0  0
  -24.1410  -13.0950   20.9180 C   0  0  0  0  0  0  0  0  0  0  0  0
  -24.6010  -11.7420   20.9100 C   0  0  0  0  0  0  0  0  0  0  0  0
  -26.2680  -12.9750   20.3770 N   0  0  0  0  0  0  0  0  0  0  0  0
  -25.8990  -11.6970   20.6400 N   0  0  0  0  0  0  0  0  0  0  0  0
  -23.8710  -10.4830   21.0890 C   0  0  0  0  0  0  0  0  0  0  0  0
  -24.2850   -9.5170   22.0320 C   0  0  0  0  0  3  0  0  0  0  0  0
  -23.5560   -8.3200   22.1970 C   0  0  0  0  0  3  0  0  0  0  0  0
  -22.3980   -8.0830   21.4190 C   0  0  0  0  0  0  0  0  0  0  0  0
  -22.0030   -9.0370   20.4650 C   0  0  0  0  0  3  0  0  0  0  0  0
  -22.7340  -10.2250   20.2980 C   0  0  0  0  0  3  0  0  0  0  0  0
  -21.6410   -6.9380   21.4940 O   0  0  0  0  0  0  0  0  0  0  0  0
  -21.5730   -6.1950   22.6440 C   0  0  0  0  0  0  0  0  0  0  0  0
  -21.1300   -6.7490   23.8650 C   0  0  0  0  0  3  0  0  0  0  0  0
  -21.0110   -5.9310   25.0070 C   0  0  0  0  0  3  0  0  0  0  0  0
  -21.3240   -4.5620   24.9280 C   0  0  0  0  0  0  0  0  0  0  0  0
  -21.7610   -4.0070   23.7120 C   0  0  0  0  0  3  0  0  0  0  0  0
  -21.8830   -4.8220   22.5730 C   0  0  0  0  0  0  0  0  0  0  0  0
  -22.2840   -4.2780   21.3980 F   0  0  0  0  0  0  0  0  0  0  0  0
  -21.2020   -3.7740   26.0220 F   0  0  0  0  0  0  0  0  0  0  0  0
  -22.7380  -13.5760   21.1490 C   0  0  0  0  0  0  0  0  0  0  0  0
  -21.9850  -12.8840   21.9970 N   0  0  0  0  0  0  0  0  0  0  0  0
  -22.3170  -14.6010   20.6120 O   0  0  0  0  0  0  0  0  0  0  0  0
  -22.3400  -12.0560   22.4520 H   0  0  0  0  0  0  0  0  0  0  0  0
  -21.0410  -13.1870   22.1950 H   0  0  0  0  0  0  0  0  0  0  0  0
  -25.3940  -15.2310   20.3910 N   0  0  0  0  0  0  0  0  0  0  0  0
  -24.6290  -15.8910   20.4770 H   0  0  0  0  0  0  0  0  0  0  0  0
  -26.2620  -15.6640   20.1010 H   0  0  0  0  0  0  0  0  0  0  0  0
  -29.9950  -25.4580   18.3330 C   0  0  0  0  0  1  0  0  0  0  0  0
  -28.8760  -24.6690   19.0520 C   0  0  0  0  0  3  0  0  0  0  0  0
  -28.3940  -25.3870   20.3410 C   0  0  0  0  0  2  0  0  0  0  0  0
  -28.3790  -26.8070   20.1560 O   0  0  0  0  0  0  0  0  0  0  0  0
  -24.5590  -31.9070   23.2490 C   0  0  0  0  0  0  0  0  0  0  0  0
  -27.1770  -27.4770   20.1560 C   0  0  0  0  0  0  0  0  0  0  0  0
  -23.3350  -30.5050   21.6170 C   0  0  0  0  0  3  0  0  0  0  0  0
  -24.7750  -28.9640   20.1800 C   0  0  0  0  0  0  0  0  0  0  0  0
  -25.8550  -30.8710   21.3910 C   0  0  0  0  0  2  0  0  0  0  0  0
  -25.9350  -29.4990   20.7530 C   0  0  0  0  0  0  0  0  0  0  0  0
  -27.1370  -28.7650   20.7310 C   0  0  0  0  0  3  0  0  0  0  0  0
  -26.0010  -26.9470   19.5770 C   0  0  0  0  0  3  0  0  0  0  0  0
  -24.8020  -27.6870   19.5890 C   0  0  0  0  0  3  0  0  0  0  0  0
  -23.5300  -29.8210   20.2360 C   0  0  0  0  0  2  0  0  0  0  0  0
  -24.6010  -31.1090   22.1450 N   0  0  0  0  0  0  0  0  0  0  0  0
  -23.4830  -32.1790   23.8010 O   0  0  0  0  0  0  0  0  0  0  0  0
  -22.6950  -29.4850   22.5850 C   0  0  0  0  0  0  0  0  0  0  0  0
  -21.3700  -29.2960   22.4630 N   0  0  0  0  0  0  0  0  0  0  0  0
  -23.3850  -28.8640   23.3970 O   0  0  0  0  0  0  0  0  0  0  0  0
  -20.8750  -29.8490   21.7770 H   0  0  0  0  0  0  0  0  0  0  0  0
  -18.0050  -28.0860   22.9660 C   0  0  0  0  0  0  0  0  0  0  0  0
  -20.5600  -28.3580   23.2390 C   0  0  0  0  0  3  0  0  0  0  0  0
  -20.6720  -26.9250   22.6690 C   0  0  0  0  0  2  0  0  0  0  0  0
  -19.5720  -26.5910   21.6560 C   0  0  0  0  0  2  0  0  0  0  0  0
  -18.1900  -26.7330   22.2990 C   0  0  0  0  0  2  0  0  0  0  0  0
  -19.1190  -28.8560   23.3930 C   0  0  0  0  0  0  0  0  0  0  0  0
  -18.8950  -30.1220   23.9760 C   0  0  0  0  0  3  0  0  0  0  0  0
  -17.5870  -30.6180   24.1360 C   0  0  0  0  0  3  0  0  0  0  0  0
  -16.4870  -29.8450   23.7270 C   0  0  0  0  0  3  0  0  0  0  0  0
  -16.6970  -28.5810   23.1480 C   0  0  0  0  0  3  0  0  0  0  0  0
  -25.8530  -32.5360   23.8560 C   0  0  0  0  0  3  0  0  0  0  0  0
  -26.3800  -31.7660   25.1290 C   0  0  1  0  0  0  0  0  0  0  0  0
  -25.2980  -31.5340   26.2080 C   0  0  0  0  0  1  0  0  0  0  0  0
  -26.9550  -30.3860   24.7320 C   0  0  0  0  0  1  0  0  0  0  0  0
  -27.5390  -32.5590   25.7780 C   0  0  0  0  0  1  0  0  0  0  0  0
  -25.5520  -33.9350   24.1820 N   0  0  0  0  0  0  0  0  0  0  0  0
  -25.8960  -34.9830   23.4200 C   0  0  0  0  0  0  0  0  0  0  0  0
  -26.5700  -34.8720   22.3930 O   0  0  0  0  0  0  0  0  0  0  0  0
  -24.9550  -34.0970   24.9790 H   0  0  0  0  0  0  0  0  0  0  0  0
  -24.1900  -36.7910   23.0400 C   0  0  0  0  0  1  0  0  0  0  0  0
  -25.4150  -36.3760   23.8700 C   0  0  0  0  0  3  0  0  0  0  0  0
  -27.5450  -37.2390   24.7330 C   0  0  0  0  0  1  0  0  0  0  0  0
  -26.4590  -37.4190   23.7740 N   0  0  0  0  0  0  0  0  0  0  0  0
  -26.0600  -38.3430   23.9160 H   0  0  0  0  0  0  0  0  0  0  0  0
  1  3  1  0
  1  5  1  0
  2  4  1  0
  5  2  1  0
  5  8  1  0
  6  3  1  0
  6  4  1  0
  6  7  1  6
  8  9  1  0
  8 10  1  0
 12 17  1  0
 13 14  1  0
 13 12  1  0
 15 14  1  0
 15 27  1  0
 15 16  1  0
 17 11  1  0
 17 16  1  0
 18 11  2  0
 19 20  1  0
 19 22  1  0
 20 23  1  0
 22  8  1  0
 22 21  1  0
 23 11  1  0
 23 21  1  0
 24 25  2  0
 25 44  1  0
 26 25  1  0
 26 29  1  0
 27 24  1  0
 27 28  1  0
 28 26  2  0
 29 30  1  0
 30 31  2  0
 32 35  1  0
 32 31  1  0
 33 32  2  0
 34 33  1  0
 34 29  2  0
 35 36  1  0
 36 37  1  0
 37 38  2  0
 39 38  1  0
 39 43  1  0
 40 39  2  0
 41 36  2  0
 41 40  1  0
 42 41  1  0
 44 45  1  0
 45 48  1  0
 45 47  1  0
 46 44  2  0
 49 50  1  0
 49 24  1  0
 51 49  1  0
 53 52  1  0
 53  6  1  0
 53 54  1  0
 55 57  1  0
 55 54  1  0
 56 67  2  0
 57 62  1  0
 58 66  1  0
 58 68  1  0
 59 65  1  0
 59 61  1  0
 60 66  1  0
 61 60  1  0
 62 61  2  0
 63 64  1  0
 63 57  2  0
 64 59  2  0
 65 58  1  0
 66 56  1  0
 68 70  2  0
 69 68  1  0
 71 69  1  0
 72 81  2  0
 72 77  1  0
 73 69  1  0
 73 77  1  0
 74 73  1  0
 75 76  1  0
 75 74  1  0
 76 72  1  0
 77 78  2  0
 78 79  1  0
 80 79  2  0
 81 80  1  0
 82 56  1  0
 82 87  1  0
 82 83  1  0
 83 86  1  1
 83 84  1  0
 85 83  1  0
 87 90  1  0
 88 92  1  0
 88 87  1  0
 89 88  2  0
 92 91  1  0
 94 92  1  0
 94 95  1  0
 94 93  1  0
M  ISO  4  11 100  23 100  54 101  55 101
M  END
>  <TORSDO>  (35) 
F 19

>  <SCORE>  (35) 
-14.195

>  <name>  (35) 
35

>  <ligand_id>  (35) 
35

>  <original_smiles>  (35) 
[H]c1c([H])c([H])c2c(c1[H])C([H])([H])C([H])([H])C([H])([H])C2([H])N([H])C(=O)C1([H])N(C(=O)C([H])(N([H])C(=O)C([H])(N([H])C([H])([H])[H])C([H])([H])[H])C(C([H])([H])[H])(C([H])([H])[H])C([H])([H])[H])C([H])([H])c2c([H])c(OC([H])([H])C([H])(C([H])([H])[H])[N+]3([H])C([H])([H])C([H])([H])C([H])([N+]([H])([H])C4([H])C([H])([H])N(C(=O)N5C([H])([H])C([H])([H])C([H])([H])C([H])(n6nc(-c7c([H])c([H])c(Oc8c([H])c([H])c(F)c([H])c8F)c([H])c7[H])c(C(=O)N([H])[H])c6N([H])[H])C5([H])[H])C([H])([H])C4([H])[H])C([H])([H])C3([H])[H])c([H])c([H])c2C1([H])[H]

>  <smiles>  (35) 
[H]c1c([H])c([H])c2c(c1[H])C([H])([H])C([H])([H])C([H])([H])C2([H])N([H])C(=O)C1([H])N(C(=O)C([H])(N([H])C(=O)C([H])(N([H])C([H])([H])[H])C([H])([H])[H])C(C([H])([H])[H])(C([H])([H])[H])C([H])([H])[H])C([H])([H])c2c([H])c(OC([H])([H])C([H])(C([H])([H])[H])[N+]3([H])C([H])([H])C([H])([H])C([H])([N+]([H])([H])C4([H])C([H])([H])N(C(=O)N5C([H])([H])C([H])([H])C([H])([H])C([H])(n6nc(-c7c([H])c([H])c(Oc8c([H])c([H])c(F)c([H])c8F)c([H])c7[H])c(C(=O)N([H])[H])c6N([H])[H])C5([H])[H])C([H])([H])C4([H])[H])C([H])([H])C3([H])[H])c([H])c([H])c2C1([H])[H]

$$$$
36:0:0
     RDKit          3D

 98108  0  0  1  0  0  0  0  0999 V2000
  -27.2340  -23.2570   24.7120 C   0  0  0  0  0  2  0  0  0  0  0  0
  -27.1180  -24.1370   25.9750 C   0  0  0  0  0  2  0  0  0  0  0  0
  -26.9290  -25.5330   24.0460 C   0  0  0  0  0  2  0  0  0  0  0  0
  -27.6420  -24.2480   23.6200 C   0  0  0  0  0  3  0  0  0  0  0  0
  -26.9880  -25.5490   25.5230 N   0  0  1  0  0  4  0  0  0  0  0  0
  -27.8620  -26.0020   25.7560 H   0  0  0  0  0  0  0  0  0  0  0  0
  -26.2350  -23.1770   20.4470 C   0  0  0  0  0  3  0  0  0  0  0  0
  -26.1110  -23.3050   21.8000 C   0  0  0  0  0  3  0  0  0  0  0  0
  -27.5530  -23.6410   20.1590 C   0  0  0  0  0  0  0  0  0  0  0  0
  -28.1770  -24.0380   21.2640 N   0  0  0  0  0  0  0  0  0  0  0  0
  -27.2940  -23.8380   22.2690 N   0  0  0  0  0  0  0  0  0  0  0  0
  -28.2240  -23.7430   18.8040 C   0  0  0  0  0  2  0  0  0  0  0  0
  -30.2390  -24.7450   17.7530 C   0  0  0  0  0  2  0  0  0  0  0  0
  -30.1680  -25.0100   19.7790 C   0  0  0  0  0  2  0  0  0  0  0  0
  -31.2500  -25.3270   18.7400 C   0  0  0  0  0  3  0  0  0  0  0  0
  -29.6910  -23.9640   18.8670 N   0  0  1  0  0  4  0  0  0  0  0  0
  -30.1880  -23.0990   19.0230 H   0  0  0  0  0  0  0  0  0  0  0  0
  -32.5580  -27.3670   17.9950 C   0  0  0  0  0  0  0  0  0  0  0  0
  -32.6550  -29.2110   16.3610 C   0  0  0  0  0  2  0  0  0  0  0  0
  -31.4770  -30.1700   16.6440 C   0  0  0  0  0  2  0  0  0  0  0  0
  -30.1860  -29.6950   15.9420 C   0  0  0  0  0  2  0  0  0  0  0  0
  -29.9020  -28.1860   16.1680 C   0  0  0  0  0  3  0  0  0  0  0  0
  -31.1800  -27.3610   15.8850 C   0  0  0  0  0  2  0  0  0  0  0  0
  -32.2340  -27.8660   16.7730 N   0  0  0  0  0  0  0  0  0  0  0  0
  -33.5110  -27.7860   18.6580 O   0  0  0  0  0  0  0  0  0  0  0  0
  -31.5440  -26.7680   18.6460 N   0  0  0  0  0  0  0  0  0  0  0  0
  -31.5130  -27.1680   19.5730 H   0  0  0  0  0  0  0  0  0  0  0  0
  -27.6600  -26.9890   15.7520 C   0  0  0  0  0  0  0  0  0  0  0  0
  -26.8720  -26.8890   14.6400 C   0  0  0  0  0  0  0  0  0  0  0  0
  -27.5400  -27.6320   13.6170 C   0  0  0  0  0  0  0  0  0  0  0  0
  -28.7670  -27.7330   15.3720 N   0  0  0  0  0  0  0  0  0  0  0  0
  -28.7050  -28.0820   14.0610 N   0  0  0  0  0  0  0  0  0  0  0  0
  -27.1100  -27.9880   12.2600 C   0  0  0  0  0  0  0  0  0  0  0  0
  -27.9780  -27.8490   11.1550 C   0  0  0  0  0  3  0  0  0  0  0  0
  -27.5400  -28.1840    9.8570 C   0  0  0  0  0  3  0  0  0  0  0  0
  -26.2210  -28.6560    9.6500 C   0  0  0  0  0  0  0  0  0  0  0  0
  -25.3710  -28.8140   10.7590 C   0  0  0  0  0  3  0  0  0  0  0  0
  -25.8100  -28.4900   12.0530 C   0  0  0  0  0  3  0  0  0  0  0  0
  -25.7170  -29.0270    8.4270 O   0  0  0  0  0  0  0  0  0  0  0  0
  -26.2680  -28.5770    7.2540 C   0  0  0  0  0  0  0  0  0  0  0  0
  -26.4130  -27.1990    6.9780 C   0  0  0  0  0  3  0  0  0  0  0  0
  -26.9200  -26.7800    5.7320 C   0  0  0  0  0  3  0  0  0  0  0  0
  -27.2750  -27.7360    4.7600 C   0  0  0  0  0  0  0  0  0  0  0  0
  -27.1280  -29.1070    5.0300 C   0  0  0  0  0  3  0  0  0  0  0  0
  -26.6220  -29.5260    6.2730 C   0  0  0  0  0  0  0  0  0  0  0  0
  -26.4600  -30.8480    6.5240 F   0  0  0  0  0  0  0  0  0  0  0  0
  -27.7570  -27.3340    3.5610 F   0  0  0  0  0  0  0  0  0  0  0  0
  -25.5180  -26.2420   14.5510 C   0  0  0  0  0  0  0  0  0  0  0  0
  -25.1400  -25.7650   13.3710 N   0  0  0  0  0  0  0  0  0  0  0  0
  -24.8090  -26.1120   15.5470 O   0  0  0  0  0  0  0  0  0  0  0  0
  -25.7380  -25.8460   12.5620 H   0  0  0  0  0  0  0  0  0  0  0  0
  -24.2420  -25.3140   13.2710 H   0  0  0  0  0  0  0  0  0  0  0  0
  -27.5160  -26.5310   17.0590 N   0  0  0  0  0  0  0  0  0  0  0  0
  -26.5970  -26.2160   17.3470 H   0  0  0  0  0  0  0  0  0  0  0  0
  -27.9960  -27.0340   17.7950 H   0  0  0  0  0  0  0  0  0  0  0  0
  -25.9050  -26.3300   26.1810 C   0  0  0  0  0  2  0  0  0  0  0  0
  -25.3290  -27.4440   25.2680 C   0  0  0  0  0  2  0  0  0  0  0  0
  -24.6600  -28.4660   26.0010 O   0  0  0  0  0  0  0  0  0  0  0  0
  -25.9770  -29.1260   32.9140 C   0  0  0  0  0  0  0  0  0  0  0  0
  -24.2650  -28.1180   27.2650 C   0  0  0  0  0  0  0  0  0  0  0  0
  -24.3060  -27.4020   32.3070 C   0  0  0  0  0  3  0  0  0  0  0  0
  -23.5060  -27.4450   29.8910 C   0  0  0  0  0  0  0  0  0  0  0  0
  -24.6560  -29.4610   30.8330 C   0  0  0  0  0  2  0  0  0  0  0  0
  -24.2580  -28.6020   29.6520 C   0  0  0  0  0  0  0  0  0  0  0  0
  -24.6310  -28.9470   28.3400 C   0  0  0  0  0  3  0  0  0  0  0  0
  -23.5170  -26.9460   27.5080 C   0  0  0  0  0  3  0  0  0  0  0  0
  -23.1380  -26.6060   28.8210 C   0  0  0  0  0  3  0  0  0  0  0  0
  -23.1280  -27.1650   31.3260 C   0  0  0  0  0  2  0  0  0  0  0  0
  -25.0380  -28.6810   32.0320 N   0  0  0  0  0  0  0  0  0  0  0  0
  -26.2020  -28.5170   33.9690 O   0  0  0  0  0  0  0  0  0  0  0  0
  -25.2190  -26.1560   32.2810 C   0  0  0  0  0  0  0  0  0  0  0  0
  -24.9560  -25.2100   33.1980 N   0  0  0  0  0  0  0  0  0  0  0  0
  -26.1130  -26.0430   31.4380 O   0  0  0  0  0  0  0  0  0  0  0  0
  -24.2100  -25.3820   33.8570 H   0  0  0  0  0  0  0  0  0  0  0  0
  -25.2370  -22.2550   35.2560 C   0  0  0  0  0  0  0  0  0  0  0  0
  -25.6560  -23.9340   33.3370 C   0  0  0  0  0  3  0  0  0  0  0  0
  -25.0490  -22.8640   32.4000 C   0  0  0  0  0  2  0  0  0  0  0  0
  -23.9780  -22.0040   33.0770 C   0  0  0  0  0  2  0  0  0  0  0  0
  -24.5570  -21.2900   34.3000 C   0  0  0  0  0  2  0  0  0  0  0  0
  -25.7410  -23.5020   34.8060 C   0  0  0  0  0  0  0  0  0  0  0  0
  -26.3370  -24.3780   35.7400 C   0  0  0  0  0  3  0  0  0  0  0  0
  -26.4310  -24.0260   37.1000 C   0  0  0  0  0  3  0  0  0  0  0  0
  -25.9460  -22.7820   37.5370 C   0  0  0  0  0  3  0  0  0  0  0  0
  -25.3560  -21.8970   36.6150 C   0  0  0  0  0  3  0  0  0  0  0  0
  -26.7890  -30.4330   32.6540 C   0  0  0  0  0  3  0  0  0  0  0  0
  -26.9420  -31.1180   33.9430 N   0  0  0  0  0  0  0  0  0  0  0  0
  -26.1720  -32.1320   34.3590 C   0  0  0  0  0  0  0  0  0  0  0  0
  -25.2970  -32.6440   33.6540 O   0  0  0  0  0  0  0  0  0  0  0  0
  -27.6000  -30.7140   34.5950 H   0  0  0  0  0  0  0  0  0  0  0  0
  -25.3530  -32.0870   36.7350 C   0  0  0  0  0  1  0  0  0  0  0  0
  -26.4120  -32.6650   35.7830 C   0  0  0  0  0  3  0  0  0  0  0  0
  -27.5400  -34.7660   35.1960 C   0  0  0  0  0  1  0  0  0  0  0  0
  -26.4030  -34.1430   35.8690 N   0  0  0  0  0  0  0  0  0  0  0  0
  -26.4030  -34.4460   36.8380 H   0  0  0  0  0  0  0  0  0  0  0  0
  -28.1950  -30.1700   31.9870 C   0  0  1  0  0  0  0  0  0  0  0  0
  -29.0700  -29.1590   32.7660 C   0  0  0  0  0  1  0  0  0  0  0  0
  -28.0240  -29.6370   30.5440 C   0  0  0  0  0  1  0  0  0  0  0  0
  -28.9800  -31.4990   31.8810 C   0  0  0  0  0  1  0  0  0  0  0  0
  1  2  1  0
  3  5  1  0
  4 11  1  0
  4  3  1  0
  4  1  1  0
  5  6  1  6
  5  2  1  0
  5 56  1  0
  7  8  2  0
  8 11  1  0
  9  7  1  0
  9 10  2  0
 10 11  1  0
 12 16  1  0
 12  9  1  0
 13 15  1  0
 13 16  1  0
 15 26  1  0
 15 14  1  0
 16 17  1  1
 16 14  1  0
 18 26  1  0
 18 25  2  0
 19 20  1  0
 19 24  1  0
 21 22  1  0
 21 20  1  0
 22 31  1  0
 23 22  1  0
 23 24  1  0
 24 18  1  0
 26 27  1  0
 28 53  1  0
 29 28  2  0
 30 32  2  0
 30 29  1  0
 31 28  1  0
 32 31  1  0
 33 30  1  0
 34 33  2  0
 35 34  1  0
 36 35  2  0
 36 37  1  0
 37 38  2  0
 38 33  1  0
 39 36  1  0
 40 39  1  0
 41 40  1  0
 42 41  2  0
 43 44  2  0
 43 42  1  0
 44 45  1  0
 45 46  1  0
 45 40  2  0
 47 43  1  0
 48 29  1  0
 48 50  2  0
 49 48  1  0
 51 49  1  0
 52 49  1  0
 53 54  1  0
 53 55  1  0
 57 58  1  0
 57 56  1  0
 58 60  1  0
 59 70  2  0
 60 66  2  0
 60 65  1  0
 61 71  1  0
 62 68  1  0
 63 69  1  0
 64 62  1  0
 64 63  1  0
 65 64  2  0
 66 67  1  0
 67 62  2  0
 68 61  1  0
 69 61  1  0
 69 59  1  0
 71 72  1  0
 72 74  1  0
 73 71  2  0
 75 84  1  0
 76 72  1  0
 76 80  1  0
 77 78  1  0
 77 76  1  0
 78 79  1  0
 79 75  1  0
 80 75  2  0
 80 81  1  0
 81 82  2  0
 82 83  1  0
 84 83  2  0
 85 59  1  0
 85 86  1  0
 86 87  1  0
 86 89  1  0
 87 91  1  0
 88 87  2  0
 91 93  1  0
 91 90  1  0
 92 93  1  0
 93 94  1  0
 95 85  1  0
 95 96  1  1
 97 95  1  0
 98 95  1  0
M  ISO  4  18 100  26 100  57 101  58 101
M  END
>  <TORSDO>  (36) 
F 21

>  <SCORE>  (36) 
25.763

>  <name>  (36) 
36

>  <ligand_id>  (36) 
36

>  <original_smiles>  (36) 
[H]c1c([H])c([H])c2c(c1[H])C([H])([H])C([H])([H])C([H])([H])C2([H])N([H])C(=O)C1([H])N(C(=O)C([H])(N([H])C(=O)C([H])(N([H])C([H])([H])[H])C([H])([H])[H])C(C([H])([H])[H])(C([H])([H])[H])C([H])([H])[H])C([H])([H])c2c([H])c(OC([H])([H])C([H])([H])[N+]3([H])C([H])([H])C([H])([H])C([H])(n4nc(C([H])([H])[N+]5([H])C([H])([H])C([H])(N([H])C(=O)N6C([H])([H])C([H])([H])C([H])([H])C([H])(n7nc(-c8c([H])c([H])c(Oc9c([H])c([H])c(F)c([H])c9F)c([H])c8[H])c(C(=O)N([H])[H])c7N([H])[H])C6([H])[H])C5([H])[H])c([H])c4[H])C3([H])[H])c([H])c([H])c2C1([H])[H]

>  <smiles>  (36) 
[H]c1c([H])c([H])c2c(c1[H])C([H])([H])C([H])([H])C([H])([H])C2([H])N([H])C(=O)C1([H])N(C(=O)C([H])(N([H])C(=O)C([H])(N([H])C([H])([H])[H])C([H])([H])[H])C(C([H])([H])[H])(C([H])([H])[H])C([H])([H])[H])C([H])([H])c2c([H])c(OC([H])([H])C([H])([H])[N+]3([H])C([H])([H])C([H])([H])C([H])(n4nc(C([H])([H])[N+]5([H])C([H])([H])C([H])(N([H])C(=O)N6C([H])([H])C([H])([H])C([H])([H])C([H])(n7nc(-c8c([H])c([H])c(Oc9c([H])c([H])c(F)c([H])c9F)c([H])c8[H])c(C(=O)N([H])[H])c7N([H])[H])C6([H])[H])C5([H])[H])c([H])c4[H])C3([H])[H])c([H])c([H])c2C1([H])[H]

$$$$
37:0:0
     RDKit          3D

 92102  0  0  1  0  0  0  0  0999 V2000
  -30.1910  -20.7330   18.7220 C   0  0  0  0  0  3  0  0  0  0  0  0
  -30.1150  -22.0070   18.1330 C   0  0  0  0  0  0  0  0  0  0  0  0
  -29.5200  -20.4670   19.9230 C   0  0  0  0  0  0  0  0  0  0  0  0
  -28.9350  -22.9360   19.9160 C   0  0  0  0  0  0  0  0  0  0  0  0
  -29.5450  -23.0750   18.7430 N   0  0  0  0  0  0  0  0  0  0  0  0
  -28.8740  -21.6280   20.4800 N   0  0  0  0  0  0  0  0  0  0  0  0
  -30.7870  -14.9550   19.9230 C   0  0  0  0  0  0  0  0  0  0  0  0
  -30.5820  -12.6250   18.8940 C   0  0  0  0  0  2  0  0  0  0  0  0
  -29.5560  -12.6370   17.7360 C   0  0  0  0  0  2  0  0  0  0  0  0
  -28.1300  -12.4260   18.2790 C   0  0  0  0  0  2  0  0  0  0  0  0
  -27.8430  -13.2950   19.5290 C   0  0  0  0  0  3  0  0  0  0  0  0
  -28.9830  -13.2370   20.5630 C   0  0  0  0  0  2  0  0  0  0  0  0
  -30.1910  -13.6880   19.8710 N   0  0  0  0  0  0  0  0  0  0  0  0
  -31.9300  -15.0170   19.4540 O   0  0  0  0  0  0  0  0  0  0  0  0
  -30.0940  -18.2930   21.6530 C   0  0  0  0  0  2  0  0  0  0  0  0
  -30.0030  -16.7000   21.6300 C   0  0  0  0  0  2  0  0  0  0  0  0
  -29.8830  -17.5250   19.4810 C   0  0  0  0  0  2  0  0  0  0  0  0
  -29.4120  -18.8440   20.3840 C   0  0  0  0  0  3  0  0  0  0  0  0
  -30.0510  -16.1630   20.2450 N   0  0  0  0  0  0  0  0  0  0  0  0
  -25.5660  -13.8840   20.5230 C   0  0  0  0  0  0  0  0  0  0  0  0
  -24.5170  -13.1190   20.9410 C   0  0  0  0  0  0  0  0  0  0  0  0
  -24.9340  -11.7600   20.7880 C   0  0  0  0  0  0  0  0  0  0  0  0
  -26.5490  -12.9960   20.1270 N   0  0  0  0  0  0  0  0  0  0  0  0
  -26.1880  -11.7080   20.3580 N   0  0  0  0  0  0  0  0  0  0  0  0
  -24.1950  -10.5070   20.9760 C   0  0  0  0  0  0  0  0  0  0  0  0
  -24.6170   -9.5280   21.9040 C   0  0  0  0  0  3  0  0  0  0  0  0
  -23.8760   -8.3400   22.0810 C   0  0  0  0  0  3  0  0  0  0  0  0
  -22.6970   -8.1190   21.3300 C   0  0  0  0  0  0  0  0  0  0  0  0
  -22.2890   -9.0890   20.3950 C   0  0  0  0  0  3  0  0  0  0  0  0
  -23.0310  -10.2680   20.2160 C   0  0  0  0  0  3  0  0  0  0  0  0
  -21.9240   -6.9850   21.4160 O   0  0  0  0  0  0  0  0  0  0  0  0
  -21.8050   -6.2840   22.5880 C   0  0  0  0  0  0  0  0  0  0  0  0
  -21.2560   -6.8640   23.7530 C   0  0  0  0  0  3  0  0  0  0  0  0
  -21.0890   -6.0850   24.9140 C   0  0  0  0  0  3  0  0  0  0  0  0
  -21.4590   -4.7270   24.9130 C   0  0  0  0  0  0  0  0  0  0  0  0
  -22.0050   -4.1470   23.7520 C   0  0  0  0  0  3  0  0  0  0  0  0
  -22.1750   -4.9230   22.5930 C   0  0  0  0  0  0  0  0  0  0  0  0
  -22.6780   -4.3530   21.4720 F   0  0  0  0  0  0  0  0  0  0  0  0
  -21.2920   -3.9760   26.0270 F   0  0  0  0  0  0  0  0  0  0  0  0
  -23.1640  -13.6090   21.3650 C   0  0  0  0  0  0  0  0  0  0  0  0
  -22.4900  -12.8860   22.2470 N   0  0  0  0  0  0  0  0  0  0  0  0
  -22.7160  -14.6770   20.9460 O   0  0  0  0  0  0  0  0  0  0  0  0
  -22.8640  -12.0220   22.6100 H   0  0  0  0  0  0  0  0  0  0  0  0
  -21.5860  -13.2020   22.5710 H   0  0  0  0  0  0  0  0  0  0  0  0
  -25.7650  -15.2610   20.4230 N   0  0  0  0  0  0  0  0  0  0  0  0
  -25.0710  -15.9360   20.7250 H   0  0  0  0  0  0  0  0  0  0  0  0
  -26.6350  -15.6840   20.1250 H   0  0  0  0  0  0  0  0  0  0  0  0
  -29.3650  -22.5640   15.7330 C   0  0  0  0  0  2  0  0  0  0  0  0
  -30.1480  -21.2980   15.5470 C   0  0  0  0  0  2  0  0  0  0  0  0
  -30.4960  -22.2440   16.6960 C   0  0  0  0  0  3  0  0  0  0  0  0
  -28.0760  -24.3150   20.3940 C   0  0  0  0  0  2  0  0  0  0  0  0
  -28.4370  -25.8800   20.2470 O   0  0  0  0  0  0  0  0  0  0  0  0
  -24.7390  -31.7460   23.0840 C   0  0  0  0  0  0  0  0  0  0  0  0
  -27.4220  -26.9380   20.1890 C   0  0  0  0  0  0  0  0  0  0  0  0
  -23.6120  -30.3160   21.4300 C   0  0  0  0  0  3  0  0  0  0  0  0
  -25.1180  -28.7500   20.0590 C   0  0  0  0  0  0  0  0  0  0  0  0
  -26.1740  -30.5880   21.3510 C   0  0  0  0  0  2  0  0  0  0  0  0
  -26.2810  -29.1830   20.7090 C   0  0  0  0  0  0  0  0  0  0  0  0
  -27.4430  -28.3000   20.7400 C   0  0  0  0  0  3  0  0  0  0  0  0
  -26.2280  -26.6370   19.4990 C   0  0  0  0  0  3  0  0  0  0  0  0
  -25.1120  -27.4950   19.4340 C   0  0  0  0  0  3  0  0  0  0  0  0
  -23.8860  -29.6420   20.0610 C   0  0  0  0  0  2  0  0  0  0  0  0
  -24.8590  -30.9060   22.0090 N   0  0  0  0  0  0  0  0  0  0  0  0
  -23.6330  -32.0200   23.5760 O   0  0  0  0  0  0  0  0  0  0  0  0
  -22.9190  -29.3040   22.3780 C   0  0  0  0  0  0  0  0  0  0  0  0
  -21.5910  -29.1370   22.2380 N   0  0  0  0  0  0  0  0  0  0  0  0
  -23.5740  -28.6820   23.2170 O   0  0  0  0  0  0  0  0  0  0  0  0
  -21.1150  -29.6800   21.5320 H   0  0  0  0  0  0  0  0  0  0  0  0
  -18.1950  -27.9690   22.7400 C   0  0  0  0  0  0  0  0  0  0  0  0
  -20.7570  -28.1980   23.0010 C   0  0  0  0  0  3  0  0  0  0  0  0
  -20.8450  -26.7750   22.4030 C   0  0  0  0  0  2  0  0  0  0  0  0
  -19.7360  -26.4800   21.3880 C   0  0  0  0  0  2  0  0  0  0  0  0
  -18.3570  -26.6300   22.0390 C   0  0  0  0  0  2  0  0  0  0  0  0
  -19.3230  -28.7140   23.1750 C   0  0  0  0  0  0  0  0  0  0  0  0
  -19.1200  -29.9670   23.7920 C   0  0  0  0  0  3  0  0  0  0  0  0
  -17.8220  -30.4770   23.9780 C   0  0  0  0  0  3  0  0  0  0  0  0
  -16.7080  -29.7310   23.5590 C   0  0  0  0  0  3  0  0  0  0  0  0
  -16.8950  -28.4800   22.9430 C   0  0  0  0  0  3  0  0  0  0  0  0
  -25.9850  -32.4100   23.7380 C   0  0  0  0  0  3  0  0  0  0  0  0
  -25.6250  -33.7930   24.0860 N   0  0  0  0  0  0  0  0  0  0  0  0
  -25.9380  -34.8720   23.3570 C   0  0  0  0  0  0  0  0  0  0  0  0
  -26.6270  -34.8110   22.3340 O   0  0  0  0  0  0  0  0  0  0  0  0
  -25.0100  -33.9140   24.8780 H   0  0  0  0  0  0  0  0  0  0  0  0
  -24.1680  -36.6320   23.0100 C   0  0  0  0  0  1  0  0  0  0  0  0
  -25.4030  -36.2360   23.8370 C   0  0  0  0  0  3  0  0  0  0  0  0
  -27.4810  -37.1720   24.7510 C   0  0  0  0  0  1  0  0  0  0  0  0
  -26.4050  -37.3240   23.7750 N   0  0  0  0  0  0  0  0  0  0  0  0
  -25.9620  -38.2260   23.9340 H   0  0  0  0  0  0  0  0  0  0  0  0
  -26.4960  -31.6430   25.0220 C   0  0  1  0  0  0  0  0  0  0  0  0
  -25.3840  -31.3590   26.0570 C   0  0  0  0  0  1  0  0  0  0  0  0
  -27.1370  -30.2890   24.6460 C   0  0  0  0  0  1  0  0  0  0  0  0
  -27.5960  -32.4740   25.7280 C   0  0  0  0  0  1  0  0  0  0  0  0
  1  3  1  0
  2  1  2  0
  2  5  1  0
  3  6  2  0
  4 51  1  0
  4  6  1  0
  5  4  2  0
  7 19  1  0
  8 13  1  0
  9 10  1  0
  9  8  1  0
 11 10  1  0
 11 23  1  0
 11 12  1  0
 13  7  1  0
 13 12  1  0
 14  7  2  0
 16 15  1  0
 17 19  1  0
 17 18  1  0
 18  3  1  0
 18 15  1  0
 19 16  1  0
 20 21  2  0
 21 40  1  0
 22 21  1  0
 22 25  1  0
 23 24  1  0
 23 20  1  0
 24 22  2  0
 25 26  1  0
 26 27  2  0
 28 31  1  0
 28 27  1  0
 29 28  2  0
 30 29  1  0
 30 25  2  0
 31 32  1  0
 32 37  2  0
 32 33  1  0
 33 34  2  0
 35 34  1  0
 35 39  1  0
 36 35  2  0
 37 36  1  0
 38 37  1  0
 40 41  1  0
 41 44  1  0
 41 43  1  0
 42 40  2  0
 45 20  1  0
 45 46  1  0
 47 45  1  0
 48 50  1  0
 49 48  1  0
 49 50  1  0
 50  2  1  0
 52 51  1  0
 53 64  2  0
 54 52  1  0
 54 59  1  0
 55 63  1  0
 55 65  1  0
 56 62  1  0
 56 58  1  0
 57 63  1  0
 58 59  2  0
 58 57  1  0
 60 54  2  0
 61 60  1  0
 61 56  2  0
 62 55  1  0
 63 53  1  0
 65 67  2  0
 66 65  1  0
 68 66  1  0
 69 78  2  0
 69 74  1  0
 70 66  1  0
 70 74  1  0
 71 70  1  0
 72 73  1  0
 72 71  1  0
 73 69  1  0
 74 75  2  0
 75 76  1  0
 77 76  2  0
 78 77  1  0
 79 53  1  0
 79 80  1  0
 79 89  1  0
 80 83  1  0
 81 85  1  0
 81 80  1  0
 82 81  2  0
 85 84  1  0
 87 85  1  0
 87 88  1  0
 87 86  1  0
 89 92  1  1
 89 90  1  0
 91 89  1  0
M  ISO  4   7 100  19 100  51 101  52 101
M  END
>  <TORSDO>  (37) 
F 18

>  <SCORE>  (37) 
-13.695

>  <name>  (37) 
37

>  <ligand_id>  (37) 
37

>  <original_smiles>  (37) 
[H]c1c(C2([H])C([H])([H])N(C(=O)N3C([H])([H])C([H])([H])C([H])([H])C([H])(n4nc(-c5c([H])c([H])c(Oc6c([H])c([H])c(F)c([H])c6F)c([H])c5[H])c(C(=O)N([H])[H])c4N([H])[H])C3([H])[H])C([H])([H])C2([H])[H])nc(C([H])([H])Oc2c([H])c([H])c3c(c2[H])C([H])([H])N(C(=O)C([H])(N([H])C(=O)C([H])(N([H])C([H])([H])[H])C([H])([H])[H])C(C([H])([H])[H])(C([H])([H])[H])C([H])([H])[H])C([H])(C(=O)N([H])C2([H])c4c([H])c([H])c([H])c([H])c4C([H])([H])C([H])([H])C2([H])[H])C3([H])[H])nc1C1([H])C([H])([H])C1([H])[H]

>  <smiles>  (37) 
[H]c1c(C2([H])C([H])([H])N(C(=O)N3C([H])([H])C([H])([H])C([H])([H])C([H])(n4nc(-c5c([H])c([H])c(Oc6c([H])c([H])c(F)c([H])c6F)c([H])c5[H])c(C(=O)N([H])[H])c4N([H])[H])C3([H])[H])C([H])([H])C2([H])[H])nc(C([H])([H])Oc2c([H])c([H])c3c(c2[H])C([H])([H])N(C(=O)C([H])(N([H])C(=O)C([H])(N([H])C([H])([H])[H])C([H])([H])[H])C(C([H])([H])[H])(C([H])([H])[H])C([H])([H])[H])C([H])(C(=O)N([H])C2([H])c4c([H])c([H])c([H])c([H])c4C([H])([H])C([H])([H])C2([H])[H])C3([H])[H])nc1C1([H])C([H])([H])C1([H])[H]

$$$$
38:0:0
     RDKit          3D

 92101  0  0  1  0  0  0  0  0999 V2000
  -28.5330  -20.7690   19.0320 C   0  0  0  0  0  2  0  0  0  0  0  0
  -29.2850  -21.4790   20.1280 C   0  0  0  0  0  3  0  0  0  0  0  0
  -28.6470  -20.0610   20.3680 C   0  0  0  0  0  3  0  0  0  0  0  0
  -30.6930  -14.5810   20.2220 C   0  0  0  0  0  0  0  0  0  0  0  0
  -30.3630  -12.3780   19.1490 C   0  0  0  0  0  2  0  0  0  0  0  0
  -29.3980  -12.5350   17.9560 C   0  0  0  0  0  2  0  0  0  0  0  0
  -27.9370  -12.3910   18.4220 C   0  0  0  0  0  2  0  0  0  0  0  0
  -27.6150  -13.2480   19.6770 C   0  0  0  0  0  3  0  0  0  0  0  0
  -28.7030  -13.1100   20.7640 C   0  0  0  0  0  2  0  0  0  0  0  0
  -29.9970  -13.4080   20.1380 N   0  0  0  0  0  0  0  0  0  0  0  0
  -31.8780  -14.6480   19.8820 O   0  0  0  0  0  0  0  0  0  0  0  0
  -29.6360  -16.4630   19.1500 C   0  0  0  0  0  2  0  0  0  0  0  0
  -30.5250  -16.7370   21.3750 C   0  0  0  0  0  2  0  0  0  0  0  0
  -28.8020  -17.7680   19.3260 C   0  0  0  0  0  2  0  0  0  0  0  0
  -29.7370  -18.0910   21.5150 C   0  0  0  0  0  2  0  0  0  0  0  0
  -29.9870  -15.7490   20.4020 N   0  0  0  0  0  0  0  0  0  0  0  0
  -29.4460  -18.7740   20.2210 N   0  0  2  0  0  4  0  0  0  0  0  0
  -30.3340  -19.0190   19.8090 H   0  0  0  0  0  0  0  0  0  0  0  0
  -25.2450  -13.8450   20.4600 C   0  0  0  0  0  0  0  0  0  0  0  0
  -24.1850  -13.0710   20.8470 C   0  0  0  0  0  0  0  0  0  0  0  0
  -24.6430  -11.7200   20.7950 C   0  0  0  0  0  0  0  0  0  0  0  0
  -26.2810  -12.9640   20.1960 N   0  0  0  0  0  0  0  0  0  0  0  0
  -25.9270  -11.6800   20.4580 N   0  0  0  0  0  0  0  0  0  0  0  0
  -23.9180  -10.4580   20.9890 C   0  0  0  0  0  0  0  0  0  0  0  0
  -24.3510   -9.4940   21.9270 C   0  0  0  0  0  3  0  0  0  0  0  0
  -23.6260   -8.2970   22.1090 C   0  0  0  0  0  3  0  0  0  0  0  0
  -22.4540   -8.0550   21.3530 C   0  0  0  0  0  0  0  0  0  0  0  0
  -22.0410   -9.0070   20.4050 C   0  0  0  0  0  3  0  0  0  0  0  0
  -22.7670  -10.1950   20.2200 C   0  0  0  0  0  3  0  0  0  0  0  0
  -21.7010   -6.9090   21.4450 O   0  0  0  0  0  0  0  0  0  0  0  0
  -21.6280   -6.1860   22.6090 C   0  0  0  0  0  0  0  0  0  0  0  0
  -21.1470   -6.7530   23.8090 C   0  0  0  0  0  3  0  0  0  0  0  0
  -21.0250   -5.9550   24.9650 C   0  0  0  0  0  3  0  0  0  0  0  0
  -21.3740   -4.5920   24.9200 C   0  0  0  0  0  0  0  0  0  0  0  0
  -21.8470   -4.0250   23.7240 C   0  0  0  0  0  3  0  0  0  0  0  0
  -21.9710   -4.8200   22.5700 C   0  0  0  0  0  0  0  0  0  0  0  0
  -22.4080   -4.2640   21.4150 F   0  0  0  0  0  0  0  0  0  0  0  0
  -21.2480   -3.8230   26.0270 F   0  0  0  0  0  0  0  0  0  0  0  0
  -22.7950  -13.5510   21.1510 C   0  0  0  0  0  0  0  0  0  0  0  0
  -22.0840  -12.8490   22.0270 N   0  0  0  0  0  0  0  0  0  0  0  0
  -22.3500  -14.5810   20.6480 O   0  0  0  0  0  0  0  0  0  0  0  0
  -22.4580  -12.0160   22.4550 H   0  0  0  0  0  0  0  0  0  0  0  0
  -21.1520  -13.1510   22.2740 H   0  0  0  0  0  0  0  0  0  0  0  0
  -25.4100  -15.2160   20.2900 N   0  0  0  0  0  0  0  0  0  0  0  0
  -24.6480  -15.8730   20.4200 H   0  0  0  0  0  0  0  0  0  0  0  0
  -26.2570  -15.6490   19.9470 H   0  0  0  0  0  0  0  0  0  0  0  0
  -29.0280  -24.0110   20.2580 C   0  0  0  0  0  0  0  0  0  0  0  0
  -28.6550  -22.7320   20.5580 N   0  0  0  0  0  0  0  0  0  0  0  0
  -29.9840  -24.2470   19.5130 O   0  0  0  0  0  0  0  0  0  0  0  0
  -27.8640  -22.6450   21.1830 H   0  0  0  0  0  0  0  0  0  0  0  0
  -28.2140  -25.1960   20.8840 C   0  0  0  0  0  2  0  0  0  0  0  0
  -28.4580  -26.5260   20.3010 O   0  0  0  0  0  0  0  0  0  0  0  0
  -24.6460  -31.8580   23.2530 C   0  0  0  0  0  0  0  0  0  0  0  0
  -27.3410  -27.3550   20.2460 C   0  0  0  0  0  0  0  0  0  0  0  0
  -23.4760  -30.4490   21.5940 C   0  0  0  0  0  3  0  0  0  0  0  0
  -24.9610  -28.9130   20.1930 C   0  0  0  0  0  0  0  0  0  0  0  0
  -26.0110  -30.7990   21.4460 C   0  0  0  0  0  2  0  0  0  0  0  0
  -26.1130  -29.4250   20.8040 C   0  0  0  0  0  0  0  0  0  0  0  0
  -27.3100  -28.6560   20.8220 C   0  0  0  0  0  3  0  0  0  0  0  0
  -26.1740  -26.8900   19.6010 C   0  0  0  0  0  3  0  0  0  0  0  0
  -24.9920  -27.6500   19.5810 C   0  0  0  0  0  3  0  0  0  0  0  0
  -23.7150  -29.7720   20.2180 C   0  0  0  0  0  2  0  0  0  0  0  0
  -24.7290  -31.0510   22.1560 N   0  0  0  0  0  0  0  0  0  0  0  0
  -23.5540  -32.1280   23.7720 O   0  0  0  0  0  0  0  0  0  0  0  0
  -22.8090  -29.4280   22.5450 C   0  0  0  0  0  0  0  0  0  0  0  0
  -21.4830  -29.2590   22.4140 N   0  0  0  0  0  0  0  0  0  0  0  0
  -23.4830  -28.7890   23.3590 O   0  0  0  0  0  0  0  0  0  0  0  0
  -20.9990  -29.8250   21.7300 H   0  0  0  0  0  0  0  0  0  0  0  0
  -18.0920  -28.1070   22.9170 C   0  0  0  0  0  0  0  0  0  0  0  0
  -20.6560  -28.3220   23.1750 C   0  0  0  0  0  3  0  0  0  0  0  0
  -20.7320  -26.8990   22.5780 C   0  0  0  0  0  2  0  0  0  0  0  0
  -19.6200  -26.6070   21.5660 C   0  0  0  0  0  2  0  0  0  0  0  0
  -18.2440  -26.7650   22.2200 C   0  0  0  0  0  2  0  0  0  0  0  0
  -19.2250  -28.8450   23.3510 C   0  0  0  0  0  0  0  0  0  0  0  0
  -19.0290  -30.1030   23.9620 C   0  0  0  0  0  3  0  0  0  0  0  0
  -17.7340  -30.6220   24.1430 C   0  0  0  0  0  3  0  0  0  0  0  0
  -16.6150  -29.8800   23.7250 C   0  0  0  0  0  3  0  0  0  0  0  0
  -16.7960  -28.6240   23.1170 C   0  0  0  0  0  3  0  0  0  0  0  0
  -25.9170  -32.4980   23.8930 C   0  0  0  0  0  3  0  0  0  0  0  0
  -25.5980  -33.8980   24.2090 N   0  0  0  0  0  0  0  0  0  0  0  0
  -25.9310  -34.9450   23.4440 C   0  0  0  0  0  0  0  0  0  0  0  0
  -26.6110  -34.8360   22.4190 O   0  0  0  0  0  0  0  0  0  0  0  0
  -24.9950  -34.0560   25.0030 H   0  0  0  0  0  0  0  0  0  0  0  0
  -24.1990  -36.7270   23.0550 C   0  0  0  0  0  1  0  0  0  0  0  0
  -25.4320  -36.3350   23.8840 C   0  0  0  0  0  3  0  0  0  0  0  0
  -27.5510  -37.2380   24.7360 C   0  0  0  0  0  1  0  0  0  0  0  0
  -26.4610  -37.3920   23.7750 N   0  0  0  0  0  0  0  0  0  0  0  0
  -26.0500  -38.3110   23.9080 H   0  0  0  0  0  0  0  0  0  0  0  0
  -26.4130  -31.7360   25.1840 C   0  0  1  0  0  0  0  0  0  0  0  0
  -25.3020  -31.5000   26.2330 C   0  0  0  0  0  1  0  0  0  0  0  0
  -27.0080  -30.3580   24.8100 C   0  0  0  0  0  1  0  0  0  0  0  0
  -27.5480  -32.5380   25.8610 C   0  0  0  0  0  1  0  0  0  0  0  0
  1  2  1  0
  2  3  1  0
  2 48  1  0
  3  1  1  0
  4 16  1  0
  5 10  1  0
  6  7  1  0
  6  5  1  0
  8  7  1  0
  8 22  1  0
  8  9  1  0
 10  4  1  0
 10  9  1  0
 11  4  2  0
 12 14  1  0
 12 16  1  0
 13 15  1  0
 14 17  1  0
 16 13  1  0
 17 18  1  6
 17  3  1  0
 17 15  1  0
 19 20  2  0
 20 39  1  0
 21 20  1  0
 21 24  1  0
 22 23  1  0
 22 19  1  0
 23 21  2  0
 24 25  1  0
 25 26  2  0
 27 30  1  0
 27 26  1  0
 28 27  2  0
 29 28  1  0
 29 24  2  0
 30 31  1  0
 31 32  1  0
 32 33  2  0
 34 33  1  0
 34 38  1  0
 35 34  2  0
 36 31  2  0
 36 35  1  0
 37 36  1  0
 39 40  1  0
 40 43  1  0
 40 42  1  0
 41 39  2  0
 44 45  1  0
 44 19  1  0
 46 44  1  0
 47 48  1  0
 47 51  1  0
 48 50  1  0
 49 47  2  0
 52 51  1  0
 53 64  2  0
 54 52  1  0
 54 59  1  0
 55 63  1  0
 55 65  1  0
 56 62  1  0
 56 58  1  0
 57 63  1  0
 58 59  2  0
 58 57  1  0
 60 54  2  0
 61 60  1  0
 61 56  2  0
 62 55  1  0
 63 53  1  0
 65 67  2  0
 66 65  1  0
 68 66  1  0
 69 78  2  0
 69 74  1  0
 70 66  1  0
 70 74  1  0
 71 70  1  0
 72 73  1  0
 72 71  1  0
 73 69  1  0
 74 75  2  0
 75 76  1  0
 77 76  2  0
 78 77  1  0
 79 53  1  0
 79 80  1  0
 79 89  1  0
 80 83  1  0
 81 85  1  0
 81 80  1  0
 82 81  2  0
 85 84  1  0
 87 85  1  0
 87 88  1  0
 87 86  1  0
 89 92  1  1
 89 90  1  0
 91 89  1  0
M  ISO  4   4 100  16 100  51 101  52 101
M  END
>  <TORSDO>  (38) 
F 18

>  <SCORE>  (38) 
-14.533

>  <name>  (38) 
38

>  <ligand_id>  (38) 
38

>  <original_smiles>  (38) 
[H]c1c([H])c([H])c2c(c1[H])C([H])([H])C([H])([H])C([H])([H])C2([H])N([H])C(=O)C1([H])N(C(=O)C([H])(N([H])C(=O)C([H])(N([H])C([H])([H])[H])C([H])([H])[H])C(C([H])([H])[H])(C([H])([H])[H])C([H])([H])[H])C([H])([H])c2c([H])c(OC([H])([H])C(=O)N([H])C3([H])C([H])([H])C3([H])[N+]3([H])C([H])([H])C([H])([H])N(C(=O)N4C([H])([H])C([H])([H])C([H])([H])C([H])(n5nc(-c6c([H])c([H])c(Oc7c([H])c([H])c(F)c([H])c7F)c([H])c6[H])c(C(=O)N([H])[H])c5N([H])[H])C4([H])[H])C([H])([H])C3([H])[H])c([H])c([H])c2C1([H])[H]

>  <smiles>  (38) 
[H]c1c([H])c([H])c2c(c1[H])C([H])([H])C([H])([H])C([H])([H])C2([H])N([H])C(=O)C1([H])N(C(=O)C([H])(N([H])C(=O)C([H])(N([H])C([H])([H])[H])C([H])([H])[H])C(C([H])([H])[H])(C([H])([H])[H])C([H])([H])[H])C([H])([H])c2c([H])c(OC([H])([H])C(=O)N([H])C3([H])C([H])([H])C3([H])[N+]3([H])C([H])([H])C([H])([H])N(C(=O)N4C([H])([H])C([H])([H])C([H])([H])C([H])(n5nc(-c6c([H])c([H])c(Oc7c([H])c([H])c(F)c([H])c7F)c([H])c6[H])c(C(=O)N([H])[H])c5N([H])[H])C4([H])[H])C([H])([H])C3([H])[H])c([H])c([H])c2C1([H])[H]

$$$$
39:0:0
     RDKit          3D

 93 93  0  0  1  0  0  0  0  0999 V2000
  -19.8070  -25.5730   24.3200 C   0  0  0  0  0  2  0  0  0  0  0  0
  -20.7000  -26.3740   21.5030 C   0  0  0  0  0  1  0  0  0  0  0  0
  -18.7650  -27.1480   24.3520 C   0  0  0  0  0  1  0  0  0  0  0  0
  -20.9230  -24.9250   23.0590 C   0  0  0  0  0  1  0  0  0  0  0  0
  -20.1510  -27.7430   21.1020 C   0  0  0  0  0  3  0  0  0  0  0  0
  -19.0860  -28.4080   22.1950 N   0  0  0  0  0  2  0  0  0  0  0  0
  -18.6920  -29.3440   22.1020 H   0  0  0  0  0  0  0  0  0  0  0  0
  -24.0290  -22.2880   21.8980 C   0  0  0  0  0  2  0  0  0  0  0  0
  -23.1460  -21.2460   22.9410 C   0  0  0  0  0  2  0  0  0  0  0  0
  -24.7850  -20.2790   21.9270 C   0  0  0  0  0 15  0  0  0  0  0  0
  -22.4760  -23.0010   22.7170 N   0  0  0  0  0  2  0  0  0  0  0  0
  -27.9300  -17.0140   21.0630 C   0  0  0  0  0  2  0  0  0  0  0  0
  -29.6210  -14.5430   19.8960 C   0  0  0  0  0  2  0  0  0  0  0  0
  -29.4050  -13.3700   18.7520 C   0  0  0  0  0  2  0  0  0  0  0  0
  -28.2270  -12.4480   19.0520 C   0  0  0  0  0  2  0  0  0  0  0  0
  -27.3590  -13.3540   19.9070 C   0  0  0  0  0  3  0  0  0  0  0  0
  -27.9690  -14.0340   21.1640 C   0  0  0  0  0  2  0  0  0  0  0  0
  -28.3640  -15.4030   20.6880 N   0  0  0  0  0  0  0  0  0  0  0  0
  -29.2460  -17.1140   20.8550 O   0  0  0  0  0  1  0  0  0  0  0  0
  -26.3910  -18.3510   21.4800 N   0  0  0  0  0  1  0  0  0  0  0  0
  -25.6980  -17.6130   21.5100 H   0  0  0  0  0  0  0  0  0  0  0  0
  -25.0770  -13.8020   20.5430 C   0  0  0  0  0  0  0  0  0  0  0  0
  -24.0610  -13.0080   20.9320 C   0  0  0  0  0  0  0  0  0  0  0  0
  -24.5590  -11.6670   20.8840 C   0  0  0  0  0  0  0  0  0  0  0  0
  -26.0980  -12.9240   20.2820 N   0  0  0  0  0  0  0  0  0  0  0  0
  -25.8400  -11.6360   20.5540 N   0  0  0  0  0  0  0  0  0  0  0  0
  -23.8620  -10.4050   21.0510 C   0  0  0  0  0  0  0  0  0  0  0  0
  -24.3380   -9.4050   21.9240 C   0  0  0  0  0  3  0  0  0  0  0  0
  -23.6160   -8.2050   22.0760 C   0  0  0  0  0  3  0  0  0  0  0  0
  -22.4150   -8.0080   21.3540 C   0  0  0  0  0  0  0  0  0  0  0  0
  -21.9680   -8.9980   20.4630 C   0  0  0  0  0  3  0  0  0  0  0  0
  -22.6890  -10.1890   20.3070 C   0  0  0  0  0  3  0  0  0  0  0  0
  -21.6540   -6.8690   21.4230 O   0  0  0  0  0  0  0  0  0  0  0  0
  -21.6790   -6.0630   22.5300 C   0  0  0  0  0  0  0  0  0  0  0  0
  -21.3960   -6.5580   23.8220 C   0  0  0  0  0  3  0  0  0  0  0  0
  -21.3650   -5.6760   24.9190 C   0  0  0  0  0  3  0  0  0  0  0  0
  -21.6050   -4.3020   24.7260 C   0  0  0  0  0  0  0  0  0  0  0  0
  -21.8830   -3.8080   23.4390 C   0  0  0  0  0  3  0  0  0  0  0  0
  -21.9180   -4.6880   22.3430 C   0  0  0  0  0  0  0  0  0  0  0  0
  -22.1660   -4.2070   21.1010 F   0  0  0  0  0  0  0  0  0  0  0  0
  -21.5640   -3.4520   25.7780 F   0  0  0  0  0  0  0  0  0  0  0  0
  -22.6810  -13.4880   21.2110 C   0  0  0  0  0  0  0  0  0  0  0  0
  -21.9640  -12.7910   22.0790 N   0  0  0  0  0  0  0  0  0  0  0  0
  -22.2600  -14.5250   20.6990 O   0  0  0  0  0  0  0  0  0  0  0  0
  -22.3340  -11.9570   22.5110 H   0  0  0  0  0  0  0  0  0  0  0  0
  -21.0310  -13.0950   22.3190 H   0  0  0  0  0  0  0  0  0  0  0  0
  -25.2160  -15.1840   20.3740 N   0  0  0  0  0  0  0  0  0  0  0  0
  -24.3470  -15.7050   20.3270 H   0  0  0  0  0  0  0  0  0  0  0  0
  -25.8840  -15.4910   19.6800 H   0  0  0  0  0  0  0  0  0  0  0  0
  -22.4020  -28.7240   19.4160 C   0  0  0  0  0  2  0  0  0  0  0  0
  -21.3560  -27.9190   19.8200 C   0  0  0  0  0  3  0  0  0  0  0  0
  -23.1980  -27.4260   19.8030 C   0  0  0  0  0  3  0  0  0  0  0  0
  -24.8630  -27.0970   20.4760 O   0  0  0  0  0  0  0  0  0  0  0  0
  -24.7050  -31.9740   23.2850 C   0  0  0  0  0  0  0  0  0  0  0  0
  -26.2400  -27.3150   20.1280 C   0  0  0  0  0  3  0  0  0  0  0  0
  -23.6050  -30.6840   21.5780 C   0  0  0  0  0  3  0  0  0  0  0  0
  -25.1160  -29.6030   19.7460 C   0  0  0  0  0  3  0  0  0  0  0  0
  -26.1450  -30.8130   21.6050 C   0  0  0  0  0  2  0  0  0  0  0  0
  -26.0790  -29.5810   20.7290 C   0  0  0  0  0  3  0  0  0  0  0  0
  -26.8350  -28.4050   20.8390 C   0  0  0  0  0  2  0  0  0  0  0  0
  -26.0520  -27.5310   18.8070 C   0  0  0  0  0  2  0  0  0  0  0  0
  -25.2360  -28.6740   18.6590 C   0  0  0  0  0  2  0  0  0  0  0  0
  -24.0430  -30.6280   20.0420 C   0  0  0  0  0  2  0  0  0  0  0  0
  -24.8260  -31.2240   22.1790 N   0  0  0  0  0  0  0  0  0  0  0  0
  -23.6010  -32.2350   23.7910 O   0  0  0  0  0  0  0  0  0  0  0  0
  -23.3030  -29.4270   22.5060 C   0  0  0  0  0  0  0  0  0  0  0  0
  -22.2490  -28.6740   22.4460 N   0  0  0  0  0  0  0  0  0  0  0  0
  -24.0690  -29.0580   23.3800 O   0  0  0  0  0  0  0  0  0  0  0  0
  -21.4560  -28.9730   21.9030 H   0  0  0  0  0  0  0  0  0  0  0  0
  -18.6250  -26.2980   22.3810 C   0  0  0  0  0  3  0  0  0  0  0  0
  -22.2490  -27.2500   23.0030 C   0  0  0  0  0  2  0  0  0  0  0  0
  -22.7330  -25.5150   21.7710 C   0  0  0  0  0 15  0  0  0  0  0  0
  -20.9040  -24.2420   20.8430 C   0  0  0  0  0 15  0  0  0  0  0  0
  -18.9480  -24.8360   21.4070 C   0  0  0  0  0  1  0  0  0  0  0  0
  -20.6550  -27.5990   23.4380 C   0  0  0  0  0  3  0  0  0  0  0  0
  -20.0310  -29.1500   24.1720 C   0  0  0  0  0  3  0  0  0  0  0  0
  -18.3830  -29.6160   24.1460 C   0  0  0  0  0  3  0  0  0  0  0  0
  -17.0910  -28.7840   23.4830 C   0  0  0  0  0  3  0  0  0  0  0  0
  -17.1110  -27.2730   22.6630 C   0  0  0  0  0  3  0  0  0  0  0  0
  -25.9850  -32.5320   23.9260 C   0  0  0  0  0  3  0  0  0  0  0  0
  -26.4770  -31.6840   25.1560 C   0  0  1  0  0  0  0  0  0  0  0  0
  -25.3710  -31.3970   26.1960 C   0  0  0  0  0  1  0  0  0  0  0  0
  -27.0750  -30.3160   24.7470 C   0  0  0  0  0  1  0  0  0  0  0  0
  -27.6260  -32.4500   25.8430 C   0  0  0  0  0  1  0  0  0  0  0  0
  -25.6620  -33.9070   24.3000 N   0  0  0  0  0  0  0  0  0  0  0  0
  -25.9170  -34.9700   23.5310 C   0  0  0  0  0  0  0  0  0  0  0  0
  -26.5400  -34.8960   22.4680 O   0  0  0  0  0  0  0  0  0  0  0  0
  -25.1060  -34.0360   25.1330 H   0  0  0  0  0  0  0  0  0  0  0  0
  -24.1530  -36.7410   23.2550 C   0  0  0  0  0  1  0  0  0  0  0  0
  -25.4130  -36.3330   24.0340 C   0  0  0  0  0  3  0  0  0  0  0  0
  -27.5610  -37.1960   24.8470 C   0  0  0  0  0  1  0  0  0  0  0  0
  -26.4330  -37.3970   23.9400 N   0  0  0  0  0  0  0  0  0  0  0  0
  -26.0250  -38.3070   24.1370 H   0  0  0  0  0  0  0  0  0  0  0  0
  1  3  1  0
  4  1  1  0
  5  2  1  0
  5  6  1  0
  7  6  1  0
  8 11  1  0
  8  9  1  0
 11  9  1  0
 13 18  1  0
 14 15  1  0
 14 13  1  0
 16 15  1  0
 16 25  1  0
 16 17  1  0
 18 12  1  0
 18 17  1  0
 19 12  1  0
 20 21  1  0
 22 23  2  0
 23 42  1  0
 24 23  1  0
 24 27  1  0
 25 22  1  0
 25 26  1  0
 26 24  2  0
 27 28  1  0
 28 29  2  0
 30 33  1  0
 30 29  1  0
 31 30  2  0
 32 31  1  0
 32 27  2  0
 33 34  1  0
 34 35  1  0
 35 36  2  0
 37 36  1  0
 37 41  1  0
 38 37  2  0
 39 34  2  0
 39 38  1  0
 40 39  1  0
 42 43  1  0
 43 46  1  0
 43 45  1  0
 44 42  2  0
 47 22  1  0
 48 47  1  0
 49 47  1  0
 50 52  1  0
 50 51  1  0
 51  5  1  0
 52 51  1  0
 52 53  1  0
 54 65  2  0
 55 53  1  0
 55 60  1  0
 56 64  1  0
 56 66  1  0
 57 62  1  0
 57 63  1  0
 57 59  1  0
 58 64  1  0
 59 60  1  0
 59 58  1  0
 61 55  1  0
 62 61  1  0
 63 56  1  0
 64 54  1  0
 66 68  2  0
 67 66  1  0
 67 71  1  0
 69 67  1  0
 70 79  2  0
 71 75  1  0
 74 70  1  0
 75 76  2  0
 77 76  1  0
 78 77  2  0
 79 78  1  0
 80 54  1  0
 80 85  1  0
 80 81  1  0
 81 84  1  1
 81 82  1  0
 83 81  1  0
 85 88  1  0
 86 90  1  0
 86 85  1  0
 87 86  2  0
 90 89  1  0
 92 90  1  0
 92 93  1  0
 92 91  1  0
M  ISO  4  12 100  20 100  52 101  53 101
M  END
>  <TORSDO>  (39) 
F 18

>  <SCORE>  (39) 
26.547

>  <name>  (39) 
39

>  <ligand_id>  (39) 
39

>  <original_smiles>  (39) 
[H]c1c([H])c([H])c2c(c1[H])C([H])([H])C([H])([H])C([H])([H])C2([H])N([H])C(=O)C1([H])N(C(=O)C([H])(N([H])C(=O)C([H])(N([H])C([H])([H])[H])C([H])([H])[H])C(C([H])([H])[H])(C([H])([H])[H])C([H])([H])[H])C([H])([H])c2c([H])c(OC3([H])C([H])([H])C3([H])c3c([H])c(N4C([H])([H])C([H])(N([H])C(=O)N5C([H])([H])C([H])([H])C([H])([H])C([H])(n6nc(-c7c([H])c([H])c(Oc8c([H])c([H])c(F)c([H])c8F)c([H])c7[H])c(C(=O)N([H])[H])c6N([H])[H])C5([H])[H])C4([H])[H])c([H])c([H])[n+]3[H])c([H])c([H])c2C1([H])[H]

>  <smiles>  (39) 
[H]c1c([H])c([H])c2c(c1[H])C([H])([H])C([H])([H])C([H])([H])C2([H])N([H])C(=O)C1([H])N(C(=O)C([H])(N([H])C(=O)C([H])(N([H])C([H])([H])[H])C([H])([H])[H])C(C([H])([H])[H])(C([H])([H])[H])C([H])([H])[H])C([H])([H])c2c([H])c(OC3([H])C([H])([H])C3([H])c3c([H])c(N4C([H])([H])C([H])(N([H])C(=O)N5C([H])([H])C([H])([H])C([H])([H])C([H])(n6nc(-c7c([H])c([H])c(Oc8c([H])c([H])c(F)c([H])c8F)c([H])c7[H])c(C(=O)N([H])[H])c6N([H])[H])C5([H])[H])C4([H])[H])c([H])c([H])[n+]3[H])c([H])c([H])c2C1([H])[H]

$$$$
40:0:0
     RDKit          3D

 97107  0  0  1  0  0  0  0  0999 V2000
  -32.0600  -19.2330   20.9510 C   0  0  0  0  0  3  0  0  0  0  0  0
  -31.2010  -20.3400   20.7710 C   0  0  0  0  0  0  0  0  0  0  0  0
  -29.8410  -20.0220   20.5330 C   0  0  0  0  0  0  0  0  0  0  0  0
  -30.3330  -17.7550   20.8450 C   0  0  0  0  0  0  0  0  0  0  0  0
  -31.6350  -17.9620   20.9650 N   0  0  0  0  0  0  0  0  0  0  0  0
  -29.4250  -18.7240   20.5900 N   0  0  0  0  0  0  0  0  0  0  0  0
  -28.8630  -20.9990   20.1880 N   0  0  0  0  0  0  0  0  0  0  0  0
  -27.9840  -20.5640   19.9360 H   0  0  0  0  0  0  0  0  0  0  0  0
  -32.0320  -22.2240   19.5360 C   0  0  0  0  0  2  0  0  0  0  0  0
  -33.3060  -23.0310   19.7740 C   0  0  0  0  0  2  0  0  0  0  0  0
  -32.8670  -21.9250   21.6590 C   0  0  0  0  0  2  0  0  0  0  0  0
  -31.7010  -21.6550   20.8360 N   0  0  0  0  0  0  0  0  0  0  0  0
  -33.9100  -22.3030   20.8300 O   0  0  0  0  0  0  0  0  0  0  0  0
  -29.8800  -16.4050   21.4490 C   0  0  0  0  0  2  0  0  0  0  0  0
  -30.5300  -14.1570   20.4000 C   0  0  0  0  0  0  0  0  0  0  0  0
  -30.3320  -11.8930   19.3900 C   0  0  0  0  0  2  0  0  0  0  0  0
  -29.3660  -11.9640   18.1860 C   0  0  0  0  0  2  0  0  0  0  0  0
  -27.8950  -11.8230   18.6400 C   0  0  0  0  0  2  0  0  0  0  0  0
  -27.5450  -12.7500   19.8370 C   0  0  0  0  0  3  0  0  0  0  0  0
  -28.6130  -12.6220   20.9440 C   0  0  0  0  0  2  0  0  0  0  0  0
  -29.9160  -12.9390   20.3350 N   0  0  0  0  0  0  0  0  0  0  0  0
  -31.7090  -14.3300   20.0860 O   0  0  0  0  0  0  0  0  0  0  0  0
  -29.6830  -15.1850   20.6400 N   0  0  0  0  0  0  0  0  0  0  0  0
  -28.7160  -14.9120   20.5950 H   0  0  0  0  0  0  0  0  0  0  0  0
  -25.1760  -13.4050   20.6020 C   0  0  0  0  0  0  0  0  0  0  0  0
  -24.1040  -12.6520   20.9970 C   0  0  0  0  0  0  0  0  0  0  0  0
  -24.5410  -11.2950   20.9650 C   0  0  0  0  0  0  0  0  0  0  0  0
  -26.2010  -12.5040   20.3520 N   0  0  0  0  0  0  0  0  0  0  0  0
  -25.8250  -11.2300   20.6310 N   0  0  0  0  0  0  0  0  0  0  0  0
  -23.7990  -10.0460   21.1750 C   0  0  0  0  0  0  0  0  0  0  0  0
  -24.2320   -9.0760   22.1060 C   0  0  0  0  0  3  0  0  0  0  0  0
  -23.4910   -7.8900   22.3020 C   0  0  0  0  0  3  0  0  0  0  0  0
  -22.3020   -7.6690   21.5660 C   0  0  0  0  0  0  0  0  0  0  0  0
  -21.8880   -8.6260   20.6260 C   0  0  0  0  0  3  0  0  0  0  0  0
  -22.6300   -9.8020   20.4280 C   0  0  0  0  0  3  0  0  0  0  0  0
  -21.5330   -6.5340   21.6720 O   0  0  0  0  0  0  0  0  0  0  0  0
  -21.5070   -5.7870   22.8210 C   0  0  0  0  0  0  0  0  0  0  0  0
  -21.0850   -6.3280   24.0550 C   0  0  0  0  0  3  0  0  0  0  0  0
  -21.0060   -5.5040   25.1950 C   0  0  0  0  0  3  0  0  0  0  0  0
  -21.3400   -4.1390   25.1030 C   0  0  0  0  0  0  0  0  0  0  0  0
  -21.7600   -3.5990   23.8750 C   0  0  0  0  0  3  0  0  0  0  0  0
  -21.8400   -4.4180   22.7360 C   0  0  0  0  0  0  0  0  0  0  0  0
  -22.2220   -3.8870   21.5500 F   0  0  0  0  0  0  0  0  0  0  0  0
  -21.2590   -3.3450   26.1960 F   0  0  0  0  0  0  0  0  0  0  0  0
  -22.7170  -13.1560   21.2850 C   0  0  0  0  0  0  0  0  0  0  0  0
  -21.9860  -12.4800   22.1660 N   0  0  0  0  0  0  0  0  0  0  0  0
  -22.2920  -14.1860   20.7680 O   0  0  0  0  0  0  0  0  0  0  0  0
  -22.3420  -11.6510   22.6190 H   0  0  0  0  0  0  0  0  0  0  0  0
  -21.0550  -12.8000   22.3900 H   0  0  0  0  0  0  0  0  0  0  0  0
  -25.3560  -14.7720   20.4140 N   0  0  0  0  0  0  0  0  0  0  0  0
  -24.5830  -15.4200   20.5200 H   0  0  0  0  0  0  0  0  0  0  0  0
  -26.1830  -15.2080   20.0300 H   0  0  0  0  0  0  0  0  0  0  0  0
  -28.6900  -22.3040   20.8890 C   0  0  0  0  0  2  0  0  0  0  0  0
  -29.9170  -24.5770   20.4040 C   0  0  0  0  0  2  0  0  0  0  0  0
  -28.8210  -23.6070   20.0400 C   0  0  0  0  0  3  0  0  0  0  0  0
  -28.4900  -25.0320   20.6000 C   0  0  0  0  0  3  0  0  0  0  0  0
  -28.3890  -26.2390   19.7890 O   0  0  0  0  0  0  0  0  0  0  0  0
  -24.6870  -31.4490   23.0830 C   0  0  0  0  0  0  0  0  0  0  0  0
  -27.2350  -27.0030   19.8830 C   0  0  0  0  0  0  0  0  0  0  0  0
  -23.4470  -30.1090   21.4180 C   0  0  0  0  0  3  0  0  0  0  0  0
  -24.8620  -28.5740   19.9430 C   0  0  0  0  0  0  0  0  0  0  0  0
  -25.9790  -30.4220   21.2070 C   0  0  0  0  0  2  0  0  0  0  0  0
  -26.0380  -29.0640   20.5290 C   0  0  0  0  0  0  0  0  0  0  0  0
  -27.2280  -28.2920   20.4820 C   0  0  0  0  0  3  0  0  0  0  0  0
  -26.0430  -26.5380   19.2960 C   0  0  0  0  0  3  0  0  0  0  0  0
  -24.8640  -27.3130   19.3190 C   0  0  0  0  0  3  0  0  0  0  0  0
  -23.6310  -29.4530   20.0240 C   0  0  0  0  0  2  0  0  0  0  0  0
  -24.7230  -30.6760   21.9590 N   0  0  0  0  0  0  0  0  0  0  0  0
  -23.6150  -31.7260   23.6400 O   0  0  0  0  0  0  0  0  0  0  0  0
  -22.7800  -29.0830   22.3610 C   0  0  0  0  0  0  0  0  0  0  0  0
  -21.4480  -28.9410   22.2490 N   0  0  0  0  0  0  0  0  0  0  0  0
  -23.4590  -28.4120   23.1430 O   0  0  0  0  0  0  0  0  0  0  0  0
  -20.9610  -29.5280   21.5880 H   0  0  0  0  0  0  0  0  0  0  0  0
  -18.0520  -27.8150   22.7770 C   0  0  0  0  0  0  0  0  0  0  0  0
  -20.6220  -27.9960   23.0020 C   0  0  0  0  0  3  0  0  0  0  0  0
  -20.6730  -26.5860   22.3700 C   0  0  0  0  0  2  0  0  0  0  0  0
  -19.5440  -26.3300   21.3680 C   0  0  0  0  0  2  0  0  0  0  0  0
  -18.1790  -26.4870   22.0460 C   0  0  0  0  0  2  0  0  0  0  0  0
  -19.2000  -28.5300   23.2100 C   0  0  0  0  0  0  0  0  0  0  0  0
  -19.0280  -29.7770   23.8500 C   0  0  0  0  0  3  0  0  0  0  0  0
  -17.7420  -30.3070   24.0620 C   0  0  0  0  0  3  0  0  0  0  0  0
  -16.6090  -29.5860   23.6450 C   0  0  0  0  0  3  0  0  0  0  0  0
  -16.7650  -28.3420   23.0100 C   0  0  0  0  0  3  0  0  0  0  0  0
  -25.9890  -32.0400   23.7100 C   0  0  0  0  0  3  0  0  0  0  0  0
  -26.4980  -31.2310   24.9660 C   0  0  1  0  0  0  0  0  0  0  0  0
  -25.4090  -30.9920   26.0370 C   0  0  0  0  0  1  0  0  0  0  0  0
  -27.0540  -29.8510   24.5430 C   0  0  0  0  0  1  0  0  0  0  0  0
  -27.6710  -31.9870   25.6340 C   0  0  0  0  0  1  0  0  0  0  0  0
  -25.7100  -33.4370   24.0750 N   0  0  0  0  0  0  0  0  0  0  0  0
  -26.0780  -34.5010   23.3480 C   0  0  0  0  0  0  0  0  0  0  0  0
  -26.7590  -34.4080   22.3230 O   0  0  0  0  0  0  0  0  0  0  0  0
  -25.1090  -33.5810   24.8740 H   0  0  0  0  0  0  0  0  0  0  0  0
  -24.4040  -36.3480   23.0060 C   0  0  0  0  0  1  0  0  0  0  0  0
  -25.6150  -35.8890   23.8330 C   0  0  0  0  0  3  0  0  0  0  0  0
  -27.7470  -36.6970   24.7440 C   0  0  0  0  0  1  0  0  0  0  0  0
  -26.6780  -36.9150   23.7740 N   0  0  0  0  0  0  0  0  0  0  0  0
  -26.2900  -37.8410   23.9300 H   0  0  0  0  0  0  0  0  0  0  0  0
  1  5  1  0
  2 12  1  0
  2  1  2  0
  3  6  2  0
  3  2  1  0
  4  5  2  0
  4 14  1  0
  6  4  1  0
  7  3  1  0
  7 53  1  0
  8  7  1  0
  9 10  1  0
  9 12  1  0
 10 13  1  0
 12 11  1  0
 13 11  1  0
 15 23  1  0
 16 21  1  0
 17 18  1  0
 17 16  1  0
 19 18  1  0
 19 28  1  0
 19 20  1  0
 21 15  1  0
 21 20  1  0
 22 15  2  0
 23 14  1  0
 24 23  1  0
 25 26  2  0
 26 45  1  0
 27 26  1  0
 27 30  1  0
 28 25  1  0
 28 29  1  0
 29 27  2  0
 30 31  1  0
 31 32  2  0
 33 36  1  0
 33 32  1  0
 34 33  2  0
 35 34  1  0
 35 30  2  0
 36 37  1  0
 37 38  1  0
 38 39  2  0
 40 39  1  0
 40 44  1  0
 41 40  2  0
 42 37  2  0
 42 41  1  0
 43 42  1  0
 45 46  1  0
 46 49  1  0
 46 48  1  0
 47 45  2  0
 50 51  1  0
 50 25  1  0
 52 50  1  0
 54 56  1  0
 55 54  1  0
 55 56  1  0
 55 53  1  0
 56 57  1  0
 57 59  1  0
 58 69  2  0
 59 64  1  0
 60 68  1  0
 60 70  1  0
 61 67  1  0
 61 63  1  0
 62 68  1  0
 63 62  1  0
 64 63  2  0
 65 66  1  0
 65 59  2  0
 66 61  2  0
 67 60  1  0
 68 58  1  0
 70 72  2  0
 71 70  1  0
 73 71  1  0
 74 83  2  0
 74 79  1  0
 75 71  1  0
 75 79  1  0
 76 75  1  0
 77 78  1  0
 77 76  1  0
 78 74  1  0
 79 80  2  0
 80 81  1  0
 82 81  2  0
 83 82  1  0
 84 58  1  0
 84 89  1  0
 84 85  1  0
 85 88  1  1
 85 86  1  0
 87 85  1  0
 89 92  1  0
 90 94  1  0
 90 89  1  0
 91 90  2  0
 94 93  1  0
 96 94  1  0
 96 97  1  0
 96 95  1  0
M  ISO  4  15 100  23 100  56 101  57 101
M  END
>  <TORSDO>  (40) 
F 20

>  <SCORE>  (40) 
-12.292

>  <name>  (40) 
40

>  <ligand_id>  (40) 
40

>  <original_smiles>  (40) 
[H]c1nc(C([H])([H])N([H])C(=O)N2C([H])([H])C([H])([H])C([H])([H])C([H])(n3nc(-c4c([H])c([H])c(Oc5c([H])c([H])c(F)c([H])c5F)c([H])c4[H])c(C(=O)N([H])[H])c3N([H])[H])C2([H])[H])nc(N([H])C([H])([H])C2([H])C([H])([H])C2([H])Oc2c([H])c([H])c3c(c2[H])C([H])([H])N(C(=O)C([H])(N([H])C(=O)C([H])(N([H])C([H])([H])[H])C([H])([H])[H])C(C([H])([H])[H])(C([H])([H])[H])C([H])([H])[H])C([H])(C(=O)N([H])C2([H])c4c([H])c([H])c([H])c([H])c4C([H])([H])C([H])([H])C2([H])[H])C3([H])[H])c1N1C([H])([H])OC([H])([H])C1([H])[H]

>  <smiles>  (40) 
[H]c1nc(C([H])([H])N([H])C(=O)N2C([H])([H])C([H])([H])C([H])([H])C([H])(n3nc(-c4c([H])c([H])c(Oc5c([H])c([H])c(F)c([H])c5F)c([H])c4[H])c(C(=O)N([H])[H])c3N([H])[H])C2([H])[H])nc(N([H])C([H])([H])C2([H])C([H])([H])C2([H])Oc2c([H])c([H])c3c(c2[H])C([H])([H])N(C(=O)C([H])(N([H])C(=O)C([H])(N([H])C([H])([H])[H])C([H])([H])[H])C(C([H])([H])[H])(C([H])([H])[H])C([H])([H])[H])C([H])(C(=O)N([H])C2([H])c4c([H])c([H])c([H])c([H])c4C([H])([H])C([H])([H])C2([H])[H])C3([H])[H])c1N1C([H])([H])OC([H])([H])C1([H])[H]

$$$$
41:0:0
     RDKit          3D

 93102  0  0  1  0  0  0  0  0999 V2000
  -30.3560  -21.0560   21.8830 C   0  0  0  0  0  2  0  0  0  0  0  0
  -28.7220  -20.9000   20.0830 C   0  0  0  0  0  2  0  0  0  0  0  0
  -29.7370  -22.3960   22.3720 C   0  0  0  0  0  2  0  0  0  0  0  0
  -28.0260  -22.2090   20.5290 C   0  0  0  0  0  2  0  0  0  0  0  0
  -29.2910  -20.1020   21.2830 C   0  0  0  0  0  3  0  0  0  0  0  0
  -28.8450  -23.1050   21.4010 N   0  0  2  0  0  4  0  0  0  0  0  0
  -28.1490  -23.4920   22.0250 H   0  0  0  0  0  0  0  0  0  0  0  0
  -30.7690  -14.6360   20.1460 C   0  0  0  0  0  0  0  0  0  0  0  0
  -30.3880  -12.4750   18.9930 C   0  0  0  0  0  2  0  0  0  0  0  0
  -29.3970  -12.6440   17.8240 C   0  0  0  0  0  2  0  0  0  0  0  0
  -27.9520  -12.4470   18.3200 C   0  0  0  0  0  2  0  0  0  0  0  0
  -27.6470  -13.2880   19.5830 C   0  0  0  0  0  3  0  0  0  0  0  0
  -28.7610  -13.1380   20.6520 C   0  0  0  0  0  2  0  0  0  0  0  0
  -30.0440  -13.4790   20.0210 N   0  0  0  0  0  0  0  0  0  0  0  0
  -31.8960  -14.7180   19.6490 O   0  0  0  0  0  0  0  0  0  0  0  0
  -28.9730  -16.3230   20.3190 C   0  0  0  0  0  2  0  0  0  0  0  0
  -31.1990  -16.6720   21.4340 C   0  0  0  0  0  2  0  0  0  0  0  0
  -28.6110  -17.7760   20.7260 C   0  0  0  0  0  2  0  0  0  0  0  0
  -30.6700  -18.0560   21.8970 C   0  0  0  0  0  2  0  0  0  0  0  0
  -30.2420  -15.7290   20.7950 N   0  0  0  0  0  0  0  0  0  0  0  0
  -29.7570  -18.7020   20.9200 N   0  0  2  0  0  4  0  0  0  0  0  0
  -30.2600  -18.7660   20.0480 H   0  0  0  0  0  0  0  0  0  0  0  0
  -25.2920  -13.8770   20.4290 C   0  0  0  0  0  0  0  0  0  0  0  0
  -24.2470  -13.0950   20.8390 C   0  0  0  0  0  0  0  0  0  0  0  0
  -24.7110  -11.7460   20.7580 C   0  0  0  0  0  0  0  0  0  0  0  0
  -26.3240  -13.0030   20.1270 N   0  0  0  0  0  0  0  0  0  0  0  0
  -25.9840  -11.7160   20.3870 N   0  0  0  0  0  0  0  0  0  0  0  0
  -24.0010  -10.4780   20.9530 C   0  0  0  0  0  0  0  0  0  0  0  0
  -24.4510   -9.5170   21.8830 C   0  0  0  0  0  3  0  0  0  0  0  0
  -23.7420   -8.3100   22.0640 C   0  0  0  0  0  3  0  0  0  0  0  0
  -22.5690   -8.0580   21.3140 C   0  0  0  0  0  0  0  0  0  0  0  0
  -22.1390   -9.0080   20.3730 C   0  0  0  0  0  3  0  0  0  0  0  0
  -22.8480  -10.2070   20.1900 C   0  0  0  0  0  3  0  0  0  0  0  0
  -21.8290   -6.9040   21.4070 O   0  0  0  0  0  0  0  0  0  0  0  0
  -21.7490   -6.1920   22.5770 C   0  0  0  0  0  0  0  0  0  0  0  0
  -21.2530   -6.7680   23.7670 C   0  0  0  0  0  3  0  0  0  0  0  0
  -21.1240   -5.9800   24.9280 C   0  0  0  0  0  3  0  0  0  0  0  0
  -21.4810   -4.6190   24.9000 C   0  0  0  0  0  0  0  0  0  0  0  0
  -21.9700   -4.0440   23.7140 C   0  0  0  0  0  3  0  0  0  0  0  0
  -22.1010   -4.8280   22.5550 C   0  0  0  0  0  0  0  0  0  0  0  0
  -22.5540   -4.2630   21.4090 F   0  0  0  0  0  0  0  0  0  0  0  0
  -21.3480   -3.8610   26.0140 F   0  0  0  0  0  0  0  0  0  0  0  0
  -22.8620  -13.5620   21.1830 C   0  0  0  0  0  0  0  0  0  0  0  0
  -22.1740  -12.8400   22.0600 N   0  0  0  0  0  0  0  0  0  0  0  0
  -22.4020  -14.6000   20.7100 O   0  0  0  0  0  0  0  0  0  0  0  0
  -22.5590  -12.0000   22.4640 H   0  0  0  0  0  0  0  0  0  0  0  0
  -21.2470  -13.1370   22.3330 H   0  0  0  0  0  0  0  0  0  0  0  0
  -25.4350  -15.2500   20.2580 N   0  0  0  0  0  0  0  0  0  0  0  0
  -24.6380  -15.8690   20.3590 H   0  0  0  0  0  0  0  0  0  0  0  0
  -26.1910  -15.6660   19.7320 H   0  0  0  0  0  0  0  0  0  0  0  0
  -29.3850  -24.3650   20.7790 C   0  0  0  0  0  2  0  0  0  0  0  0
  -28.2620  -25.2740   20.1980 C   0  0  0  0  0  2  0  0  0  0  0  0
  -28.4840  -26.7070   20.2190 O   0  0  0  0  0  0  0  0  0  0  0  0
  -24.6420  -31.9110   23.2330 C   0  0  0  0  0  0  0  0  0  0  0  0
  -27.3320  -27.4810   20.1540 C   0  0  0  0  0  0  0  0  0  0  0  0
  -23.4570  -30.5080   21.5800 C   0  0  0  0  0  3  0  0  0  0  0  0
  -24.9300  -28.9960   20.1510 C   0  0  0  0  0  0  0  0  0  0  0  0
  -25.9840  -30.8850   21.3960 C   0  0  0  0  0  2  0  0  0  0  0  0
  -26.0850  -29.5170   20.7470 C   0  0  0  0  0  0  0  0  0  0  0  0
  -27.2890  -28.7710   20.7430 C   0  0  0  0  0  3  0  0  0  0  0  0
  -26.1560  -26.9950   19.5310 C   0  0  0  0  0  3  0  0  0  0  0  0
  -24.9630  -27.7370   19.5360 C   0  0  0  0  0  3  0  0  0  0  0  0
  -23.6790  -29.8450   20.1970 C   0  0  0  0  0  2  0  0  0  0  0  0
  -24.7120  -31.1160   22.1280 N   0  0  0  0  0  0  0  0  0  0  0  0
  -23.5560  -32.1710   23.7690 O   0  0  0  0  0  0  0  0  0  0  0  0
  -22.8090  -29.4740   22.5300 C   0  0  0  0  0  0  0  0  0  0  0  0
  -21.4860  -29.2850   22.4020 N   0  0  0  0  0  0  0  0  0  0  0  0
  -23.4970  -28.8460   23.3400 O   0  0  0  0  0  0  0  0  0  0  0  0
  -20.9930  -29.8450   21.7200 H   0  0  0  0  0  0  0  0  0  0  0  0
  -18.1130  -28.0930   22.9130 C   0  0  0  0  0  0  0  0  0  0  0  0
  -20.6740  -28.3380   23.1660 C   0  0  0  0  0  3  0  0  0  0  0  0
  -20.7670  -26.9160   22.5680 C   0  0  0  0  0  2  0  0  0  0  0  0
  -19.6540  -26.6120   21.5580 C   0  0  0  0  0  2  0  0  0  0  0  0
  -18.2790  -26.7520   22.2170 C   0  0  0  0  0  2  0  0  0  0  0  0
  -19.2380  -28.8440   23.3450 C   0  0  0  0  0  0  0  0  0  0  0  0
  -19.0290  -30.0990   23.9560 C   0  0  0  0  0  3  0  0  0  0  0  0
  -17.7280  -30.6030   24.1410 C   0  0  0  0  0  3  0  0  0  0  0  0
  -16.6170  -29.8480   23.7260 C   0  0  0  0  0  3  0  0  0  0  0  0
  -16.8100  -28.5960   23.1170 C   0  0  0  0  0  3  0  0  0  0  0  0
  -25.9190  -32.5530   23.8600 C   0  0  0  0  0  3  0  0  0  0  0  0
  -25.5990  -33.9480   24.1860 N   0  0  0  0  0  0  0  0  0  0  0  0
  -25.9250  -35.0010   23.4240 C   0  0  0  0  0  0  0  0  0  0  0  0
  -26.5980  -34.8990   22.3940 O   0  0  0  0  0  0  0  0  0  0  0  0
  -25.0010  -34.1000   24.9850 H   0  0  0  0  0  0  0  0  0  0  0  0
  -24.1860  -36.7780   23.0520 C   0  0  0  0  0  1  0  0  0  0  0  0
  -25.4230  -36.3860   23.8750 C   0  0  0  0  0  3  0  0  0  0  0  0
  -27.5430  -37.2890   24.7230 C   0  0  0  0  0  1  0  0  0  0  0  0
  -26.4490  -37.4460   23.7680 N   0  0  0  0  0  0  0  0  0  0  0  0
  -26.0350  -38.3630   23.9080 H   0  0  0  0  0  0  0  0  0  0  0  0
  -26.4350  -31.7840   25.1380 C   0  0  1  0  0  0  0  0  0  0  0  0
  -25.3370  -31.5330   26.1980 C   0  0  0  0  0  1  0  0  0  0  0  0
  -27.0350  -30.4130   24.7460 C   0  0  0  0  0  1  0  0  0  0  0  0
  -27.5740  -32.5890   25.8090 C   0  0  0  0  0  1  0  0  0  0  0  0
  1  3  1  0
  2  4  1  0
  4  6  1  0
  5  2  1  0
  5  1  1  0
  6  7  1  1
  6  3  1  0
  8 20  1  0
  9 14  1  0
 10 11  1  0
 10  9  1  0
 12 11  1  0
 12 26  1  0
 12 13  1  0
 14  8  1  0
 14 13  1  0
 15  8  2  0
 16 18  1  0
 16 20  1  0
 17 19  1  0
 18 21  1  0
 20 17  1  0
 21 22  1  6
 21  5  1  0
 21 19  1  0
 23 24  2  0
 24 43  1  0
 25 24  1  0
 25 28  1  0
 26 27  1  0
 26 23  1  0
 27 25  2  0
 28 29  1  0
 29 30  2  0
 31 34  1  0
 31 30  1  0
 32 31  2  0
 33 32  1  0
 33 28  2  0
 34 35  1  0
 35 36  1  0
 36 37  2  0
 38 37  1  0
 38 42  1  0
 39 38  2  0
 40 35  2  0
 40 39  1  0
 41 40  1  0
 43 44  1  0
 44 47  1  0
 44 46  1  0
 45 43  2  0
 48 49  1  0
 48 23  1  0
 50 48  1  0
 51  6  1  0
 52 53  1  0
 52 51  1  0
 54 65  2  0
 55 53  1  0
 55 60  1  0
 56 64  1  0
 56 66  1  0
 57 63  1  0
 57 59  1  0
 58 64  1  0
 59 58  1  0
 60 59  2  0
 61 62  1  0
 61 55  2  0
 62 57  2  0
 63 56  1  0
 64 54  1  0
 66 68  2  0
 67 66  1  0
 69 67  1  0
 70 79  2  0
 70 75  1  0
 71 67  1  0
 71 75  1  0
 72 71  1  0
 73 74  1  0
 73 72  1  0
 74 70  1  0
 75 76  2  0
 76 77  1  0
 78 77  2  0
 79 78  1  0
 80 54  1  0
 80 81  1  0
 80 90  1  0
 81 84  1  0
 82 86  1  0
 82 81  1  0
 83 82  2  0
 86 85  1  0
 88 86  1  0
 88 89  1  0
 88 87  1  0
 90 93  1  1
 90 91  1  0
 92 90  1  0
M  ISO  4   8 100  20 100  52 101  53 101
M  END
>  <TORSDO>  (41) 
F 18

>  <SCORE>  (41) 
-14.832

>  <name>  (41) 
41

>  <ligand_id>  (41) 
41

>  <original_smiles>  (41) 
[H]c1c([H])c([H])c2c(c1[H])C([H])([H])C([H])([H])C([H])([H])C2([H])N([H])C(=O)C1([H])N(C(=O)C([H])(N([H])C(=O)C([H])(N([H])C([H])([H])[H])C([H])([H])[H])C(C([H])([H])[H])(C([H])([H])[H])C([H])([H])[H])C([H])([H])c2c([H])c(OC([H])([H])C([H])([H])[N+]3([H])C([H])([H])C([H])([H])C([H])([N+]4([H])C([H])([H])C([H])([H])N(C(=O)N5C([H])([H])C([H])([H])C([H])([H])C([H])(n6nc(-c7c([H])c([H])c(Oc8c([H])c([H])c(F)c([H])c8F)c([H])c7[H])c(C(=O)N([H])[H])c6N([H])[H])C5([H])[H])C([H])([H])C4([H])[H])C([H])([H])C3([H])[H])c([H])c([H])c2C1([H])[H]

>  <smiles>  (41) 
[H]c1c([H])c([H])c2c(c1[H])C([H])([H])C([H])([H])C([H])([H])C2([H])N([H])C(=O)C1([H])N(C(=O)C([H])(N([H])C(=O)C([H])(N([H])C([H])([H])[H])C([H])([H])[H])C(C([H])([H])[H])(C([H])([H])[H])C([H])([H])[H])C([H])([H])c2c([H])c(OC([H])([H])C([H])([H])[N+]3([H])C([H])([H])C([H])([H])C([H])([N+]4([H])C([H])([H])C([H])([H])N(C(=O)N5C([H])([H])C([H])([H])C([H])([H])C([H])(n6nc(-c7c([H])c([H])c(Oc8c([H])c([H])c(F)c([H])c8F)c([H])c7[H])c(C(=O)N([H])[H])c6N([H])[H])C5([H])[H])C([H])([H])C4([H])[H])C([H])([H])C3([H])[H])c([H])c([H])c2C1([H])[H]

$$$$
42:0:0
     RDKit          3D

104113  0  0  1  0  0  0  0  0999 V2000
  -30.7090  -14.5360   20.4630 C   0  0  0  0  0  0  0  0  0  0  0  0
  -30.3740  -12.3630   19.3620 C   0  0  0  0  0  2  0  0  0  0  0  0
  -29.4370  -12.5600   18.1540 C   0  0  0  0  0  2  0  0  0  0  0  0
  -27.9620  -12.4370   18.5850 C   0  0  0  0  0  2  0  0  0  0  0  0
  -27.6200  -13.2700   19.8500 C   0  0  0  0  0  3  0  0  0  0  0  0
  -28.6870  -13.1010   20.9540 C   0  0  0  0  0  2  0  0  0  0  0  0
  -30.0060  -13.3730   20.3630 N   0  0  0  0  0  0  0  0  0  0  0  0
  -31.9000  -14.6170   20.1490 O   0  0  0  0  0  0  0  0  0  0  0  0
  -29.8410  -20.6760   17.7910 C   0  0  0  0  0  3  0  0  0  0  0  0
  -30.0770  -21.9040   18.4280 C   0  0  0  0  0  0  0  0  0  0  0  0
  -29.9920  -21.8860   19.8470 C   0  0  0  0  0  0  0  0  0  0  0  0
  -29.4270  -19.6420   19.7810 C   0  0  0  0  0  0  0  0  0  0  0  0
  -29.6660  -18.0080   21.6920 C   0  0  0  0  0  2  0  0  0  0  0  0
  -28.4230  -17.3560   19.7220 C   0  0  0  0  0  2  0  0  0  0  0  0
  -30.5690  -16.7440   21.5090 C   0  0  0  0  0  2  0  0  0  0  0  0
  -29.4750  -16.2800   19.4110 C   0  0  0  0  0  2  0  0  0  0  0  0
  -29.5090  -19.5670   18.4650 N   0  0  0  0  0  0  0  0  0  0  0  0
  -29.6450  -20.7420   20.4990 N   0  0  0  0  0  0  0  0  0  0  0  0
  -29.0620  -18.4580   20.4360 N   0  0  0  0  0  0  0  0  0  0  0  0
  -29.9900  -15.6760   20.6540 N   0  0  0  0  0  0  0  0  0  0  0  0
  -25.2400  -13.8970   20.5690 C   0  0  0  0  0  0  0  0  0  0  0  0
  -24.1660  -13.1350   20.9320 C   0  0  0  0  0  0  0  0  0  0  0  0
  -24.6160  -11.7800   20.8950 C   0  0  0  0  0  0  0  0  0  0  0  0
  -26.2750  -13.0050   20.3360 N   0  0  0  0  0  0  0  0  0  0  0  0
  -25.9070  -11.7260   20.5920 N   0  0  0  0  0  0  0  0  0  0  0  0
  -23.8800  -10.5250   21.0720 C   0  0  0  0  0  0  0  0  0  0  0  0
  -24.3040   -9.5520   22.0030 C   0  0  0  0  0  3  0  0  0  0  0  0
  -23.5710   -8.3590   22.1720 C   0  0  0  0  0  3  0  0  0  0  0  0
  -22.4000   -8.1310   21.4100 C   0  0  0  0  0  0  0  0  0  0  0  0
  -21.9960   -9.0940   20.4690 C   0  0  0  0  0  3  0  0  0  0  0  0
  -22.7290  -10.2800   20.2980 C   0  0  0  0  0  3  0  0  0  0  0  0
  -21.6370   -6.9930   21.4910 O   0  0  0  0  0  0  0  0  0  0  0  0
  -21.5660   -6.2520   22.6440 C   0  0  0  0  0  0  0  0  0  0  0  0
  -21.1140   -6.8080   23.8610 C   0  0  0  0  0  3  0  0  0  0  0  0
  -20.9960   -5.9950   25.0060 C   0  0  0  0  0  3  0  0  0  0  0  0
  -21.3150   -4.6250   24.9320 C   0  0  0  0  0  0  0  0  0  0  0  0
  -21.7580   -4.0690   23.7190 C   0  0  0  0  0  3  0  0  0  0  0  0
  -21.8810   -4.8800   22.5780 C   0  0  0  0  0  0  0  0  0  0  0  0
  -22.2880   -4.3360   21.4060 F   0  0  0  0  0  0  0  0  0  0  0  0
  -21.1910   -3.8400   26.0270 F   0  0  0  0  0  0  0  0  0  0  0  0
  -22.7730  -13.6250   21.2000 C   0  0  0  0  0  0  0  0  0  0  0  0
  -22.0350  -12.9320   22.0590 N   0  0  0  0  0  0  0  0  0  0  0  0
  -22.3490  -14.6570   20.6830 O   0  0  0  0  0  0  0  0  0  0  0  0
  -22.3920  -12.0990   22.5030 H   0  0  0  0  0  0  0  0  0  0  0  0
  -21.0970  -13.2380   22.2760 H   0  0  0  0  0  0  0  0  0  0  0  0
  -25.4120  -15.2670   20.3970 N   0  0  0  0  0  0  0  0  0  0  0  0
  -24.6510  -15.9240   20.5200 H   0  0  0  0  0  0  0  0  0  0  0  0
  -26.2690  -15.7020   20.0820 H   0  0  0  0  0  0  0  0  0  0  0  0
  -30.5350  -23.0980   17.5660 C   0  0  0  0  0  2  0  0  0  0  0  0
  -29.4810  -23.7030   16.7060 N   0  0  0  0  0  4  0  0  0  0  0  0
  -28.7820  -24.1820   17.2490 H   0  0  0  0  0  0  0  0  0  0  0  0
  -29.0030  -22.9710   16.2040 H   0  0  0  0  0  0  0  0  0  0  0  0
  -29.9850  -24.6240   15.6570 C   0  0  0  0  0  2  0  0  0  0  0  0
  -30.6790  -25.9020   16.1930 C   0  0  0  0  0  2  0  0  0  0  0  0
  -28.6590  -27.4850   16.1600 C   0  0  0  0  0  1  0  0  0  0  0  0
  -30.6250  -27.9770   17.6530 C   0  0  0  0  0  1  0  0  0  0  0  0
  -29.7840  -26.8650   17.0050 C   0  0  0  0  0  3  0  0  0  0  0  0
  -30.3120  -23.1020   20.7390 C   0  0  0  0  0  2  0  0  0  0  0  0
  -29.1310  -23.9700   20.9870 N   0  0  0  0  0  4  0  0  0  0  0  0
  -28.4280  -23.3430   21.3480 H   0  0  0  0  0  0  0  0  0  0  0  0
  -28.7710  -24.3390   20.1250 H   0  0  0  0  0  0  0  0  0  0  0  0
  -29.2950  -25.0840   21.9730 C   0  0  0  0  0  2  0  0  0  0  0  0
  -29.4580  -26.4910   21.3450 C   0  0  0  0  0  2  0  0  0  0  0  0
  -28.5670  -26.6290   20.2410 O   0  0  0  0  0  0  0  0  0  0  0  0
  -24.6530  -31.8720   23.2570 C   0  0  0  0  0  0  0  0  0  0  0  0
  -27.4320  -27.4100   20.3270 C   0  0  0  0  0  0  0  0  0  0  0  0
  -23.5110  -30.4350   21.6000 C   0  0  0  0  0  3  0  0  0  0  0  0
  -25.0240  -28.8910   20.2460 C   0  0  0  0  0  0  0  0  0  0  0  0
  -26.0380  -30.8120   21.4760 C   0  0  0  0  0  2  0  0  0  0  0  0
  -26.1590  -29.4300   20.8690 C   0  0  0  0  0  0  0  0  0  0  0  0
  -27.3700  -28.6980   20.9140 C   0  0  0  0  0  3  0  0  0  0  0  0
  -26.2860  -26.8930   19.6940 C   0  0  0  0  0  3  0  0  0  0  0  0
  -25.0790  -27.6170   19.6560 C   0  0  0  0  0  3  0  0  0  0  0  0
  -23.7710  -29.7400   20.2380 C   0  0  0  0  0  2  0  0  0  0  0  0
  -24.7500  -31.0560   22.1700 N   0  0  0  0  0  0  0  0  0  0  0  0
  -23.5540  -32.1410   23.7610 O   0  0  0  0  0  0  0  0  0  0  0  0
  -22.8380  -29.4190   22.5520 C   0  0  0  0  0  0  0  0  0  0  0  0
  -21.5150  -29.2480   22.4100 N   0  0  0  0  0  0  0  0  0  0  0  0
  -23.5070  -28.7890   23.3760 O   0  0  0  0  0  0  0  0  0  0  0  0
  -21.0370  -29.8110   21.7180 H   0  0  0  0  0  0  0  0  0  0  0  0
  -18.1150  -28.1250   22.8990 C   0  0  0  0  0  0  0  0  0  0  0  0
  -20.6790  -28.3200   23.1700 C   0  0  0  0  0  3  0  0  0  0  0  0
  -20.7470  -26.8950   22.5750 C   0  0  0  0  0  2  0  0  0  0  0  0
  -19.6360  -26.6100   21.5580 C   0  0  0  0  0  2  0  0  0  0  0  0
  -18.2610  -26.7800   22.2080 C   0  0  0  0  0  2  0  0  0  0  0  0
  -19.2530  -28.8550   23.3370 C   0  0  0  0  0  0  0  0  0  0  0  0
  -19.0640  -30.1160   23.9420 C   0  0  0  0  0  3  0  0  0  0  0  0
  -17.7720  -30.6460   24.1170 C   0  0  0  0  0  3  0  0  0  0  0  0
  -16.6480  -29.9110   23.6970 C   0  0  0  0  0  3  0  0  0  0  0  0
  -16.8230  -28.6520   23.0940 C   0  0  0  0  0  3  0  0  0  0  0  0
  -25.9140  -32.5210   23.9080 C   0  0  0  0  0  3  0  0  0  0  0  0
  -25.5880  -33.9190   24.2110 N   0  0  0  0  0  0  0  0  0  0  0  0
  -25.9270  -34.9630   23.4420 C   0  0  0  0  0  0  0  0  0  0  0  0
  -26.6200  -34.8510   22.4270 O   0  0  0  0  0  0  0  0  0  0  0  0
  -24.9750  -34.0820   24.9960 H   0  0  0  0  0  0  0  0  0  0  0  0
  -24.1920  -36.7310   23.0160 C   0  0  0  0  0  1  0  0  0  0  0  0
  -25.4150  -36.3520   23.8660 C   0  0  0  0  0  3  0  0  0  0  0  0
  -27.5170  -37.2710   24.7430 C   0  0  0  0  0  1  0  0  0  0  0  0
  -26.4410  -37.4130   23.7640 N   0  0  0  0  0  0  0  0  0  0  0  0
  -26.0240  -38.3330   23.8840 H   0  0  0  0  0  0  0  0  0  0  0  0
  -26.4030  -31.7650   25.2040 C   0  0  1  0  0  0  0  0  0  0  0  0
  -25.2840  -31.5270   26.2430 C   0  0  0  0  0  1  0  0  0  0  0  0
  -27.0100  -30.3910   24.8380 C   0  0  0  0  0  1  0  0  0  0  0  0
  -27.5270  -32.5770   25.8910 C   0  0  0  0  0  1  0  0  0  0  0  0
  1 20  1  0
  2  7  1  0
  3  4  1  0
  3  2  1  0
  5  4  1  0
  5 24  1  0
  5  6  1  0
  7  1  1  0
  7  6  1  0
  8  1  2  0
  9 10  2  0
  9 17  1  0
 10 11  1  0
 11 18  2  0
 11 58  1  0
 12 19  1  0
 12 18  1  0
 14 19  1  0
 15 13  1  0
 16 14  1  0
 16 20  1  0
 17 12  2  0
 19 13  1  0
 20 15  1  0
 21 22  2  0
 22 41  1  0
 23 22  1  0
 23 26  1  0
 24 21  1  0
 24 25  1  0
 25 23  2  0
 26 27  1  0
 27 28  2  0
 29 32  1  0
 29 28  1  0
 30 29  2  0
 31 30  1  0
 31 26  2  0
 32 33  1  0
 33 34  1  0
 34 35  2  0
 36 35  1  0
 36 40  1  0
 37 36  2  0
 38 33  2  0
 38 37  1  0
 39 38  1  0
 41 42  1  0
 42 45  1  0
 42 44  1  0
 43 41  2  0
 46 47  1  0
 46 21  1  0
 48 46  1  0
 49 10  1  0
 50 51  1  0
 50 49  1  0
 52 50  1  0
 53 54  1  0
 53 50  1  0
 54 57  1  0
 55 57  1  0
 57 56  1  0
 58 59  1  0
 59 60  1  0
 59 62  1  0
 61 59  1  0
 63 62  1  0
 64 66  1  0
 64 63  1  0
 65 76  2  0
 66 71  1  0
 67 75  1  0
 67 77  1  0
 68 70  1  0
 69 75  1  0
 70 71  2  0
 70 69  1  0
 72 66  2  0
 73 72  1  0
 73 68  2  0
 74 68  1  0
 74 67  1  0
 75 65  1  0
 77 79  2  0
 78 77  1  0
 80 78  1  0
 81 90  2  0
 81 86  1  0
 82 78  1  0
 82 86  1  0
 83 82  1  0
 84 85  1  0
 84 83  1  0
 85 81  1  0
 86 87  2  0
 87 88  1  0
 89 88  2  0
 90 89  1  0
 91 65  1  0
 91 92  1  0
 91101  1  0
 92 95  1  0
 93 97  1  0
 93 92  1  0
 94 93  2  0
 97 96  1  0
 99 97  1  0
 99100  1  0
 99 98  1  0
101104  1  1
101102  1  0
103101  1  0
M  ISO  4   1 100  20 100  63 101  64 101
M  END
>  <TORSDO>  (42) 
F 24

>  <SCORE>  (42) 
-12.804

>  <name>  (42) 
42

>  <ligand_id>  (42) 
42

>  <original_smiles>  (42) 
[H]c1nc(N2C([H])([H])C([H])([H])N(C(=O)N3C([H])([H])C([H])([H])C([H])([H])C([H])(n4nc(-c5c([H])c([H])c(Oc6c([H])c([H])c(F)c([H])c6F)c([H])c5[H])c(C(=O)N([H])[H])c4N([H])[H])C3([H])[H])C([H])([H])C2([H])[H])nc(C([H])([H])[N+]([H])([H])C([H])([H])C([H])([H])Oc2c([H])c([H])c3c(c2[H])C([H])([H])N(C(=O)C([H])(N([H])C(=O)C([H])(N([H])C([H])([H])[H])C([H])([H])[H])C(C([H])([H])[H])(C([H])([H])[H])C([H])([H])[H])C([H])(C(=O)N([H])C2([H])c4c([H])c([H])c([H])c([H])c4C([H])([H])C([H])([H])C2([H])[H])C3([H])[H])c1C([H])([H])[N+]([H])([H])C([H])([H])C([H])([H])C([H])(C([H])([H])[H])C([H])([H])[H]

>  <smiles>  (42) 
[H]c1nc(N2C([H])([H])C([H])([H])N(C(=O)N3C([H])([H])C([H])([H])C([H])([H])C([H])(n4nc(-c5c([H])c([H])c(Oc6c([H])c([H])c(F)c([H])c6F)c([H])c5[H])c(C(=O)N([H])[H])c4N([H])[H])C3([H])[H])C([H])([H])C2([H])[H])nc(C([H])([H])[N+]([H])([H])C([H])([H])C([H])([H])Oc2c([H])c([H])c3c(c2[H])C([H])([H])N(C(=O)C([H])(N([H])C(=O)C([H])(N([H])C([H])([H])[H])C([H])([H])[H])C(C([H])([H])[H])(C([H])([H])[H])C([H])([H])[H])C([H])(C(=O)N([H])C2([H])c4c([H])c([H])c([H])c([H])c4C([H])([H])C([H])([H])C2([H])[H])C3([H])[H])c1C([H])([H])[N+]([H])([H])C([H])([H])C([H])([H])C([H])(C([H])([H])[H])C([H])([H])[H]

$$$$
43:0:0
     RDKit          3D

 92102  0  0  1  0  0  0  0  0999 V2000
  -29.9350  -20.6510   19.2920 C   0  0  0  0  0  3  0  0  0  0  0  0
  -29.0510  -20.8810   21.4690 C   0  0  0  0  0  3  0  0  0  0  0  0
  -29.4730  -19.9880   20.4500 C   0  0  0  0  0  0  0  0  0  0  0  0
  -29.4630  -22.7260   20.1470 C   0  0  0  0  0  0  0  0  0  0  0  0
  -29.9280  -21.9900   19.1430 N   0  0  0  0  0  0  0  0  0  0  0  0
  -29.0460  -22.2320   21.3140 N   0  0  0  0  0  0  0  0  0  0  0  0
  -30.7470  -14.5600   20.0590 C   0  0  0  0  0  0  0  0  0  0  0  0
  -30.3790  -12.3950   18.9320 C   0  0  0  0  0  2  0  0  0  0  0  0
  -29.3780  -12.5930   17.7750 C   0  0  0  0  0  2  0  0  0  0  0  0
  -27.9310  -12.4530   18.2860 C   0  0  0  0  0  2  0  0  0  0  0  0
  -27.6590  -13.2720   19.5770 C   0  0  0  0  0  3  0  0  0  0  0  0
  -28.7770  -13.0850   20.6260 C   0  0  0  0  0  2  0  0  0  0  0  0
  -30.0520  -13.3890   19.9670 N   0  0  0  0  0  0  0  0  0  0  0  0
  -31.9020  -14.6600   19.6330 O   0  0  0  0  0  0  0  0  0  0  0  0
  -28.9590  -17.7840   19.3890 C   0  0  0  0  0  2  0  0  0  0  0  0
  -29.5220  -17.7800   21.7600 C   0  0  0  0  0  2  0  0  0  0  0  0
  -29.9090  -16.6020   19.1430 C   0  0  0  0  0  2  0  0  0  0  0  0
  -30.3390  -16.4590   21.5410 C   0  0  0  0  0  2  0  0  0  0  0  0
  -29.4380  -18.5620   20.5250 N   0  0  0  0  0  0  0  0  0  0  0  0
  -30.0260  -15.6920   20.3080 N   0  0  0  0  0  0  0  0  0  0  0  0
  -25.3170  -13.8560   20.4550 C   0  0  0  0  0  0  0  0  0  0  0  0
  -24.2680  -13.0750   20.8610 C   0  0  0  0  0  0  0  0  0  0  0  0
  -24.7180  -11.7240   20.7570 C   0  0  0  0  0  0  0  0  0  0  0  0
  -26.3400  -12.9790   20.1310 N   0  0  0  0  0  0  0  0  0  0  0  0
  -25.9880  -11.6900   20.3710 N   0  0  0  0  0  0  0  0  0  0  0  0
  -23.9970  -10.4590   20.9520 C   0  0  0  0  0  0  0  0  0  0  0  0
  -24.4450   -9.4870   21.8750 C   0  0  0  0  0  3  0  0  0  0  0  0
  -23.7260   -8.2840   22.0540 C   0  0  0  0  0  3  0  0  0  0  0  0
  -22.5450   -8.0470   21.3120 C   0  0  0  0  0  0  0  0  0  0  0  0
  -22.1150   -9.0090   20.3810 C   0  0  0  0  0  3  0  0  0  0  0  0
  -22.8330  -10.2020   20.2000 C   0  0  0  0  0  3  0  0  0  0  0  0
  -21.7930   -6.9010   21.4050 O   0  0  0  0  0  0  0  0  0  0  0  0
  -21.7100   -6.1880   22.5720 C   0  0  0  0  0  0  0  0  0  0  0  0
  -21.2290   -6.7690   23.7680 C   0  0  0  0  0  3  0  0  0  0  0  0
  -21.0940   -5.9790   24.9280 C   0  0  0  0  0  3  0  0  0  0  0  0
  -21.4280   -4.6120   24.8920 C   0  0  0  0  0  0  0  0  0  0  0  0
  -21.8980   -4.0330   23.7020 C   0  0  0  0  0  3  0  0  0  0  0  0
  -22.0390   -4.8180   22.5450 C   0  0  0  0  0  0  0  0  0  0  0  0
  -22.4750   -4.2480   21.3950 F   0  0  0  0  0  0  0  0  0  0  0  0
  -21.2890   -3.8540   26.0050 F   0  0  0  0  0  0  0  0  0  0  0  0
  -22.8930  -13.5510   21.2310 C   0  0  0  0  0  0  0  0  0  0  0  0
  -22.2160  -12.8360   22.1220 N   0  0  0  0  0  0  0  0  0  0  0  0
  -22.4280  -14.5910   20.7660 O   0  0  0  0  0  0  0  0  0  0  0  0
  -22.6070  -11.9950   22.5200 H   0  0  0  0  0  0  0  0  0  0  0  0
  -21.2970  -13.1380   22.4130 H   0  0  0  0  0  0  0  0  0  0  0  0
  -25.4830  -15.2290   20.3130 N   0  0  0  0  0  0  0  0  0  0  0  0
  -24.7340  -15.8860   20.5050 H   0  0  0  0  0  0  0  0  0  0  0  0
  -26.3340  -15.6740   19.9940 H   0  0  0  0  0  0  0  0  0  0  0  0
  -28.5770  -24.7000   18.7360 C   0  0  0  0  0  2  0  0  0  0  0  0
  -29.4450  -24.2340   19.8970 C   0  0  0  0  0  3  0  0  0  0  0  0
  -28.2550  -25.1810   20.1250 C   0  0  0  0  0  3  0  0  0  0  0  0
  -28.4670  -26.6160   20.2350 O   0  0  0  0  0  0  0  0  0  0  0  0
  -24.6890  -31.8770   23.2770 C   0  0  0  0  0  0  0  0  0  0  0  0
  -27.3220  -27.4020   20.1940 C   0  0  0  0  0  0  0  0  0  0  0  0
  -23.4860  -30.4850   21.6310 C   0  0  0  0  0  3  0  0  0  0  0  0
  -24.9390  -28.9500   20.1980 C   0  0  0  0  0  0  0  0  0  0  0  0
  -26.0180  -30.8280   21.4420 C   0  0  0  0  0  2  0  0  0  0  0  0
  -26.1010  -29.4550   20.7970 C   0  0  0  0  0  0  0  0  0  0  0  0
  -27.2940  -28.6890   20.7900 C   0  0  0  0  0  3  0  0  0  0  0  0
  -26.1420  -26.9320   19.5690 C   0  0  0  0  0  3  0  0  0  0  0  0
  -24.9600  -27.6930   19.5730 C   0  0  0  0  0  3  0  0  0  0  0  0
  -23.6980  -29.8140   20.2460 C   0  0  0  0  0  2  0  0  0  0  0  0
  -24.7500  -31.0780   22.1760 N   0  0  0  0  0  0  0  0  0  0  0  0
  -23.6060  -32.1500   23.8150 O   0  0  0  0  0  0  0  0  0  0  0  0
  -22.8280  -29.4620   22.5850 C   0  0  0  0  0  0  0  0  0  0  0  0
  -21.5030  -29.2790   22.4500 N   0  0  0  0  0  0  0  0  0  0  0  0
  -23.5070  -28.8360   23.4040 O   0  0  0  0  0  0  0  0  0  0  0  0
  -21.0170  -29.8320   21.7600 H   0  0  0  0  0  0  0  0  0  0  0  0
  -18.1270  -28.0760   22.9260 C   0  0  0  0  0  0  0  0  0  0  0  0
  -20.6820  -28.3410   23.2170 C   0  0  0  0  0  3  0  0  0  0  0  0
  -20.7910  -26.9090   22.6410 C   0  0  0  0  0  2  0  0  0  0  0  0
  -19.6970  -26.5840   21.6210 C   0  0  0  0  0  2  0  0  0  0  0  0
  -18.3090  -26.7280   22.2520 C   0  0  0  0  0  2  0  0  0  0  0  0
  -19.2410  -28.8400   23.3650 C   0  0  0  0  0  0  0  0  0  0  0  0
  -19.0150  -30.1050   23.9520 C   0  0  0  0  0  3  0  0  0  0  0  0
  -17.7060  -30.6030   24.1100 C   0  0  0  0  0  3  0  0  0  0  0  0
  -16.6080  -29.8350   23.6870 C   0  0  0  0  0  3  0  0  0  0  0  0
  -16.8190  -28.5760   23.1000 C   0  0  0  0  0  3  0  0  0  0  0  0
  -25.9750  -32.5060   23.9000 C   0  0  0  0  0  3  0  0  0  0  0  0
  -25.6690  -33.9050   24.2290 N   0  0  0  0  0  0  0  0  0  0  0  0
  -25.9840  -34.9540   23.4570 C   0  0  0  0  0  0  0  0  0  0  0  0
  -26.6380  -34.8460   22.4160 O   0  0  0  0  0  0  0  0  0  0  0  0
  -25.0940  -34.0630   25.0430 H   0  0  0  0  0  0  0  0  0  0  0  0
  -24.2410  -36.7380   23.1300 C   0  0  0  0  0  1  0  0  0  0  0  0
  -25.5040  -36.3460   23.9130 C   0  0  0  0  0  3  0  0  0  0  0  0
  -27.6550  -37.2500   24.6820 C   0  0  0  0  0  1  0  0  0  0  0  0
  -26.5300  -37.4020   23.7620 N   0  0  0  0  0  0  0  0  0  0  0  0
  -26.1230  -38.3220   23.9050 H   0  0  0  0  0  0  0  0  0  0  0  0
  -26.4840  -31.7310   25.1750 C   0  0  1  0  0  0  0  0  0  0  0  0
  -25.3880  -31.4920   26.2410 C   0  0  0  0  0  1  0  0  0  0  0  0
  -27.0620  -30.3510   24.7780 C   0  0  0  0  0  1  0  0  0  0  0  0
  -27.6340  -32.5210   25.8420 C   0  0  0  0  0  1  0  0  0  0  0  0
  1  3  2  0
  3 19  1  0
  3  2  1  0
  4  6  1  0
  5  1  1  0
  5  4  2  0
  6  2  2  0
  7 20  1  0
  8 13  1  0
  9 10  1  0
  9  8  1  0
 11 10  1  0
 11 24  1  0
 11 12  1  0
 13  7  1  0
 13 12  1  0
 14  7  2  0
 15 19  1  0
 17 15  1  0
 17 20  1  0
 18 16  1  0
 19 16  1  0
 20 18  1  0
 21 22  2  0
 22 41  1  0
 23 22  1  0
 23 26  1  0
 24 25  1  0
 24 21  1  0
 25 23  2  0
 26 27  1  0
 27 28  2  0
 29 32  1  0
 29 28  1  0
 30 29  2  0
 31 30  1  0
 31 26  2  0
 32 33  1  0
 33 34  1  0
 34 35  2  0
 36 35  1  0
 36 40  1  0
 37 36  2  0
 38 33  2  0
 38 37  1  0
 39 38  1  0
 41 42  1  0
 42 45  1  0
 42 44  1  0
 43 41  2  0
 46 21  1  0
 46 47  1  0
 48 46  1  0
 49 50  1  0
 49 51  1  0
 50 51  1  0
 50  4  1  0
 51 52  1  0
 53 64  2  0
 54 52  1  0
 54 59  1  0
 55 63  1  0
 55 65  1  0
 56 62  1  0
 56 58  1  0
 57 63  1  0
 58 57  1  0
 59 58  2  0
 60 61  1  0
 60 54  2  0
 61 56  2  0
 62 55  1  0
 63 53  1  0
 65 67  2  0
 66 65  1  0
 68 66  1  0
 69 78  2  0
 69 74  1  0
 70 66  1  0
 70 74  1  0
 71 70  1  0
 72 73  1  0
 72 71  1  0
 73 69  1  0
 74 75  2  0
 75 76  1  0
 77 76  2  0
 78 77  1  0
 79 53  1  0
 79 80  1  0
 79 89  1  0
 80 83  1  0
 81 85  1  0
 81 80  1  0
 82 81  2  0
 85 84  1  0
 87 88  1  0
 87 85  1  0
 87 86  1  0
 89 92  1  1
 89 90  1  0
 91 89  1  0
M  ISO  4   7 100  20 100  51 101  52 101
M  END
>  <TORSDO>  (43) 
F 17

>  <SCORE>  (43) 
-14.684

>  <name>  (43) 
43

>  <ligand_id>  (43) 
43

>  <original_smiles>  (43) 
[H]c1nc(C2([H])C([H])([H])C2([H])Oc2c([H])c([H])c3c(c2[H])C([H])([H])N(C(=O)C([H])(N([H])C(=O)C([H])(N([H])C([H])([H])[H])C([H])([H])[H])C(C([H])([H])[H])(C([H])([H])[H])C([H])([H])[H])C([H])(C(=O)N([H])C2([H])c4c([H])c([H])c([H])c([H])c4C([H])([H])C([H])([H])C2([H])[H])C3([H])[H])nc([H])c1N1C([H])([H])C([H])([H])N(C(=O)N2C([H])([H])C([H])([H])C([H])([H])C([H])(n3nc(-c4c([H])c([H])c(Oc5c([H])c([H])c(F)c([H])c5F)c([H])c4[H])c(C(=O)N([H])[H])c3N([H])[H])C2([H])[H])C([H])([H])C1([H])[H]

>  <smiles>  (43) 
[H]c1nc(C2([H])C([H])([H])C2([H])Oc2c([H])c([H])c3c(c2[H])C([H])([H])N(C(=O)C([H])(N([H])C(=O)C([H])(N([H])C([H])([H])[H])C([H])([H])[H])C(C([H])([H])[H])(C([H])([H])[H])C([H])([H])[H])C([H])(C(=O)N([H])C2([H])c4c([H])c([H])c([H])c([H])c4C([H])([H])C([H])([H])C2([H])[H])C3([H])[H])nc([H])c1N1C([H])([H])C([H])([H])N(C(=O)N2C([H])([H])C([H])([H])C([H])([H])C([H])(n3nc(-c4c([H])c([H])c(Oc5c([H])c([H])c(F)c([H])c5F)c([H])c4[H])c(C(=O)N([H])[H])c3N([H])[H])C2([H])[H])C([H])([H])C1([H])[H]

$$$$
44:0:0
     RDKit          3D

 94103  0  0  1  0  0  0  0  0999 V2000
  -30.0350  -21.2110   21.5350 C   0  0  0  0  0  2  0  0  0  0  0  0
  -27.7120  -20.6970   20.5750 C   0  0  0  0  0  2  0  0  0  0  0  0
  -30.0620  -22.4600   20.6100 C   0  0  0  0  0  2  0  0  0  0  0  0
  -27.8770  -21.9540   19.6890 C   0  0  0  0  0  2  0  0  0  0  0  0
  -29.0280  -20.0890   21.1430 C   0  0  0  0  0  3  0  0  0  0  0  0
  -28.6950  -22.9940   20.3670 N   0  0  2  0  0  4  0  0  0  0  0  0
  -28.2650  -23.1490   21.2690 H   0  0  0  0  0  0  0  0  0  0  0  0
  -30.5940  -18.0920   21.0320 C   0  0  0  0  0  2  0  0  0  0  0  0
  -28.7840  -17.7580   20.1680 C   0  0  0  0  0  2  0  0  0  0  0  0
  -30.0970  -16.9690   20.1210 C   0  0  0  0  0  3  0  0  0  0  0  0
  -29.6180  -18.9660   20.3380 N   0  0  1  0  0  4  0  0  0  0  0  0
  -29.9790  -19.2630   19.4430 H   0  0  0  0  0  0  0  0  0  0  0  0
  -30.8410  -14.5800   20.3050 C   0  0  0  0  0  0  0  0  0  0  0  0
  -30.5790  -12.4050   19.1840 C   0  0  0  0  0  2  0  0  0  0  0  0
  -29.6270  -12.6180   17.9850 C   0  0  0  0  0  2  0  0  0  0  0  0
  -28.1520  -12.4940   18.4180 C   0  0  0  0  0  2  0  0  0  0  0  0
  -27.8280  -13.3240   19.6880 C   0  0  0  0  0  3  0  0  0  0  0  0
  -28.8850  -13.0740   20.7900 C   0  0  0  0  0  2  0  0  0  0  0  0
  -30.2110  -13.3780   20.2250 N   0  0  0  0  0  0  0  0  0  0  0  0
  -31.9700  -14.7850   19.8500 O   0  0  0  0  0  0  0  0  0  0  0  0
  -30.0380  -15.6000   20.6720 N   0  0  0  0  0  0  0  0  0  0  0  0
  -29.1620  -15.3120   21.0840 H   0  0  0  0  0  0  0  0  0  0  0  0
  -25.4360  -13.9610   20.3920 C   0  0  0  0  0  0  0  0  0  0  0  0
  -24.3640  -13.2000   20.7710 C   0  0  0  0  0  0  0  0  0  0  0  0
  -24.8140  -11.8440   20.7480 C   0  0  0  0  0  0  0  0  0  0  0  0
  -26.4740  -13.0690   20.1680 N   0  0  0  0  0  0  0  0  0  0  0  0
  -26.1040  -11.7920   20.4390 N   0  0  0  0  0  0  0  0  0  0  0  0
  -24.0810  -10.5880   20.9470 C   0  0  0  0  0  0  0  0  0  0  0  0
  -24.4970   -9.6340   21.9020 C   0  0  0  0  0  3  0  0  0  0  0  0
  -23.7670   -8.4410   22.0880 C   0  0  0  0  0  3  0  0  0  0  0  0
  -22.6050   -8.1940   21.3180 C   0  0  0  0  0  0  0  0  0  0  0  0
  -22.2070   -9.1360   20.3530 C   0  0  0  0  0  3  0  0  0  0  0  0
  -22.9390  -10.3210   20.1660 C   0  0  0  0  0  3  0  0  0  0  0  0
  -21.8450   -7.0530   21.4120 O   0  0  0  0  0  0  0  0  0  0  0  0
  -21.7590   -6.3420   22.5820 C   0  0  0  0  0  0  0  0  0  0  0  0
  -21.2890   -6.9280   23.7770 C   0  0  0  0  0  3  0  0  0  0  0  0
  -21.1500   -6.1420   24.9390 C   0  0  0  0  0  3  0  0  0  0  0  0
  -21.4700   -4.7720   24.9050 C   0  0  0  0  0  0  0  0  0  0  0  0
  -21.9330   -4.1860   23.7140 C   0  0  0  0  0  3  0  0  0  0  0  0
  -22.0730   -4.9690   22.5550 C   0  0  0  0  0  0  0  0  0  0  0  0
  -22.5000   -4.3940   21.4040 F   0  0  0  0  0  0  0  0  0  0  0  0
  -21.3290   -4.0150   26.0190 F   0  0  0  0  0  0  0  0  0  0  0  0
  -22.9700  -13.6880   21.0420 C   0  0  0  0  0  0  0  0  0  0  0  0
  -22.2410  -13.0050   21.9180 N   0  0  0  0  0  0  0  0  0  0  0  0
  -22.5360  -14.7090   20.5110 O   0  0  0  0  0  0  0  0  0  0  0  0
  -22.6070  -12.1790   22.3680 H   0  0  0  0  0  0  0  0  0  0  0  0
  -21.3050  -13.3120   22.1430 H   0  0  0  0  0  0  0  0  0  0  0  0
  -25.6100  -15.3280   20.1990 N   0  0  0  0  0  0  0  0  0  0  0  0
  -24.8340  -15.9760   20.2770 H   0  0  0  0  0  0  0  0  0  0  0  0
  -26.4290  -15.7380   19.7740 H   0  0  0  0  0  0  0  0  0  0  0  0
  -28.6510  -24.3350   19.6930 C   0  0  0  0  0  2  0  0  0  0  0  0
  -27.8040  -25.3810   21.9040 C   0  0  0  0  0  1  0  0  0  0  0  0
  -28.7410  -25.5310   20.6860 C   0  0  0  0  0  3  0  0  0  0  0  0
  -28.6460  -26.8260   20.0420 O   0  0  0  0  0  0  0  0  0  0  0  0
  -24.6470  -31.8330   23.1610 C   0  0  0  0  0  0  0  0  0  0  0  0
  -27.4450  -27.5090   20.0470 C   0  0  0  0  0  0  0  0  0  0  0  0
  -23.4990  -30.4340   21.4740 C   0  0  0  0  0  3  0  0  0  0  0  0
  -25.0120  -28.9530   20.0480 C   0  0  0  0  0  0  0  0  0  0  0  0
  -26.0160  -30.8580   21.3180 C   0  0  0  0  0  2  0  0  0  0  0  0
  -26.1450  -29.5000   20.6570 C   0  0  0  0  0  0  0  0  0  0  0  0
  -27.3660  -28.7860   20.6490 C   0  0  0  0  0  3  0  0  0  0  0  0
  -26.2950  -26.9800   19.4270 C   0  0  0  0  0  3  0  0  0  0  0  0
  -25.0800  -27.6910   19.4310 C   0  0  0  0  0  3  0  0  0  0  0  0
  -23.7470  -29.7800   20.0870 C   0  0  0  0  0  2  0  0  0  0  0  0
  -24.7380  -31.0560   22.0440 N   0  0  0  0  0  0  0  0  0  0  0  0
  -23.5520  -32.0690   23.6900 O   0  0  0  0  0  0  0  0  0  0  0  0
  -22.8590  -29.3810   22.4080 C   0  0  0  0  0  0  0  0  0  0  0  0
  -21.5360  -29.1950   22.2790 N   0  0  0  0  0  0  0  0  0  0  0  0
  -23.5480  -28.7370   23.2030 O   0  0  0  0  0  0  0  0  0  0  0  0
  -21.0380  -29.7660   21.6120 H   0  0  0  0  0  0  0  0  0  0  0  0
  -18.1650  -27.9950   22.7810 C   0  0  0  0  0  0  0  0  0  0  0  0
  -20.7280  -28.2290   23.0250 C   0  0  0  0  0  3  0  0  0  0  0  0
  -20.8150  -26.8240   22.3880 C   0  0  0  0  0  2  0  0  0  0  0  0
  -19.6970  -26.5480   21.3790 C   0  0  0  0  0  2  0  0  0  0  0  0
  -18.3260  -26.6720   22.0500 C   0  0  0  0  0  2  0  0  0  0  0  0
  -19.2940  -28.7320   23.2260 C   0  0  0  0  0  0  0  0  0  0  0  0
  -19.0920  -29.9700   23.8730 C   0  0  0  0  0  3  0  0  0  0  0  0
  -17.7920  -30.4720   24.0780 C   0  0  0  0  0  3  0  0  0  0  0  0
  -16.6780  -29.7290   23.6520 C   0  0  0  0  0  3  0  0  0  0  0  0
  -16.8650  -28.4930   23.0080 C   0  0  0  0  0  3  0  0  0  0  0  0
  -25.9090  -32.4810   23.8110 C   0  0  0  0  0  3  0  0  0  0  0  0
  -26.4180  -31.7070   25.0880 C   0  0  1  0  0  0  0  0  0  0  0  0
  -25.3130  -31.4380   26.1340 C   0  0  0  0  0  1  0  0  0  0  0  0
  -27.0350  -30.3460   24.6880 C   0  0  0  0  0  1  0  0  0  0  0  0
  -27.5410  -32.5170   25.7790 C   0  0  0  0  0  1  0  0  0  0  0  0
  -25.5700  -33.8700   24.1470 N   0  0  0  0  0  0  0  0  0  0  0  0
  -25.8950  -34.9340   23.4000 C   0  0  0  0  0  0  0  0  0  0  0  0
  -26.5800  -34.8500   22.3770 O   0  0  0  0  0  0  0  0  0  0  0  0
  -24.9630  -34.0080   24.9410 H   0  0  0  0  0  0  0  0  0  0  0  0
  -24.1370  -36.6940   23.0310 C   0  0  0  0  0  1  0  0  0  0  0  0
  -25.3730  -36.3090   23.8600 C   0  0  0  0  0  3  0  0  0  0  0  0
  -27.4760  -37.2310   24.7270 C   0  0  0  0  0  1  0  0  0  0  0  0
  -26.3850  -37.3820   23.7690 N   0  0  0  0  0  0  0  0  0  0  0  0
  -25.9590  -38.2930   23.9150 H   0  0  0  0  0  0  0  0  0  0  0  0
  3  1  1  0
  4  6  1  0
  4  2  1  0
  5  2  1  0
  5  1  1  0
  6  3  1  0
  6  7  1  1
  9 11  1  0
 10  9  1  0
 10 21  1  0
 10  8  1  0
 11 12  1  6
 11  8  1  0
 11  5  1  0
 13 21  1  0
 14 19  1  0
 15 16  1  0
 15 14  1  0
 17 16  1  0
 17 26  1  0
 17 18  1  0
 19 13  1  0
 19 18  1  0
 20 13  2  0
 21 22  1  0
 23 24  2  0
 24 43  1  0
 25 24  1  0
 25 28  1  0
 26 23  1  0
 26 27  1  0
 27 25  2  0
 28 29  1  0
 29 30  2  0
 31 34  1  0
 31 30  1  0
 32 31  2  0
 33 32  1  0
 33 28  2  0
 34 35  1  0
 35 36  1  0
 36 37  2  0
 38 37  1  0
 38 42  1  0
 39 38  2  0
 40 35  2  0
 40 39  1  0
 41 40  1  0
 43 44  1  0
 44 47  1  0
 44 46  1  0
 45 43  2  0
 48 49  1  0
 48 23  1  0
 50 48  1  0
 51  6  1  0
 51 53  1  0
 53 52  1  0
 54 56  1  0
 54 53  1  0
 55 66  2  0
 56 61  1  0
 57 65  1  0
 57 67  1  0
 58 64  1  0
 58 60  1  0
 59 65  1  0
 60 59  1  0
 61 60  2  0
 62 63  1  0
 62 56  2  0
 63 58  2  0
 64 57  1  0
 65 55  1  0
 67 69  2  0
 68 67  1  0
 70 68  1  0
 71 80  2  0
 71 76  1  0
 72 68  1  0
 72 76  1  0
 73 72  1  0
 74 75  1  0
 74 73  1  0
 75 71  1  0
 76 77  2  0
 77 78  1  0
 79 78  2  0
 80 79  1  0
 81 55  1  0
 81 86  1  0
 81 82  1  0
 82 85  1  1
 82 83  1  0
 84 82  1  0
 86 89  1  0
 87 91  1  0
 87 86  1  0
 88 87  2  0
 91 90  1  0
 93 91  1  0
 93 94  1  0
 93 92  1  0
M  ISO  4  13 100  21 100  53 101  54 101
M  END
>  <TORSDO>  (44) 
F 19

>  <SCORE>  (44) 
-14.025

>  <name>  (44) 
44

>  <ligand_id>  (44) 
44

>  <original_smiles>  (44) 
[H]c1c([H])c([H])c2c(c1[H])C([H])([H])C([H])([H])C([H])([H])C2([H])N([H])C(=O)C1([H])N(C(=O)C([H])(N([H])C(=O)C([H])(N([H])C([H])([H])[H])C([H])([H])[H])C(C([H])([H])[H])(C([H])([H])[H])C([H])([H])[H])C([H])([H])c2c([H])c(OC([H])(C([H])([H])[H])C([H])([H])[N+]3([H])C([H])([H])C([H])([H])C([H])([N+]4([H])C([H])([H])C([H])(N([H])C(=O)N5C([H])([H])C([H])([H])C([H])([H])C([H])(n6nc(-c7c([H])c([H])c(Oc8c([H])c([H])c(F)c([H])c8F)c([H])c7[H])c(C(=O)N([H])[H])c6N([H])[H])C5([H])[H])C4([H])[H])C([H])([H])C3([H])[H])c([H])c([H])c2C1([H])[H]

>  <smiles>  (44) 
[H]c1c([H])c([H])c2c(c1[H])C([H])([H])C([H])([H])C([H])([H])C2([H])N([H])C(=O)C1([H])N(C(=O)C([H])(N([H])C(=O)C([H])(N([H])C([H])([H])[H])C([H])([H])[H])C(C([H])([H])[H])(C([H])([H])[H])C([H])([H])[H])C([H])([H])c2c([H])c(OC([H])(C([H])([H])[H])C([H])([H])[N+]3([H])C([H])([H])C([H])([H])C([H])([N+]4([H])C([H])([H])C([H])(N([H])C(=O)N5C([H])([H])C([H])([H])C([H])([H])C([H])(n6nc(-c7c([H])c([H])c(Oc8c([H])c([H])c(F)c([H])c8F)c([H])c7[H])c(C(=O)N([H])[H])c6N([H])[H])C5([H])[H])C4([H])[H])C([H])([H])C3([H])[H])c([H])c([H])c2C1([H])[H]

$$$$
45:0:0
     RDKit          3D

100110  0  0  1  0  0  0  0  0999 V2000
  -28.1650  -20.1610   19.2350 C   0  0  0  0  0  2  0  0  0  0  0  0
  -30.7270  -14.3840   20.2450 C   0  0  0  0  0  0  0  0  0  0  0  0
  -30.2200  -12.3710   18.9110 C   0  0  0  0  0  2  0  0  0  0  0  0
  -29.2260  -12.6720   17.7760 C   0  0  0  0  0  2  0  0  0  0  0  0
  -27.7770  -12.5310   18.2770 C   0  0  0  0  0  2  0  0  0  0  0  0
  -27.5280  -13.3090   19.5960 C   0  0  0  0  0  3  0  0  0  0  0  0
  -28.6330  -13.0210   20.6400 C   0  0  0  0  0  2  0  0  0  0  0  0
  -29.9470  -13.2920   20.0260 N   0  0  0  0  0  0  0  0  0  0  0  0
  -31.6920  -14.6670   19.5280 O   0  0  0  0  0  0  0  0  0  0  0  0
  -30.6910  -16.5170   21.3400 C   0  0  0  0  0  0  0  0  0  0  0  0
  -30.2050  -17.5150   20.5540 C   0  0  0  0  0  0  0  0  0  0  0  0
  -31.7610  -16.4320   22.3920 C   0  0  0  0  0  2  0  0  0  0  0  0
  -29.0330  -17.2420   19.6060 C   0  0  0  0  0  2  0  0  0  0  0  0
  -31.2000  -15.0110   22.5570 C   0  0  0  0  0  2  0  0  0  0  0  0
  -30.5990  -19.6610   19.2960 C   0  0  0  0  0  2  0  0  0  0  0  0
  -29.0700  -18.0430   18.2930 C   0  0  0  0  0  3  0  0  0  0  0  0
  -30.0900  -17.4370   17.3060 C   0  0  0  0  0  1  0  0  0  0  0  0
  -30.4090  -15.1450   21.3160 N   0  0  0  0  0  0  0  0  0  0  0  0
  -30.6640  -18.8510   20.5240 N   0  0  0  0  0  0  0  0  0  0  0  0
  -29.3180  -19.4820   18.5730 N   0  0  1  0  0  4  0  0  0  0  0  0
  -29.4210  -19.9280   17.6720 H   0  0  0  0  0  0  0  0  0  0  0  0
  -25.1630  -13.9260   20.4020 C   0  0  0  0  0  0  0  0  0  0  0  0
  -24.1050  -13.1580   20.8060 C   0  0  0  0  0  0  0  0  0  0  0  0
  -24.5550  -11.8030   20.7430 C   0  0  0  0  0  0  0  0  0  0  0  0
  -26.1930  -13.0400   20.1240 N   0  0  0  0  0  0  0  0  0  0  0  0
  -25.8310  -11.7580   20.3830 N   0  0  0  0  0  0  0  0  0  0  0  0
  -23.8280  -10.5440   20.9520 C   0  0  0  0  0  0  0  0  0  0  0  0
  -24.2820   -9.5760   21.8740 C   0  0  0  0  0  3  0  0  0  0  0  0
  -23.5590   -8.3800   22.0720 C   0  0  0  0  0  3  0  0  0  0  0  0
  -22.3650   -8.1450   21.3490 C   0  0  0  0  0  0  0  0  0  0  0  0
  -21.9300   -9.1020   20.4130 C   0  0  0  0  0  3  0  0  0  0  0  0
  -22.6540  -10.2890   20.2150 C   0  0  0  0  0  3  0  0  0  0  0  0
  -21.6080   -7.0030   21.4560 O   0  0  0  0  0  0  0  0  0  0  0  0
  -21.5710   -6.2710   22.6160 C   0  0  0  0  0  0  0  0  0  0  0  0
  -21.1690   -6.8400   23.8450 C   0  0  0  0  0  3  0  0  0  0  0  0
  -21.0760   -6.0330   24.9960 C   0  0  0  0  0  3  0  0  0  0  0  0
  -21.3790   -4.6610   24.9220 C   0  0  0  0  0  0  0  0  0  0  0  0
  -21.7730   -4.0920   23.6990 C   0  0  0  0  0  3  0  0  0  0  0  0
  -21.8670   -4.8950   22.5480 C   0  0  0  0  0  0  0  0  0  0  0  0
  -22.2260   -4.3360   21.3670 F   0  0  0  0  0  0  0  0  0  0  0  0
  -21.2830   -3.8850   26.0260 F   0  0  0  0  0  0  0  0  0  0  0  0
  -22.7240  -13.6410   21.1440 C   0  0  0  0  0  0  0  0  0  0  0  0
  -22.0310  -12.9390   22.0340 N   0  0  0  0  0  0  0  0  0  0  0  0
  -22.2710  -14.6740   20.6550 O   0  0  0  0  0  0  0  0  0  0  0  0
  -22.4120  -12.1020   22.4500 H   0  0  0  0  0  0  0  0  0  0  0  0
  -21.1070  -13.2410   22.3050 H   0  0  0  0  0  0  0  0  0  0  0  0
  -25.3290  -15.2970   20.2300 N   0  0  0  0  0  0  0  0  0  0  0  0
  -24.5740  -15.9580   20.3850 H   0  0  0  0  0  0  0  0  0  0  0  0
  -26.1790  -15.7360   19.9020 H   0  0  0  0  0  0  0  0  0  0  0  0
  -30.7500  -20.7570   22.1510 C   0  0  0  0  0  1  0  0  0  0  0  0
  -31.4450  -19.5140   21.5740 C   0  0  0  0  0  2  0  0  0  0  0  0
  -26.4920  -22.0360   18.9600 C   0  0  0  0  0  2  0  0  0  0  0  0
  -26.4980  -23.5530   19.0730 C   0  0  0  0  0  2  0  0  0  0  0  0
  -28.6310  -22.7040   19.7560 C   0  0  0  0  0  2  0  0  0  0  0  0
  -27.9660  -21.6500   18.8430 C   0  0  0  0  0  3  0  0  0  0  0  0
  -27.7780  -23.9240   19.7270 N   0  0  2  0  0  4  0  0  0  0  0  0
  -28.2190  -24.5860   19.0990 H   0  0  0  0  0  0  0  0  0  0  0  0
  -27.6250  -24.6250   21.0380 C   0  0  0  0  0  2  0  0  0  0  0  0
  -28.5460  -25.8580   21.1640 C   0  0  0  0  0  2  0  0  0  0  0  0
  -28.3560  -26.7920   20.0970 O   0  0  0  0  0  0  0  0  0  0  0  0
  -24.5210  -31.9180   23.2390 C   0  0  0  0  0  0  0  0  0  0  0  0
  -27.1900  -27.5180   20.1480 C   0  0  0  0  0  0  0  0  0  0  0  0
  -23.3240  -30.5170   21.5890 C   0  0  0  0  0  3  0  0  0  0  0  0
  -24.7860  -28.9900   20.1680 C   0  0  0  0  0  0  0  0  0  0  0  0
  -25.8460  -30.8890   21.3980 C   0  0  0  0  0  2  0  0  0  0  0  0
  -25.9390  -29.5180   20.7670 C   0  0  0  0  0  0  0  0  0  0  0  0
  -27.1450  -28.7860   20.7660 C   0  0  0  0  0  3  0  0  0  0  0  0
  -26.0330  -27.0150   19.5240 C   0  0  0  0  0  3  0  0  0  0  0  0
  -24.8240  -27.7320   19.5460 C   0  0  0  0  0  3  0  0  0  0  0  0
  -23.5370  -29.8400   20.2090 C   0  0  0  0  0  2  0  0  0  0  0  0
  -24.5830  -31.1240   22.1350 N   0  0  0  0  0  0  0  0  0  0  0  0
  -23.4380  -32.1840   23.7790 O   0  0  0  0  0  0  0  0  0  0  0  0
  -22.6770  -29.4900   22.5450 C   0  0  0  0  0  0  0  0  0  0  0  0
  -21.3560  -29.2960   22.4110 N   0  0  0  0  0  0  0  0  0  0  0  0
  -23.3610  -28.8680   23.3610 O   0  0  0  0  0  0  0  0  0  0  0  0
  -20.8620  -29.8550   21.7280 H   0  0  0  0  0  0  0  0  0  0  0  0
  -17.9880  -28.0770   22.8820 C   0  0  0  0  0  0  0  0  0  0  0  0
  -20.5400  -28.3550   23.1760 C   0  0  0  0  0  3  0  0  0  0  0  0
  -20.6580  -26.9230   22.6030 C   0  0  0  0  0  2  0  0  0  0  0  0
  -19.5670  -26.5900   21.5810 C   0  0  0  0  0  2  0  0  0  0  0  0
  -18.1790  -26.7260   22.2130 C   0  0  0  0  0  2  0  0  0  0  0  0
  -19.0970  -28.8480   23.3190 C   0  0  0  0  0  0  0  0  0  0  0  0
  -18.8640  -30.1110   23.9030 C   0  0  0  0  0  3  0  0  0  0  0  0
  -17.5540  -30.6020   24.0560 C   0  0  0  0  0  3  0  0  0  0  0  0
  -16.4590  -29.8290   23.6340 C   0  0  0  0  0  3  0  0  0  0  0  0
  -16.6770  -28.5670   23.0510 C   0  0  0  0  0  3  0  0  0  0  0  0
  -25.8040  -32.5520   23.8630 C   0  0  0  0  0  3  0  0  0  0  0  0
  -26.3230  -31.7790   25.1370 C   0  0  1  0  0  0  0  0  0  0  0  0
  -25.2330  -31.5310   26.2050 C   0  0  0  0  0  1  0  0  0  0  0  0
  -26.9100  -30.4060   24.7410 C   0  0  0  0  0  1  0  0  0  0  0  0
  -27.4690  -32.5760   25.8010 C   0  0  0  0  0  1  0  0  0  0  0  0
  -25.4920  -33.9500   24.1890 N   0  0  0  0  0  0  0  0  0  0  0  0
  -25.8210  -35.0010   23.4240 C   0  0  0  0  0  0  0  0  0  0  0  0
  -26.4940  -34.8960   22.3950 O   0  0  0  0  0  0  0  0  0  0  0  0
  -24.9010  -34.1070   24.9920 H   0  0  0  0  0  0  0  0  0  0  0  0
  -24.0850  -36.7850   23.0640 C   0  0  0  0  0  1  0  0  0  0  0  0
  -25.3270  -36.3890   23.8770 C   0  0  0  0  0  3  0  0  0  0  0  0
  -27.4580  -37.2830   24.7050 C   0  0  0  0  0  1  0  0  0  0  0  0
  -26.3560  -37.4460   23.7620 N   0  0  0  0  0  0  0  0  0  0  0  0
  -25.9470  -38.3640   23.9100 H   0  0  0  0  0  0  0  0  0  0  0  0
  2 18  1  0
  3  8  1  0
  4  5  1  0
  4  3  1  0
  6  5  1  0
  6 25  1  0
  6  7  1  0
  8  2  1  0
  8  7  1  0
  9  2  2  0
 10 12  1  0
 11 10  2  0
 12 14  1  0
 13 11  1  0
 15 19  1  0
 16 17  1  0
 16 20  1  0
 16 13  1  0
 18 10  1  0
 18 14  1  0
 19 11  1  0
 19 51  1  0
 20  1  1  0
 20 15  1  0
 20 21  1  6
 22 23  2  0
 23 42  1  0
 24 23  1  0
 24 27  1  0
 25 26  1  0
 25 22  1  0
 26 24  2  0
 27 28  1  0
 28 29  2  0
 30 33  1  0
 30 29  1  0
 31 30  2  0
 32 31  1  0
 32 27  2  0
 33 34  1  0
 34 35  1  0
 35 36  2  0
 37 36  1  0
 37 41  1  0
 38 37  2  0
 39 34  2  0
 39 38  1  0
 40 39  1  0
 42 43  1  0
 43 46  1  0
 43 45  1  0
 44 42  2  0
 47 48  1  0
 47 22  1  0
 49 47  1  0
 51 50  1  0
 52 53  1  0
 53 56  1  0
 55 52  1  0
 55  1  1  0
 55 54  1  0
 56 54  1  0
 56 58  1  0
 56 57  1  6
 58 59  1  0
 60 62  1  0
 60 59  1  0
 61 72  2  0
 62 67  1  0
 63 71  1  0
 63 73  1  0
 64 70  1  0
 64 66  1  0
 65 71  1  0
 66 65  1  0
 67 66  2  0
 68 69  1  0
 68 62  2  0
 69 64  2  0
 70 63  1  0
 71 61  1  0
 73 75  2  0
 74 73  1  0
 76 74  1  0
 77 86  2  0
 77 82  1  0
 78 74  1  0
 78 82  1  0
 79 78  1  0
 80 81  1  0
 80 79  1  0
 81 77  1  0
 82 83  2  0
 83 84  1  0
 85 84  2  0
 86 85  1  0
 87 61  1  0
 87 92  1  0
 87 88  1  0
 88 91  1  1
 88 89  1  0
 90 88  1  0
 92 95  1  0
 93 97  1  0
 93 92  1  0
 94 93  2  0
 97 96  1  0
 99 97  1  0
 99100  1  0
 99 98  1  0
M  ISO  4   2 100  18 100  59 101  60 101
M  END
>  <TORSDO>  (45) 
F 20

>  <SCORE>  (45) 
-11.739

>  <name>  (45) 
45

>  <ligand_id>  (45) 
45

>  <original_smiles>  (45) 
[H]c1c([H])c([H])c2c(c1[H])C([H])([H])C([H])([H])C([H])([H])C2([H])N([H])C(=O)C1([H])N(C(=O)C([H])(N([H])C(=O)C([H])(N([H])C([H])([H])[H])C([H])([H])[H])C(C([H])([H])[H])(C([H])([H])[H])C([H])([H])[H])C([H])([H])c2c([H])c(OC([H])([H])C([H])([H])[N+]3([H])C([H])([H])C([H])([H])C([H])(C([H])([H])[N+]4([H])C([H])([H])N(C([H])([H])C([H])([H])[H])C(=C5N(C(=O)N6C([H])([H])C([H])([H])C([H])([H])C([H])(n7nc(-c8c([H])c([H])c(Oc9c([H])c([H])c(F)c([H])c9F)c([H])c8[H])c(C(=O)N([H])[H])c7N([H])[H])C6([H])[H])C([H])([H])C5([H])[H])C([H])([H])C4([H])C([H])([H])[H])C3([H])[H])c([H])c([H])c2C1([H])[H]

>  <smiles>  (45) 
[H]c1c([H])c([H])c2c(c1[H])C([H])([H])C([H])([H])C([H])([H])C2([H])N([H])C(=O)C1([H])N(C(=O)C([H])(N([H])C(=O)C([H])(N([H])C([H])([H])[H])C([H])([H])[H])C(C([H])([H])[H])(C([H])([H])[H])C([H])([H])[H])C([H])([H])c2c([H])c(OC([H])([H])C([H])([H])[N+]3([H])C([H])([H])C([H])([H])C([H])(C([H])([H])[N+]4([H])C([H])([H])N(C([H])([H])C([H])([H])[H])C(=C5N(C(=O)N6C([H])([H])C([H])([H])C([H])([H])C([H])(n7nc(-c8c([H])c([H])c(Oc9c([H])c([H])c(F)c([H])c9F)c([H])c8[H])c(C(=O)N([H])[H])c7N([H])[H])C6([H])[H])C([H])([H])C5([H])[H])C([H])([H])C4([H])C([H])([H])[H])C3([H])[H])c([H])c([H])c2C1([H])[H]

$$$$
46:0:0
     RDKit          3D

 94103  0  0  1  0  0  0  0  0999 V2000
  -29.9530  -21.8180   19.4330 C   0  0  0  0  0  2  0  0  0  0  0  0
  -29.1540  -22.5890   21.4270 C   0  0  0  0  0  2  0  0  0  0  0  0
  -29.4440  -20.5020   20.1140 C   0  0  0  0  0  3  0  0  0  0  0  0
  -28.9960  -21.0530   21.5020 C   0  0  0  0  0  3  0  0  0  0  0  0
  -29.1610  -22.9320   20.0140 N   0  0  0  0  0  0  0  0  0  0  0  0
  -30.1060  -18.2810   21.1940 C   0  0  0  0  0  2  0  0  0  0  0  0
  -30.3560  -18.2680   19.1900 C   0  0  0  0  0  2  0  0  0  0  0  0
  -30.8900  -17.3190   20.2870 C   0  0  0  0  0  3  0  0  0  0  0  0
  -30.4180  -19.3470   20.2110 N   0  0  1  0  0  4  0  0  0  0  0  0
  -31.3650  -19.6660   20.3470 H   0  0  0  0  0  0  0  0  0  0  0  0
  -31.1800  -14.8030   19.9390 C   0  0  0  0  0  0  0  0  0  0  0  0
  -30.8840  -12.5420   18.9830 C   0  0  0  0  0  2  0  0  0  0  0  0
  -29.9080  -12.6380   17.7910 C   0  0  0  0  0  2  0  0  0  0  0  0
  -28.4470  -12.5180   18.2710 C   0  0  0  0  0  2  0  0  0  0  0  0
  -28.1360  -13.4470   19.4760 C   0  0  0  0  0  3  0  0  0  0  0  0
  -29.2250  -13.3320   20.5670 C   0  0  0  0  0  2  0  0  0  0  0  0
  -30.5230  -13.6070   19.9330 N   0  0  0  0  0  0  0  0  0  0  0  0
  -32.3230  -14.9310   19.4910 O   0  0  0  0  0  0  0  0  0  0  0  0
  -30.4480  -15.8920   20.2910 N   0  0  0  0  0  0  0  0  0  0  0  0
  -29.5090  -15.7010   20.6060 H   0  0  0  0  0  0  0  0  0  0  0  0
  -25.7960  -14.1160   20.3070 C   0  0  0  0  0  0  0  0  0  0  0  0
  -24.7200  -13.3720   20.7120 C   0  0  0  0  0  0  0  0  0  0  0  0
  -25.1320  -12.0070   20.6350 C   0  0  0  0  0  0  0  0  0  0  0  0
  -26.7980  -13.2050   20.0130 N   0  0  0  0  0  0  0  0  0  0  0  0
  -26.4060  -11.9300   20.2700 N   0  0  0  0  0  0  0  0  0  0  0  0
  -24.3720  -10.7670   20.8350 C   0  0  0  0  0  0  0  0  0  0  0  0
  -24.7520   -9.8180   21.8100 C   0  0  0  0  0  3  0  0  0  0  0  0
  -23.9960   -8.6400   21.9970 C   0  0  0  0  0  3  0  0  0  0  0  0
  -22.8460   -8.4030   21.2070 C   0  0  0  0  0  0  0  0  0  0  0  0
  -22.4850   -9.3400   20.2230 C   0  0  0  0  0  3  0  0  0  0  0  0
  -23.2410  -10.5090   20.0340 C   0  0  0  0  0  3  0  0  0  0  0  0
  -22.0660   -7.2760   21.3010 O   0  0  0  0  0  0  0  0  0  0  0  0
  -21.8810   -6.6240   22.4930 C   0  0  0  0  0  0  0  0  0  0  0  0
  -21.2680   -7.2510   23.5990 C   0  0  0  0  0  3  0  0  0  0  0  0
  -21.0370   -6.5240   24.7840 C   0  0  0  0  0  3  0  0  0  0  0  0
  -21.4080   -5.1670   24.8610 C   0  0  0  0  0  0  0  0  0  0  0  0
  -22.0130   -4.5390   23.7580 C   0  0  0  0  0  3  0  0  0  0  0  0
  -22.2480   -5.2640   22.5770 C   0  0  0  0  0  0  0  0  0  0  0  0
  -22.8130   -4.6490   21.5110 F   0  0  0  0  0  0  0  0  0  0  0  0
  -21.1790   -4.4640   25.9940 F   0  0  0  0  0  0  0  0  0  0  0  0
  -23.3520  -13.8900   21.0530 C   0  0  0  0  0  0  0  0  0  0  0  0
  -22.6450  -13.2140   21.9510 N   0  0  0  0  0  0  0  0  0  0  0  0
  -22.9210  -14.9300   20.5540 O   0  0  0  0  0  0  0  0  0  0  0  0
  -23.0090  -12.3740   22.3770 H   0  0  0  0  0  0  0  0  0  0  0  0
  -21.7280  -13.5430   22.2190 H   0  0  0  0  0  0  0  0  0  0  0  0
  -25.9960  -15.4830   20.1450 N   0  0  0  0  0  0  0  0  0  0  0  0
  -25.2460  -16.1510   20.2870 H   0  0  0  0  0  0  0  0  0  0  0  0
  -26.8270  -15.8990   19.7440 H   0  0  0  0  0  0  0  0  0  0  0  0
  -29.5980  -24.5960   18.1870 C   0  0  0  0  0  1  0  0  0  0  0  0
  -29.5640  -24.3460   19.7040 C   0  0  0  0  0  3  0  0  0  0  0  0
  -28.6260  -25.4360   20.3610 C   0  0  0  0  0  2  0  0  0  0  0  0
  -28.7500  -26.8270   19.9190 O   0  0  0  0  0  0  0  0  0  0  0  0
  -24.6310  -31.7730   23.1010 C   0  0  0  0  0  0  0  0  0  0  0  0
  -27.5740  -27.5700   19.9040 C   0  0  0  0  0  0  0  0  0  0  0  0
  -23.5450  -30.3900   21.3640 C   0  0  0  0  0  3  0  0  0  0  0  0
  -25.1150  -29.0000   19.9080 C   0  0  0  0  0  0  0  0  0  0  0  0
  -26.0590  -30.8740   21.2610 C   0  0  0  0  0  2  0  0  0  0  0  0
  -26.2340  -29.5380   20.5570 C   0  0  0  0  0  0  0  0  0  0  0  0
  -27.4680  -28.8340   20.5470 C   0  0  0  0  0  3  0  0  0  0  0  0
  -26.4370  -27.0780   19.2240 C   0  0  0  0  0  3  0  0  0  0  0  0
  -25.2150  -27.7730   19.2340 C   0  0  0  0  0  3  0  0  0  0  0  0
  -23.8280  -29.7940   19.9600 C   0  0  0  0  0  2  0  0  0  0  0  0
  -24.7610  -31.0270   21.9660 N   0  0  0  0  0  0  0  0  0  0  0  0
  -23.5230  -31.9630   23.6210 O   0  0  0  0  0  0  0  0  0  0  0  0
  -22.9220  -29.2920   22.2580 C   0  0  0  0  0  0  0  0  0  0  0  0
  -21.6040  -29.0750   22.1150 N   0  0  0  0  0  0  0  0  0  0  0  0
  -23.6230  -28.6420   23.0380 O   0  0  0  0  0  0  0  0  0  0  0  0
  -21.0980  -29.6550   21.4600 H   0  0  0  0  0  0  0  0  0  0  0  0
  -18.2550  -27.7950   22.5870 C   0  0  0  0  0  0  0  0  0  0  0  0
  -20.8150  -28.0670   22.8240 C   0  0  0  0  0  3  0  0  0  0  0  0
  -20.9230  -26.6890   22.1310 C   0  0  0  0  0  2  0  0  0  0  0  0
  -19.8030  -26.4350   21.1170 C   0  0  0  0  0  2  0  0  0  0  0  0
  -18.4340  -26.5070   21.7990 C   0  0  0  0  0  2  0  0  0  0  0  0
  -19.3730  -28.5340   23.0540 C   0  0  0  0  0  0  0  0  0  0  0  0
  -19.1520  -29.7430   23.7500 C   0  0  0  0  0  3  0  0  0  0  0  0
  -17.8450  -30.2110   23.9820 C   0  0  0  0  0  3  0  0  0  0  0  0
  -16.7420  -29.4660   23.5340 C   0  0  0  0  0  3  0  0  0  0  0  0
  -16.9480  -28.2600   22.8400 C   0  0  0  0  0  3  0  0  0  0  0  0
  -25.8640  -32.4420   23.7850 C   0  0  0  0  0  3  0  0  0  0  0  0
  -26.3670  -31.6600   25.0600 C   0  0  1  0  0  0  0  0  0  0  0  0
  -25.2470  -31.3450   26.0780 C   0  0  0  0  0  1  0  0  0  0  0  0
  -27.0270  -30.3200   24.6570 C   0  0  0  0  0  1  0  0  0  0  0  0
  -27.4550  -32.4870   25.7860 C   0  0  0  0  0  1  0  0  0  0  0  0
  -25.4850  -33.8160   24.1350 N   0  0  0  0  0  0  0  0  0  0  0  0
  -25.7890  -34.8990   23.4070 C   0  0  0  0  0  0  0  0  0  0  0  0
  -26.4890  -34.8480   22.3920 O   0  0  0  0  0  0  0  0  0  0  0  0
  -24.8660  -33.9280   24.9250 H   0  0  0  0  0  0  0  0  0  0  0  0
  -23.9940  -36.6210   23.0400 C   0  0  0  0  0  1  0  0  0  0  0  0
  -25.2260  -36.2540   23.8800 C   0  0  0  0  0  3  0  0  0  0  0  0
  -27.2880  -37.2190   24.8020 C   0  0  0  0  0  1  0  0  0  0  0  0
  -26.2130  -37.3540   23.8210 N   0  0  0  0  0  0  0  0  0  0  0  0
  -25.7590  -38.2520   23.9700 H   0  0  0  0  0  0  0  0  0  0  0  0
  -27.6290  -20.7670   21.7590 O   0  0  0  0  0  0  0  0  0  0  0  0
  -27.1180  -21.2720   21.1310 H   0  0  0  0  0  0  0  0  0  0  0  0
  1  5  1  0
  2  4  1  0
  3  1  1  0
  3  9  1  0
  3  4  1  0
  4 93  1  0
  5  2  1  0
  7  9  1  0
  7  8  1  0
  8 19  1  0
  8  6  1  0
  9 10  1  1
  9  6  1  0
 11 19  1  0
 12 17  1  0
 13 14  1  0
 13 12  1  0
 15 14  1  0
 15 24  1  0
 15 16  1  0
 17 11  1  0
 17 16  1  0
 18 11  2  0
 19 20  1  0
 21 22  2  0
 22 41  1  0
 23 22  1  0
 23 26  1  0
 24 25  1  0
 24 21  1  0
 25 23  2  0
 26 27  1  0
 27 28  2  0
 29 32  1  0
 29 28  1  0
 30 29  2  0
 31 30  1  0
 31 26  2  0
 32 33  1  0
 33 38  2  0
 33 34  1  0
 34 35  2  0
 35 36  1  0
 36 40  1  0
 37 36  2  0
 38 37  1  0
 39 38  1  0
 41 42  1  0
 42 45  1  0
 42 44  1  0
 43 41  2  0
 46 47  1  0
 46 21  1  0
 48 46  1  0
 50 49  1  0
 50  5  1  0
 50 51  1  0
 52 51  1  0
 53 64  2  0
 54 52  1  0
 54 59  1  0
 55 63  1  0
 55 65  1  0
 56 62  1  0
 56 58  1  0
 57 63  1  0
 58 57  1  0
 59 58  2  0
 60 61  1  0
 60 54  2  0
 61 56  2  0
 62 55  1  0
 63 53  1  0
 65 67  2  0
 66 65  1  0
 68 66  1  0
 69 78  2  0
 69 74  1  0
 70 66  1  0
 70 74  1  0
 71 70  1  0
 72 73  1  0
 72 71  1  0
 73 69  1  0
 74 75  2  0
 75 76  1  0
 77 76  2  0
 78 77  1  0
 79 53  1  0
 79 84  1  0
 79 80  1  0
 80 83  1  1
 80 81  1  0
 82 80  1  0
 84 87  1  0
 85 89  1  0
 85 84  1  0
 86 85  2  0
 89 88  1  0
 91 89  1  0
 91 92  1  0
 91 90  1  0
 94 93  1  0
M  ISO  4  11 100  19 100  51 101  52 101
M  END
>  <TORSDO>  (46) 
F 20

>  <SCORE>  (46) 
-12.782

>  <name>  (46) 
46

>  <ligand_id>  (46) 
46

>  <original_smiles>  (46) 
[H]OC1([H])C([H])([H])N(C([H])(C([H])([H])[H])C([H])([H])Oc2c([H])c([H])c3c(c2[H])C([H])([H])N(C(=O)C([H])(N([H])C(=O)C([H])(N([H])C([H])([H])[H])C([H])([H])[H])C(C([H])([H])[H])(C([H])([H])[H])C([H])([H])[H])C([H])(C(=O)N([H])C2([H])c4c([H])c([H])c([H])c([H])c4C([H])([H])C([H])([H])C2([H])[H])C3([H])[H])C([H])([H])C1([H])[N+]1([H])C([H])([H])C([H])(N([H])C(=O)N2C([H])([H])C([H])([H])C([H])([H])C([H])(n3nc(-c4c([H])c([H])c(Oc5c([H])c([H])c(F)c([H])c5F)c([H])c4[H])c(C(=O)N([H])[H])c3N([H])[H])C2([H])[H])C1([H])[H]

>  <smiles>  (46) 
[H]OC1([H])C([H])([H])N(C([H])(C([H])([H])[H])C([H])([H])Oc2c([H])c([H])c3c(c2[H])C([H])([H])N(C(=O)C([H])(N([H])C(=O)C([H])(N([H])C([H])([H])[H])C([H])([H])[H])C(C([H])([H])[H])(C([H])([H])[H])C([H])([H])[H])C([H])(C(=O)N([H])C2([H])c4c([H])c([H])c([H])c([H])c4C([H])([H])C([H])([H])C2([H])[H])C3([H])[H])C([H])([H])C1([H])[N+]1([H])C([H])([H])C([H])(N([H])C(=O)N2C([H])([H])C([H])([H])C([H])([H])C([H])(n3nc(-c4c([H])c([H])c(Oc5c([H])c([H])c(F)c([H])c5F)c([H])c4[H])c(C(=O)N([H])[H])c3N([H])[H])C2([H])[H])C1([H])[H]

$$$$
47:0:0
     RDKit          3D

106116  0  0  1  0  0  0  0  0999 V2000
  -30.1290  -22.7550   17.9170 C   0  0  0  0  0  0  0  0  0  0  0  0
  -30.1560  -21.9580   19.9960 C   0  0  0  0  0  0  0  0  0  0  0  0
  -28.6290  -23.4300   19.3720 C   0  0  0  0  0  0  0  0  0  0  0  0
  -30.7630  -20.0980   23.2880 C   0  0  0  0  0  2  0  0  0  0  0  0
  -32.2960  -19.2650   21.6570 C   0  0  0  0  0  2  0  0  0  0  0  0
  -29.9940  -20.9160   22.2280 C   0  0  0  0  0  2  0  0  0  0  0  0
  -31.6080  -20.0250   20.5120 C   0  0  0  0  0  2  0  0  0  0  0  0
  -31.8250  -17.7600   23.7700 C   0  0  0  0  0  2  0  0  0  0  0  0
  -30.2470  -17.7100   22.3140 C   0  0  0  0  0  3  0  0  0  0  0  0
  -31.2960  -18.7720   22.7220 C   0  0  1  0  0  0  0  0  0  0  0  0
  -30.7230  -21.9400   18.7950 N   0  0  0  0  0  4  0  0  0  0  0  0
  -29.0650  -23.5170   18.1350 N   0  0  0  0  0  0  0  0  0  0  0  0
  -29.1100  -22.6910   20.3560 N   0  0  0  0  0  2  0  0  0  0  0  0
  -30.7300  -21.1210   20.9680 N   0  0  0  0  0  0  0  0  0  0  0  0
  -27.5670  -24.2470   19.6570 N   0  0  0  0  0  0  0  0  0  0  0  0
  -30.6720  -16.9080   23.4530 N   0  0  0  0  0  4  0  0  0  0  0  0
  -27.2320  -24.7280   18.8320 H   0  0  0  0  0  0  0  0  0  0  0  0
  -29.9940  -16.9290   24.2000 H   0  0  0  0  0  0  0  0  0  0  0  0
  -30.9230  -15.9600   23.2220 H   0  0  0  0  0  0  0  0  0  0  0  0
  -30.7870  -22.8450   16.5500 C   0  0  0  0  0  2  0  0  0  0  0  0
  -32.1800  -22.4280   16.7080 N   0  0  0  0  0  4  0  0  0  0  0  0
  -32.7720  -23.2160   16.8990 H   0  0  0  0  0  0  0  0  0  0  0  0
  -32.5100  -21.8800   15.9380 H   0  0  0  0  0  0  0  0  0  0  0  0
  -32.0910  -21.8760   17.5540 H   0  0  0  0  0  0  0  0  0  0  0  0
  -30.3440  -16.9890   20.9470 C   0  0  0  0  0  2  0  0  0  0  0  0
  -30.4320  -14.7050   20.0030 C   0  0  0  0  0  0  0  0  0  0  0  0
  -30.0390  -12.6360   18.7220 C   0  0  0  0  0  2  0  0  0  0  0  0
  -28.9960  -12.8950   17.6210 C   0  0  0  0  0  2  0  0  0  0  0  0
  -27.5740  -12.6800   18.1720 C   0  0  0  0  0  2  0  0  0  0  0  0
  -27.3370  -13.4320   19.5070 C   0  0  0  0  0  3  0  0  0  0  0  0
  -28.4890  -13.1780   20.5060 C   0  0  0  0  0  2  0  0  0  0  0  0
  -29.7530  -13.5400   19.8470 N   0  0  0  0  0  0  0  0  0  0  0  0
  -31.4190  -15.0010   19.3180 O   0  0  0  0  0  0  0  0  0  0  0  0
  -29.9390  -15.5760   20.9080 N   0  0  0  0  0  0  0  0  0  0  0  0
  -29.0950  -15.2970   21.3900 H   0  0  0  0  0  0  0  0  0  0  0  0
  -24.9840  -13.9240   20.4280 C   0  0  0  0  0  0  0  0  0  0  0  0
  -23.9810  -13.1000   20.8630 C   0  0  0  0  0  0  0  0  0  0  0  0
  -24.4940  -11.7710   20.7560 C   0  0  0  0  0  0  0  0  0  0  0  0
  -26.0410  -13.0940   20.0880 N   0  0  0  0  0  0  0  0  0  0  0  0
  -25.7500  -11.7920   20.3370 N   0  0  0  0  0  0  0  0  0  0  0  0
  -23.8470  -10.4730   20.9760 C   0  0  0  0  0  0  0  0  0  0  0  0
  -24.3450   -9.5470   21.9180 C   0  0  0  0  0  3  0  0  0  0  0  0
  -23.6870   -8.3140   22.1250 C   0  0  0  0  0  3  0  0  0  0  0  0
  -22.5170   -8.0030   21.3900 C   0  0  0  0  0  0  0  0  0  0  0  0
  -22.0390   -8.9210   20.4370 C   0  0  0  0  0  3  0  0  0  0  0  0
  -22.6990  -10.1440   20.2290 C   0  0  0  0  0  3  0  0  0  0  0  0
  -21.8240   -6.8200   21.5120 O   0  0  0  0  0  0  0  0  0  0  0  0
  -21.7740   -6.1300   22.6970 C   0  0  0  0  0  0  0  0  0  0  0  0
  -21.2450   -6.7090   23.8720 C   0  0  0  0  0  3  0  0  0  0  0  0
  -21.1430   -5.9440   25.0490 C   0  0  0  0  0  3  0  0  0  0  0  0
  -21.5630   -4.5990   25.0540 C   0  0  0  0  0  0  0  0  0  0  0  0
  -22.0870   -4.0210   23.8850 C   0  0  0  0  0  3  0  0  0  0  0  0
  -22.1870   -4.7820   22.7090 C   0  0  0  0  0  0  0  0  0  0  0  0
  -22.6710   -4.2140   21.5770 F   0  0  0  0  0  0  0  0  0  0  0  0
  -21.4630   -3.8600   26.1840 F   0  0  0  0  0  0  0  0  0  0  0  0
  -22.5950  -13.5100   21.2650 C   0  0  0  0  0  0  0  0  0  0  0  0
  -21.9770  -12.7650   22.1730 N   0  0  0  0  0  0  0  0  0  0  0  0
  -22.0670  -14.5290   20.8190 O   0  0  0  0  0  0  0  0  0  0  0  0
  -22.4220  -11.9440   22.5510 H   0  0  0  0  0  0  0  0  0  0  0  0
  -21.0590  -13.0220   22.5000 H   0  0  0  0  0  0  0  0  0  0  0  0
  -25.0880  -15.3030   20.2790 N   0  0  0  0  0  0  0  0  0  0  0  0
  -24.3360  -15.9370   20.5220 H   0  0  0  0  0  0  0  0  0  0  0  0
  -25.9060  -15.7720   19.9140 H   0  0  0  0  0  0  0  0  0  0  0  0
  -27.5800  -25.0690   20.8670 C   0  0  0  0  0  2  0  0  0  0  0  0
  -28.5860  -26.2380   20.7700 C   0  0  0  0  0  2  0  0  0  0  0  0
  -28.3020  -27.1480   19.7050 O   0  0  0  0  0  0  0  0  0  0  0  0
  -24.5080  -31.9880   23.3380 C   0  0  0  0  0  0  0  0  0  0  0  0
  -27.1370  -27.8590   19.8520 C   0  0  0  0  0  0  0  0  0  0  0  0
  -23.2790  -30.6960   21.6240 C   0  0  0  0  0  3  0  0  0  0  0  0
  -24.7240  -29.2990   20.0520 C   0  0  0  0  0  0  0  0  0  0  0  0
  -25.7990  -31.1040   21.4050 C   0  0  0  0  0  2  0  0  0  0  0  0
  -25.8870  -29.7930   20.6580 C   0  0  0  0  0  0  0  0  0  0  0  0
  -27.0990  -29.0730   20.5690 C   0  0  0  0  0  3  0  0  0  0  0  0
  -25.9650  -27.3830   19.2330 C   0  0  0  0  0  3  0  0  0  0  0  0
  -24.7520  -28.0840   19.3480 C   0  0  0  0  0  3  0  0  0  0  0  0
  -23.4690  -30.1300   20.1910 C   0  0  0  0  0  2  0  0  0  0  0  0
  -24.5470  -31.2750   22.1790 N   0  0  0  0  0  0  0  0  0  0  0  0
  -23.4370  -32.1980   23.9230 O   0  0  0  0  0  0  0  0  0  0  0  0
  -22.6730  -29.5880   22.5130 C   0  0  0  0  0  0  0  0  0  0  0  0
  -21.3660  -29.3340   22.3390 N   0  0  0  0  0  0  0  0  0  0  0  0
  -23.3730  -28.9610   23.3120 O   0  0  0  0  0  0  0  0  0  0  0  0
  -20.8610  -29.8990   21.6720 H   0  0  0  0  0  0  0  0  0  0  0  0
  -18.0700  -27.8810   22.6240 C   0  0  0  0  0  0  0  0  0  0  0  0
  -20.5850  -28.3140   23.0380 C   0  0  0  0  0  3  0  0  0  0  0  0
  -20.8230  -26.9140   22.4240 C   0  0  0  0  0  2  0  0  0  0  0  0
  -19.7980  -26.5460   21.3460 C   0  0  0  0  0  2  0  0  0  0  0  0
  -18.3790  -26.5700   21.9220 C   0  0  0  0  0  2  0  0  0  0  0  0
  -19.1070  -28.7090   23.1340 C   0  0  0  0  0  0  0  0  0  0  0  0
  -18.7670  -29.9350   23.7440 C   0  0  0  0  0  3  0  0  0  0  0  0
  -17.4220  -30.3360   23.8540 C   0  0  0  0  0  3  0  0  0  0  0  0
  -16.3990  -29.5050   23.3650 C   0  0  0  0  0  3  0  0  0  0  0  0
  -16.7240  -28.2790   22.7570 C   0  0  0  0  0  3  0  0  0  0  0  0
  -25.8010  -32.5830   23.9750 C   0  0  0  0  0  3  0  0  0  0  0  0
  -25.5220  -33.9870   24.3060 N   0  0  0  0  0  0  0  0  0  0  0  0
  -25.8890  -35.0320   23.5540 C   0  0  0  0  0  0  0  0  0  0  0  0
  -26.5690  -34.9170   22.5300 O   0  0  0  0  0  0  0  0  0  0  0  0
  -24.9230  -34.1560   25.1020 H   0  0  0  0  0  0  0  0  0  0  0  0
  -24.2010  -36.8570   23.1820 C   0  0  0  0  0  1  0  0  0  0  0  0
  -25.4240  -36.4290   24.0080 C   0  0  0  0  0  3  0  0  0  0  0  0
  -27.5630  -37.2680   24.8690 C   0  0  0  0  0  1  0  0  0  0  0  0
  -26.4790  -37.4600   23.9090 N   0  0  0  0  0  0  0  0  0  0  0  0
  -26.0910  -38.3890   24.0520 H   0  0  0  0  0  0  0  0  0  0  0  0
  -26.2930  -31.7960   25.2510 C   0  0  1  0  0  0  0  0  0  0  0  0
  -25.1830  -31.5710   26.3040 C   0  0  0  0  0  1  0  0  0  0  0  0
  -26.8590  -30.4100   24.8590 C   0  0  0  0  0  1  0  0  0  0  0  0
  -27.4510  -32.5660   25.9290 C   0  0  0  0  0  1  0  0  0  0  0  0
  1 12  1  0
  1 11  2  0
  2 13  1  0
  2 14  1  0
  3 15  1  0
  3 13  1  0
  6  4  1  0
  7 14  1  0
  7  5  1  0
  9 25  1  0
  9 10  1  0
  9 16  1  0
 10  5  1  6
 10  4  1  0
 10  8  1  0
 11  2  2  0
 12  3  2  0
 14  6  1  0
 15 64  1  0
 16  8  1  0
 16 18  1  0
 17 15  1  0
 19 16  1  0
 20 21  1  0
 20  1  1  0
 21 22  1  0
 21 24  1  0
 23 21  1  0
 26 34  1  0
 27 32  1  0
 28 29  1  0
 28 27  1  0
 30 29  1  0
 30 39  1  0
 30 31  1  0
 32 26  1  0
 32 31  1  0
 33 26  2  0
 34 25  1  0
 34 35  1  0
 36 37  2  0
 37 56  1  0
 38 37  1  0
 38 41  1  0
 39 40  1  0
 39 36  1  0
 40 38  2  0
 41 42  1  0
 42 43  2  0
 44 47  1  0
 44 43  1  0
 45 44  2  0
 46 45  1  0
 46 41  2  0
 47 48  1  0
 48 53  2  0
 48 49  1  0
 49 50  2  0
 50 51  1  0
 51 55  1  0
 52 51  2  0
 53 52  1  0
 54 53  1  0
 56 57  1  0
 57 60  1  0
 57 59  1  0
 58 56  2  0
 61 36  1  0
 61 62  1  0
 63 61  1  0
 65 64  1  0
 66 68  1  0
 66 65  1  0
 67 78  2  0
 68 73  1  0
 69 77  1  0
 69 79  1  0
 70 76  1  0
 70 72  1  0
 71 77  1  0
 72 71  1  0
 73 72  2  0
 74 75  1  0
 74 68  2  0
 75 70  2  0
 76 69  1  0
 77 67  1  0
 79 81  2  0
 80 79  1  0
 82 80  1  0
 83 92  2  0
 83 88  1  0
 84 80  1  0
 84 88  1  0
 85 84  1  0
 86 87  1  0
 86 85  1  0
 87 83  1  0
 88 89  2  0
 89 90  1  0
 91 90  2  0
 92 91  1  0
 93 67  1  0
 93 94  1  0
 93103  1  0
 94 97  1  0
 95 99  1  0
 95 94  1  0
 96 95  2  0
 99 98  1  0
101 99  1  0
101102  1  0
101100  1  0
103106  1  1
103104  1  0
105103  1  0
M  ISO  4  26 100  34 100  65 101  66 101
M  END
>  <TORSDO>  (47) 
F 21

>  <SCORE>  (47) 
-10.558

>  <name>  (47) 
47

>  <ligand_id>  (47) 
47

>  <original_smiles>  (47) 
[H]c1c([H])c([H])c2c(c1[H])C([H])([H])C([H])([H])C([H])([H])C2([H])N([H])C(=O)C1([H])N(C(=O)C([H])(N([H])C(=O)C([H])(N([H])C([H])([H])[H])C([H])([H])[H])C(C([H])([H])[H])(C([H])([H])[H])C([H])([H])[H])C([H])([H])c2c([H])c(OC([H])([H])C([H])([H])N([H])c3nc(N4C([H])([H])C([H])([H])C5(C([H])([H])C4([H])[H])C([H])([H])[N+]([H])([H])C5([H])C([H])([H])N([H])C(=O)N4C([H])([H])C([H])([H])C([H])([H])C([H])(n5nc(-c6c([H])c([H])c(Oc7c([H])c([H])c(F)c([H])c7F)c([H])c6[H])c(C(=O)N([H])[H])c5N([H])[H])C4([H])[H])nc(C([H])([H])[N+]([H])([H])[H])n3)c([H])c([H])c2C1([H])[H]

>  <smiles>  (47) 
[H]c1c([H])c([H])c2c(c1[H])C([H])([H])C([H])([H])C([H])([H])C2([H])N([H])C(=O)C1([H])N(C(=O)C([H])(N([H])C(=O)C([H])(N([H])C([H])([H])[H])C([H])([H])[H])C(C([H])([H])[H])(C([H])([H])[H])C([H])([H])[H])C([H])([H])c2c([H])c(OC([H])([H])C([H])([H])N([H])c3nc(N4C([H])([H])C([H])([H])C5(C([H])([H])C4([H])[H])C([H])([H])[N+]([H])([H])C5([H])C([H])([H])N([H])C(=O)N4C([H])([H])C([H])([H])C([H])([H])C([H])(n5nc(-c6c([H])c([H])c(Oc7c([H])c([H])c(F)c([H])c7F)c([H])c6[H])c(C(=O)N([H])[H])c5N([H])[H])C4([H])[H])nc(C([H])([H])[N+]([H])([H])[H])n3)c([H])c([H])c2C1([H])[H]

$$$$
48:0:0
     RDKit          3D

100109  0  0  1  0  0  0  0  0999 V2000
  -28.0860  -24.5250   20.0460 C   0  0  0  0  0  2  0  0  0  0  0  0
  -29.3450  -24.1210   19.3820 N   0  0  0  0  0  4  0  0  0  0  0  0
  -30.1090  -24.3070   20.0100 H   0  0  0  0  0  0  0  0  0  0  0  0
  -29.5050  -24.6600   18.5450 H   0  0  0  0  0  0  0  0  0  0  0  0
  -29.4290  -22.7090   18.9560 C   0  0  0  0  0  2  0  0  0  0  0  0
  -30.6650  -22.0610   19.6180 C   0  0  0  0  0  3  0  0  0  0  0  0
  -31.8680  -22.5530   18.9550 N   0  0  0  0  0  0  0  0  0  0  0  0
  -31.9550  -22.0280   18.0880 H   0  0  0  0  0  0  0  0  0  0  0  0
  -32.6590  -22.2060   19.4890 H   0  0  0  0  0  0  0  0  0  0  0  0
  -30.6680  -20.5060   19.6240 C   0  0  0  0  0  2  0  0  0  0  0  0
  -31.8450  -19.9310   19.0310 O   0  0  0  0  0  0  0  0  0  0  0  0
  -35.3450  -16.0810   14.1940 C   0  0  0  0  0  0  0  0  0  0  0  0
  -31.7610  -19.2600   17.8290 C   0  0  0  0  0  0  0  0  0  0  0  0
  -33.0740  -16.8080   13.5520 C   0  0  0  0  0  3  0  0  0  0  0  0
  -31.6560  -17.7960   15.4180 C   0  0  0  0  0  0  0  0  0  0  0  0
  -33.6850  -16.4640   16.0130 C   0  0  0  0  0  2  0  0  0  0  0  0
  -32.6640  -17.5310   16.3500 C   0  0  0  0  0  0  0  0  0  0  0  0
  -32.7160  -18.2530   17.5620 C   0  0  0  0  0  3  0  0  0  0  0  0
  -30.7540  -19.5210   16.8700 C   0  0  0  0  0  3  0  0  0  0  0  0
  -30.7000  -18.7930   15.6680 C   0  0  0  0  0  3  0  0  0  0  0  0
  -31.6540  -16.9660   14.1580 C   0  0  0  0  0  2  0  0  0  0  0  0
  -34.0950  -16.4560   14.5890 N   0  0  0  0  0  0  0  0  0  0  0  0
  -35.6340  -15.9850   12.9930 O   0  0  0  0  0  0  0  0  0  0  0  0
  -33.4180  -18.0850   12.7510 C   0  0  0  0  0  0  0  0  0  0  0  0
  -33.7090  -17.9190   11.4510 N   0  0  0  0  0  0  0  0  0  0  0  0
  -33.3970  -19.1940   13.2900 O   0  0  0  0  0  0  0  0  0  0  0  0
  -33.7490  -16.9740   11.0990 H   0  0  0  0  0  0  0  0  0  0  0  0
  -35.8500  -18.8140    8.6760 C   0  0  0  0  0  0  0  0  0  0  0  0
  -34.0220  -18.9820   10.4950 C   0  0  0  0  0  3  0  0  0  0  0  0
  -33.0070  -19.0050    9.3310 C   0  0  0  0  0  2  0  0  0  0  0  0
  -33.4590  -18.1930    8.1120 C   0  0  0  0  0  2  0  0  0  0  0  0
  -34.7980  -18.7200    7.5830 C   0  0  0  0  0  2  0  0  0  0  0  0
  -35.4860  -18.9230   10.0440 C   0  0  0  0  0  0  0  0  0  0  0  0
  -36.5010  -18.9770   11.0240 C   0  0  0  0  0  3  0  0  0  0  0  0
  -37.8580  -18.9170   10.6570 C   0  0  0  0  0  3  0  0  0  0  0  0
  -38.2140  -18.8230    9.3000 C   0  0  0  0  0  3  0  0  0  0  0  0
  -37.2130  -18.7780    8.3120 C   0  0  0  0  0  3  0  0  0  0  0  0
  -36.4580  -15.7300   15.2290 C   0  0  0  0  0  3  0  0  0  0  0  0
  -37.2440  -14.6170   14.6750 N   0  0  0  0  0  0  0  0  0  0  0  0
  -37.0480  -13.3270   14.9800 C   0  0  0  0  0  0  0  0  0  0  0  0
  -36.2310  -12.9560   15.8260 O   0  0  0  0  0  0  0  0  0  0  0  0
  -37.9140  -14.8500   13.9550 H   0  0  0  0  0  0  0  0  0  0  0  0
  -36.9860  -11.4600   13.3040 C   0  0  0  0  0  1  0  0  0  0  0  0
  -37.8960  -12.2820   14.2310 C   0  0  0  0  0  3  0  0  0  0  0  0
  -39.7680  -12.0280   15.7990 C   0  0  0  0  0  1  0  0  0  0  0  0
  -38.6430  -11.3750   15.1330 N   0  0  0  0  0  0  0  0  0  0  0  0
  -38.9970  -10.5700   14.6230 H   0  0  0  0  0  0  0  0  0  0  0  0
  -37.3930  -16.9540   15.5780 C   0  0  1  0  0  0  0  0  0  0  0  0
  -37.6240  -17.9140   14.3880 C   0  0  0  0  0  1  0  0  0  0  0  0
  -36.8050  -17.7800   16.7460 C   0  0  0  0  0  1  0  0  0  0  0  0
  -38.7720  -16.4380   16.0560 C   0  0  0  0  0  1  0  0  0  0  0  0
  -28.2300  -25.8830   20.7640 C   0  0  0  0  0  2  0  0  0  0  0  0
  -37.4530  -28.7220   19.8000 C   0  0  0  0  0  0  0  0  0  0  0  0
  -39.4450  -28.1180   18.4640 C   0  0  0  0  0  2  0  0  0  0  0  0
  -39.1100  -27.9850   16.9650 C   0  0  0  0  0  2  0  0  0  0  0  0
  -38.6340  -26.5570   16.6400 C   0  0  0  0  0  2  0  0  0  0  0  0
  -37.5270  -26.0750   17.6090 C   0  0  0  0  0  3  0  0  0  0  0  0
  -37.9250  -26.3280   19.0760 C   0  0  0  0  0  2  0  0  0  0  0  0
  -38.2450  -27.7580   19.2440 N   0  0  0  0  0  0  0  0  0  0  0  0
  -37.7550  -29.9220   19.7410 O   0  0  0  0  0  0  0  0  0  0  0  0
  -30.0690  -27.0850   22.0670 C   0  0  0  0  0  3  0  0  0  0  0  0
  -31.4000  -27.5200   22.1470 C   0  0  0  0  0  3  0  0  0  0  0  0
  -30.6760  -25.9100   20.0410 C   0  0  0  0  0  3  0  0  0  0  0  0
  -29.6830  -26.3020   20.9590 C   0  0  0  0  0  0  0  0  0  0  0  0
  -32.3060  -27.1340   21.1460 C   0  0  0  0  0  0  0  0  0  0  0  0
  -34.6890  -26.7500   21.3280 C   0  0  0  0  0  2  0  0  0  0  0  0
  -33.7690  -28.6240   20.0290 C   0  0  0  0  0  2  0  0  0  0  0  0
  -36.0240  -27.5230   21.4420 C   0  0  0  0  0  2  0  0  0  0  0  0
  -35.1270  -29.3320   20.1340 C   0  0  0  0  0  2  0  0  0  0  0  0
  -31.9580  -26.3220   20.1280 N   0  0  0  0  0  0  0  0  0  0  0  0
  -33.5880  -27.6900   21.1360 N   0  0  0  0  0  0  0  0  0  0  0  0
  -36.2240  -28.3560   20.2410 N   0  0  0  0  0  0  0  0  0  0  0  0
  -36.3330  -24.0970   16.4750 C   0  0  0  0  0  0  0  0  0  0  0  0
  -36.4400  -22.7430   16.6510 C   0  0  0  0  0  0  0  0  0  0  0  0
  -37.3930  -22.5530   17.6960 C   0  0  0  0  0  0  0  0  0  0  0  0
  -37.1990  -24.6660   17.3960 N   0  0  0  0  0  0  0  0  0  0  0  0
  -37.7960  -23.7250   18.1710 N   0  0  0  0  0  0  0  0  0  0  0  0
  -37.9960  -21.3230   18.2310 C   0  0  0  0  0  0  0  0  0  0  0  0
  -37.4800  -20.6870   19.3810 C   0  0  0  0  0  3  0  0  0  0  0  0
  -38.0650  -19.4960   19.8620 C   0  0  0  0  0  3  0  0  0  0  0  0
  -39.1730  -18.9260   19.1900 C   0  0  0  0  0  0  0  0  0  0  0  0
  -39.6980  -19.5780   18.0600 C   0  0  0  0  0  3  0  0  0  0  0  0
  -39.1190  -20.7680   17.5870 C   0  0  0  0  0  3  0  0  0  0  0  0
  -39.8230  -17.7880   19.6000 O   0  0  0  0  0  0  0  0  0  0  0  0
  -39.1730  -16.8010   20.2960 C   0  0  0  0  0  0  0  0  0  0  0  0
  -38.3080  -15.8850   19.6580 C   0  0  0  0  0  3  0  0  0  0  0  0
  -37.7150  -14.8430   20.3990 C   0  0  0  0  0  3  0  0  0  0  0  0
  -37.9930  -14.7100   21.7720 C   0  0  0  0  0  0  0  0  0  0  0  0
  -38.8600  -15.6160   22.4080 C   0  0  0  0  0  3  0  0  0  0  0  0
  -39.4500  -16.6570   21.6710 C   0  0  0  0  0  0  0  0  0  0  0  0
  -40.3000  -17.5160   22.2830 F   0  0  0  0  0  0  0  0  0  0  0  0
  -37.4310  -13.7040   22.4840 F   0  0  0  0  0  0  0  0  0  0  0  0
  -35.7700  -21.6810   15.8270 C   0  0  0  0  0  0  0  0  0  0  0  0
  -34.8560  -20.9230   16.4280 N   0  0  0  0  0  0  0  0  0  0  0  0
  -36.0200  -21.5460   14.6300 O   0  0  0  0  0  0  0  0  0  0  0  0
  -34.6380  -21.0440   17.4040 H   0  0  0  0  0  0  0  0  0  0  0  0
  -34.3700  -20.2100   15.9010 H   0  0  0  0  0  0  0  0  0  0  0  0
  -35.5960  -24.8880   15.6000 N   0  0  0  0  0  0  0  0  0  0  0  0
  -35.0300  -24.4940   14.8560 H   0  0  0  0  0  0  0  0  0  0  0  0
  -35.6540  -25.8980   15.5610 H   0  0  0  0  0  0  0  0  0  0  0  0
  1 52  1  0
  2  3  1  0
  2  1  1  0
  4  2  1  0
  5  2  1  0
  6  5  1  0
  6 10  1  0
  7  9  1  0
  7  6  1  0
  8  7  1  0
 11 10  1  0
 12 22  1  0
 13 11  1  0
 14 24  1  0
 14 21  1  0
 14 22  1  0
 15 20  2  0
 15 17  1  0
 16 17  1  0
 17 18  2  0
 18 13  1  0
 19 13  2  0
 20 19  1  0
 21 15  1  0
 22 16  1  0
 23 12  2  0
 24 26  2  0
 25 24  1  0
 27 25  1  0
 28 33  1  0
 29 25  1  0
 30 29  1  0
 31 30  1  0
 32 31  1  0
 32 28  1  0
 33 29  1  0
 33 34  2  0
 35 34  1  0
 36 35  2  0
 37 28  2  0
 37 36  1  0
 38 12  1  0
 38 48  1  0
 39 40  1  0
 39 38  1  0
 40 41  2  0
 42 39  1  0
 44 43  1  0
 44 40  1  0
 44 46  1  0
 46 45  1  0
 47 46  1  0
 48 51  1  1
 48 50  1  0
 49 48  1  0
 52 64  1  0
 53 72  1  0
 54 59  1  0
 55 54  1  0
 56 55  1  0
 57 56  1  0
 57 58  1  0
 58 59  1  0
 59 53  1  0
 60 53  2  0
 61 62  1  0
 63 70  2  0
 63 64  1  0
 64 61  2  0
 65 62  2  0
 66 68  1  0
 67 69  1  0
 67 71  1  0
 69 72  1  0
 70 65  1  0
 71 65  1  0
 71 66  1  0
 72 68  1  0
 73 74  2  0
 73 76  1  0
 74 75  1  0
 75 77  2  0
 75 78  1  0
 76 57  1  0
 76 77  1  0
 78 79  1  0
 79 80  2  0
 81 84  1  0
 81 80  1  0
 82 81  2  0
 83 82  1  0
 83 78  2  0
 84 85  1  0
 85 90  1  0
 86 85  2  0
 86 87  1  0
 87 88  2  0
 88 89  1  0
 88 92  1  0
 90 91  1  0
 90 89  2  0
 93 94  1  0
 93 74  1  0
 94 96  1  0
 95 93  2  0
 97 94  1  0
 98 73  1  0
 99 98  1  0
100 98  1  0
M  ISO  4  10 101  11 101  53 100  72 100
M  END
>  <TORSDO>  (48) 
F 22

>  <SCORE>  (48) 
-2.290

>  <name>  (48) 
48

>  <ligand_id>  (48) 
48

>  <original_smiles>  (48) 
[H]c1nc(N2C([H])([H])C([H])([H])N(C(=O)N3C([H])([H])C([H])([H])C([H])([H])C([H])(n4nc(-c5c([H])c([H])c(Oc6c([H])c([H])c(F)c([H])c6F)c([H])c5[H])c(C(=O)N([H])[H])c4N([H])[H])C3([H])[H])C([H])([H])C2([H])[H])c([H])c([H])c1C([H])([H])C([H])([H])[N+]([H])([H])C([H])([H])C([H])(N([H])[H])C([H])([H])Oc1c([H])c([H])c2c(c1[H])C([H])([H])N(C(=O)C([H])(N([H])C(=O)C([H])(N([H])C([H])([H])[H])C([H])([H])[H])C(C([H])([H])[H])(C([H])([H])[H])C([H])([H])[H])C([H])(C(=O)N([H])C1([H])c3c([H])c([H])c([H])c([H])c3C([H])([H])C([H])([H])C1([H])[H])C2([H])[H]

>  <smiles>  (48) 
[H]c1nc(N2C([H])([H])C([H])([H])N(C(=O)N3C([H])([H])C([H])([H])C([H])([H])C([H])(n4nc(-c5c([H])c([H])c(Oc6c([H])c([H])c(F)c([H])c6F)c([H])c5[H])c(C(=O)N([H])[H])c4N([H])[H])C3([H])[H])C([H])([H])C2([H])[H])c([H])c([H])c1C([H])([H])C([H])([H])[N+]([H])([H])C([H])([H])C([H])(N([H])[H])C([H])([H])Oc1c([H])c([H])c2c(c1[H])C([H])([H])N(C(=O)C([H])(N([H])C(=O)C([H])(N([H])C([H])([H])[H])C([H])([H])[H])C(C([H])([H])[H])(C([H])([H])[H])C([H])([H])[H])C([H])(C(=O)N([H])C1([H])c3c([H])c([H])c([H])c([H])c3C([H])([H])C([H])([H])C1([H])[H])C2([H])[H]

$$$$
49:0:0
     RDKit          3D

 95104  0  0  1  0  0  0  0  0999 V2000
  -30.5140  -15.2610   20.2700 C   0  0  0  0  0  0  0  0  0  0  0  0
  -30.4560  -12.8000   19.4720 C   0  0  0  0  0  2  0  0  0  0  0  0
  -29.5650  -12.5460   18.2340 C   0  0  0  0  0  2  0  0  0  0  0  0
  -28.1130  -12.2860   18.6670 C   0  0  0  0  0  2  0  0  0  0  0  0
  -27.6360  -13.2940   19.7420 C   0  0  0  0  0  3  0  0  0  0  0  0
  -28.6630  -13.5110   20.8730 C   0  0  0  0  0  2  0  0  0  0  0  0
  -29.8980  -13.9810   20.2320 N   0  0  0  0  0  0  0  0  0  0  0  0
  -31.7330  -15.1920   20.0520 O   0  0  0  0  0  0  0  0  0  0  0  0
  -31.9050  -22.1670   19.9170 C   0  0  0  0  0  3  0  0  0  0  0  0
  -31.5990  -23.5200   19.7700 C   0  0  0  0  0  0  0  0  0  0  0  0
  -29.2750  -23.0970   19.9130 C   0  0  0  0  0  0  0  0  0  0  0  0
  -29.6190  -21.5390   20.0080 C   0  0  0  0  0  0  0  0  0  0  0  0
  -29.4220  -19.1060   18.9530 C   0  0  0  0  0  2  0  0  0  0  0  0
  -29.2650  -19.1450   21.2170 C   0  0  0  0  0  2  0  0  0  0  0  0
  -30.3440  -17.7390   19.2450 C   0  0  0  0  0  2  0  0  0  0  0  0
  -29.0390  -17.4730   21.0950 C   0  0  0  0  0  2  0  0  0  0  0  0
  -30.9450  -21.2370   20.0370 N   0  0  0  0  0  0  0  0  0  0  0  0
  -30.3260  -23.9550   19.7970 N   0  0  0  0  0  0  0  0  0  0  0  0
  -29.0410  -20.1120   20.0430 N   0  0  0  0  0  0  0  0  0  0  0  0
  -29.8500  -16.5880   20.1310 N   0  0  0  0  0  0  0  0  0  0  0  0
  -25.2610  -13.8570   20.4750 C   0  0  0  0  0  0  0  0  0  0  0  0
  -24.1950  -13.0810   20.8340 C   0  0  0  0  0  0  0  0  0  0  0  0
  -24.6630  -11.7310   20.8160 C   0  0  0  0  0  0  0  0  0  0  0  0
  -26.3050  -12.9800   20.2450 N   0  0  0  0  0  0  0  0  0  0  0  0
  -25.9570  -11.6950   20.5200 N   0  0  0  0  0  0  0  0  0  0  0  0
  -23.9320  -10.4700   21.0030 C   0  0  0  0  0  0  0  0  0  0  0  0
  -24.3460   -9.5070   21.9510 C   0  0  0  0  0  3  0  0  0  0  0  0
  -23.6120   -8.3140   22.1250 C   0  0  0  0  0  3  0  0  0  0  0  0
  -22.4530   -8.0730   21.3520 C   0  0  0  0  0  0  0  0  0  0  0  0
  -22.0590   -9.0230   20.3930 C   0  0  0  0  0  3  0  0  0  0  0  0
  -22.7930  -10.2080   20.2160 C   0  0  0  0  0  3  0  0  0  0  0  0
  -21.6930   -6.9310   21.4360 O   0  0  0  0  0  0  0  0  0  0  0  0
  -21.6090   -6.2060   22.5980 C   0  0  0  0  0  0  0  0  0  0  0  0
  -21.1410   -6.7790   23.8000 C   0  0  0  0  0  3  0  0  0  0  0  0
  -21.0020   -5.9810   24.9530 C   0  0  0  0  0  3  0  0  0  0  0  0
  -21.3230   -4.6110   24.9060 C   0  0  0  0  0  0  0  0  0  0  0  0
  -21.7840   -4.0380   23.7080 C   0  0  0  0  0  3  0  0  0  0  0  0
  -21.9240   -4.8330   22.5560 C   0  0  0  0  0  0  0  0  0  0  0  0
  -22.3490   -4.2700   21.3990 F   0  0  0  0  0  0  0  0  0  0  0  0
  -21.1840   -3.8420   26.0110 F   0  0  0  0  0  0  0  0  0  0  0  0
  -22.7960  -13.5620   21.0820 C   0  0  0  0  0  0  0  0  0  0  0  0
  -22.0590  -12.8800   21.9520 N   0  0  0  0  0  0  0  0  0  0  0  0
  -22.3640  -14.5770   20.5390 O   0  0  0  0  0  0  0  0  0  0  0  0
  -22.4200  -12.0590   22.4140 H   0  0  0  0  0  0  0  0  0  0  0  0
  -21.1190  -13.1860   22.1610 H   0  0  0  0  0  0  0  0  0  0  0  0
  -25.4280  -15.2270   20.2950 N   0  0  0  0  0  0  0  0  0  0  0  0
  -24.6630  -15.8840   20.4000 H   0  0  0  0  0  0  0  0  0  0  0  0
  -26.2820  -15.6630   19.9730 H   0  0  0  0  0  0  0  0  0  0  0  0
  -32.6860  -24.5600   19.5520 C   0  0  0  0  0  2  0  0  0  0  0  0
  -32.4330  -25.7630   20.3520 N   0  0  0  0  0  4  0  0  0  0  0  0
  -31.4950  -26.0700   20.1650 H   0  0  0  0  0  0  0  0  0  0  0  0
  -33.0820  -26.4880   20.1100 H   0  0  0  0  0  0  0  0  0  0  0  0
  -32.5150  -25.5480   21.3280 H   0  0  0  0  0  0  0  0  0  0  0  0
  -28.0200  -24.2660   19.8550 C   0  0  0  0  0  2  0  0  0  0  0  0
  -28.2350  -25.9010   19.9260 O   0  0  0  0  0  0  0  0  0  0  0  0
  -24.6700  -31.7460   23.0790 C   0  0  0  0  0  0  0  0  0  0  0  0
  -27.2070  -26.9740   19.9150 C   0  0  0  0  0  0  0  0  0  0  0  0
  -23.4650  -30.3990   21.4060 C   0  0  0  0  0  3  0  0  0  0  0  0
  -24.9040  -28.8350   19.9340 C   0  0  0  0  0  0  0  0  0  0  0  0
  -26.0290  -30.6190   21.2530 C   0  0  0  0  0  2  0  0  0  0  0  0
  -26.0960  -29.2310   20.5560 C   0  0  0  0  0  0  0  0  0  0  0  0
  -27.2430  -28.3220   20.5190 C   0  0  0  0  0  3  0  0  0  0  0  0
  -25.9850  -26.7220   19.2550 C   0  0  0  0  0  3  0  0  0  0  0  0
  -24.8730  -27.6020   19.2640 C   0  0  0  0  0  3  0  0  0  0  0  0
  -23.6860  -29.7540   20.0110 C   0  0  0  0  0  2  0  0  0  0  0  0
  -24.7430  -30.9470   21.9670 N   0  0  0  0  0  0  0  0  0  0  0  0
  -23.5830  -32.0220   23.6150 O   0  0  0  0  0  0  0  0  0  0  0  0
  -22.7770  -29.3760   22.3470 C   0  0  0  0  0  0  0  0  0  0  0  0
  -21.4410  -29.2380   22.2440 N   0  0  0  0  0  0  0  0  0  0  0  0
  -23.4500  -28.7080   23.1360 O   0  0  0  0  0  0  0  0  0  0  0  0
  -20.9520  -29.8270   21.5850 H   0  0  0  0  0  0  0  0  0  0  0  0
  -18.0460  -28.0960   22.8110 C   0  0  0  0  0  0  0  0  0  0  0  0
  -20.6200  -28.2840   22.9960 C   0  0  0  0  0  3  0  0  0  0  0  0
  -20.6610  -26.8800   22.3480 C   0  0  0  0  0  2  0  0  0  0  0  0
  -19.5170  -26.6380   21.3580 C   0  0  0  0  0  2  0  0  0  0  0  0
  -18.1630  -26.7810   22.0580 C   0  0  0  0  0  2  0  0  0  0  0  0
  -19.1990  -28.8080   23.2380 C   0  0  0  0  0  0  0  0  0  0  0  0
  -19.0320  -30.0400   23.9080 C   0  0  0  0  0  3  0  0  0  0  0  0
  -17.7460  -30.5600   24.1500 C   0  0  0  0  0  3  0  0  0  0  0  0
  -16.6090  -29.8440   23.7370 C   0  0  0  0  0  3  0  0  0  0  0  0
  -16.7600  -28.6130   23.0750 C   0  0  0  0  0  3  0  0  0  0  0  0
  -25.9440  -32.3690   23.7240 C   0  0  0  0  0  3  0  0  0  0  0  0
  -26.4670  -31.5550   24.9720 C   0  0  1  0  0  0  0  0  0  0  0  0
  -25.3800  -31.2820   26.0390 C   0  0  0  0  0  1  0  0  0  0  0  0
  -27.0490  -30.1910   24.5390 C   0  0  0  0  0  1  0  0  0  0  0  0
  -27.6210  -32.3290   25.6550 C   0  0  0  0  0  1  0  0  0  0  0  0
  -25.6220  -33.7520   24.1190 N   0  0  0  0  0  0  0  0  0  0  0  0
  -25.9280  -34.8450   23.4080 C   0  0  0  0  0  0  0  0  0  0  0  0
  -26.5730  -34.7970   22.3580 O   0  0  0  0  0  0  0  0  0  0  0  0
  -25.0460  -33.8610   24.9410 H   0  0  0  0  0  0  0  0  0  0  0  0
  -24.1730  -36.6380   23.1940 C   0  0  0  0  0  1  0  0  0  0  0  0
  -25.4440  -36.2080   23.9440 C   0  0  0  0  0  3  0  0  0  0  0  0
  -27.5940  -37.0840   24.7450 C   0  0  0  0  0  1  0  0  0  0  0  0
  -26.4620  -37.2770   23.8440 N   0  0  0  0  0  0  0  0  0  0  0  0
  -26.0510  -38.1870   24.0400 H   0  0  0  0  0  0  0  0  0  0  0  0
  2  7  1  0
  3  4  1  0
  3  2  1  0
  5  4  1  0
  5 24  1  0
  5  6  1  0
  7  1  1  0
  7  6  1  0
  8  1  2  0
  9 17  1  0
 10 18  1  0
 10  9  2  0
 11 12  1  0
 12 17  2  0
 12 19  1  0
 13 15  1  0
 13 19  1  0
 15 20  1  0
 16 14  1  0
 18 11  2  0
 19 14  1  0
 20  1  1  0
 20 16  1  0
 21 22  2  0
 22 41  1  0
 23 22  1  0
 23 26  1  0
 24 21  1  0
 24 25  1  0
 25 23  2  0
 26 27  1  0
 27 28  2  0
 29 32  1  0
 29 28  1  0
 30 29  2  0
 31 30  1  0
 31 26  2  0
 32 33  1  0
 33 34  1  0
 34 35  2  0
 36 35  1  0
 36 40  1  0
 37 36  2  0
 38 33  2  0
 38 37  1  0
 39 38  1  0
 41 42  1  0
 42 45  1  0
 42 44  1  0
 43 41  2  0
 46 47  1  0
 46 21  1  0
 48 46  1  0
 49 10  1  0
 49 50  1  0
 50 53  1  0
 51 50  1  0
 52 50  1  0
 54 11  1  0
 54 55  1  0
 56 67  2  0
 57 55  1  0
 57 62  1  0
 58 66  1  0
 58 68  1  0
 59 65  1  0
 59 61  1  0
 60 66  1  0
 61 60  1  0
 62 61  2  0
 63 64  1  0
 63 57  2  0
 64 59  2  0
 65 58  1  0
 66 56  1  0
 68 70  2  0
 69 68  1  0
 71 69  1  0
 72 81  2  0
 72 77  1  0
 73 69  1  0
 73 77  1  0
 74 73  1  0
 75 76  1  0
 75 74  1  0
 76 72  1  0
 77 78  2  0
 78 79  1  0
 80 79  2  0
 81 80  1  0
 82 56  1  0
 82 87  1  0
 82 83  1  0
 83 86  1  1
 83 84  1  0
 85 83  1  0
 87 90  1  0
 88 92  1  0
 88 87  1  0
 89 88  2  0
 92 91  1  0
 94 92  1  0
 94 95  1  0
 94 93  1  0
M  ISO  4   1 100  20 100  54 101  55 101
M  END
>  <TORSDO>  (49) 
F 18

>  <SCORE>  (49) 
-15.435

>  <name>  (49) 
49

>  <ligand_id>  (49) 
49

>  <original_smiles>  (49) 
[H]c1nc(N2C([H])([H])C([H])([H])N(C(=O)N3C([H])([H])C([H])([H])C([H])([H])C([H])(n4nc(-c5c([H])c([H])c(Oc6c([H])c([H])c(F)c([H])c6F)c([H])c5[H])c(C(=O)N([H])[H])c4N([H])[H])C3([H])[H])C([H])([H])C2([H])[H])c(C([H])([H])Oc2c([H])c([H])c3c(c2[H])C([H])([H])N(C(=O)C([H])(N([H])C(=O)C([H])(N([H])C([H])([H])[H])C([H])([H])[H])C(C([H])([H])[H])(C([H])([H])[H])C([H])([H])[H])C([H])(C(=O)N([H])C2([H])c4c([H])c([H])c([H])c([H])c4C([H])([H])C([H])([H])C2([H])[H])C3([H])[H])nc1C([H])([H])[N+]([H])([H])[H]

>  <smiles>  (49) 
[H]c1nc(N2C([H])([H])C([H])([H])N(C(=O)N3C([H])([H])C([H])([H])C([H])([H])C([H])(n4nc(-c5c([H])c([H])c(Oc6c([H])c([H])c(F)c([H])c6F)c([H])c5[H])c(C(=O)N([H])[H])c4N([H])[H])C3([H])[H])C([H])([H])C2([H])[H])c(C([H])([H])Oc2c([H])c([H])c3c(c2[H])C([H])([H])N(C(=O)C([H])(N([H])C(=O)C([H])(N([H])C([H])([H])[H])C([H])([H])[H])C(C([H])([H])[H])(C([H])([H])[H])C([H])([H])[H])C([H])(C(=O)N([H])C2([H])c4c([H])c([H])c([H])c([H])c4C([H])([H])C([H])([H])C2([H])[H])C3([H])[H])nc1C([H])([H])[N+]([H])([H])[H]

$$$$
50:0:0
     RDKit          3D

103114  0  0  1  0  0  0  0  0999 V2000
  -32.5140  -20.8800   20.9690 C   0  0  0  0  0  3  0  0  0  0  0  0
  -31.1810  -20.4770   21.2010 C   0  0  0  0  0  0  0  0  0  0  0  0
  -30.2600  -21.5230   21.4340 C   0  0  0  0  0  0  0  0  0  0  0  0
  -31.9110  -23.0580   21.1000 C   0  0  0  0  0  0  0  0  0  0  0  0
  -32.8720  -22.1790   20.9050 N   0  0  0  0  0  0  0  0  0  0  0  0
  -30.6520  -22.8070   21.4070 N   0  0  0  0  0  0  0  0  0  0  0  0
  -32.2570  -24.3620   20.8630 N   0  0  0  0  0  0  0  0  0  0  0  0
  -33.2380  -24.5170   20.6710 H   0  0  0  0  0  0  0  0  0  0  0  0
  -31.4130  -15.3650   19.6910 C   0  0  0  0  0  0  0  0  0  0  0  0
  -31.1570  -13.0670   18.8340 C   0  0  0  0  0  2  0  0  0  0  0  0
  -30.1580  -12.9980   17.6640 C   0  0  0  0  0  2  0  0  0  0  0  0
  -28.7160  -12.8510   18.1850 C   0  0  0  0  0  2  0  0  0  0  0  0
  -28.3640  -13.8780   19.2930 C   0  0  0  0  0  3  0  0  0  0  0  0
  -29.4670  -13.8990   20.3760 C   0  0  0  0  0  2  0  0  0  0  0  0
  -30.7590  -14.1740   19.7150 N   0  0  0  0  0  0  0  0  0  0  0  0
  -32.4230  -15.5670   19.0090 O   0  0  0  0  0  0  0  0  0  0  0  0
  -30.3980  -18.6160   19.8560 C   0  0  0  0  0  2  0  0  0  0  0  0
  -31.3590  -18.2220   22.1460 C   0  0  0  0  0  2  0  0  0  0  0  0
  -29.8760  -17.1850   20.0200 C   0  0  0  0  0  2  0  0  0  0  0  0
  -31.8740  -16.9140   21.5040 C   0  0  0  0  0  2  0  0  0  0  0  0
  -30.7800  -19.1350   21.1630 N   0  0  0  0  0  0  0  0  0  0  0  0
  -30.9440  -16.3090   20.5270 N   0  0  0  0  0  0  0  0  0  0  0  0
  -26.0600  -14.5140   20.2510 C   0  0  0  0  0  0  0  0  0  0  0  0
  -24.9960  -13.7520   20.6620 C   0  0  0  0  0  0  0  0  0  0  0  0
  -25.3970  -12.3930   20.4800 C   0  0  0  0  0  0  0  0  0  0  0  0
  -27.0450  -13.6170   19.8650 N   0  0  0  0  0  0  0  0  0  0  0  0
  -26.6530  -12.3310   20.0570 N   0  0  0  0  0  0  0  0  0  0  0  0
  -24.6370  -11.1460   20.6320 C   0  0  0  0  0  0  0  0  0  0  0  0
  -24.9720  -10.1930   21.6190 C   0  0  0  0  0  3  0  0  0  0  0  0
  -24.2170   -9.0070   21.7550 C   0  0  0  0  0  3  0  0  0  0  0  0
  -23.1120   -8.7640   20.9050 C   0  0  0  0  0  0  0  0  0  0  0  0
  -22.7990   -9.7070   19.9080 C   0  0  0  0  0  3  0  0  0  0  0  0
  -23.5530  -10.8850   19.7690 C   0  0  0  0  0  3  0  0  0  0  0  0
  -22.3350   -7.6300   20.9510 O   0  0  0  0  0  0  0  0  0  0  0  0
  -21.8680   -7.1270   22.1380 C   0  0  0  0  0  0  0  0  0  0  0  0
  -21.0510   -7.8890   23.0030 C   0  0  0  0  0  3  0  0  0  0  0  0
  -20.5410   -7.3060   24.1810 C   0  0  0  0  0  3  0  0  0  0  0  0
  -20.8310   -5.9640   24.4890 C   0  0  0  0  0  0  0  0  0  0  0  0
  -21.6390   -5.2040   23.6240 C   0  0  0  0  0  3  0  0  0  0  0  0
  -22.1550   -5.7840   22.4530 C   0  0  0  0  0  0  0  0  0  0  0  0
  -22.9160   -5.0410   21.6120 F   0  0  0  0  0  0  0  0  0  0  0  0
  -20.3340   -5.4030   25.6150 F   0  0  0  0  0  0  0  0  0  0  0  0
  -23.6470  -14.2540   21.0940 C   0  0  0  0  0  0  0  0  0  0  0  0
  -22.9690  -13.5230   21.9720 N   0  0  0  0  0  0  0  0  0  0  0  0
  -23.2030  -15.3230   20.6830 O   0  0  0  0  0  0  0  0  0  0  0  0
  -23.3410  -12.6580   22.3340 H   0  0  0  0  0  0  0  0  0  0  0  0
  -22.0700  -13.8440   22.3000 H   0  0  0  0  0  0  0  0  0  0  0  0
  -26.2600  -15.8850   20.1450 N   0  0  0  0  0  0  0  0  0  0  0  0
  -25.4970  -16.5370   20.2850 H   0  0  0  0  0  0  0  0  0  0  0  0
  -27.0560  -16.3010   19.6750 H   0  0  0  0  0  0  0  0  0  0  0  0
  -29.8790  -24.9190   20.2360 C   0  0  0  0  0  2  0  0  0  0  0  0
  -31.7870  -26.3700   19.4740 C   0  0  0  0  0  2  0  0  0  0  0  0
  -29.8200  -24.3140   18.8310 C   0  0  0  0  0  2  0  0  0  0  0  0
  -31.6290  -25.7620   18.0590 C   0  0  0  0  0  2  0  0  0  0  0  0
  -31.2940  -25.4350   20.5950 C   0  0  0  0  0  3  0  0  0  0  0  0
  -30.2310  -25.3120   17.8170 N   0  0  1  0  0  4  0  0  0  0  0  0
  -29.6440  -26.1230   17.9520 H   0  0  0  0  0  0  0  0  0  0  0  0
  -29.9650  -24.8390   16.4340 C   0  0  0  0  0  2  0  0  0  0  0  0
  -28.7580  -25.5680   15.8110 C   0  0  0  0  0  2  0  0  0  0  0  0
  -27.4850  -25.0590   16.2630 O   0  0  0  0  0  0  0  0  0  0  0  0
  -25.6420  -28.5060   22.2240 C   0  0  0  0  0  0  0  0  0  0  0  0
  -26.6260  -25.9380   16.9000 C   0  0  0  0  0  0  0  0  0  0  0  0
  -24.0040  -28.6430   20.3640 C   0  0  0  0  0  3  0  0  0  0  0  0
  -24.8260  -27.7720   18.1050 C   0  0  0  0  0  0  0  0  0  0  0  0
  -26.4880  -28.3270   19.8950 C   0  0  0  0  0  2  0  0  0  0  0  0
  -26.0900  -27.5560   18.6600 C   0  0  0  0  0  0  0  0  0  0  0  0
  -26.9780  -26.6400   18.0770 C   0  0  0  0  0  3  0  0  0  0  0  0
  -25.3350  -26.1440   16.3610 C   0  0  0  0  0  3  0  0  0  0  0  0
  -24.4360  -27.0600   16.9540 C   0  0  0  0  0  3  0  0  0  0  0  0
  -23.9450  -28.7760   18.8130 C   0  0  0  0  0  2  0  0  0  0  0  0
  -25.3990  -28.4650   20.8820 N   0  0  0  0  0  0  0  0  0  0  0  0
  -24.7320  -28.7400   23.0310 O   0  0  0  0  0  0  0  0  0  0  0  0
  -23.0470  -27.5100   20.7890 C   0  0  0  0  0  0  0  0  0  0  0  0
  -21.7420  -27.8210   20.8370 N   0  0  0  0  0  0  0  0  0  0  0  0
  -23.4760  -26.3780   21.0350 O   0  0  0  0  0  0  0  0  0  0  0  0
  -21.4760  -28.7730   20.6290 H   0  0  0  0  0  0  0  0  0  0  0  0
  -18.1700  -27.6110   21.2970 C   0  0  0  0  0  0  0  0  0  0  0  0
  -20.6520  -26.9060   21.1660 C   0  0  0  0  0  3  0  0  0  0  0  0
  -20.2420  -26.0630   19.9370 C   0  0  0  0  0  2  0  0  0  0  0  0
  -19.0980  -26.6850   19.1320 C   0  0  0  0  0  2  0  0  0  0  0  0
  -17.8560  -26.8620   20.0110 C   0  0  0  0  0  2  0  0  0  0  0  0
  -19.4850  -27.6450   21.8310 C   0  0  0  0  0  0  0  0  0  0  0  0
  -19.7300  -28.3860   23.0070 C   0  0  0  0  0  3  0  0  0  0  0  0
  -18.6880  -29.0800   23.6490 C   0  0  0  0  0  3  0  0  0  0  0  0
  -17.3840  -29.0280   23.1290 C   0  0  0  0  0  3  0  0  0  0  0  0
  -17.1260  -28.2910   21.9590 C   0  0  0  0  0  3  0  0  0  0  0  0
  -27.0750  -28.2850   22.8090 C   0  0  0  0  0  3  0  0  0  0  0  0
  -27.3440  -26.7960   23.2560 C   0  0  1  0  0  0  0  0  0  0  0  0
  -26.2730  -26.2330   24.2180 C   0  0  0  0  0  1  0  0  0  0  0  0
  -27.4120  -25.8650   22.0240 C   0  0  0  0  0  1  0  0  0  0  0  0
  -28.7180  -26.7010   23.9610 C   0  0  0  0  0  1  0  0  0  0  0  0
  -27.2380  -29.2100   23.9380 N   0  0  0  0  0  0  0  0  0  0  0  0
  -27.9580  -30.3400   23.8970 C   0  0  0  0  0  0  0  0  0  0  0  0
  -28.6200  -30.6790   22.9120 O   0  0  0  0  0  0  0  0  0  0  0  0
  -26.6830  -29.0220   24.7590 H   0  0  0  0  0  0  0  0  0  0  0  0
  -26.9700  -32.4070   24.9270 C   0  0  0  0  0  1  0  0  0  0  0  0
  -27.9400  -31.2370   25.1490 C   0  0  0  0  0  3  0  0  0  0  0  0
  -30.1760  -30.7240   26.0250 C   0  0  0  0  0  1  0  0  0  0  0  0
  -29.2750  -31.7580   25.5190 N   0  0  0  0  0  0  0  0  0  0  0  0
  -29.1950  -32.4830   26.2270 H   0  0  0  0  0  0  0  0  0  0  0  0
  -27.7380  -21.3930   20.6170 C   0  0  0  0  0  2  0  0  0  0  0  0
  -27.8430  -22.5150   21.6120 C   0  0  0  0  0  2  0  0  0  0  0  0
  -28.7920  -21.3340   21.7050 C   0  0  0  0  0  3  0  0  0  0  0  0
  1  2  2  0
  2  3  1  0
  3103  1  0
  4  6  1  0
  5  1  1  0
  5  4  2  0
  6  3  2  0
  7  4  1  0
  8  7  1  0
  9 15  1  0
  9 22  1  0
 10 15  1  0
 11 12  1  0
 11 10  1  0
 13 12  1  0
 13 26  1  0
 13 14  1  0
 15 14  1  0
 16  9  2  0
 17 19  1  0
 17 21  1  0
 19 22  1  0
 20 18  1  0
 21  2  1  0
 21 18  1  0
 22 20  1  0
 23 24  2  0
 24 43  1  0
 25 28  1  0
 25 24  1  0
 26 27  1  0
 26 23  1  0
 27 25  2  0
 28 29  1  0
 29 30  2  0
 31 34  1  0
 31 30  1  0
 32 31  2  0
 33 32  1  0
 33 28  2  0
 34 35  1  0
 35 40  2  0
 35 36  1  0
 36 37  2  0
 37 38  1  0
 38 42  1  0
 39 38  2  0
 40 39  1  0
 41 40  1  0
 43 44  1  0
 44 47  1  0
 44 46  1  0
 45 43  2  0
 48 23  1  0
 48 49  1  0
 50 48  1  0
 51 55  1  0
 52 55  1  0
 53 51  1  0
 54 52  1  0
 55  7  1  0
 56 57  1  1
 56 54  1  0
 56 53  1  0
 58 56  1  0
 59 60  1  0
 59 58  1  0
 60 62  1  0
 61 72  2  0
 62 67  1  0
 63 73  1  0
 63 71  1  0
 64 66  1  0
 64 70  1  0
 65 71  1  0
 66 65  1  0
 67 66  2  0
 68 62  2  0
 68 69  1  0
 69 64  2  0
 70 63  1  0
 71 61  1  0
 73 74  1  0
 73 75  2  0
 76 74  1  0
 77 82  2  0
 77 86  1  0
 78 74  1  0
 78 82  1  0
 79 78  1  0
 80 79  1  0
 80 81  1  0
 81 77  1  0
 82 83  1  0
 83 84  2  0
 85 84  1  0
 86 85  2  0
 87 61  1  0
 87 88  1  0
 87 92  1  0
 88 91  1  1
 88 89  1  0
 90 88  1  0
 92 95  1  0
 93 92  1  0
 93 97  1  0
 94 93  2  0
 97 96  1  0
 97 99  1  0
 99 98  1  0
 99100  1  0
101102  1  0
101103  1  0
102103  1  0
M  ISO  4   9 100  22 100  59 101  60 101
M  END
>  <TORSDO>  (50) 
F 20

>  <SCORE>  (50) 
-8.475

>  <name>  (50) 
50

>  <ligand_id>  (50) 
50

>  <original_smiles>  (50) 
[H]c1nc(N([H])C2([H])C([H])([H])C([H])([H])[N+]([H])(C([H])([H])C([H])([H])Oc3c([H])c([H])c4c(c3[H])C([H])([H])N(C(=O)C([H])(N([H])C(=O)C([H])(N([H])C([H])([H])[H])C([H])([H])[H])C(C([H])([H])[H])(C([H])([H])[H])C([H])([H])[H])C([H])(C(=O)N([H])C3([H])c5c([H])c([H])c([H])c([H])c5C([H])([H])C([H])([H])C3([H])[H])C4([H])[H])C([H])([H])C2([H])[H])nc(C2([H])C([H])([H])C2([H])[H])c1N1C([H])([H])C([H])([H])N(C(=O)N2C([H])([H])C([H])([H])C([H])([H])C([H])(n3nc(-c4c([H])c([H])c(Oc5c([H])c([H])c(F)c([H])c5F)c([H])c4[H])c(C(=O)N([H])[H])c3N([H])[H])C2([H])[H])C([H])([H])C1([H])[H]

>  <smiles>  (50) 
[H]c1nc(N([H])C2([H])C([H])([H])C([H])([H])[N+]([H])(C([H])([H])C([H])([H])Oc3c([H])c([H])c4c(c3[H])C([H])([H])N(C(=O)C([H])(N([H])C(=O)C([H])(N([H])C([H])([H])[H])C([H])([H])[H])C(C([H])([H])[H])(C([H])([H])[H])C([H])([H])[H])C([H])(C(=O)N([H])C3([H])c5c([H])c([H])c([H])c([H])c5C([H])([H])C([H])([H])C3([H])[H])C4([H])[H])C([H])([H])C2([H])[H])nc(C2([H])C([H])([H])C2([H])[H])c1N1C([H])([H])C([H])([H])N(C(=O)N2C([H])([H])C([H])([H])C([H])([H])C([H])(n3nc(-c4c([H])c([H])c(Oc5c([H])c([H])c(F)c([H])c5F)c([H])c4[H])c(C(=O)N([H])[H])c3N([H])[H])C2([H])[H])C([H])([H])C1([H])[H]

$$$$
51:0:0
     RDKit          3D

 94103  0  0  1  0  0  0  0  0999 V2000
  -26.7110  -21.8500   19.7820 C   0  0  0  0  0  2  0  0  0  0  0  0
  -27.1670  -22.2670   21.1830 C   0  0  0  0  0  2  0  0  0  0  0  0
  -27.7590  -22.4870   18.8540 C   0  0  0  0  0  2  0  0  0  0  0  0
  -28.7050  -22.2140   21.0510 C   0  0  0  0  0  3  0  0  0  0  0  0
  -28.9340  -22.8310   19.6980 N   0  0  2  0  0  4  0  0  0  0  0  0
  -29.7440  -22.3310   19.3530 H   0  0  0  0  0  0  0  0  0  0  0  0
  -29.1820  -20.7140   21.3500 C   0  0  0  0  0  0  0  0  0  0  0  0
  -29.2630  -19.6860   20.4440 N   0  0  0  0  0  0  0  0  0  0  0  0
  -29.4370  -20.4610   22.5280 O   0  0  0  0  0  0  0  0  0  0  0  0
  -29.0700  -19.9140   19.4810 H   0  0  0  0  0  0  0  0  0  0  0  0
  -29.2750  -18.2040   20.7810 C   0  0  0  0  0  2  0  0  0  0  0  0
  -31.1840  -14.9080   19.9710 C   0  0  0  0  0  0  0  0  0  0  0  0
  -30.8440  -12.6530   18.9990 C   0  0  0  0  0  2  0  0  0  0  0  0
  -29.8720  -12.7010   17.8120 C   0  0  0  0  0  2  0  0  0  0  0  0
  -28.4220  -12.5240   18.3020 C   0  0  0  0  0  2  0  0  0  0  0  0
  -28.0880  -13.4600   19.5010 C   0  0  0  0  0  3  0  0  0  0  0  0
  -29.1870  -13.4420   20.5780 C   0  0  0  0  0  2  0  0  0  0  0  0
  -30.4610  -13.7490   19.9140 N   0  0  0  0  0  0  0  0  0  0  0  0
  -32.3860  -14.8940   19.7040 O   0  0  0  0  0  0  0  0  0  0  0  0
  -31.6550  -17.8650   19.6680 C   0  0  0  0  0  2  0  0  0  0  0  0
  -30.9430  -16.9410   18.6900 C   0  0  0  0  0  2  0  0  0  0  0  0
  -30.6200  -17.3870   20.6650 C   0  0  0  0  0  3  0  0  0  0  0  0
  -30.5070  -16.1100   19.8430 N   0  0  0  0  0  0  0  0  0  0  0  0
  -25.7560  -14.0620   20.3920 C   0  0  0  0  0  0  0  0  0  0  0  0
  -24.7030  -13.2810   20.8050 C   0  0  0  0  0  0  0  0  0  0  0  0
  -25.1440  -11.9300   20.6850 C   0  0  0  0  0  0  0  0  0  0  0  0
  -26.7690  -13.1740   20.0570 N   0  0  0  0  0  0  0  0  0  0  0  0
  -26.4100  -11.8870   20.2960 N   0  0  0  0  0  0  0  0  0  0  0  0
  -24.4180  -10.6650   20.8600 C   0  0  0  0  0  0  0  0  0  0  0  0
  -24.8180   -9.7020   21.8120 C   0  0  0  0  0  3  0  0  0  0  0  0
  -24.0840   -8.5050   21.9740 C   0  0  0  0  0  3  0  0  0  0  0  0
  -22.9370   -8.2660   21.1750 C   0  0  0  0  0  0  0  0  0  0  0  0
  -22.5600   -9.2180   20.2090 C   0  0  0  0  0  3  0  0  0  0  0  0
  -23.3000  -10.4040   20.0470 C   0  0  0  0  0  3  0  0  0  0  0  0
  -22.1760   -7.1220   21.2510 O   0  0  0  0  0  0  0  0  0  0  0  0
  -21.9630   -6.4740   22.4390 C   0  0  0  0  0  0  0  0  0  0  0  0
  -21.3740   -7.1180   23.5490 C   0  0  0  0  0  3  0  0  0  0  0  0
  -21.1180   -6.3890   24.7300 C   0  0  0  0  0  3  0  0  0  0  0  0
  -21.4370   -5.0200   24.7920 C   0  0  0  0  0  0  0  0  0  0  0  0
  -22.0250   -4.3790   23.6860 C   0  0  0  0  0  3  0  0  0  0  0  0
  -22.2830   -5.1020   22.5130 C   0  0  0  0  0  0  0  0  0  0  0  0
  -22.8280   -4.4730   21.4420 F   0  0  0  0  0  0  0  0  0  0  0  0
  -21.1810   -4.3200   25.9220 F   0  0  0  0  0  0  0  0  0  0  0  0
  -23.3370  -13.7670   21.1960 C   0  0  0  0  0  0  0  0  0  0  0  0
  -22.6550  -13.0550   22.0930 N   0  0  0  0  0  0  0  0  0  0  0  0
  -22.8730  -14.8080   20.7340 O   0  0  0  0  0  0  0  0  0  0  0  0
  -23.0230  -12.2130   22.5110 H   0  0  0  0  0  0  0  0  0  0  0  0
  -21.7310  -13.3660   22.3620 H   0  0  0  0  0  0  0  0  0  0  0  0
  -25.9250  -15.4360   20.2500 N   0  0  0  0  0  0  0  0  0  0  0  0
  -25.1780  -16.1140   20.3890 H   0  0  0  0  0  0  0  0  0  0  0  0
  -26.7610  -15.8700   19.8870 H   0  0  0  0  0  0  0  0  0  0  0  0
  -29.3240  -24.3100   19.5820 C   0  0  0  0  0  2  0  0  0  0  0  0
  -28.2890  -25.4520   19.9490 C   0  0  0  0  0  2  0  0  0  0  0  0
  -28.5160  -26.7730   19.3320 O   0  0  0  0  0  0  0  0  0  0  0  0
  -24.8410  -31.6080   23.0910 C   0  0  0  0  0  0  0  0  0  0  0  0
  -27.4100  -27.6160   19.3690 C   0  0  0  0  0  0  0  0  0  0  0  0
  -23.6040  -30.4280   21.3070 C   0  0  0  0  0  3  0  0  0  0  0  0
  -25.0330  -29.1610   19.6120 C   0  0  0  0  0  0  0  0  0  0  0  0
  -26.1230  -30.8450   21.0850 C   0  0  0  0  0  2  0  0  0  0  0  0
  -26.2070  -29.5810   20.2480 C   0  0  0  0  0  0  0  0  0  0  0  0
  -27.4000  -28.8140   20.1310 C   0  0  0  0  0  3  0  0  0  0  0  0
  -26.2310  -27.2640   18.6730 C   0  0  0  0  0  3  0  0  0  0  0  0
  -25.0490  -28.0140   18.8050 C   0  0  0  0  0  3  0  0  0  0  0  0
  -23.7780  -29.9800   19.8320 C   0  0  0  0  0  2  0  0  0  0  0  0
  -24.8780  -30.9640   21.8890 N   0  0  0  0  0  0  0  0  0  0  0  0
  -23.7730  -31.7740   23.6970 O   0  0  0  0  0  0  0  0  0  0  0  0
  -23.0110  -29.2530   22.1210 C   0  0  0  0  0  0  0  0  0  0  0  0
  -21.6820  -29.0670   22.0360 N   0  0  0  0  0  0  0  0  0  0  0  0
  -23.7420  -28.5240   22.7980 O   0  0  0  0  0  0  0  0  0  0  0  0
  -21.1440  -29.7150   21.4800 H   0  0  0  0  0  0  0  0  0  0  0  0
  -18.3600  -27.7310   22.4890 C   0  0  0  0  0  0  0  0  0  0  0  0
  -20.9200  -28.0070   22.7000 C   0  0  0  0  0  3  0  0  0  0  0  0
  -21.0240  -26.6700   21.9270 C   0  0  0  0  0  2  0  0  0  0  0  0
  -19.8890  -26.4690   20.9180 C   0  0  0  0  0  2  0  0  0  0  0  0
  -18.5320  -26.4940   21.6260 C   0  0  0  0  0  2  0  0  0  0  0  0
  -19.4800  -28.4490   22.9820 C   0  0  0  0  0  0  0  0  0  0  0  0
  -19.2620  -29.6150   23.7490 C   0  0  0  0  0  3  0  0  0  0  0  0
  -17.9550  -30.0600   24.0250 C   0  0  0  0  0  3  0  0  0  0  0  0
  -16.8490  -29.3340   23.5500 C   0  0  0  0  0  3  0  0  0  0  0  0
  -17.0520  -28.1700   22.7870 C   0  0  0  0  0  3  0  0  0  0  0  0
  -26.1330  -32.1830   23.7480 C   0  0  0  0  0  3  0  0  0  0  0  0
  -26.7080  -31.2680   24.8970 C   0  0  1  0  0  0  0  0  0  0  0  0
  -25.6650  -30.8780   25.9680 C   0  0  0  0  0  1  0  0  0  0  0  0
  -27.2920  -29.9640   24.3070 C   0  0  0  0  0  1  0  0  0  0  0  0
  -27.8690  -31.9920   25.6190 C   0  0  0  0  0  1  0  0  0  0  0  0
  -25.8110  -33.5210   24.2620 N   0  0  0  0  0  0  0  0  0  0  0  0
  -26.1010  -34.6680   23.6350 C   0  0  0  0  0  0  0  0  0  0  0  0
  -26.7400  -34.7130   22.5790 O   0  0  0  0  0  0  0  0  0  0  0  0
  -25.2440  -33.5620   25.0960 H   0  0  0  0  0  0  0  0  0  0  0  0
  -24.3340  -36.4580   23.5600 C   0  0  0  0  0  1  0  0  0  0  0  0
  -25.6020  -35.9740   24.2810 C   0  0  0  0  0  3  0  0  0  0  0  0
  -27.7420  -36.7900   25.1680 C   0  0  0  0  0  1  0  0  0  0  0  0
  -26.6120  -37.0550   24.2830 N   0  0  0  0  0  0  0  0  0  0  0  0
  -26.1920  -37.9370   24.5650 H   0  0  0  0  0  0  0  0  0  0  0  0
  1  2  1  0
  3  5  1  0
  3  1  1  0
  4  2  1  0
  4  7  1  0
  5  4  1  0
  5  6  1  6
  7  9  2  0
  8 11  1  0
  8  7  1  0
 10  8  1  0
 13 18  1  0
 14 15  1  0
 14 13  1  0
 16 15  1  0
 16 27  1  0
 16 17  1  0
 18 12  1  0
 18 17  1  0
 19 12  2  0
 20 22  1  0
 21 20  1  0
 21 23  1  0
 22 11  1  0
 23 12  1  0
 23 22  1  0
 24 25  2  0
 25 44  1  0
 26 25  1  0
 26 29  1  0
 27 28  1  0
 27 24  1  0
 28 26  2  0
 29 30  1  0
 30 31  2  0
 32 35  1  0
 32 31  1  0
 33 32  2  0
 34 33  1  0
 34 29  2  0
 35 36  1  0
 36 41  2  0
 36 37  1  0
 37 38  2  0
 38 39  1  0
 39 43  1  0
 40 39  2  0
 41 40  1  0
 42 41  1  0
 44 45  1  0
 45 48  1  0
 45 47  1  0
 46 44  2  0
 49 50  1  0
 49 24  1  0
 51 49  1  0
 52  5  1  0
 52 53  1  0
 54 56  1  0
 54 53  1  0
 55 66  2  0
 56 61  1  0
 57 65  1  0
 57 67  1  0
 58 64  1  0
 58 60  1  0
 59 65  1  0
 60 59  1  0
 61 60  2  0
 62 63  1  0
 62 56  2  0
 63 58  2  0
 64 57  1  0
 65 55  1  0
 67 69  2  0
 68 67  1  0
 70 68  1  0
 71 80  2  0
 71 76  1  0
 72 68  1  0
 72 76  1  0
 73 72  1  0
 74 75  1  0
 74 73  1  0
 75 71  1  0
 76 77  2  0
 77 78  1  0
 79 78  2  0
 80 79  1  0
 81 55  1  0
 81 86  1  0
 81 82  1  0
 82 85  1  1
 82 83  1  0
 84 82  1  0
 86 89  1  0
 87 86  1  0
 87 91  1  0
 88 87  2  0
 91 90  1  0
 91 93  1  0
 93 94  1  0
 93 92  1  0
M  ISO  4  12 100  23 100  53 101  54 101
M  END
>  <TORSDO>  (51) 
F 20

>  <SCORE>  (51) 
-11.239

>  <name>  (51) 
51

>  <ligand_id>  (51) 
51

>  <original_smiles>  (51) 
[H]c1c([H])c([H])c2c(c1[H])C([H])([H])C([H])([H])C([H])([H])C2([H])N([H])C(=O)C1([H])N(C(=O)C([H])(N([H])C(=O)C([H])(N([H])C([H])([H])[H])C([H])([H])[H])C(C([H])([H])[H])(C([H])([H])[H])C([H])([H])[H])C([H])([H])c2c([H])c(OC([H])([H])C([H])([H])[N+]3([H])C([H])([H])C([H])([H])C([H])([H])C3([H])C(=O)N([H])C([H])([H])C3([H])N(C(=O)N4C([H])([H])C([H])([H])C([H])([H])C([H])(n5nc(-c6c([H])c([H])c(Oc7c([H])c([H])c(F)c([H])c7F)c([H])c6[H])c(C(=O)N([H])[H])c5N([H])[H])C4([H])[H])C([H])([H])C3([H])[H])c([H])c([H])c2C1([H])[H]

>  <smiles>  (51) 
[H]c1c([H])c([H])c2c(c1[H])C([H])([H])C([H])([H])C([H])([H])C2([H])N([H])C(=O)C1([H])N(C(=O)C([H])(N([H])C(=O)C([H])(N([H])C([H])([H])[H])C([H])([H])[H])C(C([H])([H])[H])(C([H])([H])[H])C([H])([H])[H])C([H])([H])c2c([H])c(OC([H])([H])C([H])([H])[N+]3([H])C([H])([H])C([H])([H])C([H])([H])C3([H])C(=O)N([H])C([H])([H])C3([H])N(C(=O)N4C([H])([H])C([H])([H])C([H])([H])C([H])(n5nc(-c6c([H])c([H])c(Oc7c([H])c([H])c(F)c([H])c7F)c([H])c6[H])c(C(=O)N([H])[H])c5N([H])[H])C4([H])[H])C([H])([H])C3([H])[H])c([H])c([H])c2C1([H])[H]

$$$$
52:0:0
     RDKit          3D

 97107  0  0  1  0  0  0  0  0999 V2000
  -30.0130  -21.2190   18.2520 N   0  0  0  0  0  4  0  0  0  0  0  0
  -30.9620  -21.5030   18.0750 H   0  0  0  0  0  0  0  0  0  0  0  0
  -29.6940  -20.7340   17.4300 H   0  0  0  0  0  0  0  0  0  0  0  0
  -27.6810  -22.1740   18.3380 C   0  0  0  0  0  2  0  0  0  0  0  0
  -27.0710  -23.4230   17.6670 C   0  0  0  0  0  2  0  0  0  0  0  0
  -29.4180  -23.4840   17.3340 C   0  0  0  0  0  2  0  0  0  0  0  0
  -29.1880  -22.4370   18.4380 C   0  0  0  0  0  3  0  0  0  0  0  0
  -28.1900  -24.2770   17.2480 N   0  0  0  0  0  0  0  0  0  0  0  0
  -28.2460  -25.6060   17.8840 C   0  0  0  0  0  3  0  0  0  0  0  0
  -28.4150  -25.5890   19.4310 C   0  0  0  0  0  3  0  0  0  0  0  0
  -28.3540  -26.8660   20.0750 O   0  0  0  0  0  0  0  0  0  0  0  0
  -24.5600  -31.9850   23.2880 C   0  0  0  0  0  0  0  0  0  0  0  0
  -27.1470  -27.5280   20.1590 C   0  0  0  0  0  0  0  0  0  0  0  0
  -23.3240  -30.5870   21.6680 C   0  0  0  0  0  3  0  0  0  0  0  0
  -24.7490  -29.0310   20.2430 C   0  0  0  0  0  0  0  0  0  0  0  0
  -25.8510  -30.9270   21.4420 C   0  0  0  0  0  2  0  0  0  0  0  0
  -25.9210  -29.5550   20.8030 C   0  0  0  0  0  0  0  0  0  0  0  0
  -27.1220  -28.8130   20.7530 C   0  0  0  0  0  3  0  0  0  0  0  0
  -25.9360  -26.9940   19.6560 C   0  0  0  0  0  3  0  0  0  0  0  0
  -24.7490  -27.7460   19.6800 C   0  0  0  0  0  3  0  0  0  0  0  0
  -23.5150  -29.9000   20.2910 C   0  0  0  0  0  2  0  0  0  0  0  0
  -24.5970  -31.1790   22.1880 N   0  0  0  0  0  0  0  0  0  0  0  0
  -23.4860  -32.2680   23.8370 O   0  0  0  0  0  0  0  0  0  0  0  0
  -22.6850  -29.5660   22.6360 C   0  0  0  0  0  0  0  0  0  0  0  0
  -21.3660  -29.3510   22.4870 N   0  0  0  0  0  0  0  0  0  0  0  0
  -23.3670  -28.9720   23.4750 O   0  0  0  0  0  0  0  0  0  0  0  0
  -20.8800  -29.8880   21.7800 H   0  0  0  0  0  0  0  0  0  0  0  0
  -18.0130  -28.0760   22.9060 C   0  0  0  0  0  0  0  0  0  0  0  0
  -20.5500  -28.4160   23.2590 C   0  0  0  0  0  3  0  0  0  0  0  0
  -20.7140  -26.9710   22.7350 C   0  0  0  0  0  2  0  0  0  0  0  0
  -19.6590  -26.5820   21.6940 C   0  0  0  0  0  2  0  0  0  0  0  0
  -18.2510  -26.7080   22.2850 C   0  0  0  0  0  2  0  0  0  0  0  0
  -19.0950  -28.8830   23.3480 C   0  0  0  0  0  0  0  0  0  0  0  0
  -18.8240  -30.1600   23.8850 C   0  0  0  0  0  3  0  0  0  0  0  0
  -17.5030  -30.6350   23.9840 C   0  0  0  0  0  3  0  0  0  0  0  0
  -16.4340  -29.8250   23.5630 C   0  0  0  0  0  3  0  0  0  0  0  0
  -16.6890  -28.5460   23.0340 C   0  0  0  0  0  3  0  0  0  0  0  0
  -25.8570  -32.6100   23.8900 C   0  0  0  0  0  3  0  0  0  0  0  0
  -25.5610  -34.0090   24.2170 N   0  0  0  0  0  0  0  0  0  0  0  0
  -25.8840  -35.0550   23.4440 C   0  0  0  0  0  0  0  0  0  0  0  0
  -26.5370  -34.9440   22.4030 O   0  0  0  0  0  0  0  0  0  0  0  0
  -24.9830  -34.1710   25.0270 H   0  0  0  0  0  0  0  0  0  0  0  0
  -24.1500  -36.8440   23.1130 C   0  0  0  0  0  1  0  0  0  0  0  0
  -25.4070  -36.4460   23.9030 C   0  0  0  0  0  3  0  0  0  0  0  0
  -27.5540  -37.3380   24.6920 C   0  0  0  0  0  1  0  0  0  0  0  0
  -26.4370  -37.4990   23.7630 N   0  0  0  0  0  0  0  0  0  0  0  0
  -26.0340  -38.4200   23.9110 H   0  0  0  0  0  0  0  0  0  0  0  0
  -26.3870  -31.8400   25.1620 C   0  0  1  0  0  0  0  0  0  0  0  0
  -25.3050  -31.5970   26.2390 C   0  0  0  0  0  1  0  0  0  0  0  0
  -26.9720  -30.4670   24.7600 C   0  0  0  0  0  1  0  0  0  0  0  0
  -27.5390  -32.6370   25.8210 C   0  0  0  0  0  1  0  0  0  0  0  0
  -30.8450  -20.7640   20.6170 C   0  0  0  0  0  2  0  0  0  0  0  0
  -31.0710  -19.1890   19.2640 C   0  0  0  0  0  2  0  0  0  0  0  0
  -30.0130  -20.2870   19.4080 C   0  0  0  0  0  3  0  0  0  0  0  0
  -31.4800  -19.4430   20.6490 N   0  0  0  0  0  0  0  0  0  0  0  0
  -30.8680  -18.5710   21.6650 C   0  0  0  0  0  2  0  0  0  0  0  0
  -30.3990  -14.2290   19.9980 C   0  0  0  0  0  0  0  0  0  0  0  0
  -29.8410  -12.2830   18.6030 C   0  0  0  0  0  2  0  0  0  0  0  0
  -28.7610  -12.6110   17.5590 C   0  0  0  0  0  2  0  0  0  0  0  0
  -27.3620  -12.4010   18.1610 C   0  0  0  0  0  2  0  0  0  0  0  0
  -27.1860  -13.1190   19.5260 C   0  0  0  0  0  3  0  0  0  0  0  0
  -28.3680  -12.8090   20.4690 C   0  0  0  0  0  2  0  0  0  0  0  0
  -29.6280  -13.1360   19.7790 N   0  0  0  0  0  0  0  0  0  0  0  0
  -31.2760  -14.6110   19.2130 O   0  0  0  0  0  0  0  0  0  0  0  0
  -31.6610  -16.2410   22.5350 C   0  0  0  0  0  2  0  0  0  0  0  0
  -31.2050  -14.8000   22.2260 C   0  0  0  0  0  2  0  0  0  0  0  0
  -29.8230  -16.2880   21.0690 C   0  0  0  0  0  2  0  0  0  0  0  0
  -31.1060  -17.0680   21.3800 C   0  0  0  0  0  3  0  0  0  0  0  0
  -30.1880  -14.8780   21.1640 N   0  0  0  0  0  0  0  0  0  0  0  0
  -24.8560  -13.6180   20.5060 C   0  0  0  0  0  0  0  0  0  0  0  0
  -23.8660  -12.7950   20.9660 C   0  0  0  0  0  0  0  0  0  0  0  0
  -24.3680  -11.4640   20.8450 C   0  0  0  0  0  0  0  0  0  0  0  0
  -25.9030  -12.7850   20.1390 N   0  0  0  0  0  0  0  0  0  0  0  0
  -25.6150  -11.4810   20.3960 N   0  0  0  0  0  0  0  0  0  0  0  0
  -23.7150  -10.1690   21.0800 C   0  0  0  0  0  0  0  0  0  0  0  0
  -24.2310   -9.2380   22.0100 C   0  0  0  0  0  3  0  0  0  0  0  0
  -23.5760   -8.0080   22.2310 C   0  0  0  0  0  3  0  0  0  0  0  0
  -22.3910   -7.6990   21.5220 C   0  0  0  0  0  0  0  0  0  0  0  0
  -21.8950   -8.6160   20.5800 C   0  0  0  0  0  3  0  0  0  0  0  0
  -22.5510   -9.8380   20.3580 C   0  0  0  0  0  3  0  0  0  0  0  0
  -21.7040   -6.5160   21.6530 O   0  0  0  0  0  0  0  0  0  0  0  0
  -21.6830   -5.8200   22.8340 C   0  0  0  0  0  0  0  0  0  0  0  0
  -21.1980   -6.3970   24.0300 C   0  0  0  0  0  3  0  0  0  0  0  0
  -21.1290   -5.6240   25.2050 C   0  0  0  0  0  3  0  0  0  0  0  0
  -21.5340   -4.2760   25.1890 C   0  0  0  0  0  0  0  0  0  0  0  0
  -22.0120   -3.7000   23.9990 C   0  0  0  0  0  3  0  0  0  0  0  0
  -22.0830   -4.4690   22.8250 C   0  0  0  0  0  0  0  0  0  0  0  0
  -22.5250   -3.9030   21.6760 F   0  0  0  0  0  0  0  0  0  0  0  0
  -21.4600   -3.5300   26.3160 F   0  0  0  0  0  0  0  0  0  0  0  0
  -22.4900  -13.2080   21.4100 C   0  0  0  0  0  0  0  0  0  0  0  0
  -21.8970  -12.4700   22.3410 N   0  0  0  0  0  0  0  0  0  0  0  0
  -21.9540  -14.2220   20.9660 O   0  0  0  0  0  0  0  0  0  0  0  0
  -22.3440  -11.6490   22.7230 H   0  0  0  0  0  0  0  0  0  0  0  0
  -20.9820  -12.7310   22.6820 H   0  0  0  0  0  0  0  0  0  0  0  0
  -24.9490  -14.9980   20.3500 N   0  0  0  0  0  0  0  0  0  0  0  0
  -24.1790  -15.6200   20.5710 H   0  0  0  0  0  0  0  0  0  0  0  0
  -25.7470  -15.4790   19.9550 H   0  0  0  0  0  0  0  0  0  0  0  0
  2  1  1  0
  3  1  1  0
  4  7  1  0
  5  4  1  0
  6  7  1  0
  7  1  1  0
  8  6  1  0
  8  5  1  0
  8  9  1  0
  9 10  2  0
 10 11  1  0
 11 13  1  0
 12 23  2  0
 13 18  1  0
 14 22  1  0
 14 24  1  0
 15 21  1  0
 15 17  1  0
 16 22  1  0
 17 16  1  0
 18 17  2  0
 19 20  1  0
 19 13  2  0
 20 15  2  0
 21 14  1  0
 22 12  1  0
 24 26  2  0
 25 24  1  0
 27 25  1  0
 28 37  2  0
 28 33  1  0
 29 25  1  0
 29 33  1  0
 30 29  1  0
 31 32  1  0
 31 30  1  0
 32 28  1  0
 33 34  2  0
 34 35  1  0
 36 35  2  0
 37 36  1  0
 38 12  1  0
 38 39  1  0
 38 48  1  0
 39 42  1  0
 40 44  1  0
 40 39  1  0
 41 40  2  0
 44 43  1  0
 46 44  1  0
 46 47  1  0
 46 45  1  0
 48 51  1  1
 48 49  1  0
 50 48  1  0
 52 55  1  0
 53 54  1  0
 53 55  1  0
 54  1  1  0
 54 52  1  0
 55 56  1  0
 57 69  1  0
 58 63  1  0
 59 60  1  0
 59 58  1  0
 61 60  1  0
 61 73  1  0
 61 62  1  0
 63 57  1  0
 63 62  1  0
 64 57  2  0
 66 65  1  0
 67 69  1  0
 67 68  1  0
 68 56  1  0
 68 65  1  0
 69 66  1  0
 70 71  2  0
 71 90  1  0
 72 71  1  0
 72 75  1  0
 73 74  1  0
 73 70  1  0
 74 72  2  0
 75 76  1  0
 76 77  2  0
 78 81  1  0
 78 77  1  0
 79 78  2  0
 80 79  1  0
 80 75  2  0
 81 82  1  0
 82 83  1  0
 83 84  2  0
 85 84  1  0
 85 89  1  0
 86 85  2  0
 87 82  2  0
 87 86  1  0
 88 87  1  0
 90 91  1  0
 91 94  1  0
 91 93  1  0
 92 90  2  0
 95 70  1  0
 95 96  1  0
 97 95  1  0
M  ISO  4  10 101  11 101  57 100  69 100
M  END
>  <TORSDO>  (52) 
F 21

>  <SCORE>  (52) 
-11.236

>  <name>  (52) 
52

>  <ligand_id>  (52) 
52

>  <original_smiles>  (52) 
[H]c1c([H])c([H])c2c(c1[H])C([H])([H])C([H])([H])C([H])([H])C2([H])N([H])C(=O)C1([H])N(C(=O)C([H])(N([H])C(=O)C([H])(N([H])C([H])([H])[H])C([H])([H])[H])C(C([H])([H])[H])(C([H])([H])[H])C([H])([H])[H])C([H])([H])c2c([H])c(OC([H])([H])C([H])([H])N3C([H])([H])C([H])([H])C([H])([N+]([H])([H])C4([H])C([H])([H])N(C([H])([H])C5([H])C([H])([H])N(C(=O)N6C([H])([H])C([H])([H])C([H])([H])C([H])(n7nc(-c8c([H])c([H])c(Oc9c([H])c([H])c(F)c([H])c9F)c([H])c8[H])c(C(=O)N([H])[H])c7N([H])[H])C6([H])[H])C([H])([H])C5([H])[H])C4([H])[H])C3([H])[H])c([H])c([H])c2C1([H])[H]

>  <smiles>  (52) 
[H]c1c([H])c([H])c2c(c1[H])C([H])([H])C([H])([H])C([H])([H])C2([H])N([H])C(=O)C1([H])N(C(=O)C([H])(N([H])C(=O)C([H])(N([H])C([H])([H])[H])C([H])([H])[H])C(C([H])([H])[H])(C([H])([H])[H])C([H])([H])[H])C([H])([H])c2c([H])c(OC([H])([H])C([H])([H])N3C([H])([H])C([H])([H])C([H])([N+]([H])([H])C4([H])C([H])([H])N(C([H])([H])C5([H])C([H])([H])N(C(=O)N6C([H])([H])C([H])([H])C([H])([H])C([H])(n7nc(-c8c([H])c([H])c(Oc9c([H])c([H])c(F)c([H])c9F)c([H])c8[H])c(C(=O)N([H])[H])c7N([H])[H])C6([H])[H])C([H])([H])C5([H])[H])C4([H])[H])C3([H])[H])c([H])c([H])c2C1([H])[H]

$$$$
53:0:0
     RDKit          3D

 99109  0  0  1  0  0  0  0  0999 V2000
  -32.3480  -19.9580   21.5800 C   0  0  0  0  0  3  0  0  0  0  0  0
  -31.6290  -18.7570   21.6050 C   0  0  0  0  0  3  0  0  0  0  0  0
  -32.0550  -20.9230   20.5940 C   0  0  0  0  0  0  0  0  0  0  0  0
  -30.6340  -18.5390   20.6420 C   0  0  0  0  0  0  0  0  0  0  0  0
  -30.9130  -20.7020   19.7770 C   0  0  0  0  0  0  0  0  0  0  0  0
  -30.2270  -19.5260   19.8070 N   0  0  0  0  0  0  0  0  0  0  0  0
  -30.6150  -13.5980   20.4370 C   0  0  0  0  0  0  0  0  0  0  0  0
  -30.3420  -11.2890   19.6060 C   0  0  0  0  0  2  0  0  0  0  0  0
  -29.4240  -11.2650   18.3680 C   0  0  0  0  0  2  0  0  0  0  0  0
  -27.9490  -11.1390   18.7920 C   0  0  0  0  0  2  0  0  0  0  0  0
  -27.5640  -12.1370   19.9170 C   0  0  0  0  0  3  0  0  0  0  0  0
  -28.6090  -12.1590   21.0570 C   0  0  0  0  0  2  0  0  0  0  0  0
  -29.9260  -12.4180   20.4600 N   0  0  0  0  0  0  0  0  0  0  0  0
  -31.7750  -13.6390   20.0210 O   0  0  0  0  0  0  0  0  0  0  0  0
  -28.6750  -16.7840   20.5010 C   0  0  0  0  0  2  0  0  0  0  0  0
  -28.6850  -15.2460   20.3940 C   0  0  0  0  0  2  0  0  0  0  0  0
  -30.8000  -15.9670   21.1200 C   0  0  0  0  0  2  0  0  0  0  0  0
  -30.1470  -17.1150   20.3270 C   0  0  0  0  0  3  0  0  0  0  0  0
  -30.0050  -14.7550   20.8460 N   0  0  0  0  0  0  0  0  0  0  0  0
  -25.1940  -12.8080   20.6440 C   0  0  0  0  0  0  0  0  0  0  0  0
  -24.1180  -12.0660   21.0510 C   0  0  0  0  0  0  0  0  0  0  0  0
  -24.5580  -10.7080   21.0500 C   0  0  0  0  0  0  0  0  0  0  0  0
  -26.2180  -11.9030   20.4250 N   0  0  0  0  0  0  0  0  0  0  0  0
  -25.8420  -10.6360   20.7300 N   0  0  0  0  0  0  0  0  0  0  0  0
  -23.8150   -9.4620   21.2740 C   0  0  0  0  0  0  0  0  0  0  0  0
  -24.2370   -8.5150   22.2320 C   0  0  0  0  0  3  0  0  0  0  0  0
  -23.4940   -7.3330   22.4420 C   0  0  0  0  0  3  0  0  0  0  0  0
  -22.3170   -7.0920   21.6960 C   0  0  0  0  0  0  0  0  0  0  0  0
  -21.9120   -8.0290   20.7290 C   0  0  0  0  0  3  0  0  0  0  0  0
  -22.6540   -9.2040   20.5170 C   0  0  0  0  0  3  0  0  0  0  0  0
  -21.5470   -5.9590   21.8160 O   0  0  0  0  0  0  0  0  0  0  0  0
  -21.5150   -5.2290   22.9760 C   0  0  0  0  0  0  0  0  0  0  0  0
  -21.0240   -5.7720   24.1830 C   0  0  0  0  0  3  0  0  0  0  0  0
  -20.9410   -4.9670   25.3360 C   0  0  0  0  0  3  0  0  0  0  0  0
  -21.3430   -3.6190   25.2830 C   0  0  0  0  0  0  0  0  0  0  0  0
  -21.8280   -3.0740   24.0810 C   0  0  0  0  0  3  0  0  0  0  0  0
  -21.9120   -3.8770   22.9300 C   0  0  0  0  0  0  0  0  0  0  0  0
  -22.3590   -3.3410   21.7680 F   0  0  0  0  0  0  0  0  0  0  0  0
  -21.2590   -2.8420   26.3890 F   0  0  0  0  0  0  0  0  0  0  0  0
  -22.7310  -12.5740   21.3170 C   0  0  0  0  0  0  0  0  0  0  0  0
  -21.9970  -11.9240   22.2160 N   0  0  0  0  0  0  0  0  0  0  0  0
  -22.3060  -13.5860   20.7620 O   0  0  0  0  0  0  0  0  0  0  0  0
  -22.3470  -11.1080   22.6930 H   0  0  0  0  0  0  0  0  0  0  0  0
  -21.0640  -12.2530   22.4210 H   0  0  0  0  0  0  0  0  0  0  0  0
  -25.3780  -14.1700   20.4160 N   0  0  0  0  0  0  0  0  0  0  0  0
  -24.6270  -14.8400   20.5190 H   0  0  0  0  0  0  0  0  0  0  0  0
  -26.2250  -14.5810   20.0460 H   0  0  0  0  0  0  0  0  0  0  0  0
  -34.4760  -21.5210   20.2270 C   0  0  0  0  0  1  0  0  0  0  0  0
  -33.0080  -23.1060   21.5330 C   0  0  0  0  0  1  0  0  0  0  0  0
  -33.0480  -22.0760   20.3950 C   0  0  0  0  0  3  0  0  0  0  0  0
  -30.3670  -21.7790   18.8330 C   0  0  0  0  0  2  0  0  0  0  0  0
  -30.2160  -25.3860   20.1540 C   0  0  0  0  0  2  0  0  0  0  0  0
  -28.2130  -24.2550   20.8470 C   0  0  0  0  0  2  0  0  0  0  0  0
  -30.5030  -24.2650   19.1260 C   0  0  0  0  0  2  0  0  0  0  0  0
  -28.5120  -23.0920   19.8660 C   0  0  0  0  0  2  0  0  0  0  0  0
  -28.7840  -25.5470   20.4330 N   0  0  0  0  0  0  0  0  0  0  0  0
  -29.9690  -22.9730   19.6230 N   0  0  1  0  0  4  0  0  0  0  0  0
  -30.4010  -22.8020   20.5180 H   0  0  0  0  0  0  0  0  0  0  0  0
  -28.1690  -25.9360   19.1790 O   0  0  0  0  0  0  0  0  0  0  0  0
  -24.9220  -31.0050   23.0530 C   0  0  0  0  0  0  0  0  0  0  0  0
  -27.0900  -26.7700   19.3770 C   0  0  0  0  0  0  0  0  0  0  0  0
  -23.5690  -29.9570   21.2670 C   0  0  0  0  0  3  0  0  0  0  0  0
  -24.8510  -28.4770   19.6330 C   0  0  0  0  0  0  0  0  0  0  0  0
  -26.1160  -30.0870   21.0680 C   0  0  0  0  0  2  0  0  0  0  0  0
  -26.0600  -28.8070   20.2610 C   0  0  0  0  0  0  0  0  0  0  0  0
  -27.1850  -27.9590   20.1350 C   0  0  0  0  0  3  0  0  0  0  0  0
  -25.8700  -26.4490   18.7520 C   0  0  0  0  0  3  0  0  0  0  0  0
  -24.7480  -27.2950   18.8790 C   0  0  0  0  0  3  0  0  0  0  0  0
  -23.7030  -29.4460   19.8080 C   0  0  0  0  0  2  0  0  0  0  0  0
  -24.8900  -30.3570   21.8560 N   0  0  0  0  0  0  0  0  0  0  0  0
  -23.8790  -31.3120   23.6460 O   0  0  0  0  0  0  0  0  0  0  0  0
  -22.8240  -28.8910   22.0990 C   0  0  0  0  0  0  0  0  0  0  0  0
  -21.4840  -28.8850   22.0060 N   0  0  0  0  0  0  0  0  0  0  0  0
  -23.4470  -28.0780   22.7900 O   0  0  0  0  0  0  0  0  0  0  0  0
  -21.0490  -29.5890   21.4260 H   0  0  0  0  0  0  0  0  0  0  0  0
  -18.0030  -28.0790   22.5340 C   0  0  0  0  0  0  0  0  0  0  0  0
  -20.5800  -27.9450   22.6690 C   0  0  0  0  0  3  0  0  0  0  0  0
  -20.4530  -26.6340   21.8590 C   0  0  0  0  0  2  0  0  0  0  0  0
  -19.2710  -26.6380   20.8860 C   0  0  0  0  0  2  0  0  0  0  0  0
  -17.9550  -26.8530   21.6380 C   0  0  0  0  0  2  0  0  0  0  0  0
  -19.2360  -28.6010   23.0040 C   0  0  0  0  0  0  0  0  0  0  0  0
  -19.2280  -29.7630   23.8060 C   0  0  0  0  0  3  0  0  0  0  0  0
  -18.0180  -30.3970   24.1430 C   0  0  0  0  0  3  0  0  0  0  0  0
  -16.7980  -29.8670   23.6900 C   0  0  0  0  0  3  0  0  0  0  0  0
  -16.7920  -28.7090   22.8910 C   0  0  0  0  0  3  0  0  0  0  0  0
  -26.2700  -31.4170   23.7250 C   0  0  0  0  0  3  0  0  0  0  0  0
  -26.7340  -30.4190   24.8560 C   0  0  1  0  0  0  0  0  0  0  0  0
  -25.6400  -30.1220   25.9080 C   0  0  0  0  0  1  0  0  0  0  0  0
  -27.1800  -29.0710   24.2440 C   0  0  0  0  0  1  0  0  0  0  0  0
  -27.9620  -30.9980   25.5950 C   0  0  0  0  0  1  0  0  0  0  0  0
  -26.1000  -32.7740   24.2630 N   0  0  0  0  0  0  0  0  0  0  0  0
  -26.5770  -33.8860   23.6890 C   0  0  0  0  0  0  0  0  0  0  0  0
  -27.2760  -33.8680   22.6720 O   0  0  0  0  0  0  0  0  0  0  0  0
  -25.4880  -32.8690   25.0610 H   0  0  0  0  0  0  0  0  0  0  0  0
  -25.0920  -35.9120   23.5570 C   0  0  0  0  0  1  0  0  0  0  0  0
  -26.2220  -35.2330   24.3480 C   0  0  0  0  0  3  0  0  0  0  0  0
  -28.3750  -35.7120   25.4250 C   0  0  0  0  0  1  0  0  0  0  0  0
  -27.3730  -36.1540   24.4600 N   0  0  0  0  0  0  0  0  0  0  0  0
  -27.0640  -37.0850   24.7310 H   0  0  0  0  0  0  0  0  0  0  0  0
  1  2  1  0
  3  1  2  0
  4  2  2  0
  5  6  2  0
  5  3  1  0
  6  4  1  0
  7 13  1  0
  7 19  1  0
  8 13  1  0
  9 10  1  0
  9  8  1  0
 11 10  1  0
 11 23  1  0
 11 12  1  0
 13 12  1  0
 14  7  2  0
 16 15  1  0
 16 19  1  0
 18 15  1  0
 18  4  1  0
 18 17  1  0
 19 17  1  0
 20 21  2  0
 21 40  1  0
 22 21  1  0
 22 25  1  0
 23 20  1  0
 23 24  1  0
 24 22  2  0
 25 26  1  0
 26 27  2  0
 28 31  1  0
 28 27  1  0
 29 28  2  0
 30 29  1  0
 30 25  2  0
 31 32  1  0
 32 33  1  0
 33 34  2  0
 35 34  1  0
 35 39  1  0
 36 35  2  0
 37 32  2  0
 37 36  1  0
 38 37  1  0
 40 41  1  0
 41 44  1  0
 41 43  1  0
 42 40  2  0
 45 46  1  0
 45 20  1  0
 47 45  1  0
 48 50  1  0
 50  3  1  0
 50 49  1  0
 51 57  1  0
 51  5  1  0
 52 56  1  0
 54 57  1  0
 54 52  1  0
 55 53  1  0
 56 53  1  0
 57 55  1  0
 57 58  1  1
 59 61  1  0
 59 56  1  0
 60 71  2  0
 61 66  1  0
 62 70  1  0
 62 72  1  0
 63 69  1  0
 63 65  1  0
 64 70  1  0
 65 64  1  0
 66 65  2  0
 67 68  1  0
 67 61  2  0
 68 63  2  0
 69 62  1  0
 70 60  1  0
 72 74  2  0
 73 72  1  0
 75 73  1  0
 76 85  2  0
 76 81  1  0
 77 73  1  0
 77 81  1  0
 78 77  1  0
 79 80  1  0
 79 78  1  0
 80 76  1  0
 81 82  2  0
 82 83  1  0
 84 83  2  0
 85 84  1  0
 86 60  1  0
 86 91  1  0
 86 87  1  0
 87 90  1  1
 87 88  1  0
 89 87  1  0
 91 94  1  0
 92 91  1  0
 92 96  1  0
 93 92  2  0
 96 95  1  0
 96 98  1  0
 98 99  1  0
 98 97  1  0
M  ISO  4   7 100  19 100  56 101  59 101
M  END
>  <TORSDO>  (53) 
F 19

>  <SCORE>  (53) 
-9.502

>  <name>  (53) 
53

>  <ligand_id>  (53) 
53

>  <original_smiles>  (53) 
[H]c1c(C2([H])C([H])([H])N(C(=O)N3C([H])([H])C([H])([H])C([H])([H])C([H])(n4nc(-c5c([H])c([H])c(Oc6c([H])c([H])c(F)c([H])c6F)c([H])c5[H])c(C(=O)N([H])[H])c4N([H])[H])C3([H])[H])C([H])([H])C2([H])[H])nc(C([H])([H])[N+]2([H])C([H])([H])C([H])([H])N(Oc3c([H])c([H])c4c(c3[H])C([H])([H])N(C(=O)C([H])(N([H])C(=O)C([H])(N([H])C([H])([H])[H])C([H])([H])[H])C(C([H])([H])[H])(C([H])([H])[H])C([H])([H])[H])C([H])(C(=O)N([H])C3([H])c5c([H])c([H])c([H])c([H])c5C([H])([H])C([H])([H])C3([H])[H])C4([H])[H])C([H])([H])C2([H])[H])c(C([H])(C([H])([H])[H])C([H])([H])[H])c1[H]

>  <smiles>  (53) 
[H]c1c(C2([H])C([H])([H])N(C(=O)N3C([H])([H])C([H])([H])C([H])([H])C([H])(n4nc(-c5c([H])c([H])c(Oc6c([H])c([H])c(F)c([H])c6F)c([H])c5[H])c(C(=O)N([H])[H])c4N([H])[H])C3([H])[H])C([H])([H])C2([H])[H])nc(C([H])([H])[N+]2([H])C([H])([H])C([H])([H])N(Oc3c([H])c([H])c4c(c3[H])C([H])([H])N(C(=O)C([H])(N([H])C(=O)C([H])(N([H])C([H])([H])[H])C([H])([H])[H])C(C([H])([H])[H])(C([H])([H])[H])C([H])([H])[H])C([H])(C(=O)N([H])C3([H])c5c([H])c([H])c([H])c([H])c5C([H])([H])C([H])([H])C3([H])[H])C4([H])[H])C([H])([H])C2([H])[H])c(C([H])(C([H])([H])[H])C([H])([H])[H])c1[H]

$$$$
54:0:0
     RDKit          3D

 96105  0  0  1  0  0  0  0  0999 V2000
  -28.2970  -20.5390   19.1700 C   0  0  0  0  0  2  0  0  0  0  0  0
  -32.7470  -18.2940   18.9980 C   0  0  0  0  0  3  0  0  0  0  0  0
  -32.2970  -19.5930   18.6900 C   0  0  0  0  0  3  0  0  0  0  0  0
  -30.7100  -17.8080   20.0070 C   0  0  0  0  0  0  0  0  0  0  0  0
  -30.2660  -19.1480   19.7170 C   0  0  0  0  0  0  0  0  0  0  0  0
  -31.9650  -17.4180   19.6670 N   0  0  0  0  0  0  0  0  0  0  0  0
  -31.0680  -20.0210   19.0600 N   0  0  0  0  0  0  0  0  0  0  0  0
  -29.0250  -19.6800   20.1200 N   0  0  0  0  0  0  0  0  0  0  0  0
  -28.4360  -19.0430   20.6490 H   0  0  0  0  0  0  0  0  0  0  0  0
  -30.7600  -14.4270   20.0950 C   0  0  0  0  0  0  0  0  0  0  0  0
  -30.2980  -12.3360   18.8550 C   0  0  0  0  0  2  0  0  0  0  0  0
  -29.2880  -12.6240   17.7300 C   0  0  0  0  0  2  0  0  0  0  0  0
  -27.8470  -12.4770   18.2540 C   0  0  0  0  0  2  0  0  0  0  0  0
  -27.6110  -13.2620   19.5720 C   0  0  0  0  0  3  0  0  0  0  0  0
  -28.7370  -12.9890   20.5940 C   0  0  0  0  0  2  0  0  0  0  0  0
  -30.0260  -13.2880   19.9460 N   0  0  0  0  0  0  0  0  0  0  0  0
  -31.8110  -14.6040   19.4750 O   0  0  0  0  0  0  0  0  0  0  0  0
  -29.9390  -16.8450   22.3070 C   0  0  0  0  0  2  0  0  0  0  0  0
  -30.9330  -15.6960   22.2110 C   0  0  0  0  0  2  0  0  0  0  0  0
  -29.8470  -16.7790   20.7850 C   0  0  0  0  0  3  0  0  0  0  0  0
  -30.2600  -15.3450   20.9590 N   0  0  0  0  0  0  0  0  0  0  0  0
  -25.2660  -13.8730   20.4370 C   0  0  0  0  0  0  0  0  0  0  0  0
  -24.2190  -13.1020   20.8660 C   0  0  0  0  0  0  0  0  0  0  0  0
  -24.6670  -11.7470   20.7850 C   0  0  0  0  0  0  0  0  0  0  0  0
  -26.2900  -12.9900   20.1320 N   0  0  0  0  0  0  0  0  0  0  0  0
  -25.9360  -11.7040   20.3950 N   0  0  0  0  0  0  0  0  0  0  0  0
  -23.9440  -10.4860   21.0010 C   0  0  0  0  0  0  0  0  0  0  0  0
  -24.4140   -9.5150   21.9120 C   0  0  0  0  0  3  0  0  0  0  0  0
  -23.6930   -8.3200   22.1200 C   0  0  0  0  0  3  0  0  0  0  0  0
  -22.4880   -8.0870   21.4160 C   0  0  0  0  0  0  0  0  0  0  0  0
  -22.0360   -9.0470   20.4920 C   0  0  0  0  0  3  0  0  0  0  0  0
  -22.7580  -10.2340   20.2840 C   0  0  0  0  0  3  0  0  0  0  0  0
  -21.7320   -6.9460   21.5330 O   0  0  0  0  0  0  0  0  0  0  0  0
  -21.7050   -6.2150   22.6930 C   0  0  0  0  0  0  0  0  0  0  0  0
  -21.3240   -6.7890   23.9260 C   0  0  0  0  0  3  0  0  0  0  0  0
  -21.2450   -5.9860   25.0810 C   0  0  0  0  0  3  0  0  0  0  0  0
  -21.5360   -4.6100   25.0050 C   0  0  0  0  0  0  0  0  0  0  0  0
  -21.9110   -4.0370   23.7760 C   0  0  0  0  0  3  0  0  0  0  0  0
  -21.9930   -4.8380   22.6240 C   0  0  0  0  0  0  0  0  0  0  0  0
  -22.3320   -4.2750   21.4400 F   0  0  0  0  0  0  0  0  0  0  0  0
  -21.4520   -3.8370   26.1120 F   0  0  0  0  0  0  0  0  0  0  0  0
  -22.8460  -13.5840   21.2310 C   0  0  0  0  0  0  0  0  0  0  0  0
  -22.1750  -12.8960   22.1490 N   0  0  0  0  0  0  0  0  0  0  0  0
  -22.3770  -14.6080   20.7370 O   0  0  0  0  0  0  0  0  0  0  0  0
  -22.5630  -12.0660   22.5720 H   0  0  0  0  0  0  0  0  0  0  0  0
  -21.2560  -13.2060   22.4340 H   0  0  0  0  0  0  0  0  0  0  0  0
  -25.4240  -15.2460   20.2600 N   0  0  0  0  0  0  0  0  0  0  0  0
  -24.6610  -15.8970   20.4050 H   0  0  0  0  0  0  0  0  0  0  0  0
  -26.2410  -15.6770   19.8500 H   0  0  0  0  0  0  0  0  0  0  0  0
  -27.5520  -21.7480   19.7920 C   0  0  0  0  0  2  0  0  0  0  0  0
  -28.4310  -22.8720   20.2050 N   0  0  0  0  0  4  0  0  0  0  0  0
  -29.3110  -22.7780   19.7200 H   0  0  0  0  0  0  0  0  0  0  0  0
  -28.6280  -22.7470   21.1870 H   0  0  0  0  0  0  0  0  0  0  0  0
  -27.8540  -24.2300   19.9420 C   0  0  0  0  0  2  0  0  0  0  0  0
  -28.4990  -25.3930   20.7480 C   0  0  0  0  0  2  0  0  0  0  0  0
  -28.4730  -26.6920   20.1150 O   0  0  0  0  0  0  0  0  0  0  0  0
  -24.6590  -31.8670   23.2340 C   0  0  0  0  0  0  0  0  0  0  0  0
  -27.2980  -27.4120   20.1610 C   0  0  0  0  0  0  0  0  0  0  0  0
  -23.4540  -30.4600   21.5950 C   0  0  0  0  0  3  0  0  0  0  0  0
  -24.9070  -28.9250   20.1730 C   0  0  0  0  0  0  0  0  0  0  0  0
  -25.9770  -30.8270   21.3900 C   0  0  0  0  0  2  0  0  0  0  0  0
  -26.0660  -29.4490   20.7610 C   0  0  0  0  0  0  0  0  0  0  0  0
  -27.2650  -28.6990   20.7530 C   0  0  0  0  0  3  0  0  0  0  0  0
  -26.1250  -26.9140   19.5550 C   0  0  0  0  0  3  0  0  0  0  0  0
  -24.9320  -27.6580   19.5670 C   0  0  0  0  0  3  0  0  0  0  0  0
  -23.6620  -29.7810   20.2150 C   0  0  0  0  0  2  0  0  0  0  0  0
  -24.7160  -31.0660   22.1330 N   0  0  0  0  0  0  0  0  0  0  0  0
  -23.5780  -32.1350   23.7770 O   0  0  0  0  0  0  0  0  0  0  0  0
  -22.8070  -29.4370   22.5570 C   0  0  0  0  0  0  0  0  0  0  0  0
  -21.4820  -29.2560   22.4370 N   0  0  0  0  0  0  0  0  0  0  0  0
  -23.4940  -28.8100   23.3670 O   0  0  0  0  0  0  0  0  0  0  0  0
  -20.9850  -29.8120   21.7550 H   0  0  0  0  0  0  0  0  0  0  0  0
  -18.1100  -28.0620   22.9490 C   0  0  0  0  0  0  0  0  0  0  0  0
  -20.6700  -28.3160   23.2100 C   0  0  0  0  0  3  0  0  0  0  0  0
  -20.7690  -26.8880   22.6280 C   0  0  0  0  0  2  0  0  0  0  0  0
  -19.6610  -26.5680   21.6200 C   0  0  0  0  0  2  0  0  0  0  0  0
  -18.2820  -26.7140   22.2710 C   0  0  0  0  0  2  0  0  0  0  0  0
  -19.2330  -28.8210   23.3770 C   0  0  0  0  0  0  0  0  0  0  0  0
  -19.0190  -30.0840   23.9700 C   0  0  0  0  0  3  0  0  0  0  0  0
  -17.7160  -30.5860   24.1450 C   0  0  0  0  0  3  0  0  0  0  0  0
  -16.6090  -29.8260   23.7360 C   0  0  0  0  0  3  0  0  0  0  0  0
  -16.8070  -28.5640   23.1440 C   0  0  0  0  0  3  0  0  0  0  0  0
  -25.9440  -32.5040   23.8520 C   0  0  0  0  0  3  0  0  0  0  0  0
  -25.6300  -33.8950   24.1970 N   0  0  0  0  0  0  0  0  0  0  0  0
  -25.9400  -34.9560   23.4380 C   0  0  0  0  0  0  0  0  0  0  0  0
  -26.5940  -34.8640   22.3940 O   0  0  0  0  0  0  0  0  0  0  0  0
  -25.0530  -34.0420   25.0130 H   0  0  0  0  0  0  0  0  0  0  0  0
  -24.1820  -36.7240   23.1260 C   0  0  0  0  0  1  0  0  0  0  0  0
  -25.4460  -36.3360   23.9100 C   0  0  0  0  0  3  0  0  0  0  0  0
  -27.5870  -37.2390   24.6980 C   0  0  0  0  0  1  0  0  0  0  0  0
  -26.4630  -37.4030   23.7800 N   0  0  0  0  0  0  0  0  0  0  0  0
  -26.0490  -38.3170   23.9490 H   0  0  0  0  0  0  0  0  0  0  0  0
  -26.4810  -31.7220   25.1130 C   0  0  1  0  0  0  0  0  0  0  0  0
  -25.4010  -31.4620   26.1880 C   0  0  0  0  0  1  0  0  0  0  0  0
  -27.0690  -30.3550   24.6980 C   0  0  0  0  0  1  0  0  0  0  0  0
  -27.6350  -32.5150   25.7710 C   0  0  0  0  0  1  0  0  0  0  0  0
  1 50  1  0
  1  8  1  0
  2  6  1  0
  3  2  2  0
  3  7  1  0
  5  4  1  0
  5  8  1  0
  6  4  2  0
  7  5  2  0
  8  9  1  0
 10 21  1  0
 11 16  1  0
 12 13  1  0
 12 11  1  0
 14 13  1  0
 14 25  1  0
 14 15  1  0
 16 10  1  0
 16 15  1  0
 17 10  2  0
 19 18  1  0
 20  4  1  0
 20 21  1  0
 20 18  1  0
 21 19  1  0
 22 23  2  0
 23 42  1  0
 24 23  1  0
 24 27  1  0
 25 26  1  0
 25 22  1  0
 26 24  2  0
 27 28  1  0
 28 29  2  0
 30 33  1  0
 30 29  1  0
 31 30  2  0
 32 31  1  0
 32 27  2  0
 33 34  1  0
 34 35  1  0
 35 36  2  0
 37 36  1  0
 37 41  1  0
 38 37  2  0
 39 34  2  0
 39 38  1  0
 40 39  1  0
 42 43  1  0
 43 46  1  0
 43 45  1  0
 44 42  2  0
 47 48  1  0
 47 22  1  0
 49 47  1  0
 50 51  1  0
 51 53  1  0
 52 51  1  0
 54 51  1  0
 54 55  1  0
 56 58  1  0
 56 55  1  0
 57 68  2  0
 58 63  1  0
 59 67  1  0
 59 69  1  0
 60 66  1  0
 60 62  1  0
 61 67  1  0
 62 61  1  0
 63 62  2  0
 64 65  1  0
 64 58  2  0
 65 60  2  0
 66 59  1  0
 67 57  1  0
 69 71  2  0
 70 69  1  0
 72 70  1  0
 73 82  2  0
 73 78  1  0
 74 70  1  0
 74 78  1  0
 75 74  1  0
 76 77  1  0
 76 75  1  0
 77 73  1  0
 78 79  2  0
 79 80  1  0
 81 80  2  0
 82 81  1  0
 83 57  1  0
 83 84  1  0
 83 93  1  0
 84 87  1  0
 85 89  1  0
 85 84  1  0
 86 85  2  0
 89 88  1  0
 91 89  1  0
 91 92  1  0
 91 90  1  0
 93 96  1  1
 93 94  1  0
 95 93  1  0
M  ISO  4  10 100  21 100  55 101  56 101
M  END
>  <TORSDO>  (54) 
F 21

>  <SCORE>  (54) 
-12.967

>  <name>  (54) 
54

>  <ligand_id>  (54) 
54

>  <original_smiles>  (54) 
[H]c1nc(N([H])C([H])([H])C([H])([H])[N+]([H])([H])C([H])([H])C([H])([H])Oc2c([H])c([H])c3c(c2[H])C([H])([H])N(C(=O)C([H])(N([H])C(=O)C([H])(N([H])C([H])([H])[H])C([H])([H])[H])C(C([H])([H])[H])(C([H])([H])[H])C([H])([H])[H])C([H])(C(=O)N([H])C2([H])c4c([H])c([H])c([H])c([H])c4C([H])([H])C([H])([H])C2([H])[H])C3([H])[H])c(C2([H])N(C(=O)N3C([H])([H])C([H])([H])C([H])([H])C([H])(n4nc(-c5c([H])c([H])c(Oc6c([H])c([H])c(F)c([H])c6F)c([H])c5[H])c(C(=O)N([H])[H])c4N([H])[H])C3([H])[H])C([H])([H])C2([H])[H])nc1[H]

>  <smiles>  (54) 
[H]c1nc(N([H])C([H])([H])C([H])([H])[N+]([H])([H])C([H])([H])C([H])([H])Oc2c([H])c([H])c3c(c2[H])C([H])([H])N(C(=O)C([H])(N([H])C(=O)C([H])(N([H])C([H])([H])[H])C([H])([H])[H])C(C([H])([H])[H])(C([H])([H])[H])C([H])([H])[H])C([H])(C(=O)N([H])C2([H])c4c([H])c([H])c([H])c([H])c4C([H])([H])C([H])([H])C2([H])[H])C3([H])[H])c(C2([H])N(C(=O)N3C([H])([H])C([H])([H])C([H])([H])C([H])(n4nc(-c5c([H])c([H])c(Oc6c([H])c([H])c(F)c([H])c6F)c([H])c5[H])c(C(=O)N([H])[H])c4N([H])[H])C3([H])[H])C([H])([H])C2([H])[H])nc1[H]

$$$$
55:0:0
     RDKit          3D

 96106  0  0  1  0  0  0  0  0999 V2000
  -30.4810  -22.8310   17.0580 C   0  0  0  0  0  3  0  0  0  0  0  0
  -30.5110  -21.4260   17.1090 C   0  0  0  0  0  0  0  0  0  0  0  0
  -29.6900  -22.9280   19.2530 C   0  0  0  0  0  0  0  0  0  0  0  0
  -29.7870  -21.4710   19.3310 C   0  0  0  0  0  0  0  0  0  0  0  0
  -30.0760  -23.5650   18.1150 N   0  0  0  0  0  0  0  0  0  0  0  0
  -30.1730  -20.7600   18.2340 N   0  0  0  0  0  0  0  0  0  0  0  0
  -30.4690  -20.8510   14.5470 C   0  0  0  0  0  2  0  0  0  0  0  0
  -30.0030  -19.6190   15.2820 C   0  0  0  0  0  2  0  0  0  0  0  0
  -30.9550  -20.5820   15.9550 C   0  0  0  0  0  3  0  0  0  0  0  0
  -29.3010  -23.9810   20.3380 C   0  0  0  0  0  2  0  0  0  0  0  0
  -28.1850  -25.0440   19.9230 C   0  0  0  0  0  2  0  0  0  0  0  0
  -28.3620  -26.4860   20.2120 O   0  0  0  0  0  0  0  0  0  0  0  0
  -24.6360  -31.8740   23.2140 C   0  0  0  0  0  0  0  0  0  0  0  0
  -27.2340  -27.3220   20.1490 C   0  0  0  0  0  0  0  0  0  0  0  0
  -23.4220  -30.4750   21.5810 C   0  0  0  0  0  3  0  0  0  0  0  0
  -24.8640  -28.9260   20.1500 C   0  0  0  0  0  0  0  0  0  0  0  0
  -25.9600  -30.7940   21.3860 C   0  0  0  0  0  2  0  0  0  0  0  0
  -26.0340  -29.4170   20.7400 C   0  0  0  0  0  0  0  0  0  0  0  0
  -27.2210  -28.6260   20.7310 C   0  0  0  0  0  3  0  0  0  0  0  0
  -26.0380  -26.8860   19.5300 C   0  0  0  0  0  3  0  0  0  0  0  0
  -24.8670  -27.6640   19.5370 C   0  0  0  0  0  3  0  0  0  0  0  0
  -23.6270  -29.7980   20.2010 C   0  0  0  0  0  2  0  0  0  0  0  0
  -24.6920  -31.0640   22.1170 N   0  0  0  0  0  0  0  0  0  0  0  0
  -23.5560  -32.1530   23.7540 O   0  0  0  0  0  0  0  0  0  0  0  0
  -22.7640  -29.4580   22.5460 C   0  0  0  0  0  0  0  0  0  0  0  0
  -21.4380  -29.2780   22.4220 N   0  0  0  0  0  0  0  0  0  0  0  0
  -23.4450  -28.8340   23.3650 O   0  0  0  0  0  0  0  0  0  0  0  0
  -20.9480  -29.8320   21.7330 H   0  0  0  0  0  0  0  0  0  0  0  0
  -18.0640  -28.0750   22.9210 C   0  0  0  0  0  0  0  0  0  0  0  0
  -20.6210  -28.3450   23.1980 C   0  0  0  0  0  3  0  0  0  0  0  0
  -20.7310  -26.9090   22.6330 C   0  0  0  0  0  2  0  0  0  0  0  0
  -19.6330  -26.5740   21.6190 C   0  0  0  0  0  2  0  0  0  0  0  0
  -18.2480  -26.7200   22.2570 C   0  0  0  0  0  2  0  0  0  0  0  0
  -19.1800  -28.8440   23.3490 C   0  0  0  0  0  0  0  0  0  0  0  0
  -18.9550  -30.1110   23.9300 C   0  0  0  0  0  3  0  0  0  0  0  0
  -17.6480  -30.6090   24.0880 C   0  0  0  0  0  3  0  0  0  0  0  0
  -16.5470  -29.8370   23.6780 C   0  0  0  0  0  3  0  0  0  0  0  0
  -16.7570  -28.5730   23.1000 C   0  0  0  0  0  3  0  0  0  0  0  0
  -25.9240  -32.5040   23.8280 C   0  0  0  0  0  3  0  0  0  0  0  0
  -25.6130  -33.8990   24.1700 N   0  0  0  0  0  0  0  0  0  0  0  0
  -25.9330  -34.9580   23.4140 C   0  0  0  0  0  0  0  0  0  0  0  0
  -26.5890  -34.8620   22.3730 O   0  0  0  0  0  0  0  0  0  0  0  0
  -25.0300  -34.0480   24.9800 H   0  0  0  0  0  0  0  0  0  0  0  0
  -24.1920  -36.7450   23.0970 C   0  0  0  0  0  1  0  0  0  0  0  0
  -25.4470  -36.3420   23.8870 C   0  0  0  0  0  3  0  0  0  0  0  0
  -27.5920  -37.2290   24.6870 C   0  0  0  0  0  1  0  0  0  0  0  0
  -26.4730  -37.4000   23.7640 N   0  0  0  0  0  0  0  0  0  0  0  0
  -26.0660  -38.3170   23.9280 H   0  0  0  0  0  0  0  0  0  0  0  0
  -26.4530  -31.7270   25.0950 C   0  0  1  0  0  0  0  0  0  0  0  0
  -25.3690  -31.4830   26.1710 C   0  0  0  0  0  1  0  0  0  0  0  0
  -27.0340  -30.3510   24.6900 C   0  0  0  0  0  1  0  0  0  0  0  0
  -27.6090  -32.5170   25.7490 C   0  0  0  0  0  1  0  0  0  0  0  0
  -29.5760  -20.5100   20.5420 C   0  0  0  0  0  2  0  0  0  0  0  0
  -29.1670  -19.1260   20.0830 N   0  0  0  0  0  4  0  0  0  0  0  0
  -28.1850  -18.9980   20.2550 H   0  0  0  0  0  0  0  0  0  0  0  0
  -29.2710  -19.2700   19.0870 H   0  0  0  0  0  0  0  0  0  0  0  0
  -30.6310  -14.6230   20.3510 C   0  0  0  0  0  0  0  0  0  0  0  0
  -30.3540  -12.3920   19.3060 C   0  0  0  0  0  2  0  0  0  0  0  0
  -29.4060  -12.5360   18.0970 C   0  0  0  0  0  2  0  0  0  0  0  0
  -27.9360  -12.3910   18.5400 C   0  0  0  0  0  2  0  0  0  0  0  0
  -27.5940  -13.2590   19.7810 C   0  0  0  0  0  3  0  0  0  0  0  0
  -28.6660  -13.1250   20.8870 C   0  0  0  0  0  2  0  0  0  0  0  0
  -29.9670  -13.4280   20.2810 N   0  0  0  0  0  0  0  0  0  0  0  0
  -31.8220  -14.7070   20.0440 O   0  0  0  0  0  0  0  0  0  0  0  0
  -29.3000  -16.7100   21.2000 C   0  0  0  0  0  2  0  0  0  0  0  0
  -30.0350  -16.8460   19.2420 C   0  0  0  0  0  2  0  0  0  0  0  0
  -29.9600  -17.8640   20.3950 C   0  0  0  0  0  3  0  0  0  0  0  0
  -29.8440  -15.7400   20.2120 N   0  0  0  0  0  0  0  0  0  0  0  0
  -25.2120  -13.8590   20.5270 C   0  0  0  0  0  0  0  0  0  0  0  0
  -24.1440  -13.0880   20.9000 C   0  0  0  0  0  0  0  0  0  0  0  0
  -24.6030  -11.7360   20.8630 C   0  0  0  0  0  0  0  0  0  0  0  0
  -26.2510  -12.9770   20.2820 N   0  0  0  0  0  0  0  0  0  0  0  0
  -25.8910  -11.6950   20.5470 N   0  0  0  0  0  0  0  0  0  0  0  0
  -23.8710  -10.4760   21.0550 C   0  0  0  0  0  0  0  0  0  0  0  0
  -24.3150   -9.4980   21.9730 C   0  0  0  0  0  3  0  0  0  0  0  0
  -23.5890   -8.3020   22.1510 C   0  0  0  0  0  3  0  0  0  0  0  0
  -22.4010   -8.0760   21.4140 C   0  0  0  0  0  0  0  0  0  0  0  0
  -21.9760   -9.0410   20.4850 C   0  0  0  0  0  3  0  0  0  0  0  0
  -22.7050  -10.2300   20.3040 C   0  0  0  0  0  3  0  0  0  0  0  0
  -21.6420   -6.9340   21.5060 O   0  0  0  0  0  0  0  0  0  0  0  0
  -21.6200   -6.1760   22.6490 C   0  0  0  0  0  0  0  0  0  0  0  0
  -21.2360   -6.7150   23.8950 C   0  0  0  0  0  3  0  0  0  0  0  0
  -21.1590   -5.8820   25.0290 C   0  0  0  0  0  3  0  0  0  0  0  0
  -21.4560   -4.5110   24.9190 C   0  0  0  0  0  0  0  0  0  0  0  0
  -21.8300   -3.9700   23.6750 C   0  0  0  0  0  3  0  0  0  0  0  0
  -21.9100   -4.8010   22.5440 C   0  0  0  0  0  0  0  0  0  0  0  0
  -22.2520   -4.2710   21.3450 F   0  0  0  0  0  0  0  0  0  0  0  0
  -21.3740   -3.7090   26.0060 F   0  0  0  0  0  0  0  0  0  0  0  0
  -22.7510  -13.5690   21.1840 C   0  0  0  0  0  0  0  0  0  0  0  0
  -22.0280  -12.8750   22.0560 N   0  0  0  0  0  0  0  0  0  0  0  0
  -22.3110  -14.5940   20.6650 O   0  0  0  0  0  0  0  0  0  0  0  0
  -22.3980  -12.0450   22.4970 H   0  0  0  0  0  0  0  0  0  0  0  0
  -21.0920  -13.1790   22.2870 H   0  0  0  0  0  0  0  0  0  0  0  0
  -25.3810  -15.2290   20.3520 N   0  0  0  0  0  0  0  0  0  0  0  0
  -24.6180  -15.8880   20.4650 H   0  0  0  0  0  0  0  0  0  0  0  0
  -26.2330  -15.6570   20.0150 H   0  0  0  0  0  0  0  0  0  0  0  0
  1  2  2  0
  1  5  1  0
  2  6  1  0
  3  4  1  0
  3 10  1  0
  4 53  1  0
  5  3  2  0
  6  4  2  0
  7  8  1  0
  7  9  1  0
  8  9  1  0
  9  2  1  0
 11 12  1  0
 11 10  1  0
 13 24  2  0
 14 12  1  0
 14 19  1  0
 15 23  1  0
 15 25  1  0
 16 22  1  0
 16 18  1  0
 17 23  1  0
 18 17  1  0
 19 18  2  0
 20 21  1  0
 20 14  2  0
 21 16  2  0
 22 15  1  0
 23 13  1  0
 25 27  2  0
 26 25  1  0
 28 26  1  0
 29 38  2  0
 29 34  1  0
 30 26  1  0
 30 34  1  0
 31 30  1  0
 32 33  1  0
 32 31  1  0
 33 29  1  0
 34 35  2  0
 35 36  1  0
 37 36  2  0
 38 37  1  0
 39 13  1  0
 39 40  1  0
 39 49  1  0
 40 43  1  0
 41 45  1  0
 41 40  1  0
 42 41  2  0
 45 44  1  0
 47 45  1  0
 47 48  1  0
 47 46  1  0
 49 52  1  1
 49 50  1  0
 51 49  1  0
 54 55  1  0
 54 53  1  0
 56 54  1  0
 58 63  1  0
 59 60  1  0
 59 58  1  0
 61 60  1  0
 61 72  1  0
 61 62  1  0
 63 57  1  0
 63 62  1  0
 64 57  2  0
 66 68  1  0
 66 67  1  0
 67 54  1  0
 67 65  1  0
 68 57  1  0
 68 65  1  0
 69 70  2  0
 70 89  1  0
 71 70  1  0
 71 74  1  0
 72 69  1  0
 72 73  1  0
 73 71  2  0
 74 75  1  0
 75 76  2  0
 77 80  1  0
 77 76  1  0
 78 77  2  0
 79 78  1  0
 79 74  2  0
 80 81  1  0
 81 82  1  0
 82 83  2  0
 84 83  1  0
 84 88  1  0
 85 84  2  0
 86 81  2  0
 86 85  1  0
 87 86  1  0
 89 90  1  0
 90 93  1  0
 90 92  1  0
 91 89  2  0
 94 95  1  0
 94 69  1  0
 96 94  1  0
M  ISO  4  11 101  12 101  57 100  68 100
M  END
>  <TORSDO>  (55) 
F 21

>  <SCORE>  (55) 
-13.657

>  <name>  (55) 
55

>  <ligand_id>  (55) 
55

>  <original_smiles>  (55) 
[H]c1nc(C([H])([H])C([H])([H])Oc2c([H])c([H])c3c(c2[H])C([H])([H])N(C(=O)C([H])(N([H])C(=O)C([H])(N([H])C([H])([H])[H])C([H])([H])[H])C(C([H])([H])[H])(C([H])([H])[H])C([H])([H])[H])C([H])(C(=O)N([H])C2([H])c4c([H])c([H])c([H])c([H])c4C([H])([H])C([H])([H])C2([H])[H])C3([H])[H])c(C([H])([H])[N+]([H])([H])C2([H])C([H])([H])N(C(=O)N3C([H])([H])C([H])([H])C([H])([H])C([H])(n4nc(-c5c([H])c([H])c(Oc6c([H])c([H])c(F)c([H])c6F)c([H])c5[H])c(C(=O)N([H])[H])c4N([H])[H])C3([H])[H])C2([H])[H])nc1C1([H])C([H])([H])C1([H])[H]

>  <smiles>  (55) 
[H]c1nc(C([H])([H])C([H])([H])Oc2c([H])c([H])c3c(c2[H])C([H])([H])N(C(=O)C([H])(N([H])C(=O)C([H])(N([H])C([H])([H])[H])C([H])([H])[H])C(C([H])([H])[H])(C([H])([H])[H])C([H])([H])[H])C([H])(C(=O)N([H])C2([H])c4c([H])c([H])c([H])c([H])c4C([H])([H])C([H])([H])C2([H])[H])C3([H])[H])c(C([H])([H])[N+]([H])([H])C2([H])C([H])([H])N(C(=O)N3C([H])([H])C([H])([H])C([H])([H])C([H])(n4nc(-c5c([H])c([H])c(Oc6c([H])c([H])c(F)c([H])c6F)c([H])c5[H])c(C(=O)N([H])[H])c4N([H])[H])C3([H])[H])C2([H])[H])nc1C1([H])C([H])([H])C1([H])[H]

$$$$
56:0:0
     RDKit          3D

 93103  0  0  1  0  0  0  0  0999 V2000
  -28.1430  -22.0250   21.2210 C   0  0  0  0  0  3  0  0  0  0  0  0
  -28.3930  -22.6710   20.0290 C   0  0  0  0  0  0  0  0  0  0  0  0
  -29.2230  -20.5630   19.9580 C   0  0  0  0  0  3  0  0  0  0  0  0
  -30.7460  -18.5150   20.2990 C   0  0  0  0  0  2  0  0  0  0  0  0
  -29.1080  -18.1850   19.0850 C   0  0  0  0  0  2  0  0  0  0  0  0
  -30.4160  -17.3820   19.2990 C   0  0  0  0  0  3  0  0  0  0  0  0
  -28.4730  -19.7330   22.2100 C   0  0  0  0  0  1  0  0  0  0  0  0
  -28.6250  -20.7380   21.1510 N   0  0  0  0  0  0  0  0  0  0  0  0
  -29.0820  -21.7240   19.2740 N   0  0  0  0  0  0  0  0  0  0  0  0
  -29.8990  -19.3720   19.4420 N   0  0  0  0  0  0  0  0  0  0  0  0
  -29.4250  -21.8690   18.3340 H   0  0  0  0  0  0  0  0  0  0  0  0
  -31.0390  -14.9280   19.5240 C   0  0  0  0  0  0  0  0  0  0  0  0
  -30.7620  -12.6530   18.5950 C   0  0  0  0  0  2  0  0  0  0  0  0
  -29.6910  -12.7220   17.4840 C   0  0  0  0  0  2  0  0  0  0  0  0
  -28.2780  -12.5580   18.0750 C   0  0  0  0  0  2  0  0  0  0  0  0
  -28.0360  -13.4600   19.3160 C   0  0  0  0  0  3  0  0  0  0  0  0
  -29.2120  -13.3750   20.3150 C   0  0  0  0  0  2  0  0  0  0  0  0
  -30.4440  -13.7010   19.5840 N   0  0  0  0  0  0  0  0  0  0  0  0
  -32.1410  -15.0930   18.9950 O   0  0  0  0  0  0  0  0  0  0  0  0
  -30.2530  -15.9960   19.8370 N   0  0  0  0  0  0  0  0  0  0  0  0
  -29.3720  -15.7790   20.2800 H   0  0  0  0  0  0  0  0  0  0  0  0
  -25.7780  -14.0450   20.3930 C   0  0  0  0  0  0  0  0  0  0  0  0
  -24.7500  -13.2650   20.8460 C   0  0  0  0  0  0  0  0  0  0  0  0
  -25.1650  -11.9110   20.6500 C   0  0  0  0  0  0  0  0  0  0  0  0
  -26.7560  -13.1670   19.9550 N   0  0  0  0  0  0  0  0  0  0  0  0
  -26.4020  -11.8750   20.1690 N   0  0  0  0  0  0  0  0  0  0  0  0
  -24.4380  -10.6510   20.8380 C   0  0  0  0  0  0  0  0  0  0  0  0
  -24.8390   -9.7040   21.8070 C   0  0  0  0  0  3  0  0  0  0  0  0
  -24.1110   -8.5070   21.9810 C   0  0  0  0  0  3  0  0  0  0  0  0
  -22.9680   -8.2500   21.1870 C   0  0  0  0  0  0  0  0  0  0  0  0
  -22.5870   -9.1840   20.2080 C   0  0  0  0  0  3  0  0  0  0  0  0
  -23.3160  -10.3720   20.0310 C   0  0  0  0  0  3  0  0  0  0  0  0
  -22.2140   -7.1040   21.2720 O   0  0  0  0  0  0  0  0  0  0  0  0
  -21.9250   -6.5200   22.4790 C   0  0  0  0  0  0  0  0  0  0  0  0
  -21.2140   -7.2050   23.4890 C   0  0  0  0  0  3  0  0  0  0  0  0
  -20.8790   -6.5440   24.6870 C   0  0  0  0  0  3  0  0  0  0  0  0
  -21.2440   -5.1970   24.8740 C   0  0  0  0  0  0  0  0  0  0  0  0
  -21.9460   -4.5100   23.8670 C   0  0  0  0  0  3  0  0  0  0  0  0
  -22.2830   -5.1700   22.6720 C   0  0  0  0  0  0  0  0  0  0  0  0
  -22.9410   -4.4980   21.6970 F   0  0  0  0  0  0  0  0  0  0  0  0
  -20.9140   -4.5570   26.0200 F   0  0  0  0  0  0  0  0  0  0  0  0
  -23.4150  -13.7420   21.3380 C   0  0  0  0  0  0  0  0  0  0  0  0
  -22.8040  -13.0080   22.2630 N   0  0  0  0  0  0  0  0  0  0  0  0
  -22.9260  -14.7980   20.9390 O   0  0  0  0  0  0  0  0  0  0  0  0
  -23.2170  -12.1540   22.6060 H   0  0  0  0  0  0  0  0  0  0  0  0
  -21.9130  -13.3070   22.6340 H   0  0  0  0  0  0  0  0  0  0  0  0
  -25.9550  -15.4220   20.2950 N   0  0  0  0  0  0  0  0  0  0  0  0
  -25.2130  -16.0700   20.5390 H   0  0  0  0  0  0  0  0  0  0  0  0
  -26.7290  -15.8660   19.8180 H   0  0  0  0  0  0  0  0  0  0  0  0
  -27.9900  -25.1400   20.5640 C   0  0  0  0  0  2  0  0  0  0  0  0
  -27.8530  -24.0620   19.6220 C   0  0  0  0  0  3  0  0  0  0  0  0
  -28.5440  -25.4180   19.1370 C   0  0  0  0  0  3  0  0  0  0  0  0
  -28.4740  -26.8740   19.4260 O   0  0  0  0  0  0  0  0  0  0  0  0
  -24.6120  -31.6450   23.0940 C   0  0  0  0  0  0  0  0  0  0  0  0
  -27.2850  -27.6160   19.4500 C   0  0  0  0  0  0  0  0  0  0  0  0
  -23.3900  -30.3530   21.3780 C   0  0  0  0  0  3  0  0  0  0  0  0
  -24.8340  -29.0490   19.7210 C   0  0  0  0  0  0  0  0  0  0  0  0
  -25.8880  -30.8490   21.0970 C   0  0  0  0  0  2  0  0  0  0  0  0
  -26.0020  -29.5550   20.3040 C   0  0  0  0  0  0  0  0  0  0  0  0
  -27.2270  -28.8490   20.1600 C   0  0  0  0  0  3  0  0  0  0  0  0
  -26.0930  -27.1520   18.8470 C   0  0  0  0  0  3  0  0  0  0  0  0
  -24.8790  -27.8540   18.9840 C   0  0  0  0  0  3  0  0  0  0  0  0
  -23.5560  -29.8330   19.9250 C   0  0  0  0  0  2  0  0  0  0  0  0
  -24.6500  -30.9620   21.9130 N   0  0  0  0  0  0  0  0  0  0  0  0
  -23.5490  -31.8010   23.7110 O   0  0  0  0  0  0  0  0  0  0  0  0
  -22.8420  -29.2060   22.2600 C   0  0  0  0  0  0  0  0  0  0  0  0
  -21.5380  -28.9130   22.1230 N   0  0  0  0  0  0  0  0  0  0  0  0
  -23.5860  -28.5850   23.0220 O   0  0  0  0  0  0  0  0  0  0  0  0
  -20.9930  -29.4710   21.4800 H   0  0  0  0  0  0  0  0  0  0  0  0
  -18.3010  -27.3500   22.5060 C   0  0  0  0  0  0  0  0  0  0  0  0
  -20.8180  -27.8480   22.8210 C   0  0  0  0  0  3  0  0  0  0  0  0
  -21.0690  -26.4760   22.1520 C   0  0  0  0  0  2  0  0  0  0  0  0
  -20.0100  -26.1130   21.1060 C   0  0  0  0  0  2  0  0  0  0  0  0
  -18.6170  -26.0740   21.7440 C   0  0  0  0  0  2  0  0  0  0  0  0
  -19.3350  -28.1910   22.9970 C   0  0  0  0  0  0  0  0  0  0  0  0
  -18.9860  -29.3850   23.6680 C   0  0  0  0  0  3  0  0  0  0  0  0
  -17.6360  -29.7360   23.8560 C   0  0  0  0  0  3  0  0  0  0  0  0
  -16.6180  -28.8920   23.3810 C   0  0  0  0  0  3  0  0  0  0  0  0
  -16.9510  -27.7020   22.7100 C   0  0  0  0  0  3  0  0  0  0  0  0
  -25.8950  -32.2820   23.7110 C   0  0  0  0  0  3  0  0  0  0  0  0
  -25.5570  -33.6540   24.1120 N   0  0  0  0  0  0  0  0  0  0  0  0
  -25.8180  -34.7470   23.3840 C   0  0  0  0  0  0  0  0  0  0  0  0
  -26.4380  -34.7080   22.3180 O   0  0  0  0  0  0  0  0  0  0  0  0
  -24.9930  -33.7550   24.9430 H   0  0  0  0  0  0  0  0  0  0  0  0
  -24.0040  -36.4810   23.2080 C   0  0  0  0  0  1  0  0  0  0  0  0
  -25.3090  -36.0990   23.9220 C   0  0  0  0  0  3  0  0  0  0  0  0
  -27.4490  -37.0510   24.6570 C   0  0  0  0  0  1  0  0  0  0  0  0
  -26.2910  -37.1960   23.7790 N   0  0  0  0  0  0  0  0  0  0  0  0
  -25.8580  -38.0950   23.9720 H   0  0  0  0  0  0  0  0  0  0  0  0
  -26.4650  -31.4670   24.9370 C   0  0  1  0  0  0  0  0  0  0  0  0
  -25.4020  -31.1350   26.0110 C   0  0  0  0  0  1  0  0  0  0  0  0
  -27.0900  -30.1340   24.4650 C   0  0  0  0  0  1  0  0  0  0  0  0
  -27.6020  -32.2690   25.6140 C   0  0  0  0  0  1  0  0  0  0  0  0
  2  1  2  0
  3  9  1  0
  3  8  1  0
  5  6  1  0
  6 20  1  0
  6  4  1  0
  8  1  1  0
  8  7  1  0
  9  2  1  0
 10  5  1  0
 10  3  1  0
 10  4  1  0
 11  9  1  0
 12 18  1  0
 12 20  1  0
 13 18  1  0
 14 15  1  0
 14 13  1  0
 16 15  1  0
 16 25  1  0
 16 17  1  0
 18 17  1  0
 19 12  2  0
 20 21  1  0
 22 23  2  0
 23 42  1  0
 24 27  1  0
 24 23  1  0
 25 26  1  0
 25 22  1  0
 26 24  2  0
 27 28  1  0
 28 29  2  0
 30 33  1  0
 30 29  1  0
 31 30  2  0
 32 31  1  0
 32 27  2  0
 33 34  1  0
 34 39  2  0
 34 35  1  0
 35 36  2  0
 36 37  1  0
 37 41  1  0
 38 37  2  0
 39 38  1  0
 40 39  1  0
 42 43  1  0
 43 45  1  0
 43 46  1  0
 44 42  2  0
 47 22  1  0
 47 48  1  0
 49 47  1  0
 51  2  1  0
 51 50  1  0
 52 53  1  0
 52 51  1  0
 52 50  1  0
 53 55  1  0
 54 65  2  0
 55 60  1  0
 56 64  1  0
 56 66  1  0
 57 63  1  0
 57 59  1  0
 58 64  1  0
 59 58  1  0
 60 59  2  0
 61 62  1  0
 61 55  2  0
 62 57  2  0
 63 56  1  0
 64 54  1  0
 66 68  2  0
 67 66  1  0
 69 67  1  0
 70 79  2  0
 70 75  1  0
 71 67  1  0
 71 75  1  0
 72 71  1  0
 73 74  1  0
 73 72  1  0
 74 70  1  0
 75 76  2  0
 76 77  1  0
 78 77  2  0
 79 78  1  0
 80 54  1  0
 80 81  1  0
 80 90  1  0
 81 84  1  0
 82 86  1  0
 82 81  1  0
 83 82  2  0
 86 85  1  0
 88 86  1  0
 88 89  1  0
 88 87  1  0
 90 93  1  1
 90 91  1  0
 92 90  1  0
M  ISO  4  12 100  20 100  52 101  53 101
M  END
>  <TORSDO>  (56) 
F 17

>  <SCORE>  (56) 
-10.209

>  <name>  (56) 
56

>  <ligand_id>  (56) 
56

>  <original_smiles>  (56) 
[H]c1c([H])c([H])c2c(c1[H])C([H])([H])C([H])([H])C([H])([H])C2([H])N([H])C(=O)C1([H])N(C(=O)C([H])(N([H])C(=O)C([H])(N([H])C([H])([H])[H])C([H])([H])[H])C(C([H])([H])[H])(C([H])([H])[H])C([H])([H])[H])C([H])([H])c2c([H])c(OC3([H])C([H])([H])C3([H])c3c([H])n(C([H])([H])[H])c(N4C([H])([H])C([H])(N([H])C(=O)N5C([H])([H])C([H])([H])C([H])([H])C([H])(n6nc(-c7c([H])c([H])c(Oc8c([H])c([H])c(F)c([H])c8F)c([H])c7[H])c(C(=O)N([H])[H])c6N([H])[H])C5([H])[H])C4([H])[H])[n+]3[H])c([H])c([H])c2C1([H])[H]

>  <smiles>  (56) 
[H]c1c([H])c([H])c2c(c1[H])C([H])([H])C([H])([H])C([H])([H])C2([H])N([H])C(=O)C1([H])N(C(=O)C([H])(N([H])C(=O)C([H])(N([H])C([H])([H])[H])C([H])([H])[H])C(C([H])([H])[H])(C([H])([H])[H])C([H])([H])[H])C([H])([H])c2c([H])c(OC3([H])C([H])([H])C3([H])c3c([H])n(C([H])([H])[H])c(N4C([H])([H])C([H])(N([H])C(=O)N5C([H])([H])C([H])([H])C([H])([H])C([H])(n6nc(-c7c([H])c([H])c(Oc8c([H])c([H])c(F)c([H])c8F)c([H])c7[H])c(C(=O)N([H])[H])c6N([H])[H])C5([H])[H])C4([H])[H])[n+]3[H])c([H])c([H])c2C1([H])[H]

$$$$
57:0:0
     RDKit          3D

100110  0  0  1  0  0  0  0  0999 V2000
  -31.2130  -21.1760   19.0140 C   0  0  0  0  0  3  0  0  0  0  0  0
  -28.9440  -21.8070   20.2700 C   0  0  0  0  0  3  0  0  0  0  0  0
  -30.4810  -22.3190   18.6650 C   0  0  0  0  0  0  0  0  0  0  0  0
  -30.7070  -20.3840   20.0440 C   0  0  0  0  0  0  0  0  0  0  0  0
  -29.3420  -22.6380   19.3070 N   0  0  0  0  0  0  0  0  0  0  0  0
  -29.5710  -20.7050   20.6750 N   0  0  0  0  0  0  0  0  0  0  0  0
  -31.4060  -19.2380   20.4370 N   0  0  0  0  0  0  0  0  0  0  0  0
  -32.2530  -19.0240   19.9220 H   0  0  0  0  0  0  0  0  0  0  0  0
  -30.6870  -14.4040   20.2830 C   0  0  0  0  0  0  0  0  0  0  0  0
  -30.2410  -12.3630   18.9640 C   0  0  0  0  0  2  0  0  0  0  0  0
  -29.2650  -12.6460   17.8070 C   0  0  0  0  0  2  0  0  0  0  0  0
  -27.8090  -12.4790   18.2790 C   0  0  0  0  0  2  0  0  0  0  0  0
  -27.5260  -13.2650   19.5840 C   0  0  0  0  0  3  0  0  0  0  0  0
  -28.6130  -12.9910   20.6520 C   0  0  0  0  0  2  0  0  0  0  0  0
  -29.9300  -13.2910   20.0650 N   0  0  0  0  0  0  0  0  0  0  0  0
  -31.7360  -14.6120   19.6650 O   0  0  0  0  0  0  0  0  0  0  0  0
  -31.8850  -17.1350   21.6240 C   0  0  0  0  0  2  0  0  0  0  0  0
  -29.6760  -17.4510   20.4090 C   0  0  0  0  0  2  0  0  0  0  0  0
  -31.3020  -15.8230   22.2000 C   0  0  0  0  0  2  0  0  0  0  0  0
  -29.1930  -16.1740   21.1210 C   0  0  0  0  0  2  0  0  0  0  0  0
  -30.7990  -18.1540   21.2040 C   0  0  0  0  0  3  0  0  0  0  0  0
  -30.3070  -15.2300   21.2920 N   0  0  0  0  0  0  0  0  0  0  0  0
  -25.1470  -13.8820   20.3500 C   0  0  0  0  0  0  0  0  0  0  0  0
  -24.0930  -13.1100   20.7560 C   0  0  0  0  0  0  0  0  0  0  0  0
  -24.5600  -11.7610   20.7310 C   0  0  0  0  0  0  0  0  0  0  0  0
  -26.1880  -12.9990   20.1000 N   0  0  0  0  0  0  0  0  0  0  0  0
  -25.8400  -11.7200   20.3900 N   0  0  0  0  0  0  0  0  0  0  0  0
  -23.8460  -10.4980   20.9540 C   0  0  0  0  0  0  0  0  0  0  0  0
  -24.3060   -9.5450   21.8880 C   0  0  0  0  0  3  0  0  0  0  0  0
  -23.5930   -8.3450   22.0960 C   0  0  0  0  0  3  0  0  0  0  0  0
  -22.4070   -8.0890   21.3670 C   0  0  0  0  0  0  0  0  0  0  0  0
  -21.9670   -9.0300   20.4190 C   0  0  0  0  0  3  0  0  0  0  0  0
  -22.6820  -10.2230   20.2100 C   0  0  0  0  0  3  0  0  0  0  0  0
  -21.6620   -6.9420   21.4830 O   0  0  0  0  0  0  0  0  0  0  0  0
  -21.6490   -6.2070   22.6420 C   0  0  0  0  0  0  0  0  0  0  0  0
  -21.2610   -6.7720   23.8770 C   0  0  0  0  0  3  0  0  0  0  0  0
  -21.1960   -5.9620   25.0300 C   0  0  0  0  0  3  0  0  0  0  0  0
  -21.5080   -4.5930   24.9490 C   0  0  0  0  0  0  0  0  0  0  0  0
  -21.8910   -4.0290   23.7190 C   0  0  0  0  0  3  0  0  0  0  0  0
  -21.9580   -4.8340   22.5690 C   0  0  0  0  0  0  0  0  0  0  0  0
  -22.3060   -4.2820   21.3810 F   0  0  0  0  0  0  0  0  0  0  0  0
  -21.4380   -3.8140   26.0540 F   0  0  0  0  0  0  0  0  0  0  0  0
  -22.7000  -13.5850   21.0570 C   0  0  0  0  0  0  0  0  0  0  0  0
  -21.9940  -12.8920   21.9430 N   0  0  0  0  0  0  0  0  0  0  0  0
  -22.2460  -14.6060   20.5410 O   0  0  0  0  0  0  0  0  0  0  0  0
  -22.3710  -12.0640   22.3800 H   0  0  0  0  0  0  0  0  0  0  0  0
  -21.0600  -13.1930   22.1860 H   0  0  0  0  0  0  0  0  0  0  0  0
  -25.3010  -15.2510   20.1520 N   0  0  0  0  0  0  0  0  0  0  0  0
  -24.5320  -15.9010   20.2760 H   0  0  0  0  0  0  0  0  0  0  0  0
  -26.1350  -15.6900   19.7860 H   0  0  0  0  0  0  0  0  0  0  0  0
  -30.1860  -23.2730   16.2570 C   0  0  0  0  0  2  0  0  0  0  0  0
  -31.5840  -22.7160   16.3340 C   0  0  0  0  0  2  0  0  0  0  0  0
  -30.9220  -23.2710   17.5810 C   0  0  2  0  0  0  0  0  0  0  0  0
  -31.4160  -24.5870   18.1690 C   0  0  0  0  0  2  0  0  0  0  0  0
  -30.3040  -25.4040   18.7020 N   0  0  0  0  0  4  0  0  0  0  0  0
  -29.6310  -24.7690   19.1190 H   0  0  0  0  0  0  0  0  0  0  0  0
  -29.8400  -25.8610   17.9340 H   0  0  0  0  0  0  0  0  0  0  0  0
  -30.7080  -26.4060   19.7160 C   0  0  0  0  0  2  0  0  0  0  0  0
  -29.5970  -27.4290   19.9860 C   0  0  0  0  0  2  0  0  0  0  0  0
  -28.3740  -26.7290   20.1950 O   0  0  0  0  0  0  0  0  0  0  0  0
  -24.5330  -31.9260   23.2380 C   0  0  0  0  0  0  0  0  0  0  0  0
  -27.2260  -27.4830   20.2370 C   0  0  0  0  0  0  0  0  0  0  0  0
  -23.3330  -30.4830   21.6240 C   0  0  0  0  0  3  0  0  0  0  0  0
  -24.8000  -28.9310   20.2300 C   0  0  0  0  0  0  0  0  0  0  0  0
  -25.8490  -30.8720   21.4080 C   0  0  0  0  0  2  0  0  0  0  0  0
  -25.9480  -29.4900   20.8010 C   0  0  0  0  0  0  0  0  0  0  0  0
  -27.1630  -28.7760   20.8080 C   0  0  0  0  0  3  0  0  0  0  0  0
  -26.0560  -26.9190   19.6900 C   0  0  0  0  0  3  0  0  0  0  0  0
  -24.8450  -27.6390   19.6730 C   0  0  0  0  0  3  0  0  0  0  0  0
  -23.5460  -29.7750   20.2570 C   0  0  0  0  0  2  0  0  0  0  0  0
  -24.5900  -31.1080   22.1500 N   0  0  0  0  0  0  0  0  0  0  0  0
  -23.4520  -32.1990   23.7780 O   0  0  0  0  0  0  0  0  0  0  0  0
  -22.6930  -29.4760   22.6050 C   0  0  0  0  0  0  0  0  0  0  0  0
  -21.3740  -29.2670   22.4680 N   0  0  0  0  0  0  0  0  0  0  0  0
  -23.3800  -28.8860   23.4420 O   0  0  0  0  0  0  0  0  0  0  0  0
  -20.8800  -29.7990   21.7640 H   0  0  0  0  0  0  0  0  0  0  0  0
  -18.0190  -28.0210   22.9430 C   0  0  0  0  0  0  0  0  0  0  0  0
  -20.5650  -28.3370   23.2540 C   0  0  0  0  0  3  0  0  0  0  0  0
  -20.7070  -26.8920   22.7240 C   0  0  0  0  0  2  0  0  0  0  0  0
  -19.6310  -26.5160   21.7000 C   0  0  0  0  0  2  0  0  0  0  0  0
  -18.2340  -26.6560   22.3130 C   0  0  0  0  0  2  0  0  0  0  0  0
  -19.1140  -28.8170   23.3710 C   0  0  0  0  0  0  0  0  0  0  0  0
  -18.8610  -30.0950   23.9160 C   0  0  0  0  0  3  0  0  0  0  0  0
  -17.5450  -30.5750   24.0420 C   0  0  0  0  0  3  0  0  0  0  0  0
  -16.4630  -29.7760   23.6340 C   0  0  0  0  0  3  0  0  0  0  0  0
  -16.7000  -28.5010   23.0900 C   0  0  0  0  0  3  0  0  0  0  0  0
  -25.8180  -32.5750   23.8430 C   0  0  0  0  0  3  0  0  0  0  0  0
  -25.4970  -33.9710   24.1650 N   0  0  0  0  0  0  0  0  0  0  0  0
  -25.8230  -35.0210   23.3980 C   0  0  0  0  0  0  0  0  0  0  0  0
  -26.4980  -34.9170   22.3690 O   0  0  0  0  0  0  0  0  0  0  0  0
  -24.9000  -34.1260   24.9630 H   0  0  0  0  0  0  0  0  0  0  0  0
  -24.0850  -36.7970   23.0200 C   0  0  0  0  0  1  0  0  0  0  0  0
  -25.3220  -36.4070   23.8450 C   0  0  0  0  0  3  0  0  0  0  0  0
  -27.4470  -37.3110   24.6840 C   0  0  0  0  0  1  0  0  0  0  0  0
  -26.3480  -37.4680   23.7340 N   0  0  0  0  0  0  0  0  0  0  0  0
  -25.9330  -38.3850   23.8780 H   0  0  0  0  0  0  0  0  0  0  0  0
  -26.3560  -31.8170   25.1180 C   0  0  1  0  0  0  0  0  0  0  0  0
  -25.2740  -31.5560   26.1900 C   0  0  0  0  0  1  0  0  0  0  0  0
  -26.9700  -30.4540   24.7200 C   0  0  0  0  0  1  0  0  0  0  0  0
  -27.4910  -32.6380   25.7770 C   0  0  0  0  0  1  0  0  0  0  0  0
  1  4  1  0
  2  6  1  0
  3  1  2  0
  3  5  1  0
  4  7  1  0
  4  6  2  0
  5  2  2  0
  8  7  1  0
  9 22  1  0
 10 15  1  0
 11 12  1  0
 11 10  1  0
 13 12  1  0
 13 26  1  0
 13 14  1  0
 15  9  1  0
 15 14  1  0
 16  9  2  0
 17 19  1  0
 18 20  1  0
 18 21  1  0
 20 22  1  0
 21  7  1  0
 21 17  1  0
 22 19  1  0
 23 24  2  0
 24 43  1  0
 25 24  1  0
 25 28  1  0
 26 23  1  0
 26 27  1  0
 27 25  2  0
 28 29  1  0
 29 30  2  0
 31 34  1  0
 31 30  1  0
 32 31  2  0
 33 32  1  0
 33 28  2  0
 34 35  1  0
 35 36  1  0
 36 37  2  0
 38 37  1  0
 38 42  1  0
 39 38  2  0
 40 35  2  0
 40 39  1  0
 41 40  1  0
 43 44  1  0
 44 47  1  0
 44 46  1  0
 45 43  2  0
 48 49  1  0
 48 23  1  0
 50 48  1  0
 51 52  1  0
 51 53  1  0
 52 53  1  0
 53 54  1  1
 53  3  1  0
 54 55  1  0
 55 56  1  0
 55 58  1  0
 57 55  1  0
 58 59  1  0
 59 60  1  0
 60 62  1  0
 61 72  2  0
 62 67  1  0
 63 71  1  0
 63 73  1  0
 64 70  1  0
 64 66  1  0
 65 71  1  0
 66 67  2  0
 66 65  1  0
 68 62  2  0
 69 68  1  0
 69 64  2  0
 70 63  1  0
 71 61  1  0
 73 75  2  0
 74 73  1  0
 76 74  1  0
 77 86  2  0
 77 82  1  0
 78 74  1  0
 78 82  1  0
 79 78  1  0
 80 81  1  0
 80 79  1  0
 81 77  1  0
 82 83  2  0
 83 84  1  0
 85 84  2  0
 86 85  1  0
 87 61  1  0
 87 88  1  0
 87 97  1  0
 88 91  1  0
 89 93  1  0
 89 88  1  0
 90 89  2  0
 93 92  1  0
 95 93  1  0
 95 96  1  0
 95 94  1  0
 97100  1  1
 97 98  1  0
 99 97  1  0
M  ISO  4   9 100  22 100  59 101  60 101
M  END
>  <TORSDO>  (57) 
F 21

>  <SCORE>  (57) 
-12.790

>  <name>  (57) 
57

>  <ligand_id>  (57) 
57

>  <original_smiles>  (57) 
[H]c1nc(N([H])C2([H])C([H])([H])C([H])([H])N(C(=O)N3C([H])([H])C([H])([H])C([H])([H])C([H])(n4nc(-c5c([H])c([H])c(Oc6c([H])c([H])c(F)c([H])c6F)c([H])c5[H])c(C(=O)N([H])[H])c4N([H])[H])C3([H])[H])C([H])([H])C2([H])[H])c([H])c(C2(C([H])([H])[N+]([H])([H])C([H])([H])C([H])([H])Oc3c([H])c([H])c4c(c3[H])C([H])([H])N(C(=O)C([H])(N([H])C(=O)C([H])(N([H])C([H])([H])[H])C([H])([H])[H])C(C([H])([H])[H])(C([H])([H])[H])C([H])([H])[H])C([H])(C(=O)N([H])C3([H])c5c([H])c([H])c([H])c([H])c5C([H])([H])C([H])([H])C3([H])[H])C4([H])[H])C([H])([H])C2([H])[H])n1

>  <smiles>  (57) 
[H]c1nc(N([H])C2([H])C([H])([H])C([H])([H])N(C(=O)N3C([H])([H])C([H])([H])C([H])([H])C([H])(n4nc(-c5c([H])c([H])c(Oc6c([H])c([H])c(F)c([H])c6F)c([H])c5[H])c(C(=O)N([H])[H])c4N([H])[H])C3([H])[H])C([H])([H])C2([H])[H])c([H])c(C2(C([H])([H])[N+]([H])([H])C([H])([H])C([H])([H])Oc3c([H])c([H])c4c(c3[H])C([H])([H])N(C(=O)C([H])(N([H])C(=O)C([H])(N([H])C([H])([H])[H])C([H])([H])[H])C(C([H])([H])[H])(C([H])([H])[H])C([H])([H])[H])C([H])(C(=O)N([H])C3([H])c5c([H])c([H])c([H])c([H])c5C([H])([H])C([H])([H])C3([H])[H])C4([H])[H])C([H])([H])C2([H])[H])n1

$$$$
58:0:0
     RDKit          3D

 94103  0  0  1  0  0  0  0  0999 V2000
  -27.8030  -22.0080   20.3320 C   0  0  0  0  0  3  0  0  0  0  0  0
  -28.1510  -20.6820   20.3850 C   0  0  0  0  0  3  0  0  0  0  0  0
  -29.0230  -22.7240   20.5010 C   0  0  0  0  0  0  0  0  0  0  0  0
  -30.0370  -21.8660   20.6510 N   0  0  0  0  0  0  0  0  0  0  0  0
  -29.5240  -20.6040   20.5490 N   0  0  0  0  0  0  0  0  0  0  0  0
  -30.2980  -17.8590   18.9410 C   0  0  0  0  0  2  0  0  0  0  0  0
  -31.6990  -19.5140   19.9070 C   0  0  0  0  0  2  0  0  0  0  0  0
  -29.8260  -18.0180   20.3920 C   0  0  0  0  0  3  0  0  0  0  0  0
  -30.4060  -19.4270   20.7640 C   0  0  0  0  0  3  0  0  0  0  0  0
  -32.2620  -18.6590   17.6270 C   0  0  0  0  0  1  0  0  0  0  0  0
  -31.6790  -18.3780   18.9570 N   0  0  2  0  0  4  0  0  0  0  0  0
  -32.2440  -17.6470   19.3640 H   0  0  0  0  0  0  0  0  0  0  0  0
  -30.3760  -16.8850   21.3290 C   0  0  0  0  0  2  0  0  0  0  0  0
  -30.6530  -14.4990   20.5170 C   0  0  0  0  0  0  0  0  0  0  0  0
  -30.3840  -12.3390   19.3520 C   0  0  0  0  0  2  0  0  0  0  0  0
  -29.4480  -12.5320   18.1380 C   0  0  0  0  0  2  0  0  0  0  0  0
  -27.9680  -12.4100   18.5590 C   0  0  0  0  0  2  0  0  0  0  0  0
  -27.6240  -13.2510   19.8170 C   0  0  0  0  0  3  0  0  0  0  0  0
  -28.6630  -13.0130   20.9350 C   0  0  0  0  0  2  0  0  0  0  0  0
  -29.9910  -13.3190   20.3770 N   0  0  0  0  0  0  0  0  0  0  0  0
  -31.7900  -14.6920   20.0760 O   0  0  0  0  0  0  0  0  0  0  0  0
  -29.9240  -15.5110   21.0270 N   0  0  0  0  0  0  0  0  0  0  0  0
  -28.9800  -15.2720   21.2970 H   0  0  0  0  0  0  0  0  0  0  0  0
  -25.2190  -13.8820   20.4920 C   0  0  0  0  0  0  0  0  0  0  0  0
  -24.1420  -13.1190   20.8530 C   0  0  0  0  0  0  0  0  0  0  0  0
  -24.5970  -11.7660   20.8420 C   0  0  0  0  0  0  0  0  0  0  0  0
  -26.2620  -12.9930   20.2810 N   0  0  0  0  0  0  0  0  0  0  0  0
  -25.8880  -11.7160   20.5490 N   0  0  0  0  0  0  0  0  0  0  0  0
  -23.8640  -10.5080   21.0340 C   0  0  0  0  0  0  0  0  0  0  0  0
  -24.2860   -9.5410   21.9740 C   0  0  0  0  0  3  0  0  0  0  0  0
  -23.5510   -8.3490   22.1530 C   0  0  0  0  0  3  0  0  0  0  0  0
  -22.3810   -8.1140   21.3940 C   0  0  0  0  0  0  0  0  0  0  0  0
  -21.9770   -9.0710   20.4450 C   0  0  0  0  0  3  0  0  0  0  0  0
  -22.7120  -10.2540   20.2640 C   0  0  0  0  0  3  0  0  0  0  0  0
  -21.6220   -6.9730   21.4800 O   0  0  0  0  0  0  0  0  0  0  0  0
  -21.5670   -6.2320   22.6350 C   0  0  0  0  0  0  0  0  0  0  0  0
  -21.1490   -6.7930   23.8600 C   0  0  0  0  0  3  0  0  0  0  0  0
  -21.0400   -5.9790   25.0050 C   0  0  0  0  0  3  0  0  0  0  0  0
  -21.3400   -4.6060   24.9270 C   0  0  0  0  0  0  0  0  0  0  0  0
  -21.7540   -4.0450   23.7060 C   0  0  0  0  0  3  0  0  0  0  0  0
  -21.8650   -4.8570   22.5630 C   0  0  0  0  0  0  0  0  0  0  0  0
  -22.2430   -4.3070   21.3840 F   0  0  0  0  0  0  0  0  0  0  0  0
  -21.2290   -3.8220   26.0240 F   0  0  0  0  0  0  0  0  0  0  0  0
  -22.7430  -13.6070   21.1020 C   0  0  0  0  0  0  0  0  0  0  0  0
  -22.0010  -12.9260   21.9670 N   0  0  0  0  0  0  0  0  0  0  0  0
  -22.3180  -14.6290   20.5660 O   0  0  0  0  0  0  0  0  0  0  0  0
  -22.3580  -12.1020   22.4280 H   0  0  0  0  0  0  0  0  0  0  0  0
  -21.0630  -13.2350   22.1780 H   0  0  0  0  0  0  0  0  0  0  0  0
  -25.3930  -15.2490   20.3050 N   0  0  0  0  0  0  0  0  0  0  0  0
  -24.6260  -15.9040   20.3980 H   0  0  0  0  0  0  0  0  0  0  0  0
  -26.2450  -15.6810   19.9690 H   0  0  0  0  0  0  0  0  0  0  0  0
  -29.2750  -24.2370   20.5820 C   0  0  0  0  0  3  0  0  0  0  0  0
  -28.1360  -25.1540   20.0450 C   0  0  0  0  0  3  0  0  0  0  0  0
  -28.3400  -26.5870   20.2270 O   0  0  0  0  0  0  0  0  0  0  0  0
  -24.6110  -31.9010   23.2510 C   0  0  0  0  0  0  0  0  0  0  0  0
  -27.2040  -27.3900   20.1810 C   0  0  0  0  0  0  0  0  0  0  0  0
  -23.3980  -30.5080   21.6140 C   0  0  0  0  0  3  0  0  0  0  0  0
  -24.8380  -28.9660   20.1840 C   0  0  0  0  0  0  0  0  0  0  0  0
  -25.9340  -30.8360   21.4190 C   0  0  0  0  0  2  0  0  0  0  0  0
  -26.0070  -29.4640   20.7720 C   0  0  0  0  0  0  0  0  0  0  0  0
  -27.1950  -28.6850   20.7640 C   0  0  0  0  0  3  0  0  0  0  0  0
  -26.0100  -26.9290   19.5770 C   0  0  0  0  0  3  0  0  0  0  0  0
  -24.8360  -27.7000   19.5830 C   0  0  0  0  0  3  0  0  0  0  0  0
  -23.6050  -29.8390   20.2310 C   0  0  0  0  0  2  0  0  0  0  0  0
  -24.6670  -31.0970   22.1510 N   0  0  0  0  0  0  0  0  0  0  0  0
  -23.5300  -32.1800   23.7890 O   0  0  0  0  0  0  0  0  0  0  0  0
  -22.7400  -29.4860   22.5700 C   0  0  0  0  0  0  0  0  0  0  0  0
  -21.4140  -29.3100   22.4450 N   0  0  0  0  0  0  0  0  0  0  0  0
  -23.4210  -28.8570   23.3840 O   0  0  0  0  0  0  0  0  0  0  0  0
  -20.9250  -29.8700   21.7610 H   0  0  0  0  0  0  0  0  0  0  0  0
  -18.0340  -28.1370   22.9540 C   0  0  0  0  0  0  0  0  0  0  0  0
  -20.5950  -28.3780   23.2190 C   0  0  0  0  0  3  0  0  0  0  0  0
  -20.6870  -26.9460   22.6410 C   0  0  0  0  0  2  0  0  0  0  0  0
  -19.5790  -26.6320   21.6300 C   0  0  0  0  0  2  0  0  0  0  0  0
  -18.2010  -26.7860   22.2780 C   0  0  0  0  0  2  0  0  0  0  0  0
  -19.1600  -28.8900   23.3830 C   0  0  0  0  0  0  0  0  0  0  0  0
  -18.9510  -30.1550   23.9750 C   0  0  0  0  0  3  0  0  0  0  0  0
  -17.6510  -30.6660   24.1420 C   0  0  0  0  0  3  0  0  0  0  0  0
  -16.5410  -29.9100   23.7320 C   0  0  0  0  0  3  0  0  0  0  0  0
  -16.7330  -28.6470   23.1440 C   0  0  0  0  0  3  0  0  0  0  0  0
  -25.8980  -32.5300   23.8670 C   0  0  0  0  0  3  0  0  0  0  0  0
  -26.4160  -31.7570   25.1420 C   0  0  1  0  0  0  0  0  0  0  0  0
  -25.3260  -31.5270   26.2140 C   0  0  0  0  0  1  0  0  0  0  0  0
  -26.9900  -30.3770   24.7480 C   0  0  0  0  0  1  0  0  0  0  0  0
  -27.5740  -32.5460   25.7990 C   0  0  0  0  0  1  0  0  0  0  0  0
  -25.5930  -33.9290   24.1970 N   0  0  0  0  0  0  0  0  0  0  0  0
  -25.9210  -34.9790   23.4330 C   0  0  0  0  0  0  0  0  0  0  0  0
  -26.5830  -34.8720   22.3950 O   0  0  0  0  0  0  0  0  0  0  0  0
  -25.0020  -34.0860   25.0000 H   0  0  0  0  0  0  0  0  0  0  0  0
  -24.1880  -36.7710   23.0910 C   0  0  0  0  0  1  0  0  0  0  0  0
  -25.4380  -36.3680   23.8910 C   0  0  0  0  0  3  0  0  0  0  0  0
  -27.5810  -37.2530   24.6980 C   0  0  0  0  0  1  0  0  0  0  0  0
  -26.4700  -37.4220   23.7660 N   0  0  0  0  0  0  0  0  0  0  0  0
  -26.0650  -38.3410   23.9220 H   0  0  0  0  0  0  0  0  0  0  0  0
  1  2  2  0
  1  3  1  0
  2  5  1  0
  3 52  1  0
  3  4  2  0
  5  4  1  0
  5  9  1  0
  6 11  1  0
  6  8  1  0
  8  9  1  0
  8 13  1  0
  9  7  1  0
 10 11  1  0
 11 12  1  1
 11  7  1  0
 14 22  1  0
 15 20  1  0
 16 17  1  0
 16 15  1  0
 18 17  1  0
 18 27  1  0
 18 19  1  0
 20 14  1  0
 20 19  1  0
 21 14  2  0
 22 23  1  0
 22 13  1  0
 24 25  2  0
 25 44  1  0
 26 25  1  0
 26 29  1  0
 27 24  1  0
 27 28  1  0
 28 26  2  0
 29 30  1  0
 30 31  2  0
 32 35  1  0
 32 31  1  0
 33 32  2  0
 34 33  1  0
 34 29  2  0
 35 36  1  0
 36 37  1  0
 37 38  2  0
 39 38  1  0
 39 43  1  0
 40 39  2  0
 41 36  2  0
 41 40  1  0
 42 41  1  0
 44 45  1  0
 45 48  1  0
 45 47  1  0
 46 44  2  0
 49 50  1  0
 49 24  1  0
 51 49  1  0
 53 54  1  0
 53 52  2  0
 55 66  2  0
 56 54  1  0
 56 61  1  0
 57 65  1  0
 57 67  1  0
 58 64  1  0
 58 60  1  0
 59 65  1  0
 60 59  1  0
 61 60  2  0
 62 63  1  0
 62 56  2  0
 63 58  2  0
 64 57  1  0
 65 55  1  0
 67 69  2  0
 68 67  1  0
 70 68  1  0
 71 80  2  0
 71 76  1  0
 72 68  1  0
 72 76  1  0
 73 72  1  0
 74 75  1  0
 74 73  1  0
 75 71  1  0
 76 77  2  0
 77 78  1  0
 79 78  2  0
 80 79  1  0
 81 55  1  0
 81 86  1  0
 81 82  1  0
 82 85  1  1
 82 83  1  0
 84 82  1  0
 86 89  1  0
 87 91  1  0
 87 86  1  0
 88 87  2  0
 91 90  1  0
 93 91  1  0
 93 94  1  0
 93 92  1  0
M  ISO  4  14 100  22 100  53 101  54 101
M  END
>  <TORSDO>  (58) 
F 20

>  <SCORE>  (58) 
-14.137

>  <name>  (58) 
58

>  <ligand_id>  (58) 
58

>  <original_smiles>  (58) 
[H]c1c([H])c([H])c2c(c1[H])C([H])([H])C([H])([H])C([H])([H])C2([H])N([H])C(=O)C1([H])N(C(=O)C([H])(N([H])C(=O)C([H])(N([H])C([H])([H])[H])C([H])([H])[H])C(C([H])([H])[H])(C([H])([H])[H])C([H])([H])[H])C([H])([H])c2c([H])c(OC([H])([H])C([H])([H])c3nn(C4([H])C([H])(C([H])([H])N([H])C(=O)N5C([H])([H])C([H])([H])C([H])([H])C([H])(n6nc(-c7c([H])c([H])c(Oc8c([H])c([H])c(F)c([H])c8F)c([H])c7[H])c(C(=O)N([H])[H])c6N([H])[H])C5([H])[H])C([H])([H])[N+]([H])(C([H])([H])[H])C4([H])[H])c([H])c3[H])c([H])c([H])c2C1([H])[H]

>  <smiles>  (58) 
[H]c1c([H])c([H])c2c(c1[H])C([H])([H])C([H])([H])C([H])([H])C2([H])N([H])C(=O)C1([H])N(C(=O)C([H])(N([H])C(=O)C([H])(N([H])C([H])([H])[H])C([H])([H])[H])C(C([H])([H])[H])(C([H])([H])[H])C([H])([H])[H])C([H])([H])c2c([H])c(OC([H])([H])C([H])([H])c3nn(C4([H])C([H])(C([H])([H])N([H])C(=O)N5C([H])([H])C([H])([H])C([H])([H])C([H])(n6nc(-c7c([H])c([H])c(Oc8c([H])c([H])c(F)c([H])c8F)c([H])c7[H])c(C(=O)N([H])[H])c6N([H])[H])C5([H])[H])C([H])([H])[N+]([H])(C([H])([H])[H])C4([H])[H])c([H])c3[H])c([H])c([H])c2C1([H])[H]

$$$$
59:0:0
     RDKit          3D

104114  0  0  1  0  0  0  0  0999 V2000
  -27.4880  -19.3760   19.9930 C   0  0  0  0  0  3  0  0  0  0  0  0
  -31.7970  -18.2520   17.5810 C   0  0  0  0  0  3  0  0  0  0  0  0
  -32.9150  -17.5340   18.0580 C   0  0  0  0  0  3  0  0  0  0  0  0
  -30.6540  -18.2340   18.3930 C   0  0  0  0  0  0  0  0  0  0  0  0
  -30.6520  -17.5310   19.5770 C   0  0  0  0  0  0  0  0  0  0  0  0
  -31.7950  -16.8320   19.9840 C   0  0  0  0  0  0  0  0  0  0  0  0
  -29.3310  -18.9260   18.2350 C   0  0  0  0  0  2  0  0  0  0  0  0
  -29.3250  -17.6980   20.2590 C   0  0  0  0  0  2  0  0  0  0  0  0
  -32.9210  -16.8500   19.2320 N   0  0  0  0  0  0  0  0  0  0  0  0
  -28.8400  -18.9300   19.6280 N   0  0  0  0  0  0  0  0  0  0  0  0
  -31.7790  -15.9640   21.2310 C   0  0  0  0  0  2  0  0  0  0  0  0
  -31.3610  -13.8320   20.0600 C   0  0  0  0  0  0  0  0  0  0  0  0
  -30.8300  -11.6530   19.0420 C   0  0  0  0  0  2  0  0  0  0  0  0
  -29.8500  -11.7950   17.8640 C   0  0  0  0  0  2  0  0  0  0  0  0
  -28.3960  -11.7650   18.3650 C   0  0  0  0  0  2  0  0  0  0  0  0
  -28.1540  -12.7450   19.5430 C   0  0  0  0  0  3  0  0  0  0  0  0
  -29.2390  -12.5870   20.6310 C   0  0  0  0  0  2  0  0  0  0  0  0
  -30.5640  -12.7360   20.0010 N   0  0  0  0  0  0  0  0  0  0  0  0
  -32.3490  -13.9800   19.3380 O   0  0  0  0  0  0  0  0  0  0  0  0
  -31.0460  -14.7240   21.0030 N   0  0  0  0  0  0  0  0  0  0  0  0
  -30.2360  -14.5420   21.5740 H   0  0  0  0  0  0  0  0  0  0  0  0
  -25.8840  -13.5510   20.4530 C   0  0  0  0  0  0  0  0  0  0  0  0
  -24.7640  -12.8750   20.8490 C   0  0  0  0  0  0  0  0  0  0  0  0
  -25.0690  -11.4870   20.7000 C   0  0  0  0  0  0  0  0  0  0  0  0
  -26.8110  -12.5850   20.0980 N   0  0  0  0  0  0  0  0  0  0  0  0
  -26.3250  -11.3340   20.2990 N   0  0  0  0  0  0  0  0  0  0  0  0
  -24.2210  -10.3000   20.8580 C   0  0  0  0  0  0  0  0  0  0  0  0
  -24.5460   -9.2780   21.7760 C   0  0  0  0  0  3  0  0  0  0  0  0
  -23.7040   -8.1550   21.9240 C   0  0  0  0  0  3  0  0  0  0  0  0
  -22.5230   -8.0470   21.1540 C   0  0  0  0  0  0  0  0  0  0  0  0
  -22.2160   -9.0560   20.2240 C   0  0  0  0  0  3  0  0  0  0  0  0
  -23.0570  -10.1710   20.0740 C   0  0  0  0  0  3  0  0  0  0  0  0
  -21.6600   -6.9800   21.2130 O   0  0  0  0  0  0  0  0  0  0  0  0
  -21.3750   -6.3500   22.3980 C   0  0  0  0  0  0  0  0  0  0  0  0
  -20.8080   -7.0400   23.4920 C   0  0  0  0  0  3  0  0  0  0  0  0
  -20.4660   -6.3390   24.6660 C   0  0  0  0  0  3  0  0  0  0  0  0
  -20.6830   -4.9510   24.7450 C   0  0  0  0  0  0  0  0  0  0  0  0
  -21.2430   -4.2610   23.6560 C   0  0  0  0  0  3  0  0  0  0  0  0
  -21.5850   -4.9590   22.4840 C   0  0  0  0  0  0  0  0  0  0  0  0
  -22.1050   -4.2860   21.4300 F   0  0  0  0  0  0  0  0  0  0  0  0
  -20.3470   -4.2760   25.8700 F   0  0  0  0  0  0  0  0  0  0  0  0
  -23.4480  -13.4790   21.2480 C   0  0  0  0  0  0  0  0  0  0  0  0
  -22.7320  -12.8420   22.1660 N   0  0  0  0  0  0  0  0  0  0  0  0
  -23.0770  -14.5550   20.7810 O   0  0  0  0  0  0  0  0  0  0  0  0
  -23.0500  -11.9690   22.5620 H   0  0  0  0  0  0  0  0  0  0  0  0
  -21.8510  -13.2280   22.4740 H   0  0  0  0  0  0  0  0  0  0  0  0
  -26.1800  -14.9060   20.3360 N   0  0  0  0  0  0  0  0  0  0  0  0
  -25.3520  -15.4700   20.2020 H   0  0  0  0  0  0  0  0  0  0  0  0
  -26.9230  -15.1500   19.6940 H   0  0  0  0  0  0  0  0  0  0  0  0
  -26.8500  -21.7960   19.2960 C   0  0  0  0  0  2  0  0  0  0  0  0
  -28.8910  -21.3710   20.8500 C   0  0  0  0  0  2  0  0  0  0  0  0
  -27.1100  -23.2850   19.5230 C   0  0  0  0  0  2  0  0  0  0  0  0
  -29.0480  -22.8950   20.9330 C   0  0  0  0  0  2  0  0  0  0  0  0
  -27.4800  -20.8870   20.3840 C   0  0  0  0  0  3  0  0  0  0  0  0
  -28.5670  -23.5070   19.6780 N   0  0  2  0  0  4  0  0  0  0  0  0
  -29.0180  -22.9910   18.9360 H   0  0  0  0  0  0  0  0  0  0  0  0
  -28.9760  -24.9140   19.5000 C   0  0  0  0  0  2  0  0  0  0  0  0
  -29.0160  -25.2880   17.9990 C   0  0  0  0  0  2  0  0  0  0  0  0
  -28.8440  -26.6860   17.8070 O   0  0  0  0  0  0  0  0  0  0  0  0
  -25.0950  -29.8060   22.9170 C   0  0  0  0  0  0  0  0  0  0  0  0
  -27.6160  -27.2040   18.1410 C   0  0  0  0  0  0  0  0  0  0  0  0
  -23.7790  -28.9760   20.9900 C   0  0  0  0  0  3  0  0  0  0  0  0
  -25.1360  -28.2650   18.9540 C   0  0  0  0  0  0  0  0  0  0  0  0
  -26.2170  -29.6920   20.7030 C   0  0  0  0  0  2  0  0  0  0  0  0
  -26.3150  -28.6840   19.5810 C   0  0  0  0  0  0  0  0  0  0  0  0
  -27.5600  -28.1610   19.1740 C   0  0  0  0  0  3  0  0  0  0  0  0
  -26.4140  -26.7880   17.5160 C   0  0  0  0  0  3  0  0  0  0  0  0
  -25.1770  -27.3080   17.9280 C   0  0  0  0  0  3  0  0  0  0  0  0
  -23.8470  -28.8820   19.4420 C   0  0  0  0  0  2  0  0  0  0  0  0
  -25.0550  -29.4820   21.5940 N   0  0  0  0  0  0  0  0  0  0  0  0
  -24.0800  -29.7320   23.6220 O   0  0  0  0  0  0  0  0  0  0  0  0
  -23.3420  -27.6030   21.5420 C   0  0  0  0  0  0  0  0  0  0  0  0
  -22.0500  -27.2810   21.3770 N   0  0  0  0  0  0  0  0  0  0  0  0
  -24.1580  -26.8470   22.0780 O   0  0  0  0  0  0  0  0  0  0  0  0
  -21.4450  -27.9600   20.9380 H   0  0  0  0  0  0  0  0  0  0  0  0
  -18.9510  -25.4310   21.2920 C   0  0  0  0  0  0  0  0  0  0  0  0
  -21.4170  -26.0290   21.7840 C   0  0  0  0  0  3  0  0  0  0  0  0
  -21.7800  -24.8800   20.8140 C   0  0  0  0  0  2  0  0  0  0  0  0
  -20.7620  -24.6950   19.6840 C   0  0  0  0  0  2  0  0  0  0  0  0
  -19.3740  -24.3990   20.2580 C   0  0  0  0  0  2  0  0  0  0  0  0
  -19.9100  -26.2080   21.9950 C   0  0  0  0  0  0  0  0  0  0  0  0
  -19.4620  -27.1800   22.9150 C   0  0  0  0  0  3  0  0  0  0  0  0
  -18.0870  -27.3830   23.1370 C   0  0  0  0  0  3  0  0  0  0  0  0
  -17.1430  -26.5980   22.4510 C   0  0  0  0  0  3  0  0  0  0  0  0
  -17.5760  -25.6190   21.5390 C   0  0  0  0  0  3  0  0  0  0  0  0
  -26.4090  -30.3040   23.5980 C   0  0  0  0  0  3  0  0  0  0  0  0
  -26.1010  -31.5680   24.2790 N   0  0  0  0  0  0  0  0  0  0  0  0
  -26.5060  -32.7730   23.8580 C   0  0  0  0  0  0  0  0  0  0  0  0
  -27.2490  -32.9300   22.8860 O   0  0  0  0  0  0  0  0  0  0  0  0
  -25.4550  -31.5190   25.0540 H   0  0  0  0  0  0  0  0  0  0  0  0
  -24.9470  -34.7410   23.8060 C   0  0  0  0  0  1  0  0  0  0  0  0
  -26.0060  -34.0010   24.6390 C   0  0  0  0  0  3  0  0  0  0  0  0
  -27.9780  -34.3950   26.0460 C   0  0  0  0  0  1  0  0  0  0  0  0
  -27.0870  -34.9360   25.0210 N   0  0  0  0  0  0  0  0  0  0  0  0
  -26.7020  -35.8100   25.3670 H   0  0  0  0  0  0  0  0  0  0  0  0
  -27.0260  -29.2580   24.6070 C   0  0  1  0  0  0  0  0  0  0  0  0
  -26.0070  -28.7120   25.6350 C   0  0  0  0  0  1  0  0  0  0  0  0
  -27.6210  -28.0500   23.8440 C   0  0  0  0  0  1  0  0  0  0  0  0
  -28.1950  -29.9040   25.3870 C   0  0  0  0  0  1  0  0  0  0  0  0
  -26.4050  -18.9280   18.9740 C   0  0  0  0  0  2  0  0  0  0  0  0
  -24.0460  -18.1960   18.7320 C   0  0  0  0  0  1  0  0  0  0  0  0
  -25.1870  -18.4260   19.6410 N   0  0  0  0  0  4  0  0  0  0  0  0
  -25.4060  -17.5620   20.1120 H   0  0  0  0  0  0  0  0  0  0  0  0
  -24.8900  -19.0870   20.3410 H   0  0  0  0  0  0  0  0  0  0  0  0
  1100  1  0
  2  3  2  0
  2  4  1  0
  3  9  1  0
  4  5  2  0
  5  6  1  0
  5  8  1  0
  6 11  1  0
  7  4  1  0
  7 10  1  0
  9  6  2  0
 10  1  1  0
 10  8  1  0
 12 20  1  0
 13 18  1  0
 14 15  1  0
 14 13  1  0
 16 15  1  0
 16 25  1  0
 16 17  1  0
 18 12  1  0
 18 17  1  0
 19 12  2  0
 20 11  1  0
 20 21  1  0
 22 23  2  0
 23 42  1  0
 24 23  1  0
 24 27  1  0
 25 26  1  0
 25 22  1  0
 26 24  2  0
 27 28  1  0
 28 29  2  0
 30 33  1  0
 30 29  1  0
 31 30  2  0
 32 31  1  0
 32 27  2  0
 33 34  1  0
 34 39  2  0
 34 35  1  0
 35 36  2  0
 36 37  1  0
 37 41  1  0
 38 37  2  0
 39 38  1  0
 40 39  1  0
 42 43  1  0
 43 46  1  0
 43 45  1  0
 44 42  2  0
 47 22  1  0
 48 47  1  0
 49 47  1  0
 50 52  1  0
 50 54  1  0
 51 53  1  0
 52 55  1  0
 54  1  1  0
 54 51  1  0
 55 53  1  0
 55 56  1  6
 57 55  1  0
 58 57  1  0
 59 58  1  0
 59 61  1  0
 60 71  2  0
 61 66  1  0
 62 72  1  0
 62 70  1  0
 63 69  1  0
 63 65  1  0
 64 70  1  0
 65 64  1  0
 66 65  2  0
 67 68  1  0
 67 61  2  0
 68 63  2  0
 69 62  1  0
 70 60  1  0
 72 74  2  0
 73 72  1  0
 75 73  1  0
 76 85  2  0
 76 81  1  0
 77 73  1  0
 77 81  1  0
 78 77  1  0
 79 80  1  0
 79 78  1  0
 80 76  1  0
 81 82  2  0
 82 83  1  0
 84 83  2  0
 85 84  1  0
 86 60  1  0
 86 87  1  0
 86 96  1  0
 87 90  1  0
 88 87  1  0
 88 92  1  0
 89 88  2  0
 92 91  1  0
 92 94  1  0
 94 95  1  0
 94 93  1  0
 96 99  1  1
 96 97  1  0
 98 96  1  0
100102  1  0
101102  1  0
102103  1  0
102104  1  0
M  ISO  4  12 100  20 100  58 101  59 101
M  END
>  <TORSDO>  (59) 
F 23

>  <SCORE>  (59) 
-6.946

>  <name>  (59) 
59

>  <ligand_id>  (59) 
59

>  <original_smiles>  (59) 
[H]c1nc(C([H])([H])N([H])C(=O)N2C([H])([H])C([H])([H])C([H])([H])C([H])(n3nc(-c4c([H])c([H])c(Oc5c([H])c([H])c(F)c([H])c5F)c([H])c4[H])c(C(=O)N([H])[H])c3N([H])[H])C2([H])[H])c2c(c1[H])C([H])([H])N(C([H])(C1([H])C([H])([H])C([H])([H])[N+]([H])(C([H])([H])C([H])([H])Oc3c([H])c([H])c4c(c3[H])C([H])([H])N(C(=O)C([H])(N([H])C(=O)C([H])(N([H])C([H])([H])[H])C([H])([H])[H])C(C([H])([H])[H])(C([H])([H])[H])C([H])([H])[H])C([H])(C(=O)N([H])C3([H])c5c([H])c([H])c([H])c([H])c5C([H])([H])C([H])([H])C3([H])[H])C4([H])[H])C([H])([H])C1([H])[H])C([H])([H])[N+]([H])([H])C([H])([H])[H])C2([H])[H]

>  <smiles>  (59) 
[H]c1nc(C([H])([H])N([H])C(=O)N2C([H])([H])C([H])([H])C([H])([H])C([H])(n3nc(-c4c([H])c([H])c(Oc5c([H])c([H])c(F)c([H])c5F)c([H])c4[H])c(C(=O)N([H])[H])c3N([H])[H])C2([H])[H])c2c(c1[H])C([H])([H])N(C([H])(C1([H])C([H])([H])C([H])([H])[N+]([H])(C([H])([H])C([H])([H])Oc3c([H])c([H])c4c(c3[H])C([H])([H])N(C(=O)C([H])(N([H])C(=O)C([H])(N([H])C([H])([H])[H])C([H])([H])[H])C(C([H])([H])[H])(C([H])([H])[H])C([H])([H])[H])C([H])(C(=O)N([H])C3([H])c5c([H])c([H])c([H])c([H])c5C([H])([H])C([H])([H])C3([H])[H])C4([H])[H])C([H])([H])C1([H])[H])C([H])([H])[N+]([H])([H])C([H])([H])[H])C2([H])[H]

$$$$
60:0:0
     RDKit          3D

104115  0  0  1  0  0  0  0  0999 V2000
  -29.1760  -23.4370   21.7840 C   0  0  0  0  0  3  0  0  0  0  0  0
  -30.2180  -21.7720   20.3280 C   0  0  0  0  0  0  0  0  0  0  0  0
  -29.6880  -22.1290   21.5890 C   0  0  0  0  0  0  0  0  0  0  0  0
  -30.1350  -22.7730   19.3050 C   0  0  0  0  0  0  0  0  0  0  0  0
  -29.2000  -24.3900   20.7430 C   0  0  0  0  0  0  0  0  0  0  0  0
  -29.6620  -24.0380   19.5190 N   0  0  0  0  0  0  0  0  0  0  0  0
  -32.1340  -23.0500   17.7100 C   0  0  0  0  0  2  0  0  0  0  0  0
  -32.2640  -23.0440   16.1850 C   0  0  0  0  0  2  0  0  0  0  0  0
  -29.9380  -23.2240   16.7490 C   0  0  0  0  0  2  0  0  0  0  0  0
  -30.7060  -22.5590   17.9040 C   0  0  0  0  0  3  0  0  0  0  0  0
  -30.9240  -23.3940   15.6520 N   0  0  2  0  0  4  0  0  0  0  0  0
  -30.9510  -24.3830   15.4480 H   0  0  0  0  0  0  0  0  0  0  0  0
  -30.5840  -22.7170   14.3790 C   0  0  0  0  0  2  0  0  0  0  0  0
  -30.0670  -24.5220   12.5290 C   0  0  0  0  0  2  0  0  0  0  0  0
  -29.4070  -23.2390   12.0860 C   0  0  0  0  0  2  0  0  0  0  0  0
  -29.5900  -23.5230   13.5600 C   0  0  0  0  0  3  0  0  0  0  0  0
  -29.8040  -21.6110   23.9330 C   0  0  0  0  0  1  0  0  0  0  0  0
  -29.7420  -21.1740   22.5810 O   0  0  0  0  0  0  0  0  0  0  0  0
  -31.0600  -20.4520   20.2110 C   0  0  0  0  0  2  0  0  0  0  0  0
  -31.2000  -14.9430   20.2670 C   0  0  0  0  0  0  0  0  0  0  0  0
  -30.9800  -12.6610   19.3380 C   0  0  0  0  0  2  0  0  0  0  0  0
  -30.0480  -12.7250   18.1080 C   0  0  0  0  0  2  0  0  0  0  0  0
  -28.5720  -12.5840   18.5350 C   0  0  0  0  0  2  0  0  0  0  0  0
  -28.1970  -13.5130   19.7210 C   0  0  0  0  0  3  0  0  0  0  0  0
  -29.2500  -13.4450   20.8510 C   0  0  0  0  0  2  0  0  0  0  0  0
  -30.5630  -13.7350   20.2570 N   0  0  0  0  0  0  0  0  0  0  0  0
  -32.3710  -15.0630   19.8940 O   0  0  0  0  0  0  0  0  0  0  0  0
  -30.1180  -16.8480   21.4920 C   0  0  0  0  0  2  0  0  0  0  0  0
  -30.1220  -16.8250   19.0530 C   0  0  0  0  0  2  0  0  0  0  0  0
  -30.7160  -18.2950   21.4580 C   0  0  0  0  0  2  0  0  0  0  0  0
  -30.7330  -18.2580   19.0300 C   0  0  0  0  0  2  0  0  0  0  0  0
  -30.3890  -16.0490   20.2830 N   0  0  0  0  0  0  0  0  0  0  0  0
  -30.3970  -19.0850   20.2260 N   0  0  2  0  0  4  0  0  0  0  0  0
  -29.4000  -19.2370   20.2210 H   0  0  0  0  0  0  0  0  0  0  0  0
  -25.8340  -14.1440   20.5040 C   0  0  0  0  0  0  0  0  0  0  0  0
  -24.7490  -13.3850   20.8490 C   0  0  0  0  0  0  0  0  0  0  0  0
  -25.1710  -12.0240   20.7440 C   0  0  0  0  0  0  0  0  0  0  0  0
  -26.8490  -13.2470   20.2120 N   0  0  0  0  0  0  0  0  0  0  0  0
  -26.4550  -11.9630   20.4150 N   0  0  0  0  0  0  0  0  0  0  0  0
  -24.4100  -10.7750   20.8810 C   0  0  0  0  0  0  0  0  0  0  0  0
  -24.7790   -9.7850   21.8200 C   0  0  0  0  0  3  0  0  0  0  0  0
  -24.0230   -8.6000   21.9460 C   0  0  0  0  0  3  0  0  0  0  0  0
  -22.8820   -8.3970   21.1340 C   0  0  0  0  0  0  0  0  0  0  0  0
  -22.5320   -9.3740   20.1850 C   0  0  0  0  0  3  0  0  0  0  0  0
  -23.2900  -10.5500   20.0570 C   0  0  0  0  0  3  0  0  0  0  0  0
  -22.1010   -7.2680   21.1690 O   0  0  0  0  0  0  0  0  0  0  0  0
  -21.8770   -6.5820   22.3350 C   0  0  0  0  0  0  0  0  0  0  0  0
  -21.2610   -7.1920   23.4510 C   0  0  0  0  0  3  0  0  0  0  0  0
  -20.9890   -6.4340   24.6060 C   0  0  0  0  0  3  0  0  0  0  0  0
  -21.3200   -5.0660   24.6460 C   0  0  0  0  0  0  0  0  0  0  0  0
  -21.9260   -4.4550   23.5340 C   0  0  0  0  0  3  0  0  0  0  0  0
  -22.2010   -5.2120   22.3820 C   0  0  0  0  0  0  0  0  0  0  0  0
  -22.7670   -4.6130   21.3060 F   0  0  0  0  0  0  0  0  0  0  0  0
  -21.0500   -4.3350   25.7530 F   0  0  0  0  0  0  0  0  0  0  0  0
  -23.3700  -13.8880   21.1630 C   0  0  0  0  0  0  0  0  0  0  0  0
  -22.6400  -13.1850   22.0230 N   0  0  0  0  0  0  0  0  0  0  0  0
  -22.9470  -14.9380   20.6810 O   0  0  0  0  0  0  0  0  0  0  0  0
  -22.9950  -12.3350   22.4340 H   0  0  0  0  0  0  0  0  0  0  0  0
  -21.7140  -13.5020   22.2710 H   0  0  0  0  0  0  0  0  0  0  0  0
  -26.0390  -15.5170   20.3940 N   0  0  0  0  0  0  0  0  0  0  0  0
  -25.2940  -16.1890   20.5420 H   0  0  0  0  0  0  0  0  0  0  0  0
  -26.9020  -15.9390   20.0800 H   0  0  0  0  0  0  0  0  0  0  0  0
  -28.7030  -25.8380   21.0460 C   0  0  0  0  0  2  0  0  0  0  0  0
  -28.7770  -26.8890   20.0370 O   0  0  0  0  0  0  0  0  0  0  0  0
  -24.6900  -31.8660   23.2160 C   0  0  0  0  0  0  0  0  0  0  0  0
  -27.6320  -27.6740   20.0100 C   0  0  0  0  0  0  0  0  0  0  0  0
  -23.5980  -30.4700   21.4920 C   0  0  0  0  0  3  0  0  0  0  0  0
  -25.1660  -29.0800   20.0290 C   0  0  0  0  0  0  0  0  0  0  0  0
  -26.1090  -30.9690   21.3630 C   0  0  0  0  0  2  0  0  0  0  0  0
  -26.2870  -29.6320   20.6630 C   0  0  0  0  0  0  0  0  0  0  0  0
  -27.5270  -28.9380   20.6500 C   0  0  0  0  0  3  0  0  0  0  0  0
  -26.4950  -27.1540   19.3580 C   0  0  0  0  0  3  0  0  0  0  0  0
  -25.2680  -27.8430   19.3690 C   0  0  0  0  0  3  0  0  0  0  0  0
  -23.8730  -29.8660   20.0890 C   0  0  0  0  0  2  0  0  0  0  0  0
  -24.8150  -31.1170   22.0830 N   0  0  0  0  0  0  0  0  0  0  0  0
  -23.5840  -32.0530   23.7440 O   0  0  0  0  0  0  0  0  0  0  0  0
  -22.9860  -29.3740   22.3970 C   0  0  0  0  0  0  0  0  0  0  0  0
  -21.6730  -29.1320   22.2450 N   0  0  0  0  0  0  0  0  0  0  0  0
  -23.6920  -28.7470   23.1900 O   0  0  0  0  0  0  0  0  0  0  0  0
  -21.1610  -29.6970   21.5820 H   0  0  0  0  0  0  0  0  0  0  0  0
  -18.3560  -27.7550   22.6610 C   0  0  0  0  0  0  0  0  0  0  0  0
  -20.8980  -28.1170   22.9610 C   0  0  0  0  0  3  0  0  0  0  0  0
  -21.0690  -26.7250   22.3100 C   0  0  0  0  0  2  0  0  0  0  0  0
  -19.9880  -26.4050   21.2740 C   0  0  0  0  0  2  0  0  0  0  0  0
  -18.5980  -26.4530   21.9150 C   0  0  0  0  0  2  0  0  0  0  0  0
  -19.4360  -28.5440   23.1370 C   0  0  0  0  0  0  0  0  0  0  0  0
  -19.1560  -29.7620   23.7920 C   0  0  0  0  0  3  0  0  0  0  0  0
  -17.8290  -30.1940   23.9750 C   0  0  0  0  0  3  0  0  0  0  0  0
  -16.7630  -29.4000   23.5170 C   0  0  0  0  0  3  0  0  0  0  0  0
  -17.0280  -28.1820   22.8660 C   0  0  0  0  0  3  0  0  0  0  0  0
  -25.9250  -32.5440   23.8870 C   0  0  0  0  0  3  0  0  0  0  0  0
  -25.5530  -33.9300   24.2030 N   0  0  0  0  0  0  0  0  0  0  0  0
  -25.8720  -34.9940   23.4530 C   0  0  0  0  0  0  0  0  0  0  0  0
  -26.5780  -34.9130   22.4440 O   0  0  0  0  0  0  0  0  0  0  0  0
  -24.9290  -34.0640   24.9850 H   0  0  0  0  0  0  0  0  0  0  0  0
  -24.0860  -36.7160   23.0410 C   0  0  0  0  0  1  0  0  0  0  0  0
  -25.3180  -36.3630   23.8900 C   0  0  0  0  0  3  0  0  0  0  0  0
  -27.3890  -37.3370   24.7840 C   0  0  0  0  0  1  0  0  0  0  0  0
  -26.3120  -37.4560   23.8030 N   0  0  0  0  0  0  0  0  0  0  0  0
  -25.8650  -38.3600   23.9320 H   0  0  0  0  0  0  0  0  0  0  0  0
  -26.4190  -31.7910   25.1830 C   0  0  1  0  0  0  0  0  0  0  0  0
  -25.2910  -31.4920   26.1980 C   0  0  0  0  0  1  0  0  0  0  0  0
  -27.0870  -30.4470   24.8120 C   0  0  0  0  0  1  0  0  0  0  0  0
  -27.4970  -32.6370   25.9030 C   0  0  0  0  0  1  0  0  0  0  0  0
  2  3  2  0
  3  1  1  0
  3 18  1  0
  4  6  2  0
  4  2  1  0
  5 63  1  0
  5  1  2  0
  6  5  1  0
  7 10  1  0
  8  7  1  0
  9 10  1  0
 10  4  1  0
 11  8  1  0
 11  9  1  0
 11 12  1  6
 13 11  1  0
 14 16  1  0
 15 14  1  0
 15 16  1  0
 16 13  1  0
 18 17  1  0
 19 33  1  0
 19  2  1  0
 20 32  1  0
 21 26  1  0
 22 23  1  0
 22 21  1  0
 24 23  1  0
 24 38  1  0
 24 25  1  0
 26 20  1  0
 26 25  1  0
 27 20  2  0
 29 32  1  0
 30 28  1  0
 31 29  1  0
 31 33  1  0
 32 28  1  0
 33 30  1  0
 33 34  1  6
 35 36  2  0
 36 55  1  0
 37 36  1  0
 37 40  1  0
 38 39  1  0
 38 35  1  0
 39 37  2  0
 40 41  1  0
 41 42  2  0
 43 46  1  0
 43 42  1  0
 44 43  2  0
 45 44  1  0
 45 40  2  0
 46 47  1  0
 47 52  2  0
 47 48  1  0
 48 49  2  0
 49 50  1  0
 50 54  1  0
 51 50  2  0
 52 51  1  0
 53 52  1  0
 55 56  1  0
 56 59  1  0
 56 58  1  0
 57 55  2  0
 60 35  1  0
 60 61  1  0
 62 60  1  0
 64 63  1  0
 65 76  2  0
 66 64  1  0
 66 71  1  0
 67 75  1  0
 67 77  1  0
 68 74  1  0
 68 70  1  0
 69 75  1  0
 70 69  1  0
 71 70  2  0
 72 73  1  0
 72 66  2  0
 73 68  2  0
 74 67  1  0
 75 65  1  0
 77 79  2  0
 78 77  1  0
 80 78  1  0
 81 90  2  0
 81 86  1  0
 82 78  1  0
 82 86  1  0
 83 82  1  0
 84 85  1  0
 84 83  1  0
 85 81  1  0
 86 87  2  0
 87 88  1  0
 89 88  2  0
 90 89  1  0
 91 65  1  0
 91 92  1  0
 91101  1  0
 92 95  1  0
 93 97  1  0
 93 92  1  0
 94 93  2  0
 97 96  1  0
 99 97  1  0
 99100  1  0
 99 98  1  0
101104  1  1
101102  1  0
103101  1  0
M  ISO  4  20 100  32 100  63 101  64 101
M  END
>  <TORSDO>  (60) 
F 22

>  <SCORE>  (60) 
-12.714

>  <name>  (60) 
60

>  <ligand_id>  (60) 
60

>  <original_smiles>  (60) 
[H]c1c([H])c([H])c2c(c1[H])C([H])([H])C([H])([H])C([H])([H])C2([H])N([H])C(=O)C1([H])N(C(=O)C([H])(N([H])C(=O)C([H])(N([H])C([H])([H])[H])C([H])([H])[H])C(C([H])([H])[H])(C([H])([H])[H])C([H])([H])[H])C([H])([H])c2c([H])c(OC([H])([H])c3nc(C4([H])C([H])([H])C([H])([H])[N+]([H])(C([H])([H])C5([H])C([H])([H])C5([H])[H])C4([H])[H])c(C([H])([H])[N+]4([H])C([H])([H])C([H])([H])N(C(=O)N5C([H])([H])C([H])([H])C([H])([H])C([H])(n6nc(-c7c([H])c([H])c(Oc8c([H])c([H])c(F)c([H])c8F)c([H])c7[H])c(C(=O)N([H])[H])c6N([H])[H])C5([H])[H])C([H])([H])C4([H])[H])c(OC([H])([H])[H])c3[H])c([H])c([H])c2C1([H])[H]

>  <smiles>  (60) 
[H]c1c([H])c([H])c2c(c1[H])C([H])([H])C([H])([H])C([H])([H])C2([H])N([H])C(=O)C1([H])N(C(=O)C([H])(N([H])C(=O)C([H])(N([H])C([H])([H])[H])C([H])([H])[H])C(C([H])([H])[H])(C([H])([H])[H])C([H])([H])[H])C([H])([H])c2c([H])c(OC([H])([H])c3nc(C4([H])C([H])([H])C([H])([H])[N+]([H])(C([H])([H])C5([H])C([H])([H])C5([H])[H])C4([H])[H])c(C([H])([H])[N+]4([H])C([H])([H])C([H])([H])N(C(=O)N5C([H])([H])C([H])([H])C([H])([H])C([H])(n6nc(-c7c([H])c([H])c(Oc8c([H])c([H])c(F)c([H])c8F)c([H])c7[H])c(C(=O)N([H])[H])c6N([H])[H])C5([H])[H])C([H])([H])C4([H])[H])c(OC([H])([H])[H])c3[H])c([H])c([H])c2C1([H])[H]

$$$$
61:0:0
     RDKit          3D

 99108  0  0  1  0  0  0  0  0999 V2000
  -29.7610  -21.8850   19.4110 N   0  0  0  0  0  4  0  0  0  0  0  0
  -30.6850  -21.8340   19.8010 H   0  0  0  0  0  0  0  0  0  0  0  0
  -29.1160  -21.9460   20.1830 H   0  0  0  0  0  0  0  0  0  0  0  0
  -29.3350  -17.6110   20.8130 C   0  0  0  0  0  3  0  0  0  0  0  0
  -29.0330  -18.7060   19.9920 C   0  0  0  0  0  0  0  0  0  0  0  0
  -30.0550  -19.4650   19.4420 C   0  0  0  0  0  0  0  0  0  0  0  0
  -30.7020  -17.3390   21.0440 C   0  0  0  0  0  0  0  0  0  0  0  0
  -31.3950  -19.0910   19.6660 C   0  0  0  0  0  0  0  0  0  0  0  0
  -27.6750  -19.2200   19.6020 C   0  0  0  0  0  2  0  0  0  0  0  0
  -27.9930  -20.3240   18.5610 C   0  0  0  0  0  2  0  0  0  0  0  0
  -29.5120  -20.6400   18.6570 C   0  0  0  0  0  3  0  0  0  0  0  0
  -32.5670  -19.8350   19.0560 C   0  0  0  0  0  1  0  0  0  0  0  0
  -31.7050  -18.0490   20.4720 N   0  0  0  0  0  0  0  0  0  0  0  0
  -31.1130  -16.1810   21.9330 C   0  0  0  0  0  2  0  0  0  0  0  0
  -30.8220  -14.2740   20.3960 C   0  0  0  0  0  0  0  0  0  0  0  0
  -30.3710  -12.2650   19.0400 C   0  0  0  0  0  2  0  0  0  0  0  0
  -29.4020  -12.5580   17.8800 C   0  0  0  0  0  2  0  0  0  0  0  0
  -27.9410  -12.4250   18.3470 C   0  0  0  0  0  2  0  0  0  0  0  0
  -27.6590  -13.2210   19.6470 C   0  0  0  0  0  3  0  0  0  0  0  0
  -28.7270  -12.9110   20.7190 C   0  0  0  0  0  2  0  0  0  0  0  0
  -30.0620  -13.1800   20.1480 N   0  0  0  0  0  0  0  0  0  0  0  0
  -31.7920  -14.6000   19.7050 O   0  0  0  0  0  0  0  0  0  0  0  0
  -30.4920  -14.9390   21.5030 N   0  0  0  0  0  0  0  0  0  0  0  0
  -29.7110  -14.5980   22.0410 H   0  0  0  0  0  0  0  0  0  0  0  0
  -25.2730  -13.8550   20.3860 C   0  0  0  0  0  0  0  0  0  0  0  0
  -24.2040  -13.0920   20.7750 C   0  0  0  0  0  0  0  0  0  0  0  0
  -24.6540  -11.7370   20.7430 C   0  0  0  0  0  0  0  0  0  0  0  0
  -26.3090  -12.9650   20.1450 N   0  0  0  0  0  0  0  0  0  0  0  0
  -25.9380  -11.6860   20.4120 N   0  0  0  0  0  0  0  0  0  0  0  0
  -23.9220  -10.4810   20.9510 C   0  0  0  0  0  0  0  0  0  0  0  0
  -24.3580   -9.5180   21.8880 C   0  0  0  0  0  3  0  0  0  0  0  0
  -23.6280   -8.3270   22.0820 C   0  0  0  0  0  3  0  0  0  0  0  0
  -22.4470   -8.0880   21.3400 C   0  0  0  0  0  0  0  0  0  0  0  0
  -22.0300   -9.0390   20.3910 C   0  0  0  0  0  3  0  0  0  0  0  0
  -22.7610  -10.2230   20.1950 C   0  0  0  0  0  3  0  0  0  0  0  0
  -21.6880   -6.9480   21.4420 O   0  0  0  0  0  0  0  0  0  0  0  0
  -21.6440   -6.2140   22.6010 C   0  0  0  0  0  0  0  0  0  0  0  0
  -21.2400   -6.7840   23.8280 C   0  0  0  0  0  3  0  0  0  0  0  0
  -21.1430   -5.9780   24.9800 C   0  0  0  0  0  3  0  0  0  0  0  0
  -21.4380   -4.6040   24.9060 C   0  0  0  0  0  0  0  0  0  0  0  0
  -21.8350   -4.0340   23.6830 C   0  0  0  0  0  3  0  0  0  0  0  0
  -21.9340   -4.8370   22.5330 C   0  0  0  0  0  0  0  0  0  0  0  0
  -22.2960   -4.2790   21.3530 F   0  0  0  0  0  0  0  0  0  0  0  0
  -21.3370   -3.8280   26.0100 F   0  0  0  0  0  0  0  0  0  0  0  0
  -22.8160  -13.5810   21.0700 C   0  0  0  0  0  0  0  0  0  0  0  0
  -22.0980  -12.8920   21.9510 N   0  0  0  0  0  0  0  0  0  0  0  0
  -22.3750  -14.6080   20.5540 O   0  0  0  0  0  0  0  0  0  0  0  0
  -22.4650  -12.0620   22.3890 H   0  0  0  0  0  0  0  0  0  0  0  0
  -21.1660  -13.2020   22.1910 H   0  0  0  0  0  0  0  0  0  0  0  0
  -25.4480  -15.2230   20.1990 N   0  0  0  0  0  0  0  0  0  0  0  0
  -24.6910  -15.8880   20.3190 H   0  0  0  0  0  0  0  0  0  0  0  0
  -26.3040  -15.6480   19.8660 H   0  0  0  0  0  0  0  0  0  0  0  0
  -29.7120  -23.1330   18.6310 C   0  0  0  0  0  2  0  0  0  0  0  0
  -30.1880  -24.3000   19.5090 C   0  0  0  0  0  2  0  0  0  0  0  0
  -30.4260  -25.5080   18.7300 N   0  0  0  0  0  0  0  0  0  0  0  0
  -29.5490  -25.8010   18.3020 H   0  0  0  0  0  0  0  0  0  0  0  0
  -30.8300  -26.5840   19.6340 C   0  0  0  0  0  2  0  0  0  0  0  0
  -29.6440  -27.5030   19.9720 C   0  0  0  0  0  2  0  0  0  0  0  0
  -28.4390  -26.7510   20.1360 O   0  0  0  0  0  0  0  0  0  0  0  0
  -24.6040  -31.9170   23.2240 C   0  0  0  0  0  0  0  0  0  0  0  0
  -27.2760  -27.4830   20.2010 C   0  0  0  0  0  0  0  0  0  0  0  0
  -23.3950  -30.4910   21.5970 C   0  0  0  0  0  3  0  0  0  0  0  0
  -24.8530  -28.9310   20.2040 C   0  0  0  0  0  0  0  0  0  0  0  0
  -25.9120  -30.8640   21.3900 C   0  0  0  0  0  2  0  0  0  0  0  0
  -26.0010  -29.4850   20.7800 C   0  0  0  0  0  0  0  0  0  0  0  0
  -27.2120  -28.7690   20.7830 C   0  0  0  0  0  3  0  0  0  0  0  0
  -26.1060  -26.9200   19.6520 C   0  0  0  0  0  3  0  0  0  0  0  0
  -24.8950  -27.6410   19.6430 C   0  0  0  0  0  3  0  0  0  0  0  0
  -23.6040  -29.7840   20.2300 C   0  0  0  0  0  2  0  0  0  0  0  0
  -24.6550  -31.1060   22.1300 N   0  0  0  0  0  0  0  0  0  0  0  0
  -23.5240  -32.1970   23.7620 O   0  0  0  0  0  0  0  0  0  0  0  0
  -22.7450  -29.4850   22.5730 C   0  0  0  0  0  0  0  0  0  0  0  0
  -21.4210  -29.3090   22.4500 N   0  0  0  0  0  0  0  0  0  0  0  0
  -23.4290  -28.8660   23.3920 O   0  0  0  0  0  0  0  0  0  0  0  0
  -20.9320  -29.8610   21.7590 H   0  0  0  0  0  0  0  0  0  0  0  0
  -18.0380  -28.1610   22.9760 C   0  0  0  0  0  0  0  0  0  0  0  0
  -20.6000  -28.3850   23.2310 C   0  0  0  0  0  3  0  0  0  0  0  0
  -20.6810  -26.9500   22.6600 C   0  0  0  0  0  2  0  0  0  0  0  0
  -19.5680  -26.6370   21.6550 C   0  0  0  0  0  2  0  0  0  0  0  0
  -18.1920  -26.8050   22.3070 C   0  0  0  0  0  2  0  0  0  0  0  0
  -19.1690  -28.9090   23.3950 C   0  0  0  0  0  0  0  0  0  0  0  0
  -18.9720  -30.1800   23.9770 C   0  0  0  0  0  3  0  0  0  0  0  0
  -17.6750  -30.7010   24.1470 C   0  0  0  0  0  3  0  0  0  0  0  0
  -16.5580  -29.9470   23.7460 C   0  0  0  0  0  3  0  0  0  0  0  0
  -16.7410  -28.6800   23.1650 C   0  0  0  0  0  3  0  0  0  0  0  0
  -25.8930  -32.5500   23.8380 C   0  0  0  0  0  3  0  0  0  0  0  0
  -25.5830  -33.9450   24.1740 N   0  0  0  0  0  0  0  0  0  0  0  0
  -25.9150  -35.0010   23.4200 C   0  0  0  0  0  0  0  0  0  0  0  0
  -26.5890  -34.9040   22.3910 O   0  0  0  0  0  0  0  0  0  0  0  0
  -24.9850  -34.0960   24.9730 H   0  0  0  0  0  0  0  0  0  0  0  0
  -24.1890  -36.7910   23.0560 C   0  0  0  0  0  1  0  0  0  0  0  0
  -25.4220  -36.3850   23.8800 C   0  0  0  0  0  3  0  0  0  0  0  0
  -27.5500  -37.2610   24.7360 C   0  0  0  0  0  1  0  0  0  0  0  0
  -26.4540  -37.4400   23.7860 N   0  0  0  0  0  0  0  0  0  0  0  0
  -26.0460  -38.3570   23.9420 H   0  0  0  0  0  0  0  0  0  0  0  0
  -26.4280  -31.7740   25.1030 C   0  0  1  0  0  0  0  0  0  0  0  0
  -25.3460  -31.5170   26.1770 C   0  0  0  0  0  1  0  0  0  0  0  0
  -27.0220  -30.4070   24.6920 C   0  0  0  0  0  1  0  0  0  0  0  0
  -27.5770  -32.5740   25.7620 C   0  0  0  0  0  1  0  0  0  0  0  0
  1  2  1  0
  1  3  1  0
  4  7  1  0
  5  4  2  0
  6  8  2  0
  6  5  1  0
  7 14  1  0
  8 13  1  0
  9  5  1  0
 10 11  1  0
 10  9  1  0
 11  1  1  0
 11  6  1  0
 12  8  1  0
 13  7  2  0
 15 23  1  0
 16 21  1  0
 17 18  1  0
 17 16  1  0
 19 18  1  0
 19 28  1  0
 19 20  1  0
 21 15  1  0
 21 20  1  0
 22 15  2  0
 23 14  1  0
 23 24  1  0
 25 26  2  0
 26 45  1  0
 27 26  1  0
 27 30  1  0
 28 25  1  0
 28 29  1  0
 29 27  2  0
 30 31  1  0
 31 32  2  0
 33 36  1  0
 33 32  1  0
 34 33  2  0
 35 34  1  0
 35 30  2  0
 36 37  1  0
 37 38  1  0
 38 39  2  0
 40 39  1  0
 40 44  1  0
 41 40  2  0
 42 37  2  0
 42 41  1  0
 43 42  1  0
 45 46  1  0
 46 49  1  0
 46 48  1  0
 47 45  2  0
 50 51  1  0
 50 25  1  0
 52 50  1  0
 53  1  1  0
 53 54  1  0
 55 54  1  0
 55 57  1  0
 56 55  1  0
 57 58  1  0
 58 59  1  0
 59 61  1  0
 60 71  2  0
 61 66  1  0
 62 70  1  0
 62 72  1  0
 63 69  1  0
 63 65  1  0
 64 70  1  0
 65 66  2  0
 65 64  1  0
 67 61  2  0
 68 67  1  0
 68 63  2  0
 69 62  1  0
 70 60  1  0
 72 74  2  0
 73 72  1  0
 75 73  1  0
 76 85  2  0
 76 81  1  0
 77 73  1  0
 77 81  1  0
 78 77  1  0
 79 80  1  0
 79 78  1  0
 80 76  1  0
 81 82  2  0
 82 83  1  0
 84 83  2  0
 85 84  1  0
 86 60  1  0
 86 87  1  0
 86 96  1  0
 87 90  1  0
 88 92  1  0
 88 87  1  0
 89 88  2  0
 92 91  1  0
 94 92  1  0
 94 95  1  0
 94 93  1  0
 96 99  1  1
 96 97  1  0
 98 96  1  0
M  ISO  4  15 100  23 100  58 101  59 101
M  END
>  <TORSDO>  (61) 
F 23

>  <SCORE>  (61) 
-13.060

>  <name>  (61) 
61

>  <ligand_id>  (61) 
61

>  <original_smiles>  (61) 
[H]c1c([H])c([H])c2c(c1[H])C([H])([H])C([H])([H])C([H])([H])C2([H])N([H])C(=O)C1([H])N(C(=O)C([H])(N([H])C(=O)C([H])(N([H])C([H])([H])[H])C([H])([H])[H])C(C([H])([H])[H])(C([H])([H])[H])C([H])([H])[H])C([H])([H])c2c([H])c(OC([H])([H])C([H])([H])N([H])C([H])([H])C([H])([H])[N+]([H])([H])C3([H])c4c(C([H])([H])[H])nc(C([H])([H])N([H])C(=O)N5C([H])([H])C([H])([H])C([H])([H])C([H])(n6nc(-c7c([H])c([H])c(Oc8c([H])c([H])c(F)c([H])c8F)c([H])c7[H])c(C(=O)N([H])[H])c6N([H])[H])C5([H])[H])c([H])c4C([H])([H])C3([H])[H])c([H])c([H])c2C1([H])[H]

>  <smiles>  (61) 
[H]c1c([H])c([H])c2c(c1[H])C([H])([H])C([H])([H])C([H])([H])C2([H])N([H])C(=O)C1([H])N(C(=O)C([H])(N([H])C(=O)C([H])(N([H])C([H])([H])[H])C([H])([H])[H])C(C([H])([H])[H])(C([H])([H])[H])C([H])([H])[H])C([H])([H])c2c([H])c(OC([H])([H])C([H])([H])N([H])C([H])([H])C([H])([H])[N+]([H])([H])C3([H])c4c(C([H])([H])[H])nc(C([H])([H])N([H])C(=O)N5C([H])([H])C([H])([H])C([H])([H])C([H])(n6nc(-c7c([H])c([H])c(Oc8c([H])c([H])c(F)c([H])c8F)c([H])c7[H])c(C(=O)N([H])[H])c6N([H])[H])C5([H])[H])c([H])c4C([H])([H])C3([H])[H])c([H])c([H])c2C1([H])[H]

$$$$
62:0:0
     RDKit          3D

 92101  0  0  1  0  0  0  0  0999 V2000
  -28.2120  -21.7410   21.4220 C   0  0  0  0  0  3  0  0  0  0  0  0
  -29.0450  -21.3170   20.4130 C   0  0  0  0  0  0  0  0  0  0  0  0
  -28.6040  -23.5920   20.1500 C   0  0  0  0  0  3  0  0  0  0  0  0
  -30.0430  -22.5550   18.3990 C   0  0  0  0  0  1  0  0  0  0  0  0
  -29.2670  -22.4850   19.6440 N   0  0  0  0  0  0  0  0  0  0  0  0
  -27.9810  -23.1010   21.2370 N   0  0  0  0  0  0  0  0  0  0  0  0
  -27.3740  -23.6560   21.8270 H   0  0  0  0  0  0  0  0  0  0  0  0
  -31.2520  -18.1930   20.5130 C   0  0  0  0  0  2  0  0  0  0  0  0
  -31.0200  -19.7020   20.1650 C   0  0  0  0  0  2  0  0  0  0  0  0
  -28.9380  -18.6160   20.4400 C   0  0  0  0  0  2  0  0  0  0  0  0
  -29.9850  -17.4520   20.0630 C   0  0  0  0  0  3  0  0  0  0  0  0
  -29.5760  -19.9600   20.1890 N   0  0  0  0  0  0  0  0  0  0  0  0
  -30.5780  -14.8470   20.2920 C   0  0  0  0  0  0  0  0  0  0  0  0
  -30.3830  -12.5530   19.3000 C   0  0  0  0  0  2  0  0  0  0  0  0
  -29.4370  -12.6120   18.0780 C   0  0  0  0  0  2  0  0  0  0  0  0
  -27.9720  -12.4320   18.5210 C   0  0  0  0  0  2  0  0  0  0  0  0
  -27.6050  -13.3280   19.7330 C   0  0  0  0  0  3  0  0  0  0  0  0
  -28.6680  -13.2530   20.8510 C   0  0  0  0  0  2  0  0  0  0  0  0
  -29.9590  -13.6110   20.2520 N   0  0  0  0  0  0  0  0  0  0  0  0
  -31.7490  -14.9420   19.9170 O   0  0  0  0  0  0  0  0  0  0  0  0
  -29.8040  -15.9860   20.5290 N   0  0  0  0  0  0  0  0  0  0  0  0
  -28.8750  -15.7690   20.8580 H   0  0  0  0  0  0  0  0  0  0  0  0
  -25.2230  -13.9240   20.4740 C   0  0  0  0  0  0  0  0  0  0  0  0
  -24.1560  -13.1530   20.8520 C   0  0  0  0  0  0  0  0  0  0  0  0
  -24.6170  -11.8000   20.8210 C   0  0  0  0  0  0  0  0  0  0  0  0
  -26.2630  -13.0420   20.2330 N   0  0  0  0  0  0  0  0  0  0  0  0
  -25.9060  -11.7610   20.5060 N   0  0  0  0  0  0  0  0  0  0  0  0
  -23.8890  -10.5400   21.0160 C   0  0  0  0  0  0  0  0  0  0  0  0
  -24.3240   -9.5720   21.9480 C   0  0  0  0  0  3  0  0  0  0  0  0
  -23.5950   -8.3770   22.1300 C   0  0  0  0  0  3  0  0  0  0  0  0
  -22.4180   -8.1410   21.3820 C   0  0  0  0  0  0  0  0  0  0  0  0
  -22.0020   -9.0990   20.4390 C   0  0  0  0  0  3  0  0  0  0  0  0
  -22.7300  -10.2850   20.2540 C   0  0  0  0  0  3  0  0  0  0  0  0
  -21.6610   -6.9980   21.4740 O   0  0  0  0  0  0  0  0  0  0  0  0
  -21.6170   -6.2560   22.6270 C   0  0  0  0  0  0  0  0  0  0  0  0
  -21.2020   -6.8140   23.8570 C   0  0  0  0  0  3  0  0  0  0  0  0
  -21.1040   -5.9980   25.0020 C   0  0  0  0  0  3  0  0  0  0  0  0
  -21.4100   -4.6270   24.9190 C   0  0  0  0  0  0  0  0  0  0  0  0
  -21.8170   -4.0690   23.6940 C   0  0  0  0  0  3  0  0  0  0  0  0
  -21.9170   -4.8820   22.5500 C   0  0  0  0  0  0  0  0  0  0  0  0
  -22.2900   -4.3360   21.3680 F   0  0  0  0  0  0  0  0  0  0  0  0
  -21.3100   -3.8410   26.0160 F   0  0  0  0  0  0  0  0  0  0  0  0
  -22.7610  -13.6340   21.1260 C   0  0  0  0  0  0  0  0  0  0  0  0
  -22.0340  -12.9400   21.9960 N   0  0  0  0  0  0  0  0  0  0  0  0
  -22.3250  -14.6610   20.6080 O   0  0  0  0  0  0  0  0  0  0  0  0
  -22.3990  -12.1090   22.4350 H   0  0  0  0  0  0  0  0  0  0  0  0
  -21.1000  -13.2470   22.2250 H   0  0  0  0  0  0  0  0  0  0  0  0
  -25.3850  -15.2950   20.2930 N   0  0  0  0  0  0  0  0  0  0  0  0
  -24.6090  -15.9400   20.3950 H   0  0  0  0  0  0  0  0  0  0  0  0
  -26.2170  -15.7330   19.9190 H   0  0  0  0  0  0  0  0  0  0  0  0
  -28.4360  -25.0610   19.5180 C   0  0  0  0  0  2  0  0  0  0  0  0
  -28.3090  -26.3660   20.2840 O   0  0  0  0  0  0  0  0  0  0  0  0
  -24.6130  -31.9030   23.2380 C   0  0  0  0  0  0  0  0  0  0  0  0
  -27.2070  -27.2670   20.1850 C   0  0  0  0  0  0  0  0  0  0  0  0
  -23.4100  -30.5050   21.6020 C   0  0  0  0  0  3  0  0  0  0  0  0
  -24.8570  -28.9450   20.1750 C   0  0  0  0  0  0  0  0  0  0  0  0
  -25.9580  -30.7940   21.4290 C   0  0  0  0  0  2  0  0  0  0  0  0
  -26.0300  -29.4120   20.7760 C   0  0  0  0  0  0  0  0  0  0  0  0
  -27.2040  -28.5850   20.7740 C   0  0  0  0  0  3  0  0  0  0  0  0
  -26.0000  -26.8730   19.5660 C   0  0  0  0  0  3  0  0  0  0  0  0
  -24.8470  -27.6830   19.5640 C   0  0  0  0  0  3  0  0  0  0  0  0
  -23.6260  -29.8310   20.2220 C   0  0  0  0  0  2  0  0  0  0  0  0
  -24.6790  -31.0880   22.1440 N   0  0  0  0  0  0  0  0  0  0  0  0
  -23.5290  -32.1840   23.7700 O   0  0  0  0  0  0  0  0  0  0  0  0
  -22.7410  -29.4920   22.5630 C   0  0  0  0  0  0  0  0  0  0  0  0
  -21.4140  -29.3220   22.4400 N   0  0  0  0  0  0  0  0  0  0  0  0
  -23.4180  -28.8630   23.3810 O   0  0  0  0  0  0  0  0  0  0  0  0
  -20.9260  -29.8830   21.7560 H   0  0  0  0  0  0  0  0  0  0  0  0
  -18.0310  -28.1340   22.9530 C   0  0  0  0  0  0  0  0  0  0  0  0
  -20.5920  -28.3870   23.2130 C   0  0  0  0  0  3  0  0  0  0  0  0
  -20.6890  -26.9550   22.6360 C   0  0  0  0  0  2  0  0  0  0  0  0
  -19.5830  -26.6320   21.6290 C   0  0  0  0  0  2  0  0  0  0  0  0
  -18.2010  -26.7830   22.2750 C   0  0  0  0  0  2  0  0  0  0  0  0
  -19.1540  -28.8930   23.3780 C   0  0  0  0  0  0  0  0  0  0  0  0
  -18.9410  -30.1550   23.9720 C   0  0  0  0  0  3  0  0  0  0  0  0
  -17.6360  -30.6580   24.1460 C   0  0  0  0  0  3  0  0  0  0  0  0
  -16.5290  -29.8960   23.7370 C   0  0  0  0  0  3  0  0  0  0  0  0
  -16.7260  -28.6350   23.1460 C   0  0  0  0  0  3  0  0  0  0  0  0
  -25.8950  -32.5380   23.8600 C   0  0  0  0  0  3  0  0  0  0  0  0
  -25.5850  -33.9390   24.1870 N   0  0  0  0  0  0  0  0  0  0  0  0
  -25.9140  -34.9920   23.4270 C   0  0  0  0  0  0  0  0  0  0  0  0
  -26.5800  -34.8880   22.3940 O   0  0  0  0  0  0  0  0  0  0  0  0
  -25.0010  -34.0950   24.9950 H   0  0  0  0  0  0  0  0  0  0  0  0
  -24.1870  -36.7870   23.0770 C   0  0  0  0  0  1  0  0  0  0  0  0
  -25.4290  -36.3820   23.8870 C   0  0  0  0  0  3  0  0  0  0  0  0
  -27.5650  -37.2630   24.7140 C   0  0  0  0  0  1  0  0  0  0  0  0
  -26.4620  -37.4340   23.7720 N   0  0  0  0  0  0  0  0  0  0  0  0
  -26.0570  -38.3550   23.9210 H   0  0  0  0  0  0  0  0  0  0  0  0
  -26.4060  -31.7760   25.1440 C   0  0  1  0  0  0  0  0  0  0  0  0
  -25.3090  -31.5490   26.2100 C   0  0  0  0  0  1  0  0  0  0  0  0
  -26.9910  -30.3940   24.7680 C   0  0  0  0  0  1  0  0  0  0  0  0
  -27.5540  -32.5750   25.8030 C   0  0  0  0  0  1  0  0  0  0  0  0
  2  1  2  0
  3 51  1  0
  3  6  1  0
  4  5  1  0
  5  3  1  0
  5  2  1  0
  6  1  1  0
  6  7  1  0
  9 12  1  0
  9  8  1  0
 11 10  1  0
 11  8  1  0
 11 21  1  0
 12  2  1  0
 12 10  1  0
 13 21  1  0
 14 19  1  0
 15 16  1  0
 15 14  1  0
 17 16  1  0
 17 26  1  0
 17 18  1  0
 19 13  1  0
 19 18  1  0
 20 13  2  0
 21 22  1  0
 23 24  2  0
 24 43  1  0
 25 24  1  0
 25 28  1  0
 26 23  1  0
 26 27  1  0
 27 25  2  0
 28 29  1  0
 29 30  2  0
 31 34  1  0
 31 30  1  0
 32 31  2  0
 33 32  1  0
 33 28  2  0
 34 35  1  0
 35 36  1  0
 36 37  2  0
 38 37  1  0
 38 42  1  0
 39 38  2  0
 40 35  2  0
 40 39  1  0
 41 40  1  0
 43 44  1  0
 44 47  1  0
 44 46  1  0
 45 43  2  0
 48 49  1  0
 48 23  1  0
 50 48  1  0
 51 52  1  0
 53 64  2  0
 54 52  1  0
 54 59  1  0
 55 63  1  0
 55 65  1  0
 56 62  1  0
 56 58  1  0
 57 63  1  0
 58 57  1  0
 59 58  2  0
 60 54  2  0
 61 60  1  0
 61 56  2  0
 62 55  1  0
 63 53  1  0
 65 67  2  0
 66 65  1  0
 68 66  1  0
 69 78  2  0
 69 74  1  0
 70 66  1  0
 70 74  1  0
 71 70  1  0
 72 73  1  0
 72 71  1  0
 73 69  1  0
 74 75  2  0
 75 76  1  0
 77 76  2  0
 78 77  1  0
 79 53  1  0
 79 80  1  0
 79 89  1  0
 80 83  1  0
 81 85  1  0
 81 80  1  0
 82 81  2  0
 85 84  1  0
 87 85  1  0
 87 88  1  0
 87 86  1  0
 89 92  1  1
 89 90  1  0
 91 89  1  0
M  ISO  4  13 100  21 100  51 101  52 101
M  END
>  <TORSDO>  (62) 
F 18

>  <SCORE>  (62) 
-14.837

>  <name>  (62) 
62

>  <ligand_id>  (62) 
62

>  <original_smiles>  (62) 
[H]c1c([H])c([H])c2c(c1[H])C([H])([H])C([H])([H])C([H])([H])C2([H])N([H])C(=O)C1([H])N(C(=O)C([H])(N([H])C(=O)C([H])(N([H])C([H])([H])[H])C([H])([H])[H])C(C([H])([H])[H])(C([H])([H])[H])C([H])([H])[H])C([H])([H])c2c([H])c(OC([H])([H])c3n(C([H])([H])[H])c(N4C([H])([H])C([H])([H])C([H])(N([H])C(=O)N5C([H])([H])C([H])([H])C([H])([H])C([H])(n6nc(-c7c([H])c([H])c(Oc8c([H])c([H])c(F)c([H])c8F)c([H])c7[H])c(C(=O)N([H])[H])c6N([H])[H])C5([H])[H])C4([H])[H])c([H])[n+]3[H])c([H])c([H])c2C1([H])[H]

>  <smiles>  (62) 
[H]c1c([H])c([H])c2c(c1[H])C([H])([H])C([H])([H])C([H])([H])C2([H])N([H])C(=O)C1([H])N(C(=O)C([H])(N([H])C(=O)C([H])(N([H])C([H])([H])[H])C([H])([H])[H])C(C([H])([H])[H])(C([H])([H])[H])C([H])([H])[H])C([H])([H])c2c([H])c(OC([H])([H])c3n(C([H])([H])[H])c(N4C([H])([H])C([H])([H])C([H])(N([H])C(=O)N5C([H])([H])C([H])([H])C([H])([H])C([H])(n6nc(-c7c([H])c([H])c(Oc8c([H])c([H])c(F)c([H])c8F)c([H])c7[H])c(C(=O)N([H])[H])c6N([H])[H])C5([H])[H])C4([H])[H])c([H])[n+]3[H])c([H])c([H])c2C1([H])[H]

$$$$
63:0:0
     RDKit          3D

 95104  0  0  1  0  0  0  0  0999 V2000
  -31.6630  -21.5480   19.6480 C   0  0  0  0  0  3  0  0  0  0  0  0
  -31.2180  -20.2390   19.8840 C   0  0  0  0  0  3  0  0  0  0  0  0
  -30.7620  -22.6360   19.6690 C   0  0  0  0  0  0  0  0  0  0  0  0
  -29.8610  -19.9810   20.1320 C   0  0  0  0  0  0  0  0  0  0  0  0
  -29.3870  -22.3940   19.9360 C   0  0  0  0  0  0  0  0  0  0  0  0
  -28.9740  -21.0680   20.1690 N   0  0  0  0  0  0  0  0  0  0  0  0
  -30.6640  -14.7490   19.9930 C   0  0  0  0  0  0  0  0  0  0  0  0
  -30.3570  -12.5150   18.9030 C   0  0  0  0  0  2  0  0  0  0  0  0
  -29.3430  -12.6520   17.7460 C   0  0  0  0  0  2  0  0  0  0  0  0
  -27.9070  -12.4600   18.2720 C   0  0  0  0  0  2  0  0  0  0  0  0
  -27.6260  -13.2950   19.5520 C   0  0  0  0  0  3  0  0  0  0  0  0
  -28.7610  -13.1430   20.5900 C   0  0  0  0  0  2  0  0  0  0  0  0
  -30.0070  -13.5350   19.9220 N   0  0  0  0  0  0  0  0  0  0  0  0
  -31.8030  -14.8350   19.5220 O   0  0  0  0  0  0  0  0  0  0  0  0
  -29.6370  -17.8570   21.7540 C   0  0  0  0  0  2  0  0  0  0  0  0
  -29.4890  -16.3080   21.5980 C   0  0  0  0  0  2  0  0  0  0  0  0
  -30.0950  -17.2530   19.5410 C   0  0  0  0  0  2  0  0  0  0  0  0
  -29.4180  -18.4500   20.3570 C   0  0  0  0  0  3  0  0  0  0  0  0
  -29.9330  -15.9180   20.2500 N   0  0  0  0  0  0  0  0  0  0  0  0
  -25.2920  -13.8620   20.4510 C   0  0  0  0  0  0  0  0  0  0  0  0
  -24.2520  -13.0770   20.8680 C   0  0  0  0  0  0  0  0  0  0  0  0
  -24.7130  -11.7280   20.7700 C   0  0  0  0  0  0  0  0  0  0  0  0
  -26.3180  -12.9920   20.1230 N   0  0  0  0  0  0  0  0  0  0  0  0
  -25.9800  -11.7010   20.3770 N   0  0  0  0  0  0  0  0  0  0  0  0
  -23.9990  -10.4590   20.9710 C   0  0  0  0  0  0  0  0  0  0  0  0
  -24.4560   -9.4950   21.8950 C   0  0  0  0  0  3  0  0  0  0  0  0
  -23.7430   -8.2920   22.0860 C   0  0  0  0  0  3  0  0  0  0  0  0
  -22.5590   -8.0440   21.3530 C   0  0  0  0  0  0  0  0  0  0  0  0
  -22.1210   -8.9980   20.4180 C   0  0  0  0  0  3  0  0  0  0  0  0
  -22.8340  -10.1940   20.2250 C   0  0  0  0  0  3  0  0  0  0  0  0
  -21.8150   -6.8950   21.4530 O   0  0  0  0  0  0  0  0  0  0  0  0
  -21.7440   -6.1830   22.6240 C   0  0  0  0  0  0  0  0  0  0  0  0
  -21.2820   -6.7650   23.8250 C   0  0  0  0  0  3  0  0  0  0  0  0
  -21.1600   -5.9780   24.9880 C   0  0  0  0  0  3  0  0  0  0  0  0
  -21.4910   -4.6110   24.9530 C   0  0  0  0  0  0  0  0  0  0  0  0
  -21.9460   -4.0280   23.7560 C   0  0  0  0  0  3  0  0  0  0  0  0
  -22.0700   -4.8130   22.5960 C   0  0  0  0  0  0  0  0  0  0  0  0
  -22.4880   -4.2400   21.4420 F   0  0  0  0  0  0  0  0  0  0  0  0
  -21.3670   -3.8520   26.0670 F   0  0  0  0  0  0  0  0  0  0  0  0
  -22.8750  -13.5450   21.2400 C   0  0  0  0  0  0  0  0  0  0  0  0
  -22.2090  -12.8360   22.1440 N   0  0  0  0  0  0  0  0  0  0  0  0
  -22.3990  -14.5730   20.7610 O   0  0  0  0  0  0  0  0  0  0  0  0
  -22.6100  -12.0050   22.5560 H   0  0  0  0  0  0  0  0  0  0  0  0
  -21.2880  -13.1310   22.4340 H   0  0  0  0  0  0  0  0  0  0  0  0
  -25.4420  -15.2370   20.2990 N   0  0  0  0  0  0  0  0  0  0  0  0
  -24.6760  -15.8770   20.4780 H   0  0  0  0  0  0  0  0  0  0  0  0
  -26.2650  -15.6920   19.9240 H   0  0  0  0  0  0  0  0  0  0  0  0
  -31.3240  -24.0170   19.3170 C   0  0  0  0  0  2  0  0  0  0  0  0
  -31.9050  -24.7160   20.4740 N   0  0  0  0  0  4  0  0  0  0  0  0
  -31.2020  -25.0330   21.1170 H   0  0  0  0  0  0  0  0  0  0  0  0
  -32.4060  -25.5230   20.1480 H   0  0  0  0  0  0  0  0  0  0  0  0
  -32.5580  -24.1330   20.9640 H   0  0  0  0  0  0  0  0  0  0  0  0
  -28.3350  -23.5990   19.7620 C   0  0  0  0  0  2  0  0  0  0  0  0
  -28.3040  -24.9460   20.6880 C   0  0  0  0  0  2  0  0  0  0  0  0
  -28.4180  -26.3740   20.2000 O   0  0  0  0  0  0  0  0  0  0  0  0
  -24.6490  -31.8500   23.2120 C   0  0  0  0  0  0  0  0  0  0  0  0
  -27.3010  -27.2410   20.2060 C   0  0  0  0  0  0  0  0  0  0  0  0
  -23.4680  -30.4430   21.5630 C   0  0  0  0  0  3  0  0  0  0  0  0
  -24.9370  -28.8770   20.1630 C   0  0  0  0  0  0  0  0  0  0  0  0
  -26.0120  -30.7550   21.4070 C   0  0  0  0  0  2  0  0  0  0  0  0
  -26.1020  -29.3680   20.7670 C   0  0  0  0  0  0  0  0  0  0  0  0
  -27.2880  -28.5630   20.7720 C   0  0  0  0  0  3  0  0  0  0  0  0
  -26.1110  -26.8080   19.5910 C   0  0  0  0  0  3  0  0  0  0  0  0
  -24.9450  -27.6040   19.5680 C   0  0  0  0  0  3  0  0  0  0  0  0
  -23.7010  -29.7580   20.1910 C   0  0  0  0  0  2  0  0  0  0  0  0
  -24.7290  -31.0360   22.1160 N   0  0  0  0  0  0  0  0  0  0  0  0
  -23.5590  -32.1240   23.7350 O   0  0  0  0  0  0  0  0  0  0  0  0
  -22.7960  -29.4310   22.5230 C   0  0  0  0  0  0  0  0  0  0  0  0
  -21.4670  -29.2660   22.4000 N   0  0  0  0  0  0  0  0  0  0  0  0
  -23.4710  -28.7950   23.3370 O   0  0  0  0  0  0  0  0  0  0  0  0
  -20.9800  -29.8270   21.7150 H   0  0  0  0  0  0  0  0  0  0  0  0
  -18.0790  -28.1050   22.9230 C   0  0  0  0  0  0  0  0  0  0  0  0
  -20.6440  -28.3310   23.1710 C   0  0  0  0  0  3  0  0  0  0  0  0
  -20.7220  -26.9030   22.5810 C   0  0  0  0  0  2  0  0  0  0  0  0
  -19.6080  -26.6060   21.5720 C   0  0  0  0  0  2  0  0  0  0  0  0
  -18.2330  -26.7620   22.2290 C   0  0  0  0  0  2  0  0  0  0  0  0
  -19.2120  -28.8490   23.3510 C   0  0  0  0  0  0  0  0  0  0  0  0
  -19.0140  -30.1080   23.9590 C   0  0  0  0  0  3  0  0  0  0  0  0
  -17.7160  -30.6220   24.1450 C   0  0  0  0  0  3  0  0  0  0  0  0
  -16.5990  -29.8760   23.7320 C   0  0  0  0  0  3  0  0  0  0  0  0
  -16.7810  -28.6190   23.1260 C   0  0  0  0  0  3  0  0  0  0  0  0
  -25.9210  -32.4920   23.8440 C   0  0  0  0  0  3  0  0  0  0  0  0
  -26.4350  -31.7210   25.1220 C   0  0  1  0  0  0  0  0  0  0  0  0
  -25.3380  -31.4750   26.1840 C   0  0  0  0  0  1  0  0  0  0  0  0
  -27.0320  -30.3490   24.7330 C   0  0  0  0  0  1  0  0  0  0  0  0
  -27.5750  -32.5230   25.7930 C   0  0  0  0  0  1  0  0  0  0  0  0
  -25.5970  -33.8860   24.1800 N   0  0  0  0  0  0  0  0  0  0  0  0
  -25.9230  -34.9470   23.4300 C   0  0  0  0  0  0  0  0  0  0  0  0
  -26.5970  -34.8550   22.3990 O   0  0  0  0  0  0  0  0  0  0  0  0
  -24.9980  -34.0290   24.9790 H   0  0  0  0  0  0  0  0  0  0  0  0
  -24.1830  -36.7310   23.0860 C   0  0  0  0  0  1  0  0  0  0  0  0
  -25.4260  -36.3300   23.8960 C   0  0  0  0  0  3  0  0  0  0  0  0
  -27.5520  -37.2280   24.7340 C   0  0  0  0  0  1  0  0  0  0  0  0
  -26.4510  -37.3920   23.7900 N   0  0  0  0  0  0  0  0  0  0  0  0
  -26.0360  -38.3080   23.9420 H   0  0  0  0  0  0  0  0  0  0  0  0
  1  3  2  0
  1  2  1  0
  2  4  2  0
  3  5  1  0
  4  6  1  0
  5  6  2  0
  7 19  1  0
  8 13  1  0
  9 10  1  0
  9  8  1  0
 11 10  1  0
 11 23  1  0
 11 12  1  0
 13  7  1  0
 13 12  1  0
 14  7  2  0
 16 15  1  0
 17 19  1  0
 17 18  1  0
 18  4  1  0
 18 15  1  0
 19 16  1  0
 20 21  2  0
 21 40  1  0
 22 21  1  0
 22 25  1  0
 23 24  1  0
 23 20  1  0
 24 22  2  0
 25 26  1  0
 26 27  2  0
 28 31  1  0
 28 27  1  0
 29 28  2  0
 30 29  1  0
 30 25  2  0
 31 32  1  0
 32 33  1  0
 33 34  2  0
 35 34  1  0
 35 39  1  0
 36 35  2  0
 37 32  2  0
 37 36  1  0
 38 37  1  0
 40 41  1  0
 41 44  1  0
 41 43  1  0
 42 40  2  0
 45 20  1  0
 45 46  1  0
 47 45  1  0
 48  3  1  0
 48 49  1  0
 49 52  1  0
 49 50  1  0
 51 49  1  0
 53  5  1  0
 53 54  1  0
 55 57  1  0
 55 54  1  0
 56 67  2  0
 57 62  1  0
 58 66  1  0
 58 68  1  0
 59 65  1  0
 59 61  1  0
 60 66  1  0
 61 62  2  0
 61 60  1  0
 63 57  2  0
 64 63  1  0
 64 59  2  0
 65 58  1  0
 66 56  1  0
 68 70  2  0
 69 68  1  0
 71 69  1  0
 72 81  2  0
 72 77  1  0
 73 69  1  0
 73 77  1  0
 74 73  1  0
 75 76  1  0
 75 74  1  0
 76 72  1  0
 77 78  2  0
 78 79  1  0
 80 79  2  0
 81 80  1  0
 82 56  1  0
 82 87  1  0
 82 83  1  0
 83 86  1  1
 83 84  1  0
 85 83  1  0
 87 90  1  0
 88 92  1  0
 88 87  1  0
 89 88  2  0
 92 91  1  0
 94 92  1  0
 94 95  1  0
 94 93  1  0
M  ISO  4   7 100  19 100  54 101  55 101
M  END
>  <TORSDO>  (63) 
F 20

>  <SCORE>  (63) 
-13.586

>  <name>  (63) 
63

>  <ligand_id>  (63) 
63

>  <original_smiles>  (63) 
[H]c1c(C2([H])C([H])([H])N(C(=O)N3C([H])([H])C([H])([H])C([H])([H])C([H])(n4nc(-c5c([H])c([H])c(Oc6c([H])c([H])c(F)c([H])c6F)c([H])c5[H])c(C(=O)N([H])[H])c4N([H])[H])C3([H])[H])C([H])([H])C2([H])[H])nc(C([H])([H])C([H])([H])Oc2c([H])c([H])c3c(c2[H])C([H])([H])N(C(=O)C([H])(N([H])C(=O)C([H])(N([H])C([H])([H])[H])C([H])([H])[H])C(C([H])([H])[H])(C([H])([H])[H])C([H])([H])[H])C([H])(C(=O)N([H])C2([H])c4c([H])c([H])c([H])c([H])c4C([H])([H])C([H])([H])C2([H])[H])C3([H])[H])c(C([H])([H])[N+]([H])([H])[H])c1[H]

>  <smiles>  (63) 
[H]c1c(C2([H])C([H])([H])N(C(=O)N3C([H])([H])C([H])([H])C([H])([H])C([H])(n4nc(-c5c([H])c([H])c(Oc6c([H])c([H])c(F)c([H])c6F)c([H])c5[H])c(C(=O)N([H])[H])c4N([H])[H])C3([H])[H])C([H])([H])C2([H])[H])nc(C([H])([H])C([H])([H])Oc2c([H])c([H])c3c(c2[H])C([H])([H])N(C(=O)C([H])(N([H])C(=O)C([H])(N([H])C([H])([H])[H])C([H])([H])[H])C(C([H])([H])[H])(C([H])([H])[H])C([H])([H])[H])C([H])(C(=O)N([H])C2([H])c4c([H])c([H])c([H])c([H])c4C([H])([H])C([H])([H])C2([H])[H])C3([H])[H])c(C([H])([H])[N+]([H])([H])[H])c1[H]

$$$$
64:0:0
     RDKit          3D

 96106  0  0  1  0  0  0  0  0999 V2000
  -28.8270  -21.3280   20.6620 C   0  0  0  0  0  2  0  0  0  0  0  0
  -28.7740  -22.5790   19.7910 C   0  0  0  0  0  2  0  0  0  0  0  0
  -30.4260  -23.0130   21.2980 C   0  0  0  0  0  2  0  0  0  0  0  0
  -30.0480  -21.5400   21.5910 C   0  0  0  0  0  3  0  0  0  0  0  0
  -29.2670  -23.6220   20.6630 N   0  0  0  0  0  0  0  0  0  0  0  0
  -32.9950  -19.3510   22.1830 C   0  0  0  0  0  2  0  0  0  0  0  0
  -32.1800  -20.6310   22.3940 C   0  0  0  0  0  2  0  0  0  0  0  0
  -30.7300  -19.1790   21.3830 C   0  0  0  0  0  2  0  0  0  0  0  0
  -31.9580  -18.2980   21.7260 C   0  0  0  0  0  3  0  0  0  0  0  0
  -31.1430  -20.5800   21.3790 N   0  0  0  0  0  0  0  0  0  0  0  0
  -31.6880  -17.2850   22.7880 N   0  0  0  0  0  4  0  0  0  0  0  0
  -31.1100  -17.7130   23.4940 H   0  0  0  0  0  0  0  0  0  0  0  0
  -32.5690  -17.0800   23.2380 H   0  0  0  0  0  0  0  0  0  0  0  0
  -30.3900  -14.1660   19.7320 C   0  0  0  0  0  0  0  0  0  0  0  0
  -29.7870  -12.1800   18.4110 C   0  0  0  0  0  2  0  0  0  0  0  0
  -28.6810  -12.4600   17.3790 C   0  0  0  0  0  2  0  0  0  0  0  0
  -27.2930  -12.2830   18.0230 C   0  0  0  0  0  2  0  0  0  0  0  0
  -27.1490  -13.0560   19.3580 C   0  0  0  0  0  3  0  0  0  0  0  0
  -28.3550  -12.7870   20.2940 C   0  0  0  0  0  2  0  0  0  0  0  0
  -29.6060  -13.0670   19.5660 N   0  0  0  0  0  0  0  0  0  0  0  0
  -31.1370  -14.6040   18.8520 O   0  0  0  0  0  0  0  0  0  0  0  0
  -29.9710  -15.9070   21.3720 C   0  0  0  0  0  2  0  0  0  0  0  0
  -31.8490  -15.0390   21.5000 C   0  0  0  0  0  2  0  0  0  0  0  0
  -31.0800  -15.9740   22.4130 C   0  0  0  0  0  3  0  0  0  0  0  0
  -30.5230  -14.5910   21.0040 N   0  0  0  0  0  0  0  0  0  0  0  0
  -24.8340  -13.5930   20.3650 C   0  0  0  0  0  0  0  0  0  0  0  0
  -23.8450  -12.7890   20.8620 C   0  0  0  0  0  0  0  0  0  0  0  0
  -24.3340  -11.4490   20.7610 C   0  0  0  0  0  0  0  0  0  0  0  0
  -25.8710  -12.7430   20.0010 N   0  0  0  0  0  0  0  0  0  0  0  0
  -25.5750  -11.4480   20.2870 N   0  0  0  0  0  0  0  0  0  0  0  0
  -23.6710  -10.1660   21.0320 C   0  0  0  0  0  0  0  0  0  0  0  0
  -24.1960   -9.2410   21.9620 C   0  0  0  0  0  3  0  0  0  0  0  0
  -23.5240   -8.0270   22.2190 C   0  0  0  0  0  3  0  0  0  0  0  0
  -22.3150   -7.7250   21.5490 C   0  0  0  0  0  0  0  0  0  0  0  0
  -21.8070   -8.6390   20.6080 C   0  0  0  0  0  3  0  0  0  0  0  0
  -22.4810   -9.8460   20.3490 C   0  0  0  0  0  3  0  0  0  0  0  0
  -21.6120   -6.5570   21.7180 O   0  0  0  0  0  0  0  0  0  0  0  0
  -21.6320   -5.8700   22.9060 C   0  0  0  0  0  0  0  0  0  0  0  0
  -21.2320   -6.4700   24.1180 C   0  0  0  0  0  3  0  0  0  0  0  0
  -21.1940   -5.7090   25.3020 C   0  0  0  0  0  3  0  0  0  0  0  0
  -21.5500   -4.3480   25.2780 C   0  0  0  0  0  0  0  0  0  0  0  0
  -21.9480   -3.7440   24.0730 C   0  0  0  0  0  3  0  0  0  0  0  0
  -21.9850   -4.5040   22.8890 C   0  0  0  0  0  0  0  0  0  0  0  0
  -22.3470   -3.9110   21.7260 F   0  0  0  0  0  0  0  0  0  0  0  0
  -21.5110   -3.6190   26.4180 F   0  0  0  0  0  0  0  0  0  0  0  0
  -22.4820  -13.2280   21.3160 C   0  0  0  0  0  0  0  0  0  0  0  0
  -21.9000  -12.5290   22.2830 N   0  0  0  0  0  0  0  0  0  0  0  0
  -21.9430  -14.2300   20.8480 O   0  0  0  0  0  0  0  0  0  0  0  0
  -22.3510  -11.7230   22.6910 H   0  0  0  0  0  0  0  0  0  0  0  0
  -20.9910  -12.8040   22.6220 H   0  0  0  0  0  0  0  0  0  0  0  0
  -24.9250  -14.9690   20.1780 N   0  0  0  0  0  0  0  0  0  0  0  0
  -24.1460  -15.5820   20.3950 H   0  0  0  0  0  0  0  0  0  0  0  0
  -25.7020  -15.4550   19.7510 H   0  0  0  0  0  0  0  0  0  0  0  0
  -29.5470  -24.8920   19.9900 C   0  0  0  0  0  2  0  0  0  0  0  0
  -28.3180  -25.5180   19.3060 C   0  0  0  0  0  2  0  0  0  0  0  0
  -28.2660  -26.8870   19.6870 O   0  0  0  0  0  0  0  0  0  0  0  0
  -24.5050  -31.8040   23.1290 C   0  0  0  0  0  0  0  0  0  0  0  0
  -27.0480  -27.5240   19.7650 C   0  0  0  0  0  0  0  0  0  0  0  0
  -23.2350  -30.4580   21.4860 C   0  0  0  0  0  3  0  0  0  0  0  0
  -24.6350  -28.9810   19.9520 C   0  0  0  0  0  0  0  0  0  0  0  0
  -25.7420  -30.8510   21.1890 C   0  0  0  0  0  2  0  0  0  0  0  0
  -25.8100  -29.5010   20.5090 C   0  0  0  0  0  0  0  0  0  0  0  0
  -27.0150  -28.7750   20.4190 C   0  0  0  0  0  3  0  0  0  0  0  0
  -25.8510  -27.0120   19.2100 C   0  0  0  0  0  3  0  0  0  0  0  0
  -24.6470  -27.7330   19.3070 C   0  0  0  0  0  3  0  0  0  0  0  0
  -23.3930  -29.8330   20.0740 C   0  0  0  0  0  2  0  0  0  0  0  0
  -24.5160  -31.0480   21.9950 N   0  0  0  0  0  0  0  0  0  0  0  0
  -23.4460  -32.0470   23.7230 O   0  0  0  0  0  0  0  0  0  0  0  0
  -22.6310  -29.3950   22.4320 C   0  0  0  0  0  0  0  0  0  0  0  0
  -21.3110  -29.1760   22.3210 N   0  0  0  0  0  0  0  0  0  0  0  0
  -23.3450  -28.7740   23.2230 O   0  0  0  0  0  0  0  0  0  0  0  0
  -20.7910  -29.7420   21.6650 H   0  0  0  0  0  0  0  0  0  0  0  0
  -17.9860  -27.8500   22.8000 C   0  0  0  0  0  0  0  0  0  0  0  0
  -20.5330  -28.1940   23.0780 C   0  0  0  0  0  3  0  0  0  0  0  0
  -20.6860  -26.7750   22.4830 C   0  0  0  0  0  2  0  0  0  0  0  0
  -19.5970  -26.4250   21.4660 C   0  0  0  0  0  2  0  0  0  0  0  0
  -18.2100  -26.5160   22.1100 C   0  0  0  0  0  2  0  0  0  0  0  0
  -19.0760  -28.6450   23.2430 C   0  0  0  0  0  0  0  0  0  0  0  0
  -18.8140  -29.8940   23.8480 C   0  0  0  0  0  3  0  0  0  0  0  0
  -17.4920  -30.3480   24.0160 C   0  0  0  0  0  3  0  0  0  0  0  0
  -16.4150  -29.5500   23.5900 C   0  0  0  0  0  3  0  0  0  0  0  0
  -16.6630  -28.3020   22.9890 C   0  0  0  0  0  3  0  0  0  0  0  0
  -25.8130  -32.4170   23.7210 C   0  0  0  0  0  3  0  0  0  0  0  0
  -26.3710  -31.6110   24.9570 C   0  0  1  0  0  0  0  0  0  0  0  0
  -25.3160  -31.3440   26.0550 C   0  0  0  0  0  1  0  0  0  0  0  0
  -26.9390  -30.2470   24.4990 C   0  0  0  0  0  1  0  0  0  0  0  0
  -27.5430  -32.3870   25.6040 C   0  0  0  0  0  1  0  0  0  0  0  0
  -25.5180  -33.8080   24.0920 N   0  0  0  0  0  0  0  0  0  0  0  0
  -25.8340  -34.8740   23.3440 C   0  0  0  0  0  0  0  0  0  0  0  0
  -26.4730  -34.7880   22.2920 O   0  0  0  0  0  0  0  0  0  0  0  0
  -24.9510  -33.9490   24.9150 H   0  0  0  0  0  0  0  0  0  0  0  0
  -24.1050  -36.6800   23.0710 C   0  0  0  0  0  1  0  0  0  0  0  0
  -25.3640  -36.2540   23.8440 C   0  0  0  0  0  3  0  0  0  0  0  0
  -27.5230  -37.1070   24.6500 C   0  0  0  0  0  1  0  0  0  0  0  0
  -26.4010  -37.3040   23.7340 N   0  0  0  0  0  0  0  0  0  0  0  0
  -26.0040  -38.2220   23.9120 H   0  0  0  0  0  0  0  0  0  0  0  0
  2  1  1  0
  2  5  1  0
  3  4  1  0
  4  1  1  0
  5  3  1  0
  6  7  1  0
  8  9  1  0
  9  6  1  0
  9 11  1  0
 10  8  1  0
 10  4  1  0
 10  7  1  0
 11 13  1  0
 11 12  1  0
 14 25  1  0
 15 20  1  0
 16 17  1  0
 16 15  1  0
 18 17  1  0
 18 29  1  0
 18 19  1  0
 20 14  1  0
 20 19  1  0
 21 14  2  0
 22 24  1  0
 23 24  1  0
 24 11  1  0
 25 22  1  0
 25 23  1  0
 26 27  2  0
 27 46  1  0
 28 27  1  0
 28 31  1  0
 29 30  1  0
 29 26  1  0
 30 28  2  0
 31 32  1  0
 32 33  2  0
 34 37  1  0
 34 33  1  0
 35 34  2  0
 36 35  1  0
 36 31  2  0
 37 38  1  0
 38 39  1  0
 39 40  2  0
 41 40  1  0
 41 45  1  0
 42 41  2  0
 43 38  2  0
 43 42  1  0
 44 43  1  0
 46 47  1  0
 47 50  1  0
 47 49  1  0
 48 46  2  0
 51 26  1  0
 51 52  1  0
 53 51  1  0
 54  5  1  0
 55 56  1  0
 55 54  1  0
 56 58  1  0
 57 68  2  0
 58 63  1  0
 59 67  1  0
 59 69  1  0
 60 66  1  0
 60 62  1  0
 61 67  1  0
 62 61  1  0
 63 62  2  0
 64 65  1  0
 64 58  2  0
 65 60  2  0
 66 59  1  0
 67 57  1  0
 69 71  2  0
 70 69  1  0
 72 70  1  0
 73 82  2  0
 73 78  1  0
 74 70  1  0
 74 78  1  0
 75 74  1  0
 76 77  1  0
 76 75  1  0
 77 73  1  0
 78 79  2  0
 79 80  1  0
 81 80  2  0
 82 81  1  0
 83 57  1  0
 83 88  1  0
 83 84  1  0
 84 87  1  1
 84 85  1  0
 86 84  1  0
 88 91  1  0
 89 93  1  0
 89 88  1  0
 90 89  2  0
 93 92  1  0
 95 93  1  0
 95 96  1  0
 95 94  1  0
M  ISO  4  14 100  25 100  55 101  56 101
M  END
>  <TORSDO>  (64) 
F 20

>  <SCORE>  (64) 
-10.940

>  <name>  (64) 
64

>  <ligand_id>  (64) 
64

>  <original_smiles>  (64) 
[H]c1c([H])c([H])c2c(c1[H])C([H])([H])C([H])([H])C([H])([H])C2([H])N([H])C(=O)C1([H])N(C(=O)C([H])(N([H])C(=O)C([H])(N([H])C([H])([H])[H])C([H])([H])[H])C(C([H])([H])[H])(C([H])([H])[H])C([H])([H])[H])C([H])([H])c2c([H])c(OC([H])([H])C([H])([H])N3C([H])([H])C([H])([H])C([H])(N4C([H])([H])C([H])([H])C([H])([N+]([H])([H])C5([H])C([H])([H])N(C(=O)N6C([H])([H])C([H])([H])C([H])([H])C([H])(n7nc(-c8c([H])c([H])c(Oc9c([H])c([H])c(F)c([H])c9F)c([H])c8[H])c(C(=O)N([H])[H])c7N([H])[H])C6([H])[H])C5([H])[H])C4([H])[H])C3([H])[H])c([H])c([H])c2C1([H])[H]

>  <smiles>  (64) 
[H]c1c([H])c([H])c2c(c1[H])C([H])([H])C([H])([H])C([H])([H])C2([H])N([H])C(=O)C1([H])N(C(=O)C([H])(N([H])C(=O)C([H])(N([H])C([H])([H])[H])C([H])([H])[H])C(C([H])([H])[H])(C([H])([H])[H])C([H])([H])[H])C([H])([H])c2c([H])c(OC([H])([H])C([H])([H])N3C([H])([H])C([H])([H])C([H])(N4C([H])([H])C([H])([H])C([H])([N+]([H])([H])C5([H])C([H])([H])N(C(=O)N6C([H])([H])C([H])([H])C([H])([H])C([H])(n7nc(-c8c([H])c([H])c(Oc9c([H])c([H])c(F)c([H])c9F)c([H])c8[H])c(C(=O)N([H])[H])c7N([H])[H])C6([H])[H])C5([H])[H])C4([H])[H])C3([H])[H])c([H])c([H])c2C1([H])[H]

$$$$
65:0:0
     RDKit          3D

104116  0  0  1  0  0  0  0  0999 V2000
  -31.9090  -22.9480   21.4400 C   0  0  0  0  0  3  0  0  0  0  0  0
  -32.4640  -22.2880   20.3330 C   0  0  0  0  0  0  0  0  0  0  0  0
  -32.9310  -23.1020   19.2890 C   0  0  0  0  0  0  0  0  0  0  0  0
  -32.0450  -24.9220   20.3390 C   0  0  0  0  0  0  0  0  0  0  0  0
  -31.6900  -24.2770   21.4320 N   0  0  0  0  0  0  0  0  0  0  0  0
  -32.7090  -24.4300   19.3030 N   0  0  0  0  0  0  0  0  0  0  0  0
  -31.5340  -26.1850   20.2170 N   0  0  0  0  0  0  0  0  0  0  0  0
  -31.1400  -26.4950   21.0950 H   0  0  0  0  0  0  0  0  0  0  0  0
  -31.0670  -27.4940   18.1270 C   0  0  0  0  0  2  0  0  0  0  0  0
  -29.6130  -27.9680   18.0740 C   0  0  0  0  0  2  0  0  0  0  0  0
  -30.6070  -26.4060   19.1100 C   0  0  0  0  0  3  0  0  0  0  0  0
  -29.3910  -27.2980   19.4430 C   0  0  0  0  0  3  0  0  0  0  0  0
  -28.1480  -26.5890   19.4890 O   0  0  0  0  0  0  0  0  0  0  0  0
  -24.5000  -31.6520   22.9960 C   0  0  0  0  0  0  0  0  0  0  0  0
  -26.9990  -27.3430   19.6400 C   0  0  0  0  0  0  0  0  0  0  0  0
  -23.2140  -30.3440   21.3280 C   0  0  0  0  0  3  0  0  0  0  0  0
  -24.6000  -28.8380   19.8010 C   0  0  0  0  0  0  0  0  0  0  0  0
  -25.7300  -30.6840   21.0620 C   0  0  0  0  0  2  0  0  0  0  0  0
  -25.7760  -29.3360   20.3750 C   0  0  0  0  0  0  0  0  0  0  0  0
  -26.9720  -28.5960   20.3010 C   0  0  0  0  0  3  0  0  0  0  0  0
  -25.7990  -26.8410   19.0920 C   0  0  0  0  0  3  0  0  0  0  0  0
  -24.6020  -27.5850   19.1620 C   0  0  0  0  0  3  0  0  0  0  0  0
  -23.3710  -29.7120   19.9150 C   0  0  0  0  0  2  0  0  0  0  0  0
  -24.5020  -30.9050   21.8550 N   0  0  0  0  0  0  0  0  0  0  0  0
  -23.4440  -31.9210   23.5840 O   0  0  0  0  0  0  0  0  0  0  0  0
  -22.5710  -29.2990   22.2650 C   0  0  0  0  0  0  0  0  0  0  0  0
  -21.2400  -29.1480   22.1690 N   0  0  0  0  0  0  0  0  0  0  0  0
  -23.2630  -28.6240   23.0310 O   0  0  0  0  0  0  0  0  0  0  0  0
  -20.7470  -29.7460   21.5230 H   0  0  0  0  0  0  0  0  0  0  0  0
  -17.8590  -28.0000   22.6960 C   0  0  0  0  0  0  0  0  0  0  0  0
  -20.4250  -28.1950   22.9180 C   0  0  0  0  0  3  0  0  0  0  0  0
  -20.4870  -26.7860   22.2830 C   0  0  0  0  0  2  0  0  0  0  0  0
  -19.3570  -26.5290   21.2810 C   0  0  0  0  0  2  0  0  0  0  0  0
  -17.9930  -26.6760   21.9620 C   0  0  0  0  0  2  0  0  0  0  0  0
  -19.0020  -28.7210   23.1300 C   0  0  0  0  0  0  0  0  0  0  0  0
  -18.8230  -29.9650   23.7750 C   0  0  0  0  0  3  0  0  0  0  0  0
  -17.5340  -30.4860   23.9870 C   0  0  0  0  0  3  0  0  0  0  0  0
  -16.4050  -29.7600   23.5700 C   0  0  0  0  0  3  0  0  0  0  0  0
  -16.5680  -28.5180   22.9300 C   0  0  0  0  0  3  0  0  0  0  0  0
  -25.8220  -32.2240   23.6030 C   0  0  0  0  0  3  0  0  0  0  0  0
  -26.3830  -31.3610   24.8000 C   0  0  1  0  0  0  0  0  0  0  0  0
  -25.3320  -31.0540   25.8900 C   0  0  0  0  0  1  0  0  0  0  0  0
  -26.9380  -30.0130   24.2820 C   0  0  0  0  0  1  0  0  0  0  0  0
  -27.5620  -32.1010   25.4720 C   0  0  0  0  0  1  0  0  0  0  0  0
  -25.5490  -33.6000   24.0320 N   0  0  0  0  0  0  0  0  0  0  0  0
  -25.8970  -34.6940   23.3430 C   0  0  0  0  0  0  0  0  0  0  0  0
  -26.5530  -34.6460   22.2970 O   0  0  0  0  0  0  0  0  0  0  0  0
  -24.9670  -33.7130   24.8490 H   0  0  0  0  0  0  0  0  0  0  0  0
  -24.2160  -36.5500   23.1220 C   0  0  0  0  0  1  0  0  0  0  0  0
  -25.4460  -36.0580   23.9000 C   0  0  0  0  0  3  0  0  0  0  0  0
  -27.6020  -36.8270   24.7870 C   0  0  0  0  0  1  0  0  0  0  0  0
  -26.5040  -37.0910   23.8600 N   0  0  0  0  0  0  0  0  0  0  0  0
  -26.1220  -38.0070   24.0780 H   0  0  0  0  0  0  0  0  0  0  0  0
  -33.5690  -23.1550   16.6950 C   0  0  0  0  0  2  0  0  0  0  0  0
  -32.6880  -21.9720   16.9960 C   0  0  0  0  0  2  0  0  0  0  0  0
  -33.5970  -22.5260   18.0710 C   0  0  0  0  0  3  0  0  0  0  0  0
  -32.3660  -20.7810   20.1770 C   0  0  0  0  0  2  0  0  0  0  0  0
  -30.7880  -19.2590   18.9700 C   0  0  0  0  0  2  0  0  0  0  0  0
  -30.0450  -20.2620   20.7140 C   0  0  0  0  0  2  0  0  0  0  0  0
  -29.6900  -18.9570   20.0020 C   0  0  0  0  0  3  0  0  0  0  0  0
  -31.0260  -20.5200   19.6580 N   0  0  0  0  0  0  0  0  0  0  0  0
  -30.7580  -14.0450   19.9720 C   0  0  0  0  0  0  0  0  0  0  0  0
  -30.3570  -12.0030   18.6140 C   0  0  0  0  0  2  0  0  0  0  0  0
  -29.2890  -12.2630   17.5270 C   0  0  0  0  0  2  0  0  0  0  0  0
  -27.8590  -12.1010   18.0880 C   0  0  0  0  0  2  0  0  0  0  0  0
  -27.6700  -12.8770   19.4110 C   0  0  0  0  0  3  0  0  0  0  0  0
  -28.8110  -12.4830   20.3870 C   0  0  0  0  0  2  0  0  0  0  0  0
  -30.0750  -12.8830   19.7630 N   0  0  0  0  0  0  0  0  0  0  0  0
  -31.7770  -14.3170   19.3190 O   0  0  0  0  0  0  0  0  0  0  0  0
  -31.2760  -15.7700   21.6820 C   0  0  0  0  0  2  0  0  0  0  0  0
  -29.0070  -15.4230   21.2010 C   0  0  0  0  0  2  0  0  0  0  0  0
  -31.2340  -17.1750   21.0120 C   0  0  0  0  0  2  0  0  0  0  0  0
  -28.8860  -16.6890   20.3520 C   0  0  0  0  0  2  0  0  0  0  0  0
  -30.3520  -14.8390   21.0140 N   0  0  0  0  0  0  0  0  0  0  0  0
  -29.8460  -17.7130   20.8140 N   0  0  2  0  0  4  0  0  0  0  0  0
  -29.5150  -17.9620   21.7350 H   0  0  0  0  0  0  0  0  0  0  0  0
  -25.3590  -13.5660   20.3360 C   0  0  0  0  0  0  0  0  0  0  0  0
  -24.3180  -12.8210   20.8220 C   0  0  0  0  0  0  0  0  0  0  0  0
  -24.7480  -11.4610   20.7510 C   0  0  0  0  0  0  0  0  0  0  0  0
  -26.3580  -12.6560   20.0100 N   0  0  0  0  0  0  0  0  0  0  0  0
  -25.9970  -11.3890   20.3140 N   0  0  0  0  0  0  0  0  0  0  0  0
  -24.0190  -10.2150   21.0070 C   0  0  0  0  0  0  0  0  0  0  0  0
  -24.4890   -9.2670   21.9420 C   0  0  0  0  0  3  0  0  0  0  0  0
  -23.7630   -8.0810   22.1820 C   0  0  0  0  0  3  0  0  0  0  0  0
  -22.5530   -7.8390   21.4870 C   0  0  0  0  0  0  0  0  0  0  0  0
  -22.1040   -8.7750   20.5370 C   0  0  0  0  0  3  0  0  0  0  0  0
  -22.8310   -9.9510   20.2970 C   0  0  0  0  0  3  0  0  0  0  0  0
  -21.7920   -6.7050   21.6410 O   0  0  0  0  0  0  0  0  0  0  0  0
  -21.7550   -6.0190   22.8280 C   0  0  0  0  0  0  0  0  0  0  0  0
  -21.3380   -6.6330   24.0290 C   0  0  0  0  0  3  0  0  0  0  0  0
  -21.2460   -5.8740   25.2120 C   0  0  0  0  0  3  0  0  0  0  0  0
  -21.5610   -4.5020   25.1950 C   0  0  0  0  0  0  0  0  0  0  0  0
  -21.9740   -3.8870   24.0000 C   0  0  0  0  0  3  0  0  0  0  0  0
  -22.0670   -4.6440   22.8170 C   0  0  0  0  0  0  0  0  0  0  0  0
  -22.4420   -4.0440   21.6620 F   0  0  0  0  0  0  0  0  0  0  0  0
  -21.4650   -3.7700   26.3290 F   0  0  0  0  0  0  0  0  0  0  0  0
  -22.9640  -13.3290   21.2220 C   0  0  0  0  0  0  0  0  0  0  0  0
  -22.3060  -12.6580   22.1630 N   0  0  0  0  0  0  0  0  0  0  0  0
  -22.4990  -14.3570   20.7350 O   0  0  0  0  0  0  0  0  0  0  0  0
  -22.7020  -11.8330   22.5890 H   0  0  0  0  0  0  0  0  0  0  0  0
  -21.3980  -12.9830   22.4630 H   0  0  0  0  0  0  0  0  0  0  0  0
  -25.5170  -14.9300   20.1210 N   0  0  0  0  0  0  0  0  0  0  0  0
  -24.6860  -15.5090   20.1820 H   0  0  0  0  0  0  0  0  0  0  0  0
  -26.1480  -15.2560   19.4010 H   0  0  0  0  0  0  0  0  0  0  0  0
  2  1  2  0
  3  6  2  0
  3  2  1  0
  4  5  2  0
  5  1  1  0
  6  4  1  0
  7  4  1  0
  7  8  1  0
  9 11  1  0
 10  9  1  0
 10 12  1  0
 11 12  1  0
 11  7  1  0
 12 13  1  0
 13 15  1  0
 14 25  2  0
 15 20  1  0
 16 24  1  0
 16 26  1  0
 17 23  1  0
 17 19  1  0
 18 24  1  0
 19 18  1  0
 20 19  2  0
 21 22  1  0
 21 15  2  0
 22 17  2  0
 23 16  1  0
 24 14  1  0
 26 28  2  0
 27 26  1  0
 29 27  1  0
 30 39  2  0
 30 35  1  0
 31 27  1  0
 31 35  1  0
 32 31  1  0
 33 34  1  0
 33 32  1  0
 34 30  1  0
 35 36  2  0
 36 37  1  0
 38 37  2  0
 39 38  1  0
 40 14  1  0
 40 45  1  0
 40 41  1  0
 41 44  1  1
 41 42  1  0
 43 41  1  0
 45 48  1  0
 46 50  1  0
 46 45  1  0
 47 46  2  0
 50 49  1  0
 52 50  1  0
 52 53  1  0
 52 51  1  0
 54 55  1  0
 54 56  1  0
 55 56  1  0
 56  3  1  0
 57  2  1  0
 58 61  1  0
 60 58  1  0
 60 59  1  0
 60 75  1  0
 61 57  1  0
 61 59  1  0
 62 74  1  0
 63 68  1  0
 64 65  1  0
 64 63  1  0
 66 65  1  0
 66 80  1  0
 66 67  1  0
 68 62  1  0
 68 67  1  0
 69 62  2  0
 72 70  1  0
 73 75  1  0
 73 71  1  0
 74 71  1  0
 74 70  1  0
 75 72  1  0
 75 76  1  1
 77 78  2  0
 78 97  1  0
 79 78  1  0
 79 82  1  0
 80 81  1  0
 80 77  1  0
 81 79  2  0
 82 83  1  0
 83 84  2  0
 85 88  1  0
 85 84  1  0
 86 85  2  0
 87 86  1  0
 87 82  2  0
 88 89  1  0
 89 90  1  0
 90 91  2  0
 92 91  1  0
 92 96  1  0
 93 92  2  0
 94 89  2  0
 94 93  1  0
 95 94  1  0
 97 98  1  0
 98101  1  0
 98100  1  0
 99 97  2  0
102103  1  0
102 77  1  0
104102  1  0
M  ISO  4  12 101  13 101  62 100  74 100
M  END
>  <TORSDO>  (65) 
F 20

>  <SCORE>  (65) 
-11.965

>  <name>  (65) 
65

>  <ligand_id>  (65) 
65

>  <original_smiles>  (65) 
[H]c1nc(N([H])C2([H])C([H])([H])C([H])([H])C2([H])Oc2c([H])c([H])c3c(c2[H])C([H])([H])N(C(=O)C([H])(N([H])C(=O)C([H])(N([H])C([H])([H])[H])C([H])([H])[H])C(C([H])([H])[H])(C([H])([H])[H])C([H])([H])[H])C([H])(C(=O)N([H])C2([H])c4c([H])c([H])c([H])c([H])c4C([H])([H])C([H])([H])C2([H])[H])C3([H])[H])nc(C2([H])C([H])([H])C2([H])[H])c1C([H])([H])N1C([H])([H])C([H])([N+]2([H])C([H])([H])C([H])([H])N(C(=O)N3C([H])([H])C([H])([H])C([H])([H])C([H])(n4nc(-c5c([H])c([H])c(Oc6c([H])c([H])c(F)c([H])c6F)c([H])c5[H])c(C(=O)N([H])[H])c4N([H])[H])C3([H])[H])C([H])([H])C2([H])[H])C1([H])[H]

>  <smiles>  (65) 
[H]c1nc(N([H])C2([H])C([H])([H])C([H])([H])C2([H])Oc2c([H])c([H])c3c(c2[H])C([H])([H])N(C(=O)C([H])(N([H])C(=O)C([H])(N([H])C([H])([H])[H])C([H])([H])[H])C(C([H])([H])[H])(C([H])([H])[H])C([H])([H])[H])C([H])(C(=O)N([H])C2([H])c4c([H])c([H])c([H])c([H])c4C([H])([H])C([H])([H])C2([H])[H])C3([H])[H])nc(C2([H])C([H])([H])C2([H])[H])c1C([H])([H])N1C([H])([H])C([H])([N+]2([H])C([H])([H])C([H])([H])N(C(=O)N3C([H])([H])C([H])([H])C([H])([H])C([H])(n4nc(-c5c([H])c([H])c(Oc6c([H])c([H])c(F)c([H])c6F)c([H])c5[H])c(C(=O)N([H])[H])c4N([H])[H])C3([H])[H])C([H])([H])C2([H])[H])C1([H])[H]

$$$$
66:0:0
     RDKit          3D

109120  0  0  1  0  0  0  0  0999 V2000
  -30.8480  -23.7410   16.6420 C   0  0  0  0  0  3  0  0  0  0  0  0
  -29.8090  -22.9580   17.1890 C   0  0  0  0  0  0  0  0  0  0  0  0
  -32.4130  -22.1880   17.3540 C   0  0  0  0  0  0  0  0  0  0  0  0
  -31.3620  -21.3570   17.8760 C   0  0  0  0  0  0  0  0  0  0  0  0
  -32.1420  -23.3640   16.7260 N   0  0  0  0  0  0  0  0  0  0  0  0
  -30.0650  -21.7580   17.7640 N   0  0  0  0  0  0  0  0  0  0  0  0
  -27.7180  -24.3700   16.1900 C   0  0  0  0  0  2  0  0  0  0  0  0
  -27.0880  -25.0990   17.3680 C   0  0  0  0  0  2  0  0  0  0  0  0
  -28.3660  -23.4700   17.2500 C   0  0  0  0  0  3  0  0  0  0  0  0
  -28.1880  -24.5860   18.2050 N   0  0  2  0  0  4  0  0  0  0  0  0
  -28.9810  -25.2090   18.1230 H   0  0  0  0  0  0  0  0  0  0  0  0
  -26.5630  -23.5530   19.9340 C   0  0  0  0  0  1  0  0  0  0  0  0
  -27.9390  -24.2250   19.6460 C   0  0  0  0  0  3  0  0  0  0  0  0
  -28.3730  -25.3210   20.6920 C   0  0  0  0  0  2  0  0  0  0  0  0
  -28.5330  -26.7160   20.3160 O   0  0  0  0  0  0  0  0  0  0  0  0
  -24.6520  -31.9510   23.3480 C   0  0  0  0  0  0  0  0  0  0  0  0
  -27.3950  -27.4930   20.3310 C   0  0  0  0  0  0  0  0  0  0  0  0
  -23.5040  -30.5480   21.6720 C   0  0  0  0  0  3  0  0  0  0  0  0
  -25.0080  -29.0130   20.3090 C   0  0  0  0  0  0  0  0  0  0  0  0
  -26.0430  -30.9080   21.5510 C   0  0  0  0  0  2  0  0  0  0  0  0
  -26.1620  -29.5320   20.9160 C   0  0  0  0  0  0  0  0  0  0  0  0
  -27.3660  -28.7840   20.9190 C   0  0  0  0  0  3  0  0  0  0  0  0
  -26.2210  -27.0220   19.7210 C   0  0  0  0  0  3  0  0  0  0  0  0
  -25.0310  -27.7480   19.7170 C   0  0  0  0  0  3  0  0  0  0  0  0
  -23.7760  -29.8830   20.3000 C   0  0  0  0  0  2  0  0  0  0  0  0
  -24.7480  -31.1450   22.2510 N   0  0  0  0  0  0  0  0  0  0  0  0
  -23.5570  -32.2140   23.8660 O   0  0  0  0  0  0  0  0  0  0  0  0
  -22.8330  -29.5100   22.6070 C   0  0  0  0  0  0  0  0  0  0  0  0
  -21.5180  -29.2860   22.4270 N   0  0  0  0  0  0  0  0  0  0  0  0
  -23.4980  -28.9090   23.4550 O   0  0  0  0  0  0  0  0  0  0  0  0
  -21.0380  -29.8200   21.7150 H   0  0  0  0  0  0  0  0  0  0  0  0
  -18.1710  -27.9780   22.7750 C   0  0  0  0  0  0  0  0  0  0  0  0
  -20.6970  -28.3390   23.1780 C   0  0  0  0  0  3  0  0  0  0  0  0
  -20.8840  -26.8930   22.6500 C   0  0  0  0  0  2  0  0  0  0  0  0
  -19.8540  -26.5010   21.5870 C   0  0  0  0  0  2  0  0  0  0  0  0
  -18.4300  -26.6200   22.1350 C   0  0  0  0  0  2  0  0  0  0  0  0
  -19.2360  -28.7930   23.2400 C   0  0  0  0  0  0  0  0  0  0  0  0
  -18.9320  -30.0660   23.7730 C   0  0  0  0  0  3  0  0  0  0  0  0
  -17.6020  -30.5140   23.8650 C   0  0  0  0  0  3  0  0  0  0  0  0
  -16.5530  -29.6950   23.4190 C   0  0  0  0  0  3  0  0  0  0  0  0
  -16.8380  -28.4300   22.8710 C   0  0  0  0  0  3  0  0  0  0  0  0
  -25.9150  -32.6010   23.9940 C   0  0  0  0  0  3  0  0  0  0  0  0
  -26.3910  -31.8580   25.3010 C   0  0  1  0  0  0  0  0  0  0  0  0
  -25.2760  -31.6330   26.3450 C   0  0  0  0  0  1  0  0  0  0  0  0
  -26.9880  -30.4740   24.9550 C   0  0  0  0  0  1  0  0  0  0  0  0
  -27.5080  -32.6770   25.9870 C   0  0  0  0  0  1  0  0  0  0  0  0
  -25.5870  -34.0050   24.2770 N   0  0  0  0  0  0  0  0  0  0  0  0
  -25.9270  -35.0420   23.4960 C   0  0  0  0  0  0  0  0  0  0  0  0
  -26.6260  -34.9150   22.4900 O   0  0  0  0  0  0  0  0  0  0  0  0
  -24.9720  -34.1810   25.0560 H   0  0  0  0  0  0  0  0  0  0  0  0
  -24.1940  -36.8110   23.0570 C   0  0  0  0  0  1  0  0  0  0  0  0
  -25.4210  -36.4370   23.9040 C   0  0  0  0  0  3  0  0  0  0  0  0
  -27.5400  -37.3630   24.7420 C   0  0  0  0  0  1  0  0  0  0  0  0
  -26.4500  -37.4940   23.7790 N   0  0  0  0  0  0  0  0  0  0  0  0
  -26.0350  -38.4170   23.8930 H   0  0  0  0  0  0  0  0  0  0  0  0
  -33.9080  -21.8580   17.4260 C   0  0  0  0  0  2  0  0  0  0  0  0
  -34.7360  -23.0170   17.8170 N   0  0  0  0  0  4  0  0  0  0  0  0
  -35.6990  -22.7290   17.7580 H   0  0  0  0  0  0  0  0  0  0  0  0
  -34.5880  -23.7440   17.1370 H   0  0  0  0  0  0  0  0  0  0  0  0
  -35.3900  -24.6300   19.6540 C   0  0  0  0  0  2  0  0  0  0  0  0
  -33.9850  -24.9720   19.2110 C   0  0  0  0  0  2  0  0  0  0  0  0
  -34.4610  -23.5310   19.1830 C   0  0  0  0  0  3  0  0  0  0  0  0
  -31.5590  -19.9360   18.4700 C   0  0  0  0  0  3  0  0  0  0  0  0
  -32.4930  -18.8380   16.3310 C   0  0  0  0  0  1  0  0  0  0  0  0
  -31.3730  -18.8520   17.3850 C   0  0  0  0  0  2  0  0  0  0  0  0
  -30.7260  -19.6930   19.7790 C   0  0  0  0  0  2  0  0  0  0  0  0
  -30.7240  -14.5280   20.5060 C   0  0  0  0  0  0  0  0  0  0  0  0
  -30.3810  -12.3680   19.3420 C   0  0  0  0  0  2  0  0  0  0  0  0
  -29.4740  -12.5670   18.1110 C   0  0  0  0  0  2  0  0  0  0  0  0
  -27.9960  -12.3900   18.5160 C   0  0  0  0  0  2  0  0  0  0  0  0
  -27.6210  -13.2370   19.7630 C   0  0  0  0  0  3  0  0  0  0  0  0
  -28.6670  -13.0810   20.8940 C   0  0  0  0  0  2  0  0  0  0  0  0
  -30.0010  -13.3750   20.3470 N   0  0  0  0  0  0  0  0  0  0  0  0
  -31.8800  -14.6400   20.0940 O   0  0  0  0  0  0  0  0  0  0  0  0
  -29.0110  -16.2850   20.3900 C   0  0  0  0  0  2  0  0  0  0  0  0
  -30.8410  -16.4740   22.0320 C   0  0  0  0  0  2  0  0  0  0  0  0
  -29.1800  -17.8070   20.1790 C   0  0  0  0  0  2  0  0  0  0  0  0
  -31.1880  -17.9190   21.5310 C   0  0  0  0  0  2  0  0  0  0  0  0
  -30.1160  -15.6000   21.0820 N   0  0  0  0  0  0  0  0  0  0  0  0
  -30.5940  -18.2530   20.2100 N   0  0  2  0  0  4  0  0  0  0  0  0
  -31.0970  -17.7000   19.5290 H   0  0  0  0  0  0  0  0  0  0  0  0
  -25.2190  -13.8690   20.4370 C   0  0  0  0  0  0  0  0  0  0  0  0
  -24.1410  -13.1040   20.8000 C   0  0  0  0  0  0  0  0  0  0  0  0
  -24.6020  -11.7530   20.7990 C   0  0  0  0  0  0  0  0  0  0  0  0
  -26.2630  -12.9780   20.2320 N   0  0  0  0  0  0  0  0  0  0  0  0
  -25.8970  -11.7030   20.5130 N   0  0  0  0  0  0  0  0  0  0  0  0
  -23.8740  -10.4930   20.9970 C   0  0  0  0  0  0  0  0  0  0  0  0
  -24.2910   -9.5450   21.9580 C   0  0  0  0  0  3  0  0  0  0  0  0
  -23.5610   -8.3520   22.1410 C   0  0  0  0  0  3  0  0  0  0  0  0
  -22.4060   -8.1000   21.3620 C   0  0  0  0  0  0  0  0  0  0  0  0
  -22.0110   -9.0380   20.3950 C   0  0  0  0  0  3  0  0  0  0  0  0
  -22.7400  -10.2230   20.2070 C   0  0  0  0  0  3  0  0  0  0  0  0
  -21.6510   -6.9560   21.4510 O   0  0  0  0  0  0  0  0  0  0  0  0
  -21.5860   -6.2230   22.6080 C   0  0  0  0  0  0  0  0  0  0  0  0
  -21.1290   -6.7860   23.8190 C   0  0  0  0  0  3  0  0  0  0  0  0
  -21.0120   -5.9810   24.9710 C   0  0  0  0  0  3  0  0  0  0  0  0
  -21.3420   -4.6130   24.9110 C   0  0  0  0  0  0  0  0  0  0  0  0
  -21.7910   -4.0510   23.7030 C   0  0  0  0  0  3  0  0  0  0  0  0
  -21.9090   -4.8520   22.5550 C   0  0  0  0  0  0  0  0  0  0  0  0
  -22.3260   -4.3020   21.3900 F   0  0  0  0  0  0  0  0  0  0  0  0
  -21.2230   -3.8380   26.0120 F   0  0  0  0  0  0  0  0  0  0  0  0
  -22.7390  -13.5910   21.0330 C   0  0  0  0  0  0  0  0  0  0  0  0
  -21.9870  -12.9120   21.8930 N   0  0  0  0  0  0  0  0  0  0  0  0
  -22.3210  -14.6160   20.4980 O   0  0  0  0  0  0  0  0  0  0  0  0
  -22.3310  -12.0870   22.3610 H   0  0  0  0  0  0  0  0  0  0  0  0
  -21.0490  -13.2320   22.0880 H   0  0  0  0  0  0  0  0  0  0  0  0
  -25.3830  -15.2360   20.2450 N   0  0  0  0  0  0  0  0  0  0  0  0
  -24.6040  -15.8820   20.3090 H   0  0  0  0  0  0  0  0  0  0  0  0
  -26.2270  -15.6670   19.8960 H   0  0  0  0  0  0  0  0  0  0  0  0
  1  5  2  0
  1  2  1  0
  2  6  2  0
  3 56  1  0
  3  4  2  0
  4 63  1  0
  5  3  1  0
  6  4  1  0
  7  9  1  0
  7  8  1  0
  8 10  1  0
  9  2  1  0
  9 10  1  0
 10 13  1  0
 10 11  1  1
 13 12  1  0
 13 14  1  0
 15 17  1  0
 15 14  1  0
 16 27  2  0
 17 22  1  0
 18 26  1  0
 18 28  1  0
 19 21  1  0
 20 26  1  0
 21 22  2  0
 21 20  1  0
 23 17  2  0
 24 23  1  0
 24 19  2  0
 25 19  1  0
 25 18  1  0
 26 16  1  0
 28 30  2  0
 29 28  1  0
 31 29  1  0
 32 41  2  0
 32 37  1  0
 33 29  1  0
 33 37  1  0
 34 33  1  0
 35 36  1  0
 35 34  1  0
 36 32  1  0
 37 38  2  0
 38 39  1  0
 40 39  2  0
 41 40  1  0
 42 16  1  0
 42 47  1  0
 42 43  1  0
 43 46  1  1
 43 44  1  0
 45 43  1  0
 47 50  1  0
 48 52  1  0
 48 47  1  0
 49 48  2  0
 52 51  1  0
 54 55  1  0
 54 52  1  0
 54 53  1  0
 56 57  1  0
 57 62  1  0
 58 57  1  0
 59 57  1  0
 61 60  1  0
 62 61  1  0
 62 60  1  0
 63 65  1  0
 63 66  1  0
 64 65  1  0
 66 80  1  0
 67 79  1  0
 68 73  1  0
 69 70  1  0
 69 68  1  0
 71 70  1  0
 71 85  1  0
 71 72  1  0
 73 67  1  0
 73 72  1  0
 74 67  2  0
 75 79  1  0
 77 80  1  0
 77 75  1  0
 78 76  1  0
 79 76  1  0
 80 78  1  0
 80 81  1  6
 82 83  2  0
 83102  1  0
 84 83  1  0
 84 87  1  0
 85 82  1  0
 85 86  1  0
 86 84  2  0
 87 88  1  0
 88 89  2  0
 90 93  1  0
 90 89  1  0
 91 90  2  0
 92 91  1  0
 92 87  2  0
 93 94  1  0
 94 95  1  0
 95 96  2  0
 97 96  1  0
 97101  1  0
 98 97  2  0
 99 94  2  0
 99 98  1  0
100 99  1  0
102103  1  0
103106  1  0
103105  1  0
104102  2  0
107108  1  0
107 82  1  0
109107  1  0
M  ISO  4  14 101  15 101  67 100  79 100
M  END
>  <TORSDO>  (66) 
F 25

>  <SCORE>  (66) 
-12.137

>  <name>  (66) 
66

>  <ligand_id>  (66) 
66

>  <original_smiles>  (66) 
[H]c1nc(C([H])([H])[N+]([H])([H])C2([H])C([H])([H])C2([H])[H])c(C([H])(C([H])([H])C([H])([H])[H])C([H])([H])[N+]2([H])C([H])([H])C([H])([H])N(C(=O)N3C([H])([H])C([H])([H])C([H])([H])C([H])(n4nc(-c5c([H])c([H])c(Oc6c([H])c([H])c(F)c([H])c6F)c([H])c5[H])c(C(=O)N([H])[H])c4N([H])[H])C3([H])[H])C([H])([H])C2([H])[H])nc1C1([H])C([H])([H])C([H])([H])[N+]1([H])C([H])(C([H])([H])[H])C([H])([H])Oc1c([H])c([H])c2c(c1[H])C([H])([H])N(C(=O)C([H])(N([H])C(=O)C([H])(N([H])C([H])([H])[H])C([H])([H])[H])C(C([H])([H])[H])(C([H])([H])[H])C([H])([H])[H])C([H])(C(=O)N([H])C1([H])c3c([H])c([H])c([H])c([H])c3C([H])([H])C([H])([H])C1([H])[H])C2([H])[H]

>  <smiles>  (66) 
[H]c1nc(C([H])([H])[N+]([H])([H])C2([H])C([H])([H])C2([H])[H])c(C([H])(C([H])([H])C([H])([H])[H])C([H])([H])[N+]2([H])C([H])([H])C([H])([H])N(C(=O)N3C([H])([H])C([H])([H])C([H])([H])C([H])(n4nc(-c5c([H])c([H])c(Oc6c([H])c([H])c(F)c([H])c6F)c([H])c5[H])c(C(=O)N([H])[H])c4N([H])[H])C3([H])[H])C([H])([H])C2([H])[H])nc1C1([H])C([H])([H])C([H])([H])[N+]1([H])C([H])(C([H])([H])[H])C([H])([H])Oc1c([H])c([H])c2c(c1[H])C([H])([H])N(C(=O)C([H])(N([H])C(=O)C([H])(N([H])C([H])([H])[H])C([H])([H])[H])C(C([H])([H])[H])(C([H])([H])[H])C([H])([H])[H])C([H])(C(=O)N([H])C1([H])c3c([H])c([H])c([H])c([H])c3C([H])([H])C([H])([H])C1([H])[H])C2([H])[H]

$$$$
67:0:0
     RDKit          3D

 94103  0  0  1  0  0  0  0  0999 V2000
  -30.0750  -22.8590   22.2870 C   0  0  0  0  0  2  0  0  0  0  0  0
  -31.0300  -20.3350   22.3200 C   0  0  0  0  0  2  0  0  0  0  0  0
  -29.5670  -20.5880   20.9340 C   0  0  0  0  0  2  0  0  0  0  0  0
  -30.5630  -21.5880   21.5410 C   0  0  0  0  0  3  0  0  0  0  0  0
  -30.5340  -19.5110   21.2070 N   0  0  2  0  0  4  0  0  0  0  0  0
  -31.2070  -19.4760   20.4570 H   0  0  0  0  0  0  0  0  0  0  0  0
  -30.7100  -14.6250   20.3480 C   0  0  0  0  0  0  0  0  0  0  0  0
  -30.3690  -12.4630   19.1770 C   0  0  0  0  0  2  0  0  0  0  0  0
  -29.4080  -12.6160   17.9800 C   0  0  0  0  0  2  0  0  0  0  0  0
  -27.9470  -12.4100   18.4310 C   0  0  0  0  0  2  0  0  0  0  0  0
  -27.5970  -13.2570   19.6770 C   0  0  0  0  0  3  0  0  0  0  0  0
  -28.6810  -13.1220   20.7780 C   0  0  0  0  0  2  0  0  0  0  0  0
  -29.9850  -13.4690   20.1910 N   0  0  0  0  0  0  0  0  0  0  0  0
  -31.8640  -14.7010   19.9190 O   0  0  0  0  0  0  0  0  0  0  0  0
  -28.7910  -17.7650   20.6420 C   0  0  0  0  0  2  0  0  0  0  0  0
  -28.7930  -16.2380   20.6170 C   0  0  0  0  0  2  0  0  0  0  0  0
  -30.9460  -16.9540   21.2590 C   0  0  0  0  0  2  0  0  0  0  0  0
  -29.9780  -18.1450   21.5090 C   0  0  0  0  0  3  0  0  0  0  0  0
  -30.1430  -15.7440   20.9220 N   0  0  0  0  0  0  0  0  0  0  0  0
  -25.2190  -13.8740   20.4260 C   0  0  0  0  0  0  0  0  0  0  0  0
  -24.1560  -13.1030   20.8140 C   0  0  0  0  0  0  0  0  0  0  0  0
  -24.6230  -11.7530   20.7860 C   0  0  0  0  0  0  0  0  0  0  0  0
  -26.2580  -12.9890   20.1850 N   0  0  0  0  0  0  0  0  0  0  0  0
  -25.9070  -11.7110   20.4620 N   0  0  0  0  0  0  0  0  0  0  0  0
  -23.9070  -10.4910   20.9940 C   0  0  0  0  0  0  0  0  0  0  0  0
  -24.3610   -9.5320   21.9270 C   0  0  0  0  0  3  0  0  0  0  0  0
  -23.6500   -8.3280   22.1150 C   0  0  0  0  0  3  0  0  0  0  0  0
  -22.4720   -8.0770   21.3720 C   0  0  0  0  0  0  0  0  0  0  0  0
  -22.0400   -9.0240   20.4270 C   0  0  0  0  0  3  0  0  0  0  0  0
  -22.7530  -10.2180   20.2350 C   0  0  0  0  0  3  0  0  0  0  0  0
  -21.7300   -6.9250   21.4710 O   0  0  0  0  0  0  0  0  0  0  0  0
  -21.6940   -6.1910   22.6280 C   0  0  0  0  0  0  0  0  0  0  0  0
  -21.2720   -6.7490   23.8540 C   0  0  0  0  0  3  0  0  0  0  0  0
  -21.1850   -5.9390   25.0030 C   0  0  0  0  0  3  0  0  0  0  0  0
  -21.5070   -4.5710   24.9280 C   0  0  0  0  0  0  0  0  0  0  0  0
  -21.9280   -4.0140   23.7070 C   0  0  0  0  0  3  0  0  0  0  0  0
  -22.0170   -4.8220   22.5610 C   0  0  0  0  0  0  0  0  0  0  0  0
  -22.4000   -4.2740   21.3820 F   0  0  0  0  0  0  0  0  0  0  0  0
  -21.4190   -3.7900   26.0300 F   0  0  0  0  0  0  0  0  0  0  0  0
  -22.7620  -13.5770   21.0980 C   0  0  0  0  0  0  0  0  0  0  0  0
  -22.0430  -12.8820   21.9720 N   0  0  0  0  0  0  0  0  0  0  0  0
  -22.3120  -14.5980   20.5770 O   0  0  0  0  0  0  0  0  0  0  0  0
  -22.4210  -12.0560   22.4130 H   0  0  0  0  0  0  0  0  0  0  0  0
  -21.1070  -13.1820   22.2070 H   0  0  0  0  0  0  0  0  0  0  0  0
  -25.3800  -15.2440   20.2350 N   0  0  0  0  0  0  0  0  0  0  0  0
  -24.6150  -15.9020   20.3350 H   0  0  0  0  0  0  0  0  0  0  0  0
  -26.2210  -15.6700   19.8680 H   0  0  0  0  0  0  0  0  0  0  0  0
  -29.8640  -24.0680   21.4280 N   0  0  0  0  0  4  0  0  0  0  0  0
  -29.2900  -23.8280   20.6350 H   0  0  0  0  0  0  0  0  0  0  0  0
  -30.7610  -24.3640   21.0740 H   0  0  0  0  0  0  0  0  0  0  0  0
  -29.2140  -25.2090   22.1470 C   0  0  0  0  0  2  0  0  0  0  0  0
  -30.5920  -27.1520   21.0870 C   0  0  0  0  0  1  0  0  0  0  0  0
  -29.2010  -26.5960   21.4210 C   0  0  0  0  0  3  0  0  0  0  0  0
  -28.4030  -26.6400   20.2230 O   0  0  0  0  0  0  0  0  0  0  0  0
  -24.6020  -31.8860   23.2350 C   0  0  0  0  0  0  0  0  0  0  0  0
  -27.2850  -27.4570   20.2020 C   0  0  0  0  0  0  0  0  0  0  0  0
  -23.4080  -30.4810   21.5820 C   0  0  0  0  0  3  0  0  0  0  0  0
  -24.8780  -28.9510   20.1610 C   0  0  0  0  0  0  0  0  0  0  0  0
  -25.9260  -30.8640   21.3870 C   0  0  0  0  0  2  0  0  0  0  0  0
  -26.0240  -29.4890   20.7590 C   0  0  0  0  0  0  0  0  0  0  0  0
  -27.2300  -28.7520   20.7780 C   0  0  0  0  0  3  0  0  0  0  0  0
  -26.1310  -26.9510   19.5660 C   0  0  0  0  0  3  0  0  0  0  0  0
  -24.9260  -27.6840   19.5560 C   0  0  0  0  0  3  0  0  0  0  0  0
  -23.6260  -29.7980   20.2030 C   0  0  0  0  0  2  0  0  0  0  0  0
  -24.6630  -31.0910   22.1290 N   0  0  0  0  0  0  0  0  0  0  0  0
  -23.5180  -32.1500   23.7740 O   0  0  0  0  0  0  0  0  0  0  0  0
  -22.7550  -29.4600   22.5420 C   0  0  0  0  0  0  0  0  0  0  0  0
  -21.4290  -29.2800   22.4140 N   0  0  0  0  0  0  0  0  0  0  0  0
  -23.4390  -28.8300   23.3530 O   0  0  0  0  0  0  0  0  0  0  0  0
  -20.9390  -29.8440   21.7350 H   0  0  0  0  0  0  0  0  0  0  0  0
  -18.0530  -28.0900   22.9060 C   0  0  0  0  0  0  0  0  0  0  0  0
  -20.6130  -28.3380   23.1770 C   0  0  0  0  0  3  0  0  0  0  0  0
  -20.7080  -26.9090   22.5910 C   0  0  0  0  0  2  0  0  0  0  0  0
  -19.6060  -26.6000   21.5730 C   0  0  0  0  0  2  0  0  0  0  0  0
  -18.2260  -26.7440   22.2200 C   0  0  0  0  0  2  0  0  0  0  0  0
  -19.1760  -28.8440   23.3400 C   0  0  0  0  0  0  0  0  0  0  0  0
  -18.9610  -30.1040   23.9410 C   0  0  0  0  0  3  0  0  0  0  0  0
  -17.6590  -30.6090   24.1100 C   0  0  0  0  0  3  0  0  0  0  0  0
  -16.5520  -29.8520   23.6930 C   0  0  0  0  0  3  0  0  0  0  0  0
  -16.7500  -28.5940   23.0960 C   0  0  0  0  0  3  0  0  0  0  0  0
  -25.8840  -32.5190   23.8610 C   0  0  0  0  0  3  0  0  0  0  0  0
  -26.4010  -31.7460   25.1350 C   0  0  1  0  0  0  0  0  0  0  0  0
  -25.3080  -31.5080   26.2030 C   0  0  0  0  0  1  0  0  0  0  0  0
  -26.9840  -30.3710   24.7360 C   0  0  0  0  0  1  0  0  0  0  0  0
  -27.5490  -32.5420   25.8010 C   0  0  0  0  0  1  0  0  0  0  0  0
  -25.5740  -33.9160   24.1900 N   0  0  0  0  0  0  0  0  0  0  0  0
  -25.9180  -34.9680   23.4350 C   0  0  0  0  0  0  0  0  0  0  0  0
  -26.5980  -34.8650   22.4110 O   0  0  0  0  0  0  0  0  0  0  0  0
  -24.9660  -34.0720   24.9810 H   0  0  0  0  0  0  0  0  0  0  0  0
  -24.1980  -36.7660   23.0590 C   0  0  0  0  0  1  0  0  0  0  0  0
  -25.4260  -36.3570   23.8880 C   0  0  0  0  0  3  0  0  0  0  0  0
  -27.5530  -37.2340   24.7510 C   0  0  0  0  0  1  0  0  0  0  0  0
  -26.4640  -37.4080   23.7930 N   0  0  0  0  0  0  0  0  0  0  0  0
  -26.0580  -38.3280   23.9360 H   0  0  0  0  0  0  0  0  0  0  0  0
  3  5  1  0
  3  4  1  0
  4  1  1  0
  4  2  1  0
  5  6  1  6
  5 18  1  0
  5  2  1  0
  7 19  1  0
  8 13  1  0
  9 10  1  0
  9  8  1  0
 11 10  1  0
 11 23  1  0
 11 12  1  0
 13  7  1  0
 13 12  1  0
 14  7  2  0
 16 15  1  0
 16 19  1  0
 17 18  1  0
 18 15  1  0
 19 17  1  0
 20 21  2  0
 21 40  1  0
 22 21  1  0
 22 25  1  0
 23 20  1  0
 23 24  1  0
 24 22  2  0
 25 26  1  0
 26 27  2  0
 28 31  1  0
 28 27  1  0
 29 28  2  0
 30 29  1  0
 30 25  2  0
 31 32  1  0
 32 33  1  0
 33 34  2  0
 35 34  1  0
 35 39  1  0
 36 35  2  0
 37 32  2  0
 37 36  1  0
 38 37  1  0
 40 41  1  0
 41 44  1  0
 41 43  1  0
 42 40  2  0
 45 46  1  0
 45 20  1  0
 47 45  1  0
 48 51  1  0
 48  1  1  0
 49 48  1  0
 50 48  1  0
 53 52  1  0
 53 51  1  0
 54 53  1  0
 55 66  2  0
 56 54  1  0
 56 61  1  0
 57 65  1  0
 57 67  1  0
 58 64  1  0
 58 60  1  0
 59 65  1  0
 60 61  2  0
 60 59  1  0
 62 56  2  0
 63 62  1  0
 63 58  2  0
 64 57  1  0
 65 55  1  0
 67 69  2  0
 68 67  1  0
 70 68  1  0
 71 80  2  0
 71 76  1  0
 72 68  1  0
 72 76  1  0
 73 72  1  0
 74 75  1  0
 74 73  1  0
 75 71  1  0
 76 77  2  0
 77 78  1  0
 79 78  2  0
 80 79  1  0
 81 55  1  0
 81 86  1  0
 81 82  1  0
 82 85  1  1
 82 83  1  0
 84 82  1  0
 86 89  1  0
 87 91  1  0
 87 86  1  0
 88 87  2  0
 91 90  1  0
 93 91  1  0
 93 94  1  0
 93 92  1  0
M  ISO  4   7 100  19 100  53 101  54 101
M  END
>  <TORSDO>  (67) 
F 20

>  <SCORE>  (67) 
-14.164

>  <name>  (67) 
67

>  <ligand_id>  (67) 
67

>  <original_smiles>  (67) 
[H]c1c([H])c([H])c2c(c1[H])C([H])([H])C([H])([H])C([H])([H])C2([H])N([H])C(=O)C1([H])N(C(=O)C([H])(N([H])C(=O)C([H])(N([H])C([H])([H])[H])C([H])([H])[H])C(C([H])([H])[H])(C([H])([H])[H])C([H])([H])[H])C([H])([H])c2c([H])c(OC([H])(C([H])([H])[H])C([H])([H])[N+]([H])([H])C([H])([H])C3([H])C([H])([H])[N+]([H])(C4([H])C([H])([H])N(C(=O)N5C([H])([H])C([H])([H])C([H])([H])C([H])(n6nc(-c7c([H])c([H])c(Oc8c([H])c([H])c(F)c([H])c8F)c([H])c7[H])c(C(=O)N([H])[H])c6N([H])[H])C5([H])[H])C([H])([H])C4([H])[H])C3([H])[H])c([H])c([H])c2C1([H])[H]

>  <smiles>  (67) 
[H]c1c([H])c([H])c2c(c1[H])C([H])([H])C([H])([H])C([H])([H])C2([H])N([H])C(=O)C1([H])N(C(=O)C([H])(N([H])C(=O)C([H])(N([H])C([H])([H])[H])C([H])([H])[H])C(C([H])([H])[H])(C([H])([H])[H])C([H])([H])[H])C([H])([H])c2c([H])c(OC([H])(C([H])([H])[H])C([H])([H])[N+]([H])([H])C([H])([H])C3([H])C([H])([H])[N+]([H])(C4([H])C([H])([H])N(C(=O)N5C([H])([H])C([H])([H])C([H])([H])C([H])(n6nc(-c7c([H])c([H])c(Oc8c([H])c([H])c(F)c([H])c8F)c([H])c7[H])c(C(=O)N([H])[H])c6N([H])[H])C5([H])[H])C([H])([H])C4([H])[H])C3([H])[H])c([H])c([H])c2C1([H])[H]

$$$$
68:0:0
     RDKit          3D

 99109  0  0  1  0  0  0  0  0999 V2000
  -32.0220  -21.7200   19.9270 C   0  0  0  0  0  3  0  0  0  0  0  0
  -31.4250  -22.4910   20.9380 C   0  0  0  0  0  0  0  0  0  0  0  0
  -30.7270  -21.7690   21.9280 C   0  0  0  0  0  0  0  0  0  0  0  0
  -31.1600  -19.8160   20.8190 C   0  0  0  0  0  0  0  0  0  0  0  0
  -31.8700  -20.3840   19.8670 N   0  0  0  0  0  0  0  0  0  0  0  0
  -30.6020  -20.4230   21.8570 N   0  0  0  0  0  0  0  0  0  0  0  0
  -30.9250  -18.4820   20.6030 N   0  0  0  0  0  0  0  0  0  0  0  0
  -31.3330  -18.1460   19.7410 H   0  0  0  0  0  0  0  0  0  0  0  0
  -30.5860  -14.4200   19.9120 C   0  0  0  0  0  0  0  0  0  0  0  0
  -29.9930  -12.4250   18.5700 C   0  0  0  0  0  2  0  0  0  0  0  0
  -28.9340  -12.7680   17.5060 C   0  0  0  0  0  2  0  0  0  0  0  0
  -27.5170  -12.6160   18.0890 C   0  0  0  0  0  2  0  0  0  0  0  0
  -27.3560  -13.3770   19.4310 C   0  0  0  0  0  3  0  0  0  0  0  0
  -28.5180  -13.0600   20.4010 C   0  0  0  0  0  2  0  0  0  0  0  0
  -29.7970  -13.3250   19.7180 N   0  0  0  0  0  0  0  0  0  0  0  0
  -31.5030  -14.7290   19.1430 O   0  0  0  0  0  0  0  0  0  0  0  0
  -31.9150  -16.7070   22.0030 C   0  0  0  0  0  2  0  0  0  0  0  0
  -31.5070  -15.2350   22.0160 C   0  0  0  0  0  2  0  0  0  0  0  0
  -29.6950  -16.3780   21.0450 C   0  0  0  0  0  2  0  0  0  0  0  0
  -30.6470  -17.4610   21.6050 C   0  0  0  0  0  3  0  0  0  0  0  0
  -30.3960  -15.0870   21.0730 N   0  0  0  0  0  0  0  0  0  0  0  0
  -25.0590  -14.0030   20.4120 C   0  0  0  0  0  0  0  0  0  0  0  0
  -24.0200  -13.2360   20.8700 C   0  0  0  0  0  0  0  0  0  0  0  0
  -24.4420  -11.8770   20.7400 C   0  0  0  0  0  0  0  0  0  0  0  0
  -26.0530  -13.1100   20.0410 N   0  0  0  0  0  0  0  0  0  0  0  0
  -25.6900  -11.8240   20.2920 N   0  0  0  0  0  0  0  0  0  0  0  0
  -23.7110  -10.6230   20.9680 C   0  0  0  0  0  0  0  0  0  0  0  0
  -24.1960   -9.6370   21.8540 C   0  0  0  0  0  3  0  0  0  0  0  0
  -23.4700   -8.4450   22.0680 C   0  0  0  0  0  3  0  0  0  0  0  0
  -22.2430   -8.2330   21.3980 C   0  0  0  0  0  0  0  0  0  0  0  0
  -21.7730   -9.2100   20.5010 C   0  0  0  0  0  3  0  0  0  0  0  0
  -22.4990  -10.3910   20.2840 C   0  0  0  0  0  3  0  0  0  0  0  0
  -21.4810   -7.0970   21.5290 O   0  0  0  0  0  0  0  0  0  0  0  0
  -21.5210   -6.3270   22.6640 C   0  0  0  0  0  0  0  0  0  0  0  0
  -21.1840   -6.8520   23.9320 C   0  0  0  0  0  3  0  0  0  0  0  0
  -21.1720   -6.0100   25.0610 C   0  0  0  0  0  3  0  0  0  0  0  0
  -21.4800   -4.6430   24.9260 C   0  0  0  0  0  0  0  0  0  0  0  0
  -21.8090   -4.1180   23.6650 C   0  0  0  0  0  3  0  0  0  0  0  0
  -21.8260   -4.9570   22.5370 C   0  0  0  0  0  0  0  0  0  0  0  0
  -22.1230   -4.4400   21.3200 F   0  0  0  0  0  0  0  0  0  0  0  0
  -21.4580   -3.8320   26.0110 F   0  0  0  0  0  0  0  0  0  0  0  0
  -22.6750  -13.7300   21.3140 C   0  0  0  0  0  0  0  0  0  0  0  0
  -22.0440  -13.0330   22.2540 N   0  0  0  0  0  0  0  0  0  0  0  0
  -22.1960  -14.7680   20.8660 O   0  0  0  0  0  0  0  0  0  0  0  0
  -22.4480  -12.1890   22.6330 H   0  0  0  0  0  0  0  0  0  0  0  0
  -21.1490  -13.3520   22.5960 H   0  0  0  0  0  0  0  0  0  0  0  0
  -25.2330  -15.3740   20.2620 N   0  0  0  0  0  0  0  0  0  0  0  0
  -24.4950  -16.0380   20.4730 H   0  0  0  0  0  0  0  0  0  0  0  0
  -26.0450  -15.8070   19.8430 H   0  0  0  0  0  0  0  0  0  0  0  0
  -30.2490  -24.8700   20.6980 C   0  0  0  0  0  2  0  0  0  0  0  0
  -32.0410  -24.8130   19.7010 C   0  0  0  0  0  2  0  0  0  0  0  0
  -31.4990  -24.0190   20.8980 C   0  0  0  0  0  3  0  0  0  0  0  0
  -31.1050  -25.8790   20.0690 N   0  0  1  0  0  4  0  0  0  0  0  0
  -31.5140  -26.4870   20.7630 H   0  0  0  0  0  0  0  0  0  0  0  0
  -30.4930  -26.6180   18.9390 C   0  0  0  0  0  2  0  0  0  0  0  0
  -29.3860  -27.5760   19.4020 C   0  0  0  0  0  2  0  0  0  0  0  0
  -28.2060  -26.8200   19.6870 O   0  0  0  0  0  0  0  0  0  0  0  0
  -24.4480  -31.8040   23.1550 C   0  0  0  0  0  0  0  0  0  0  0  0
  -27.0500  -27.5440   19.8250 C   0  0  0  0  0  0  0  0  0  0  0  0
  -23.2110  -30.4900   21.4580 C   0  0  0  0  0  3  0  0  0  0  0  0
  -24.6410  -29.0080   19.9540 C   0  0  0  0  0  0  0  0  0  0  0  0
  -25.7290  -30.8540   21.2480 C   0  0  0  0  0  2  0  0  0  0  0  0
  -25.8020  -29.5130   20.5520 C   0  0  0  0  0  0  0  0  0  0  0  0
  -27.0050  -28.7870   20.4980 C   0  0  0  0  0  3  0  0  0  0  0  0
  -25.8690  -27.0280   19.2560 C   0  0  0  0  0  3  0  0  0  0  0  0
  -24.6640  -27.7590   19.3090 C   0  0  0  0  0  3  0  0  0  0  0  0
  -23.4020  -29.8680   20.0490 C   0  0  0  0  0  2  0  0  0  0  0  0
  -24.4810  -31.0600   22.0140 N   0  0  0  0  0  0  0  0  0  0  0  0
  -23.3750  -32.0570   23.7210 O   0  0  0  0  0  0  0  0  0  0  0  0
  -22.5610  -29.4320   22.3770 C   0  0  0  0  0  0  0  0  0  0  0  0
  -21.2360  -29.2580   22.2420 N   0  0  0  0  0  0  0  0  0  0  0  0
  -23.2440  -28.7700   23.1620 O   0  0  0  0  0  0  0  0  0  0  0  0
  -20.7450  -29.8490   21.5870 H   0  0  0  0  0  0  0  0  0  0  0  0
  -17.8600  -28.0640   22.6920 C   0  0  0  0  0  0  0  0  0  0  0  0
  -20.4180  -28.2910   22.9700 C   0  0  0  0  0  3  0  0  0  0  0  0
  -20.5100  -26.8870   22.3270 C   0  0  0  0  0  2  0  0  0  0  0  0
  -19.4040  -26.6180   21.3010 C   0  0  0  0  0  2  0  0  0  0  0  0
  -18.0240  -26.7450   21.9540 C   0  0  0  0  0  2  0  0  0  0  0  0
  -18.9840  -28.7980   23.1520 C   0  0  0  0  0  0  0  0  0  0  0  0
  -18.7750  -30.0370   23.7970 C   0  0  0  0  0  3  0  0  0  0  0  0
  -17.4740  -30.5410   23.9850 C   0  0  0  0  0  3  0  0  0  0  0  0
  -16.3640  -29.8010   23.5420 C   0  0  0  0  0  3  0  0  0  0  0  0
  -16.5570  -28.5640   22.9020 C   0  0  0  0  0  3  0  0  0  0  0  0
  -25.7480  -32.3900   23.7930 C   0  0  0  0  0  3  0  0  0  0  0  0
  -26.2530  -31.5700   25.0430 C   0  0  1  0  0  0  0  0  0  0  0  0
  -25.1500  -31.2890   26.0890 C   0  0  0  0  0  1  0  0  0  0  0  0
  -26.8400  -30.2100   24.6010 C   0  0  0  0  0  1  0  0  0  0  0  0
  -27.3960  -32.3370   25.7490 C   0  0  0  0  0  1  0  0  0  0  0  0
  -25.4740  -33.7850   24.1570 N   0  0  0  0  0  0  0  0  0  0  0  0
  -25.8600  -34.8470   23.4360 C   0  0  0  0  0  0  0  0  0  0  0  0
  -26.5570  -34.7520   22.4210 O   0  0  0  0  0  0  0  0  0  0  0  0
  -24.8580  -33.9370   24.9410 H   0  0  0  0  0  0  0  0  0  0  0  0
  -24.2150  -36.7130   23.0560 C   0  0  0  0  0  1  0  0  0  0  0  0
  -25.3970  -36.2360   23.9160 C   0  0  0  0  0  3  0  0  0  0  0  0
  -27.5140  -37.0110   24.8900 C   0  0  0  0  0  1  0  0  0  0  0  0
  -26.4680  -37.2560   23.8990 N   0  0  0  0  0  0  0  0  0  0  0  0
  -26.0850  -38.1820   24.0670 H   0  0  0  0  0  0  0  0  0  0  0  0
  -28.5590  -22.8110   22.7490 C   0  0  0  0  0  1  0  0  0  0  0  0
  -30.0120  -22.4460   23.0910 C   0  0  0  0  0  2  0  0  0  0  0  0
  1  2  2  0
  2  3  1  0
  3 99  1  0
  4  6  1  0
  5  1  1  0
  5  4  2  0
  6  3  2  0
  7  4  1  0
  8  7  1  0
  9 21  1  0
 10 15  1  0
 11 12  1  0
 11 10  1  0
 13 12  1  0
 13 25  1  0
 13 14  1  0
 15  9  1  0
 15 14  1  0
 16  9  2  0
 17 18  1  0
 19 21  1  0
 19 20  1  0
 20  7  1  0
 20 17  1  0
 21 18  1  0
 22 23  2  0
 23 42  1  0
 24 23  1  0
 24 27  1  0
 25 26  1  0
 25 22  1  0
 26 24  2  0
 27 28  1  0
 28 29  2  0
 30 33  1  0
 30 29  1  0
 31 30  2  0
 32 31  1  0
 32 27  2  0
 33 34  1  0
 34 35  1  0
 35 36  2  0
 37 36  1  0
 37 41  1  0
 38 37  2  0
 39 34  2  0
 39 38  1  0
 40 39  1  0
 42 43  1  0
 43 46  1  0
 43 45  1  0
 44 42  2  0
 47 22  1  0
 47 48  1  0
 49 47  1  0
 50 52  1  0
 51 53  1  0
 51 52  1  0
 52  2  1  0
 53 50  1  0
 53 54  1  1
 55 56  1  0
 55 53  1  0
 56 57  1  0
 57 59  1  0
 58 69  2  0
 59 64  1  0
 60 68  1  0
 60 70  1  0
 61 67  1  0
 61 63  1  0
 62 68  1  0
 63 62  1  0
 64 63  2  0
 65 66  1  0
 65 59  2  0
 66 61  2  0
 67 60  1  0
 68 58  1  0
 70 72  2  0
 71 70  1  0
 73 71  1  0
 74 83  2  0
 74 79  1  0
 75 71  1  0
 75 79  1  0
 76 75  1  0
 77 78  1  0
 77 76  1  0
 78 74  1  0
 79 80  2  0
 80 81  1  0
 82 81  2  0
 83 82  1  0
 84 58  1  0
 84 89  1  0
 84 85  1  0
 85 88  1  1
 85 86  1  0
 87 85  1  0
 89 92  1  0
 90 94  1  0
 90 89  1  0
 91 90  2  0
 94 93  1  0
 96 94  1  0
 96 97  1  0
 96 95  1  0
 98 99  1  0
M  ISO  4   9 100  21 100  56 101  57 101
M  END
>  <TORSDO>  (68) 
F 20

>  <SCORE>  (68) 
-11.440

>  <name>  (68) 
68

>  <ligand_id>  (68) 
68

>  <original_smiles>  (68) 
[H]c1nc(N([H])C2([H])C([H])([H])N(C(=O)N3C([H])([H])C([H])([H])C([H])([H])C([H])(n4nc(-c5c([H])c([H])c(Oc6c([H])c([H])c(F)c([H])c6F)c([H])c5[H])c(C(=O)N([H])[H])c4N([H])[H])C3([H])[H])C([H])([H])C2([H])[H])nc(C([H])([H])C([H])([H])[H])c1C1([H])C([H])([H])[N+]([H])(C([H])([H])C([H])([H])Oc2c([H])c([H])c3c(c2[H])C([H])([H])N(C(=O)C([H])(N([H])C(=O)C([H])(N([H])C([H])([H])[H])C([H])([H])[H])C(C([H])([H])[H])(C([H])([H])[H])C([H])([H])[H])C([H])(C(=O)N([H])C2([H])c4c([H])c([H])c([H])c([H])c4C([H])([H])C([H])([H])C2([H])[H])C3([H])[H])C1([H])[H]

>  <smiles>  (68) 
[H]c1nc(N([H])C2([H])C([H])([H])N(C(=O)N3C([H])([H])C([H])([H])C([H])([H])C([H])(n4nc(-c5c([H])c([H])c(Oc6c([H])c([H])c(F)c([H])c6F)c([H])c5[H])c(C(=O)N([H])[H])c4N([H])[H])C3([H])[H])C([H])([H])C2([H])[H])nc(C([H])([H])C([H])([H])[H])c1C1([H])C([H])([H])[N+]([H])(C([H])([H])C([H])([H])Oc2c([H])c([H])c3c(c2[H])C([H])([H])N(C(=O)C([H])(N([H])C(=O)C([H])(N([H])C([H])([H])[H])C([H])([H])[H])C(C([H])([H])[H])(C([H])([H])[H])C([H])([H])[H])C([H])(C(=O)N([H])C2([H])c4c([H])c([H])c([H])c([H])c4C([H])([H])C([H])([H])C2([H])[H])C3([H])[H])C1([H])[H]

$$$$
69:0:0
     RDKit          3D

 95 97  0  0  1  0  0  0  0  0999 V2000
  -29.8430  -11.1510   21.9920 C   0  0  0  0  0  2  0  0  0  0  0  0
  -30.8350  -10.1760   20.1310 C   0  0  0  0  0  3  0  0  0  0  0  0
  -30.9660  -10.4510   21.5100 C   0  0  0  0  0  3  0  0  0  0  0  0
  -29.5520  -12.0570   19.9120 C   0  0  0  0  0  0  0  0  0  0  0  0
  -29.1630  -11.9720   21.1840 N   0  0  0  0  0  0  0  0  0  0  0  0
  -30.1740  -11.0270   19.3290 N   0  0  0  0  0  0  0  0  0  0  0  0
  -33.3310  -10.8780   21.6610 C   0  0  0  0  0  2  0  0  0  0  0  0
  -32.2810  -11.1320   23.4260 C   0  0  0  0  0  2  0  0  0  0  0  0
  -33.0640  -12.1190   22.5350 C   0  0  0  0  0  3  0  0  0  0  0  0
  -32.1560  -10.2220   22.2690 N   0  0  0  0  0  0  0  0  0  0  0  0
  -32.0890  -13.7320   20.7790 C   0  0  0  0  0  0  0  0  0  0  0  0
  -31.0170  -15.0630   18.8830 C   0  0  0  0  0  1  0  0  0  0  0  0
  -29.3140  -15.5400   17.9830 C   0  0  0  0  0 15  0  0  0  0  0  0
  -27.6150  -15.2390   18.9490 C   0  0  0  0  0  1  0  0  0  0  0  0
  -27.7220  -14.4880   20.7800 C   0  0  0  0  0  2  0  0  0  0  0  0
  -29.4940  -14.2000   21.5820 C   0  0  0  0  0  2  0  0  0  0  0  0
  -31.0010  -14.4640   20.5910 N   0  0  0  0  0  0  0  0  0  0  0  0
  -32.8950  -13.6170   19.8640 O   0  0  0  0  0  0  0  0  0  0  0  0
  -32.1870  -13.1950   22.0040 N   0  0  0  0  0  0  0  0  0  0  0  0
  -31.5050  -13.5490   22.6570 H   0  0  0  0  0  0  0  0  0  0  0  0
  -25.4400  -13.9410   21.1140 C   0  0  0  0  0  0  0  0  0  0  0  0
  -24.5220  -12.9870   21.2620 C   0  0  0  0  0  0  0  0  0  0  0  0
  -25.1410  -11.7140   21.1090 C   0  0  0  0  0  0  0  0  0  0  0  0
  -26.6410  -13.3910   20.9600 N   0  0  0  0  0  0  0  0  0  0  0  0
  -26.4810  -11.9630   20.8880 N   0  0  0  0  0  0  0  0  0  0  0  0
  -24.3830  -10.4000   21.1290 C   0  0  0  0  0  0  0  0  0  0  0  0
  -24.4950   -9.4100   22.1420 C   0  0  0  0  0  3  0  0  0  0  0  0
  -23.6390   -8.2710   22.1760 C   0  0  0  0  0  3  0  0  0  0  0  0
  -22.6240   -8.0930   21.2020 C   0  0  0  0  0  0  0  0  0  0  0  0
  -22.5100   -9.0630   20.1940 C   0  0  0  0  0  3  0  0  0  0  0  0
  -23.3680  -10.1850   20.1590 C   0  0  0  0  0  3  0  0  0  0  0  0
  -21.7810   -7.0010   21.1210 O   0  0  0  0  0  0  0  0  0  0  0  0
  -21.3130   -6.3380   22.2300 C   0  0  0  0  0  0  0  0  0  0  0  0
  -20.5090   -6.9820   23.1940 C   0  0  0  0  0  3  0  0  0  0  0  0
  -19.9920   -6.2540   24.2880 C   0  0  0  0  0  3  0  0  0  0  0  0
  -20.2670   -4.8790   24.4140 C   0  0  0  0  0  0  0  0  0  0  0  0
  -21.0510   -4.2290   23.4470 C   0  0  0  0  0  3  0  0  0  0  0  0
  -21.5660   -4.9540   22.3550 C   0  0  0  0  0  0  0  0  0  0  0  0
  -22.3000   -4.3070   21.4170 F   0  0  0  0  0  0  0  0  0  0  0  0
  -19.7740   -4.1820   25.4660 F   0  0  0  0  0  0  0  0  0  0  0  0
  -23.1040  -13.3780   21.4620 C   0  0  0  0  0  0  0  0  0  0  0  0
  -22.4060  -12.6880   22.3420 N   0  0  0  0  0  0  0  0  0  0  0  0
  -22.6580  -14.3890   20.9160 O   0  0  0  0  0  0  0  0  0  0  0  0
  -22.8060  -11.8850   22.8010 H   0  0  0  0  0  0  0  0  0  0  0  0
  -21.4510  -12.9480   22.5530 H   0  0  0  0  0  0  0  0  0  0  0  0
  -25.2810  -15.3170   21.1140 N   0  0  0  0  0  0  0  0  0  0  0  0
  -24.3550  -15.6940   21.2870 H   0  0  0  0  0  0  0  0  0  0  0  0
  -26.0040  -16.0110   21.2340 H   0  0  0  0  0  0  0  0  0  0  0  0
  -29.3190  -13.4070   19.0480 C   0  0  0  0  0  1  0  0  0  0  0  0
  -28.0970  -17.9870   19.2240 C   0  0  0  0  0  1  0  0  0  0  0  0
  -29.3630  -17.9730   20.3230 C   0  0  0  0  0  1  0  0  0  0  0  0
  -28.4140  -19.9650   20.1610 C   0  0  0  0  0 15  0  0  0  0  0  0
  -29.0070  -16.2050   19.4330 N   0  0  0  0  0  2  0  0  0  0  0  0
  -29.5980  -16.2890   18.6160 H   0  0  0  0  0  0  0  0  0  0  0  0
  -28.2920  -22.5620   20.5760 O   0  0  0  0  0 15  0  0  0  0  0  0
  -25.1450  -30.8500   23.7180 C   0  0  0  0  0  0  0  0  0  0  0  0
  -27.6010  -24.4770   20.7260 C   0  0  0  0  0  3  0  0  0  0  0  0
  -24.1860  -29.5280   21.8990 C   0  0  0  0  0  3  0  0  0  0  0  0
  -25.6840  -27.5600   20.6550 C   0  0  0  0  0  0  0  0  0  0  0  0
  -26.7370  -29.0730   22.2850 C   0  0  0  0  0  2  0  0  0  0  0  0
  -26.7920  -27.5190   21.5070 C   0  0  0  0  0  0  0  0  0  0  0  0
  -27.6760  -26.0850   21.4690 C   0  0  0  0  0  3  0  0  0  0  0  0
  -26.5150  -25.1300   19.8990 C   0  0  0  0  0  3  0  0  0  0  0  0
  -25.6750  -26.3850   19.8470 C   0  0  0  0  0  3  0  0  0  0  0  0
  -24.6180  -28.7510   20.5890 C   0  0  0  0  0  2  0  0  0  0  0  0
  -25.4070  -29.8860   22.6980 N   0  0  0  0  0  0  0  0  0  0  0  0
  -23.9890  -31.2410   23.9970 O   0  0  0  0  0  0  0  0  0  0  0  0
  -23.1750  -28.6970   22.7450 C   0  0  0  0  0  0  0  0  0  0  0  0
  -21.8600  -28.6640   22.4240 N   0  0  0  0  0  0  0  0  0  0  0  0
  -23.6110  -28.0520   23.7020 O   0  0  0  0  0  0  0  0  0  0  0  0
  -21.5410  -29.2300   21.6500 H   0  0  0  0  0  0  0  0  0  0  0  0
  -18.3570  -27.6040   22.4670 C   0  0  0  0  0  0  0  0  0  0  0  0
  -20.8790  -27.7510   23.0410 C   0  0  0  0  0  3  0  0  0  0  0  0
  -20.9820  -26.3410   22.4100 C   0  0  0  0  0  2  0  0  0  0  0  0
  -20.0110  -26.1300   21.2450 C   0  0  0  0  0  2  0  0  0  0  0  0
  -18.5670  -26.2970   21.7190 C   0  0  0  0  0  2  0  0  0  0  0  0
  -19.4420  -28.2970   23.0680 C   0  0  0  0  0  0  0  0  0  0  0  0
  -19.1840  -29.5150   23.7340 C   0  0  0  0  0  3  0  0  0  0  0  0
  -17.8790  -30.0440   23.7910 C   0  0  0  0  0  3  0  0  0  0  0  0
  -16.8090  -29.3490   23.1980 C   0  0  0  0  0  3  0  0  0  0  0  0
  -17.0480  -28.1270   22.5450 C   0  0  0  0  0  3  0  0  0  0  0  0
  -26.2350  -31.5330   24.6260 C   0  0  0  0  0  3  0  0  0  0  0  0
  -26.3570  -30.8520   26.0490 C   0  0  1  0  0  0  0  0  0  0  0  0
  -25.0220  -30.7680   26.8300 C   0  0  0  0  0  1  0  0  0  0  0  0
  -26.9030  -29.4200   25.9180 C   0  0  0  0  0  1  0  0  0  0  0  0
  -27.3720  -31.6300   26.9220 C   0  0  0  0  0  1  0  0  0  0  0  0
  -25.9210  -32.9790   24.8430 N   0  0  0  0  0  0  0  0  0  0  0  0
  -26.4700  -34.0300   24.2060 C   0  0  0  0  0  0  0  0  0  0  0  0
  -27.3080  -33.8820   23.3160 O   0  0  0  0  0  0  0  0  0  0  0  0
  -25.1910  -33.1690   25.5130 H   0  0  0  0  0  0  0  0  0  0  0  0
  -24.9700  -35.9920   23.6200 C   0  0  0  0  0  1  0  0  0  0  0  0
  -26.0330  -35.4670   24.6000 C   0  0  0  0  0  3  0  0  0  0  0  0
  -28.0740  -36.2330   25.7570 C   0  0  0  0  0  1  0  0  0  0  0  0
  -27.1500  -36.4430   24.6480 N   0  0  0  0  0  0  0  0  0  0  0  0
  -26.7940  -37.3930   24.7070 H   0  0  0  0  0  0  0  0  0  0  0  0
  3  2  1  0
  3  1  1  0
  3 10  1  0
  4  5  2  0
  5  1  1  0
  6  4  1  0
  6  2  2  0
  7  9  1  0
  9 19  1  0
  9  8  1  0
 10  7  1  0
 10  8  1  0
 11 19  1  0
 12 17  1  0
 14 53  1  0
 15 24  1  0
 15 16  1  0
 17 11  1  0
 17 16  1  0
 18 11  2  0
 19 20  1  0
 21 46  1  0
 21 22  2  0
 22 41  1  0
 23 26  1  0
 23 22  1  0
 24 21  1  0
 25 24  1  0
 25 23  2  0
 26 27  1  0
 27 28  2  0
 29 28  1  0
 30 29  2  0
 31 30  1  0
 31 26  2  0
 32 29  1  0
 32 33  1  0
 33 38  2  0
 33 34  1  0
 34 35  2  0
 35 36  1  0
 36 40  1  0
 37 36  2  0
 38 37  1  0
 39 38  1  0
 41 42  1  0
 42 45  1  0
 42 44  1  0
 43 41  2  0
 46 48  1  0
 46 47  1  0
 49  4  1  0
 50 51  1  0
 54 53  1  0
 56 67  2  0
 57 62  1  0
 58 66  1  0
 58 68  1  0
 59 61  1  0
 60 66  1  0
 61 60  1  0
 62 61  2  0
 63 57  2  0
 64 63  1  0
 64 59  2  0
 65 59  1  0
 65 58  1  0
 66 56  1  0
 68 70  2  0
 69 68  1  0
 71 69  1  0
 72 81  2  0
 72 77  1  0
 73 69  1  0
 73 77  1  0
 74 73  1  0
 75 76  1  0
 75 74  1  0
 76 72  1  0
 77 78  2  0
 78 79  1  0
 80 79  2  0
 81 80  1  0
 82 56  1  0
 82 87  1  0
 82 83  1  0
 83 84  1  1
 83 86  1  0
 85 83  1  0
 87 90  1  0
 88 92  1  0
 88 87  1  0
 89 88  2  0
 92 91  1  0
 92 94  1  0
 94 95  1  0
 94 93  1  0
M  ISO  4  11 100  19 100  52 101  55 101
M  END
>  <TORSDO>  (69) 
F 19

>  <SCORE>  (69) 
-10.024

>  <name>  (69) 
69

>  <ligand_id>  (69) 
69

>  <original_smiles>  (69) 
[H]c1nc(C([H])([H])[N+]2([H])C([H])([H])C([H])(Oc3c([H])c([H])c4c(c3[H])C([H])([H])N(C(=O)C([H])(N([H])C(=O)C([H])(N([H])C([H])([H])[H])C([H])([H])[H])C(C([H])([H])[H])(C([H])([H])[H])C([H])([H])[H])C([H])(C(=O)N([H])C3([H])c5c([H])c([H])c([H])c([H])c5C([H])([H])C([H])([H])C3([H])[H])C4([H])[H])C2([H])[H])nc([H])c1N1C([H])([H])C([H])(N([H])C(=O)N2C([H])([H])C([H])([H])C([H])([H])C([H])(n3nc(-c4c([H])c([H])c(Oc5c([H])c([H])c(F)c([H])c5F)c([H])c4[H])c(C(=O)N([H])[H])c3N([H])[H])C2([H])[H])C1([H])[H]

>  <smiles>  (69) 
[H]c1nc(C([H])([H])[N+]2([H])C([H])([H])C([H])(Oc3c([H])c([H])c4c(c3[H])C([H])([H])N(C(=O)C([H])(N([H])C(=O)C([H])(N([H])C([H])([H])[H])C([H])([H])[H])C(C([H])([H])[H])(C([H])([H])[H])C([H])([H])[H])C([H])(C(=O)N([H])C3([H])c5c([H])c([H])c([H])c([H])c5C([H])([H])C([H])([H])C3([H])[H])C4([H])[H])C2([H])[H])nc([H])c1N1C([H])([H])C([H])(N([H])C(=O)N2C([H])([H])C([H])([H])C([H])([H])C([H])(n3nc(-c4c([H])c([H])c(Oc5c([H])c([H])c(F)c([H])c5F)c([H])c4[H])c(C(=O)N([H])[H])c3N([H])[H])C2([H])[H])C1([H])[H]

$$$$
70:0:0
     RDKit          3D

 94103  0  0  1  0  0  0  0  0999 V2000
  -29.8720  -20.8720   20.0410 N   0  0  0  0  0  4  0  0  0  0  0  0
  -29.8310  -20.7740   21.0420 H   0  0  0  0  0  0  0  0  0  0  0  0
  -30.8310  -21.1090   19.8440 H   0  0  0  0  0  0  0  0  0  0  0  0
  -29.6940  -23.6530   19.4370 C   0  0  0  0  0  2  0  0  0  0  0  0
  -28.2730  -23.1550   20.7660 C   0  0  0  0  0  2  0  0  0  0  0  0
  -29.0130  -22.2040   19.6790 C   0  0  0  0  0  3  0  0  0  0  0  0
  -28.4030  -24.5110   19.8900 C   0  0  0  0  0  3  0  0  0  0  0  0
  -28.4390  -26.0220   20.4020 O   0  0  0  0  0  0  0  0  0  0  0  0
  -24.6050  -31.7030   23.3050 C   0  0  0  0  0  0  0  0  0  0  0  0
  -27.3670  -27.0120   20.3120 C   0  0  0  0  0  0  0  0  0  0  0  0
  -23.4960  -30.3200   21.5950 C   0  0  0  0  0  3  0  0  0  0  0  0
  -25.0240  -28.7760   20.2110 C   0  0  0  0  0  0  0  0  0  0  0  0
  -26.0570  -30.5980   21.5520 C   0  0  0  0  0  2  0  0  0  0  0  0
  -26.1740  -29.2120   20.8790 C   0  0  0  0  0  0  0  0  0  0  0  0
  -27.3420  -28.3490   20.9100 C   0  0  0  0  0  3  0  0  0  0  0  0
  -26.1840  -26.6970   19.6050 C   0  0  0  0  0  3  0  0  0  0  0  0
  -25.0470  -27.5340   19.5590 C   0  0  0  0  0  3  0  0  0  0  0  0
  -23.7870  -29.6660   20.2180 C   0  0  0  0  0  2  0  0  0  0  0  0
  -24.7370  -30.8970   22.2070 N   0  0  0  0  0  0  0  0  0  0  0  0
  -23.4920  -31.9680   23.7880 O   0  0  0  0  0  0  0  0  0  0  0  0
  -22.7830  -29.2930   22.5120 C   0  0  0  0  0  0  0  0  0  0  0  0
  -21.4690  -29.0930   22.3090 N   0  0  0  0  0  0  0  0  0  0  0  0
  -23.4200  -28.6790   23.3730 O   0  0  0  0  0  0  0  0  0  0  0  0
  -21.0100  -29.6410   21.5940 H   0  0  0  0  0  0  0  0  0  0  0  0
  -18.0940  -27.8070   22.6150 C   0  0  0  0  0  0  0  0  0  0  0  0
  -20.6270  -28.1300   23.0270 C   0  0  0  0  0  3  0  0  0  0  0  0
  -20.7960  -26.7060   22.4500 C   0  0  0  0  0  2  0  0  0  0  0  0
  -19.7610  -26.3640   21.3740 C   0  0  0  0  0  2  0  0  0  0  0  0
  -18.3420  -26.4690   21.9400 C   0  0  0  0  0  2  0  0  0  0  0  0
  -19.1670  -28.5940   23.1120 C   0  0  0  0  0  0  0  0  0  0  0  0
  -18.8820  -29.8440   23.7030 C   0  0  0  0  0  3  0  0  0  0  0  0
  -17.5570  -30.3080   23.8020 C   0  0  0  0  0  3  0  0  0  0  0  0
  -16.4980  -29.5190   23.3220 C   0  0  0  0  0  3  0  0  0  0  0  0
  -16.7670  -28.2700   22.7350 C   0  0  0  0  0  3  0  0  0  0  0  0
  -25.8440  -32.3460   23.9990 C   0  0  0  0  0  3  0  0  0  0  0  0
  -26.3050  -31.5640   25.2930 C   0  0  1  0  0  0  0  0  0  0  0  0
  -25.1570  -31.2800   26.2900 C   0  0  0  0  0  1  0  0  0  0  0  0
  -26.9470  -30.2090   24.9190 C   0  0  0  0  0  1  0  0  0  0  0  0
  -27.3930  -32.3770   26.0340 C   0  0  0  0  0  1  0  0  0  0  0  0
  -25.4990  -33.7360   24.3400 N   0  0  0  0  0  0  0  0  0  0  0  0
  -25.8230  -34.8080   23.6030 C   0  0  0  0  0  0  0  0  0  0  0  0
  -26.5070  -34.7310   22.5800 O   0  0  0  0  0  0  0  0  0  0  0  0
  -24.8910  -33.8680   25.1350 H   0  0  0  0  0  0  0  0  0  0  0  0
  -24.0670  -36.5790   23.2560 C   0  0  0  0  0  1  0  0  0  0  0  0
  -25.3060  -36.1820   24.0750 C   0  0  0  0  0  3  0  0  0  0  0  0
  -27.4110  -37.0990   24.9490 C   0  0  0  0  0  1  0  0  0  0  0  0
  -26.3220  -37.2550   23.9890 N   0  0  0  0  0  0  0  0  0  0  0  0
  -25.8970  -38.1660   24.1370 H   0  0  0  0  0  0  0  0  0  0  0  0
  -29.7000  -19.3820   19.4250 C   0  0  0  0  0  2  0  0  0  0  0  0
  -30.9950  -15.1740   19.4180 C   0  0  0  0  0  0  0  0  0  0  0  0
  -30.8050  -12.8220   18.3960 C   0  0  0  0  0  2  0  0  0  0  0  0
  -29.6520  -12.7130   17.3640 C   0  0  0  0  0  2  0  0  0  0  0  0
  -28.2870  -12.4720   18.0430 C   0  0  0  0  0  2  0  0  0  0  0  0
  -28.0980  -13.3490   19.3080 C   0  0  0  0  0  3  0  0  0  0  0  0
  -29.3520  -13.2610   20.2020 C   0  0  0  0  0  2  0  0  0  0  0  0
  -30.4370  -13.8700   19.4070 N   0  0  0  0  0  0  0  0  0  0  0  0
  -32.1310  -15.2310   18.9250 O   0  0  0  0  0  0  0  0  0  0  0  0
  -30.9980  -18.1040   21.3210 C   0  0  0  0  0  2  0  0  0  0  0  0
  -29.3010  -16.4640   20.8340 C   0  0  0  0  0  2  0  0  0  0  0  0
  -30.1310  -17.0270   21.9950 C   0  0  0  0  0  3  0  0  0  0  0  0
  -30.6780  -17.9880   19.8130 C   0  0  0  0  0  3  0  0  0  0  0  0
  -30.2640  -16.4150   19.7310 N   0  0  0  0  0  0  0  0  0  0  0  0
  -25.9300  -13.9260   20.5370 C   0  0  0  0  0  0  0  0  0  0  0  0
  -24.9120  -13.1520   21.0200 C   0  0  0  0  0  0  0  0  0  0  0  0
  -25.2860  -11.7990   20.7560 C   0  0  0  0  0  0  0  0  0  0  0  0
  -26.8630  -13.0440   20.0160 N   0  0  0  0  0  0  0  0  0  0  0  0
  -26.4930  -11.7520   20.2030 N   0  0  0  0  0  0  0  0  0  0  0  0
  -24.5360  -10.5510   20.9420 C   0  0  0  0  0  0  0  0  0  0  0  0
  -24.9550   -9.5700   21.8690 C   0  0  0  0  0  3  0  0  0  0  0  0
  -24.2060   -8.3880   22.0470 C   0  0  0  0  0  3  0  0  0  0  0  0
  -23.0230   -8.1770   21.2970 C   0  0  0  0  0  0  0  0  0  0  0  0
  -22.6230   -9.1460   20.3600 C   0  0  0  0  0  3  0  0  0  0  0  0
  -23.3730  -10.3200   20.1800 C   0  0  0  0  0  3  0  0  0  0  0  0
  -22.2460   -7.0480   21.3860 O   0  0  0  0  0  0  0  0  0  0  0  0
  -21.9980   -6.4370   22.5900 C   0  0  0  0  0  0  0  0  0  0  0  0
  -21.3960   -7.1280   23.6640 C   0  0  0  0  0  3  0  0  0  0  0  0
  -21.0950   -6.4440   24.8600 C   0  0  0  0  0  3  0  0  0  0  0  0
  -21.3850   -5.0710   24.9790 C   0  0  0  0  0  0  0  0  0  0  0  0
  -21.9790   -4.3810   23.9070 C   0  0  0  0  0  3  0  0  0  0  0  0
  -22.2820   -5.0630   22.7150 C   0  0  0  0  0  0  0  0  0  0  0  0
  -22.8350   -4.3890   21.6780 F   0  0  0  0  0  0  0  0  0  0  0  0
  -21.0890   -4.4130   26.1230 F   0  0  0  0  0  0  0  0  0  0  0  0
  -23.6180  -13.6460   21.6000 C   0  0  0  0  0  0  0  0  0  0  0  0
  -23.0380  -12.8970   22.5300 N   0  0  0  0  0  0  0  0  0  0  0  0
  -23.1400  -14.7290   21.2650 O   0  0  0  0  0  0  0  0  0  0  0  0
  -23.4400  -12.0180   22.8210 H   0  0  0  0  0  0  0  0  0  0  0  0
  -22.1780  -13.2070   22.9590 H   0  0  0  0  0  0  0  0  0  0  0  0
  -26.1280  -15.3030   20.4720 N   0  0  0  0  0  0  0  0  0  0  0  0
  -25.3950  -15.9500   20.7450 H   0  0  0  0  0  0  0  0  0  0  0  0
  -26.8590  -15.7410   19.9290 H   0  0  0  0  0  0  0  0  0  0  0  0
  -29.3210  -17.4940   23.1360 N   0  0  0  0  0  4  0  0  0  0  0  0
  -28.6710  -18.2140   22.8760 H   0  0  0  0  0  0  0  0  0  0  0  0
  -29.9150  -17.8520   23.8650 H   0  0  0  0  0  0  0  0  0  0  0  0
  -28.7980  -16.7320   23.5310 H   0  0  0  0  0  0  0  0  0  0  0  0
  1  2  1  0
  3  1  1  0
  4  6  1  0
  4  7  1  0
  6  1  1  0
  6  5  1  0
  7  8  1  0
  7  5  1  0
  9 20  2  0
 10  8  1  0
 10 15  1  0
 11 19  1  0
 11 21  1  0
 12 18  1  0
 12 14  1  0
 13 19  1  0
 14 15  2  0
 14 13  1  0
 16 10  2  0
 17 16  1  0
 17 12  2  0
 18 11  1  0
 19  9  1  0
 21 23  2  0
 22 21  1  0
 24 22  1  0
 25 34  2  0
 25 30  1  0
 26 22  1  0
 26 30  1  0
 27 26  1  0
 28 29  1  0
 28 27  1  0
 29 25  1  0
 30 31  2  0
 31 32  1  0
 33 32  2  0
 34 33  1  0
 35  9  1  0
 35 40  1  0
 35 36  1  0
 36 39  1  1
 36 37  1  0
 38 36  1  0
 40 43  1  0
 41 45  1  0
 41 40  1  0
 42 41  2  0
 45 44  1  0
 47 45  1  0
 47 48  1  0
 47 46  1  0
 49  1  1  0
 50 62  1  0
 51 56  1  0
 52 53  1  0
 52 51  1  0
 54 53  1  0
 54 66  1  0
 54 55  1  0
 56 50  1  0
 56 55  1  0
 57 50  2  0
 58 60  1  0
 59 60  1  0
 60 91  1  0
 61 49  1  0
 61 58  1  0
 62 61  1  0
 62 59  1  0
 63 64  2  0
 64 83  1  0
 65 68  1  0
 65 64  1  0
 66 67  1  0
 66 63  1  0
 67 65  2  0
 68 69  1  0
 69 70  2  0
 71 74  1  0
 71 70  1  0
 72 71  2  0
 73 72  1  0
 73 68  2  0
 74 75  1  0
 75 80  2  0
 75 76  1  0
 76 77  2  0
 77 78  1  0
 78 82  1  0
 79 78  2  0
 80 79  1  0
 81 80  1  0
 83 84  1  0
 84 86  1  0
 84 87  1  0
 85 83  2  0
 88 63  1  0
 88 89  1  0
 90 88  1  0
 91 94  1  0
 91 93  1  0
 92 91  1  0
M  ISO  4   7 101   8 101  50 100  62 100
M  END
>  <TORSDO>  (70) 
F 19

>  <SCORE>  (70) 
-10.614

>  <name>  (70) 
70

>  <ligand_id>  (70) 
70

>  <original_smiles>  (70) 
[H]c1c([H])c([H])c2c(c1[H])C([H])([H])C([H])([H])C([H])([H])C2([H])N([H])C(=O)C1([H])N(C(=O)C([H])(N([H])C(=O)C([H])(N([H])C([H])([H])[H])C([H])([H])[H])C(C([H])([H])[H])(C([H])([H])[H])C([H])([H])[H])C([H])([H])c2c([H])c(OC3([H])C([H])([H])C([H])([N+]([H])([H])C([H])([H])C4([H])N(C(=O)N5C([H])([H])C([H])([H])C([H])([H])C([H])(n6nc(-c7c([H])c([H])c(Oc8c([H])c([H])c(F)c([H])c8F)c([H])c7[H])c(C(=O)N([H])[H])c6N([H])[H])C5([H])[H])C([H])([H])C([H])([N+]([H])([H])[H])C4([H])[H])C3([H])[H])c([H])c([H])c2C1([H])[H]

>  <smiles>  (70) 
[H]c1c([H])c([H])c2c(c1[H])C([H])([H])C([H])([H])C([H])([H])C2([H])N([H])C(=O)C1([H])N(C(=O)C([H])(N([H])C(=O)C([H])(N([H])C([H])([H])[H])C([H])([H])[H])C(C([H])([H])[H])(C([H])([H])[H])C([H])([H])[H])C([H])([H])c2c([H])c(OC3([H])C([H])([H])C([H])([N+]([H])([H])C([H])([H])C4([H])N(C(=O)N5C([H])([H])C([H])([H])C([H])([H])C([H])(n6nc(-c7c([H])c([H])c(Oc8c([H])c([H])c(F)c([H])c8F)c([H])c7[H])c(C(=O)N([H])[H])c6N([H])[H])C5([H])[H])C([H])([H])C([H])([N+]([H])([H])[H])C4([H])[H])C3([H])[H])c([H])c([H])c2C1([H])[H]

$$$$
71:0:0
     RDKit          3D

 98108  0  0  1  0  0  0  0  0999 V2000
  -33.4000  -22.0120   19.7080 C   0  0  0  0  0  3  0  0  0  0  0  0
  -33.6960  -24.2550   20.5280 C   0  0  0  0  0  3  0  0  0  0  0  0
  -31.9970  -22.1750   19.8200 C   0  0  0  0  0  0  0  0  0  0  0  0
  -34.2680  -23.0530   20.0820 C   0  0  0  0  0  0  0  0  0  0  0  0
  -31.5280  -23.4440   20.2440 C   0  0  0  0  0  0  0  0  0  0  0  0
  -32.3650  -24.4390   20.6040 N   0  0  0  0  0  0  0  0  0  0  0  0
  -30.1540  -23.7300   20.2920 N   0  0  0  0  0  0  0  0  0  0  0  0
  -29.4880  -23.0510   19.9460 H   0  0  0  0  0  0  0  0  0  0  0  0
  -31.3740  -19.8310   18.6260 C   0  0  0  0  0  2  0  0  0  0  0  0
  -31.0460  -21.0320   19.4870 C   0  0  0  0  0  3  0  0  0  0  0  0
  -31.4690  -19.7630   20.0770 N   0  0  1  0  0  4  0  0  0  0  0  0
  -32.4190  -19.7250   20.4090 H   0  0  0  0  0  0  0  0  0  0  0  0
  -30.4630  -18.9440   20.8010 C   0  0  0  0  0  2  0  0  0  0  0  0
  -30.7400  -14.4620   20.2130 C   0  0  0  0  0  0  0  0  0  0  0  0
  -30.3420  -12.3830   18.9640 C   0  0  0  0  0  2  0  0  0  0  0  0
  -29.3630  -12.6750   17.8110 C   0  0  0  0  0  2  0  0  0  0  0  0
  -27.9030  -12.5520   18.2890 C   0  0  0  0  0  2  0  0  0  0  0  0
  -27.6280  -13.3280   19.6040 C   0  0  0  0  0  3  0  0  0  0  0  0
  -28.7170  -13.0290   20.6580 C   0  0  0  0  0  2  0  0  0  0  0  0
  -30.0290  -13.3180   20.0540 N   0  0  0  0  0  0  0  0  0  0  0  0
  -31.8440  -14.6540   19.6970 O   0  0  0  0  0  0  0  0  0  0  0  0
  -29.4900  -16.5660   20.1310 C   0  0  0  0  0  2  0  0  0  0  0  0
  -30.7870  -16.4470   21.7230 C   0  0  0  0  0  2  0  0  0  0  0  0
  -30.6650  -17.4400   20.5650 C   0  0  0  0  0  3  0  0  0  0  0  0
  -30.1020  -15.4540   20.8760 N   0  0  0  0  0  0  0  0  0  0  0  0
  -25.2460  -13.9330   20.3720 C   0  0  0  0  0  0  0  0  0  0  0  0
  -24.1890  -13.1600   20.7750 C   0  0  0  0  0  0  0  0  0  0  0  0
  -24.6530  -11.8090   20.7380 C   0  0  0  0  0  0  0  0  0  0  0  0
  -26.2870  -13.0530   20.1180 N   0  0  0  0  0  0  0  0  0  0  0  0
  -25.9340  -11.7710   20.3930 N   0  0  0  0  0  0  0  0  0  0  0  0
  -23.9350  -10.5460   20.9520 C   0  0  0  0  0  0  0  0  0  0  0  0
  -24.3860   -9.5880   21.8850 C   0  0  0  0  0  3  0  0  0  0  0  0
  -23.6680   -8.3900   22.0860 C   0  0  0  0  0  3  0  0  0  0  0  0
  -22.4830   -8.1410   21.3510 C   0  0  0  0  0  0  0  0  0  0  0  0
  -22.0520   -9.0880   20.4060 C   0  0  0  0  0  3  0  0  0  0  0  0
  -22.7710  -10.2780   20.2040 C   0  0  0  0  0  3  0  0  0  0  0  0
  -21.7350   -6.9930   21.4600 O   0  0  0  0  0  0  0  0  0  0  0  0
  -21.7020   -6.2640   22.6210 C   0  0  0  0  0  0  0  0  0  0  0  0
  -21.2730   -6.8270   23.8420 C   0  0  0  0  0  3  0  0  0  0  0  0
  -21.1860   -6.0230   24.9960 C   0  0  0  0  0  3  0  0  0  0  0  0
  -21.5200   -4.6570   24.9300 C   0  0  0  0  0  0  0  0  0  0  0  0
  -21.9460   -4.0940   23.7140 C   0  0  0  0  0  3  0  0  0  0  0  0
  -22.0330   -4.8960   22.5620 C   0  0  0  0  0  0  0  0  0  0  0  0
  -22.4230   -4.3430   21.3880 F   0  0  0  0  0  0  0  0  0  0  0  0
  -21.4310   -3.8820   26.0380 F   0  0  0  0  0  0  0  0  0  0  0  0
  -22.7990  -13.6350   21.0840 C   0  0  0  0  0  0  0  0  0  0  0  0
  -22.0940  -12.9420   21.9700 N   0  0  0  0  0  0  0  0  0  0  0  0
  -22.3470  -14.6620   20.5770 O   0  0  0  0  0  0  0  0  0  0  0  0
  -22.4690  -12.1110   22.4040 H   0  0  0  0  0  0  0  0  0  0  0  0
  -21.1620  -13.2470   22.2160 H   0  0  0  0  0  0  0  0  0  0  0  0
  -25.4000  -15.3040   20.1890 N   0  0  0  0  0  0  0  0  0  0  0  0
  -24.6370  -15.9590   20.3270 H   0  0  0  0  0  0  0  0  0  0  0  0
  -26.2430  -15.7460   19.8470 H   0  0  0  0  0  0  0  0  0  0  0  0
  -36.6280  -23.7070   20.9200 C   0  0  0  0  0  1  0  0  0  0  0  0
  -35.7770  -22.8520   19.9680 C   0  0  0  0  0  2  0  0  0  0  0  0
  -29.6720  -25.1010   20.4740 C   0  0  0  0  0  2  0  0  0  0  0  0
  -28.4510  -25.4400   19.6010 C   0  0  0  0  0  2  0  0  0  0  0  0
  -28.3710  -26.8610   19.6250 O   0  0  0  0  0  0  0  0  0  0  0  0
  -24.4380  -31.6720   22.9980 C   0  0  0  0  0  0  0  0  0  0  0  0
  -27.1430  -27.4750   19.6730 C   0  0  0  0  0  0  0  0  0  0  0  0
  -23.2320  -30.3100   21.3190 C   0  0  0  0  0  3  0  0  0  0  0  0
  -24.6960  -28.8760   19.8010 C   0  0  0  0  0  0  0  0  0  0  0  0
  -25.7350  -30.7610   21.0800 C   0  0  0  0  0  2  0  0  0  0  0  0
  -25.8460  -29.4210   20.3840 C   0  0  0  0  0  0  0  0  0  0  0  0
  -27.0690  -28.7270   20.3170 C   0  0  0  0  0  3  0  0  0  0  0  0
  -25.9790  -26.9310   19.0870 C   0  0  0  0  0  3  0  0  0  0  0  0
  -24.7550  -27.6280   19.1540 C   0  0  0  0  0  3  0  0  0  0  0  0
  -23.4290  -29.6930   19.9060 C   0  0  0  0  0  2  0  0  0  0  0  0
  -24.4870  -30.9260   21.8590 N   0  0  0  0  0  0  0  0  0  0  0  0
  -23.3640  -31.8890   23.5760 O   0  0  0  0  0  0  0  0  0  0  0  0
  -22.6330  -29.2320   22.2470 C   0  0  0  0  0  0  0  0  0  0  0  0
  -21.3090  -29.0280   22.1510 N   0  0  0  0  0  0  0  0  0  0  0  0
  -23.3540  -28.5820   23.0080 O   0  0  0  0  0  0  0  0  0  0  0  0
  -20.7840  -29.6080   21.5110 H   0  0  0  0  0  0  0  0  0  0  0  0
  -17.9760  -27.7520   22.6960 C   0  0  0  0  0  0  0  0  0  0  0  0
  -20.5360  -28.0360   22.8980 C   0  0  0  0  0  3  0  0  0  0  0  0
  -20.6410  -26.6400   22.2420 C   0  0  0  0  0  2  0  0  0  0  0  0
  -19.5100  -26.3540   21.2480 C   0  0  0  0  0  2  0  0  0  0  0  0
  -18.1500  -26.4430   21.9440 C   0  0  0  0  0  2  0  0  0  0  0  0
  -19.0980  -28.5070   23.1300 C   0  0  0  0  0  0  0  0  0  0  0  0
  -18.8830  -29.7360   23.7930 C   0  0  0  0  0  3  0  0  0  0  0  0
  -17.5790  -30.2090   24.0270 C   0  0  0  0  0  3  0  0  0  0  0  0
  -16.4720  -29.4490   23.6100 C   0  0  0  0  0  3  0  0  0  0  0  0
  -16.6710  -28.2240   22.9500 C   0  0  0  0  0  3  0  0  0  0  0  0
  -25.7230  -32.3110   23.6150 C   0  0  0  0  0  3  0  0  0  0  0  0
  -25.3810  -33.6780   24.0290 N   0  0  0  0  0  0  0  0  0  0  0  0
  -25.6800  -34.7810   23.3300 C   0  0  0  0  0  0  0  0  0  0  0  0
  -26.3450  -34.7570   22.2910 O   0  0  0  0  0  0  0  0  0  0  0  0
  -24.7880  -33.7690   24.8410 H   0  0  0  0  0  0  0  0  0  0  0  0
  -23.9090  -36.5490   23.0820 C   0  0  0  0  0  1  0  0  0  0  0  0
  -25.1580  -36.1260   23.8700 C   0  0  0  0  0  3  0  0  0  0  0  0
  -27.2660  -37.0140   24.7640 C   0  0  0  0  0  1  0  0  0  0  0  0
  -26.1650  -37.2080   23.8250 N   0  0  0  0  0  0  0  0  0  0  0  0
  -25.7350  -38.1080   24.0240 H   0  0  0  0  0  0  0  0  0  0  0  0
  -26.3040  -31.4880   24.8300 C   0  0  1  0  0  0  0  0  0  0  0  0
  -25.2550  -31.1590   25.9150 C   0  0  0  0  0  1  0  0  0  0  0  0
  -26.9180  -30.1550   24.3420 C   0  0  0  0  0  1  0  0  0  0  0  0
  -27.4500  -32.2820   25.5020 C   0  0  0  0  0  1  0  0  0  0  0  0
  1  3  2  0
  1  4  1  0
  2  6  1  0
  3  5  1  0
  4  2  2  0
  5  7  1  0
  5  6  2  0
  7 56  1  0
  8  7  1  0
  9 10  1  0
  9 11  1  0
 10  3  1  0
 10 11  1  0
 11 12  1  6
 11 13  1  0
 14 25  1  0
 15 20  1  0
 16 17  1  0
 16 15  1  0
 18 17  1  0
 18 29  1  0
 18 19  1  0
 20 14  1  0
 20 19  1  0
 21 14  2  0
 22 24  1  0
 22 25  1  0
 24 13  1  0
 24 23  1  0
 25 23  1  0
 26 27  2  0
 27 46  1  0
 28 27  1  0
 28 31  1  0
 29 26  1  0
 29 30  1  0
 30 28  2  0
 31 32  1  0
 32 33  2  0
 34 37  1  0
 34 33  1  0
 35 34  2  0
 36 35  1  0
 36 31  2  0
 37 38  1  0
 38 39  1  0
 39 40  2  0
 41 40  1  0
 41 45  1  0
 42 41  2  0
 43 38  2  0
 43 42  1  0
 44 43  1  0
 46 47  1  0
 47 50  1  0
 47 49  1  0
 48 46  2  0
 51 52  1  0
 51 26  1  0
 53 51  1  0
 55  4  1  0
 55 54  1  0
 57 58  1  0
 57 56  1  0
 58 60  1  0
 59 70  2  0
 60 65  1  0
 61 69  1  0
 61 71  1  0
 62 68  1  0
 62 64  1  0
 63 69  1  0
 64 63  1  0
 65 64  2  0
 66 67  1  0
 66 60  2  0
 67 62  2  0
 68 61  1  0
 69 59  1  0
 71 73  2  0
 72 71  1  0
 74 72  1  0
 75 84  2  0
 75 80  1  0
 76 72  1  0
 76 80  1  0
 77 76  1  0
 78 79  1  0
 78 77  1  0
 79 75  1  0
 80 81  2  0
 81 82  1  0
 83 82  2  0
 84 83  1  0
 85 59  1  0
 85 86  1  0
 85 95  1  0
 86 89  1  0
 87 91  1  0
 87 86  1  0
 88 87  2  0
 91 90  1  0
 93 91  1  0
 93 94  1  0
 93 92  1  0
 95 98  1  1
 95 96  1  0
 97 95  1  0
M  ISO  4  14 100  25 100  57 101  58 101
M  END
>  <TORSDO>  (71) 
F 21

>  <SCORE>  (71) 
-12.539

>  <name>  (71) 
71

>  <ligand_id>  (71) 
71

>  <original_smiles>  (71) 
[H]c1nc(N([H])C([H])([H])C([H])([H])Oc2c([H])c([H])c3c(c2[H])C([H])([H])N(C(=O)C([H])(N([H])C(=O)C([H])(N([H])C([H])([H])[H])C([H])([H])[H])C(C([H])([H])[H])(C([H])([H])[H])C([H])([H])[H])C([H])(C(=O)N([H])C2([H])c4c([H])c([H])c([H])c([H])c4C([H])([H])C([H])([H])C2([H])[H])C3([H])[H])c(C2([H])C([H])([H])[N+]2([H])C([H])([H])C2([H])C([H])([H])N(C(=O)N3C([H])([H])C([H])([H])C([H])([H])C([H])(n4nc(-c5c([H])c([H])c(Oc6c([H])c([H])c(F)c([H])c6F)c([H])c5[H])c(C(=O)N([H])[H])c4N([H])[H])C3([H])[H])C2([H])[H])c([H])c1C([H])([H])C([H])([H])[H]

>  <smiles>  (71) 
[H]c1nc(N([H])C([H])([H])C([H])([H])Oc2c([H])c([H])c3c(c2[H])C([H])([H])N(C(=O)C([H])(N([H])C(=O)C([H])(N([H])C([H])([H])[H])C([H])([H])[H])C(C([H])([H])[H])(C([H])([H])[H])C([H])([H])[H])C([H])(C(=O)N([H])C2([H])c4c([H])c([H])c([H])c([H])c4C([H])([H])C([H])([H])C2([H])[H])C3([H])[H])c(C2([H])C([H])([H])[N+]2([H])C([H])([H])C2([H])C([H])([H])N(C(=O)N3C([H])([H])C([H])([H])C([H])([H])C([H])(n4nc(-c5c([H])c([H])c(Oc6c([H])c([H])c(F)c([H])c6F)c([H])c5[H])c(C(=O)N([H])[H])c4N([H])[H])C3([H])[H])C2([H])[H])c([H])c1C([H])([H])C([H])([H])[H]

$$$$
72:0:0
     RDKit          3D

 92101  0  0  1  0  0  0  0  0999 V2000
  -29.1610  -23.2310   20.4480 C   0  0  0  0  0  2  0  0  0  0  0  0
  -28.3110  -21.9210   18.6450 C   0  0  0  0  0  2  0  0  0  0  0  0
  -29.3330  -21.8060   19.7940 C   0  0  0  0  0  3  0  0  0  0  0  0
  -29.0640  -24.1570   19.1910 C   0  0  0  0  0  3  0  0  0  0  0  0
  -28.6230  -23.5440   16.8050 C   0  0  0  0  0  1  0  0  0  0  0  0
  -28.2550  -23.3520   18.2300 N   0  0  1  0  0  4  0  0  0  0  0  0
  -27.2870  -23.6220   18.3270 H   0  0  0  0  0  0  0  0  0  0  0  0
  -30.2870  -20.5480   21.6170 C   0  0  0  0  0  1  0  0  0  0  0  0
  -29.2150  -20.5580   20.6250 N   0  0  0  0  0  0  0  0  0  0  0  0
  -29.2030  -19.2940   19.8050 C   0  0  0  0  0  2  0  0  0  0  0  0
  -30.6590  -14.6770   20.1720 C   0  0  0  0  0  0  0  0  0  0  0  0
  -30.3800  -12.4570   19.1150 C   0  0  0  0  0  2  0  0  0  0  0  0
  -29.4150  -12.6070   17.9200 C   0  0  0  0  0  2  0  0  0  0  0  0
  -27.9520  -12.4600   18.3860 C   0  0  0  0  0  2  0  0  0  0  0  0
  -27.6270  -13.3150   19.6420 C   0  0  0  0  0  3  0  0  0  0  0  0
  -28.7120  -13.1710   20.7300 C   0  0  0  0  0  2  0  0  0  0  0  0
  -30.0000  -13.4830   20.1040 N   0  0  0  0  0  0  0  0  0  0  0  0
  -31.8540  -14.7510   19.8720 O   0  0  0  0  0  0  0  0  0  0  0  0
  -30.1960  -16.9310   19.1140 C   0  0  0  0  0  2  0  0  0  0  0  0
  -29.2040  -16.7210   20.9430 C   0  0  0  0  0  2  0  0  0  0  0  0
  -29.8950  -17.9310   20.2480 C   0  0  0  0  0  3  0  0  0  0  0  0
  -29.8750  -15.7940   19.9970 N   0  0  0  0  0  0  0  0  0  0  0  0
  -25.2530  -13.9070   20.4210 C   0  0  0  0  0  0  0  0  0  0  0  0
  -24.1950  -13.1340   20.8140 C   0  0  0  0  0  0  0  0  0  0  0  0
  -24.6590  -11.7830   20.7710 C   0  0  0  0  0  0  0  0  0  0  0  0
  -26.2920  -13.0290   20.1600 N   0  0  0  0  0  0  0  0  0  0  0  0
  -25.9420  -11.7460   20.4330 N   0  0  0  0  0  0  0  0  0  0  0  0
  -23.9380  -10.5190   20.9760 C   0  0  0  0  0  0  0  0  0  0  0  0
  -24.3860   -9.5540   21.9050 C   0  0  0  0  0  3  0  0  0  0  0  0
  -23.6650   -8.3560   22.0960 C   0  0  0  0  0  3  0  0  0  0  0  0
  -22.4820   -8.1140   21.3590 C   0  0  0  0  0  0  0  0  0  0  0  0
  -22.0530   -9.0680   20.4190 C   0  0  0  0  0  3  0  0  0  0  0  0
  -22.7750  -10.2570   20.2250 C   0  0  0  0  0  3  0  0  0  0  0  0
  -21.7300   -6.9680   21.4600 O   0  0  0  0  0  0  0  0  0  0  0  0
  -21.6950   -6.2290   22.6160 C   0  0  0  0  0  0  0  0  0  0  0  0
  -21.2710   -6.7860   23.8430 C   0  0  0  0  0  3  0  0  0  0  0  0
  -21.1830   -5.9740   24.9910 C   0  0  0  0  0  3  0  0  0  0  0  0
  -21.5100   -4.6080   24.9150 C   0  0  0  0  0  0  0  0  0  0  0  0
  -21.9270   -4.0510   23.6930 C   0  0  0  0  0  3  0  0  0  0  0  0
  -22.0170   -4.8590   22.5460 C   0  0  0  0  0  0  0  0  0  0  0  0
  -22.3990   -4.3130   21.3670 F   0  0  0  0  0  0  0  0  0  0  0  0
  -21.4200   -3.8260   26.0160 F   0  0  0  0  0  0  0  0  0  0  0  0
  -22.8040  -13.6100   21.1160 C   0  0  0  0  0  0  0  0  0  0  0  0
  -22.0930  -12.9110   21.9970 N   0  0  0  0  0  0  0  0  0  0  0  0
  -22.3550  -14.6350   20.6080 O   0  0  0  0  0  0  0  0  0  0  0  0
  -22.4710  -12.0840   22.4320 H   0  0  0  0  0  0  0  0  0  0  0  0
  -21.1600  -13.2140   22.2400 H   0  0  0  0  0  0  0  0  0  0  0  0
  -25.4130  -15.2780   20.2400 N   0  0  0  0  0  0  0  0  0  0  0  0
  -24.6490  -15.9320   20.3650 H   0  0  0  0  0  0  0  0  0  0  0  0
  -26.2560  -15.7110   19.8850 H   0  0  0  0  0  0  0  0  0  0  0  0
  -28.7430  -25.7300   19.1480 C   0  0  0  0  0  2  0  0  0  0  0  0
  -28.4040  -26.5890   20.2750 O   0  0  0  0  0  0  0  0  0  0  0  0
  -24.6060  -31.8970   23.2860 C   0  0  0  0  0  0  0  0  0  0  0  0
  -27.2660  -27.3990   20.2090 C   0  0  0  0  0  0  0  0  0  0  0  0
  -23.4140  -30.4980   21.6340 C   0  0  0  0  0  3  0  0  0  0  0  0
  -24.8790  -28.9650   20.2070 C   0  0  0  0  0  0  0  0  0  0  0  0
  -25.9500  -30.8390   21.4620 C   0  0  0  0  0  2  0  0  0  0  0  0
  -26.0390  -29.4670   20.8110 C   0  0  0  0  0  0  0  0  0  0  0  0
  -27.2310  -28.6900   20.8130 C   0  0  0  0  0  3  0  0  0  0  0  0
  -26.0740  -26.9290   19.6090 C   0  0  0  0  0  3  0  0  0  0  0  0
  -24.8960  -27.6980   19.6030 C   0  0  0  0  0  3  0  0  0  0  0  0
  -23.6360  -29.8280   20.2530 C   0  0  0  0  0  2  0  0  0  0  0  0
  -24.6750  -31.0950   22.1840 N   0  0  0  0  0  0  0  0  0  0  0  0
  -23.5200  -32.1680   23.8180 O   0  0  0  0  0  0  0  0  0  0  0  0
  -22.7550  -29.4740   22.5880 C   0  0  0  0  0  0  0  0  0  0  0  0
  -21.4310  -29.2890   22.4530 N   0  0  0  0  0  0  0  0  0  0  0  0
  -23.4340  -28.8480   23.4060 O   0  0  0  0  0  0  0  0  0  0  0  0
  -20.9430  -29.8460   21.7660 H   0  0  0  0  0  0  0  0  0  0  0  0
  -18.0550  -28.0870   22.9370 C   0  0  0  0  0  0  0  0  0  0  0  0
  -20.6120  -28.3470   23.2170 C   0  0  0  0  0  3  0  0  0  0  0  0
  -20.7170  -26.9190   22.6340 C   0  0  0  0  0  2  0  0  0  0  0  0
  -19.6190  -26.6010   21.6150 C   0  0  0  0  0  2  0  0  0  0  0  0
  -18.2350  -26.7410   22.2550 C   0  0  0  0  0  2  0  0  0  0  0  0
  -19.1720  -28.8470   23.3730 C   0  0  0  0  0  0  0  0  0  0  0  0
  -18.9510  -30.1080   23.9700 C   0  0  0  0  0  3  0  0  0  0  0  0
  -17.6450  -30.6080   24.1340 C   0  0  0  0  0  3  0  0  0  0  0  0
  -16.5430  -29.8440   23.7140 C   0  0  0  0  0  3  0  0  0  0  0  0
  -16.7490  -28.5860   23.1210 C   0  0  0  0  0  3  0  0  0  0  0  0
  -25.8860  -32.5320   23.9150 C   0  0  0  0  0  3  0  0  0  0  0  0
  -26.3840  -31.7760   25.2070 C   0  0  1  0  0  0  0  0  0  0  0  0
  -25.2780  -31.5560   26.2640 C   0  0  0  0  0  1  0  0  0  0  0  0
  -26.9700  -30.3910   24.8410 C   0  0  0  0  0  1  0  0  0  0  0  0
  -27.5290  -32.5760   25.8720 C   0  0  0  0  0  1  0  0  0  0  0  0
  -25.5770  -33.9350   24.2230 N   0  0  0  0  0  0  0  0  0  0  0  0
  -25.9190  -34.9770   23.4530 C   0  0  0  0  0  0  0  0  0  0  0  0
  -26.5980  -34.8580   22.4300 O   0  0  0  0  0  0  0  0  0  0  0  0
  -24.9780  -34.1020   25.0180 H   0  0  0  0  0  0  0  0  0  0  0  0
  -24.2010  -36.7710   23.0570 C   0  0  0  0  0  1  0  0  0  0  0  0
  -25.4320  -36.3730   23.8870 C   0  0  0  0  0  3  0  0  0  0  0  0
  -27.5580  -37.2620   24.7340 C   0  0  0  0  0  1  0  0  0  0  0  0
  -26.4690  -37.4210   23.7730 N   0  0  0  0  0  0  0  0  0  0  0  0
  -26.0630  -38.3440   23.9040 H   0  0  0  0  0  0  0  0  0  0  0  0
  2  3  1  0
  3  1  1  0
  3  9  1  0
  4 51  1  0
  4  1  1  0
  5  6  1  0
  6  7  1  6
  6  2  1  0
  6  4  1  0
  9  8  1  0
 10  9  1  0
 12 17  1  0
 13 14  1  0
 13 12  1  0
 15 14  1  0
 15 26  1  0
 15 16  1  0
 17 11  1  0
 17 16  1  0
 18 11  2  0
 19 22  1  0
 19 21  1  0
 21 10  1  0
 21 20  1  0
 22 11  1  0
 22 20  1  0
 23 24  2  0
 24 43  1  0
 25 24  1  0
 25 28  1  0
 26 23  1  0
 26 27  1  0
 27 25  2  0
 28 29  1  0
 29 30  2  0
 31 34  1  0
 31 30  1  0
 32 31  2  0
 33 32  1  0
 33 28  2  0
 34 35  1  0
 35 36  1  0
 36 37  2  0
 38 37  1  0
 38 42  1  0
 39 38  2  0
 40 35  2  0
 40 39  1  0
 41 40  1  0
 43 44  1  0
 44 47  1  0
 44 46  1  0
 45 43  2  0
 48 49  1  0
 48 23  1  0
 50 48  1  0
 51 52  1  0
 53 64  2  0
 54 52  1  0
 54 59  1  0
 55 63  1  0
 55 65  1  0
 56 62  1  0
 56 58  1  0
 57 63  1  0
 58 59  2  0
 58 57  1  0
 60 54  2  0
 61 60  1  0
 61 56  2  0
 62 55  1  0
 63 53  1  0
 65 67  2  0
 66 65  1  0
 68 66  1  0
 69 78  2  0
 69 74  1  0
 70 66  1  0
 70 74  1  0
 71 70  1  0
 72 73  1  0
 72 71  1  0
 73 69  1  0
 74 75  2  0
 75 76  1  0
 77 76  2  0
 78 77  1  0
 79 53  1  0
 79 84  1  0
 79 80  1  0
 80 83  1  1
 80 81  1  0
 82 80  1  0
 84 87  1  0
 85 89  1  0
 85 84  1  0
 86 85  2  0
 89 88  1  0
 91 89  1  0
 91 92  1  0
 91 90  1  0
M  ISO  4  11 100  22 100  51 101  52 101
M  END
>  <TORSDO>  (72) 
F 19

>  <SCORE>  (72) 
-14.210

>  <name>  (72) 
72

>  <ligand_id>  (72) 
72

>  <original_smiles>  (72) 
[H]c1c([H])c([H])c2c(c1[H])C([H])([H])C([H])([H])C([H])([H])C2([H])N([H])C(=O)C1([H])N(C(=O)C([H])(N([H])C(=O)C([H])(N([H])C([H])([H])[H])C([H])([H])[H])C(C([H])([H])[H])(C([H])([H])[H])C([H])([H])[H])C([H])([H])c2c([H])c(OC([H])([H])C3([H])C([H])([H])C([H])(N(C([H])([H])[H])C([H])([H])C4([H])C([H])([H])N(C(=O)N5C([H])([H])C([H])([H])C([H])([H])C([H])(n6nc(-c7c([H])c([H])c(Oc8c([H])c([H])c(F)c([H])c8F)c([H])c7[H])c(C(=O)N([H])[H])c6N([H])[H])C5([H])[H])C4([H])[H])C([H])([H])[N+]3([H])C([H])([H])[H])c([H])c([H])c2C1([H])[H]

>  <smiles>  (72) 
[H]c1c([H])c([H])c2c(c1[H])C([H])([H])C([H])([H])C([H])([H])C2([H])N([H])C(=O)C1([H])N(C(=O)C([H])(N([H])C(=O)C([H])(N([H])C([H])([H])[H])C([H])([H])[H])C(C([H])([H])[H])(C([H])([H])[H])C([H])([H])[H])C([H])([H])c2c([H])c(OC([H])([H])C3([H])C([H])([H])C([H])(N(C([H])([H])[H])C([H])([H])C4([H])C([H])([H])N(C(=O)N5C([H])([H])C([H])([H])C([H])([H])C([H])(n6nc(-c7c([H])c([H])c(Oc8c([H])c([H])c(F)c([H])c8F)c([H])c7[H])c(C(=O)N([H])[H])c6N([H])[H])C5([H])[H])C4([H])[H])C([H])([H])[N+]3([H])C([H])([H])[H])c([H])c([H])c2C1([H])[H]

$$$$
73:0:0
     RDKit          3D

 95104  0  0  1  0  0  0  0  0999 V2000
  -30.7710  -22.3690   18.7670 C   0  0  0  0  0  2  0  0  0  0  0  0
  -31.4340  -19.3920   17.2070 C   0  0  0  0  0  0  0  0  0  0  0  0
  -32.0460  -20.7780   17.2300 C   0  0  0  0  0  2  0  0  0  0  0  0
  -31.4500  -19.9750   19.4560 C   0  0  0  0  0  2  0  0  0  0  0  0
  -31.8380  -21.2550   18.6810 C   0  0  0  0  0  3  0  0  0  0  0  0
  -31.1100  -18.9850   18.4440 N   0  0  0  0  0  0  0  0  0  0  0  0
  -31.2900  -18.7520   16.1630 O   0  0  0  0  0  0  0  0  0  0  0  0
  -30.8010  -14.5270   20.2740 C   0  0  0  0  0  0  0  0  0  0  0  0
  -30.3110  -12.3420   19.2760 C   0  0  0  0  0  2  0  0  0  0  0  0
  -29.3710  -12.4920   18.0670 C   0  0  0  0  0  2  0  0  0  0  0  0
  -27.9110  -12.3390   18.5310 C   0  0  0  0  0  2  0  0  0  0  0  0
  -27.5660  -13.2360   19.7480 C   0  0  0  0  0  3  0  0  0  0  0  0
  -28.6720  -13.2210   20.8410 C   0  0  0  0  0  2  0  0  0  0  0  0
  -29.9780  -13.4400   20.1970 N   0  0  0  0  0  0  0  0  0  0  0  0
  -32.0120  -14.4080   20.0970 O   0  0  0  0  0  0  0  0  0  0  0  0
  -29.1090  -17.6160   19.1370 C   0  0  0  0  0  2  0  0  0  0  0  0
  -28.9890  -16.1990   19.7070 C   0  0  0  0  0  2  0  0  0  0  0  0
  -31.1910  -16.9600   20.0030 C   0  0  0  0  0  2  0  0  0  0  0  0
  -30.5830  -17.6560   18.7820 C   0  0  0  0  0  3  0  0  0  0  0  0
  -30.2950  -15.8010   20.2430 N   0  0  0  0  0  0  0  0  0  0  0  0
  -25.2110  -13.8690   20.5340 C   0  0  0  0  0  0  0  0  0  0  0  0
  -24.1440  -13.1000   20.9080 C   0  0  0  0  0  0  0  0  0  0  0  0
  -24.5980  -11.7450   20.8650 C   0  0  0  0  0  0  0  0  0  0  0  0
  -26.2420  -12.9720   20.2810 N   0  0  0  0  0  0  0  0  0  0  0  0
  -25.8830  -11.6960   20.5490 N   0  0  0  0  0  0  0  0  0  0  0  0
  -23.8680  -10.4870   21.0490 C   0  0  0  0  0  0  0  0  0  0  0  0
  -24.2980   -9.5170   21.9780 C   0  0  0  0  0  3  0  0  0  0  0  0
  -23.5690   -8.3220   22.1480 C   0  0  0  0  0  3  0  0  0  0  0  0
  -22.3980   -8.0910   21.3880 C   0  0  0  0  0  0  0  0  0  0  0  0
  -21.9900   -9.0510   20.4440 C   0  0  0  0  0  3  0  0  0  0  0  0
  -22.7200  -10.2390   20.2730 C   0  0  0  0  0  3  0  0  0  0  0  0
  -21.6390   -6.9500   21.4710 O   0  0  0  0  0  0  0  0  0  0  0  0
  -21.5800   -6.2100   22.6260 C   0  0  0  0  0  0  0  0  0  0  0  0
  -21.1190   -6.7610   23.8420 C   0  0  0  0  0  3  0  0  0  0  0  0
  -21.0080   -5.9460   24.9850 C   0  0  0  0  0  3  0  0  0  0  0  0
  -21.3530   -4.5830   24.9190 C   0  0  0  0  0  0  0  0  0  0  0  0
  -21.8090   -4.0330   23.7070 C   0  0  0  0  0  3  0  0  0  0  0  0
  -21.9210   -4.8440   22.5650 C   0  0  0  0  0  0  0  0  0  0  0  0
  -22.3390   -4.3050   21.3940 F   0  0  0  0  0  0  0  0  0  0  0  0
  -21.2410   -3.7980   26.0150 F   0  0  0  0  0  0  0  0  0  0  0  0
  -22.7520  -13.5840   21.1920 C   0  0  0  0  0  0  0  0  0  0  0  0
  -22.0260  -12.8790   22.0540 N   0  0  0  0  0  0  0  0  0  0  0  0
  -22.3180  -14.6200   20.6900 O   0  0  0  0  0  0  0  0  0  0  0  0
  -22.3910  -12.0430   22.4820 H   0  0  0  0  0  0  0  0  0  0  0  0
  -21.0920  -13.1810   22.2920 H   0  0  0  0  0  0  0  0  0  0  0  0
  -25.3790  -15.2400   20.3600 N   0  0  0  0  0  0  0  0  0  0  0  0
  -24.6140  -15.8920   20.4960 H   0  0  0  0  0  0  0  0  0  0  0  0
  -26.2290  -15.6820   20.0340 H   0  0  0  0  0  0  0  0  0  0  0  0
  -30.7270  -23.0860   20.1300 C   0  0  0  0  0  2  0  0  0  0  0  0
  -29.7100  -24.1570   20.1370 N   0  0  0  0  0  4  0  0  0  0  0  0
  -28.7990  -23.7340   20.0560 H   0  0  0  0  0  0  0  0  0  0  0  0
  -29.8370  -24.7460   19.3280 H   0  0  0  0  0  0  0  0  0  0  0  0
  -29.7280  -25.0280   21.3310 C   0  0  0  0  0  2  0  0  0  0  0  0
  -28.4810  -25.9150   21.3700 C   0  0  0  0  0  2  0  0  0  0  0  0
  -28.4400  -26.7540   20.2140 O   0  0  0  0  0  0  0  0  0  0  0  0
  -24.5990  -31.8860   23.2420 C   0  0  0  0  0  0  0  0  0  0  0  0
  -27.2860  -27.4900   20.1780 C   0  0  0  0  0  0  0  0  0  0  0  0
  -23.4060  -30.4730   21.6000 C   0  0  0  0  0  3  0  0  0  0  0  0
  -24.8740  -28.9460   20.1790 C   0  0  0  0  0  0  0  0  0  0  0  0
  -25.9240  -30.8630   21.3990 C   0  0  0  0  0  2  0  0  0  0  0  0
  -26.0240  -29.4930   20.7630 C   0  0  0  0  0  0  0  0  0  0  0  0
  -27.2360  -28.7730   20.7570 C   0  0  0  0  0  3  0  0  0  0  0  0
  -26.1280  -26.9470   19.5840 C   0  0  0  0  0  3  0  0  0  0  0  0
  -24.9200  -27.6710   19.5850 C   0  0  0  0  0  3  0  0  0  0  0  0
  -23.6210  -29.7940   20.2200 C   0  0  0  0  0  2  0  0  0  0  0  0
  -24.6620  -31.0880   22.1410 N   0  0  0  0  0  0  0  0  0  0  0  0
  -23.5160  -32.1520   23.7800 O   0  0  0  0  0  0  0  0  0  0  0  0
  -22.7590  -29.4490   22.5600 C   0  0  0  0  0  0  0  0  0  0  0  0
  -21.4340  -29.2670   22.4340 N   0  0  0  0  0  0  0  0  0  0  0  0
  -23.4450  -28.8220   23.3720 O   0  0  0  0  0  0  0  0  0  0  0  0
  -20.9390  -29.8320   21.7570 H   0  0  0  0  0  0  0  0  0  0  0  0
  -18.0590  -28.0860   22.9440 C   0  0  0  0  0  0  0  0  0  0  0  0
  -20.6200  -28.3260   23.2020 C   0  0  0  0  0  3  0  0  0  0  0  0
  -20.7110  -26.9000   22.6130 C   0  0  0  0  0  2  0  0  0  0  0  0
  -19.5990  -26.5910   21.6050 C   0  0  0  0  0  2  0  0  0  0  0  0
  -18.2230  -26.7400   22.2590 C   0  0  0  0  0  2  0  0  0  0  0  0
  -19.1860  -28.8380   23.3730 C   0  0  0  0  0  0  0  0  0  0  0  0
  -18.9800  -30.0990   23.9730 C   0  0  0  0  0  3  0  0  0  0  0  0
  -17.6810  -30.6100   24.1480 C   0  0  0  0  0  3  0  0  0  0  0  0
  -16.5680  -29.8560   23.7370 C   0  0  0  0  0  3  0  0  0  0  0  0
  -16.7590  -28.5960   23.1410 C   0  0  0  0  0  3  0  0  0  0  0  0
  -25.8820  -32.5270   23.8640 C   0  0  0  0  0  3  0  0  0  0  0  0
  -25.5690  -33.9240   24.1850 N   0  0  0  0  0  0  0  0  0  0  0  0
  -25.9000  -34.9730   23.4200 C   0  0  0  0  0  0  0  0  0  0  0  0
  -26.5720  -34.8670   22.3900 O   0  0  0  0  0  0  0  0  0  0  0  0
  -24.9710  -34.0830   24.9830 H   0  0  0  0  0  0  0  0  0  0  0  0
  -24.1740  -36.7660   23.0380 C   0  0  0  0  0  1  0  0  0  0  0  0
  -25.4040  -36.3610   23.8680 C   0  0  0  0  0  3  0  0  0  0  0  0
  -27.5220  -37.2520   24.7320 C   0  0  0  0  0  1  0  0  0  0  0  0
  -26.4360  -37.4160   23.7690 N   0  0  0  0  0  0  0  0  0  0  0  0
  -26.0260  -38.3360   23.9070 H   0  0  0  0  0  0  0  0  0  0  0  0
  -26.4040  -31.7620   25.1420 C   0  0  1  0  0  0  0  0  0  0  0  0
  -25.3170  -31.5450   26.2200 C   0  0  0  0  0  1  0  0  0  0  0  0
  -26.9720  -30.3760   24.7500 C   0  0  0  0  0  1  0  0  0  0  0  0
  -27.5630  -32.5540   25.7900 C   0  0  0  0  0  1  0  0  0  0  0  0
  1 49  1  0
  2  3  1  0
  2  6  1  0
  3  5  1  0
  5  1  1  0
  5  4  1  0
  6  4  1  0
  7  2  2  0
  9 14  1  0
 10 11  1  0
 10  9  1  0
 12 11  1  0
 12 24  1  0
 12 13  1  0
 14  8  1  0
 14 13  1  0
 15  8  2  0
 16 17  1  0
 17 20  1  0
 18 20  1  0
 19  6  1  0
 19 16  1  0
 19 18  1  0
 20  8  1  0
 21 22  2  0
 22 41  1  0
 23 22  1  0
 23 26  1  0
 24 21  1  0
 24 25  1  0
 25 23  2  0
 26 27  1  0
 27 28  2  0
 29 32  1  0
 29 28  1  0
 30 29  2  0
 31 30  1  0
 31 26  2  0
 32 33  1  0
 33 34  1  0
 34 35  2  0
 36 35  1  0
 36 40  1  0
 37 36  2  0
 38 33  2  0
 38 37  1  0
 39 38  1  0
 41 42  1  0
 42 45  1  0
 42 44  1  0
 43 41  2  0
 46 47  1  0
 46 21  1  0
 48 46  1  0
 49 50  1  0
 50 53  1  0
 51 50  1  0
 52 50  1  0
 53 54  1  0
 55 54  1  0
 56 67  2  0
 57 55  1  0
 57 62  1  0
 58 66  1  0
 58 68  1  0
 59 65  1  0
 59 61  1  0
 60 66  1  0
 61 60  1  0
 62 61  2  0
 63 64  1  0
 63 57  2  0
 64 59  2  0
 65 58  1  0
 66 56  1  0
 68 70  2  0
 69 68  1  0
 71 69  1  0
 72 81  2  0
 72 77  1  0
 73 69  1  0
 73 77  1  0
 74 73  1  0
 75 76  1  0
 75 74  1  0
 76 72  1  0
 77 78  2  0
 78 79  1  0
 80 79  2  0
 81 80  1  0
 82 56  1  0
 82 83  1  0
 82 92  1  0
 83 86  1  0
 84 88  1  0
 84 83  1  0
 85 84  2  0
 88 87  1  0
 90 88  1  0
 90 91  1  0
 90 89  1  0
 92 95  1  1
 92 93  1  0
 94 92  1  0
M  ISO  4   8 100  20 100  54 101  55 101
M  END
>  <TORSDO>  (73) 
F 21

>  <SCORE>  (73) 
-13.530

>  <name>  (73) 
73

>  <ligand_id>  (73) 
73

>  <original_smiles>  (73) 
[H]c1c([H])c([H])c2c(c1[H])C([H])([H])C([H])([H])C([H])([H])C2([H])N([H])C(=O)C1([H])N(C(=O)C([H])(N([H])C(=O)C([H])(N([H])C([H])([H])[H])C([H])([H])[H])C(C([H])([H])[H])(C([H])([H])[H])C([H])([H])[H])C([H])([H])c2c([H])c(OC([H])([H])C([H])([H])[N+]([H])([H])C([H])([H])C([H])([H])C3([H])C([H])([H])C(=O)N(C4([H])C([H])([H])N(C(=O)N5C([H])([H])C([H])([H])C([H])([H])C([H])(n6nc(-c7c([H])c([H])c(Oc8c([H])c([H])c(F)c([H])c8F)c([H])c7[H])c(C(=O)N([H])[H])c6N([H])[H])C5([H])[H])C([H])([H])C4([H])[H])C3([H])[H])c([H])c([H])c2C1([H])[H]

>  <smiles>  (73) 
[H]c1c([H])c([H])c2c(c1[H])C([H])([H])C([H])([H])C([H])([H])C2([H])N([H])C(=O)C1([H])N(C(=O)C([H])(N([H])C(=O)C([H])(N([H])C([H])([H])[H])C([H])([H])[H])C(C([H])([H])[H])(C([H])([H])[H])C([H])([H])[H])C([H])([H])c2c([H])c(OC([H])([H])C([H])([H])[N+]([H])([H])C([H])([H])C([H])([H])C3([H])C([H])([H])C(=O)N(C4([H])C([H])([H])N(C(=O)N5C([H])([H])C([H])([H])C([H])([H])C([H])(n6nc(-c7c([H])c([H])c(Oc8c([H])c([H])c(F)c([H])c8F)c([H])c7[H])c(C(=O)N([H])[H])c6N([H])[H])C5([H])[H])C([H])([H])C4([H])[H])C3([H])[H])c([H])c([H])c2C1([H])[H]

$$$$
74:0:0
     RDKit          3D

102112  0  0  1  0  0  0  0  0999 V2000
  -30.3170  -21.6440   18.4270 C   0  0  0  0  0  3  0  0  0  0  0  0
  -29.2300  -22.5580   18.2900 C   0  0  0  0  0  0  0  0  0  0  0  0
  -28.0740  -21.8440   18.2250 C   0  0  0  0  0  0  0  0  0  0  0  0
  -29.7810  -20.3810   18.4570 C   0  0  0  0  0  3  0  0  0  0  0  0
  -26.6090  -22.0060   18.0850 C   0  0  0  0  0  3  0  0  0  0  0  0
  -26.0650  -20.5570   18.1680 C   0  0  0  0  0  3  0  0  0  0  0  0
  -27.2920  -19.6160   18.2730 C   0  0  0  0  0  3  0  0  0  0  0  0
  -28.4060  -20.5310   18.3300 N   0  0  0  0  0  0  0  0  0  0  0  0
  -29.3060  -23.9460   18.2200 N   0  0  0  0  0  0  0  0  0  0  0  0
  -28.3830  -24.3500   18.0850 H   0  0  0  0  0  0  0  0  0  0  0  0
  -30.0710  -24.5470   19.3130 C   0  0  0  0  0  2  0  0  0  0  0  0
  -30.4590  -25.9990   18.9970 C   0  0  0  0  0  3  0  0  0  0  0  0
  -31.1570  -26.0180   17.6960 N   0  0  0  0  0  4  0  0  0  0  0  0
  -30.6210  -25.4380   17.0690 H   0  0  0  0  0  0  0  0  0  0  0  0
  -32.0670  -25.6040   17.7800 H   0  0  0  0  0  0  0  0  0  0  0  0
  -31.2510  -26.9460   17.3200 H   0  0  0  0  0  0  0  0  0  0  0  0
  -29.2400  -26.9390   18.9950 C   0  0  0  0  0  2  0  0  0  0  0  0
  -28.5780  -26.8520   20.2520 O   0  0  0  0  0  0  0  0  0  0  0  0
  -24.6330  -31.9280   23.2640 C   0  0  0  0  0  0  0  0  0  0  0  0
  -27.3890  -27.5290   20.2710 C   0  0  0  0  0  0  0  0  0  0  0  0
  -23.4690  -30.4950   21.6140 C   0  0  0  0  0  3  0  0  0  0  0  0
  -24.9660  -28.9570   20.2370 C   0  0  0  0  0  0  0  0  0  0  0  0
  -25.9860  -30.8920   21.4530 C   0  0  0  0  0  2  0  0  0  0  0  0
  -26.1010  -29.5150   20.8420 C   0  0  0  0  0  0  0  0  0  0  0  0
  -27.3150  -28.8010   20.8690 C   0  0  0  0  0  3  0  0  0  0  0  0
  -26.2410  -26.9630   19.6790 C   0  0  0  0  0  3  0  0  0  0  0  0
  -25.0270  -27.6750   19.6600 C   0  0  0  0  0  3  0  0  0  0  0  0
  -23.7090  -29.7970   20.2470 C   0  0  0  0  0  2  0  0  0  0  0  0
  -24.7130  -31.1200   22.1700 N   0  0  0  0  0  0  0  0  0  0  0  0
  -23.5400  -32.1940   23.7850 O   0  0  0  0  0  0  0  0  0  0  0  0
  -22.8130  -29.4780   22.5740 C   0  0  0  0  0  0  0  0  0  0  0  0
  -21.5000  -29.2590   22.4040 N   0  0  0  0  0  0  0  0  0  0  0  0
  -23.4840  -28.8870   23.4250 O   0  0  0  0  0  0  0  0  0  0  0  0
  -21.0200  -29.7890   21.6890 H   0  0  0  0  0  0  0  0  0  0  0  0
  -18.1490  -27.9640   22.7770 C   0  0  0  0  0  0  0  0  0  0  0  0
  -20.6800  -28.3170   23.1650 C   0  0  0  0  0  3  0  0  0  0  0  0
  -20.8580  -26.8740   22.6380 C   0  0  0  0  0  2  0  0  0  0  0  0
  -19.8180  -26.4830   21.5840 C   0  0  0  0  0  2  0  0  0  0  0  0
  -18.4030  -26.6010   22.1550 C   0  0  0  0  0  2  0  0  0  0  0  0
  -19.2200  -28.7760   23.2370 C   0  0  0  0  0  0  0  0  0  0  0  0
  -18.9310  -30.0500   23.7730 C   0  0  0  0  0  3  0  0  0  0  0  0
  -17.6050  -30.5120   23.8580 C   0  0  0  0  0  3  0  0  0  0  0  0
  -16.5480  -29.6970   23.4170 C   0  0  0  0  0  3  0  0  0  0  0  0
  -16.8210  -28.4260   22.8820 C   0  0  0  0  0  3  0  0  0  0  0  0
  -25.9030  -32.5750   23.9000 C   0  0  0  0  0  3  0  0  0  0  0  0
  -25.5790  -33.9740   24.2080 N   0  0  0  0  0  0  0  0  0  0  0  0
  -25.9190  -35.0190   23.4420 C   0  0  0  0  0  0  0  0  0  0  0  0
  -26.6110  -34.9070   22.4260 O   0  0  0  0  0  0  0  0  0  0  0  0
  -24.9660  -34.1350   24.9940 H   0  0  0  0  0  0  0  0  0  0  0  0
  -24.1840  -36.7900   23.0270 C   0  0  0  0  0  1  0  0  0  0  0  0
  -25.4110  -36.4090   23.8690 C   0  0  0  0  0  3  0  0  0  0  0  0
  -27.5210  -37.3220   24.7330 C   0  0  0  0  0  1  0  0  0  0  0  0
  -26.4370  -37.4680   23.7640 N   0  0  0  0  0  0  0  0  0  0  0  0
  -26.0210  -38.3870   23.8900 H   0  0  0  0  0  0  0  0  0  0  0  0
  -26.4070  -31.8200   25.1910 C   0  0  1  0  0  0  0  0  0  0  0  0
  -25.2990  -31.5760   26.2410 C   0  0  0  0  0  1  0  0  0  0  0  0
  -27.0140  -30.4480   24.8150 C   0  0  0  0  0  1  0  0  0  0  0  0
  -27.5370  -32.6330   25.8670 C   0  0  0  0  0  1  0  0  0  0  0  0
  -30.4390  -19.0460   18.5690 C   0  0  0  0  0  2  0  0  0  0  0  0
  -30.5850  -18.6180   19.9730 N   0  0  0  0  0  4  0  0  0  0  0  0
  -31.3700  -19.1110   20.3670 H   0  0  0  0  0  0  0  0  0  0  0  0
  -29.7650  -18.8940   20.4850 H   0  0  0  0  0  0  0  0  0  0  0  0
  -30.8840  -14.2630   20.3140 C   0  0  0  0  0  0  0  0  0  0  0  0
  -30.4230  -12.2400   19.0090 C   0  0  0  0  0  2  0  0  0  0  0  0
  -29.4470  -12.6010   17.8700 C   0  0  0  0  0  2  0  0  0  0  0  0
  -27.9870  -12.4840   18.3490 C   0  0  0  0  0  2  0  0  0  0  0  0
  -27.7340  -13.2250   19.6890 C   0  0  0  0  0  3  0  0  0  0  0  0
  -28.8220  -12.8800   20.7320 C   0  0  0  0  0  2  0  0  0  0  0  0
  -30.1370  -13.1460   20.1280 N   0  0  0  0  0  0  0  0  0  0  0  0
  -32.0290  -14.3970   19.8790 O   0  0  0  0  0  0  0  0  0  0  0  0
  -30.8300  -16.5030   21.4590 C   0  0  0  0  0  2  0  0  0  0  0  0
  -29.5800  -16.2780   19.8550 C   0  0  0  0  0  2  0  0  0  0  0  0
  -30.7980  -17.1610   20.0820 C   0  0  0  0  0  3  0  0  0  0  0  0
  -30.2070  -15.3270   20.7980 N   0  0  0  0  0  0  0  0  0  0  0  0
  -25.3620  -13.8660   20.4570 C   0  0  0  0  0  0  0  0  0  0  0  0
  -24.2920  -13.1060   20.8430 C   0  0  0  0  0  0  0  0  0  0  0  0
  -24.7340  -11.7480   20.7930 C   0  0  0  0  0  0  0  0  0  0  0  0
  -26.3890  -12.9700   20.1980 N   0  0  0  0  0  0  0  0  0  0  0  0
  -26.0160  -11.6920   20.4570 N   0  0  0  0  0  0  0  0  0  0  0  0
  -23.9960  -10.4950   20.9900 C   0  0  0  0  0  0  0  0  0  0  0  0
  -24.4260   -9.5250   21.9230 C   0  0  0  0  0  3  0  0  0  0  0  0
  -23.6910   -8.3340   22.1070 C   0  0  0  0  0  3  0  0  0  0  0  0
  -22.5120   -8.1060   21.3580 C   0  0  0  0  0  0  0  0  0  0  0  0
  -22.1010   -9.0640   20.4150 C   0  0  0  0  0  3  0  0  0  0  0  0
  -22.8370  -10.2460   20.2290 C   0  0  0  0  0  3  0  0  0  0  0  0
  -21.7470   -6.9680   21.4530 O   0  0  0  0  0  0  0  0  0  0  0  0
  -21.6810   -6.2400   22.6140 C   0  0  0  0  0  0  0  0  0  0  0  0
  -21.2380   -6.8120   23.8270 C   0  0  0  0  0  3  0  0  0  0  0  0
  -21.1190   -6.0100   24.9800 C   0  0  0  0  0  3  0  0  0  0  0  0
  -21.4310   -4.6390   24.9200 C   0  0  0  0  0  0  0  0  0  0  0  0
  -21.8680   -4.0670   23.7120 C   0  0  0  0  0  3  0  0  0  0  0  0
  -21.9890   -4.8660   22.5610 C   0  0  0  0  0  0  0  0  0  0  0  0
  -22.3900   -4.3070   21.3940 F   0  0  0  0  0  0  0  0  0  0  0  0
  -21.3100   -3.8660   26.0250 F   0  0  0  0  0  0  0  0  0  0  0  0
  -22.9080  -13.5990   21.1520 C   0  0  0  0  0  0  0  0  0  0  0  0
  -22.1920  -12.9040   22.0280 N   0  0  0  0  0  0  0  0  0  0  0  0
  -22.4720  -14.6360   20.6540 O   0  0  0  0  0  0  0  0  0  0  0  0
  -22.5580  -12.0640   22.4520 H   0  0  0  0  0  0  0  0  0  0  0  0
  -21.2620  -13.2140   22.2780 H   0  0  0  0  0  0  0  0  0  0  0  0
  -25.5430  -15.2350   20.2840 N   0  0  0  0  0  0  0  0  0  0  0  0
  -24.7930  -15.9050   20.4150 H   0  0  0  0  0  0  0  0  0  0  0  0
  -26.4030  -15.6600   19.9640 H   0  0  0  0  0  0  0  0  0  0  0  0
  1  4  1  0
  2  1  2  0
  3  2  1  0
  3  8  1  0
  4 59  1  0
  5  6  1  0
  5  3  2  0
  6  7  2  0
  7  8  1  0
  8  4  1  0
  9  2  1  0
  9 11  1  0
 10  9  1  0
 12 17  1  0
 12 11  1  0
 13 15  1  0
 13 12  1  0
 14 13  1  0
 16 13  1  0
 17 18  1  0
 18 20  1  0
 19 30  2  0
 20 25  1  0
 21 29  1  0
 21 31  1  0
 22 28  1  0
 22 24  1  0
 23 29  1  0
 24 25  2  0
 24 23  1  0
 26 20  2  0
 27 26  1  0
 27 22  2  0
 28 21  1  0
 29 19  1  0
 31 33  2  0
 32 31  1  0
 34 32  1  0
 35 44  2  0
 35 40  1  0
 36 32  1  0
 36 40  1  0
 37 36  1  0
 38 39  1  0
 38 37  1  0
 39 35  1  0
 40 41  2  0
 41 42  1  0
 43 42  2  0
 44 43  1  0
 45 19  1  0
 45 46  1  0
 45 55  1  0
 46 49  1  0
 47 51  1  0
 47 46  1  0
 48 47  2  0
 51 50  1  0
 53 51  1  0
 53 54  1  0
 53 52  1  0
 55 58  1  1
 55 56  1  0
 57 55  1  0
 59 60  1  0
 60 61  1  0
 60 62  1  0
 63 74  1  0
 64 69  1  0
 65 66  1  0
 65 64  1  0
 67 66  1  0
 67 78  1  0
 67 68  1  0
 69 63  1  0
 69 68  1  0
 70 63  2  0
 72 73  1  0
 72 74  1  0
 73 60  1  0
 73 71  1  0
 74 71  1  0
 75 76  2  0
 76 95  1  0
 77 76  1  0
 77 80  1  0
 78 79  1  0
 78 75  1  0
 79 77  2  0
 80 81  1  0
 81 82  2  0
 83 86  1  0
 83 82  1  0
 84 83  2  0
 85 84  1  0
 85 80  2  0
 86 87  1  0
 87 88  1  0
 88 89  2  0
 90 89  1  0
 90 94  1  0
 91 90  2  0
 92 87  2  0
 92 91  1  0
 93 92  1  0
 95 96  1  0
 96 99  1  0
 96 98  1  0
 97 95  2  0
100101  1  0
100 75  1  0
102100  1  0
M  ISO  4  17 101  18 101  63 100  74 100
M  END
>  <TORSDO>  (74) 
F 23

>  <SCORE>  (74) 
-13.273

>  <name>  (74) 
74

>  <ligand_id>  (74) 
74

>  <original_smiles>  (74) 
[H]c1c([H])c([H])c2c(c1[H])C([H])([H])C([H])([H])C([H])([H])C2([H])N([H])C(=O)C1([H])N(C(=O)C([H])(N([H])C(=O)C([H])(N([H])C([H])([H])[H])C([H])([H])[H])C(C([H])([H])[H])(C([H])([H])[H])C([H])([H])[H])C([H])([H])c2c([H])c(OC([H])([H])C([H])(C([H])([H])N([H])c3c([H])c(C([H])([H])[N+]([H])([H])C4([H])C([H])([H])N(C(=O)N5C([H])([H])C([H])([H])C([H])([H])C([H])(n6nc(-c7c([H])c([H])c(Oc8c([H])c([H])c(F)c([H])c8F)c([H])c7[H])c(C(=O)N([H])[H])c6N([H])[H])C5([H])[H])C4([H])[H])n4c3C([H])([H])C([H])([H])C4([H])[H])[N+]([H])([H])[H])c([H])c([H])c2C1([H])[H]

>  <smiles>  (74) 
[H]c1c([H])c([H])c2c(c1[H])C([H])([H])C([H])([H])C([H])([H])C2([H])N([H])C(=O)C1([H])N(C(=O)C([H])(N([H])C(=O)C([H])(N([H])C([H])([H])[H])C([H])([H])[H])C(C([H])([H])[H])(C([H])([H])[H])C([H])([H])[H])C([H])([H])c2c([H])c(OC([H])([H])C([H])(C([H])([H])N([H])c3c([H])c(C([H])([H])[N+]([H])([H])C4([H])C([H])([H])N(C(=O)N5C([H])([H])C([H])([H])C([H])([H])C([H])(n6nc(-c7c([H])c([H])c(Oc8c([H])c([H])c(F)c([H])c8F)c([H])c7[H])c(C(=O)N([H])[H])c6N([H])[H])C5([H])[H])C4([H])[H])n4c3C([H])([H])C([H])([H])C4([H])[H])[N+]([H])([H])[H])c([H])c([H])c2C1([H])[H]

$$$$
75:0:0
     RDKit          3D

103113  0  0  1  0  0  0  0  0999 V2000
  -27.7180  -20.5780   20.2170 C   0  0  0  0  0  3  0  0  0  0  0  0
  -26.2730  -20.0500   18.0530 C   0  0  0  0  0  3  0  0  0  0  0  0
  -28.1550  -19.6670   19.2590 C   0  0  0  0  0  0  0  0  0  0  0  0
  -26.5430  -21.3060   19.9630 C   0  0  0  0  0  0  0  0  0  0  0  0
  -27.1260  -23.0630   21.5490 C   0  0  0  0  0  2  0  0  0  0  0  0
  -25.5450  -23.5540   20.1780 C   0  0  0  0  0  2  0  0  0  0  0  0
  -26.6070  -24.3700   20.9380 C   0  0  0  0  0  3  0  0  0  0  0  0
  -27.4220  -19.3920   18.1780 N   0  0  0  0  0  0  0  0  0  0  0  0
  -25.8240  -21.0020   18.8680 N   0  0  0  0  0  0  0  0  0  0  0  0
  -26.0810  -22.3530   20.8160 N   0  0  0  0  0  0  0  0  0  0  0  0
  -29.7570  -18.4030   20.6240 C   0  0  0  0  0  2  0  0  0  0  0  0
  -30.0880  -18.4640   18.2390 C   0  0  0  0  0  2  0  0  0  0  0  0
  -29.9980  -16.9800   20.1340 C   0  0  0  0  0  3  0  0  0  0  0  0
  -30.7250  -17.1750   18.7790 C   0  0  0  0  0  3  0  0  0  0  0  0
  -29.4410  -19.1080   19.3880 N   0  0  0  0  0  0  0  0  0  0  0  0
  -31.2820  -14.9760   20.8540 C   0  0  0  0  0  0  0  0  0  0  0  0
  -31.0880  -12.7180   19.9110 C   0  0  0  0  0  2  0  0  0  0  0  0
  -30.3070  -12.8420   18.5860 C   0  0  0  0  0  2  0  0  0  0  0  0
  -28.7840  -12.7780   18.8420 C   0  0  0  0  0  2  0  0  0  0  0  0
  -28.3150  -13.7350   19.9710 C   0  0  0  0  0  3  0  0  0  0  0  0
  -29.2240  -13.5840   21.2180 C   0  0  0  0  0  2  0  0  0  0  0  0
  -30.6230  -13.7920   20.8040 N   0  0  0  0  0  0  0  0  0  0  0  0
  -32.4330  -15.1450   20.4310 O   0  0  0  0  0  0  0  0  0  0  0  0
  -30.5060  -16.0260   21.1330 N   0  0  0  0  0  0  0  0  0  0  0  0
  -29.7700  -15.7510   21.7670 H   0  0  0  0  0  0  0  0  0  0  0  0
  -25.8900  -14.5320   20.3540 C   0  0  0  0  0  0  0  0  0  0  0  0
  -24.7420  -13.8390   20.6240 C   0  0  0  0  0  0  0  0  0  0  0  0
  -25.1210  -12.4640   20.7060 C   0  0  0  0  0  0  0  0  0  0  0  0
  -26.9010  -13.5780   20.2880 N   0  0  0  0  0  0  0  0  0  0  0  0
  -26.4320  -12.3340   20.5540 N   0  0  0  0  0  0  0  0  0  0  0  0
  -24.3100  -11.2510   20.8490 C   0  0  0  0  0  0  0  0  0  0  0  0
  -24.6340  -10.2560   21.7980 C   0  0  0  0  0  3  0  0  0  0  0  0
  -23.8310   -9.1030   21.9290 C   0  0  0  0  0  3  0  0  0  0  0  0
  -22.6920   -8.9360   21.1060 C   0  0  0  0  0  0  0  0  0  0  0  0
  -22.3920   -9.9140   20.1420 C   0  0  0  0  0  3  0  0  0  0  0  0
  -23.1940  -11.0600   20.0100 C   0  0  0  0  0  3  0  0  0  0  0  0
  -21.8550   -7.8480   21.1520 O   0  0  0  0  0  0  0  0  0  0  0  0
  -21.7350   -7.0810   22.2830 C   0  0  0  0  0  0  0  0  0  0  0  0
  -21.3410   -7.6360   23.5190 C   0  0  0  0  0  3  0  0  0  0  0  0
  -21.1670   -6.8020   24.6410 C   0  0  0  0  0  3  0  0  0  0  0  0
  -21.3740   -5.4150   24.5270 C   0  0  0  0  0  0  0  0  0  0  0  0
  -21.7590   -4.8580   23.2940 C   0  0  0  0  0  3  0  0  0  0  0  0
  -21.9410   -5.6910   22.1750 C   0  0  0  0  0  0  0  0  0  0  0  0
  -22.2920   -5.1490   20.9840 F   0  0  0  0  0  0  0  0  0  0  0  0
  -21.1970   -4.6090   25.6010 F   0  0  0  0  0  0  0  0  0  0  0  0
  -23.3560  -14.4040   20.7040 C   0  0  0  0  0  0  0  0  0  0  0  0
  -22.4990  -13.8030   21.5210 N   0  0  0  0  0  0  0  0  0  0  0  0
  -23.0370  -15.4140   20.0780 O   0  0  0  0  0  0  0  0  0  0  0  0
  -22.7750  -12.9860   22.0470 H   0  0  0  0  0  0  0  0  0  0  0  0
  -21.5540  -14.1530   21.6110 H   0  0  0  0  0  0  0  0  0  0  0  0
  -26.1470  -15.8840   20.1430 N   0  0  0  0  0  0  0  0  0  0  0  0
  -25.4020  -16.5720   20.1480 H   0  0  0  0  0  0  0  0  0  0  0  0
  -27.0270  -16.2650   19.8230 H   0  0  0  0  0  0  0  0  0  0  0  0
  -32.1870  -17.3280   18.8750 N   0  0  0  0  0  4  0  0  0  0  0  0
  -32.4420  -18.1680   19.3630 H   0  0  0  0  0  0  0  0  0  0  0  0
  -32.5970  -17.3540   17.9560 H   0  0  0  0  0  0  0  0  0  0  0  0
  -32.5610  -16.5340   19.3880 H   0  0  0  0  0  0  0  0  0  0  0  0
  -27.5970  -25.0400   20.0590 N   0  0  0  0  0  4  0  0  0  0  0  0
  -27.1790  -25.8800   19.6740 H   0  0  0  0  0  0  0  0  0  0  0  0
  -27.8200  -24.4470   19.2740 H   0  0  0  0  0  0  0  0  0  0  0  0
  -28.8700  -25.4200   20.7140 C   0  0  0  0  0  2  0  0  0  0  0  0
  -29.0740  -26.9370   20.7540 C   0  0  0  0  0  2  0  0  0  0  0  0
  -28.6250  -27.5010   19.5150 O   0  0  0  0  0  0  0  0  0  0  0  0
  -24.5660  -31.9830   23.2360 C   0  0  0  0  0  0  0  0  0  0  0  0
  -27.4280  -28.1620   19.6070 C   0  0  0  0  0  0  0  0  0  0  0  0
  -23.4130  -30.6910   21.4590 C   0  0  0  0  0  3  0  0  0  0  0  0
  -24.9330  -29.4340   19.8320 C   0  0  0  0  0  0  0  0  0  0  0  0
  -25.8920  -31.2570   21.2540 C   0  0  0  0  0  2  0  0  0  0  0  0
  -26.0560  -29.9720   20.4740 C   0  0  0  0  0  0  0  0  0  0  0  0
  -27.3090  -29.3380   20.3710 C   0  0  0  0  0  3  0  0  0  0  0  0
  -26.3050  -27.6460   18.9280 C   0  0  0  0  0  3  0  0  0  0  0  0
  -25.0520  -28.2720   19.0470 C   0  0  0  0  0  3  0  0  0  0  0  0
  -23.6270  -30.1790   20.0040 C   0  0  0  0  0  2  0  0  0  0  0  0
  -24.6430  -31.3200   22.0450 N   0  0  0  0  0  0  0  0  0  0  0  0
  -23.4900  -32.1120   23.8320 O   0  0  0  0  0  0  0  0  0  0  0  0
  -22.8570  -29.5300   22.3130 C   0  0  0  0  0  0  0  0  0  0  0  0
  -21.5410  -29.2750   22.1870 N   0  0  0  0  0  0  0  0  0  0  0  0
  -23.6090  -28.8590   23.0300 O   0  0  0  0  0  0  0  0  0  0  0  0
  -21.0000  -29.8840   21.5880 H   0  0  0  0  0  0  0  0  0  0  0  0
  -18.2820  -27.7390   22.5250 C   0  0  0  0  0  0  0  0  0  0  0  0
  -20.8090  -28.1900   22.8440 C   0  0  0  0  0  3  0  0  0  0  0  0
  -21.0410  -26.8420   22.1280 C   0  0  0  0  0  2  0  0  0  0  0  0
  -19.9660  -26.4800   21.0980 C   0  0  0  0  0  2  0  0  0  0  0  0
  -18.5620  -26.4880   21.7110 C   0  0  0  0  0  2  0  0  0  0  0  0
  -19.3330  -28.5430   23.0420 C   0  0  0  0  0  0  0  0  0  0  0  0
  -19.0140  -29.7130   23.7650 C   0  0  0  0  0  3  0  0  0  0  0  0
  -17.6750  -30.0850   23.9710 C   0  0  0  0  0  3  0  0  0  0  0  0
  -16.6370  -29.2860   23.4610 C   0  0  0  0  0  3  0  0  0  0  0  0
  -16.9390  -28.1120   22.7500 C   0  0  0  0  0  3  0  0  0  0  0  0
  -25.8320  -32.6250   23.8950 C   0  0  0  0  0  3  0  0  0  0  0  0
  -25.4900  -34.0150   24.2240 N   0  0  0  0  0  0  0  0  0  0  0  0
  -25.8430  -35.0810   23.4920 C   0  0  0  0  0  0  0  0  0  0  0  0
  -26.5640  -35.0030   22.4930 O   0  0  0  0  0  0  0  0  0  0  0  0
  -24.8630  -34.1450   25.0040 H   0  0  0  0  0  0  0  0  0  0  0  0
  -24.1120  -36.8570   23.0810 C   0  0  0  0  0  1  0  0  0  0  0  0
  -25.3220  -36.4610   23.9400 C   0  0  0  0  0  3  0  0  0  0  0  0
  -27.4090  -37.3670   24.8660 C   0  0  0  0  0  1  0  0  0  0  0  0
  -26.3480  -37.5250   23.8750 N   0  0  0  0  0  0  0  0  0  0  0  0
  -25.9250  -38.4390   24.0110 H   0  0  0  0  0  0  0  0  0  0  0  0
  -26.3230  -31.8520   25.1800 C   0  0  1  0  0  0  0  0  0  0  0  0
  -25.2050  -31.6070   26.2200 C   0  0  0  0  0  1  0  0  0  0  0  0
  -26.9190  -30.4800   24.7860 C   0  0  0  0  0  1  0  0  0  0  0  0
  -27.4560  -32.6470   25.8690 C   0  0  0  0  0  1  0  0  0  0  0  0
  2  8  2  0
  2  9  1  0
  3 15  1  0
  3  1  2  0
  4  1  1  0
  4 10  1  0
  6 10  1  0
  6  7  1  0
  7 58  1  0
  7  5  1  0
  8  3  1  0
  9  4  2  0
 10  5  1  0
 12 14  1  0
 12 15  1  0
 13 11  1  0
 13 24  1  0
 14 54  1  0
 14 13  1  0
 15 11  1  0
 16 24  1  0
 17 22  1  0
 18 19  1  0
 18 17  1  0
 20 19  1  0
 20 29  1  0
 20 21  1  0
 22 16  1  0
 22 21  1  0
 23 16  2  0
 24 25  1  0
 26 27  2  0
 27 46  1  0
 27 28  1  0
 28 31  1  0
 29 26  1  0
 29 30  1  0
 30 28  2  0
 31 32  1  0
 32 33  2  0
 34 37  1  0
 34 33  1  0
 35 34  2  0
 36 35  1  0
 36 31  2  0
 37 38  1  0
 38 39  1  0
 39 40  2  0
 41 40  1  0
 41 45  1  0
 42 41  2  0
 43 38  2  0
 43 42  1  0
 44 43  1  0
 46 47  1  0
 47 50  1  0
 47 49  1  0
 48 46  2  0
 51 52  1  0
 51 26  1  0
 53 51  1  0
 54 55  1  0
 54 57  1  0
 56 54  1  0
 58 61  1  0
 59 58  1  0
 60 58  1  0
 61 62  1  0
 63 65  1  0
 63 62  1  0
 64 75  2  0
 65 70  1  0
 66 74  1  0
 66 76  1  0
 67 73  1  0
 67 69  1  0
 68 74  1  0
 69 68  1  0
 70 69  2  0
 71 72  1  0
 71 65  2  0
 72 67  2  0
 73 66  1  0
 74 64  1  0
 76 78  2  0
 77 76  1  0
 79 77  1  0
 80 89  2  0
 80 85  1  0
 81 77  1  0
 81 85  1  0
 82 81  1  0
 83 84  1  0
 83 82  1  0
 84 80  1  0
 85 86  2  0
 86 87  1  0
 88 87  2  0
 89 88  1  0
 90 64  1  0
 90 91  1  0
 90100  1  0
 91 94  1  0
 92 96  1  0
 92 91  1  0
 93 92  2  0
 96 95  1  0
 98 96  1  0
 98 99  1  0
 98 97  1  0
100103  1  1
100101  1  0
102100  1  0
M  ISO  4  16 100  24 100  62 101  63 101
M  END
>  <TORSDO>  (75) 
F 21

>  <SCORE>  (75) 
-10.363

>  <name>  (75) 
75

>  <ligand_id>  (75) 
75

>  <original_smiles>  (75) 
[H]c1nc(N2C([H])([H])C([H])(N([H])C(=O)N3C([H])([H])C([H])([H])C([H])([H])C([H])(n4nc(-c5c([H])c([H])c(Oc6c([H])c([H])c(F)c([H])c6F)c([H])c5[H])c(C(=O)N([H])[H])c4N([H])[H])C3([H])[H])C([H])([N+]([H])([H])[H])C2([H])[H])c([H])c(N2C([H])([H])C([H])([N+]([H])([H])C([H])([H])C([H])([H])Oc3c([H])c([H])c4c(c3[H])C([H])([H])N(C(=O)C([H])(N([H])C(=O)C([H])(N([H])C([H])([H])[H])C([H])([H])[H])C(C([H])([H])[H])(C([H])([H])[H])C([H])([H])[H])C([H])(C(=O)N([H])C3([H])c5c([H])c([H])c([H])c([H])c5C([H])([H])C([H])([H])C3([H])[H])C4([H])[H])C2([H])[H])n1

>  <smiles>  (75) 
[H]c1nc(N2C([H])([H])C([H])(N([H])C(=O)N3C([H])([H])C([H])([H])C([H])([H])C([H])(n4nc(-c5c([H])c([H])c(Oc6c([H])c([H])c(F)c([H])c6F)c([H])c5[H])c(C(=O)N([H])[H])c4N([H])[H])C3([H])[H])C([H])([N+]([H])([H])[H])C2([H])[H])c([H])c(N2C([H])([H])C([H])([N+]([H])([H])C([H])([H])C([H])([H])Oc3c([H])c([H])c4c(c3[H])C([H])([H])N(C(=O)C([H])(N([H])C(=O)C([H])(N([H])C([H])([H])[H])C([H])([H])[H])C(C([H])([H])[H])(C([H])([H])[H])C([H])([H])[H])C([H])(C(=O)N([H])C3([H])c5c([H])c([H])c([H])c([H])c5C([H])([H])C([H])([H])C3([H])[H])C4([H])[H])C2([H])[H])n1

$$$$
76:0:0
     RDKit          3D

 98107  0  0  1  0  0  0  0  0999 V2000
  -30.4750  -20.0270   18.8370 C   0  0  0  0  0  3  0  0  0  0  0  0
  -28.9250  -21.6140   18.1800 C   0  0  0  0  0  0  0  0  0  0  0  0
  -28.1570  -21.3350   19.3470 C   0  0  0  0  0  0  0  0  0  0  0  0
  -29.6600  -19.6830   19.9430 C   0  0  0  0  0  0  0  0  0  0  0  0
  -30.0930  -20.9690   17.9450 N   0  0  0  0  0  0  0  0  0  0  0  0
  -28.5290  -20.3700   20.2220 N   0  0  0  0  0  0  0  0  0  0  0  0
  -30.9210  -14.4930   20.4580 C   0  0  0  0  0  0  0  0  0  0  0  0
  -30.5140  -12.3720   19.2520 C   0  0  0  0  0  2  0  0  0  0  0  0
  -29.5540  -12.5850   18.0640 C   0  0  0  0  0  2  0  0  0  0  0  0
  -28.0880  -12.4180   18.5140 C   0  0  0  0  0  2  0  0  0  0  0  0
  -27.7490  -13.2460   19.7760 C   0  0  0  0  0  3  0  0  0  0  0  0
  -28.8420  -13.0800   20.8700 C   0  0  0  0  0  2  0  0  0  0  0  0
  -30.1690  -13.3610   20.2820 N   0  0  0  0  0  0  0  0  0  0  0  0
  -32.0980  -14.5750   20.0960 O   0  0  0  0  0  0  0  0  0  0  0  0
  -30.9910  -18.0380   21.2030 C   0  0  0  0  0  2  0  0  0  0  0  0
  -29.3480  -17.4820   19.5370 C   0  0  0  0  0  2  0  0  0  0  0  0
  -30.9100  -16.5990   21.7930 C   0  0  0  0  0  2  0  0  0  0  0  0
  -29.1610  -16.0990   20.1000 C   0  0  0  0  0  2  0  0  0  0  0  0
  -29.7400  -18.4260   20.5630 N   0  0  0  0  0  0  0  0  0  0  0  0
  -30.2720  -15.5930   20.9120 N   0  0  0  0  0  0  0  0  0  0  0  0
  -25.3890  -13.9040   20.5350 C   0  0  0  0  0  0  0  0  0  0  0  0
  -24.3140  -13.1430   20.9060 C   0  0  0  0  0  0  0  0  0  0  0  0
  -24.7640  -11.7870   20.8610 C   0  0  0  0  0  0  0  0  0  0  0  0
  -26.4160  -13.0000   20.2870 N   0  0  0  0  0  0  0  0  0  0  0  0
  -26.0470  -11.7260   20.5460 N   0  0  0  0  0  0  0  0  0  0  0  0
  -24.0330  -10.5320   21.0420 C   0  0  0  0  0  0  0  0  0  0  0  0
  -24.4400   -9.5780   21.9980 C   0  0  0  0  0  3  0  0  0  0  0  0
  -23.7140   -8.3810   22.1660 C   0  0  0  0  0  3  0  0  0  0  0  0
  -22.5670   -8.1340   21.3750 C   0  0  0  0  0  0  0  0  0  0  0  0
  -22.1780   -9.0780   20.4070 C   0  0  0  0  0  3  0  0  0  0  0  0
  -22.9080  -10.2660   20.2370 C   0  0  0  0  0  3  0  0  0  0  0  0
  -21.8140   -6.9880   21.4470 O   0  0  0  0  0  0  0  0  0  0  0  0
  -21.7080   -6.2710   22.6110 C   0  0  0  0  0  0  0  0  0  0  0  0
  -21.1780   -6.8370   23.7910 C   0  0  0  0  0  3  0  0  0  0  0  0
  -21.0240   -6.0440   24.9450 C   0  0  0  0  0  3  0  0  0  0  0  0
  -21.3920   -4.6840   24.9180 C   0  0  0  0  0  0  0  0  0  0  0  0
  -21.9220   -4.1200   23.7440 C   0  0  0  0  0  3  0  0  0  0  0  0
  -22.0750   -4.9100   22.5920 C   0  0  0  0  0  0  0  0  0  0  0  0
  -22.5640   -4.3570   21.4550 F   0  0  0  0  0  0  0  0  0  0  0  0
  -21.2420   -3.9180   26.0250 F   0  0  0  0  0  0  0  0  0  0  0  0
  -22.9230  -13.6330   21.1890 C   0  0  0  0  0  0  0  0  0  0  0  0
  -22.1840  -12.9280   22.0360 N   0  0  0  0  0  0  0  0  0  0  0  0
  -22.4970  -14.6750   20.6950 O   0  0  0  0  0  0  0  0  0  0  0  0
  -22.5420  -12.0870   22.4630 H   0  0  0  0  0  0  0  0  0  0  0  0
  -21.2510  -13.2390   22.2680 H   0  0  0  0  0  0  0  0  0  0  0  0
  -25.5590  -15.2760   20.3680 N   0  0  0  0  0  0  0  0  0  0  0  0
  -24.7970  -15.9320   20.5040 H   0  0  0  0  0  0  0  0  0  0  0  0
  -26.4050  -15.7160   20.0350 H   0  0  0  0  0  0  0  0  0  0  0  0
  -29.5820  -23.3870   16.4450 C   0  0  0  0  0  1  0  0  0  0  0  0
  -28.4600  -22.5220   17.0430 C   0  0  0  0  0  2  0  0  0  0  0  0
  -26.8880  -22.0900   19.7370 C   0  0  0  0  0  2  0  0  0  0  0  0
  -27.1810  -23.2220   20.7350 C   0  0  0  0  0  2  0  0  0  0  0  0
  -28.1780  -24.1660   20.1790 N   0  0  0  0  0  4  0  0  0  0  0  0
  -27.7060  -24.9930   19.8430 H   0  0  0  0  0  0  0  0  0  0  0  0
  -28.5960  -23.7220   19.3800 H   0  0  0  0  0  0  0  0  0  0  0  0
  -29.2740  -24.5790   21.0810 C   0  0  0  0  0  2  0  0  0  0  0  0
  -28.9420  -25.9160   21.7520 C   0  0  0  0  0  2  0  0  0  0  0  0
  -28.8250  -26.8760   20.7050 O   0  0  0  0  0  0  0  0  0  0  0  0
  -24.7220  -32.0100   23.3900 C   0  0  0  0  0  0  0  0  0  0  0  0
  -27.6270  -27.5400   20.6590 C   0  0  0  0  0  0  0  0  0  0  0  0
  -23.6360  -30.5050   21.7500 C   0  0  0  0  0  3  0  0  0  0  0  0
  -25.1950  -28.9450   20.4840 C   0  0  0  0  0  0  0  0  0  0  0  0
  -26.1540  -30.9330   21.6660 C   0  0  0  0  0  2  0  0  0  0  0  0
  -26.3010  -29.5350   21.1080 C   0  0  0  0  0  0  0  0  0  0  0  0
  -27.5210  -28.8370   21.1960 C   0  0  0  0  0  3  0  0  0  0  0  0
  -26.5110  -26.9560   20.0240 C   0  0  0  0  0  3  0  0  0  0  0  0
  -25.2900  -27.6520   19.9410 C   0  0  0  0  0  3  0  0  0  0  0  0
  -23.9360  -29.7710   20.4170 C   0  0  0  0  0  2  0  0  0  0  0  0
  -24.8500  -31.1680   22.3270 N   0  0  0  0  0  0  0  0  0  0  0  0
  -23.6060  -32.2740   23.8640 O   0  0  0  0  0  0  0  0  0  0  0  0
  -22.9590  -29.5120   22.7200 C   0  0  0  0  0  0  0  0  0  0  0  0
  -21.6470  -29.2930   22.5310 N   0  0  0  0  0  0  0  0  0  0  0  0
  -23.6130  -28.9390   23.5950 O   0  0  0  0  0  0  0  0  0  0  0  0
  -21.1800  -29.8080   21.7970 H   0  0  0  0  0  0  0  0  0  0  0  0
  -18.2710  -28.0700   22.9290 C   0  0  0  0  0  0  0  0  0  0  0  0
  -20.8120  -28.3700   23.2980 C   0  0  0  0  0  3  0  0  0  0  0  0
  -20.9570  -26.9230   22.7740 C   0  0  0  0  0  2  0  0  0  0  0  0
  -19.9020  -26.5540   21.7280 C   0  0  0  0  0  2  0  0  0  0  0  0
  -18.4910  -26.7020   22.3060 C   0  0  0  0  0  2  0  0  0  0  0  0
  -19.3610  -28.8590   23.3800 C   0  0  0  0  0  0  0  0  0  0  0  0
  -19.1020  -30.1410   23.9150 C   0  0  0  0  0  3  0  0  0  0  0  0
  -17.7860  -30.6300   24.0090 C   0  0  0  0  0  3  0  0  0  0  0  0
  -16.7100  -29.8390   23.5710 C   0  0  0  0  0  3  0  0  0  0  0  0
  -16.9530  -28.5620   23.0360 C   0  0  0  0  0  3  0  0  0  0  0  0
  -25.9610  -32.6960   24.0480 C   0  0  0  0  0  3  0  0  0  0  0  0
  -25.6040  -34.0960   24.3170 N   0  0  0  0  0  0  0  0  0  0  0  0
  -25.9300  -35.1260   23.5200 C   0  0  0  0  0  0  0  0  0  0  0  0
  -26.6360  -34.9970   22.5180 O   0  0  0  0  0  0  0  0  0  0  0  0
  -24.9880  -34.2670   25.0980 H   0  0  0  0  0  0  0  0  0  0  0  0
  -24.1690  -36.8460   23.0140 C   0  0  0  0  0  1  0  0  0  0  0  0
  -25.3860  -36.5170   23.8970 C   0  0  0  0  0  3  0  0  0  0  0  0
  -27.4540  -37.5010   24.7810 C   0  0  0  0  0  1  0  0  0  0  0  0
  -26.3940  -37.5930   23.7810 N   0  0  0  0  0  0  0  0  0  0  0  0
  -25.9550  -38.5060   23.8600 H   0  0  0  0  0  0  0  0  0  0  0  0
  -26.4380  -31.9800   25.3700 C   0  0  1  0  0  0  0  0  0  0  0  0
  -25.3030  -31.7320   26.3900 C   0  0  0  0  0  1  0  0  0  0  0  0
  -27.0870  -30.6130   25.0470 C   0  0  0  0  0  1  0  0  0  0  0  0
  -27.5260  -32.8310   26.0660 C   0  0  0  0  0  1  0  0  0  0  0  0
  1  4  1  0
  2  3  2  0
  3 51  1  0
  3  6  1  0
  4  6  2  0
  4 19  1  0
  5  2  1  0
  5  1  2  0
  7 20  1  0
  8 13  1  0
  9 10  1  0
  9  8  1  0
 11 10  1  0
 11 24  1  0
 11 12  1  0
 13  7  1  0
 13 12  1  0
 14  7  2  0
 15 17  1  0
 16 18  1  0
 16 19  1  0
 18 20  1  0
 19 15  1  0
 20 17  1  0
 21 22  2  0
 22 41  1  0
 23 22  1  0
 23 26  1  0
 24 21  1  0
 24 25  1  0
 25 23  2  0
 26 27  1  0
 27 28  2  0
 29 32  1  0
 29 28  1  0
 30 29  2  0
 31 30  1  0
 31 26  2  0
 32 33  1  0
 33 34  1  0
 34 35  2  0
 36 35  1  0
 36 40  1  0
 37 36  2  0
 38 33  2  0
 38 37  1  0
 39 38  1  0
 41 42  1  0
 42 45  1  0
 42 44  1  0
 43 41  2  0
 46 47  1  0
 46 21  1  0
 48 46  1  0
 49 50  1  0
 50  2  1  0
 51 52  1  0
 53 52  1  0
 53 56  1  0
 54 53  1  0
 55 53  1  0
 56 57  1  0
 58 57  1  0
 59 70  2  0
 60 58  1  0
 60 65  1  0
 61 69  1  0
 61 71  1  0
 62 64  1  0
 63 69  1  0
 64 65  2  0
 64 63  1  0
 66 60  2  0
 67 66  1  0
 67 62  2  0
 68 62  1  0
 68 61  1  0
 69 59  1  0
 71 73  2  0
 72 71  1  0
 74 72  1  0
 75 84  2  0
 75 80  1  0
 76 72  1  0
 76 80  1  0
 77 76  1  0
 78 79  1  0
 78 77  1  0
 79 75  1  0
 80 81  2  0
 81 82  1  0
 83 82  2  0
 84 83  1  0
 85 59  1  0
 85 86  1  0
 85 95  1  0
 86 89  1  0
 87 91  1  0
 87 86  1  0
 88 87  2  0
 91 90  1  0
 93 94  1  0
 93 91  1  0
 93 92  1  0
 95 98  1  1
 95 96  1  0
 97 95  1  0
M  ISO  4   7 100  20 100  57 101  58 101
M  END
>  <TORSDO>  (76) 
F 22

>  <SCORE>  (76) 
-13.228

>  <name>  (76) 
76

>  <ligand_id>  (76) 
76

>  <original_smiles>  (76) 
[H]c1nc(C([H])([H])C([H])([H])[H])c(C([H])([H])C([H])([H])[N+]([H])([H])C([H])([H])C([H])([H])Oc2c([H])c([H])c3c(c2[H])C([H])([H])N(C(=O)C([H])(N([H])C(=O)C([H])(N([H])C([H])([H])[H])C([H])([H])[H])C(C([H])([H])[H])(C([H])([H])[H])C([H])([H])[H])C([H])(C(=O)N([H])C2([H])c4c([H])c([H])c([H])c([H])c4C([H])([H])C([H])([H])C2([H])[H])C3([H])[H])nc1N1C([H])([H])C([H])([H])N(C(=O)N2C([H])([H])C([H])([H])C([H])([H])C([H])(n3nc(-c4c([H])c([H])c(Oc5c([H])c([H])c(F)c([H])c5F)c([H])c4[H])c(C(=O)N([H])[H])c3N([H])[H])C2([H])[H])C([H])([H])C1([H])[H]

>  <smiles>  (76) 
[H]c1nc(C([H])([H])C([H])([H])[H])c(C([H])([H])C([H])([H])[N+]([H])([H])C([H])([H])C([H])([H])Oc2c([H])c([H])c3c(c2[H])C([H])([H])N(C(=O)C([H])(N([H])C(=O)C([H])(N([H])C([H])([H])[H])C([H])([H])[H])C(C([H])([H])[H])(C([H])([H])[H])C([H])([H])[H])C([H])(C(=O)N([H])C2([H])c4c([H])c([H])c([H])c([H])c4C([H])([H])C([H])([H])C2([H])[H])C3([H])[H])nc1N1C([H])([H])C([H])([H])N(C(=O)N2C([H])([H])C([H])([H])C([H])([H])C([H])(n3nc(-c4c([H])c([H])c(Oc5c([H])c([H])c(F)c([H])c5F)c([H])c4[H])c(C(=O)N([H])[H])c3N([H])[H])C2([H])[H])C([H])([H])C1([H])[H]

$$$$
78:0:0
     RDKit          3D

 92102  0  0  1  0  0  0  0  0999 V2000
  -30.6760  -21.6440   19.4140 C   0  0  0  0  0  2  0  0  0  0  0  0
  -29.6570  -20.9530   18.4960 C   0  0  0  0  0  2  0  0  0  0  0  0
  -29.5450  -21.6980   20.4520 C   0  0  0  0  0  3  0  0  0  0  0  0
  -29.0220  -20.3350   19.7630 C   0  0  0  0  0  3  0  0  0  0  0  0
  -30.6740  -14.6610   20.1250 C   0  0  0  0  0  0  0  0  0  0  0  0
  -30.3860  -12.4360   19.0350 C   0  0  0  0  0  2  0  0  0  0  0  0
  -29.3850  -12.5420   17.8620 C   0  0  0  0  0  2  0  0  0  0  0  0
  -27.9350  -12.3810   18.3590 C   0  0  0  0  0  2  0  0  0  0  0  0
  -27.6310  -13.2520   19.6070 C   0  0  0  0  0  3  0  0  0  0  0  0
  -28.7380  -13.1260   20.6760 C   0  0  0  0  0  2  0  0  0  0  0  0
  -30.0090  -13.4660   20.0300 N   0  0  0  0  0  0  0  0  0  0  0  0
  -31.8510  -14.7460   19.7650 O   0  0  0  0  0  0  0  0  0  0  0  0
  -29.6850  -16.5540   18.9960 C   0  0  0  0  0  2  0  0  0  0  0  0
  -30.0870  -16.7580   21.4270 C   0  0  0  0  0  2  0  0  0  0  0  0
  -28.9670  -17.9300   19.0840 C   0  0  0  0  0  2  0  0  0  0  0  0
  -29.5810  -18.2800   21.3480 C   0  0  0  0  0  2  0  0  0  0  0  0
  -29.9200  -15.8240   20.2590 N   0  0  0  0  0  0  0  0  0  0  0  0
  -29.6120  -18.9200   19.9940 N   0  0  2  0  0  4  0  0  0  0  0  0
  -30.5860  -18.9790   19.7390 H   0  0  0  0  0  0  0  0  0  0  0  0
  -25.2920  -13.8540   20.4710 C   0  0  0  0  0  0  0  0  0  0  0  0
  -24.2370  -13.0840   20.8710 C   0  0  0  0  0  0  0  0  0  0  0  0
  -24.6790  -11.7290   20.7800 C   0  0  0  0  0  0  0  0  0  0  0  0
  -26.3110  -12.9700   20.1590 N   0  0  0  0  0  0  0  0  0  0  0  0
  -25.9520  -11.6840   20.4060 N   0  0  0  0  0  0  0  0  0  0  0  0
  -23.9460  -10.4720   20.9710 C   0  0  0  0  0  0  0  0  0  0  0  0
  -24.3800   -9.4990   21.8990 C   0  0  0  0  0  3  0  0  0  0  0  0
  -23.6500   -8.3040   22.0780 C   0  0  0  0  0  3  0  0  0  0  0  0
  -22.4710   -8.0750   21.3310 C   0  0  0  0  0  0  0  0  0  0  0  0
  -22.0560   -9.0360   20.3920 C   0  0  0  0  0  3  0  0  0  0  0  0
  -22.7860  -10.2230   20.2120 C   0  0  0  0  0  3  0  0  0  0  0  0
  -21.7070   -6.9360   21.4200 O   0  0  0  0  0  0  0  0  0  0  0  0
  -21.6140   -6.2220   22.5880 C   0  0  0  0  0  0  0  0  0  0  0  0
  -21.1070   -6.7980   23.7740 C   0  0  0  0  0  3  0  0  0  0  0  0
  -20.9650   -6.0100   24.9340 C   0  0  0  0  0  3  0  0  0  0  0  0
  -21.3200   -4.6470   24.9050 C   0  0  0  0  0  0  0  0  0  0  0  0
  -21.8210   -4.0700   23.7240 C   0  0  0  0  0  3  0  0  0  0  0  0
  -21.9640   -4.8580   22.5680 C   0  0  0  0  0  0  0  0  0  0  0  0
  -22.4270   -4.2940   21.4240 F   0  0  0  0  0  0  0  0  0  0  0  0
  -21.1750   -3.8850   26.0140 F   0  0  0  0  0  0  0  0  0  0  0  0
  -22.8610  -13.5700   21.2300 C   0  0  0  0  0  0  0  0  0  0  0  0
  -22.1630  -12.8580   22.1060 N   0  0  0  0  0  0  0  0  0  0  0  0
  -22.4170  -14.6200   20.7670 O   0  0  0  0  0  0  0  0  0  0  0  0
  -22.5340  -12.0100   22.5110 H   0  0  0  0  0  0  0  0  0  0  0  0
  -21.2420  -13.1670   22.3800 H   0  0  0  0  0  0  0  0  0  0  0  0
  -25.4720  -15.2290   20.3290 N   0  0  0  0  0  0  0  0  0  0  0  0
  -24.7250  -15.8920   20.4950 H   0  0  0  0  0  0  0  0  0  0  0  0
  -26.3260  -15.6650   20.0070 H   0  0  0  0  0  0  0  0  0  0  0  0
  -29.1560  -24.1400   21.3360 C   0  0  0  0  0  2  0  0  0  0  0  0
  -28.5060  -23.9090   19.4220 C   0  0  0  0  0  2  0  0  0  0  0  0
  -28.1400  -24.9880   20.4970 C   0  0  0  0  0  3  0  0  0  0  0  0
  -28.6820  -22.9710   20.5640 N   0  0  0  0  0  0  0  0  0  0  0  0
  -28.3930  -26.4420   20.2860 O   0  0  0  0  0  0  0  0  0  0  0  0
  -24.6170  -31.8730   23.1920 C   0  0  0  0  0  0  0  0  0  0  0  0
  -27.2740  -27.2890   20.2140 C   0  0  0  0  0  0  0  0  0  0  0  0
  -23.4300  -30.4450   21.5660 C   0  0  0  0  0  3  0  0  0  0  0  0
  -24.8950  -28.8790   20.1680 C   0  0  0  0  0  0  0  0  0  0  0  0
  -25.9660  -30.7770   21.3870 C   0  0  0  0  0  2  0  0  0  0  0  0
  -26.0590  -29.3920   20.7560 C   0  0  0  0  0  0  0  0  0  0  0  0
  -27.2550  -28.6100   20.7600 C   0  0  0  0  0  3  0  0  0  0  0  0
  -26.0880  -26.8310   19.5970 C   0  0  0  0  0  3  0  0  0  0  0  0
  -24.9120  -27.6050   19.5790 C   0  0  0  0  0  3  0  0  0  0  0  0
  -23.6500  -29.7440   20.1990 C   0  0  0  0  0  2  0  0  0  0  0  0
  -24.6910  -31.0480   22.1070 N   0  0  0  0  0  0  0  0  0  0  0  0
  -23.5280  -32.1550   23.7140 O   0  0  0  0  0  0  0  0  0  0  0  0
  -22.7600  -29.4440   22.5370 C   0  0  0  0  0  0  0  0  0  0  0  0
  -21.4330  -29.2700   22.4090 N   0  0  0  0  0  0  0  0  0  0  0  0
  -23.4340  -28.8230   23.3620 O   0  0  0  0  0  0  0  0  0  0  0  0
  -20.9460  -29.8270   21.7210 H   0  0  0  0  0  0  0  0  0  0  0  0
  -18.0460  -28.1210   22.9430 C   0  0  0  0  0  0  0  0  0  0  0  0
  -20.6100  -28.3410   23.1860 C   0  0  0  0  0  3  0  0  0  0  0  0
  -20.6840  -26.9090   22.6060 C   0  0  0  0  0  2  0  0  0  0  0  0
  -19.5660  -26.6030   21.6040 C   0  0  0  0  0  2  0  0  0  0  0  0
  -18.1940  -26.7700   22.2640 C   0  0  0  0  0  2  0  0  0  0  0  0
  -19.1800  -28.8650   23.3620 C   0  0  0  0  0  0  0  0  0  0  0  0
  -18.9860  -30.1300   23.9580 C   0  0  0  0  0  3  0  0  0  0  0  0
  -17.6920  -30.6510   24.1400 C   0  0  0  0  0  3  0  0  0  0  0  0
  -16.5720  -29.9040   23.7370 C   0  0  0  0  0  3  0  0  0  0  0  0
  -16.7500  -28.6410   23.1450 C   0  0  0  0  0  3  0  0  0  0  0  0
  -25.8910  -32.5190   23.8160 C   0  0  0  0  0  3  0  0  0  0  0  0
  -26.4120  -31.7580   25.0960 C   0  0  1  0  0  0  0  0  0  0  0  0
  -25.3180  -31.5090   26.1610 C   0  0  0  0  0  1  0  0  0  0  0  0
  -27.0140  -30.3880   24.7070 C   0  0  0  0  0  1  0  0  0  0  0  0
  -27.5460  -32.5700   25.7660 C   0  0  0  0  0  1  0  0  0  0  0  0
  -25.5670  -33.9150   24.1470 N   0  0  0  0  0  0  0  0  0  0  0  0
  -25.8910  -34.9740   23.3940 C   0  0  0  0  0  0  0  0  0  0  0  0
  -26.5660  -34.8820   22.3640 O   0  0  0  0  0  0  0  0  0  0  0  0
  -24.9640  -34.0600   24.9440 H   0  0  0  0  0  0  0  0  0  0  0  0
  -24.1560  -36.7610   23.0310 C   0  0  0  0  0  1  0  0  0  0  0  0
  -25.3880  -36.3540   23.8560 C   0  0  0  0  0  3  0  0  0  0  0  0
  -27.5110  -37.2380   24.7190 C   0  0  0  0  0  1  0  0  0  0  0  0
  -26.4100  -37.4200   23.7780 N   0  0  0  0  0  0  0  0  0  0  0  0
  -25.9930  -38.3290   23.9600 H   0  0  0  0  0  0  0  0  0  0  0  0
  2  1  1  0
  3  1  1  0
  3 51  1  0
  4  2  1  0
  4 18  1  0
  4  3  1  0
  5 17  1  0
  6 11  1  0
  7  8  1  0
  7  6  1  0
  9  8  1  0
  9 23  1  0
  9 10  1  0
 11  5  1  0
 11 10  1  0
 12  5  2  0
 13 15  1  0
 13 17  1  0
 15 18  1  0
 16 14  1  0
 17 14  1  0
 18 19  1  6
 18 16  1  0
 20 21  2  0
 21 40  1  0
 22 21  1  0
 22 25  1  0
 23 24  1  0
 23 20  1  0
 24 22  2  0
 25 26  1  0
 26 27  2  0
 28 31  1  0
 28 27  1  0
 29 28  2  0
 30 29  1  0
 30 25  2  0
 31 32  1  0
 32 33  1  0
 33 34  2  0
 35 34  1  0
 35 39  1  0
 36 35  2  0
 37 32  2  0
 37 36  1  0
 38 37  1  0
 40 41  1  0
 41 44  1  0
 41 43  1  0
 42 40  2  0
 45 20  1  0
 45 46  1  0
 47 45  1  0
 49 50  1  0
 50 52  1  0
 50 48  1  0
 51 49  1  0
 51 48  1  0
 53 64  2  0
 54 52  1  0
 54 59  1  0
 55 63  1  0
 55 65  1  0
 56 62  1  0
 56 58  1  0
 57 63  1  0
 58 59  2  0
 58 57  1  0
 60 54  2  0
 61 60  1  0
 61 56  2  0
 62 55  1  0
 63 53  1  0
 65 67  2  0
 66 65  1  0
 68 66  1  0
 69 78  2  0
 69 74  1  0
 70 66  1  0
 70 74  1  0
 71 70  1  0
 72 73  1  0
 72 71  1  0
 73 69  1  0
 74 75  2  0
 75 76  1  0
 77 76  2  0
 78 77  1  0
 79 53  1  0
 79 84  1  0
 79 80  1  0
 80 83  1  1
 80 81  1  0
 82 80  1  0
 84 87  1  0
 85 89  1  0
 85 84  1  0
 86 85  2  0
 89 88  1  0
 91 89  1  0
 91 92  1  0
 91 90  1  0
M  ISO  4   5 100  17 100  50 101  52 101
M  END
>  <TORSDO>  (77) 
F 17

>  <SCORE>  (77) 
-14.896

>  <name>  (77) 
78

>  <ligand_id>  (77) 
78

>  <original_smiles>  (77) 
[H]c1c([H])c([H])c2c(c1[H])C([H])([H])C([H])([H])C([H])([H])C2([H])N([H])C(=O)C1([H])N(C(=O)C([H])(N([H])C(=O)C([H])(N([H])C([H])([H])[H])C([H])([H])[H])C(C([H])([H])[H])(C([H])([H])[H])C([H])([H])[H])C([H])([H])c2c([H])c(OC3([H])C([H])([H])N(C4([H])C([H])([H])C([H])([H])C4([H])[N+]4([H])C([H])([H])C([H])([H])N(C(=O)N5C([H])([H])C([H])([H])C([H])([H])C([H])(n6nc(-c7c([H])c([H])c(Oc8c([H])c([H])c(F)c([H])c8F)c([H])c7[H])c(C(=O)N([H])[H])c6N([H])[H])C5([H])[H])C([H])([H])C4([H])[H])C3([H])[H])c([H])c([H])c2C1([H])[H]

>  <smiles>  (77) 
[H]c1c([H])c([H])c2c(c1[H])C([H])([H])C([H])([H])C([H])([H])C2([H])N([H])C(=O)C1([H])N(C(=O)C([H])(N([H])C(=O)C([H])(N([H])C([H])([H])[H])C([H])([H])[H])C(C([H])([H])[H])(C([H])([H])[H])C([H])([H])[H])C([H])([H])c2c([H])c(OC3([H])C([H])([H])N(C4([H])C([H])([H])C([H])([H])C4([H])[N+]4([H])C([H])([H])C([H])([H])N(C(=O)N5C([H])([H])C([H])([H])C([H])([H])C([H])(n6nc(-c7c([H])c([H])c(Oc8c([H])c([H])c(F)c([H])c8F)c([H])c7[H])c(C(=O)N([H])[H])c6N([H])[H])C5([H])[H])C([H])([H])C4([H])[H])C3([H])[H])c([H])c([H])c2C1([H])[H]

$$$$
79:0:0
     RDKit          3D

 94104  0  0  1  0  0  0  0  0999 V2000
  -29.0650  -22.5080   21.4140 C   0  0  0  0  0  2  0  0  0  0  0  0
  -30.0820  -25.4070   19.2600 C   0  0  0  0  0  2  0  0  0  0  0  0
  -30.3990  -24.2830   20.2440 C   0  0  0  0  0  2  0  0  0  0  0  0
  -28.0470  -24.4380   20.1960 C   0  0  0  0  0  2  0  0  0  0  0  0
  -28.5770  -25.6570   19.4100 C   0  0  0  0  0  3  0  0  0  0  0  0
  -29.1670  -23.4740   20.2900 N   0  0  2  0  0  4  0  0  0  0  0  0
  -29.1440  -22.9440   19.4300 H   0  0  0  0  0  0  0  0  0  0  0  0
  -28.4110  -26.8640   20.1510 O   0  0  0  0  0  0  0  0  0  0  0  0
  -24.5500  -31.9230   23.2660 C   0  0  0  0  0  0  0  0  0  0  0  0
  -27.1970  -27.5150   20.1490 C   0  0  0  0  0  0  0  0  0  0  0  0
  -23.3380  -30.5230   21.6240 C   0  0  0  0  0  3  0  0  0  0  0  0
  -24.7860  -28.9930   20.1910 C   0  0  0  0  0  0  0  0  0  0  0  0
  -25.8600  -30.8910   21.4170 C   0  0  0  0  0  2  0  0  0  0  0  0
  -25.9420  -29.5230   20.7740 C   0  0  0  0  0  0  0  0  0  0  0  0
  -27.1440  -28.7870   20.7590 C   0  0  0  0  0  3  0  0  0  0  0  0
  -26.0160  -26.9860   19.5730 C   0  0  0  0  0  3  0  0  0  0  0  0
  -24.8160  -27.7220   19.5930 C   0  0  0  0  0  3  0  0  0  0  0  0
  -23.5400  -29.8470   20.2430 C   0  0  0  0  0  2  0  0  0  0  0  0
  -24.6010  -31.1270   22.1600 N   0  0  0  0  0  0  0  0  0  0  0  0
  -23.4720  -32.1920   23.8130 O   0  0  0  0  0  0  0  0  0  0  0  0
  -22.6950  -29.4980   22.5840 C   0  0  0  0  0  0  0  0  0  0  0  0
  -21.3730  -29.3050   22.4540 N   0  0  0  0  0  0  0  0  0  0  0  0
  -23.3820  -28.8780   23.4000 O   0  0  0  0  0  0  0  0  0  0  0  0
  -20.8800  -29.8580   21.7670 H   0  0  0  0  0  0  0  0  0  0  0  0
  -18.0060  -28.0890   22.9410 C   0  0  0  0  0  0  0  0  0  0  0  0
  -20.5610  -28.3620   23.2210 C   0  0  0  0  0  3  0  0  0  0  0  0
  -20.6750  -26.9310   22.6460 C   0  0  0  0  0  2  0  0  0  0  0  0
  -19.5780  -26.6010   21.6290 C   0  0  0  0  0  2  0  0  0  0  0  0
  -18.1940  -26.7410   22.2670 C   0  0  0  0  0  2  0  0  0  0  0  0
  -19.1190  -28.8580   23.3740 C   0  0  0  0  0  0  0  0  0  0  0  0
  -18.8910  -30.1220   23.9600 C   0  0  0  0  0  3  0  0  0  0  0  0
  -17.5830  -30.6180   24.1180 C   0  0  0  0  0  3  0  0  0  0  0  0
  -16.4850  -29.8440   23.7030 C   0  0  0  0  0  3  0  0  0  0  0  0
  -16.6980  -28.5830   23.1200 C   0  0  0  0  0  3  0  0  0  0  0  0
  -25.8410  -32.5520   23.8810 C   0  0  0  0  0  3  0  0  0  0  0  0
  -25.5400  -33.9550   24.1950 N   0  0  0  0  0  0  0  0  0  0  0  0
  -25.8890  -34.9970   23.4280 C   0  0  0  0  0  0  0  0  0  0  0  0
  -26.5680  -34.8770   22.4040 O   0  0  0  0  0  0  0  0  0  0  0  0
  -24.9410  -34.1230   24.9900 H   0  0  0  0  0  0  0  0  0  0  0  0
  -24.1830  -36.8020   23.0260 C   0  0  0  0  0  1  0  0  0  0  0  0
  -25.4050  -36.3930   23.8650 C   0  0  0  0  0  3  0  0  0  0  0  0
  -27.5300  -37.2630   24.7320 C   0  0  0  0  0  1  0  0  0  0  0  0
  -26.4500  -37.4350   23.7650 N   0  0  0  0  0  0  0  0  0  0  0  0
  -26.0500  -38.3600   23.8960 H   0  0  0  0  0  0  0  0  0  0  0  0
  -26.3550  -31.7890   25.1640 C   0  0  1  0  0  0  0  0  0  0  0  0
  -25.2610  -31.5620   26.2330 C   0  0  0  0  0  1  0  0  0  0  0  0
  -26.9340  -30.4080   24.7810 C   0  0  0  0  0  1  0  0  0  0  0  0
  -27.5080  -32.5850   25.8200 C   0  0  0  0  0  1  0  0  0  0  0  0
  -29.8780  -20.0590   22.0840 C   0  0  0  0  0  2  0  0  0  0  0  0
  -30.0830  -20.4610   20.0770 C   0  0  0  0  0  2  0  0  0  0  0  0
  -30.0870  -21.3660   21.3050 C   0  0  0  0  0  3  0  0  0  0  0  0
  -30.4440  -19.3350   20.9400 N   0  0  2  0  0  4  0  0  0  0  0  0
  -31.4490  -19.2620   21.0150 H   0  0  0  0  0  0  0  0  0  0  0  0
  -30.7390  -14.5350   20.4220 C   0  0  0  0  0  0  0  0  0  0  0  0
  -30.4530  -12.3450   19.3580 C   0  0  0  0  0  2  0  0  0  0  0  0
  -29.5280  -12.5160   18.1350 C   0  0  0  0  0  2  0  0  0  0  0  0
  -28.0470  -12.3940   18.5490 C   0  0  0  0  0  2  0  0  0  0  0  0
  -27.6870  -13.2530   19.7900 C   0  0  0  0  0  3  0  0  0  0  0  0
  -28.7350  -13.0950   20.9160 C   0  0  0  0  0  2  0  0  0  0  0  0
  -30.0630  -13.3610   20.3410 N   0  0  0  0  0  0  0  0  0  0  0  0
  -31.9370  -14.6530   20.1490 O   0  0  0  0  0  0  0  0  0  0  0  0
  -29.9980  -17.6500   19.1150 C   0  0  0  0  0  2  0  0  0  0  0  0
  -29.5670  -16.1920   19.1430 C   0  0  0  0  0  2  0  0  0  0  0  0
  -30.3150  -16.7960   21.3090 C   0  0  0  0  0  2  0  0  0  0  0  0
  -29.8050  -18.0440   20.5680 C   0  0  0  0  0  3  0  0  0  0  0  0
  -29.9580  -15.6400   20.4580 N   0  0  0  0  0  0  0  0  0  0  0  0
  -25.2840  -13.8810   20.4600 C   0  0  0  0  0  0  0  0  0  0  0  0
  -24.2100  -13.1130   20.8170 C   0  0  0  0  0  0  0  0  0  0  0  0
  -24.6730  -11.7620   20.8110 C   0  0  0  0  0  0  0  0  0  0  0  0
  -26.3320  -12.9940   20.2580 N   0  0  0  0  0  0  0  0  0  0  0  0
  -25.9670  -11.7170   20.5300 N   0  0  0  0  0  0  0  0  0  0  0  0
  -23.9480  -10.5010   21.0020 C   0  0  0  0  0  0  0  0  0  0  0  0
  -24.3680   -9.5450   21.9520 C   0  0  0  0  0  3  0  0  0  0  0  0
  -23.6450   -8.3470   22.1280 C   0  0  0  0  0  3  0  0  0  0  0  0
  -22.4880   -8.0960   21.3530 C   0  0  0  0  0  0  0  0  0  0  0  0
  -22.0880   -9.0410   20.3910 C   0  0  0  0  0  3  0  0  0  0  0  0
  -22.8120  -10.2320   20.2130 C   0  0  0  0  0  3  0  0  0  0  0  0
  -21.7360   -6.9500   21.4380 O   0  0  0  0  0  0  0  0  0  0  0  0
  -21.6650   -6.2220   22.5980 C   0  0  0  0  0  0  0  0  0  0  0  0
  -21.2010   -6.7880   23.8050 C   0  0  0  0  0  3  0  0  0  0  0  0
  -21.0800   -5.9850   24.9560 C   0  0  0  0  0  3  0  0  0  0  0  0
  -21.4100   -4.6180   24.9020 C   0  0  0  0  0  0  0  0  0  0  0  0
  -21.8660   -4.0520   23.6980 C   0  0  0  0  0  3  0  0  0  0  0  0
  -21.9910   -4.8520   22.5480 C   0  0  0  0  0  0  0  0  0  0  0  0
  -22.4110   -4.2970   21.3860 F   0  0  0  0  0  0  0  0  0  0  0  0
  -21.2850   -3.8440   26.0050 F   0  0  0  0  0  0  0  0  0  0  0  0
  -22.8070  -13.5910   21.0580 C   0  0  0  0  0  0  0  0  0  0  0  0
  -22.0650  -12.9010   21.9180 N   0  0  0  0  0  0  0  0  0  0  0  0
  -22.3770  -14.6110   20.5220 O   0  0  0  0  0  0  0  0  0  0  0  0
  -22.4260  -12.0750   22.3720 H   0  0  0  0  0  0  0  0  0  0  0  0
  -21.1240  -13.2030   22.1240 H   0  0  0  0  0  0  0  0  0  0  0  0
  -25.4560  -15.2500   20.2710 N   0  0  0  0  0  0  0  0  0  0  0  0
  -24.6920  -15.9110   20.3620 H   0  0  0  0  0  0  0  0  0  0  0  0
  -26.3210  -15.6810   19.9730 H   0  0  0  0  0  0  0  0  0  0  0  0
  2  5  1  0
  2  3  1  0
  3  6  1  0
  4  6  1  0
  5  8  1  0
  5  4  1  0
  6  1  1  0
  6  7  1  6
  9 20  2  0
 10  8  1  0
 10 15  1  0
 11 19  1  0
 11 21  1  0
 12 18  1  0
 12 14  1  0
 13 19  1  0
 14 13  1  0
 15 14  2  0
 16 17  1  0
 16 10  2  0
 17 12  2  0
 18 11  1  0
 19  9  1  0
 21 23  2  0
 22 21  1  0
 24 22  1  0
 25 34  2  0
 25 30  1  0
 26 22  1  0
 26 30  1  0
 27 26  1  0
 28 29  1  0
 28 27  1  0
 29 25  1  0
 30 31  2  0
 31 32  1  0
 33 32  2  0
 34 33  1  0
 35  9  1  0
 35 36  1  0
 35 45  1  0
 36 39  1  0
 37 41  1  0
 37 36  1  0
 38 37  2  0
 41 40  1  0
 43 41  1  0
 43 44  1  0
 43 42  1  0
 45 48  1  1
 45 46  1  0
 47 45  1  0
 50 52  1  0
 50 51  1  0
 51  1  1  0
 51 49  1  0
 52 53  1  1
 52 49  1  0
 54 66  1  0
 55 60  1  0
 56 57  1  0
 56 55  1  0
 58 57  1  0
 58 70  1  0
 58 59  1  0
 60 54  1  0
 60 59  1  0
 61 54  2  0
 62 63  1  0
 63 66  1  0
 65 62  1  0
 65 52  1  0
 65 64  1  0
 66 64  1  0
 67 68  2  0
 68 87  1  0
 69 68  1  0
 69 72  1  0
 70 67  1  0
 70 71  1  0
 71 69  2  0
 72 73  1  0
 73 74  2  0
 75 78  1  0
 75 74  1  0
 76 75  2  0
 77 76  1  0
 77 72  2  0
 78 79  1  0
 79 80  1  0
 80 81  2  0
 82 81  1  0
 82 86  1  0
 83 82  2  0
 84 79  2  0
 84 83  1  0
 85 84  1  0
 87 88  1  0
 88 91  1  0
 88 90  1  0
 89 87  2  0
 92 93  1  0
 92 67  1  0
 94 92  1  0
M  ISO  4   5 101   8 101  54 100  66 100
M  END
>  <TORSDO>  (78) 
F 18

>  <SCORE>  (78) 
-14.409

>  <name>  (78) 
79

>  <ligand_id>  (78) 
79

>  <original_smiles>  (78) 
[H]c1c([H])c([H])c2c(c1[H])C([H])([H])C([H])([H])C([H])([H])C2([H])N([H])C(=O)C1([H])N(C(=O)C([H])(N([H])C(=O)C([H])(N([H])C([H])([H])[H])C([H])([H])[H])C(C([H])([H])[H])(C([H])([H])[H])C([H])([H])[H])C([H])([H])c2c([H])c(OC3([H])C([H])([H])C([H])([H])[N+]([H])(C([H])([H])C4([H])C([H])([H])[N+]([H])(C5([H])C([H])([H])N(C(=O)N6C([H])([H])C([H])([H])C([H])([H])C([H])(n7nc(-c8c([H])c([H])c(Oc9c([H])c([H])c(F)c([H])c9F)c([H])c8[H])c(C(=O)N([H])[H])c7N([H])[H])C6([H])[H])C([H])([H])C5([H])[H])C4([H])[H])C3([H])[H])c([H])c([H])c2C1([H])[H]

>  <smiles>  (78) 
[H]c1c([H])c([H])c2c(c1[H])C([H])([H])C([H])([H])C([H])([H])C2([H])N([H])C(=O)C1([H])N(C(=O)C([H])(N([H])C(=O)C([H])(N([H])C([H])([H])[H])C([H])([H])[H])C(C([H])([H])[H])(C([H])([H])[H])C([H])([H])[H])C([H])([H])c2c([H])c(OC3([H])C([H])([H])C([H])([H])[N+]([H])(C([H])([H])C4([H])C([H])([H])[N+]([H])(C5([H])C([H])([H])N(C(=O)N6C([H])([H])C([H])([H])C([H])([H])C([H])(n7nc(-c8c([H])c([H])c(Oc9c([H])c([H])c(F)c([H])c9F)c([H])c8[H])c(C(=O)N([H])[H])c7N([H])[H])C6([H])[H])C([H])([H])C5([H])[H])C4([H])[H])C3([H])[H])c([H])c([H])c2C1([H])[H]

$$$$
80:0:0
     RDKit          3D

 98108  0  0  1  0  0  0  0  0999 V2000
  -28.8980  -25.0180   16.5250 C   0  0  0  0  0  3  0  0  0  0  0  0
  -29.0480  -26.4060   16.6280 C   0  0  0  0  0  3  0  0  0  0  0  0
  -28.6590  -24.3120   17.7120 C   0  0  0  0  0  0  0  0  0  0  0  0
  -28.7260  -26.2550   18.8800 C   0  0  0  0  0  0  0  0  0  0  0  0
  -28.9640  -27.0210   17.8210 N   0  0  0  0  0  0  0  0  0  0  0  0
  -28.6110  -24.9320   18.9030 N   0  0  0  0  0  0  0  0  0  0  0  0
  -30.0580  -26.8470   14.2330 C   0  0  0  0  0  2  0  0  0  0  0  0
  -30.6200  -27.8920   15.1680 C   0  0  0  0  0  2  0  0  0  0  0  0
  -29.2610  -27.2940   15.4390 C   0  0  0  0  0  3  0  0  0  0  0  0
  -28.4580  -26.8710   20.0470 O   0  0  0  0  0  0  0  0  0  0  0  0
  -24.6070  -31.9620   23.1910 C   0  0  0  0  0  0  0  0  0  0  0  0
  -27.2640  -27.5610   20.0850 C   0  0  0  0  0  0  0  0  0  0  0  0
  -23.3930  -30.5470   21.5660 C   0  0  0  0  0  3  0  0  0  0  0  0
  -24.8440  -29.0170   20.1390 C   0  0  0  0  0  0  0  0  0  0  0  0
  -25.9120  -30.9320   21.3370 C   0  0  0  0  0  2  0  0  0  0  0  0
  -26.0030  -29.5610   20.7060 C   0  0  0  0  0  0  0  0  0  0  0  0
  -27.2150  -28.8370   20.6830 C   0  0  0  0  0  3  0  0  0  0  0  0
  -26.0740  -27.0090   19.5500 C   0  0  0  0  0  3  0  0  0  0  0  0
  -24.8700  -27.7360   19.5680 C   0  0  0  0  0  3  0  0  0  0  0  0
  -23.5940  -29.8650   20.1880 C   0  0  0  0  0  2  0  0  0  0  0  0
  -24.6550  -31.1630   22.0880 N   0  0  0  0  0  0  0  0  0  0  0  0
  -23.5300  -32.2270   23.7420 O   0  0  0  0  0  0  0  0  0  0  0  0
  -22.7650  -29.5210   22.5360 C   0  0  0  0  0  0  0  0  0  0  0  0
  -21.4400  -29.3320   22.4270 N   0  0  0  0  0  0  0  0  0  0  0  0
  -23.4640  -28.8980   23.3400 O   0  0  0  0  0  0  0  0  0  0  0  0
  -20.9400  -29.8840   21.7440 H   0  0  0  0  0  0  0  0  0  0  0  0
  -18.0760  -28.1340   22.9630 C   0  0  0  0  0  0  0  0  0  0  0  0
  -20.6360  -28.3930   23.2070 C   0  0  0  0  0  3  0  0  0  0  0  0
  -20.7360  -26.9630   22.6270 C   0  0  0  0  0  2  0  0  0  0  0  0
  -19.6210  -26.6390   21.6270 C   0  0  0  0  0  2  0  0  0  0  0  0
  -18.2460  -26.7850   22.2860 C   0  0  0  0  0  2  0  0  0  0  0  0
  -19.1980  -28.8960   23.3810 C   0  0  0  0  0  0  0  0  0  0  0  0
  -18.9860  -30.1600   23.9710 C   0  0  0  0  0  3  0  0  0  0  0  0
  -17.6820  -30.6610   24.1520 C   0  0  0  0  0  3  0  0  0  0  0  0
  -16.5750  -29.8940   23.7520 C   0  0  0  0  0  3  0  0  0  0  0  0
  -16.7710  -28.6330   23.1620 C   0  0  0  0  0  3  0  0  0  0  0  0
  -25.8980  -32.6000   23.7960 C   0  0  0  0  0  3  0  0  0  0  0  0
  -25.5780  -33.9900   24.1440 N   0  0  0  0  0  0  0  0  0  0  0  0
  -25.8920  -35.0530   23.3930 C   0  0  0  0  0  0  0  0  0  0  0  0
  -26.5560  -34.9680   22.3540 O   0  0  0  0  0  0  0  0  0  0  0  0
  -24.9870  -34.1280   24.9520 H   0  0  0  0  0  0  0  0  0  0  0  0
  -24.1420  -36.8280   23.0640 C   0  0  0  0  0  1  0  0  0  0  0  0
  -25.3910  -36.4290   23.8680 C   0  0  0  0  0  3  0  0  0  0  0  0
  -27.5230  -37.3230   24.6970 C   0  0  0  0  0  1  0  0  0  0  0  0
  -26.4120  -37.4950   23.7640 N   0  0  0  0  0  0  0  0  0  0  0  0
  -25.9980  -38.4080   23.9300 H   0  0  0  0  0  0  0  0  0  0  0  0
  -26.4510  -31.8210   25.0510 C   0  0  1  0  0  0  0  0  0  0  0  0
  -25.3820  -31.5560   26.1350 C   0  0  0  0  0  1  0  0  0  0  0  0
  -27.0440  -30.4560   24.6290 C   0  0  0  0  0  1  0  0  0  0  0  0
  -27.6010  -32.6230   25.7020 C   0  0  0  0  0  1  0  0  0  0  0  0
  -28.4030  -22.8210   17.7110 C   0  0  0  0  0  2  0  0  0  0  0  0
  -29.3820  -22.0990   18.5440 N   0  0  0  0  0  4  0  0  0  0  0  0
  -29.0320  -22.0930   19.4870 H   0  0  0  0  0  0  0  0  0  0  0  0
  -30.2370  -22.6260   18.5340 H   0  0  0  0  0  0  0  0  0  0  0  0
  -29.6040  -20.7340   18.0320 C   0  0  0  0  0  2  0  0  0  0  0  0
  -30.3330  -19.7440   18.9780 C   0  0  0  0  0  2  0  0  0  0  0  0
  -30.2830  -18.0360   17.2360 C   0  0  0  0  0  1  0  0  0  0  0  0
  -29.9100  -18.3890   18.6120 N   0  0  0  0  0  0  0  0  0  0  0  0
  -30.7540  -14.6630   20.8460 C   0  0  0  0  0  0  0  0  0  0  0  0
  -30.5630  -12.4220   19.8600 C   0  0  0  0  0  2  0  0  0  0  0  0
  -29.7200  -12.5280   18.5720 C   0  0  0  0  0  2  0  0  0  0  0  0
  -28.2140  -12.4020   18.8880 C   0  0  0  0  0  2  0  0  0  0  0  0
  -27.7540  -13.2920   20.0740 C   0  0  0  0  0  3  0  0  0  0  0  0
  -28.7380  -13.2090   21.2690 C   0  0  0  0  0  2  0  0  0  0  0  0
  -30.0980  -13.4740   20.7730 N   0  0  0  0  0  0  0  0  0  0  0  0
  -31.9640  -14.7820   20.6430 O   0  0  0  0  0  0  0  0  0  0  0  0
  -29.3140  -16.1560   19.5920 C   0  0  0  0  0  2  0  0  0  0  0  0
  -30.3620  -17.1770   21.0060 C   0  0  0  0  0  2  0  0  0  0  0  0
  -30.3270  -17.2730   19.4770 C   0  0  0  0  0  3  0  0  0  0  0  0
  -29.9540  -15.7560   20.8500 N   0  0  0  0  0  0  0  0  0  0  0  0
  -25.3170  -13.9100   20.6010 C   0  0  0  0  0  0  0  0  0  0  0  0
  -24.2290  -13.1390   20.9100 C   0  0  0  0  0  0  0  0  0  0  0  0
  -24.7030  -11.7930   20.9540 C   0  0  0  0  0  0  0  0  0  0  0  0
  -26.3790  -13.0260   20.4720 N   0  0  0  0  0  0  0  0  0  0  0  0
  -26.0110  -11.7510   20.7460 N   0  0  0  0  0  0  0  0  0  0  0  0
  -23.9810  -10.5290   21.1270 C   0  0  0  0  0  0  0  0  0  0  0  0
  -24.3800   -9.5770   22.0900 C   0  0  0  0  0  3  0  0  0  0  0  0
  -23.6570   -8.3760   22.2480 C   0  0  0  0  0  3  0  0  0  0  0  0
  -22.5230   -8.1180   21.4390 C   0  0  0  0  0  0  0  0  0  0  0  0
  -22.1470   -9.0600   20.4640 C   0  0  0  0  0  3  0  0  0  0  0  0
  -22.8720  -10.2520   20.3040 C   0  0  0  0  0  3  0  0  0  0  0  0
  -21.7750   -6.9680   21.5040 O   0  0  0  0  0  0  0  0  0  0  0  0
  -21.6980   -6.2250   22.6540 C   0  0  0  0  0  0  0  0  0  0  0  0
  -21.2540   -6.7830   23.8740 C   0  0  0  0  0  3  0  0  0  0  0  0
  -21.1220   -5.9660   25.0130 C   0  0  0  0  0  3  0  0  0  0  0  0
  -21.4250   -4.5940   24.9370 C   0  0  0  0  0  0  0  0  0  0  0  0
  -21.8640   -4.0360   23.7240 C   0  0  0  0  0  3  0  0  0  0  0  0
  -21.9970   -4.8480   22.5840 C   0  0  0  0  0  0  0  0  0  0  0  0
  -22.3990   -4.3030   21.4110 F   0  0  0  0  0  0  0  0  0  0  0  0
  -21.2930   -3.8080   26.0310 F   0  0  0  0  0  0  0  0  0  0  0  0
  -22.8130  -13.6100   21.0620 C   0  0  0  0  0  0  0  0  0  0  0  0
  -22.0300  -12.9310   21.8950 N   0  0  0  0  0  0  0  0  0  0  0  0
  -22.4020  -14.6100   20.4770 O   0  0  0  0  0  0  0  0  0  0  0  0
  -22.3730  -12.1190   22.3870 H   0  0  0  0  0  0  0  0  0  0  0  0
  -21.0750  -13.2230   22.0460 H   0  0  0  0  0  0  0  0  0  0  0  0
  -25.4840  -15.2780   20.4000 N   0  0  0  0  0  0  0  0  0  0  0  0
  -24.7120  -15.9340   20.4420 H   0  0  0  0  0  0  0  0  0  0  0  0
  -26.3680  -15.7170   20.1790 H   0  0  0  0  0  0  0  0  0  0  0  0
  1  2  1  0
  1  3  2  0
  2  9  1  0
  2  5  1  0
  3  6  1  0
  4  6  2  0
  4 10  1  0
  5  4  2  0
  7  8  1  0
  7  9  1  0
  8  9  1  0
 10 12  1  0
 11 22  2  0
 12 17  1  0
 13 21  1  0
 13 23  1  0
 14 20  1  0
 14 16  1  0
 15 21  1  0
 16 15  1  0
 17 16  2  0
 18 19  1  0
 18 12  2  0
 19 14  2  0
 20 13  1  0
 21 11  1  0
 23 25  2  0
 24 23  1  0
 26 24  1  0
 27 36  2  0
 27 32  1  0
 28 24  1  0
 28 32  1  0
 29 28  1  0
 30 31  1  0
 30 29  1  0
 31 27  1  0
 32 33  2  0
 33 34  1  0
 35 34  2  0
 36 35  1  0
 37 11  1  0
 37 38  1  0
 37 47  1  0
 38 41  1  0
 39 43  1  0
 39 38  1  0
 40 39  2  0
 43 42  1  0
 45 43  1  0
 45 46  1  0
 45 44  1  0
 47 50  1  1
 47 48  1  0
 49 47  1  0
 51  3  1  0
 51 52  1  0
 52 53  1  0
 54 52  1  0
 55 52  1  0
 55 56  1  0
 57 58  1  0
 58 56  1  0
 59 70  1  0
 60 65  1  0
 61 62  1  0
 61 60  1  0
 63 62  1  0
 63 74  1  0
 63 64  1  0
 65 59  1  0
 65 64  1  0
 66 59  2  0
 67 70  1  0
 69 58  1  0
 69 67  1  0
 69 68  1  0
 70 68  1  0
 71 72  2  0
 72 73  1  0
 72 91  1  0
 73 76  1  0
 74 71  1  0
 74 75  1  0
 75 73  2  0
 76 77  1  0
 77 78  2  0
 79 82  1  0
 79 78  1  0
 80 79  2  0
 81 80  1  0
 81 76  2  0
 82 83  1  0
 83 84  1  0
 84 85  2  0
 86 85  1  0
 86 90  1  0
 87 86  2  0
 88 83  2  0
 88 87  1  0
 89 88  1  0
 91 92  1  0
 92 95  1  0
 92 94  1  0
 93 91  2  0
 96 97  1  0
 96 71  1  0
 98 96  1  0
M  ISO  4   4 101  10 101  59 100  70 100
M  END
>  <TORSDO>  (79) 
F 22

>  <SCORE>  (79) 
-13.054

>  <name>  (79) 
80

>  <ligand_id>  (79) 
80

>  <original_smiles>  (79) 
[H]c1c(C2([H])C([H])([H])C2([H])[H])nc(Oc2c([H])c([H])c3c(c2[H])C([H])([H])N(C(=O)C([H])(N([H])C(=O)C([H])(N([H])C([H])([H])[H])C([H])([H])[H])C(C([H])([H])[H])(C([H])([H])[H])C([H])([H])[H])C([H])(C(=O)N([H])C2([H])c4c([H])c([H])c([H])c([H])c4C([H])([H])C([H])([H])C2([H])[H])C3([H])[H])nc1C([H])([H])[N+]([H])([H])C([H])([H])C([H])([H])N(C([H])([H])[H])C1([H])C([H])([H])N(C(=O)N2C([H])([H])C([H])([H])C([H])([H])C([H])(n3nc(-c4c([H])c([H])c(Oc5c([H])c([H])c(F)c([H])c5F)c([H])c4[H])c(C(=O)N([H])[H])c3N([H])[H])C2([H])[H])C1([H])[H]

>  <smiles>  (79) 
[H]c1c(C2([H])C([H])([H])C2([H])[H])nc(Oc2c([H])c([H])c3c(c2[H])C([H])([H])N(C(=O)C([H])(N([H])C(=O)C([H])(N([H])C([H])([H])[H])C([H])([H])[H])C(C([H])([H])[H])(C([H])([H])[H])C([H])([H])[H])C([H])(C(=O)N([H])C2([H])c4c([H])c([H])c([H])c([H])c4C([H])([H])C([H])([H])C2([H])[H])C3([H])[H])nc1C([H])([H])[N+]([H])([H])C([H])([H])C([H])([H])N(C([H])([H])[H])C1([H])C([H])([H])N(C(=O)N2C([H])([H])C([H])([H])C([H])([H])C([H])(n3nc(-c4c([H])c([H])c(Oc5c([H])c([H])c(F)c([H])c5F)c([H])c4[H])c(C(=O)N([H])[H])c3N([H])[H])C2([H])[H])C1([H])[H]

$$$$
81:0:0
     RDKit          3D

 96105  0  0  1  0  0  0  0  0999 V2000
  -29.7090  -19.7760   20.0890 C   0  0  0  0  0  3  0  0  0  0  0  0
  -31.1250  -21.4680   19.0790 C   0  0  0  0  0  3  0  0  0  0  0  0
  -29.9090  -21.1270   19.7030 C   0  0  0  0  0  0  0  0  0  0  0  0
  -30.7310  -18.8390   19.8220 C   0  0  0  0  0  0  0  0  0  0  0  0
  -32.0930  -20.4670   18.8680 C   0  0  0  0  0  0  0  0  0  0  0  0
  -31.9000  -19.1960   19.2520 N   0  0  0  0  0  0  0  0  0  0  0  0
  -30.7100  -14.4410   20.5010 C   0  0  0  0  0  0  0  0  0  0  0  0
  -30.3430  -12.3010   19.3520 C   0  0  0  0  0  2  0  0  0  0  0  0
  -29.4230  -12.5300   18.1390 C   0  0  0  0  0  2  0  0  0  0  0  0
  -27.9430  -12.4280   18.5550 C   0  0  0  0  0  2  0  0  0  0  0  0
  -27.6090  -13.2550   19.8240 C   0  0  0  0  0  3  0  0  0  0  0  0
  -28.6560  -13.0410   20.9410 C   0  0  0  0  0  2  0  0  0  0  0  0
  -29.9860  -13.3000   20.3720 N   0  0  0  0  0  0  0  0  0  0  0  0
  -31.8620  -14.5430   20.0770 O   0  0  0  0  0  0  0  0  0  0  0  0
  -30.8320  -16.7100   21.4980 C   0  0  0  0  0  2  0  0  0  0  0  0
  -29.3490  -16.4880   20.1180 C   0  0  0  0  0  2  0  0  0  0  0  0
  -30.6120  -17.3450   20.1250 C   0  0  0  0  0  3  0  0  0  0  0  0
  -30.0730  -15.5320   21.0000 N   0  0  0  0  0  0  0  0  0  0  0  0
  -25.2070  -13.8780   20.4930 C   0  0  0  0  0  0  0  0  0  0  0  0
  -24.1310  -13.1120   20.8510 C   0  0  0  0  0  0  0  0  0  0  0  0
  -24.5870  -11.7600   20.8440 C   0  0  0  0  0  0  0  0  0  0  0  0
  -26.2510  -12.9900   20.2920 N   0  0  0  0  0  0  0  0  0  0  0  0
  -25.8810  -11.7100   20.5570 N   0  0  0  0  0  0  0  0  0  0  0  0
  -23.8530  -10.5030   21.0390 C   0  0  0  0  0  0  0  0  0  0  0  0
  -24.2730   -9.5400   21.9810 C   0  0  0  0  0  3  0  0  0  0  0  0
  -23.5420   -8.3450   22.1620 C   0  0  0  0  0  3  0  0  0  0  0  0
  -22.3750   -8.1070   21.3980 C   0  0  0  0  0  0  0  0  0  0  0  0
  -21.9730   -9.0580   20.4440 C   0  0  0  0  0  3  0  0  0  0  0  0
  -22.7050  -10.2440   20.2630 C   0  0  0  0  0  3  0  0  0  0  0  0
  -21.6150   -6.9650   21.4860 O   0  0  0  0  0  0  0  0  0  0  0  0
  -21.5640   -6.2240   22.6370 C   0  0  0  0  0  0  0  0  0  0  0  0
  -21.1430   -6.7830   23.8630 C   0  0  0  0  0  3  0  0  0  0  0  0
  -21.0380   -5.9670   25.0090 C   0  0  0  0  0  3  0  0  0  0  0  0
  -21.3410   -4.5950   24.9270 C   0  0  0  0  0  0  0  0  0  0  0  0
  -21.7540   -4.0370   23.7050 C   0  0  0  0  0  3  0  0  0  0  0  0
  -21.8640   -4.8480   22.5630 C   0  0  0  0  0  0  0  0  0  0  0  0
  -22.2420   -4.3030   21.3820 F   0  0  0  0  0  0  0  0  0  0  0  0
  -21.2330   -3.8090   26.0250 F   0  0  0  0  0  0  0  0  0  0  0  0
  -22.7320  -13.5970   21.0970 C   0  0  0  0  0  0  0  0  0  0  0  0
  -21.9910  -12.9100   21.9580 N   0  0  0  0  0  0  0  0  0  0  0  0
  -22.3060  -14.6200   20.5620 O   0  0  0  0  0  0  0  0  0  0  0  0
  -22.3530  -12.0830   22.4090 H   0  0  0  0  0  0  0  0  0  0  0  0
  -21.0500  -13.2130   22.1670 H   0  0  0  0  0  0  0  0  0  0  0  0
  -25.3780  -15.2440   20.3020 N   0  0  0  0  0  0  0  0  0  0  0  0
  -24.6050  -15.8950   20.3750 H   0  0  0  0  0  0  0  0  0  0  0  0
  -26.2420  -15.6870   20.0140 H   0  0  0  0  0  0  0  0  0  0  0  0
  -27.4390  -21.7290   20.1180 C   0  0  0  0  0  1  0  0  0  0  0  0
  -28.8780  -22.2360   19.9200 C   0  0  0  0  0  3  0  0  0  0  0  0
  -29.3120  -23.0920   21.0490 N   0  0  0  0  0  4  0  0  0  0  0  0
  -28.6770  -22.9620   21.8190 H   0  0  0  0  0  0  0  0  0  0  0  0
  -30.1970  -22.7100   21.3440 H   0  0  0  0  0  0  0  0  0  0  0  0
  -29.5160  -24.5430   20.7620 C   0  0  0  0  0  2  0  0  0  0  0  0
  -28.2110  -25.2970   20.4370 C   0  0  0  0  0  2  0  0  0  0  0  0
  -28.4040  -26.7070   20.2430 O   0  0  0  0  0  0  0  0  0  0  0  0
  -24.5850  -31.8960   23.2410 C   0  0  0  0  0  0  0  0  0  0  0  0
  -27.2400  -27.4490   20.1940 C   0  0  0  0  0  0  0  0  0  0  0  0
  -23.3840  -30.4900   21.5960 C   0  0  0  0  0  3  0  0  0  0  0  0
  -24.8440  -28.9530   20.1870 C   0  0  0  0  0  0  0  0  0  0  0  0
  -25.9100  -30.8570   21.4050 C   0  0  0  0  0  2  0  0  0  0  0  0
  -26.0010  -29.4840   20.7710 C   0  0  0  0  0  0  0  0  0  0  0  0
  -27.2040  -28.7420   20.7670 C   0  0  0  0  0  3  0  0  0  0  0  0
  -26.0630  -26.9380   19.5970 C   0  0  0  0  0  3  0  0  0  0  0  0
  -24.8700  -27.6800   19.5970 C   0  0  0  0  0  3  0  0  0  0  0  0
  -23.5980  -29.8030   20.2220 C   0  0  0  0  0  2  0  0  0  0  0  0
  -24.6440  -31.0950   22.1400 N   0  0  0  0  0  0  0  0  0  0  0  0
  -23.5010  -32.1680   23.7770 O   0  0  0  0  0  0  0  0  0  0  0  0
  -22.7290  -29.4730   22.5600 C   0  0  0  0  0  0  0  0  0  0  0  0
  -21.4030  -29.2950   22.4340 N   0  0  0  0  0  0  0  0  0  0  0  0
  -23.4100  -28.8450   23.3740 O   0  0  0  0  0  0  0  0  0  0  0  0
  -20.9110  -29.8580   21.7540 H   0  0  0  0  0  0  0  0  0  0  0  0
  -18.0250  -28.1180   22.9460 C   0  0  0  0  0  0  0  0  0  0  0  0
  -20.5860  -28.3590   23.2060 C   0  0  0  0  0  3  0  0  0  0  0  0
  -20.6750  -26.9270   22.6270 C   0  0  0  0  0  2  0  0  0  0  0  0
  -19.5670  -26.6150   21.6160 C   0  0  0  0  0  2  0  0  0  0  0  0
  -18.1880  -26.7690   22.2670 C   0  0  0  0  0  2  0  0  0  0  0  0
  -19.1500  -28.8710   23.3730 C   0  0  0  0  0  0  0  0  0  0  0  0
  -18.9420  -30.1350   23.9670 C   0  0  0  0  0  3  0  0  0  0  0  0
  -17.6420  -30.6460   24.1360 C   0  0  0  0  0  3  0  0  0  0  0  0
  -16.5320  -29.8900   23.7230 C   0  0  0  0  0  3  0  0  0  0  0  0
  -16.7240  -28.6290   23.1340 C   0  0  0  0  0  3  0  0  0  0  0  0
  -25.8700  -32.5290   23.8630 C   0  0  0  0  0  3  0  0  0  0  0  0
  -25.5590  -33.9260   24.1900 N   0  0  0  0  0  0  0  0  0  0  0  0
  -25.8900  -34.9770   23.4270 C   0  0  0  0  0  0  0  0  0  0  0  0
  -26.5600  -34.8710   22.3960 O   0  0  0  0  0  0  0  0  0  0  0  0
  -24.9660  -34.0820   24.9920 H   0  0  0  0  0  0  0  0  0  0  0  0
  -24.1620  -36.7670   23.0610 C   0  0  0  0  0  1  0  0  0  0  0  0
  -25.4000  -36.3660   23.8780 C   0  0  0  0  0  3  0  0  0  0  0  0
  -27.5300  -37.2550   24.7160 C   0  0  0  0  0  1  0  0  0  0  0  0
  -26.4320  -37.4180   23.7670 N   0  0  0  0  0  0  0  0  0  0  0  0
  -26.0240  -38.3380   23.9100 H   0  0  0  0  0  0  0  0  0  0  0  0
  -26.3880  -31.7580   25.1400 C   0  0  1  0  0  0  0  0  0  0  0  0
  -25.2950  -31.5210   26.2060 C   0  0  0  0  0  1  0  0  0  0  0  0
  -26.9750  -30.3820   24.7490 C   0  0  0  0  0  1  0  0  0  0  0  0
  -27.5370  -32.5540   25.8040 C   0  0  0  0  0  1  0  0  0  0  0  0
  -33.5170  -21.8950   17.5850 C   0  0  0  0  0  1  0  0  0  0  0  0
  -33.3030  -20.6580   18.2500 O   0  0  0  0  0  0  0  0  0  0  0  0
  2  3  2  0
  3 48  1  0
  3  1  1  0
  4  1  2  0
  5  2  1  0
  5  6  2  0
  6  4  1  0
  7 18  1  0
  8 13  1  0
  9 10  1  0
  9  8  1  0
 11 10  1  0
 11 22  1  0
 11 12  1  0
 13  7  1  0
 13 12  1  0
 14  7  2  0
 16 17  1  0
 16 18  1  0
 17  4  1  0
 17 15  1  0
 18 15  1  0
 19 20  2  0
 20 39  1  0
 21 20  1  0
 21 24  1  0
 22 19  1  0
 22 23  1  0
 23 21  2  0
 24 25  1  0
 25 26  2  0
 27 30  1  0
 27 26  1  0
 28 27  2  0
 29 28  1  0
 29 24  2  0
 30 31  1  0
 31 32  1  0
 32 33  2  0
 34 33  1  0
 34 38  1  0
 35 34  2  0
 36 31  2  0
 36 35  1  0
 37 36  1  0
 39 40  1  0
 40 43  1  0
 40 42  1  0
 41 39  2  0
 44 45  1  0
 44 19  1  0
 46 44  1  0
 48 47  1  0
 48 49  1  0
 49 51  1  0
 49 50  1  0
 52 49  1  0
 53 52  1  0
 54 53  1  0
 55 66  2  0
 56 54  1  0
 56 61  1  0
 57 65  1  0
 57 67  1  0
 58 64  1  0
 58 60  1  0
 59 65  1  0
 60 59  1  0
 61 60  2  0
 62 56  2  0
 63 62  1  0
 63 58  2  0
 64 57  1  0
 65 55  1  0
 67 69  2  0
 68 67  1  0
 70 68  1  0
 71 80  2  0
 71 76  1  0
 72 68  1  0
 72 76  1  0
 73 72  1  0
 74 75  1  0
 74 73  1  0
 75 71  1  0
 76 77  2  0
 77 78  1  0
 79 78  2  0
 80 79  1  0
 81 55  1  0
 81 82  1  0
 81 91  1  0
 82 85  1  0
 83 87  1  0
 83 82  1  0
 84 83  2  0
 87 86  1  0
 89 87  1  0
 89 90  1  0
 89 88  1  0
 91 94  1  1
 91 92  1  0
 93 91  1  0
 95 96  1  0
 96  5  1  0
M  ISO  4   7 100  18 100  53 101  54 101
M  END
>  <TORSDO>  (80) 
F 21

>  <SCORE>  (80) 
-13.606

>  <name>  (80) 
81

>  <ligand_id>  (80) 
81

>  <original_smiles>  (80) 
[H]c1c([H])c([H])c2c(c1[H])C([H])([H])C([H])([H])C([H])([H])C2([H])N([H])C(=O)C1([H])N(C(=O)C([H])(N([H])C(=O)C([H])(N([H])C([H])([H])[H])C([H])([H])[H])C(C([H])([H])[H])(C([H])([H])[H])C([H])([H])[H])C([H])([H])c2c([H])c(OC([H])([H])C([H])([H])[N+]([H])([H])C([H])(c3c([H])c(OC([H])([H])[H])nc(C4([H])C([H])([H])N(C(=O)N5C([H])([H])C([H])([H])C([H])([H])C([H])(n6nc(-c7c([H])c([H])c(Oc8c([H])c([H])c(F)c([H])c8F)c([H])c7[H])c(C(=O)N([H])[H])c6N([H])[H])C5([H])[H])C4([H])[H])c3[H])C([H])([H])[H])c([H])c([H])c2C1([H])[H]

>  <smiles>  (80) 
[H]c1c([H])c([H])c2c(c1[H])C([H])([H])C([H])([H])C([H])([H])C2([H])N([H])C(=O)C1([H])N(C(=O)C([H])(N([H])C(=O)C([H])(N([H])C([H])([H])[H])C([H])([H])[H])C(C([H])([H])[H])(C([H])([H])[H])C([H])([H])[H])C([H])([H])c2c([H])c(OC([H])([H])C([H])([H])[N+]([H])([H])C([H])(c3c([H])c(OC([H])([H])[H])nc(C4([H])C([H])([H])N(C(=O)N5C([H])([H])C([H])([H])C([H])([H])C([H])(n6nc(-c7c([H])c([H])c(Oc8c([H])c([H])c(F)c([H])c8F)c([H])c7[H])c(C(=O)N([H])[H])c6N([H])[H])C5([H])[H])C4([H])[H])c3[H])C([H])([H])[H])c([H])c([H])c2C1([H])[H]

$$$$
82:0:0
     RDKit          3D

102112  0  0  1  0  0  0  0  0999 V2000
  -27.8980  -22.5290   17.5230 C   0  0  0  0  0  2  0  0  0  0  0  0
  -28.5280  -20.7320   20.2270 C   0  0  0  0  0  3  0  0  0  0  0  0
  -28.4340  -23.2770   19.8350 C   0  0  0  0  0  0  0  0  0  0  0  0
  -26.6630  -20.5920   18.7230 C   0  0  0  0  0  2  0  0  0  0  0  0
  -28.8820  -20.0600   17.3320 C   0  0  0  0  0  2  0  0  0  0  0  0
  -27.6470  -21.0080   17.5870 C   0  0  0  0  0  3  0  0  0  0  0  0
  -29.3130  -19.3410   19.7400 C   0  0  0  0  0  3  0  0  0  0  0  0
  -28.1030  -23.4190   18.4280 N   0  0  0  0  0  0  0  0  0  0  0  0
  -28.9450  -22.1210   20.3730 N   0  0  0  0  0  2  0  0  0  0  0  0
  -27.2560  -20.5920   20.0770 N   0  0  0  0  0  0  0  0  0  0  0  0
  -29.8770  -19.8180   18.4380 N   0  0  0  0  0  4  0  0  0  0  0  0
  -26.8180  -19.9040   20.6850 H   0  0  0  0  0  0  0  0  0  0  0  0
  -30.3830  -20.6770   18.6000 H   0  0  0  0  0  0  0  0  0  0  0  0
  -30.5250  -19.1600   18.0480 H   0  0  0  0  0  0  0  0  0  0  0  0
  -30.7490  -15.2320   20.6560 C   0  0  0  0  0  0  0  0  0  0  0  0
  -30.6400  -12.8160   19.8680 C   0  0  0  0  0  2  0  0  0  0  0  0
  -29.7850  -12.5440   18.6110 C   0  0  0  0  0  2  0  0  0  0  0  0
  -28.3070  -12.3480   18.9810 C   0  0  0  0  0  2  0  0  0  0  0  0
  -27.7990  -13.3570   20.0420 C   0  0  0  0  0  3  0  0  0  0  0  0
  -28.8030  -13.5980   21.1880 C   0  0  0  0  0  2  0  0  0  0  0  0
  -30.0620  -14.0130   20.5440 N   0  0  0  0  0  0  0  0  0  0  0  0
  -31.9530  -15.0950   20.8570 O   0  0  0  0  0  0  0  0  0  0  0  0
  -32.5590  -18.5090   20.1570 C   0  0  0  0  0  2  0  0  0  0  0  0
  -31.4320  -18.3800   21.2210 C   0  0  0  0  0  3  0  0  0  0  0  0
  -30.0600  -17.9900   20.6000 C   0  0  0  0  0  3  0  0  0  0  0  0
  -31.2210  -16.7760   18.8460 C   0  0  0  0  0  3  0  0  0  0  0  0
  -31.3840  -19.5980   22.1590 C   0  0  0  0  0  1  0  0  0  0  0  0
  -31.2870  -15.6710   17.7620 C   0  0  0  0  0  1  0  0  0  0  0  0
  -33.7900  -16.6650   19.0200 C   0  0  0  0  0  1  0  0  0  0  0  0
  -30.3310  -16.4840   20.0200 N   0  0  0  0  0  0  0  0  0  0  0  0
  -32.5440  -17.4800   19.0700 N   0  0  2  0  0  4  0  0  0  0  0  0
  -32.6930  -18.0200   18.2280 H   0  0  0  0  0  0  0  0  0  0  0  0
  -25.3850  -13.8920   20.6860 C   0  0  0  0  0  0  0  0  0  0  0  0
  -24.3140  -13.0980   20.9960 C   0  0  0  0  0  0  0  0  0  0  0  0
  -24.8040  -11.7550   20.9990 C   0  0  0  0  0  0  0  0  0  0  0  0
  -26.4550  -13.0330   20.5080 N   0  0  0  0  0  0  0  0  0  0  0  0
  -26.1120  -11.7420   20.7660 N   0  0  0  0  0  0  0  0  0  0  0  0
  -24.0890  -10.4800   21.1500 C   0  0  0  0  0  0  0  0  0  0  0  0
  -24.4780   -9.5250   22.1140 C   0  0  0  0  0  3  0  0  0  0  0  0
  -23.7600   -8.3160   22.2540 C   0  0  0  0  0  3  0  0  0  0  0  0
  -22.6400   -8.0560   21.4280 C   0  0  0  0  0  0  0  0  0  0  0  0
  -22.2730   -9.0000   20.4520 C   0  0  0  0  0  3  0  0  0  0  0  0
  -22.9910  -10.1990   20.3100 C   0  0  0  0  0  3  0  0  0  0  0  0
  -21.9030   -6.8970   21.4730 O   0  0  0  0  0  0  0  0  0  0  0  0
  -21.7750   -6.1670   22.6280 C   0  0  0  0  0  0  0  0  0  0  0  0
  -21.2310   -6.7260   23.8050 C   0  0  0  0  0  3  0  0  0  0  0  0
  -21.0550   -5.9240   24.9500 C   0  0  0  0  0  3  0  0  0  0  0  0
  -21.4120   -4.5620   24.9170 C   0  0  0  0  0  0  0  0  0  0  0  0
  -21.9450   -4.0000   23.7430 C   0  0  0  0  0  3  0  0  0  0  0  0
  -22.1230   -4.8020   22.6000 C   0  0  0  0  0  0  0  0  0  0  0  0
  -22.6210   -4.2520   21.4670 F   0  0  0  0  0  0  0  0  0  0  0  0
  -21.2360   -3.7880   26.0140 F   0  0  0  0  0  0  0  0  0  0  0  0
  -22.8950  -13.5500   21.1730 C   0  0  0  0  0  0  0  0  0  0  0  0
  -22.1310  -12.8520   22.0050 N   0  0  0  0  0  0  0  0  0  0  0  0
  -22.4700  -14.5570   20.6070 O   0  0  0  0  0  0  0  0  0  0  0  0
  -22.4890  -12.0440   22.4920 H   0  0  0  0  0  0  0  0  0  0  0  0
  -21.1700  -13.1280   22.1540 H   0  0  0  0  0  0  0  0  0  0  0  0
  -25.5400  -15.2640   20.5090 N   0  0  0  0  0  0  0  0  0  0  0  0
  -24.7560  -15.9050   20.5500 H   0  0  0  0  0  0  0  0  0  0  0  0
  -26.4060  -15.7090   20.2370 H   0  0  0  0  0  0  0  0  0  0  0  0
  -28.1850  -24.7630   20.6190 C   0  0  0  0  0  2  0  0  0  0  0  0
  -28.2430  -26.2280   20.0270 O   0  0  0  0  0  0  0  0  0  0  0  0
  -24.6290  -31.9110   23.2400 C   0  0  0  0  0  0  0  0  0  0  0  0
  -27.1690  -27.1990   20.1150 C   0  0  0  0  0  0  0  0  0  0  0  0
  -23.4050  -30.5160   21.6170 C   0  0  0  0  0  3  0  0  0  0  0  0
  -24.8290  -28.9430   20.1670 C   0  0  0  0  0  0  0  0  0  0  0  0
  -25.9570  -30.7890   21.3980 C   0  0  0  0  0  2  0  0  0  0  0  0
  -26.0260  -29.3970   20.7370 C   0  0  0  0  0  0  0  0  0  0  0  0
  -27.2010  -28.5450   20.6820 C   0  0  0  0  0  3  0  0  0  0  0  0
  -25.9380  -26.8450   19.5330 C   0  0  0  0  0  3  0  0  0  0  0  0
  -24.7970  -27.6800   19.5540 C   0  0  0  0  0  3  0  0  0  0  0  0
  -23.5990  -29.8370   20.2370 C   0  0  0  0  0  2  0  0  0  0  0  0
  -24.6860  -31.0940   22.1400 N   0  0  0  0  0  0  0  0  0  0  0  0
  -23.5520  -32.1840   23.7900 O   0  0  0  0  0  0  0  0  0  0  0  0
  -22.7490  -29.5030   22.5900 C   0  0  0  0  0  0  0  0  0  0  0  0
  -21.4250  -29.3030   22.4730 N   0  0  0  0  0  0  0  0  0  0  0  0
  -23.4380  -28.8980   23.4160 O   0  0  0  0  0  0  0  0  0  0  0  0
  -20.9240  -29.8450   21.7800 H   0  0  0  0  0  0  0  0  0  0  0  0
  -18.0820  -28.0010   22.9810 C   0  0  0  0  0  0  0  0  0  0  0  0
  -20.6290  -28.3500   23.2520 C   0  0  0  0  0  3  0  0  0  0  0  0
  -20.7790  -26.9130   22.6990 C   0  0  0  0  0  2  0  0  0  0  0  0
  -19.6920  -26.5410   21.6850 C   0  0  0  0  0  2  0  0  0  0  0  0
  -18.3030  -26.6500   22.3210 C   0  0  0  0  0  2  0  0  0  0  0  0
  -19.1730  -28.8050   23.4030 C   0  0  0  0  0  0  0  0  0  0  0  0
  -18.9090  -30.0660   23.9820 C   0  0  0  0  0  3  0  0  0  0  0  0
  -17.5870  -30.5250   24.1390 C   0  0  0  0  0  3  0  0  0  0  0  0
  -16.5110  -29.7190   23.7300 C   0  0  0  0  0  3  0  0  0  0  0  0
  -16.7590  -28.4570   23.1590 C   0  0  0  0  0  3  0  0  0  0  0  0
  -25.9130  -32.5550   23.8450 C   0  0  0  0  0  3  0  0  0  0  0  0
  -25.5970  -33.9520   24.1850 N   0  0  0  0  0  0  0  0  0  0  0  0
  -25.9300  -35.0160   23.4410 C   0  0  0  0  0  0  0  0  0  0  0  0
  -26.6030  -34.9230   22.4100 O   0  0  0  0  0  0  0  0  0  0  0  0
  -24.9990  -34.0970   24.9850 H   0  0  0  0  0  0  0  0  0  0  0  0
  -24.2160  -36.8280   23.0960 C   0  0  0  0  0  1  0  0  0  0  0  0
  -25.4460  -36.4030   23.9130 C   0  0  0  0  0  3  0  0  0  0  0  0
  -27.5780  -37.2640   24.7800 C   0  0  0  0  0  1  0  0  0  0  0  0
  -26.4860  -37.4510   23.8270 N   0  0  0  0  0  0  0  0  0  0  0  0
  -26.0830  -38.3710   23.9840 H   0  0  0  0  0  0  0  0  0  0  0  0
  -26.4470  -31.7930   25.1200 C   0  0  1  0  0  0  0  0  0  0  0  0
  -25.3700  -31.5580   26.2050 C   0  0  0  0  0  1  0  0  0  0  0  0
  -27.0300  -30.4140   24.7340 C   0  0  0  0  0  1  0  0  0  0  0  0
  -27.6030  -32.5960   25.7640 C   0  0  0  0  0  1  0  0  0  0  0  0
  1  6  1  0
  1  8  1  0
  2  9  1  0
  3  9  1  0
  3 61  1  0
  4 10  1  0
  5 11  1  0
  6  5  1  0
  6  4  1  0
  7 11  1  0
  7  2  1  0
  7 25  1  0
  8  3  2  0
 10  2  1  0
 10 12  1  0
 11 13  1  0
 14 11  1  0
 15 22  2  0
 16 21  1  0
 17 18  1  0
 17 16  1  0
 19 18  1  0
 19 36  1  0
 19 20  1  0
 21 15  1  0
 21 20  1  0
 23 24  1  0
 24 27  1  0
 25 30  1  0
 25 24  1  0
 26 28  1  0
 26 31  1  0
 26 30  1  0
 29 31  1  0
 30 15  1  0
 31 23  1  0
 31 32  1  6
 33 34  2  0
 34 35  1  0
 34 53  1  0
 35 38  1  0
 36 33  1  0
 36 37  1  0
 37 35  2  0
 38 39  1  0
 39 40  2  0
 41 44  1  0
 41 40  1  0
 42 41  2  0
 43 42  1  0
 43 38  2  0
 44 45  1  0
 45 46  1  0
 46 47  2  0
 48 47  1  0
 48 52  1  0
 49 48  2  0
 50 45  2  0
 50 49  1  0
 51 50  1  0
 53 54  1  0
 54 57  1  0
 54 56  1  0
 55 53  2  0
 58 59  1  0
 58 33  1  0
 60 58  1  0
 62 64  1  0
 62 61  1  0
 63 74  2  0
 64 69  1  0
 65 73  1  0
 65 75  1  0
 66 72  1  0
 66 68  1  0
 67 73  1  0
 68 67  1  0
 69 68  2  0
 70 71  1  0
 70 64  2  0
 71 66  2  0
 72 65  1  0
 73 63  1  0
 75 77  2  0
 76 75  1  0
 78 76  1  0
 79 88  2  0
 79 84  1  0
 80 76  1  0
 80 84  1  0
 81 80  1  0
 82 83  1  0
 82 81  1  0
 83 79  1  0
 84 85  2  0
 85 86  1  0
 87 86  2  0
 88 87  1  0
 89 63  1  0
 89 90  1  0
 89 99  1  0
 90 93  1  0
 91 95  1  0
 91 90  1  0
 92 91  2  0
 95 94  1  0
 97 95  1  0
 97 98  1  0
 97 96  1  0
 99102  1  1
 99100  1  0
101 99  1  0
M  ISO  4  15 100  30 100  61 101  62 101
M  END
>  <TORSDO>  (81) 
F 17

>  <SCORE>  (81) 
-16.108

>  <name>  (81) 
82

>  <ligand_id>  (81) 
82

>  <original_smiles>  (81) 
[H]C1=NC(C([H])([H])Oc2c([H])c([H])c3c(c2[H])C([H])([H])N(C(=O)C([H])(N([H])C(=O)C([H])(N([H])C([H])([H])[H])C([H])([H])[H])C(C([H])([H])[H])(C([H])([H])[H])C([H])([H])[H])C([H])(C(=O)N([H])C2([H])c4c([H])c([H])c([H])c([H])c4C([H])([H])C([H])([H])C2([H])[H])C3([H])[H])=NC2=[N+]([H])C([H])([H])C1([H])C([H])([H])[N+]([H])([H])C2([H])C1([H])N(C(=O)N2C([H])([H])C([H])([H])C([H])([H])C([H])(n3nc(-c4c([H])c([H])c(Oc5c([H])c([H])c(F)c([H])c5F)c([H])c4[H])c(C(=O)N([H])[H])c3N([H])[H])C2([H])[H])C([H])(C([H])([H])[H])[N+]([H])(C([H])([H])[H])C([H])([H])C1([H])C([H])([H])[H]

>  <smiles>  (81) 
[H]C1=NC(C([H])([H])Oc2c([H])c([H])c3c(c2[H])C([H])([H])N(C(=O)C([H])(N([H])C(=O)C([H])(N([H])C([H])([H])[H])C([H])([H])[H])C(C([H])([H])[H])(C([H])([H])[H])C([H])([H])[H])C([H])(C(=O)N([H])C2([H])c4c([H])c([H])c([H])c([H])c4C([H])([H])C([H])([H])C2([H])[H])C3([H])[H])=NC2=[N+]([H])C([H])([H])C1([H])C([H])([H])[N+]([H])([H])C2([H])C1([H])N(C(=O)N2C([H])([H])C([H])([H])C([H])([H])C([H])(n3nc(-c4c([H])c([H])c(Oc5c([H])c([H])c(F)c([H])c5F)c([H])c4[H])c(C(=O)N([H])[H])c3N([H])[H])C2([H])[H])C([H])(C([H])([H])[H])[N+]([H])(C([H])([H])[H])C([H])([H])C1([H])C([H])([H])[H]

$$$$
83:0:0
     RDKit          3D

 93102  0  0  1  0  0  0  0  0999 V2000
  -29.8480  -21.0390   20.6720 C   0  0  0  0  0  2  0  0  0  0  0  0
  -28.9260  -21.3220   18.5200 C   0  0  0  0  0  2  0  0  0  0  0  0
  -29.6690  -22.1480   19.6050 C   0  0  0  0  0  3  0  0  0  0  0  0
  -30.1310  -19.7340   19.8800 C   0  0  0  0  0  3  0  0  0  0  0  0
  -29.5200  -19.9560   18.5450 N   0  0  0  0  0  4  0  0  0  0  0  0
  -30.2580  -19.9300   17.8580 H   0  0  0  0  0  0  0  0  0  0  0  0
  -28.8450  -19.2550   18.2780 H   0  0  0  0  0  0  0  0  0  0  0  0
  -30.6420  -14.6580   20.3030 C   0  0  0  0  0  0  0  0  0  0  0  0
  -30.3640  -12.4310   19.2500 C   0  0  0  0  0  2  0  0  0  0  0  0
  -29.4240  -12.5570   18.0330 C   0  0  0  0  0  2  0  0  0  0  0  0
  -27.9470  -12.3820   18.4590 C   0  0  0  0  0  2  0  0  0  0  0  0
  -27.5910  -13.2170   19.7090 C   0  0  0  0  0  3  0  0  0  0  0  0
  -28.6670  -13.1120   20.8180 C   0  0  0  0  0  2  0  0  0  0  0  0
  -29.9520  -13.4750   20.2130 N   0  0  0  0  0  0  0  0  0  0  0  0
  -31.8490  -14.6680   20.0380 O   0  0  0  0  0  0  0  0  0  0  0  0
  -28.3820  -17.7820   20.5300 C   0  0  0  0  0  2  0  0  0  0  0  0
  -28.5840  -16.2620   20.3130 C   0  0  0  0  0  2  0  0  0  0  0  0
  -30.7420  -17.1640   20.3540 C   0  0  0  0  0  2  0  0  0  0  0  0
  -29.7940  -18.3690   20.6100 C   0  0  0  0  0  3  0  0  0  0  0  0
  -30.0010  -15.8840   20.4610 N   0  0  0  0  0  0  0  0  0  0  0  0
  -25.2120  -13.8480   20.4270 C   0  0  0  0  0  0  0  0  0  0  0  0
  -24.1440  -13.0840   20.8050 C   0  0  0  0  0  0  0  0  0  0  0  0
  -24.6070  -11.7340   20.7950 C   0  0  0  0  0  0  0  0  0  0  0  0
  -26.2520  -12.9580   20.2080 N   0  0  0  0  0  0  0  0  0  0  0  0
  -25.8970  -11.6830   20.4940 N   0  0  0  0  0  0  0  0  0  0  0  0
  -23.8850  -10.4750   20.9950 C   0  0  0  0  0  0  0  0  0  0  0  0
  -24.3280   -9.5160   21.9340 C   0  0  0  0  0  3  0  0  0  0  0  0
  -23.6080   -8.3180   22.1230 C   0  0  0  0  0  3  0  0  0  0  0  0
  -22.4320   -8.0720   21.3690 C   0  0  0  0  0  0  0  0  0  0  0  0
  -22.0110   -9.0220   20.4230 C   0  0  0  0  0  3  0  0  0  0  0  0
  -22.7320  -10.2130   20.2320 C   0  0  0  0  0  3  0  0  0  0  0  0
  -21.6840   -6.9260   21.4670 O   0  0  0  0  0  0  0  0  0  0  0  0
  -21.6500   -6.1860   22.6210 C   0  0  0  0  0  0  0  0  0  0  0  0
  -21.2340   -6.7420   23.8490 C   0  0  0  0  0  3  0  0  0  0  0  0
  -21.1460   -5.9270   24.9980 C   0  0  0  0  0  3  0  0  0  0  0  0
  -21.4660   -4.5590   24.9180 C   0  0  0  0  0  0  0  0  0  0  0  0
  -21.8770   -4.0030   23.6930 C   0  0  0  0  0  3  0  0  0  0  0  0
  -21.9650   -4.8120   22.5480 C   0  0  0  0  0  0  0  0  0  0  0  0
  -22.3400   -4.2660   21.3650 F   0  0  0  0  0  0  0  0  0  0  0  0
  -21.3760   -3.7740   26.0190 F   0  0  0  0  0  0  0  0  0  0  0  0
  -22.7500  -13.5700   21.0690 C   0  0  0  0  0  0  0  0  0  0  0  0
  -22.0280  -12.8790   21.9420 N   0  0  0  0  0  0  0  0  0  0  0  0
  -22.3150  -14.5920   20.5420 O   0  0  0  0  0  0  0  0  0  0  0  0
  -22.4000  -12.0450   22.3690 H   0  0  0  0  0  0  0  0  0  0  0  0
  -21.0920  -13.1800   22.1760 H   0  0  0  0  0  0  0  0  0  0  0  0
  -25.3620  -15.2180   20.2290 N   0  0  0  0  0  0  0  0  0  0  0  0
  -24.5900  -15.8630   20.3410 H   0  0  0  0  0  0  0  0  0  0  0  0
  -26.2180  -15.6560   19.9180 H   0  0  0  0  0  0  0  0  0  0  0  0
  -29.9220  -24.1010   21.0780 C   0  0  0  0  0  1  0  0  0  0  0  0
  -29.0220  -23.3700   20.1690 N   0  0  0  0  0  0  0  0  0  0  0  0
  -28.3180  -24.2550   19.2000 C   0  0  0  0  0  2  0  0  0  0  0  0
  -28.6810  -25.7840   19.0670 C   0  0  0  0  0  2  0  0  0  0  0  0
  -28.4060  -26.7030   20.1500 O   0  0  0  0  0  0  0  0  0  0  0  0
  -24.5880  -31.9010   23.2490 C   0  0  0  0  0  0  0  0  0  0  0  0
  -27.2310  -27.4400   20.1430 C   0  0  0  0  0  0  0  0  0  0  0  0
  -23.3800  -30.4970   21.6110 C   0  0  0  0  0  3  0  0  0  0  0  0
  -24.8310  -28.9540   20.1830 C   0  0  0  0  0  0  0  0  0  0  0  0
  -25.9090  -30.8460   21.4160 C   0  0  0  0  0  2  0  0  0  0  0  0
  -25.9940  -29.4740   20.7680 C   0  0  0  0  0  0  0  0  0  0  0  0
  -27.1920  -28.7200   20.7570 C   0  0  0  0  0  3  0  0  0  0  0  0
  -26.0450  -26.9380   19.5680 C   0  0  0  0  0  3  0  0  0  0  0  0
  -24.8500  -27.6810   19.5920 C   0  0  0  0  0  3  0  0  0  0  0  0
  -23.5890  -29.8150   20.2310 C   0  0  0  0  0  2  0  0  0  0  0  0
  -24.6430  -31.0980   22.1480 N   0  0  0  0  0  0  0  0  0  0  0  0
  -23.5080  -32.1740   23.7900 O   0  0  0  0  0  0  0  0  0  0  0  0
  -22.7300  -29.4770   22.5730 C   0  0  0  0  0  0  0  0  0  0  0  0
  -21.4070  -29.2910   22.4470 N   0  0  0  0  0  0  0  0  0  0  0  0
  -23.4160  -28.8520   23.3870 O   0  0  0  0  0  0  0  0  0  0  0  0
  -20.9160  -29.8500   21.7620 H   0  0  0  0  0  0  0  0  0  0  0  0
  -18.0310  -28.0930   22.9430 C   0  0  0  0  0  0  0  0  0  0  0  0
  -20.5890  -28.3520   23.2150 C   0  0  0  0  0  3  0  0  0  0  0  0
  -20.6940  -26.9220   22.6410 C   0  0  0  0  0  2  0  0  0  0  0  0
  -19.5940  -26.5950   21.6270 C   0  0  0  0  0  2  0  0  0  0  0  0
  -18.2100  -26.7420   22.2670 C   0  0  0  0  0  2  0  0  0  0  0  0
  -19.1490  -28.8550   23.3730 C   0  0  0  0  0  0  0  0  0  0  0  0
  -18.9340  -30.1190   23.9620 C   0  0  0  0  0  3  0  0  0  0  0  0
  -17.6310  -30.6220   24.1270 C   0  0  0  0  0  3  0  0  0  0  0  0
  -16.5250  -29.8560   23.7180 C   0  0  0  0  0  3  0  0  0  0  0  0
  -16.7260  -28.5940   23.1310 C   0  0  0  0  0  3  0  0  0  0  0  0
  -25.8760  -32.5340   23.8660 C   0  0  0  0  0  3  0  0  0  0  0  0
  -26.3920  -31.7730   25.1490 C   0  0  1  0  0  0  0  0  0  0  0  0
  -25.2990  -31.5420   26.2180 C   0  0  0  0  0  1  0  0  0  0  0  0
  -26.9810  -30.3960   24.7640 C   0  0  0  0  0  1  0  0  0  0  0  0
  -27.5360  -32.5790   25.8110 C   0  0  0  0  0  1  0  0  0  0  0  0
  -25.5660  -33.9340   24.1850 N   0  0  0  0  0  0  0  0  0  0  0  0
  -25.8970  -34.9830   23.4200 C   0  0  0  0  0  0  0  0  0  0  0  0
  -26.5700  -34.8730   22.3900 O   0  0  0  0  0  0  0  0  0  0  0  0
  -24.9870  -34.0950   24.9940 H   0  0  0  0  0  0  0  0  0  0  0  0
  -24.1720  -36.7700   23.0480 C   0  0  0  0  0  1  0  0  0  0  0  0
  -25.4070  -36.3710   23.8710 C   0  0  0  0  0  3  0  0  0  0  0  0
  -27.5330  -37.2590   24.7130 C   0  0  0  0  0  1  0  0  0  0  0  0
  -26.4360  -37.4280   23.7650 N   0  0  0  0  0  0  0  0  0  0  0  0
  -26.0260  -38.3470   23.9120 H   0  0  0  0  0  0  0  0  0  0  0  0
  2  5  1  0
  2  3  1  0
  3 50  1  0
  3  1  1  0
  4 19  1  0
  4  1  1  0
  5  4  1  0
  6  5  1  0
  7  5  1  0
  8 20  1  0
  9 14  1  0
 10 11  1  0
 10  9  1  0
 12 11  1  0
 12 24  1  0
 12 13  1  0
 14  8  1  0
 14 13  1  0
 15  8  2  0
 16 19  1  0
 17 20  1  0
 17 16  1  0
 18 20  1  0
 19 18  1  0
 21 22  2  0
 22 41  1  0
 23 22  1  0
 23 26  1  0
 24 21  1  0
 24 25  1  0
 25 23  2  0
 26 27  1  0
 27 28  2  0
 29 32  1  0
 29 28  1  0
 30 29  2  0
 31 30  1  0
 31 26  2  0
 32 33  1  0
 33 34  1  0
 34 35  2  0
 36 35  1  0
 36 40  1  0
 37 36  2  0
 38 33  2  0
 38 37  1  0
 39 38  1  0
 41 42  1  0
 42 45  1  0
 42 44  1  0
 43 41  2  0
 46 47  1  0
 46 21  1  0
 48 46  1  0
 50 49  1  0
 51 50  1  0
 52 51  1  0
 52 53  1  0
 54 65  2  0
 55 53  1  0
 55 60  1  0
 56 64  1  0
 56 66  1  0
 57 63  1  0
 57 59  1  0
 58 64  1  0
 59 58  1  0
 60 59  2  0
 61 62  1  0
 61 55  2  0
 62 57  2  0
 63 56  1  0
 64 54  1  0
 66 68  2  0
 67 66  1  0
 69 67  1  0
 70 79  2  0
 70 75  1  0
 71 67  1  0
 71 75  1  0
 72 71  1  0
 73 74  1  0
 73 72  1  0
 74 70  1  0
 75 76  2  0
 76 77  1  0
 78 77  2  0
 79 78  1  0
 80 54  1  0
 80 85  1  0
 80 81  1  0
 81 84  1  1
 81 82  1  0
 83 81  1  0
 85 88  1  0
 86 90  1  0
 86 85  1  0
 87 86  2  0
 90 89  1  0
 92 90  1  0
 92 93  1  0
 92 91  1  0
M  ISO  4   8 100  20 100  52 101  53 101
M  END
>  <TORSDO>  (82) 
F 19

>  <SCORE>  (82) 
-14.352

>  <name>  (82) 
83

>  <ligand_id>  (82) 
83

>  <original_smiles>  (82) 
[H]c1c([H])c([H])c2c(c1[H])C([H])([H])C([H])([H])C([H])([H])C2([H])N([H])C(=O)C1([H])N(C(=O)C([H])(N([H])C(=O)C([H])(N([H])C([H])([H])[H])C([H])([H])[H])C(C([H])([H])[H])(C([H])([H])[H])C([H])([H])[H])C([H])([H])c2c([H])c(OC([H])([H])C([H])([H])N(C([H])([H])[H])C3([H])C([H])([H])C([H])(C4([H])C([H])([H])N(C(=O)N5C([H])([H])C([H])([H])C([H])([H])C([H])(n6nc(-c7c([H])c([H])c(Oc8c([H])c([H])c(F)c([H])c8F)c([H])c7[H])c(C(=O)N([H])[H])c6N([H])[H])C5([H])[H])C([H])([H])C4([H])[H])[N+]([H])([H])C3([H])[H])c([H])c([H])c2C1([H])[H]

>  <smiles>  (82) 
[H]c1c([H])c([H])c2c(c1[H])C([H])([H])C([H])([H])C([H])([H])C2([H])N([H])C(=O)C1([H])N(C(=O)C([H])(N([H])C(=O)C([H])(N([H])C([H])([H])[H])C([H])([H])[H])C(C([H])([H])[H])(C([H])([H])[H])C([H])([H])[H])C([H])([H])c2c([H])c(OC([H])([H])C([H])([H])N(C([H])([H])[H])C3([H])C([H])([H])C([H])(C4([H])C([H])([H])N(C(=O)N5C([H])([H])C([H])([H])C([H])([H])C([H])(n6nc(-c7c([H])c([H])c(Oc8c([H])c([H])c(F)c([H])c8F)c([H])c7[H])c(C(=O)N([H])[H])c6N([H])[H])C5([H])[H])C([H])([H])C4([H])[H])[N+]([H])([H])C3([H])[H])c([H])c([H])c2C1([H])[H]

$$$$
84:0:0
     RDKit          3D

 94104  0  0  1  0  0  0  0  0999 V2000
  -28.9810  -22.4230   17.7350 C   0  0  0  0  0  3  0  0  0  0  0  0
  -28.8060  -23.6510   18.3980 C   0  0  0  0  0  0  0  0  0  0  0  0
  -28.8840  -23.6340   19.8080 C   0  0  0  0  0  0  0  0  0  0  0  0
  -29.3330  -21.2570   19.6720 C   0  0  0  0  0  0  0  0  0  0  0  0
  -30.3680  -18.1460   21.7100 C   0  0  0  0  0  2  0  0  0  0  0  0
  -30.2400  -19.6930   21.5220 C   0  0  0  0  0  2  0  0  0  0  0  0
  -29.6090  -18.5990   19.5210 C   0  0  0  0  0  2  0  0  0  0  0  0
  -30.4780  -17.5040   20.3110 C   0  0  0  0  0  3  0  0  0  0  0  0
  -29.2270  -21.2560   18.3580 N   0  0  0  0  0  0  0  0  0  0  0  0
  -29.1720  -22.3980   20.4180 N   0  0  0  0  0  0  0  0  0  0  0  0
  -29.6290  -19.9420   20.2210 N   0  0  0  0  0  0  0  0  0  0  0  0
  -30.8910  -14.8550   20.0840 C   0  0  0  0  0  0  0  0  0  0  0  0
  -30.6810  -12.5430   19.1270 C   0  0  0  0  0  2  0  0  0  0  0  0
  -29.6980  -12.5670   17.9350 C   0  0  0  0  0  2  0  0  0  0  0  0
  -28.2460  -12.3940   18.4200 C   0  0  0  0  0  2  0  0  0  0  0  0
  -27.9090  -13.3100   19.6280 C   0  0  0  0  0  3  0  0  0  0  0  0
  -29.0070  -13.2610   20.7110 C   0  0  0  0  0  2  0  0  0  0  0  0
  -30.2720  -13.6210   20.0600 N   0  0  0  0  0  0  0  0  0  0  0  0
  -32.0750  -14.9420   19.7450 O   0  0  0  0  0  0  0  0  0  0  0  0
  -30.1160  -16.0000   20.2880 N   0  0  0  0  0  0  0  0  0  0  0  0
  -29.1470  -15.7990   20.4790 H   0  0  0  0  0  0  0  0  0  0  0  0
  -25.5710  -13.9200   20.4840 C   0  0  0  0  0  0  0  0  0  0  0  0
  -24.5080  -13.1550   20.8780 C   0  0  0  0  0  0  0  0  0  0  0  0
  -24.9420  -11.7970   20.7840 C   0  0  0  0  0  0  0  0  0  0  0  0
  -26.5850  -13.0290   20.1720 N   0  0  0  0  0  0  0  0  0  0  0  0
  -26.2180  -11.7440   20.4180 N   0  0  0  0  0  0  0  0  0  0  0  0
  -24.1990  -10.5440   20.9670 C   0  0  0  0  0  0  0  0  0  0  0  0
  -24.6030   -9.5760   21.9130 C   0  0  0  0  0  3  0  0  0  0  0  0
  -23.8590   -8.3880   22.0830 C   0  0  0  0  0  3  0  0  0  0  0  0
  -22.6980   -8.1590   21.3070 C   0  0  0  0  0  0  0  0  0  0  0  0
  -22.3130   -9.1150   20.3500 C   0  0  0  0  0  3  0  0  0  0  0  0
  -23.0570  -10.2950   20.1780 C   0  0  0  0  0  3  0  0  0  0  0  0
  -21.9290   -7.0230   21.3860 O   0  0  0  0  0  0  0  0  0  0  0  0
  -21.7820   -6.3340   22.5630 C   0  0  0  0  0  0  0  0  0  0  0  0
  -21.2020   -6.9260   23.7060 C   0  0  0  0  0  3  0  0  0  0  0  0
  -21.0080   -6.1590   24.8730 C   0  0  0  0  0  3  0  0  0  0  0  0
  -21.3830   -4.8030   24.8960 C   0  0  0  0  0  0  0  0  0  0  0  0
  -21.9570   -4.2110   23.7570 C   0  0  0  0  0  3  0  0  0  0  0  0
  -22.1520   -4.9740   22.5930 C   0  0  0  0  0  0  0  0  0  0  0  0
  -22.6850   -4.3940   21.4910 F   0  0  0  0  0  0  0  0  0  0  0  0
  -21.1900   -4.0640   26.0140 F   0  0  0  0  0  0  0  0  0  0  0  0
  -23.1340  -13.6500   21.2230 C   0  0  0  0  0  0  0  0  0  0  0  0
  -22.4290  -12.9410   22.0970 N   0  0  0  0  0  0  0  0  0  0  0  0
  -22.6960  -14.7000   20.7530 O   0  0  0  0  0  0  0  0  0  0  0  0
  -22.7980  -12.0910   22.4980 H   0  0  0  0  0  0  0  0  0  0  0  0
  -21.5070  -13.2510   22.3700 H   0  0  0  0  0  0  0  0  0  0  0  0
  -25.7540  -15.2920   20.3380 N   0  0  0  0  0  0  0  0  0  0  0  0
  -25.0000  -15.9520   20.4960 H   0  0  0  0  0  0  0  0  0  0  0  0
  -26.5780  -15.7230   19.9420 H   0  0  0  0  0  0  0  0  0  0  0  0
  -28.9710  -25.0840   16.1830 C   0  0  0  0  0  2  0  0  0  0  0  0
  -29.5340  -25.9300   17.2960 C   0  0  0  0  0  2  0  0  0  0  0  0
  -28.4810  -24.8880   17.6040 C   0  0  0  0  0  3  0  0  0  0  0  0
  -28.4930  -24.9430   20.6720 C   0  0  0  0  0  2  0  0  0  0  0  0
  -28.6560  -26.3810   20.1990 O   0  0  0  0  0  0  0  0  0  0  0  0
  -24.6120  -31.7240   23.1250 C   0  0  0  0  0  0  0  0  0  0  0  0
  -27.5300  -27.2450   20.1570 C   0  0  0  0  0  0  0  0  0  0  0  0
  -23.5440  -30.3000   21.4160 C   0  0  0  0  0  3  0  0  0  0  0  0
  -25.1190  -28.8170   20.0450 C   0  0  0  0  0  0  0  0  0  0  0  0
  -26.0810  -30.7050   21.3570 C   0  0  0  0  0  2  0  0  0  0  0  0
  -26.2470  -29.3320   20.6970 C   0  0  0  0  0  0  0  0  0  0  0  0
  -27.4600  -28.5640   20.7330 C   0  0  0  0  0  3  0  0  0  0  0  0
  -26.3740  -26.7980   19.4840 C   0  0  0  0  0  3  0  0  0  0  0  0
  -25.1900  -27.5590   19.4260 C   0  0  0  0  0  3  0  0  0  0  0  0
  -23.8510  -29.6500   20.0420 C   0  0  0  0  0  2  0  0  0  0  0  0
  -24.7620  -30.9280   22.0230 N   0  0  0  0  0  0  0  0  0  0  0  0
  -23.4940  -31.9510   23.6110 O   0  0  0  0  0  0  0  0  0  0  0  0
  -22.8750  -29.2490   22.3350 C   0  0  0  0  0  0  0  0  0  0  0  0
  -21.5520  -29.0610   22.1840 N   0  0  0  0  0  0  0  0  0  0  0  0
  -23.5480  -28.6040   23.1450 O   0  0  0  0  0  0  0  0  0  0  0  0
  -21.0680  -29.6310   21.5040 H   0  0  0  0  0  0  0  0  0  0  0  0
  -18.1710  -27.8560   22.6540 C   0  0  0  0  0  0  0  0  0  0  0  0
  -20.7340  -28.0900   22.9130 C   0  0  0  0  0  3  0  0  0  0  0  0
  -20.8230  -26.6890   22.2640 C   0  0  0  0  0  2  0  0  0  0  0  0
  -19.7100  -26.4240   21.2440 C   0  0  0  0  0  2  0  0  0  0  0  0
  -18.3350  -26.5430   21.9070 C   0  0  0  0  0  2  0  0  0  0  0  0
  -19.2980  -28.5900   23.1120 C   0  0  0  0  0  0  0  0  0  0  0  0
  -19.0910  -29.8200   23.7730 C   0  0  0  0  0  3  0  0  0  0  0  0
  -17.7900  -30.3170   23.9790 C   0  0  0  0  0  3  0  0  0  0  0  0
  -16.6780  -29.5790   23.5360 C   0  0  0  0  0  3  0  0  0  0  0  0
  -16.8700  -28.3500   22.8800 C   0  0  0  0  0  3  0  0  0  0  0  0
  -25.8350  -32.4020   23.8140 C   0  0  0  0  0  3  0  0  0  0  0  0
  -25.4510  -33.7840   24.1450 N   0  0  0  0  0  0  0  0  0  0  0  0
  -25.7540  -34.8580   23.4020 C   0  0  0  0  0  0  0  0  0  0  0  0
  -26.4530  -34.7930   22.3880 O   0  0  0  0  0  0  0  0  0  0  0  0
  -24.8330  -33.9040   24.9320 H   0  0  0  0  0  0  0  0  0  0  0  0
  -23.9520  -36.5730   23.0220 C   0  0  0  0  0  1  0  0  0  0  0  0
  -25.1930  -36.2190   23.8580 C   0  0  0  0  0  3  0  0  0  0  0  0
  -27.2570  -37.2050   24.7540 C   0  0  0  0  0  1  0  0  0  0  0  0
  -26.1780  -37.3200   23.7750 N   0  0  0  0  0  0  0  0  0  0  0  0
  -25.7250  -38.2200   23.9080 H   0  0  0  0  0  0  0  0  0  0  0  0
  -26.3200  -31.6400   25.1080 C   0  0  1  0  0  0  0  0  0  0  0  0
  -25.1870  -31.3450   26.1180 C   0  0  0  0  0  1  0  0  0  0  0  0
  -26.9800  -30.2920   24.7350 C   0  0  0  0  0  1  0  0  0  0  0  0
  -27.4030  -32.4750   25.8330 C   0  0  0  0  0  1  0  0  0  0  0  0
  1  9  1  0
  1  2  2  0
  2  3  1  0
  3 10  2  0
  3 53  1  0
  4 11  1  0
  4 10  1  0
  6  5  1  0
  7 11  1  0
  7  8  1  0
  8 20  1  0
  8  5  1  0
  9  4  2  0
 11  6  1  0
 12 20  1  0
 13 18  1  0
 14 15  1  0
 14 13  1  0
 16 15  1  0
 16 25  1  0
 16 17  1  0
 18 12  1  0
 18 17  1  0
 19 12  2  0
 20 21  1  0
 22 23  2  0
 23 42  1  0
 24 23  1  0
 24 27  1  0
 25 26  1  0
 25 22  1  0
 26 24  2  0
 27 28  1  0
 28 29  2  0
 30 33  1  0
 30 29  1  0
 31 30  2  0
 32 31  1  0
 32 27  2  0
 33 34  1  0
 34 39  2  0
 34 35  1  0
 35 36  2  0
 36 37  1  0
 37 41  1  0
 38 37  2  0
 39 38  1  0
 40 39  1  0
 42 43  1  0
 43 46  1  0
 43 45  1  0
 44 42  2  0
 47 22  1  0
 47 48  1  0
 49 47  1  0
 50 51  1  0
 50 52  1  0
 51 52  1  0
 52  2  1  0
 54 53  1  0
 55 66  2  0
 56 54  1  0
 56 61  1  0
 57 65  1  0
 57 67  1  0
 58 60  1  0
 59 65  1  0
 60 61  2  0
 60 59  1  0
 62 56  2  0
 63 62  1  0
 63 58  2  0
 64 58  1  0
 64 57  1  0
 65 55  1  0
 67 69  2  0
 68 67  1  0
 70 68  1  0
 71 80  2  0
 71 76  1  0
 72 68  1  0
 72 76  1  0
 73 72  1  0
 74 75  1  0
 74 73  1  0
 75 71  1  0
 76 77  2  0
 77 78  1  0
 79 78  2  0
 80 79  1  0
 81 55  1  0
 81 82  1  0
 81 91  1  0
 82 85  1  0
 83 87  1  0
 83 82  1  0
 84 83  2  0
 87 86  1  0
 89 87  1  0
 89 90  1  0
 89 88  1  0
 91 94  1  1
 91 92  1  0
 93 91  1  0
M  ISO  4  12 100  20 100  53 101  54 101
M  END
>  <TORSDO>  (83) 
F 18

>  <SCORE>  (83) 
-14.228

>  <name>  (83) 
84

>  <ligand_id>  (83) 
84

>  <original_smiles>  (83) 
[H]c1nc(N2C([H])([H])C([H])([H])C([H])(N([H])C(=O)N3C([H])([H])C([H])([H])C([H])([H])C([H])(n4nc(-c5c([H])c([H])c(Oc6c([H])c([H])c(F)c([H])c6F)c([H])c5[H])c(C(=O)N([H])[H])c4N([H])[H])C3([H])[H])C2([H])[H])nc(C([H])([H])Oc2c([H])c([H])c3c(c2[H])C([H])([H])N(C(=O)C([H])(N([H])C(=O)C([H])(N([H])C([H])([H])[H])C([H])([H])[H])C(C([H])([H])[H])(C([H])([H])[H])C([H])([H])[H])C([H])(C(=O)N([H])C2([H])c4c([H])c([H])c([H])c([H])c4C([H])([H])C([H])([H])C2([H])[H])C3([H])[H])c1C1([H])C([H])([H])C1([H])[H]

>  <smiles>  (83) 
[H]c1nc(N2C([H])([H])C([H])([H])C([H])(N([H])C(=O)N3C([H])([H])C([H])([H])C([H])([H])C([H])(n4nc(-c5c([H])c([H])c(Oc6c([H])c([H])c(F)c([H])c6F)c([H])c5[H])c(C(=O)N([H])[H])c4N([H])[H])C3([H])[H])C2([H])[H])nc(C([H])([H])Oc2c([H])c([H])c3c(c2[H])C([H])([H])N(C(=O)C([H])(N([H])C(=O)C([H])(N([H])C([H])([H])[H])C([H])([H])[H])C(C([H])([H])[H])(C([H])([H])[H])C([H])([H])[H])C([H])(C(=O)N([H])C2([H])c4c([H])c([H])c([H])c([H])c4C([H])([H])C([H])([H])C2([H])[H])C3([H])[H])c1C1([H])C([H])([H])C1([H])[H]

$$$$
85:0:0
     RDKit          3D

 92101  0  0  1  0  0  0  0  0999 V2000
  -30.9790  -20.9620   20.8010 C   0  0  0  0  0  2  0  0  0  0  0  0
  -30.9150  -22.4970   20.9130 C   0  0  0  0  0  2  0  0  0  0  0  0
  -28.7620  -21.8030   20.4810 C   0  0  0  0  0  2  0  0  0  0  0  0
  -29.6330  -20.5270   20.2170 C   0  0  0  0  0  3  0  0  0  0  0  0
  -29.6810  -22.9390   20.2520 N   0  0  0  0  0  0  0  0  0  0  0  0
  -29.0970  -19.2180   20.7440 N   0  0  0  0  0  4  0  0  0  0  0  0
  -28.7790  -19.3550   21.6890 H   0  0  0  0  0  0  0  0  0  0  0  0
  -28.2760  -19.0150   20.1960 H   0  0  0  0  0  0  0  0  0  0  0  0
  -30.6530  -14.5280   20.1570 C   0  0  0  0  0  0  0  0  0  0  0  0
  -30.2610  -12.3890   18.9630 C   0  0  0  0  0  2  0  0  0  0  0  0
  -29.2650  -12.6110   17.8070 C   0  0  0  0  0  2  0  0  0  0  0  0
  -27.8180  -12.4580   18.3110 C   0  0  0  0  0  2  0  0  0  0  0  0
  -27.5470  -13.2750   19.6040 C   0  0  0  0  0  3  0  0  0  0  0  0
  -28.6570  -13.0520   20.6550 C   0  0  0  0  0  2  0  0  0  0  0  0
  -29.9450  -13.3670   20.0240 N   0  0  0  0  0  0  0  0  0  0  0  0
  -31.7400  -14.6910   19.5940 O   0  0  0  0  0  0  0  0  0  0  0  0
  -30.5860  -17.6400   22.0720 C   0  0  0  0  0  2  0  0  0  0  0  0
  -30.9350  -16.1410   21.9810 C   0  0  0  0  0  2  0  0  0  0  0  0
  -29.2980  -16.6370   20.3520 C   0  0  0  0  0  2  0  0  0  0  0  0
  -29.9810  -17.9920   20.7160 C   0  0  0  0  0  3  0  0  0  0  0  0
  -30.1140  -15.5290   20.9190 N   0  0  0  0  0  0  0  0  0  0  0  0
  -25.1970  -13.8800   20.4500 C   0  0  0  0  0  0  0  0  0  0  0  0
  -24.1440  -13.1080   20.8570 C   0  0  0  0  0  0  0  0  0  0  0  0
  -24.5910  -11.7530   20.7730 C   0  0  0  0  0  0  0  0  0  0  0  0
  -26.2210  -12.9960   20.1460 N   0  0  0  0  0  0  0  0  0  0  0  0
  -25.8620  -11.7110   20.3980 N   0  0  0  0  0  0  0  0  0  0  0  0
  -23.8620  -10.4930   20.9730 C   0  0  0  0  0  0  0  0  0  0  0  0
  -24.3060   -9.5200   21.8950 C   0  0  0  0  0  3  0  0  0  0  0  0
  -23.5790   -8.3250   22.0810 C   0  0  0  0  0  3  0  0  0  0  0  0
  -22.3910   -8.0960   21.3470 C   0  0  0  0  0  0  0  0  0  0  0  0
  -21.9660   -9.0570   20.4120 C   0  0  0  0  0  3  0  0  0  0  0  0
  -22.6940  -10.2440   20.2240 C   0  0  0  0  0  3  0  0  0  0  0  0
  -21.6330   -6.9540   21.4440 O   0  0  0  0  0  0  0  0  0  0  0  0
  -21.5740   -6.2260   22.6050 C   0  0  0  0  0  0  0  0  0  0  0  0
  -21.1410   -6.7970   23.8220 C   0  0  0  0  0  3  0  0  0  0  0  0
  -21.0300   -5.9950   24.9760 C   0  0  0  0  0  3  0  0  0  0  0  0
  -21.3420   -4.6240   24.9150 C   0  0  0  0  0  0  0  0  0  0  0  0
  -21.7690   -4.0530   23.7030 C   0  0  0  0  0  3  0  0  0  0  0  0
  -21.8820   -4.8520   22.5510 C   0  0  0  0  0  0  0  0  0  0  0  0
  -22.2730   -4.2910   21.3810 F   0  0  0  0  0  0  0  0  0  0  0  0
  -21.2280   -3.8520   26.0210 F   0  0  0  0  0  0  0  0  0  0  0  0
  -22.7670  -13.5910   21.2100 C   0  0  0  0  0  0  0  0  0  0  0  0
  -22.0750  -12.8780   22.0930 N   0  0  0  0  0  0  0  0  0  0  0  0
  -22.3160  -14.6340   20.7390 O   0  0  0  0  0  0  0  0  0  0  0  0
  -22.4550  -12.0350   22.4950 H   0  0  0  0  0  0  0  0  0  0  0  0
  -21.1520  -13.1840   22.3700 H   0  0  0  0  0  0  0  0  0  0  0  0
  -25.3650  -15.2530   20.2900 N   0  0  0  0  0  0  0  0  0  0  0  0
  -24.6040  -15.9060   20.4330 H   0  0  0  0  0  0  0  0  0  0  0  0
  -26.1910  -15.6830   19.8960 H   0  0  0  0  0  0  0  0  0  0  0  0
  -29.3190  -24.3020   20.7450 C   0  0  0  0  0  2  0  0  0  0  0  0
  -28.2870  -25.1520   19.9290 C   0  0  0  0  0  2  0  0  0  0  0  0
  -28.3570  -26.5830   20.2320 O   0  0  0  0  0  0  0  0  0  0  0  0
  -24.5950  -31.8890   23.2370 C   0  0  0  0  0  0  0  0  0  0  0  0
  -27.2050  -27.3660   20.1740 C   0  0  0  0  0  0  0  0  0  0  0  0
  -23.3840  -30.4880   21.6010 C   0  0  0  0  0  3  0  0  0  0  0  0
  -24.8290  -28.9390   20.1740 C   0  0  0  0  0  0  0  0  0  0  0  0
  -25.9180  -30.8160   21.4090 C   0  0  0  0  0  2  0  0  0  0  0  0
  -25.9940  -29.4390   20.7680 C   0  0  0  0  0  0  0  0  0  0  0  0
  -27.1830  -28.6610   20.7620 C   0  0  0  0  0  3  0  0  0  0  0  0
  -26.0210  -26.9080   19.5500 C   0  0  0  0  0  3  0  0  0  0  0  0
  -24.8420  -27.6770   19.5580 C   0  0  0  0  0  3  0  0  0  0  0  0
  -23.5910  -29.8080   20.2220 C   0  0  0  0  0  2  0  0  0  0  0  0
  -24.6510  -31.0810   22.1390 N   0  0  0  0  0  0  0  0  0  0  0  0
  -23.5140  -32.1690   23.7740 O   0  0  0  0  0  0  0  0  0  0  0  0
  -22.7260  -29.4730   22.5640 C   0  0  0  0  0  0  0  0  0  0  0  0
  -21.4000  -29.2990   22.4400 N   0  0  0  0  0  0  0  0  0  0  0  0
  -23.4060  -28.8440   23.3800 O   0  0  0  0  0  0  0  0  0  0  0  0
  -20.9110  -29.8570   21.7540 H   0  0  0  0  0  0  0  0  0  0  0  0
  -18.0190  -28.1290   22.9570 C   0  0  0  0  0  0  0  0  0  0  0  0
  -20.5790  -28.3670   23.2150 C   0  0  0  0  0  3  0  0  0  0  0  0
  -20.6680  -26.9360   22.6370 C   0  0  0  0  0  2  0  0  0  0  0  0
  -19.5580  -26.6220   21.6280 C   0  0  0  0  0  2  0  0  0  0  0  0
  -18.1800  -26.7790   22.2790 C   0  0  0  0  0  2  0  0  0  0  0  0
  -19.1450  -28.8820   23.3820 C   0  0  0  0  0  0  0  0  0  0  0  0
  -18.9400  -30.1460   23.9750 C   0  0  0  0  0  3  0  0  0  0  0  0
  -17.6400  -30.6580   24.1490 C   0  0  0  0  0  3  0  0  0  0  0  0
  -16.5280  -29.9020   23.7400 C   0  0  0  0  0  3  0  0  0  0  0  0
  -16.7180  -28.6390   23.1500 C   0  0  0  0  0  3  0  0  0  0  0  0
  -25.8820  -32.5190   23.8540 C   0  0  0  0  0  3  0  0  0  0  0  0
  -26.4040  -31.7460   25.1280 C   0  0  1  0  0  0  0  0  0  0  0  0
  -25.3150  -31.5040   26.1980 C   0  0  0  0  0  1  0  0  0  0  0  0
  -26.9850  -30.3680   24.7300 C   0  0  0  0  0  1  0  0  0  0  0  0
  -27.5570  -32.5380   25.7860 C   0  0  0  0  0  1  0  0  0  0  0  0
  -25.5740  -33.9180   24.1870 N   0  0  0  0  0  0  0  0  0  0  0  0
  -25.9040  -34.9710   23.4270 C   0  0  0  0  0  0  0  0  0  0  0  0
  -26.5690  -34.8680   22.3930 O   0  0  0  0  0  0  0  0  0  0  0  0
  -24.9830  -34.0710   24.9900 H   0  0  0  0  0  0  0  0  0  0  0  0
  -24.1760  -36.7640   23.0800 C   0  0  0  0  0  1  0  0  0  0  0  0
  -25.4190  -36.3580   23.8880 C   0  0  0  0  0  3  0  0  0  0  0  0
  -27.5570  -37.2400   24.7120 C   0  0  0  0  0  1  0  0  0  0  0  0
  -26.4510  -37.4120   23.7740 N   0  0  0  0  0  0  0  0  0  0  0  0
  -26.0460  -38.3310   23.9280 H   0  0  0  0  0  0  0  0  0  0  0  0
  1  2  1  0
  4  3  1  0
  4  6  1  0
  4  1  1  0
  5  3  1  0
  5 50  1  0
  5  2  1  0
  6  7  1  0
  8  6  1  0
  9 21  1  0
 10 15  1  0
 11 12  1  0
 11 10  1  0
 13 12  1  0
 13 25  1  0
 13 14  1  0
 15  9  1  0
 15 14  1  0
 16  9  2  0
 18 17  1  0
 19 20  1  0
 19 21  1  0
 20  6  1  0
 20 17  1  0
 21 18  1  0
 22 23  2  0
 23 42  1  0
 24 23  1  0
 24 27  1  0
 25 26  1  0
 25 22  1  0
 26 24  2  0
 27 28  1  0
 28 29  2  0
 30 33  1  0
 30 29  1  0
 31 30  2  0
 32 31  1  0
 32 27  2  0
 33 34  1  0
 34 35  1  0
 35 36  2  0
 37 36  1  0
 37 41  1  0
 38 37  2  0
 39 34  2  0
 39 38  1  0
 40 39  1  0
 42 43  1  0
 43 46  1  0
 43 45  1  0
 44 42  2  0
 47 48  1  0
 47 22  1  0
 49 47  1  0
 51 52  1  0
 51 50  1  0
 53 64  2  0
 54 52  1  0
 54 59  1  0
 55 63  1  0
 55 65  1  0
 56 62  1  0
 56 58  1  0
 57 63  1  0
 58 57  1  0
 59 58  2  0
 60 61  1  0
 60 54  2  0
 61 56  2  0
 62 55  1  0
 63 53  1  0
 65 67  2  0
 66 65  1  0
 68 66  1  0
 69 78  2  0
 69 74  1  0
 70 66  1  0
 70 74  1  0
 71 70  1  0
 72 73  1  0
 72 71  1  0
 73 69  1  0
 74 75  2  0
 75 76  1  0
 77 76  2  0
 78 77  1  0
 79 53  1  0
 79 84  1  0
 79 80  1  0
 80 83  1  1
 80 81  1  0
 82 80  1  0
 84 87  1  0
 85 89  1  0
 85 84  1  0
 86 85  2  0
 89 88  1  0
 91 89  1  0
 91 92  1  0
 91 90  1  0
M  ISO  4   9 100  21 100  51 101  52 101
M  END
>  <TORSDO>  (84) 
F 19

>  <SCORE>  (84) 
-14.438

>  <name>  (84) 
85

>  <ligand_id>  (84) 
85

>  <original_smiles>  (84) 
[H]c1c([H])c([H])c2c(c1[H])C([H])([H])C([H])([H])C([H])([H])C2([H])N([H])C(=O)C1([H])N(C(=O)C([H])(N([H])C(=O)C([H])(N([H])C([H])([H])[H])C([H])([H])[H])C(C([H])([H])[H])(C([H])([H])[H])C([H])([H])[H])C([H])([H])c2c([H])c(OC([H])([H])C([H])([H])N3C([H])([H])C([H])([H])C([H])([N+]([H])([H])C4([H])C([H])([H])N(C(=O)N5C([H])([H])C([H])([H])C([H])([H])C([H])(n6nc(-c7c([H])c([H])c(Oc8c([H])c([H])c(F)c([H])c8F)c([H])c7[H])c(C(=O)N([H])[H])c6N([H])[H])C5([H])[H])C([H])([H])C4([H])[H])C3([H])[H])c([H])c([H])c2C1([H])[H]

>  <smiles>  (84) 
[H]c1c([H])c([H])c2c(c1[H])C([H])([H])C([H])([H])C([H])([H])C2([H])N([H])C(=O)C1([H])N(C(=O)C([H])(N([H])C(=O)C([H])(N([H])C([H])([H])[H])C([H])([H])[H])C(C([H])([H])[H])(C([H])([H])[H])C([H])([H])[H])C([H])([H])c2c([H])c(OC([H])([H])C([H])([H])N3C([H])([H])C([H])([H])C([H])([N+]([H])([H])C4([H])C([H])([H])N(C(=O)N5C([H])([H])C([H])([H])C([H])([H])C([H])(n6nc(-c7c([H])c([H])c(Oc8c([H])c([H])c(F)c([H])c8F)c([H])c7[H])c(C(=O)N([H])[H])c6N([H])[H])C5([H])[H])C([H])([H])C4([H])[H])C3([H])[H])c([H])c([H])c2C1([H])[H]

$$$$
86:0:0
     RDKit          3D

 98108  0  0  1  0  0  0  0  0999 V2000
  -30.8820  -14.5000   20.3410 C   0  0  0  0  0  0  0  0  0  0  0  0
  -30.5640  -12.2540   19.3780 C   0  0  0  0  0  2  0  0  0  0  0  0
  -29.6610  -12.3390   18.1350 C   0  0  0  0  0  2  0  0  0  0  0  0
  -28.1850  -12.1940   18.5450 C   0  0  0  0  0  2  0  0  0  0  0  0
  -27.7950  -13.1570   19.6980 C   0  0  0  0  0  3  0  0  0  0  0  0
  -28.8250  -13.1120   20.8520 C   0  0  0  0  0  2  0  0  0  0  0  0
  -30.1720  -13.3390   20.2920 N   0  0  0  0  0  0  0  0  0  0  0  0
  -31.9520  -14.6530   19.7410 O   0  0  0  0  0  0  0  0  0  0  0  0
  -32.4710  -20.0690   20.8040 C   0  0  0  0  0  3  0  0  0  0  0  0
  -30.7610  -19.1290   21.5020 C   0  0  0  0  0  0  0  0  0  0  0  0
  -28.9440  -17.5210   21.3290 C   0  0  0  0  0  2  0  0  0  0  0  0
  -30.6810  -17.1610   22.9630 C   0  0  0  0  0  2  0  0  0  0  0  0
  -29.6120  -16.5160   20.3700 C   0  0  0  0  0  2  0  0  0  0  0  0
  -31.3380  -16.0950   22.0600 C   0  0  0  0  0  2  0  0  0  0  0  0
  -32.0860  -19.2650   21.7860 N   0  0  0  0  0  0  0  0  0  0  0  0
  -30.3140  -19.9010   20.5110 N   0  0  0  0  0  2  0  0  0  0  0  0
  -31.4430  -20.5010   20.0610 N   0  0  0  0  0  0  0  0  0  0  0  0
  -29.9610  -18.1530   22.1640 N   0  0  0  0  0  0  0  0  0  0  0  0
  -30.3910  -15.4980   21.0990 N   0  0  0  0  0  0  0  0  0  0  0  0
  -25.3960  -13.7880   20.3790 C   0  0  0  0  0  0  0  0  0  0  0  0
  -24.3210  -13.0310   20.7590 C   0  0  0  0  0  0  0  0  0  0  0  0
  -24.7770  -11.6750   20.7620 C   0  0  0  0  0  0  0  0  0  0  0  0
  -26.4380  -12.8980   20.1740 N   0  0  0  0  0  0  0  0  0  0  0  0
  -26.0680  -11.6240   20.4610 N   0  0  0  0  0  0  0  0  0  0  0  0
  -24.0440  -10.4210   20.9740 C   0  0  0  0  0  0  0  0  0  0  0  0
  -24.4790   -9.4620   21.9140 C   0  0  0  0  0  3  0  0  0  0  0  0
  -23.7460   -8.2710   22.1140 C   0  0  0  0  0  3  0  0  0  0  0  0
  -22.5650   -8.0330   21.3730 C   0  0  0  0  0  0  0  0  0  0  0  0
  -22.1480   -8.9820   20.4210 C   0  0  0  0  0  3  0  0  0  0  0  0
  -22.8820  -10.1610   20.2190 C   0  0  0  0  0  3  0  0  0  0  0  0
  -21.8030   -6.8930   21.4800 O   0  0  0  0  0  0  0  0  0  0  0  0
  -21.7840   -6.1470   22.6320 C   0  0  0  0  0  0  0  0  0  0  0  0
  -21.4080   -6.7050   23.8730 C   0  0  0  0  0  3  0  0  0  0  0  0
  -21.3320   -5.8870   25.0170 C   0  0  0  0  0  3  0  0  0  0  0  0
  -21.6240   -4.5120   24.9210 C   0  0  0  0  0  0  0  0  0  0  0  0
  -21.9940   -3.9560   23.6850 C   0  0  0  0  0  3  0  0  0  0  0  0
  -22.0700   -4.7710   22.5420 C   0  0  0  0  0  0  0  0  0  0  0  0
  -22.4050   -4.2240   21.3480 F   0  0  0  0  0  0  0  0  0  0  0  0
  -21.5460   -3.7270   26.0180 F   0  0  0  0  0  0  0  0  0  0  0  0
  -22.9230  -13.5200   21.0120 C   0  0  0  0  0  0  0  0  0  0  0  0
  -22.1890  -12.8510   21.8940 N   0  0  0  0  0  0  0  0  0  0  0  0
  -22.4900  -14.5310   20.4600 O   0  0  0  0  0  0  0  0  0  0  0  0
  -22.5540  -12.0310   22.3570 H   0  0  0  0  0  0  0  0  0  0  0  0
  -21.2520  -13.1590   22.1090 H   0  0  0  0  0  0  0  0  0  0  0  0
  -25.5670  -15.1540   20.1720 N   0  0  0  0  0  0  0  0  0  0  0  0
  -24.7960  -15.8090   20.2510 H   0  0  0  0  0  0  0  0  0  0  0  0
  -26.4100  -15.5780   19.8120 H   0  0  0  0  0  0  0  0  0  0  0  0
  -34.7030  -19.4220   19.6830 C   0  0  0  0  0  2  0  0  0  0  0  0
  -35.0410  -19.6190   21.1430 C   0  0  0  0  0  2  0  0  0  0  0  0
  -33.9010  -20.3960   20.5140 C   0  0  0  0  0  3  0  0  0  0  0  0
  -31.4050  -21.4010   18.9170 C   0  0  0  0  0  2  0  0  0  0  0  0
  -31.2650  -22.8850   19.3220 C   0  0  0  0  0  2  0  0  0  0  0  0
  -29.9250  -23.4420   19.0180 N   0  0  0  0  0  4  0  0  0  0  0  0
  -29.2200  -22.8680   19.4590 H   0  0  0  0  0  0  0  0  0  0  0  0
  -29.7820  -23.3840   18.0220 H   0  0  0  0  0  0  0  0  0  0  0  0
  -29.7650  -24.8600   19.4230 C   0  0  0  0  0  2  0  0  0  0  0  0
  -28.4370  -25.4730   18.9490 C   0  0  0  0  0  2  0  0  0  0  0  0
  -28.4580  -26.8550   19.2990 O   0  0  0  0  0  0  0  0  0  0  0  0
  -24.7070  -31.5550   23.0370 C   0  0  0  0  0  0  0  0  0  0  0  0
  -27.2610  -27.5320   19.3810 C   0  0  0  0  0  0  0  0  0  0  0  0
  -23.4500  -30.3490   21.2840 C   0  0  0  0  0  3  0  0  0  0  0  0
  -24.8590  -28.9970   19.6410 C   0  0  0  0  0  0  0  0  0  0  0  0
  -25.9640  -30.7480   21.0430 C   0  0  0  0  0  2  0  0  0  0  0  0
  -26.0320  -29.4630   20.2460 C   0  0  0  0  0  0  0  0  0  0  0  0
  -27.2330  -28.7390   20.1110 C   0  0  0  0  0  3  0  0  0  0  0  0
  -26.0690  -27.0790   18.7650 C   0  0  0  0  0  3  0  0  0  0  0  0
  -24.8730  -27.8060   18.8980 C   0  0  0  0  0  3  0  0  0  0  0  0
  -23.6130  -29.8310   19.8290 C   0  0  0  0  0  2  0  0  0  0  0  0
  -24.7270  -30.8910   21.8470 N   0  0  0  0  0  0  0  0  0  0  0  0
  -23.6450  -31.7570   23.6420 O   0  0  0  0  0  0  0  0  0  0  0  0
  -22.8350  -29.2170   22.1390 C   0  0  0  0  0  0  0  0  0  0  0  0
  -21.5030  -29.0610   22.0520 N   0  0  0  0  0  0  0  0  0  0  0  0
  -23.5470  -28.4880   22.8350 O   0  0  0  0  0  0  0  0  0  0  0  0
  -20.9950  -29.7000   21.4580 H   0  0  0  0  0  0  0  0  0  0  0  0
  -18.1380  -27.8450   22.5530 C   0  0  0  0  0  0  0  0  0  0  0  0
  -20.7110  -28.0400   22.7350 C   0  0  0  0  0  3  0  0  0  0  0  0
  -20.7620  -26.6930   21.9770 C   0  0  0  0  0  2  0  0  0  0  0  0
  -19.6080  -26.5140   20.9830 C   0  0  0  0  0  2  0  0  0  0  0  0
  -18.2610  -26.5900   21.7060 C   0  0  0  0  0  2  0  0  0  0  0  0
  -19.2880  -28.5350   23.0230 C   0  0  0  0  0  0  0  0  0  0  0  0
  -19.1160  -29.7180   23.7750 C   0  0  0  0  0  3  0  0  0  0  0  0
  -17.8290  -30.2090   24.0610 C   0  0  0  0  0  3  0  0  0  0  0  0
  -16.6950  -29.5130   23.6060 C   0  0  0  0  0  3  0  0  0  0  0  0
  -16.8510  -28.3330   22.8580 C   0  0  0  0  0  3  0  0  0  0  0  0
  -26.0130  -32.1140   23.6860 C   0  0  0  0  0  3  0  0  0  0  0  0
  -25.7060  -33.4500   24.2090 N   0  0  0  0  0  0  0  0  0  0  0  0
  -26.0180  -34.5980   23.5920 C   0  0  0  0  0  0  0  0  0  0  0  0
  -26.6650  -34.6380   22.5420 O   0  0  0  0  0  0  0  0  0  0  0  0
  -25.1250  -33.4870   25.0330 H   0  0  0  0  0  0  0  0  0  0  0  0
  -24.2710  -36.4060   23.5150 C   0  0  0  0  0  1  0  0  0  0  0  0
  -25.5330  -35.9100   24.2390 C   0  0  0  0  0  3  0  0  0  0  0  0
  -27.6840  -36.6910   25.1310 C   0  0  0  0  0  1  0  0  0  0  0  0
  -26.5580  -36.9770   24.2440 N   0  0  0  0  0  0  0  0  0  0  0  0
  -26.1530  -37.8670   24.5220 H   0  0  0  0  0  0  0  0  0  0  0  0
  -26.5880  -31.1840   24.8220 C   0  0  1  0  0  0  0  0  0  0  0  0
  -25.5460  -30.8000   25.8990 C   0  0  0  0  0  1  0  0  0  0  0  0
  -27.1520  -29.8760   24.2230 C   0  0  0  0  0  1  0  0  0  0  0  0
  -27.7650  -31.8930   25.5310 C   0  0  0  0  0  1  0  0  0  0  0  0
  1 19  1  0
  2  7  1  0
  3  4  1  0
  3  2  1  0
  5  4  1  0
  5 23  1  0
  5  6  1  0
  7  1  1  0
  7  6  1  0
  8  1  2  0
  9 50  1  0
  9 15  1  0
 10 15  2  0
 10 18  1  0
 11 18  1  0
 13 19  1  0
 13 11  1  0
 14 12  1  0
 16 10  1  0
 17 16  1  0
 17  9  1  0
 18 12  1  0
 19 14  1  0
 20 21  2  0
 21 22  1  0
 21 40  1  0
 22 25  1  0
 23 20  1  0
 23 24  1  0
 24 22  2  0
 25 26  1  0
 26 27  2  0
 28 31  1  0
 28 27  1  0
 29 28  2  0
 30 29  1  0
 30 25  2  0
 31 32  1  0
 32 33  1  0
 33 34  2  0
 35 34  1  0
 35 39  1  0
 36 35  2  0
 37 32  2  0
 37 36  1  0
 38 37  1  0
 40 41  1  0
 41 44  1  0
 41 43  1  0
 42 40  2  0
 45 46  1  0
 45 20  1  0
 47 45  1  0
 48 50  1  0
 48 49  1  0
 50 49  1  0
 51 52  1  0
 51 17  1  0
 53 52  1  0
 53 56  1  0
 53 54  1  0
 55 53  1  0
 57 58  1  0
 57 56  1  0
 58 60  1  0
 59 70  2  0
 60 65  1  0
 61 69  1  0
 61 71  1  0
 62 68  1  0
 62 64  1  0
 63 69  1  0
 64 63  1  0
 65 64  2  0
 66 67  1  0
 66 60  2  0
 67 62  2  0
 68 61  1  0
 69 59  1  0
 71 73  2  0
 72 71  1  0
 74 72  1  0
 75 84  2  0
 75 80  1  0
 76 72  1  0
 76 80  1  0
 77 76  1  0
 78 79  1  0
 78 77  1  0
 79 75  1  0
 80 81  2  0
 81 82  1  0
 83 82  2  0
 84 83  1  0
 85 59  1  0
 85 86  1  0
 85 95  1  0
 86 89  1  0
 87 86  1  0
 87 91  1  0
 88 87  2  0
 91 90  1  0
 91 93  1  0
 93 94  1  0
 93 92  1  0
 95 98  1  1
 95 96  1  0
 97 95  1  0
M  ISO  4   1 100  19 100  57 101  58 101
M  END
>  <TORSDO>  (85) 
F 21

>  <SCORE>  (85) 
-11.432

>  <name>  (85) 
86

>  <ligand_id>  (85) 
86

>  <original_smiles>  (85) 
[H]c1c([H])c([H])c2c(c1[H])C([H])([H])C([H])([H])C([H])([H])C2([H])N([H])C(=O)C1([H])N(C(=O)C([H])(N([H])C(=O)C([H])(N([H])C([H])([H])[H])C([H])([H])[H])C(C([H])([H])[H])(C([H])([H])[H])C([H])([H])[H])C([H])([H])c2c([H])c(OC([H])([H])C([H])([H])[N+]([H])([H])C([H])([H])C([H])([H])n3nc(N4C([H])([H])C([H])([H])N(C(=O)N5C([H])([H])C([H])([H])C([H])([H])C([H])(n6nc(-c7c([H])c([H])c(Oc8c([H])c([H])c(F)c([H])c8F)c([H])c7[H])c(C(=O)N([H])[H])c6N([H])[H])C5([H])[H])C([H])([H])C4([H])[H])nc3C3([H])C([H])([H])C3([H])[H])c([H])c([H])c2C1([H])[H]

>  <smiles>  (85) 
[H]c1c([H])c([H])c2c(c1[H])C([H])([H])C([H])([H])C([H])([H])C2([H])N([H])C(=O)C1([H])N(C(=O)C([H])(N([H])C(=O)C([H])(N([H])C([H])([H])[H])C([H])([H])[H])C(C([H])([H])[H])(C([H])([H])[H])C([H])([H])[H])C([H])([H])c2c([H])c(OC([H])([H])C([H])([H])[N+]([H])([H])C([H])([H])C([H])([H])n3nc(N4C([H])([H])C([H])([H])N(C(=O)N5C([H])([H])C([H])([H])C([H])([H])C([H])(n6nc(-c7c([H])c([H])c(Oc8c([H])c([H])c(F)c([H])c8F)c([H])c7[H])c(C(=O)N([H])[H])c6N([H])[H])C5([H])[H])C([H])([H])C4([H])[H])nc3C3([H])C([H])([H])C3([H])[H])c([H])c([H])c2C1([H])[H]

$$$$
87:0:0
     RDKit          3D

 92101  0  0  1  0  0  0  0  0999 V2000
  -30.9790  -20.9620   20.8010 C   0  0  0  0  0  2  0  0  0  0  0  0
  -30.9150  -22.4970   20.9130 C   0  0  0  0  0  2  0  0  0  0  0  0
  -28.7620  -21.8030   20.4810 C   0  0  0  0  0  2  0  0  0  0  0  0
  -29.6330  -20.5270   20.2170 C   0  0  0  0  0  3  0  0  0  0  0  0
  -29.6810  -22.9390   20.2520 N   0  0  0  0  0  0  0  0  0  0  0  0
  -29.0970  -19.2180   20.7440 N   0  0  0  0  0  4  0  0  0  0  0  0
  -28.7790  -19.3550   21.6890 H   0  0  0  0  0  0  0  0  0  0  0  0
  -28.2760  -19.0150   20.1960 H   0  0  0  0  0  0  0  0  0  0  0  0
  -30.6530  -14.5280   20.1570 C   0  0  0  0  0  0  0  0  0  0  0  0
  -30.2610  -12.3890   18.9630 C   0  0  0  0  0  2  0  0  0  0  0  0
  -29.2650  -12.6110   17.8070 C   0  0  0  0  0  2  0  0  0  0  0  0
  -27.8180  -12.4580   18.3110 C   0  0  0  0  0  2  0  0  0  0  0  0
  -27.5470  -13.2750   19.6040 C   0  0  0  0  0  3  0  0  0  0  0  0
  -28.6570  -13.0520   20.6550 C   0  0  0  0  0  2  0  0  0  0  0  0
  -29.9450  -13.3670   20.0240 N   0  0  0  0  0  0  0  0  0  0  0  0
  -31.7400  -14.6910   19.5940 O   0  0  0  0  0  0  0  0  0  0  0  0
  -30.5860  -17.6400   22.0720 C   0  0  0  0  0  2  0  0  0  0  0  0
  -30.9350  -16.1410   21.9810 C   0  0  0  0  0  2  0  0  0  0  0  0
  -29.2980  -16.6370   20.3520 C   0  0  0  0  0  2  0  0  0  0  0  0
  -29.9810  -17.9920   20.7160 C   0  0  0  0  0  3  0  0  0  0  0  0
  -30.1140  -15.5290   20.9190 N   0  0  0  0  0  0  0  0  0  0  0  0
  -25.1970  -13.8800   20.4500 C   0  0  0  0  0  0  0  0  0  0  0  0
  -24.1440  -13.1080   20.8570 C   0  0  0  0  0  0  0  0  0  0  0  0
  -24.5910  -11.7530   20.7730 C   0  0  0  0  0  0  0  0  0  0  0  0
  -26.2210  -12.9960   20.1460 N   0  0  0  0  0  0  0  0  0  0  0  0
  -25.8620  -11.7110   20.3980 N   0  0  0  0  0  0  0  0  0  0  0  0
  -23.8620  -10.4930   20.9730 C   0  0  0  0  0  0  0  0  0  0  0  0
  -24.3060   -9.5200   21.8950 C   0  0  0  0  0  3  0  0  0  0  0  0
  -23.5790   -8.3250   22.0810 C   0  0  0  0  0  3  0  0  0  0  0  0
  -22.3910   -8.0960   21.3470 C   0  0  0  0  0  0  0  0  0  0  0  0
  -21.9660   -9.0570   20.4120 C   0  0  0  0  0  3  0  0  0  0  0  0
  -22.6940  -10.2440   20.2240 C   0  0  0  0  0  3  0  0  0  0  0  0
  -21.6330   -6.9540   21.4440 O   0  0  0  0  0  0  0  0  0  0  0  0
  -21.5740   -6.2260   22.6050 C   0  0  0  0  0  0  0  0  0  0  0  0
  -21.1410   -6.7970   23.8220 C   0  0  0  0  0  3  0  0  0  0  0  0
  -21.0300   -5.9950   24.9760 C   0  0  0  0  0  3  0  0  0  0  0  0
  -21.3420   -4.6240   24.9150 C   0  0  0  0  0  0  0  0  0  0  0  0
  -21.7690   -4.0530   23.7030 C   0  0  0  0  0  3  0  0  0  0  0  0
  -21.8820   -4.8520   22.5510 C   0  0  0  0  0  0  0  0  0  0  0  0
  -22.2730   -4.2910   21.3810 F   0  0  0  0  0  0  0  0  0  0  0  0
  -21.2280   -3.8520   26.0210 F   0  0  0  0  0  0  0  0  0  0  0  0
  -22.7670  -13.5910   21.2100 C   0  0  0  0  0  0  0  0  0  0  0  0
  -22.0750  -12.8780   22.0930 N   0  0  0  0  0  0  0  0  0  0  0  0
  -22.3160  -14.6340   20.7390 O   0  0  0  0  0  0  0  0  0  0  0  0
  -22.4550  -12.0350   22.4950 H   0  0  0  0  0  0  0  0  0  0  0  0
  -21.1520  -13.1840   22.3700 H   0  0  0  0  0  0  0  0  0  0  0  0
  -25.3650  -15.2530   20.2900 N   0  0  0  0  0  0  0  0  0  0  0  0
  -24.6040  -15.9060   20.4330 H   0  0  0  0  0  0  0  0  0  0  0  0
  -26.1910  -15.6830   19.8960 H   0  0  0  0  0  0  0  0  0  0  0  0
  -29.3190  -24.3020   20.7450 C   0  0  0  0  0  2  0  0  0  0  0  0
  -28.2870  -25.1520   19.9290 C   0  0  0  0  0  2  0  0  0  0  0  0
  -28.3570  -26.5830   20.2320 O   0  0  0  0  0  0  0  0  0  0  0  0
  -24.5950  -31.8890   23.2370 C   0  0  0  0  0  0  0  0  0  0  0  0
  -27.2050  -27.3660   20.1740 C   0  0  0  0  0  0  0  0  0  0  0  0
  -23.3840  -30.4880   21.6010 C   0  0  0  0  0  3  0  0  0  0  0  0
  -24.8290  -28.9390   20.1740 C   0  0  0  0  0  0  0  0  0  0  0  0
  -25.9180  -30.8160   21.4090 C   0  0  0  0  0  2  0  0  0  0  0  0
  -25.9940  -29.4390   20.7680 C   0  0  0  0  0  0  0  0  0  0  0  0
  -27.1830  -28.6610   20.7620 C   0  0  0  0  0  3  0  0  0  0  0  0
  -26.0210  -26.9080   19.5500 C   0  0  0  0  0  3  0  0  0  0  0  0
  -24.8420  -27.6770   19.5580 C   0  0  0  0  0  3  0  0  0  0  0  0
  -23.5910  -29.8080   20.2220 C   0  0  0  0  0  2  0  0  0  0  0  0
  -24.6510  -31.0810   22.1390 N   0  0  0  0  0  0  0  0  0  0  0  0
  -23.5140  -32.1690   23.7740 O   0  0  0  0  0  0  0  0  0  0  0  0
  -22.7260  -29.4730   22.5640 C   0  0  0  0  0  0  0  0  0  0  0  0
  -21.4000  -29.2990   22.4400 N   0  0  0  0  0  0  0  0  0  0  0  0
  -23.4060  -28.8440   23.3800 O   0  0  0  0  0  0  0  0  0  0  0  0
  -20.9110  -29.8570   21.7540 H   0  0  0  0  0  0  0  0  0  0  0  0
  -18.0190  -28.1290   22.9570 C   0  0  0  0  0  0  0  0  0  0  0  0
  -20.5790  -28.3670   23.2150 C   0  0  0  0  0  3  0  0  0  0  0  0
  -20.6680  -26.9360   22.6370 C   0  0  0  0  0  2  0  0  0  0  0  0
  -19.5580  -26.6220   21.6280 C   0  0  0  0  0  2  0  0  0  0  0  0
  -18.1800  -26.7790   22.2790 C   0  0  0  0  0  2  0  0  0  0  0  0
  -19.1450  -28.8820   23.3820 C   0  0  0  0  0  0  0  0  0  0  0  0
  -18.9400  -30.1460   23.9750 C   0  0  0  0  0  3  0  0  0  0  0  0
  -17.6400  -30.6580   24.1490 C   0  0  0  0  0  3  0  0  0  0  0  0
  -16.5280  -29.9020   23.7400 C   0  0  0  0  0  3  0  0  0  0  0  0
  -16.7180  -28.6390   23.1500 C   0  0  0  0  0  3  0  0  0  0  0  0
  -25.8820  -32.5190   23.8540 C   0  0  0  0  0  3  0  0  0  0  0  0
  -26.4040  -31.7460   25.1280 C   0  0  1  0  0  0  0  0  0  0  0  0
  -25.3150  -31.5040   26.1980 C   0  0  0  0  0  1  0  0  0  0  0  0
  -26.9850  -30.3680   24.7300 C   0  0  0  0  0  1  0  0  0  0  0  0
  -27.5570  -32.5380   25.7860 C   0  0  0  0  0  1  0  0  0  0  0  0
  -25.5740  -33.9180   24.1870 N   0  0  0  0  0  0  0  0  0  0  0  0
  -25.9040  -34.9710   23.4270 C   0  0  0  0  0  0  0  0  0  0  0  0
  -26.5690  -34.8680   22.3930 O   0  0  0  0  0  0  0  0  0  0  0  0
  -24.9830  -34.0710   24.9900 H   0  0  0  0  0  0  0  0  0  0  0  0
  -24.1760  -36.7640   23.0800 C   0  0  0  0  0  1  0  0  0  0  0  0
  -25.4190  -36.3580   23.8880 C   0  0  0  0  0  3  0  0  0  0  0  0
  -27.5570  -37.2400   24.7120 C   0  0  0  0  0  1  0  0  0  0  0  0
  -26.4510  -37.4120   23.7740 N   0  0  0  0  0  0  0  0  0  0  0  0
  -26.0460  -38.3310   23.9280 H   0  0  0  0  0  0  0  0  0  0  0  0
  1  2  1  0
  4  3  1  0
  4  6  1  0
  4  1  1  0
  5  3  1  0
  5 50  1  0
  5  2  1  0
  6  7  1  0
  8  6  1  0
  9 21  1  0
 10 15  1  0
 11 12  1  0
 11 10  1  0
 13 12  1  0
 13 25  1  0
 13 14  1  0
 15  9  1  0
 15 14  1  0
 16  9  2  0
 18 17  1  0
 19 20  1  0
 19 21  1  0
 20  6  1  0
 20 17  1  0
 21 18  1  0
 22 23  2  0
 23 42  1  0
 24 23  1  0
 24 27  1  0
 25 26  1  0
 25 22  1  0
 26 24  2  0
 27 28  1  0
 28 29  2  0
 30 33  1  0
 30 29  1  0
 31 30  2  0
 32 31  1  0
 32 27  2  0
 33 34  1  0
 34 35  1  0
 35 36  2  0
 37 36  1  0
 37 41  1  0
 38 37  2  0
 39 34  2  0
 39 38  1  0
 40 39  1  0
 42 43  1  0
 43 46  1  0
 43 45  1  0
 44 42  2  0
 47 48  1  0
 47 22  1  0
 49 47  1  0
 51 52  1  0
 51 50  1  0
 53 64  2  0
 54 52  1  0
 54 59  1  0
 55 63  1  0
 55 65  1  0
 56 62  1  0
 56 58  1  0
 57 63  1  0
 58 57  1  0
 59 58  2  0
 60 61  1  0
 60 54  2  0
 61 56  2  0
 62 55  1  0
 63 53  1  0
 65 67  2  0
 66 65  1  0
 68 66  1  0
 69 78  2  0
 69 74  1  0
 70 66  1  0
 70 74  1  0
 71 70  1  0
 72 73  1  0
 72 71  1  0
 73 69  1  0
 74 75  2  0
 75 76  1  0
 77 76  2  0
 78 77  1  0
 79 53  1  0
 79 84  1  0
 79 80  1  0
 80 83  1  1
 80 81  1  0
 82 80  1  0
 84 87  1  0
 85 89  1  0
 85 84  1  0
 86 85  2  0
 89 88  1  0
 91 89  1  0
 91 92  1  0
 91 90  1  0
M  ISO  4   9 100  21 100  51 101  52 101
M  END
>  <TORSDO>  (86) 
F 19

>  <SCORE>  (86) 
-14.438

>  <name>  (86) 
87

>  <ligand_id>  (86) 
87

>  <original_smiles>  (86) 
[H]c1c([H])c([H])c2c(c1[H])C([H])([H])C([H])([H])C([H])([H])C2([H])N([H])C(=O)C1([H])N(C(=O)C([H])(N([H])C(=O)C([H])(N([H])C([H])([H])[H])C([H])([H])[H])C(C([H])([H])[H])(C([H])([H])[H])C([H])([H])[H])C([H])([H])c2c([H])c(OC([H])([H])C([H])([H])N3C([H])([H])C([H])([H])C([H])([N+]([H])([H])C4([H])C([H])([H])N(C(=O)N5C([H])([H])C([H])([H])C([H])([H])C([H])(n6nc(-c7c([H])c([H])c(Oc8c([H])c([H])c(F)c([H])c8F)c([H])c7[H])c(C(=O)N([H])[H])c6N([H])[H])C5([H])[H])C([H])([H])C4([H])[H])C3([H])[H])c([H])c([H])c2C1([H])[H]

>  <smiles>  (86) 
[H]c1c([H])c([H])c2c(c1[H])C([H])([H])C([H])([H])C([H])([H])C2([H])N([H])C(=O)C1([H])N(C(=O)C([H])(N([H])C(=O)C([H])(N([H])C([H])([H])[H])C([H])([H])[H])C(C([H])([H])[H])(C([H])([H])[H])C([H])([H])[H])C([H])([H])c2c([H])c(OC([H])([H])C([H])([H])N3C([H])([H])C([H])([H])C([H])([N+]([H])([H])C4([H])C([H])([H])N(C(=O)N5C([H])([H])C([H])([H])C([H])([H])C([H])(n6nc(-c7c([H])c([H])c(Oc8c([H])c([H])c(F)c([H])c8F)c([H])c7[H])c(C(=O)N([H])[H])c6N([H])[H])C5([H])[H])C([H])([H])C4([H])[H])C3([H])[H])c([H])c([H])c2C1([H])[H]

$$$$
88:0:0
     RDKit          3D

 94103  0  0  1  0  0  0  0  0999 V2000
  -29.4290  -20.4340   20.0590 C   0  0  0  0  0  0  0  0  0  0  0  0
  -29.1560  -21.4160   21.0960 C   0  0  0  0  0  0  0  0  0  0  0  0
  -29.1760  -22.3850   18.5980 C   0  0  0  0  0  0  0  0  0  0  0  0
  -28.8530  -23.3630   19.6250 C   0  0  0  0  0  0  0  0  0  0  0  0
  -29.1530  -22.7940   17.1380 C   0  0  0  0  0  1  0  0  0  0  0  0
  -29.4690  -21.0200   18.8060 N   0  0  0  0  0  0  0  0  0  0  0  0
  -28.8700  -22.7780   20.8790 N   0  0  0  0  0  0  0  0  0  0  0  0
  -31.0360  -15.3870   20.4080 C   0  0  0  0  0  0  0  0  0  0  0  0
  -31.0170  -12.9460   19.6980 C   0  0  0  0  0  2  0  0  0  0  0  0
  -30.1490  -12.7250   18.4390 C   0  0  0  0  0  2  0  0  0  0  0  0
  -28.6810  -12.4940   18.8370 C   0  0  0  0  0  2  0  0  0  0  0  0
  -28.1830  -13.5320   19.8740 C   0  0  0  0  0  3  0  0  0  0  0  0
  -29.1770  -13.7200   21.0380 C   0  0  0  0  0  2  0  0  0  0  0  0
  -30.4600  -14.1140   20.4480 N   0  0  0  0  0  0  0  0  0  0  0  0
  -32.2510  -15.4250   20.1810 O   0  0  0  0  0  0  0  0  0  0  0  0
  -29.7420  -17.5000   19.3770 C   0  0  0  0  0  2  0  0  0  0  0  0
  -30.8210  -17.9420   21.0040 C   0  0  0  0  0  2  0  0  0  0  0  0
  -29.6650  -18.7820   20.3220 C   0  0  0  0  0  3  0  0  0  0  0  0
  -30.2780  -16.6060   20.4980 N   0  0  0  0  0  0  0  0  0  0  0  0
  -25.8000  -14.1230   20.5840 C   0  0  0  0  0  0  0  0  0  0  0  0
  -24.7160  -13.3530   20.9080 C   0  0  0  0  0  0  0  0  0  0  0  0
  -25.1620  -11.9980   20.8510 C   0  0  0  0  0  0  0  0  0  0  0  0
  -26.8330  -13.2360   20.3420 N   0  0  0  0  0  0  0  0  0  0  0  0
  -26.4590  -11.9510   20.5740 N   0  0  0  0  0  0  0  0  0  0  0  0
  -24.4150  -10.7410   20.9910 C   0  0  0  0  0  0  0  0  0  0  0  0
  -24.7850   -9.7610   21.9400 C   0  0  0  0  0  3  0  0  0  0  0  0
  -24.0370   -8.5710   22.0660 C   0  0  0  0  0  3  0  0  0  0  0  0
  -22.9070   -8.3500   21.2440 C   0  0  0  0  0  0  0  0  0  0  0  0
  -22.5580   -9.3170   20.2860 C   0  0  0  0  0  3  0  0  0  0  0  0
  -23.3060  -10.4990   20.1560 C   0  0  0  0  0  3  0  0  0  0  0  0
  -22.1380   -7.2120   21.2800 O   0  0  0  0  0  0  0  0  0  0  0  0
  -21.9710   -6.4930   22.4360 C   0  0  0  0  0  0  0  0  0  0  0  0
  -21.4160   -7.0680   23.5990 C   0  0  0  0  0  3  0  0  0  0  0  0
  -21.1960   -6.2720   24.7420 C   0  0  0  0  0  3  0  0  0  0  0  0
  -21.5240   -4.9040   24.7230 C   0  0  0  0  0  0  0  0  0  0  0  0
  -22.0730   -4.3280   23.5640 C   0  0  0  0  0  3  0  0  0  0  0  0
  -22.2930   -5.1200   22.4230 C   0  0  0  0  0  0  0  0  0  0  0  0
  -22.8020   -4.5550   21.3010 F   0  0  0  0  0  0  0  0  0  0  0  0
  -21.3080   -4.1390   25.8190 F   0  0  0  0  0  0  0  0  0  0  0  0
  -23.3190  -13.8430   21.1560 C   0  0  0  0  0  0  0  0  0  0  0  0
  -22.5620  -13.1390   21.9900 N   0  0  0  0  0  0  0  0  0  0  0  0
  -22.9060  -14.8850   20.6450 O   0  0  0  0  0  0  0  0  0  0  0  0
  -22.9090  -12.2940   22.4200 H   0  0  0  0  0  0  0  0  0  0  0  0
  -21.6210  -13.4440   22.1940 H   0  0  0  0  0  0  0  0  0  0  0  0
  -25.9920  -15.4960   20.4480 N   0  0  0  0  0  0  0  0  0  0  0  0
  -25.2380  -16.1650   20.5490 H   0  0  0  0  0  0  0  0  0  0  0  0
  -26.8670  -15.9180   20.1650 H   0  0  0  0  0  0  0  0  0  0  0  0
  -29.1800  -20.9800   22.5640 C   0  0  0  0  0  2  0  0  0  0  0  0
  -29.4680  -22.0870   23.4890 N   0  0  0  0  0  4  0  0  0  0  0  0
  -30.3550  -22.4960   23.2600 H   0  0  0  0  0  0  0  0  0  0  0  0
  -29.4830  -21.7580   24.4360 H   0  0  0  0  0  0  0  0  0  0  0  0
  -28.7610  -22.7910   23.3850 H   0  0  0  0  0  0  0  0  0  0  0  0
  -28.0630  -24.8340   19.4120 C   0  0  0  0  0  2  0  0  0  0  0  0
  -28.4640  -26.3390   19.6490 O   0  0  0  0  0  0  0  0  0  0  0  0
  -24.8270  -31.7270   23.2290 C   0  0  0  0  0  0  0  0  0  0  0  0
  -27.4330  -27.3710   19.6790 C   0  0  0  0  0  0  0  0  0  0  0  0
  -23.6280  -30.4860   21.4730 C   0  0  0  0  0  3  0  0  0  0  0  0
  -25.0850  -29.1040   19.8650 C   0  0  0  0  0  0  0  0  0  0  0  0
  -26.1780  -30.8100   21.3010 C   0  0  0  0  0  2  0  0  0  0  0  0
  -26.2680  -29.4910   20.5040 C   0  0  0  0  0  0  0  0  0  0  0  0
  -27.4420  -28.6410   20.4010 C   0  0  0  0  0  3  0  0  0  0  0  0
  -26.2180  -27.1160   19.0000 C   0  0  0  0  0  3  0  0  0  0  0  0
  -25.0750  -27.9330   19.0990 C   0  0  0  0  0  3  0  0  0  0  0  0
  -23.8410  -29.9640   20.0270 C   0  0  0  0  0  2  0  0  0  0  0  0
  -24.8990  -31.0260   22.0570 N   0  0  0  0  0  0  0  0  0  0  0  0
  -23.7430  -31.9330   23.7990 O   0  0  0  0  0  0  0  0  0  0  0  0
  -22.9840  -29.3680   22.3330 C   0  0  0  0  0  0  0  0  0  0  0  0
  -21.6610  -29.1680   22.1930 N   0  0  0  0  0  0  0  0  0  0  0  0
  -23.6770  -28.6870   23.0930 O   0  0  0  0  0  0  0  0  0  0  0  0
  -21.1580  -29.7760   21.5610 H   0  0  0  0  0  0  0  0  0  0  0  0
  -18.3280  -27.7850   22.5390 C   0  0  0  0  0  0  0  0  0  0  0  0
  -20.8710  -28.1320   22.8660 C   0  0  0  0  0  3  0  0  0  0  0  0
  -21.0420  -26.7620   22.1700 C   0  0  0  0  0  2  0  0  0  0  0  0
  -19.9640  -26.4780   21.1180 C   0  0  0  0  0  2  0  0  0  0  0  0
  -18.5690  -26.5090   21.7490 C   0  0  0  0  0  2  0  0  0  0  0  0
  -19.4070  -28.5550   23.0470 C   0  0  0  0  0  0  0  0  0  0  0  0
  -19.1260  -29.7510   23.7440 C   0  0  0  0  0  3  0  0  0  0  0  0
  -17.7990  -30.1770   23.9350 C   0  0  0  0  0  3  0  0  0  0  0  0
  -16.7340  -29.4010   23.4460 C   0  0  0  0  0  3  0  0  0  0  0  0
  -16.9980  -28.2070   22.7540 C   0  0  0  0  0  3  0  0  0  0  0  0
  -26.1000  -32.3230   23.9020 C   0  0  0  0  0  3  0  0  0  0  0  0
  -26.6210  -31.4620   25.1180 C   0  0  1  0  0  0  0  0  0  0  0  0
  -25.5290  -31.1370   26.1650 C   0  0  0  0  0  1  0  0  0  0  0  0
  -27.2130  -30.1210   24.6250 C   0  0  0  0  0  1  0  0  0  0  0  0
  -27.7700  -32.2100   25.8360 C   0  0  0  0  0  1  0  0  0  0  0  0
  -25.7800  -33.6890   24.3460 N   0  0  0  0  0  0  0  0  0  0  0  0
  -26.0740  -34.8050   23.6640 C   0  0  0  0  0  0  0  0  0  0  0  0
  -26.7110  -34.7920   22.6080 O   0  0  0  0  0  0  0  0  0  0  0  0
  -25.2240  -33.7720   25.1850 H   0  0  0  0  0  0  0  0  0  0  0  0
  -24.2990  -36.5800   23.5160 C   0  0  0  0  0  1  0  0  0  0  0  0
  -25.5800  -36.1440   24.2450 C   0  0  0  0  0  3  0  0  0  0  0  0
  -27.7330  -37.0060   25.0510 C   0  0  0  0  0  1  0  0  0  0  0  0
  -26.5870  -37.2280   24.1760 N   0  0  0  0  0  0  0  0  0  0  0  0
  -26.1670  -38.1180   24.4260 H   0  0  0  0  0  0  0  0  0  0  0  0
  1  2  1  0
  2 48  1  0
  3  6  1  0
  3  4  2  0
  4  7  1  0
  5  3  1  0
  6  1  2  0
  7  2  2  0
  8 14  1  0
  8 19  1  0
  9 14  1  0
 10 11  1  0
 10  9  1  0
 12 11  1  0
 12 23  1  0
 12 13  1  0
 14 13  1  0
 15  8  2  0
 16 18  1  0
 16 19  1  0
 18  1  1  0
 18 17  1  0
 19 17  1  0
 20 21  2  0
 21 40  1  0
 22 21  1  0
 22 25  1  0
 23 24  1  0
 23 20  1  0
 24 22  2  0
 25 26  1  0
 26 27  2  0
 28 31  1  0
 28 27  1  0
 29 28  2  0
 30 29  1  0
 30 25  2  0
 31 32  1  0
 32 33  1  0
 33 34  2  0
 35 34  1  0
 35 39  1  0
 36 35  2  0
 37 32  2  0
 37 36  1  0
 38 37  1  0
 40 41  1  0
 41 44  1  0
 41 43  1  0
 42 40  2  0
 45 46  1  0
 45 20  1  0
 47 45  1  0
 48 49  1  0
 49 51  1  0
 50 49  1  0
 52 49  1  0
 53  4  1  0
 53 54  1  0
 54 56  1  0
 55 66  2  0
 56 61  1  0
 57 65  1  0
 57 67  1  0
 58 64  1  0
 58 60  1  0
 59 65  1  0
 60 59  1  0
 61 60  2  0
 62 63  1  0
 62 56  2  0
 63 58  2  0
 64 57  1  0
 65 55  1  0
 67 69  2  0
 68 67  1  0
 70 68  1  0
 71 80  2  0
 71 76  1  0
 72 68  1  0
 72 76  1  0
 73 72  1  0
 74 75  1  0
 74 73  1  0
 75 71  1  0
 76 77  2  0
 77 78  1  0
 79 78  2  0
 80 79  1  0
 81 55  1  0
 81 86  1  0
 81 82  1  0
 82 85  1  1
 82 83  1  0
 84 82  1  0
 86 89  1  0
 87 91  1  0
 87 86  1  0
 88 87  2  0
 91 90  1  0
 93 91  1  0
 93 94  1  0
 93 92  1  0
M  ISO  4   8 100  19 100  53 101  54 101
M  END
>  <TORSDO>  (87) 
F 19

>  <SCORE>  (87) 
-12.939

>  <name>  (87) 
88

>  <ligand_id>  (87) 
88

>  <original_smiles>  (87) 
[H]c1c([H])c([H])c2c(c1[H])C([H])([H])C([H])([H])C([H])([H])C2([H])N([H])C(=O)C1([H])N(C(=O)C([H])(N([H])C(=O)C([H])(N([H])C([H])([H])[H])C([H])([H])[H])C(C([H])([H])[H])(C([H])([H])[H])C([H])([H])[H])C([H])([H])c2c([H])c(OC([H])([H])c3nc(C([H])([H])[N+]([H])([H])[H])c(C4([H])C([H])([H])N(C(=O)N5C([H])([H])C([H])([H])C([H])([H])C([H])(n6nc(-c7c([H])c([H])c(Oc8c([H])c([H])c(F)c([H])c8F)c([H])c7[H])c(C(=O)N([H])[H])c6N([H])[H])C5([H])[H])C4([H])[H])nc3C([H])([H])[H])c([H])c([H])c2C1([H])[H]

>  <smiles>  (87) 
[H]c1c([H])c([H])c2c(c1[H])C([H])([H])C([H])([H])C([H])([H])C2([H])N([H])C(=O)C1([H])N(C(=O)C([H])(N([H])C(=O)C([H])(N([H])C([H])([H])[H])C([H])([H])[H])C(C([H])([H])[H])(C([H])([H])[H])C([H])([H])[H])C([H])([H])c2c([H])c(OC([H])([H])c3nc(C([H])([H])[N+]([H])([H])[H])c(C4([H])C([H])([H])N(C(=O)N5C([H])([H])C([H])([H])C([H])([H])C([H])(n6nc(-c7c([H])c([H])c(Oc8c([H])c([H])c(F)c([H])c8F)c([H])c7[H])c(C(=O)N([H])[H])c6N([H])[H])C5([H])[H])C4([H])[H])nc3C([H])([H])[H])c([H])c([H])c2C1([H])[H]

$$$$
89:0:0
     RDKit          3D

 98108  0  0  1  0  0  0  0  0999 V2000
  -28.8400  -26.5080   22.0890 C   0  0  0  0  0  2  0  0  0  0  0  0
  -29.7390  -24.4420   22.5670 C   0  0  0  0  0  0  0  0  0  0  0  0
  -29.8930  -24.1940   21.1770 C   0  0  0  0  0  3  0  0  0  0  0  0
  -28.9800  -26.2550   20.6980 C   0  0  0  0  0  0  0  0  0  0  0  0
  -29.2250  -25.6070   23.0230 N   0  0  0  0  0  0  0  0  0  0  0  0
  -29.5180  -25.1010   20.2390 N   0  0  0  0  0  0  0  0  0  0  0  0
  -29.4190  -22.1590   23.8120 C   0  0  0  0  0  2  0  0  0  0  0  0
  -29.3680  -23.2220   24.8790 C   0  0  0  0  0  2  0  0  0  0  0  0
  -30.1750  -23.4620   23.6230 C   0  0  0  0  0  3  0  0  0  0  0  0
  -28.6340  -27.1640   19.7270 O   0  0  0  0  0  0  0  0  0  0  0  0
  -24.4880  -31.6460   23.3490 C   0  0  0  0  0  0  0  0  0  0  0  0
  -27.4090  -27.7700   19.8420 C   0  0  0  0  0  0  0  0  0  0  0  0
  -23.3420  -30.2480   21.6520 C   0  0  0  0  0  3  0  0  0  0  0  0
  -24.8720  -28.9750   20.0580 C   0  0  0  0  0  0  0  0  0  0  0  0
  -25.8000  -30.8950   21.3770 C   0  0  0  0  0  2  0  0  0  0  0  0
  -25.9930  -29.5910   20.6330 C   0  0  0  0  0  0  0  0  0  0  0  0
  -27.2650  -29.0020   20.5140 C   0  0  0  0  0  3  0  0  0  0  0  0
  -26.2820  -27.1540   19.2700 C   0  0  0  0  0  3  0  0  0  0  0  0
  -25.0120  -27.7530   19.3740 C   0  0  0  0  0  3  0  0  0  0  0  0
  -23.5500  -29.6880   20.2180 C   0  0  0  0  0  2  0  0  0  0  0  0
  -24.5600  -30.9410   22.1840 N   0  0  0  0  0  0  0  0  0  0  0  0
  -23.4150  -31.7640   23.9560 O   0  0  0  0  0  0  0  0  0  0  0  0
  -22.8500  -29.1000   22.5610 C   0  0  0  0  0  0  0  0  0  0  0  0
  -21.5890  -28.6810   22.3580 N   0  0  0  0  0  0  0  0  0  0  0  0
  -23.5980  -28.5900   23.3980 O   0  0  0  0  0  0  0  0  0  0  0  0
  -21.0400  -29.1640   21.6600 H   0  0  0  0  0  0  0  0  0  0  0  0
  -18.5670  -26.7060   22.4650 C   0  0  0  0  0  0  0  0  0  0  0  0
  -20.9230  -27.5900   23.0660 C   0  0  0  0  0  3  0  0  0  0  0  0
  -21.4470  -26.2160   22.5860 C   0  0  0  0  0  2  0  0  0  0  0  0
  -20.6120  -25.6020   21.4580 C   0  0  0  0  0  2  0  0  0  0  0  0
  -19.1580  -25.4220   21.9080 C   0  0  0  0  0  2  0  0  0  0  0  0
  -19.3970  -27.7270   22.9960 C   0  0  0  0  0  0  0  0  0  0  0  0
  -18.8010  -28.9150   23.4740 C   0  0  0  0  0  3  0  0  0  0  0  0
  -17.4050  -29.0840   23.4390 C   0  0  0  0  0  3  0  0  0  0  0  0
  -16.5870  -28.0640   22.9260 C   0  0  0  0  0  3  0  0  0  0  0  0
  -17.1660  -26.8770   22.4430 C   0  0  0  0  0  3  0  0  0  0  0  0
  -25.7400  -32.3550   23.9570 C   0  0  0  0  0  3  0  0  0  0  0  0
  -25.3590  -33.7410   24.2600 N   0  0  0  0  0  0  0  0  0  0  0  0
  -25.6330  -34.7920   23.4780 C   0  0  0  0  0  0  0  0  0  0  0  0
  -26.3130  -34.7060   22.4490 O   0  0  0  0  0  0  0  0  0  0  0  0
  -24.7570  -33.8770   25.0590 H   0  0  0  0  0  0  0  0  0  0  0  0
  -23.8210  -36.4880   23.0730 C   0  0  0  0  0  1  0  0  0  0  0  0
  -25.0680  -36.1600   23.9080 C   0  0  0  0  0  3  0  0  0  0  0  0
  -27.1360  -37.1700   24.7640 C   0  0  0  0  0  1  0  0  0  0  0  0
  -26.0460  -37.2620   23.7970 N   0  0  0  0  0  0  0  0  0  0  0  0
  -25.5880  -38.1610   23.9250 H   0  0  0  0  0  0  0  0  0  0  0  0
  -26.3020  -31.6340   25.2420 C   0  0  1  0  0  0  0  0  0  0  0  0
  -25.2260  -31.3550   26.3150 C   0  0  0  0  0  1  0  0  0  0  0  0
  -26.9630  -30.2850   24.8700 C   0  0  0  0  0  1  0  0  0  0  0  0
  -27.4000  -32.5070   25.8930 C   0  0  0  0  0  1  0  0  0  0  0  0
  -30.5130  -22.8980   20.6850 C   0  0  0  0  0  2  0  0  0  0  0  0
  -29.8950  -22.4060   19.4410 N   0  0  0  0  0  4  0  0  0  0  0  0
  -30.3500  -22.8450   18.6600 H   0  0  0  0  0  0  0  0  0  0  0  0
  -28.9440  -22.7400   19.4400 H   0  0  0  0  0  0  0  0  0  0  0  0
  -29.8570  -20.9330   19.2940 C   0  0  0  0  0  2  0  0  0  0  0  0
  -31.1450  -20.1730   19.7320 C   0  0  0  0  0  2  0  0  0  0  0  0
  -31.3500  -14.8740   19.9150 C   0  0  0  0  0  0  0  0  0  0  0  0
  -30.9680  -12.6250   18.9490 C   0  0  0  0  0  2  0  0  0  0  0  0
  -29.9930  -12.6600   17.7560 C   0  0  0  0  0  2  0  0  0  0  0  0
  -28.5330  -12.5360   18.2390 C   0  0  0  0  0  2  0  0  0  0  0  0
  -28.2140  -13.5370   19.3710 C   0  0  0  0  0  3  0  0  0  0  0  0
  -29.2980  -13.4860   20.4820 C   0  0  0  0  0  2  0  0  0  0  0  0
  -30.6160  -13.7210   19.8660 N   0  0  0  0  0  0  0  0  0  0  0  0
  -32.4400  -14.9760   19.3440 O   0  0  0  0  0  0  0  0  0  0  0  0
  -32.0950  -18.0830   20.8940 C   0  0  0  0  0  2  0  0  0  0  0  0
  -29.9840  -17.9020   19.5430 C   0  0  0  0  0  2  0  0  0  0  0  0
  -31.7580  -16.7120   21.5340 C   0  0  0  0  0  2  0  0  0  0  0  0
  -29.6550  -16.6330   20.3290 C   0  0  0  0  0  2  0  0  0  0  0  0
  -30.8320  -18.8310   20.4150 C   0  0  0  0  0  3  0  0  0  0  0  0
  -30.8760  -15.8890   20.6850 N   0  0  0  0  0  0  0  0  0  0  0  0
  -25.9370  -14.3170   20.2820 C   0  0  0  0  0  0  0  0  0  0  0  0
  -24.8300  -13.6170   20.6780 C   0  0  0  0  0  0  0  0  0  0  0  0
  -25.1670  -12.2350   20.5460 C   0  0  0  0  0  0  0  0  0  0  0  0
  -26.8800  -13.3590   19.9270 N   0  0  0  0  0  0  0  0  0  0  0  0
  -26.4270  -12.1020   20.1500 N   0  0  0  0  0  0  0  0  0  0  0  0
  -24.3480  -11.0300   20.7130 C   0  0  0  0  0  0  0  0  0  0  0  0
  -24.6870  -10.0310   21.6500 C   0  0  0  0  0  3  0  0  0  0  0  0
  -23.8760   -8.8850   21.7970 C   0  0  0  0  0  3  0  0  0  0  0  0
  -22.7130   -8.7330   21.0060 C   0  0  0  0  0  0  0  0  0  0  0  0
  -22.3940   -9.7200   20.0570 C   0  0  0  0  0  3  0  0  0  0  0  0
  -23.2040  -10.8570   19.9090 C   0  0  0  0  0  3  0  0  0  0  0  0
  -21.8820   -7.6430   21.0620 O   0  0  0  0  0  0  0  0  0  0  0  0
  -21.6760   -6.9590   22.2340 C   0  0  0  0  0  0  0  0  0  0  0  0
  -21.1620   -7.5920   23.3860 C   0  0  0  0  0  3  0  0  0  0  0  0
  -20.8990   -6.8370   24.5460 C   0  0  0  0  0  3  0  0  0  0  0  0
  -21.1380   -5.4500   24.5550 C   0  0  0  0  0  0  0  0  0  0  0  0
  -21.6480   -4.8170   23.4060 C   0  0  0  0  0  3  0  0  0  0  0  0
  -21.9130   -5.5700   22.2490 C   0  0  0  0  0  0  0  0  0  0  0  0
  -22.3840   -4.9520   21.1400 F   0  0  0  0  0  0  0  0  0  0  0  0
  -20.8770   -4.7220   25.6650 F   0  0  0  0  0  0  0  0  0  0  0  0
  -23.4960  -14.1970   21.0550 C   0  0  0  0  0  0  0  0  0  0  0  0
  -22.7570  -13.5250   21.9280 N   0  0  0  0  0  0  0  0  0  0  0  0
  -23.1200  -15.2810   20.6090 O   0  0  0  0  0  0  0  0  0  0  0  0
  -23.0690  -12.6520   22.3220 H   0  0  0  0  0  0  0  0  0  0  0  0
  -21.8600  -13.8980   22.2110 H   0  0  0  0  0  0  0  0  0  0  0  0
  -26.2070  -15.6760   20.1700 N   0  0  0  0  0  0  0  0  0  0  0  0
  -25.4890  -16.3750   20.3300 H   0  0  0  0  0  0  0  0  0  0  0  0
  -27.0460  -16.0540   19.7490 H   0  0  0  0  0  0  0  0  0  0  0  0
  1  5  1  0
  2  5  2  0
  2  9  1  0
  3 51  1  0
  3  2  1  0
  4  1  1  0
  6  4  2  0
  6  3  1  0
  7  8  1  0
  9  7  1  0
  9  8  1  0
 10 12  1  0
 10  4  1  0
 11 22  2  0
 12 17  1  0
 13 21  1  0
 13 23  1  0
 14 20  1  0
 14 16  1  0
 15 21  1  0
 16 15  1  0
 17 16  2  0
 18 19  1  0
 18 12  2  0
 19 14  2  0
 20 13  1  0
 21 11  1  0
 23 25  2  0
 24 23  1  0
 26 24  1  0
 27 32  1  0
 28 24  1  0
 29 28  1  0
 30 31  1  0
 30 29  1  0
 31 27  1  0
 32 28  1  0
 32 33  2  0
 34 33  1  0
 35 34  2  0
 36 27  2  0
 36 35  1  0
 37 11  1  0
 37 38  1  0
 37 47  1  0
 38 41  1  0
 39 43  1  0
 39 38  1  0
 40 39  2  0
 43 42  1  0
 45 43  1  0
 45 46  1  0
 45 44  1  0
 47 50  1  1
 47 48  1  0
 49 47  1  0
 52 51  1  0
 53 52  1  0
 54 52  1  0
 55 52  1  0
 55 56  1  0
 57 70  1  0
 58 63  1  0
 59 60  1  0
 59 58  1  0
 61 60  1  0
 61 74  1  0
 61 62  1  0
 63 57  1  0
 63 62  1  0
 64 57  2  0
 65 67  1  0
 66 68  1  0
 66 69  1  0
 68 70  1  0
 69 56  1  0
 69 65  1  0
 70 67  1  0
 71 72  2  0
 72 91  1  0
 73 72  1  0
 73 76  1  0
 74 75  1  0
 74 71  1  0
 75 73  2  0
 76 77  1  0
 77 78  2  0
 79 82  1  0
 79 78  1  0
 80 79  2  0
 81 80  1  0
 81 76  2  0
 82 83  1  0
 83 88  2  0
 83 84  1  0
 84 85  2  0
 85 86  1  0
 86 90  1  0
 87 86  2  0
 88 87  1  0
 89 88  1  0
 91 92  1  0
 92 95  1  0
 92 94  1  0
 93 91  2  0
 96 71  1  0
 96 97  1  0
 98 96  1  0
M  ISO  4   4 101  10 101  57 100  70 100
M  END
>  <TORSDO>  (88) 
F 21

>  <SCORE>  (88) 
-10.389

>  <name>  (88) 
89

>  <ligand_id>  (88) 
89

>  <original_smiles>  (88) 
[H]c1nc(C2([H])C([H])([H])C2([H])[H])c(C([H])([H])[N+]([H])([H])C([H])([H])C([H])([H])C2([H])C([H])([H])C([H])([H])N(C(=O)N3C([H])([H])C([H])([H])C([H])([H])C([H])(n4nc(-c5c([H])c([H])c(Oc6c([H])c([H])c(F)c([H])c6F)c([H])c5[H])c(C(=O)N([H])[H])c4N([H])[H])C3([H])[H])C([H])([H])C2([H])[H])nc1Oc1c([H])c([H])c2c(c1[H])C([H])([H])N(C(=O)C([H])(N([H])C(=O)C([H])(N([H])C([H])([H])[H])C([H])([H])[H])C(C([H])([H])[H])(C([H])([H])[H])C([H])([H])[H])C([H])(C(=O)N([H])C1([H])c3c([H])c([H])c([H])c([H])c3C([H])([H])C([H])([H])C1([H])[H])C2([H])[H]

>  <smiles>  (88) 
[H]c1nc(C2([H])C([H])([H])C2([H])[H])c(C([H])([H])[N+]([H])([H])C([H])([H])C([H])([H])C2([H])C([H])([H])C([H])([H])N(C(=O)N3C([H])([H])C([H])([H])C([H])([H])C([H])(n4nc(-c5c([H])c([H])c(Oc6c([H])c([H])c(F)c([H])c6F)c([H])c5[H])c(C(=O)N([H])[H])c4N([H])[H])C3([H])[H])C([H])([H])C2([H])[H])nc1Oc1c([H])c([H])c2c(c1[H])C([H])([H])N(C(=O)C([H])(N([H])C(=O)C([H])(N([H])C([H])([H])[H])C([H])([H])[H])C(C([H])([H])[H])(C([H])([H])[H])C([H])([H])[H])C([H])(C(=O)N([H])C1([H])c3c([H])c([H])c([H])c([H])c3C([H])([H])C([H])([H])C1([H])[H])C2([H])[H]

$$$$
90:0:0
     RDKit          3D

 95105  0  0  1  0  0  0  0  0999 V2000
  -30.6970  -14.4820   20.5270 C   0  0  0  0  0  0  0  0  0  0  0  0
  -30.3840  -12.3520   19.3360 C   0  0  0  0  0  2  0  0  0  0  0  0
  -29.4360  -12.5840   18.1430 C   0  0  0  0  0  2  0  0  0  0  0  0
  -27.9610  -12.4470   18.5730 C   0  0  0  0  0  2  0  0  0  0  0  0
  -27.6240  -13.2540   19.8550 C   0  0  0  0  0  3  0  0  0  0  0  0
  -28.6890  -13.0190   20.9520 C   0  0  0  0  0  2  0  0  0  0  0  0
  -30.0140  -13.3170   20.3780 N   0  0  0  0  0  0  0  0  0  0  0  0
  -31.8620  -14.6410   20.1490 O   0  0  0  0  0  0  0  0  0  0  0  0
  -31.8480  -21.6390   20.5270 C   0  0  0  0  0  3  0  0  0  0  0  0
  -29.8450  -20.3860   19.2310 C   0  0  0  0  0  3  0  0  0  0  0  0
  -31.0650  -22.3110   19.5570 C   0  0  0  0  0  0  0  0  0  0  0  0
  -30.6470  -19.6900   20.1780 C   0  0  0  0  0  0  0  0  0  0  0  0
  -30.1240  -17.4510   19.3270 C   0  0  0  0  0  2  0  0  0  0  0  0
  -31.1000  -17.6650   21.5830 C   0  0  0  0  0  2  0  0  0  0  0  0
  -29.2680  -16.2850   19.8180 C   0  0  0  0  0  2  0  0  0  0  0  0
  -30.3170  -16.4030   22.0240 C   0  0  0  0  0  2  0  0  0  0  0  0
  -30.0530  -21.6830   18.9120 N   0  0  0  0  0  0  0  0  0  0  0  0
  -31.6400  -20.3340   20.8420 N   0  0  0  0  0  0  0  0  0  0  0  0
  -30.4410  -18.3210   20.4520 N   0  0  0  0  0  0  0  0  0  0  0  0
  -29.9440  -15.5390   20.8900 N   0  0  0  0  0  0  0  0  0  0  0  0
  -25.2270  -13.8900   20.5320 C   0  0  0  0  0  0  0  0  0  0  0  0
  -24.1490  -13.1260   20.8880 C   0  0  0  0  0  0  0  0  0  0  0  0
  -24.6060  -11.7730   20.8730 C   0  0  0  0  0  0  0  0  0  0  0  0
  -26.2690  -12.9980   20.3240 N   0  0  0  0  0  0  0  0  0  0  0  0
  -25.8970  -11.7200   20.5820 N   0  0  0  0  0  0  0  0  0  0  0  0
  -23.8740  -10.5150   21.0590 C   0  0  0  0  0  0  0  0  0  0  0  0
  -24.3030   -9.5450   21.9920 C   0  0  0  0  0  3  0  0  0  0  0  0
  -23.5730   -8.3510   22.1670 C   0  0  0  0  0  3  0  0  0  0  0  0
  -22.4010   -8.1190   21.4080 C   0  0  0  0  0  0  0  0  0  0  0  0
  -21.9950   -9.0770   20.4620 C   0  0  0  0  0  3  0  0  0  0  0  0
  -22.7250  -10.2630   20.2840 C   0  0  0  0  0  3  0  0  0  0  0  0
  -21.6420   -6.9780   21.4930 O   0  0  0  0  0  0  0  0  0  0  0  0
  -21.5920   -6.2310   22.6430 C   0  0  0  0  0  0  0  0  0  0  0  0
  -21.1700   -6.7850   23.8710 C   0  0  0  0  0  3  0  0  0  0  0  0
  -21.0660   -5.9670   25.0140 C   0  0  0  0  0  3  0  0  0  0  0  0
  -21.3740   -4.5960   24.9290 C   0  0  0  0  0  0  0  0  0  0  0  0
  -21.7900   -4.0410   23.7050 C   0  0  0  0  0  3  0  0  0  0  0  0
  -21.8950   -4.8560   22.5640 C   0  0  0  0  0  0  0  0  0  0  0  0
  -22.2770   -4.3130   21.3840 F   0  0  0  0  0  0  0  0  0  0  0  0
  -21.2650   -3.8080   26.0220 F   0  0  0  0  0  0  0  0  0  0  0  0
  -22.7490  -13.6120   21.1370 C   0  0  0  0  0  0  0  0  0  0  0  0
  -22.0090  -12.9240   21.9990 N   0  0  0  0  0  0  0  0  0  0  0  0
  -22.3210  -14.6340   20.6030 O   0  0  0  0  0  0  0  0  0  0  0  0
  -22.3670  -12.0950   22.4500 H   0  0  0  0  0  0  0  0  0  0  0  0
  -21.0690  -13.2280   22.2080 H   0  0  0  0  0  0  0  0  0  0  0  0
  -25.3950  -15.2600   20.3500 N   0  0  0  0  0  0  0  0  0  0  0  0
  -24.6250  -15.9120   20.4420 H   0  0  0  0  0  0  0  0  0  0  0  0
  -26.2540  -15.7000   20.0500 H   0  0  0  0  0  0  0  0  0  0  0  0
  -31.3610  -23.7440   19.1220 C   0  0  0  0  0  2  0  0  0  0  0  0
  -30.4500  -26.0550   18.9630 C   0  0  0  0  0  2  0  0  0  0  0  0
  -28.9840  -24.6100   19.2690 C   0  0  0  0  0  2  0  0  0  0  0  0
  -28.9260  -26.1200   19.0530 C   0  0  0  0  0  3  0  0  0  0  0  0
  -30.3990  -24.7540   19.6310 N   0  0  1  0  0  4  0  0  0  0  0  0
  -30.4830  -24.8730   20.6290 H   0  0  0  0  0  0  0  0  0  0  0  0
  -28.5220  -26.8560   20.2040 O   0  0  0  0  0  0  0  0  0  0  0  0
  -24.6050  -31.9030   23.2690 C   0  0  0  0  0  0  0  0  0  0  0  0
  -27.3110  -27.5100   20.1780 C   0  0  0  0  0  0  0  0  0  0  0  0
  -23.4080  -30.4900   21.6220 C   0  0  0  0  0  3  0  0  0  0  0  0
  -24.8800  -28.9570   20.2010 C   0  0  0  0  0  0  0  0  0  0  0  0
  -25.9290  -30.8680   21.4350 C   0  0  0  0  0  2  0  0  0  0  0  0
  -26.0240  -29.4980   20.7980 C   0  0  0  0  0  0  0  0  0  0  0  0
  -27.2330  -28.7730   20.8000 C   0  0  0  0  0  3  0  0  0  0  0  0
  -26.1500  -26.9680   19.5800 C   0  0  0  0  0  3  0  0  0  0  0  0
  -24.9340  -27.6870   19.5980 C   0  0  0  0  0  3  0  0  0  0  0  0
  -23.6240  -29.8020   20.2440 C   0  0  0  0  0  2  0  0  0  0  0  0
  -24.6630  -31.1030   22.1660 N   0  0  0  0  0  0  0  0  0  0  0  0
  -23.5210  -32.1710   23.8080 O   0  0  0  0  0  0  0  0  0  0  0  0
  -22.7610  -29.4700   22.5830 C   0  0  0  0  0  0  0  0  0  0  0  0
  -21.4390  -29.2830   22.4510 N   0  0  0  0  0  0  0  0  0  0  0  0
  -23.4460  -28.8510   23.4020 O   0  0  0  0  0  0  0  0  0  0  0  0
  -20.9480  -29.8370   21.7630 H   0  0  0  0  0  0  0  0  0  0  0  0
  -18.0680  -28.0740   22.9330 C   0  0  0  0  0  0  0  0  0  0  0  0
  -20.6230  -28.3420   23.2190 C   0  0  0  0  0  3  0  0  0  0  0  0
  -20.7340  -26.9100   22.6460 C   0  0  0  0  0  2  0  0  0  0  0  0
  -19.6400  -26.5820   21.6260 C   0  0  0  0  0  2  0  0  0  0  0  0
  -18.2530  -26.7230   22.2620 C   0  0  0  0  0  2  0  0  0  0  0  0
  -19.1820  -28.8410   23.3670 C   0  0  0  0  0  0  0  0  0  0  0  0
  -18.9550  -30.1050   23.9540 C   0  0  0  0  0  3  0  0  0  0  0  0
  -17.6480  -30.6030   24.1120 C   0  0  0  0  0  3  0  0  0  0  0  0
  -16.5480  -29.8330   23.6930 C   0  0  0  0  0  3  0  0  0  0  0  0
  -16.7590  -28.5720   23.1100 C   0  0  0  0  0  3  0  0  0  0  0  0
  -25.8890  -32.5360   23.8900 C   0  0  0  0  0  3  0  0  0  0  0  0
  -25.5800  -33.9360   24.2100 N   0  0  0  0  0  0  0  0  0  0  0  0
  -25.9150  -34.9820   23.4440 C   0  0  0  0  0  0  0  0  0  0  0  0
  -26.5880  -34.8740   22.4150 O   0  0  0  0  0  0  0  0  0  0  0  0
  -24.9840  -34.0950   25.0070 H   0  0  0  0  0  0  0  0  0  0  0  0
  -24.1830  -36.7690   23.0720 C   0  0  0  0  0  1  0  0  0  0  0  0
  -25.4240  -36.3730   23.8900 C   0  0  0  0  0  3  0  0  0  0  0  0
  -27.5550  -37.2690   24.7190 C   0  0  0  0  0  1  0  0  0  0  0  0
  -26.4550  -37.4280   23.7710 N   0  0  0  0  0  0  0  0  0  0  0  0
  -26.0470  -38.3480   23.9130 H   0  0  0  0  0  0  0  0  0  0  0  0
  -26.4040  -31.7720   25.1720 C   0  0  1  0  0  0  0  0  0  0  0  0
  -25.3080  -31.5410   26.2370 C   0  0  0  0  0  1  0  0  0  0  0  0
  -26.9870  -30.3910   24.7880 C   0  0  0  0  0  1  0  0  0  0  0  0
  -27.5500  -32.5690   25.8370 C   0  0  0  0  0  1  0  0  0  0  0  0
  1 20  1  0
  2  7  1  0
  3  4  1  0
  3  2  1  0
  5  4  1  0
  5 24  1  0
  5  6  1  0
  7  1  1  0
  7  6  1  0
  8  1  2  0
  9 18  1  0
 10 12  1  0
 11  9  2  0
 12 19  1  0
 12 18  2  0
 13 15  1  0
 13 19  1  0
 14 16  1  0
 15 20  1  0
 17 10  2  0
 17 11  1  0
 19 14  1  0
 20 16  1  0
 21 22  2  0
 22 41  1  0
 23 22  1  0
 23 26  1  0
 24 21  1  0
 24 25  1  0
 25 23  2  0
 26 27  1  0
 27 28  2  0
 29 32  1  0
 29 28  1  0
 30 29  2  0
 31 30  1  0
 31 26  2  0
 32 33  1  0
 33 34  1  0
 34 35  2  0
 36 35  1  0
 36 40  1  0
 37 36  2  0
 38 33  2  0
 38 37  1  0
 39 38  1  0
 41 42  1  0
 42 45  1  0
 42 44  1  0
 43 41  2  0
 46 47  1  0
 46 21  1  0
 48 46  1  0
 49 11  1  0
 49 53  1  0
 50 52  1  0
 50 53  1  0
 51 53  1  0
 52 51  1  0
 52 55  1  0
 53 54  1  1
 56 67  2  0
 57 55  1  0
 57 62  1  0
 58 66  1  0
 58 68  1  0
 59 65  1  0
 59 61  1  0
 60 66  1  0
 61 62  2  0
 61 60  1  0
 63 64  1  0
 63 57  2  0
 64 59  2  0
 65 58  1  0
 66 56  1  0
 68 70  2  0
 69 68  1  0
 71 69  1  0
 72 81  2  0
 72 77  1  0
 73 69  1  0
 73 77  1  0
 74 73  1  0
 75 76  1  0
 75 74  1  0
 76 72  1  0
 77 78  2  0
 78 79  1  0
 80 79  2  0
 81 80  1  0
 82 56  1  0
 82 83  1  0
 82 92  1  0
 83 86  1  0
 84 88  1  0
 84 83  1  0
 85 84  2  0
 88 87  1  0
 90 88  1  0
 90 91  1  0
 90 89  1  0
 92 95  1  1
 92 93  1  0
 94 92  1  0
M  ISO  4   1 100  20 100  52 101  55 101
M  END
>  <TORSDO>  (89) 
F 17

>  <SCORE>  (89) 
-15.393

>  <name>  (89) 
90

>  <ligand_id>  (89) 
90

>  <original_smiles>  (89) 
[H]c1nc(C([H])([H])[N+]2([H])C([H])([H])C([H])(Oc3c([H])c([H])c4c(c3[H])C([H])([H])N(C(=O)C([H])(N([H])C(=O)C([H])(N([H])C([H])([H])[H])C([H])([H])[H])C(C([H])([H])[H])(C([H])([H])[H])C([H])([H])[H])C([H])(C(=O)N([H])C3([H])c5c([H])c([H])c([H])c([H])c5C([H])([H])C([H])([H])C3([H])[H])C4([H])[H])C2([H])[H])c([H])nc1N1C([H])([H])C([H])([H])N(C(=O)N2C([H])([H])C([H])([H])C([H])([H])C([H])(n3nc(-c4c([H])c([H])c(Oc5c([H])c([H])c(F)c([H])c5F)c([H])c4[H])c(C(=O)N([H])[H])c3N([H])[H])C2([H])[H])C([H])([H])C1([H])[H]

>  <smiles>  (89) 
[H]c1nc(C([H])([H])[N+]2([H])C([H])([H])C([H])(Oc3c([H])c([H])c4c(c3[H])C([H])([H])N(C(=O)C([H])(N([H])C(=O)C([H])(N([H])C([H])([H])[H])C([H])([H])[H])C(C([H])([H])[H])(C([H])([H])[H])C([H])([H])[H])C([H])(C(=O)N([H])C3([H])c5c([H])c([H])c([H])c([H])c5C([H])([H])C([H])([H])C3([H])[H])C4([H])[H])C2([H])[H])c([H])nc1N1C([H])([H])C([H])([H])N(C(=O)N2C([H])([H])C([H])([H])C([H])([H])C([H])(n3nc(-c4c([H])c([H])c(Oc5c([H])c([H])c(F)c([H])c5F)c([H])c4[H])c(C(=O)N([H])[H])c3N([H])[H])C2([H])[H])C([H])([H])C1([H])[H]

$$$$
91:0:0
     RDKit          3D

 93102  0  0  1  0  0  0  0  0999 V2000
  -27.4900  -20.5330   20.7540 C   0  0  0  0  0  3  0  0  0  0  0  0
  -27.2690  -22.7790   20.3180 C   0  0  0  0  0  0  0  0  0  0  0  0
  -28.6730  -22.9100   20.1100 C   0  0  0  0  0  0  0  0  0  0  0  0
  -28.8810  -20.5350   20.4440 C   0  0  0  0  0  0  0  0  0  0  0  0
  -26.7030  -21.6180   20.6950 N   0  0  0  0  0  0  0  0  0  0  0  0
  -29.4750  -21.7640   20.1610 N   0  0  0  0  0  0  0  0  0  0  0  0
  -31.3080  -15.0900   20.1720 C   0  0  0  0  0  0  0  0  0  0  0  0
  -30.9980  -12.8030   19.2210 C   0  0  0  0  0  2  0  0  0  0  0  0
  -30.0410  -12.7950   18.0130 C   0  0  0  0  0  2  0  0  0  0  0  0
  -28.5770  -12.6280   18.4710 C   0  0  0  0  0  2  0  0  0  0  0  0
  -28.2180  -13.5650   19.6500 C   0  0  0  0  0  3  0  0  0  0  0  0
  -29.3100  -13.5420   20.7580 C   0  0  0  0  0  2  0  0  0  0  0  0
  -30.5830  -13.9090   20.1140 N   0  0  0  0  0  0  0  0  0  0  0  0
  -32.5060  -15.0430   19.8680 O   0  0  0  0  0  0  0  0  0  0  0  0
  -28.8300  -18.0400   20.8020 C   0  0  0  0  0  2  0  0  0  0  0  0
  -30.9190  -18.9790   19.9130 C   0  0  0  0  0  2  0  0  0  0  0  0
  -29.3300  -16.7130   20.1750 C   0  0  0  0  0  2  0  0  0  0  0  0
  -31.5600  -17.6210   20.4550 C   0  0  0  0  0  2  0  0  0  0  0  0
  -29.5690  -19.2560   20.4170 N   0  0  0  0  0  0  0  0  0  0  0  0
  -30.7350  -16.3530   20.3910 N   0  0  0  0  0  0  0  0  0  0  0  0
  -25.8840  -14.2350   20.4870 C   0  0  0  0  0  0  0  0  0  0  0  0
  -24.7960  -13.4990   20.8510 C   0  0  0  0  0  0  0  0  0  0  0  0
  -25.1880  -12.1280   20.7260 C   0  0  0  0  0  0  0  0  0  0  0  0
  -26.8770  -13.3220   20.1660 N   0  0  0  0  0  0  0  0  0  0  0  0
  -26.4650  -12.0450   20.3710 N   0  0  0  0  0  0  0  0  0  0  0  0
  -24.4100  -10.8920   20.8610 C   0  0  0  0  0  0  0  0  0  0  0  0
  -24.7750   -9.8840   21.7800 C   0  0  0  0  0  3  0  0  0  0  0  0
  -23.9990   -8.7130   21.9060 C   0  0  0  0  0  3  0  0  0  0  0  0
  -22.8400   -8.5420   21.1120 C   0  0  0  0  0  0  0  0  0  0  0  0
  -22.4910   -9.5400   20.1840 C   0  0  0  0  0  3  0  0  0  0  0  0
  -23.2690  -10.7030   20.0570 C   0  0  0  0  0  3  0  0  0  0  0  0
  -22.0460   -7.4230   21.1480 O   0  0  0  0  0  0  0  0  0  0  0  0
  -21.8540   -6.7140   22.3060 C   0  0  0  0  0  0  0  0  0  0  0  0
  -21.2780   -7.3010   23.4550 C   0  0  0  0  0  3  0  0  0  0  0  0
  -21.0400   -6.5170   24.6000 C   0  0  0  0  0  3  0  0  0  0  0  0
  -21.3610   -5.1470   24.5960 C   0  0  0  0  0  0  0  0  0  0  0  0
  -21.9270   -4.5590   23.4520 C   0  0  0  0  0  3  0  0  0  0  0  0
  -22.1700   -5.3400   22.3080 C   0  0  0  0  0  0  0  0  0  0  0  0
  -22.6990   -4.7630   21.2020 F   0  0  0  0  0  0  0  0  0  0  0  0
  -21.1210   -4.3930   25.6950 F   0  0  0  0  0  0  0  0  0  0  0  0
  -23.4270  -14.0220   21.1880 C   0  0  0  0  0  0  0  0  0  0  0  0
  -22.6980  -13.3230   22.0460 N   0  0  0  0  0  0  0  0  0  0  0  0
  -23.0160  -15.0890   20.7280 O   0  0  0  0  0  0  0  0  0  0  0  0
  -23.0430  -12.4640   22.4480 H   0  0  0  0  0  0  0  0  0  0  0  0
  -21.7830  -13.6550   22.3170 H   0  0  0  0  0  0  0  0  0  0  0  0
  -26.1010  -15.6070   20.3750 N   0  0  0  0  0  0  0  0  0  0  0  0
  -25.3590  -16.2790   20.5350 H   0  0  0  0  0  0  0  0  0  0  0  0
  -26.9190  -16.0090   19.9430 H   0  0  0  0  0  0  0  0  0  0  0  0
  -25.5600  -23.5710   18.6410 C   0  0  0  0  0  1  0  0  0  0  0  0
  -26.2170  -23.8340   19.9950 C   0  0  0  0  0  2  0  0  0  0  0  0
  -29.2350  -24.3180   19.6670 C   0  0  0  0  0  2  0  0  0  0  0  0
  -29.0480  -25.5690   20.6460 C   0  0  0  0  0  2  0  0  0  0  0  0
  -29.0690  -26.9400   20.0980 O   0  0  0  0  0  0  0  0  0  0  0  0
  -24.7630  -31.7390   23.3220 C   0  0  0  0  0  0  0  0  0  0  0  0
  -27.8840  -27.6790   20.0780 C   0  0  0  0  0  0  0  0  0  0  0  0
  -23.7740  -30.4380   21.4630 C   0  0  0  0  0  3  0  0  0  0  0  0
  -25.4300  -29.1350   20.0090 C   0  0  0  0  0  0  0  0  0  0  0  0
  -26.2910  -30.9260   21.5150 C   0  0  0  0  0  2  0  0  0  0  0  0
  -26.5080  -29.6230   20.7570 C   0  0  0  0  0  0  0  0  0  0  0  0
  -27.7340  -28.9000   20.7970 C   0  0  0  0  0  3  0  0  0  0  0  0
  -26.7980  -27.2470   19.2910 C   0  0  0  0  0  3  0  0  0  0  0  0
  -25.5820  -27.9560   19.2580 C   0  0  0  0  0  3  0  0  0  0  0  0
  -24.1380  -29.9270   20.0410 C   0  0  0  0  0  2  0  0  0  0  0  0
  -24.9550  -31.0480   22.1590 N   0  0  0  0  0  0  0  0  0  0  0  0
  -23.6290  -31.9030   23.7920 O   0  0  0  0  0  0  0  0  0  0  0  0
  -23.1150  -29.2940   22.2700 C   0  0  0  0  0  0  0  0  0  0  0  0
  -21.7900  -29.1270   22.1130 N   0  0  0  0  0  0  0  0  0  0  0  0
  -23.7990  -28.5650   22.9920 O   0  0  0  0  0  0  0  0  0  0  0  0
  -21.3030  -29.7670   21.5070 H   0  0  0  0  0  0  0  0  0  0  0  0
  -18.3850  -27.9820   22.4920 C   0  0  0  0  0  0  0  0  0  0  0  0
  -20.9570  -28.1060   22.7540 C   0  0  0  0  0  3  0  0  0  0  0  0
  -20.9810  -26.7740   21.9700 C   0  0  0  0  0  2  0  0  0  0  0  0
  -19.8750  -26.6920   20.9100 C   0  0  0  0  0  2  0  0  0  0  0  0
  -18.5000  -26.7700   21.5790 C   0  0  0  0  0  2  0  0  0  0  0  0
  -19.5390  -28.6220   23.0210 C   0  0  0  0  0  0  0  0  0  0  0  0
  -19.3790  -29.7700   23.8210 C   0  0  0  0  0  3  0  0  0  0  0  0
  -18.0970  -30.2810   24.0890 C   0  0  0  0  0  3  0  0  0  0  0  0
  -16.9550  -29.6380   23.5810 C   0  0  0  0  0  3  0  0  0  0  0  0
  -17.1010  -28.4790   22.7960 C   0  0  0  0  0  3  0  0  0  0  0  0
  -25.9600  -32.3690   24.1010 C   0  0  0  0  0  3  0  0  0  0  0  0
  -26.3460  -31.5680   25.4030 C   0  0  1  0  0  0  0  0  0  0  0  0
  -25.1440  -31.2880   26.3370 C   0  0  0  0  0  1  0  0  0  0  0  0
  -26.9850  -30.2090   25.0390 C   0  0  0  0  0  1  0  0  0  0  0  0
  -27.4180  -32.3470   26.2030 C   0  0  0  0  0  1  0  0  0  0  0  0
  -25.5950  -33.7520   24.4330 N   0  0  0  0  0  0  0  0  0  0  0  0
  -25.9880  -34.8320   23.7400 C   0  0  0  0  0  0  0  0  0  0  0  0
  -26.7680  -34.7730   22.7850 O   0  0  0  0  0  0  0  0  0  0  0  0
  -24.9280  -33.8700   25.1780 H   0  0  0  0  0  0  0  0  0  0  0  0
  -24.2590  -36.5960   23.2630 C   0  0  0  0  0  1  0  0  0  0  0  0
  -25.4310  -36.2040   24.1770 C   0  0  0  0  0  3  0  0  0  0  0  0
  -27.4530  -37.1270   25.2250 C   0  0  0  0  0  1  0  0  0  0  0  0
  -26.4490  -37.2800   24.1740 N   0  0  0  0  0  0  0  0  0  0  0  0
  -26.0080  -38.1890   24.2920 H   0  0  0  0  0  0  0  0  0  0  0  0
  2  5  2  0
  3  6  2  0
  3  2  1  0
  4  1  2  0
  5  1  1  0
  6  4  1  0
  7 20  1  0
  8 13  1  0
  9 10  1  0
  9  8  1  0
 11 10  1  0
 11 24  1  0
 11 12  1  0
 13  7  1  0
 13 12  1  0
 14  7  2  0
 16 19  1  0
 16 18  1  0
 17 20  1  0
 17 15  1  0
 19  4  1  0
 19 15  1  0
 20 18  1  0
 21 22  2  0
 22 41  1  0
 23 22  1  0
 23 26  1  0
 24 25  1  0
 24 21  1  0
 25 23  2  0
 26 27  1  0
 27 28  2  0
 29 32  1  0
 29 28  1  0
 30 29  2  0
 31 30  1  0
 31 26  2  0
 32 33  1  0
 33 38  2  0
 33 34  1  0
 34 35  2  0
 36 35  1  0
 36 40  1  0
 37 36  2  0
 38 37  1  0
 39 38  1  0
 41 42  1  0
 42 45  1  0
 42 44  1  0
 43 41  2  0
 46 21  1  0
 46 47  1  0
 48 46  1  0
 49 50  1  0
 50  2  1  0
 51  3  1  0
 51 52  1  0
 53 52  1  0
 54 65  2  0
 55 53  1  0
 55 60  1  0
 56 64  1  0
 56 66  1  0
 57 63  1  0
 57 59  1  0
 58 64  1  0
 59 60  2  0
 59 58  1  0
 61 55  2  0
 62 61  1  0
 62 57  2  0
 63 56  1  0
 64 54  1  0
 66 68  2  0
 67 66  1  0
 69 67  1  0
 70 79  2  0
 70 75  1  0
 71 67  1  0
 71 75  1  0
 72 71  1  0
 73 74  1  0
 73 72  1  0
 74 70  1  0
 75 76  2  0
 76 77  1  0
 78 77  2  0
 79 78  1  0
 80 54  1  0
 80 85  1  0
 80 81  1  0
 81 84  1  1
 81 82  1  0
 83 81  1  0
 85 88  1  0
 86 90  1  0
 86 85  1  0
 87 86  2  0
 90 89  1  0
 92 90  1  0
 92 93  1  0
 92 91  1  0
M  ISO  4   7 100  20 100  52 101  53 101
M  END
>  <TORSDO>  (90) 
F 19

>  <SCORE>  (90) 
-11.885

>  <name>  (90) 
91

>  <ligand_id>  (90) 
91

>  <original_smiles>  (90) 
[H]c1nc(C([H])([H])C([H])([H])[H])c(C([H])([H])C([H])([H])Oc2c([H])c([H])c3c(c2[H])C([H])([H])N(C(=O)C([H])(N([H])C(=O)C([H])(N([H])C([H])([H])[H])C([H])([H])[H])C(C([H])([H])[H])(C([H])([H])[H])C([H])([H])[H])C([H])(C(=O)N([H])C2([H])c4c([H])c([H])c([H])c([H])c4C([H])([H])C([H])([H])C2([H])[H])C3([H])[H])nc1N1C([H])([H])C([H])([H])N(C(=O)N2C([H])([H])C([H])([H])C([H])([H])C([H])(n3nc(-c4c([H])c([H])c(Oc5c([H])c([H])c(F)c([H])c5F)c([H])c4[H])c(C(=O)N([H])[H])c3N([H])[H])C2([H])[H])C([H])([H])C1([H])[H]

>  <smiles>  (90) 
[H]c1nc(C([H])([H])C([H])([H])[H])c(C([H])([H])C([H])([H])Oc2c([H])c([H])c3c(c2[H])C([H])([H])N(C(=O)C([H])(N([H])C(=O)C([H])(N([H])C([H])([H])[H])C([H])([H])[H])C(C([H])([H])[H])(C([H])([H])[H])C([H])([H])[H])C([H])(C(=O)N([H])C2([H])c4c([H])c([H])c([H])c([H])c4C([H])([H])C([H])([H])C2([H])[H])C3([H])[H])nc1N1C([H])([H])C([H])([H])N(C(=O)N2C([H])([H])C([H])([H])C([H])([H])C([H])(n3nc(-c4c([H])c([H])c(Oc5c([H])c([H])c(F)c([H])c5F)c([H])c4[H])c(C(=O)N([H])[H])c3N([H])[H])C2([H])[H])C([H])([H])C1([H])[H]

$$$$
92:0:0
     RDKit          3D

 98108  0  0  1  0  0  0  0  0999 V2000
  -30.3900  -20.0980   19.6420 C   0  0  0  0  0  3  0  0  0  0  0  0
  -32.1680  -21.3240   20.2540 C   0  0  0  0  0  3  0  0  0  0  0  0
  -31.2160  -21.2050   19.2690 C   0  0  0  0  0  0  0  0  0  0  0  0
  -30.8610  -19.6270   20.8340 C   0  0  0  0  0  0  0  0  0  0  0  0
  -31.9530  -20.3700   21.2300 N   0  0  0  0  0  0  0  0  0  0  0  0
  -32.3050  -22.9360   17.7610 C   0  0  0  0  0  2  0  0  0  0  0  0
  -32.1000  -24.2030   18.6120 C   0  0  0  0  0  2  0  0  0  0  0  0
  -29.9980  -23.1610   18.2200 C   0  0  0  0  0  2  0  0  0  0  0  0
  -31.0620  -22.0760   18.0300 C   0  0  0  0  0  3  0  0  0  0  0  0
  -30.6700  -24.2160   19.0100 N   0  0  2  0  0  4  0  0  0  0  0  0
  -30.6530  -23.8970   19.9670 H   0  0  0  0  0  0  0  0  0  0  0  0
  -30.0420  -25.5610   18.9790 C   0  0  0  0  0  2  0  0  0  0  0  0
  -28.6270  -25.5820   19.5830 C   0  0  0  0  0  2  0  0  0  0  0  0
  -28.4480  -26.8600   20.1900 O   0  0  0  0  0  0  0  0  0  0  0  0
  -24.5100  -31.9020   23.2560 C   0  0  0  0  0  0  0  0  0  0  0  0
  -27.2220  -27.4860   20.1970 C   0  0  0  0  0  0  0  0  0  0  0  0
  -23.3330  -30.4970   21.5940 C   0  0  0  0  0  3  0  0  0  0  0  0
  -24.8060  -28.9590   20.2010 C   0  0  0  0  0  0  0  0  0  0  0  0
  -25.8590  -30.8620   21.4370 C   0  0  0  0  0  2  0  0  0  0  0  0
  -25.9530  -29.4910   20.7990 C   0  0  0  0  0  0  0  0  0  0  0  0
  -27.1590  -28.7610   20.7980 C   0  0  0  0  0  3  0  0  0  0  0  0
  -26.0430  -26.9440   19.6290 C   0  0  0  0  0  3  0  0  0  0  0  0
  -24.8410  -27.6790   19.6210 C   0  0  0  0  0  3  0  0  0  0  0  0
  -23.5610  -29.8170   20.2200 C   0  0  0  0  0  2  0  0  0  0  0  0
  -24.5840  -31.1030   22.1540 N   0  0  0  0  0  0  0  0  0  0  0  0
  -23.4200  -32.1760   23.7770 O   0  0  0  0  0  0  0  0  0  0  0  0
  -22.6690  -29.4770   22.5440 C   0  0  0  0  0  0  0  0  0  0  0  0
  -21.3480  -29.2940   22.3910 N   0  0  0  0  0  0  0  0  0  0  0  0
  -23.3380  -28.8500   23.3690 O   0  0  0  0  0  0  0  0  0  0  0  0
  -20.8720  -29.8490   21.6940 H   0  0  0  0  0  0  0  0  0  0  0  0
  -17.9550  -28.1500   22.8760 C   0  0  0  0  0  0  0  0  0  0  0  0
  -20.5170  -28.3570   23.1460 C   0  0  0  0  0  3  0  0  0  0  0  0
  -20.5920  -26.9360   22.5410 C   0  0  0  0  0  2  0  0  0  0  0  0
  -19.4820  -26.6520   21.5240 C   0  0  0  0  0  2  0  0  0  0  0  0
  -18.1050  -26.8110   22.1750 C   0  0  0  0  0  2  0  0  0  0  0  0
  -19.0870  -28.8860   23.3170 C   0  0  0  0  0  0  0  0  0  0  0  0
  -18.8920  -30.1420   23.9300 C   0  0  0  0  0  3  0  0  0  0  0  0
  -17.5960  -30.6640   24.1020 C   0  0  0  0  0  3  0  0  0  0  0  0
  -16.4790  -29.9260   23.6760 C   0  0  0  0  0  3  0  0  0  0  0  0
  -16.6590  -28.6700   23.0700 C   0  0  0  0  0  3  0  0  0  0  0  0
  -25.7860  -32.5270   23.9000 C   0  0  0  0  0  3  0  0  0  0  0  0
  -25.4770  -33.9300   24.2050 N   0  0  0  0  0  0  0  0  0  0  0  0
  -25.8400  -34.9720   23.4420 C   0  0  0  0  0  0  0  0  0  0  0  0
  -26.5410  -34.8530   22.4340 O   0  0  0  0  0  0  0  0  0  0  0  0
  -24.8540  -34.1010   24.9790 H   0  0  0  0  0  0  0  0  0  0  0  0
  -24.1430  -36.7770   23.0020 C   0  0  0  0  0  1  0  0  0  0  0  0
  -25.3450  -36.3670   23.8670 C   0  0  0  0  0  3  0  0  0  0  0  0
  -27.4530  -37.2360   24.7810 C   0  0  0  0  0  1  0  0  0  0  0  0
  -26.3930  -37.4100   23.7910 N   0  0  0  0  0  0  0  0  0  0  0  0
  -25.9910  -38.3350   23.9170 H   0  0  0  0  0  0  0  0  0  0  0  0
  -26.2750  -31.7680   25.1950 C   0  0  1  0  0  0  0  0  0  0  0  0
  -25.1580  -31.5370   26.2400 C   0  0  0  0  0  1  0  0  0  0  0  0
  -26.8680  -30.3880   24.8290 C   0  0  0  0  0  1  0  0  0  0  0  0
  -27.4150  -32.5690   25.8680 C   0  0  0  0  0  1  0  0  0  0  0  0
  -34.5510  -20.7250   22.1590 C   0  0  0  0  0  1  0  0  0  0  0  0
  -32.9020  -20.1500   22.6620 S   0  0  0  0  0  0  0  0  0  0  0  0
  -30.3310  -18.5570   21.5470 N   0  0  0  0  0  0  0  0  0  0  0  0
  -30.6540  -18.5700   22.5100 H   0  0  0  0  0  0  0  0  0  0  0  0
  -30.6770  -14.3840   20.2980 C   0  0  0  0  0  0  0  0  0  0  0  0
  -30.2320  -12.3410   19.0020 C   0  0  0  0  0  2  0  0  0  0  0  0
  -29.2520  -12.6500   17.8570 C   0  0  0  0  0  2  0  0  0  0  0  0
  -27.7970  -12.5050   18.3390 C   0  0  0  0  0  2  0  0  0  0  0  0
  -27.5300  -13.2750   19.6570 C   0  0  0  0  0  3  0  0  0  0  0  0
  -28.6210  -12.9750   20.7100 C   0  0  0  0  0  2  0  0  0  0  0  0
  -29.9370  -13.2620   20.1090 N   0  0  0  0  0  0  0  0  0  0  0  0
  -31.7140  -14.6170   19.6690 O   0  0  0  0  0  0  0  0  0  0  0  0
  -31.1340  -16.2190   21.8930 C   0  0  0  0  0  2  0  0  0  0  0  0
  -29.3150  -16.3330   20.9310 C   0  0  0  0  0  2  0  0  0  0  0  0
  -30.5310  -17.2520   20.9470 C   0  0  0  0  0  3  0  0  0  0  0  0
  -30.2440  -15.2340   21.2530 N   0  0  0  0  0  0  0  0  0  0  0  0
  -25.1510  -13.8720   20.4400 C   0  0  0  0  0  0  0  0  0  0  0  0
  -24.0940  -13.0930   20.8350 C   0  0  0  0  0  0  0  0  0  0  0  0
  -24.5560  -11.7440   20.7780 C   0  0  0  0  0  0  0  0  0  0  0  0
  -26.1910  -12.9950   20.1730 N   0  0  0  0  0  0  0  0  0  0  0  0
  -25.8380  -11.7100   20.4320 N   0  0  0  0  0  0  0  0  0  0  0  0
  -23.8400  -10.4800   20.9820 C   0  0  0  0  0  0  0  0  0  0  0  0
  -24.2860   -9.5190   21.9160 C   0  0  0  0  0  3  0  0  0  0  0  0
  -23.5720   -8.3170   22.1060 C   0  0  0  0  0  3  0  0  0  0  0  0
  -22.3940   -8.0670   21.3610 C   0  0  0  0  0  0  0  0  0  0  0  0
  -21.9660   -9.0150   20.4160 C   0  0  0  0  0  3  0  0  0  0  0  0
  -22.6820  -10.2080   20.2240 C   0  0  0  0  0  3  0  0  0  0  0  0
  -21.6480   -6.9180   21.4620 O   0  0  0  0  0  0  0  0  0  0  0  0
  -21.6040   -6.1860   22.6200 C   0  0  0  0  0  0  0  0  0  0  0  0
  -21.1550   -6.7440   23.8380 C   0  0  0  0  0  3  0  0  0  0  0  0
  -21.0610   -5.9350   24.9890 C   0  0  0  0  0  3  0  0  0  0  0  0
  -21.4060   -4.5730   24.9240 C   0  0  0  0  0  0  0  0  0  0  0  0
  -21.8470   -4.0150   23.7110 C   0  0  0  0  0  3  0  0  0  0  0  0
  -21.9420   -4.8190   22.5620 C   0  0  0  0  0  0  0  0  0  0  0  0
  -22.3480   -4.2710   21.3910 F   0  0  0  0  0  0  0  0  0  0  0  0
  -21.3080   -3.7930   26.0270 F   0  0  0  0  0  0  0  0  0  0  0  0
  -22.7060  -13.5650   21.1570 C   0  0  0  0  0  0  0  0  0  0  0  0
  -22.0050  -12.8520   22.0320 N   0  0  0  0  0  0  0  0  0  0  0  0
  -22.2530  -14.5980   20.6680 O   0  0  0  0  0  0  0  0  0  0  0  0
  -22.3870  -12.0170   22.4480 H   0  0  0  0  0  0  0  0  0  0  0  0
  -21.0730  -13.1480   22.2880 H   0  0  0  0  0  0  0  0  0  0  0  0
  -25.3080  -15.2440   20.2710 N   0  0  0  0  0  0  0  0  0  0  0  0
  -24.5460  -15.8990   20.4050 H   0  0  0  0  0  0  0  0  0  0  0  0
  -26.1530  -15.6880   19.9350 H   0  0  0  0  0  0  0  0  0  0  0  0
  1  4  2  0
  2  5  1  0
  3  1  1  0
  3  2  2  0
  4  5  1  0
  4 57  1  0
  5 56  1  0
  6  9  1  0
  6  7  1  0
  7 10  1  0
  8 10  1  0
  9  8  1  0
  9  3  1  0
 10 11  1  1
 12 10  1  0
 12 13  1  0
 13 14  1  0
 14 16  1  0
 15 26  2  0
 16 21  1  0
 17 25  1  0
 17 27  1  0
 18 24  1  0
 18 20  1  0
 19 25  1  0
 20 19  1  0
 21 20  2  0
 22 16  2  0
 23 22  1  0
 23 18  2  0
 24 17  1  0
 25 15  1  0
 27 29  2  0
 28 27  1  0
 30 28  1  0
 31 40  2  0
 31 36  1  0
 32 28  1  0
 32 36  1  0
 33 32  1  0
 34 35  1  0
 34 33  1  0
 35 31  1  0
 36 37  2  0
 37 38  1  0
 39 38  2  0
 40 39  1  0
 41 15  1  0
 41 42  1  0
 41 51  1  0
 42 45  1  0
 43 47  1  0
 43 42  1  0
 44 43  2  0
 47 46  1  0
 49 47  1  0
 49 50  1  0
 49 48  1  0
 51 54  1  1
 51 52  1  0
 53 51  1  0
 55 56  1  0
 57 58  1  0
 59 70  1  0
 60 65  1  0
 61 62  1  0
 61 60  1  0
 63 62  1  0
 63 74  1  0
 63 64  1  0
 65 59  1  0
 65 64  1  0
 66 59  2  0
 68 69  1  0
 68 70  1  0
 69 57  1  0
 69 67  1  0
 70 67  1  0
 71 72  2  0
 72 91  1  0
 73 72  1  0
 73 76  1  0
 74 75  1  0
 74 71  1  0
 75 73  2  0
 76 77  1  0
 77 78  2  0
 79 82  1  0
 79 78  1  0
 80 79  2  0
 81 80  1  0
 81 76  2  0
 82 83  1  0
 83 84  1  0
 84 85  2  0
 86 85  1  0
 86 90  1  0
 87 86  2  0
 88 83  2  0
 88 87  1  0
 89 88  1  0
 91 92  1  0
 92 95  1  0
 92 94  1  0
 93 91  2  0
 96 97  1  0
 96 71  1  0
 98 96  1  0
M  ISO  4  13 101  14 101  59 100  70 100
M  END
>  <TORSDO>  (91) 
F 21

>  <SCORE>  (91) 
-13.882

>  <name>  (91) 
92

>  <ligand_id>  (91) 
92

>  <original_smiles>  (91) 
[H]c1c([H])c([H])c2c(c1[H])C([H])([H])C([H])([H])C([H])([H])C2([H])N([H])C(=O)C1([H])N(C(=O)C([H])(N([H])C(=O)C([H])(N([H])C([H])([H])[H])C([H])([H])[H])C(C([H])([H])[H])(C([H])([H])[H])C([H])([H])[H])C([H])([H])c2c([H])c(OC([H])([H])C([H])([H])[N+]3([H])C([H])([H])C([H])([H])C([H])(c4c([H])c(N([H])C5([H])C([H])([H])N(C(=O)N6C([H])([H])C([H])([H])C([H])([H])C([H])(n7nc(-c8c([H])c([H])c(Oc9c([H])c([H])c(F)c([H])c9F)c([H])c8[H])c(C(=O)N([H])[H])c7N([H])[H])C6([H])[H])C5([H])[H])n(SC([H])([H])[H])c4[H])C3([H])[H])c([H])c([H])c2C1([H])[H]

>  <smiles>  (91) 
[H]c1c([H])c([H])c2c(c1[H])C([H])([H])C([H])([H])C([H])([H])C2([H])N([H])C(=O)C1([H])N(C(=O)C([H])(N([H])C(=O)C([H])(N([H])C([H])([H])[H])C([H])([H])[H])C(C([H])([H])[H])(C([H])([H])[H])C([H])([H])[H])C([H])([H])c2c([H])c(OC([H])([H])C([H])([H])[N+]3([H])C([H])([H])C([H])([H])C([H])(c4c([H])c(N([H])C5([H])C([H])([H])N(C(=O)N6C([H])([H])C([H])([H])C([H])([H])C([H])(n7nc(-c8c([H])c([H])c(Oc9c([H])c([H])c(F)c([H])c9F)c([H])c8[H])c(C(=O)N([H])[H])c7N([H])[H])C6([H])[H])C5([H])[H])n(SC([H])([H])[H])c4[H])C3([H])[H])c([H])c([H])c2C1([H])[H]

$$$$
93:0:0
     RDKit          3D

 92102  0  0  1  0  0  0  0  0999 V2000
  -29.6670  -22.2920   19.4170 C   0  0  0  0  0  3  0  0  0  0  0  0
  -28.8870  -23.4900   19.8180 C   0  0  0  0  0  0  0  0  0  0  0  0
  -29.1250  -21.0880   19.9290 C   0  0  0  0  0  0  0  0  0  0  0  0
  -27.0110  -20.9580   21.4280 C   0  0  0  0  0  1  0  0  0  0  0  0
  -27.9210  -23.0050   20.5920 N   0  0  0  0  0  0  0  0  0  0  0  0
  -28.0420  -21.6280   20.6560 N   0  0  0  0  0  0  0  0  0  0  0  0
  -30.8660  -15.1110   19.4850 C   0  0  0  0  0  0  0  0  0  0  0  0
  -30.4990  -12.8030   18.5150 C   0  0  0  0  0  2  0  0  0  0  0  0
  -29.4260  -12.7820   17.4080 C   0  0  0  0  0  2  0  0  0  0  0  0
  -28.0290  -12.5840   18.0230 C   0  0  0  0  0  2  0  0  0  0  0  0
  -27.7870  -13.4930   19.2580 C   0  0  0  0  0  3  0  0  0  0  0  0
  -28.9810  -13.4900   20.2390 C   0  0  0  0  0  2  0  0  0  0  0  0
  -30.1530  -13.9090   19.4600 N   0  0  0  0  0  0  0  0  0  0  0  0
  -32.0410  -15.0220   19.1140 O   0  0  0  0  0  0  0  0  0  0  0  0
  -29.8870  -18.5430   21.8450 C   0  0  0  0  0  2  0  0  0  0  0  0
  -31.2030  -18.9690   21.1950 C   0  0  0  0  0  2  0  0  0  0  0  0
  -28.9770  -16.9820   20.0340 C   0  0  0  0  0  2  0  0  0  0  0  0
  -31.0060  -17.6530   19.0090 C   0  0  0  0  0  2  0  0  0  0  0  0
  -28.9330  -18.4940   20.6420 C   0  0  0  0  0  3  0  0  0  0  0  0
  -30.8180  -19.0950   19.7140 C   0  0  0  0  0  3  0  0  0  0  0  0
  -29.4270  -19.6110   19.7630 N   0  0  0  0  0  0  0  0  0  0  0  0
  -30.3020  -16.4320   19.5790 N   0  0  0  0  0  0  0  0  0  0  0  0
  -25.5470  -14.0760   20.3400 C   0  0  0  0  0  0  0  0  0  0  0  0
  -24.5180  -13.3050   20.8040 C   0  0  0  0  0  0  0  0  0  0  0  0
  -24.9340  -11.9480   20.6350 C   0  0  0  0  0  0  0  0  0  0  0  0
  -26.5240  -13.1920   19.9190 N   0  0  0  0  0  0  0  0  0  0  0  0
  -26.1740  -11.9010   20.1610 N   0  0  0  0  0  0  0  0  0  0  0  0
  -24.1980  -10.6930   20.8450 C   0  0  0  0  0  0  0  0  0  0  0  0
  -24.6390   -9.7230   21.7710 C   0  0  0  0  0  3  0  0  0  0  0  0
  -23.9010   -8.5360   21.9700 C   0  0  0  0  0  3  0  0  0  0  0  0
  -22.7090   -8.3110   21.2420 C   0  0  0  0  0  0  0  0  0  0  0  0
  -22.2870   -9.2700   20.3030 C   0  0  0  0  0  3  0  0  0  0  0  0
  -23.0260  -10.4470   20.1030 C   0  0  0  0  0  3  0  0  0  0  0  0
  -21.9410   -7.1760   21.3500 O   0  0  0  0  0  0  0  0  0  0  0  0
  -21.7940   -6.5180   22.5460 C   0  0  0  0  0  0  0  0  0  0  0  0
  -21.2610   -7.1580   23.6860 C   0  0  0  0  0  3  0  0  0  0  0  0
  -21.0590   -6.4260   24.8740 C   0  0  0  0  0  3  0  0  0  0  0  0
  -21.3840   -5.0570   24.9220 C   0  0  0  0  0  0  0  0  0  0  0  0
  -21.9120   -4.4180   23.7860 C   0  0  0  0  0  3  0  0  0  0  0  0
  -22.1120   -5.1470   22.6010 C   0  0  0  0  0  0  0  0  0  0  0  0
  -22.6000   -4.5210   21.5020 F   0  0  0  0  0  0  0  0  0  0  0  0
  -21.1850   -4.3510   26.0600 F   0  0  0  0  0  0  0  0  0  0  0  0
  -23.1830  -13.7970   21.2770 C   0  0  0  0  0  0  0  0  0  0  0  0
  -22.5620  -13.0810   22.2090 N   0  0  0  0  0  0  0  0  0  0  0  0
  -22.7050  -14.8520   20.8600 O   0  0  0  0  0  0  0  0  0  0  0  0
  -22.9660  -12.2270   22.5650 H   0  0  0  0  0  0  0  0  0  0  0  0
  -21.6700  -13.3890   22.5700 H   0  0  0  0  0  0  0  0  0  0  0  0
  -25.7230  -15.4520   20.2110 N   0  0  0  0  0  0  0  0  0  0  0  0
  -24.9770  -16.1060   20.4140 H   0  0  0  0  0  0  0  0  0  0  0  0
  -26.5080  -15.8780   19.7370 H   0  0  0  0  0  0  0  0  0  0  0  0
  -28.8490  -25.0500   19.2770 C   0  0  0  0  0  2  0  0  0  0  0  0
  -28.6490  -26.3650   20.0760 O   0  0  0  0  0  0  0  0  0  0  0  0
  -24.6950  -31.7720   23.0880 C   0  0  0  0  0  0  0  0  0  0  0  0
  -27.5380  -27.2750   19.9690 C   0  0  0  0  0  0  0  0  0  0  0  0
  -23.5820  -30.3530   21.4080 C   0  0  0  0  0  3  0  0  0  0  0  0
  -25.1220  -28.8920   19.9600 C   0  0  0  0  0  0  0  0  0  0  0  0
  -26.1180  -30.7570   21.2730 C   0  0  0  0  0  2  0  0  0  0  0  0
  -26.2690  -29.3870   20.5900 C   0  0  0  0  0  0  0  0  0  0  0  0
  -27.4740  -28.5910   20.5840 C   0  0  0  0  0  3  0  0  0  0  0  0
  -26.3540  -26.8760   19.3110 C   0  0  0  0  0  3  0  0  0  0  0  0
  -25.1750  -27.6510   19.3100 C   0  0  0  0  0  3  0  0  0  0  0  0
  -23.8510  -29.7240   20.0150 C   0  0  0  0  0  2  0  0  0  0  0  0
  -24.8180  -30.9810   21.9790 N   0  0  0  0  0  0  0  0  0  0  0  0
  -23.5910  -31.9880   23.6120 O   0  0  0  0  0  0  0  0  0  0  0  0
  -22.9530  -29.2900   22.3430 C   0  0  0  0  0  0  0  0  0  0  0  0
  -21.6330  -29.0590   22.2110 N   0  0  0  0  0  0  0  0  0  0  0  0
  -23.6520  -28.6770   23.1540 O   0  0  0  0  0  0  0  0  0  0  0  0
  -21.1210  -29.6130   21.5390 H   0  0  0  0  0  0  0  0  0  0  0  0
  -18.3070  -27.7090   22.6970 C   0  0  0  0  0  0  0  0  0  0  0  0
  -20.8550  -28.0670   22.9600 C   0  0  0  0  0  3  0  0  0  0  0  0
  -21.0070  -26.6540   22.3450 C   0  0  0  0  0  2  0  0  0  0  0  0
  -19.9170  -26.3230   21.3210 C   0  0  0  0  0  2  0  0  0  0  0  0
  -18.5320  -26.3920   21.9720 C   0  0  0  0  0  2  0  0  0  0  0  0
  -19.3960  -28.5040   23.1430 C   0  0  0  0  0  0  0  0  0  0  0  0
  -19.1300  -29.7370   23.7770 C   0  0  0  0  0  3  0  0  0  0  0  0
  -17.8070  -30.1770   23.9690 C   0  0  0  0  0  3  0  0  0  0  0  0
  -16.7330  -29.3800   23.5360 C   0  0  0  0  0  3  0  0  0  0  0  0
  -16.9820  -28.1480   22.9070 C   0  0  0  0  0  3  0  0  0  0  0  0
  -25.9330  -32.4620   23.7370 C   0  0  0  0  0  3  0  0  0  0  0  0
  -25.5500  -33.8420   24.0730 N   0  0  0  0  0  0  0  0  0  0  0  0
  -25.8310  -34.9180   23.3250 C   0  0  0  0  0  0  0  0  0  0  0  0
  -26.5060  -34.8550   22.2930 O   0  0  0  0  0  0  0  0  0  0  0  0
  -24.9450  -33.9600   24.8730 H   0  0  0  0  0  0  0  0  0  0  0  0
  -24.0130  -36.6290   22.9950 C   0  0  0  0  0  1  0  0  0  0  0  0
  -25.2780  -36.2780   23.7940 C   0  0  0  0  0  3  0  0  0  0  0  0
  -27.3680  -37.2710   24.6200 C   0  0  0  0  0  1  0  0  0  0  0  0
  -26.2560  -37.3820   23.6810 N   0  0  0  0  0  0  0  0  0  0  0  0
  -25.8030  -38.2810   23.8300 H   0  0  0  0  0  0  0  0  0  0  0  0
  -26.4600  -31.7080   25.0200 C   0  0  1  0  0  0  0  0  0  0  0  0
  -25.3590  -31.4110   26.0650 C   0  0  0  0  0  1  0  0  0  0  0  0
  -27.1190  -30.3630   24.6380 C   0  0  0  0  0  1  0  0  0  0  0  0
  -27.5540  -32.5540   25.7110 C   0  0  0  0  0  1  0  0  0  0  0  0
  1  2  1  0
  1  3  2  0
  2  5  2  0
  3  6  1  0
  5  6  1  0
  6  4  1  0
  7 22  1  0
  8 13  1  0
  9 10  1  0
  9  8  1  0
 11 10  1  0
 11 26  1  0
 11 12  1  0
 13  7  1  0
 13 12  1  0
 14  7  2  0
 16 15  1  0
 18 22  1  0
 19 17  1  0
 19 15  1  0
 20 18  1  0
 20 21  1  0
 20 16  1  0
 21  3  1  0
 21 19  1  0
 22 17  1  0
 23 24  2  0
 24 43  1  0
 25 24  1  0
 25 28  1  0
 26 27  1  0
 26 23  1  0
 27 25  2  0
 28 29  1  0
 29 30  2  0
 31 34  1  0
 31 30  1  0
 32 31  2  0
 33 32  1  0
 33 28  2  0
 34 35  1  0
 35 40  2  0
 35 36  1  0
 36 37  2  0
 37 38  1  0
 38 42  1  0
 39 38  2  0
 40 39  1  0
 41 40  1  0
 43 44  1  0
 44 46  1  0
 44 47  1  0
 45 43  2  0
 48 23  1  0
 48 49  1  0
 50 48  1  0
 51  2  1  0
 51 52  1  0
 53 64  2  0
 54 52  1  0
 54 59  1  0
 55 63  1  0
 55 65  1  0
 56 62  1  0
 56 58  1  0
 57 63  1  0
 58 57  1  0
 59 58  2  0
 60 54  2  0
 61 60  1  0
 61 56  2  0
 62 55  1  0
 63 53  1  0
 65 67  2  0
 66 65  1  0
 68 66  1  0
 69 78  2  0
 69 74  1  0
 70 66  1  0
 70 74  1  0
 71 70  1  0
 72 73  1  0
 72 71  1  0
 73 69  1  0
 74 75  2  0
 75 76  1  0
 77 76  2  0
 78 77  1  0
 79 53  1  0
 79 80  1  0
 79 89  1  0
 80 83  1  0
 81 85  1  0
 81 80  1  0
 82 81  2  0
 85 84  1  0
 87 85  1  0
 87 88  1  0
 87 86  1  0
 89 92  1  1
 89 90  1  0
 91 89  1  0
M  ISO  4   7 100  22 100  51 101  52 101
M  END
>  <TORSDO>  (92) 
F 17

>  <SCORE>  (92) 
-11.376

>  <name>  (92) 
93

>  <ligand_id>  (92) 
93

>  <original_smiles>  (92) 
[H]c1c([H])c([H])c2c(c1[H])C([H])([H])C([H])([H])C([H])([H])C2([H])N([H])C(=O)C1([H])N(C(=O)C([H])(N([H])C(=O)C([H])(N([H])C([H])([H])[H])C([H])([H])[H])C(C([H])([H])[H])(C([H])([H])[H])C([H])([H])[H])C([H])([H])c2c([H])c(OC([H])([H])c3nn(C([H])([H])[H])c(N4C5([H])C([H])([H])N(C(=O)N6C([H])([H])C([H])([H])C([H])([H])C([H])(n7nc(-c8c([H])c([H])c(Oc9c([H])c([H])c(F)c([H])c9F)c([H])c8[H])c(C(=O)N([H])[H])c7N([H])[H])C6([H])[H])C([H])([H])C4([H])C([H])([H])C5([H])[H])c3[H])c([H])c([H])c2C1([H])[H]

>  <smiles>  (92) 
[H]c1c([H])c([H])c2c(c1[H])C([H])([H])C([H])([H])C([H])([H])C2([H])N([H])C(=O)C1([H])N(C(=O)C([H])(N([H])C(=O)C([H])(N([H])C([H])([H])[H])C([H])([H])[H])C(C([H])([H])[H])(C([H])([H])[H])C([H])([H])[H])C([H])([H])c2c([H])c(OC([H])([H])c3nn(C([H])([H])[H])c(N4C5([H])C([H])([H])N(C(=O)N6C([H])([H])C([H])([H])C([H])([H])C([H])(n7nc(-c8c([H])c([H])c(Oc9c([H])c([H])c(F)c([H])c9F)c([H])c8[H])c(C(=O)N([H])[H])c7N([H])[H])C6([H])[H])C([H])([H])C4([H])C([H])([H])C5([H])[H])c3[H])c([H])c([H])c2C1([H])[H]

$$$$
94:0:0
     RDKit          3D

 99109  0  0  1  0  0  0  0  0999 V2000
  -32.5450  -21.7950   16.7080 N   0  0  0  0  0  4  0  0  0  0  0  0
  -32.4050  -21.3460   15.8170 H   0  0  0  0  0  0  0  0  0  0  0  0
  -33.2360  -22.5140   16.5600 H   0  0  0  0  0  0  0  0  0  0  0  0
  -30.7270  -23.3870   16.0250 C   0  0  0  0  0  2  0  0  0  0  0  0
  -30.1480  -24.5660   16.8140 C   0  0  0  0  0  2  0  0  0  0  0  0
  -31.3280  -23.3000   18.3490 C   0  0  0  0  0  2  0  0  0  0  0  0
  -31.2630  -22.4260   17.0910 C   0  0  0  0  0  3  0  0  0  0  0  0
  -30.1160  -24.0940   18.1980 N   0  0  0  0  0  0  0  0  0  0  0  0
  -29.9960  -25.1770   19.1720 C   0  0  0  0  0  2  0  0  0  0  0  0
  -28.5390  -25.6600   19.2150 C   0  0  0  0  0  2  0  0  0  0  0  0
  -28.4170  -26.7610   20.1020 O   0  0  0  0  0  0  0  0  0  0  0  0
  -24.5940  -31.8630   23.2200 C   0  0  0  0  0  0  0  0  0  0  0  0
  -27.2130  -27.4300   20.1200 C   0  0  0  0  0  0  0  0  0  0  0  0
  -23.3700  -30.4590   21.5900 C   0  0  0  0  0  3  0  0  0  0  0  0
  -24.8090  -28.9170   20.1620 C   0  0  0  0  0  0  0  0  0  0  0  0
  -25.8940  -30.8160   21.3740 C   0  0  0  0  0  2  0  0  0  0  0  0
  -25.9700  -29.4420   20.7430 C   0  0  0  0  0  0  0  0  0  0  0  0
  -27.1700  -28.7010   20.7290 C   0  0  0  0  0  3  0  0  0  0  0  0
  -26.0260  -26.9050   19.5510 C   0  0  0  0  0  3  0  0  0  0  0  0
  -24.8290  -27.6430   19.5710 C   0  0  0  0  0  3  0  0  0  0  0  0
  -23.5680  -29.7770   20.2100 C   0  0  0  0  0  2  0  0  0  0  0  0
  -24.6370  -31.0610   22.1190 N   0  0  0  0  0  0  0  0  0  0  0  0
  -23.5170  -32.1410   23.7650 O   0  0  0  0  0  0  0  0  0  0  0  0
  -22.7250  -29.4410   22.5550 C   0  0  0  0  0  0  0  0  0  0  0  0
  -21.4010  -29.2610   22.4340 N   0  0  0  0  0  0  0  0  0  0  0  0
  -23.4120  -28.8160   23.3680 O   0  0  0  0  0  0  0  0  0  0  0  0
  -20.9090  -29.8170   21.7480 H   0  0  0  0  0  0  0  0  0  0  0  0
  -18.0270  -28.0770   22.9390 C   0  0  0  0  0  0  0  0  0  0  0  0
  -20.5850  -28.3300   23.2100 C   0  0  0  0  0  3  0  0  0  0  0  0
  -20.6840  -26.8950   22.6410 C   0  0  0  0  0  2  0  0  0  0  0  0
  -19.5810  -26.5700   21.6290 C   0  0  0  0  0  2  0  0  0  0  0  0
  -18.2000  -26.7220   22.2720 C   0  0  0  0  0  2  0  0  0  0  0  0
  -19.1470  -28.8380   23.3640 C   0  0  0  0  0  0  0  0  0  0  0  0
  -18.9320  -30.1070   23.9430 C   0  0  0  0  0  3  0  0  0  0  0  0
  -17.6280  -30.6120   24.1070 C   0  0  0  0  0  3  0  0  0  0  0  0
  -16.5220  -29.8470   23.6990 C   0  0  0  0  0  3  0  0  0  0  0  0
  -16.7220  -28.5820   23.1200 C   0  0  0  0  0  3  0  0  0  0  0  0
  -25.8870  -32.4890   23.8280 C   0  0  0  0  0  3  0  0  0  0  0  0
  -25.5880  -33.8870   24.1590 N   0  0  0  0  0  0  0  0  0  0  0  0
  -25.9180  -34.9370   23.3950 C   0  0  0  0  0  0  0  0  0  0  0  0
  -26.5810  -34.8310   22.3590 O   0  0  0  0  0  0  0  0  0  0  0  0
  -25.0000  -34.0460   24.9640 H   0  0  0  0  0  0  0  0  0  0  0  0
  -24.1890  -36.7300   23.0480 C   0  0  0  0  0  1  0  0  0  0  0  0
  -25.4350  -36.3260   23.8530 C   0  0  0  0  0  3  0  0  0  0  0  0
  -27.5820  -37.2000   24.6630 C   0  0  0  0  0  1  0  0  0  0  0  0
  -26.4670  -37.3790   23.7360 N   0  0  0  0  0  0  0  0  0  0  0  0
  -26.0630  -38.2970   23.9040 H   0  0  0  0  0  0  0  0  0  0  0  0
  -26.4160  -31.7140   25.0960 C   0  0  1  0  0  0  0  0  0  0  0  0
  -25.3350  -31.4760   26.1740 C   0  0  0  0  0  1  0  0  0  0  0  0
  -26.9910  -30.3360   24.6910 C   0  0  0  0  0  1  0  0  0  0  0  0
  -27.5770  -32.5020   25.7450 C   0  0  0  0  0  1  0  0  0  0  0  0
  -33.4140  -18.7060   17.8390 C   0  0  0  0  0  2  0  0  0  0  0  0
  -34.0500  -19.8060   16.9930 C   0  0  0  0  0  2  0  0  0  0  0  0
  -32.1660  -19.5970   18.0210 C   0  0  0  0  0  3  0  0  0  0  0  0
  -33.0870  -20.7950   17.6660 C   0  0  0  0  0  3  0  0  0  0  0  0
  -31.4460  -19.5540   19.3840 C   0  0  0  0  0  2  0  0  0  0  0  0
  -30.8550  -17.1380   19.1410 C   0  0  0  0  0  2  0  0  0  0  0  0
  -30.0230  -18.0110   20.7870 C   0  0  0  0  0  2  0  0  0  0  0  0
  -29.7260  -16.6950   20.0740 C   0  0  0  0  0  3  0  0  0  0  0  0
  -30.4090  -18.4970   19.4490 N   0  0  1  0  0  4  0  0  0  0  0  0
  -29.5920  -18.7300   18.9040 H   0  0  0  0  0  0  0  0  0  0  0  0
  -30.6610  -14.4140   20.4950 C   0  0  0  0  0  0  0  0  0  0  0  0
  -30.3470  -12.2740   19.3500 C   0  0  0  0  0  2  0  0  0  0  0  0
  -29.4160  -12.5360   18.1470 C   0  0  0  0  0  2  0  0  0  0  0  0
  -27.9340  -12.4290   18.5660 C   0  0  0  0  0  2  0  0  0  0  0  0
  -27.6110  -13.2440   19.8450 C   0  0  0  0  0  3  0  0  0  0  0  0
  -28.6560  -12.9680   20.9530 C   0  0  0  0  0  2  0  0  0  0  0  0
  -29.9950  -13.2380   20.4030 N   0  0  0  0  0  0  0  0  0  0  0  0
  -31.7980  -14.5840   20.0490 O   0  0  0  0  0  0  0  0  0  0  0  0
  -29.8790  -15.4490   20.8440 N   0  0  0  0  0  0  0  0  0  0  0  0
  -29.0470  -15.1660   21.3420 H   0  0  0  0  0  0  0  0  0  0  0  0
  -25.2090  -13.8800   20.5220 C   0  0  0  0  0  0  0  0  0  0  0  0
  -24.1330  -13.1180   20.8870 C   0  0  0  0  0  0  0  0  0  0  0  0
  -24.5850  -11.7640   20.8720 C   0  0  0  0  0  0  0  0  0  0  0  0
  -26.2500  -12.9900   20.3100 N   0  0  0  0  0  0  0  0  0  0  0  0
  -25.8750  -11.7120   20.5760 N   0  0  0  0  0  0  0  0  0  0  0  0
  -23.8500  -10.5080   21.0640 C   0  0  0  0  0  0  0  0  0  0  0  0
  -24.2820   -9.5340   21.9920 C   0  0  0  0  0  3  0  0  0  0  0  0
  -23.5480   -8.3420   22.1730 C   0  0  0  0  0  3  0  0  0  0  0  0
  -22.3690   -8.1150   21.4230 C   0  0  0  0  0  0  0  0  0  0  0  0
  -21.9570   -9.0760   20.4840 C   0  0  0  0  0  3  0  0  0  0  0  0
  -22.6910  -10.2600   20.3020 C   0  0  0  0  0  3  0  0  0  0  0  0
  -21.6060   -6.9760   21.5130 O   0  0  0  0  0  0  0  0  0  0  0  0
  -21.5740   -6.2200   22.6590 C   0  0  0  0  0  0  0  0  0  0  0  0
  -21.1930   -6.7690   23.9030 C   0  0  0  0  0  3  0  0  0  0  0  0
  -21.1060   -5.9420   25.0400 C   0  0  0  0  0  3  0  0  0  0  0  0
  -21.3910   -4.5680   24.9350 C   0  0  0  0  0  0  0  0  0  0  0  0
  -21.7640   -4.0170   23.6940 C   0  0  0  0  0  3  0  0  0  0  0  0
  -21.8530   -4.8410   22.5600 C   0  0  0  0  0  0  0  0  0  0  0  0
  -22.1940   -4.3040   21.3640 F   0  0  0  0  0  0  0  0  0  0  0  0
  -21.3000   -3.7700   26.0240 F   0  0  0  0  0  0  0  0  0  0  0  0
  -22.7350  -13.6060   21.1440 C   0  0  0  0  0  0  0  0  0  0  0  0
  -21.9990  -12.9200   22.0120 N   0  0  0  0  0  0  0  0  0  0  0  0
  -22.3080  -14.6310   20.6140 O   0  0  0  0  0  0  0  0  0  0  0  0
  -22.3600  -12.0910   22.4600 H   0  0  0  0  0  0  0  0  0  0  0  0
  -21.0620  -13.2260   22.2300 H   0  0  0  0  0  0  0  0  0  0  0  0
  -25.3860  -15.2490   20.3350 N   0  0  0  0  0  0  0  0  0  0  0  0
  -24.6220  -15.9090   20.4190 H   0  0  0  0  0  0  0  0  0  0  0  0
  -26.2380  -15.6740   19.9960 H   0  0  0  0  0  0  0  0  0  0  0  0
  2  1  1  0
  3  1  1  0
  4  5  1  0
  4  7  1  0
  5  8  1  0
  7  1  1  0
  7  6  1  0
  8  6  1  0
  8  9  1  0
  9 10  1  0
 10 11  1  0
 11 13  1  0
 12 23  2  0
 13 18  1  0
 14 22  1  0
 14 24  1  0
 15 21  1  0
 15 17  1  0
 16 22  1  0
 17 16  1  0
 18 17  2  0
 19 20  1  0
 19 13  2  0
 20 15  2  0
 21 14  1  0
 22 12  1  0
 24 26  2  0
 25 24  1  0
 27 25  1  0
 28 37  2  0
 28 33  1  0
 29 25  1  0
 29 33  1  0
 30 29  1  0
 31 32  1  0
 31 30  1  0
 32 28  1  0
 33 34  2  0
 34 35  1  0
 36 35  2  0
 37 36  1  0
 38 12  1  0
 38 39  1  0
 38 48  1  0
 39 42  1  0
 40 44  1  0
 40 39  1  0
 41 40  2  0
 44 43  1  0
 46 44  1  0
 46 47  1  0
 46 45  1  0
 48 51  1  1
 48 49  1  0
 50 48  1  0
 52 54  1  0
 53 55  1  0
 53 52  1  0
 54 56  1  0
 55  1  1  0
 55 54  1  0
 56 60  1  0
 57 60  1  0
 57 59  1  0
 59 58  1  0
 59 70  1  0
 60 58  1  0
 60 61  1  6
 62 70  1  0
 63 68  1  0
 64 65  1  0
 64 63  1  0
 66 65  1  0
 66 75  1  0
 66 67  1  0
 68 62  1  0
 68 67  1  0
 69 62  2  0
 70 71  1  0
 72 73  2  0
 73 92  1  0
 74 73  1  0
 74 77  1  0
 75 72  1  0
 75 76  1  0
 76 74  2  0
 77 78  1  0
 78 79  2  0
 80 83  1  0
 80 79  1  0
 81 80  2  0
 82 81  1  0
 82 77  2  0
 83 84  1  0
 84 85  1  0
 85 86  2  0
 87 86  1  0
 87 91  1  0
 88 87  2  0
 89 84  2  0
 89 88  1  0
 90 89  1  0
 92 93  1  0
 93 96  1  0
 93 95  1  0
 94 92  2  0
 97 98  1  0
 97 72  1  0
 99 97  1  0
M  ISO  4  10 101  11 101  62 100  70 100
M  END
>  <TORSDO>  (93) 
F 22

>  <SCORE>  (93) 
-12.983

>  <name>  (93) 
94

>  <ligand_id>  (93) 
94

>  <original_smiles>  (93) 
[H]c1c([H])c([H])c2c(c1[H])C([H])([H])C([H])([H])C([H])([H])C2([H])N([H])C(=O)C1([H])N(C(=O)C([H])(N([H])C(=O)C([H])(N([H])C([H])([H])[H])C([H])([H])[H])C(C([H])([H])[H])(C([H])([H])[H])C([H])([H])[H])C([H])([H])c2c([H])c(OC([H])([H])C([H])([H])N3C([H])([H])C([H])([H])C([H])([N+]([H])([H])C4([H])C([H])([H])C([H])([H])C4([H])C([H])([H])[N+]4([H])C([H])([H])C([H])(N([H])C(=O)N5C([H])([H])C([H])([H])C([H])([H])C([H])(n6nc(-c7c([H])c([H])c(Oc8c([H])c([H])c(F)c([H])c8F)c([H])c7[H])c(C(=O)N([H])[H])c6N([H])[H])C5([H])[H])C4([H])[H])C3([H])[H])c([H])c([H])c2C1([H])[H]

>  <smiles>  (93) 
[H]c1c([H])c([H])c2c(c1[H])C([H])([H])C([H])([H])C([H])([H])C2([H])N([H])C(=O)C1([H])N(C(=O)C([H])(N([H])C(=O)C([H])(N([H])C([H])([H])[H])C([H])([H])[H])C(C([H])([H])[H])(C([H])([H])[H])C([H])([H])[H])C([H])([H])c2c([H])c(OC([H])([H])C([H])([H])N3C([H])([H])C([H])([H])C([H])([N+]([H])([H])C4([H])C([H])([H])C([H])([H])C4([H])C([H])([H])[N+]4([H])C([H])([H])C([H])(N([H])C(=O)N5C([H])([H])C([H])([H])C([H])([H])C([H])(n6nc(-c7c([H])c([H])c(Oc8c([H])c([H])c(F)c([H])c8F)c([H])c7[H])c(C(=O)N([H])[H])c6N([H])[H])C5([H])[H])C4([H])[H])C3([H])[H])c([H])c([H])c2C1([H])[H]

$$$$
95:0:0
     RDKit          3D

105115  0  0  1  0  0  0  0  0999 V2000
  -30.7090  -21.6970   21.2310 C   0  0  0  0  0  3  0  0  0  0  0  0
  -30.5430  -20.3410   20.8890 C   0  0  0  0  0  0  0  0  0  0  0  0
  -30.2420  -22.6550   20.3210 C   0  0  0  0  0  0  0  0  0  0  0  0
  -29.7810  -20.9920   18.8280 C   0  0  0  0  0  0  0  0  0  0  0  0
  -30.0750  -20.0040   19.6730 N   0  0  0  0  0  0  0  0  0  0  0  0
  -29.7730  -22.2930   19.1210 N   0  0  0  0  0  0  0  0  0  0  0  0
  -30.0680  -23.9980   20.6880 N   0  0  0  0  0  0  0  0  0  0  0  0
  -30.7350  -24.2970   21.3860 H   0  0  0  0  0  0  0  0  0  0  0  0
  -28.4260  -23.9280   22.5910 C   0  0  0  0  0  2  0  0  0  0  0  0
  -28.7440  -26.3440   22.4060 C   0  0  0  0  0  2  0  0  0  0  0  0
  -28.6790  -24.2910   21.0890 C   0  0  0  0  0  3  0  0  0  0  0  0
  -28.2830  -25.2490   23.3830 C   0  0  0  0  0  3  0  0  0  0  0  0
  -28.2500  -25.7830   21.0760 C   0  0  0  0  0  3  0  0  0  0  0  0
  -28.9870  -25.2520   24.6830 N   0  0  0  0  0  4  0  0  0  0  0  0
  -29.9670  -25.0630   24.5850 H   0  0  0  0  0  0  0  0  0  0  0  0
  -28.5950  -24.5570   25.2970 H   0  0  0  0  0  0  0  0  0  0  0  0
  -28.8900  -26.1420   25.1410 H   0  0  0  0  0  0  0  0  0  0  0  0
  -28.4020  -26.6680   19.9270 O   0  0  0  0  0  0  0  0  0  0  0  0
  -24.7530  -31.9040   23.0760 C   0  0  0  0  0  0  0  0  0  0  0  0
  -27.3120  -27.5210   19.8380 C   0  0  0  0  0  0  0  0  0  0  0  0
  -23.4970  -30.5000   21.4730 C   0  0  0  0  0  3  0  0  0  0  0  0
  -24.9110  -29.0110   19.9540 C   0  0  0  0  0  0  0  0  0  0  0  0
  -26.0090  -30.8950   21.1710 C   0  0  0  0  0  2  0  0  0  0  0  0
  -26.0870  -29.5350   20.5090 C   0  0  0  0  0  0  0  0  0  0  0  0
  -27.2950  -28.7940   20.4540 C   0  0  0  0  0  3  0  0  0  0  0  0
  -26.1310  -27.0500   19.2210 C   0  0  0  0  0  3  0  0  0  0  0  0
  -24.9280  -27.7690   19.3050 C   0  0  0  0  0  3  0  0  0  0  0  0
  -23.6540  -29.8430   20.0770 C   0  0  0  0  0  2  0  0  0  0  0  0
  -24.7720  -31.1150   21.9640 N   0  0  0  0  0  0  0  0  0  0  0  0
  -23.6920  -32.1530   23.6680 O   0  0  0  0  0  0  0  0  0  0  0  0
  -22.9010  -29.4590   22.4500 C   0  0  0  0  0  0  0  0  0  0  0  0
  -21.5780  -29.2410   22.3600 N   0  0  0  0  0  0  0  0  0  0  0  0
  -23.6240  -28.8500   23.2420 O   0  0  0  0  0  0  0  0  0  0  0  0
  -21.0530  -29.7880   21.6910 H   0  0  0  0  0  0  0  0  0  0  0  0
  -18.2550  -27.9440   22.9390 C   0  0  0  0  0  0  0  0  0  0  0  0
  -20.8080  -28.2800   23.1500 C   0  0  0  0  0  3  0  0  0  0  0  0
  -20.9430  -26.8510   22.5730 C   0  0  0  0  0  2  0  0  0  0  0  0
  -19.8270  -26.4930   21.5860 C   0  0  0  0  0  2  0  0  0  0  0  0
  -18.4570  -26.5980   22.2600 C   0  0  0  0  0  2  0  0  0  0  0  0
  -19.3590  -28.7390   23.3420 C   0  0  0  0  0  0  0  0  0  0  0  0
  -19.1200  -29.9990   23.9320 C   0  0  0  0  0  3  0  0  0  0  0  0
  -17.8050  -30.4620   24.1280 C   0  0  0  0  0  3  0  0  0  0  0  0
  -16.7140  -29.6600   23.7470 C   0  0  0  0  0  3  0  0  0  0  0  0
  -16.9400  -28.4050   23.1570 C   0  0  0  0  0  3  0  0  0  0  0  0
  -26.0550  -32.5450   23.6440 C   0  0  0  0  0  3  0  0  0  0  0  0
  -25.7270  -33.9100   24.0760 N   0  0  0  0  0  0  0  0  0  0  0  0
  -25.9880  -35.0150   23.3650 C   0  0  0  0  0  0  0  0  0  0  0  0
  -26.6110  -34.9960   22.2990 O   0  0  0  0  0  0  0  0  0  0  0  0
  -25.1720  -33.9970   24.9150 H   0  0  0  0  0  0  0  0  0  0  0  0
  -24.1960  -36.7710   23.2030 C   0  0  0  0  0  1  0  0  0  0  0  0
  -25.4840  -36.3560   23.9320 C   0  0  0  0  0  3  0  0  0  0  0  0
  -27.6280  -37.2560   24.7190 C   0  0  0  0  0  1  0  0  0  0  0  0
  -26.4780  -37.4470   23.8400 N   0  0  0  0  0  0  0  0  0  0  0  0
  -26.0520  -38.3420   24.0620 H   0  0  0  0  0  0  0  0  0  0  0  0
  -26.6860  -31.7200   24.8320 C   0  0  1  0  0  0  0  0  0  0  0  0
  -25.6830  -31.3820   25.9590 C   0  0  0  0  0  1  0  0  0  0  0  0
  -27.2880  -30.3900   24.3180 C   0  0  0  0  0  1  0  0  0  0  0  0
  -27.8560  -32.5170   25.4580 C   0  0  0  0  0  1  0  0  0  0  0  0
  -30.6020  -19.2590   21.9740 C   0  0  0  0  0  2  0  0  0  0  0  0
  -30.9210  -14.6800   20.1860 C   0  0  0  0  0  0  0  0  0  0  0  0
  -30.5000  -12.6060   18.9120 C   0  0  0  0  0  2  0  0  0  0  0  0
  -29.4820  -12.8610   17.7840 C   0  0  0  0  0  2  0  0  0  0  0  0
  -28.0440  -12.6870   18.3050 C   0  0  0  0  0  2  0  0  0  0  0  0
  -27.7880  -13.4760   19.6170 C   0  0  0  0  0  3  0  0  0  0  0  0
  -28.9100  -13.2170   20.6490 C   0  0  0  0  0  2  0  0  0  0  0  0
  -30.2040  -13.5330   20.0160 N   0  0  0  0  0  0  0  0  0  0  0  0
  -31.9110  -14.9560   19.5000 O   0  0  0  0  0  0  0  0  0  0  0  0
  -31.3360  -16.9800   22.8610 C   0  0  0  0  0  2  0  0  0  0  0  0
  -31.0710  -15.5290   22.4440 C   0  0  0  0  0  2  0  0  0  0  0  0
  -30.1930  -16.9590   20.7670 C   0  0  0  0  0  2  0  0  0  0  0  0
  -31.1310  -17.8410   21.6120 C   0  0  0  0  0  3  0  0  0  0  0  0
  -30.4590  -15.5510   21.1120 N   0  0  0  0  0  0  0  0  0  0  0  0
  -25.4330  -14.0380   20.4980 C   0  0  0  0  0  0  0  0  0  0  0  0
  -24.3930  -13.2440   20.8990 C   0  0  0  0  0  0  0  0  0  0  0  0
  -24.8570  -11.8970   20.7850 C   0  0  0  0  0  0  0  0  0  0  0  0
  -26.4670  -13.1740   20.1680 N   0  0  0  0  0  0  0  0  0  0  0  0
  -26.1260  -11.8800   20.3940 N   0  0  0  0  0  0  0  0  0  0  0  0
  -24.1500  -10.6240   20.9690 C   0  0  0  0  0  0  0  0  0  0  0  0
  -24.5890   -9.6610   21.9060 C   0  0  0  0  0  3  0  0  0  0  0  0
  -23.8810   -8.4520   22.0750 C   0  0  0  0  0  3  0  0  0  0  0  0
  -22.7210   -8.1970   21.3080 C   0  0  0  0  0  0  0  0  0  0  0  0
  -22.2990   -9.1470   20.3600 C   0  0  0  0  0  3  0  0  0  0  0  0
  -23.0090  -10.3470   20.1880 C   0  0  0  0  0  3  0  0  0  0  0  0
  -21.9820   -7.0410   21.3880 O   0  0  0  0  0  0  0  0  0  0  0  0
  -21.8620   -6.3440   22.5640 C   0  0  0  0  0  0  0  0  0  0  0  0
  -21.3280   -6.9350   23.7300 C   0  0  0  0  0  3  0  0  0  0  0  0
  -21.1580   -6.1620   24.8970 C   0  0  0  0  0  3  0  0  0  0  0  0
  -21.5120   -4.7990   24.8970 C   0  0  0  0  0  0  0  0  0  0  0  0
  -22.0380   -4.2070   23.7360 C   0  0  0  0  0  3  0  0  0  0  0  0
  -22.2100   -4.9770   22.5710 C   0  0  0  0  0  0  0  0  0  0  0  0
  -22.6980   -4.3970   21.4480 F   0  0  0  0  0  0  0  0  0  0  0  0
  -21.3420   -4.0550   26.0150 F   0  0  0  0  0  0  0  0  0  0  0  0
  -23.0140  -13.7000   21.2820 C   0  0  0  0  0  0  0  0  0  0  0  0
  -22.3490  -12.9650   22.1670 N   0  0  0  0  0  0  0  0  0  0  0  0
  -22.5370  -14.7430   20.8340 O   0  0  0  0  0  0  0  0  0  0  0  0
  -22.7480  -12.1200   22.5490 H   0  0  0  0  0  0  0  0  0  0  0  0
  -21.4270  -13.2480   22.4660 H   0  0  0  0  0  0  0  0  0  0  0  0
  -25.5830  -15.4140   20.3650 N   0  0  0  0  0  0  0  0  0  0  0  0
  -24.8320  -16.0660   20.5650 H   0  0  0  0  0  0  0  0  0  0  0  0
  -26.4240  -15.8680   20.0300 H   0  0  0  0  0  0  0  0  0  0  0  0
  -29.2550  -20.5970   17.4600 C   0  0  0  0  0  2  0  0  0  0  0  0
  -26.9700  -20.4750   16.5210 C   0  0  0  0  0  1  0  0  0  0  0  0
  -27.8630  -18.5830   17.8170 C   0  0  0  0  0  1  0  0  0  0  0  0
  -27.8880  -20.0500   17.6020 N   0  0  1  0  0  4  0  0  0  0  0  0
  -27.5620  -20.4800   18.4550 H   0  0  0  0  0  0  0  0  0  0  0  0
  2  1  2  0
  2 59  1  0
  3  7  1  0
  3  1  1  0
  4  6  1  0
  4  5  2  0
  5  2  1  0
  6  3  2  0
  7  8  1  0
  9 12  1  0
 10 12  1  0
 11  7  1  0
 11  9  1  0
 12 14  1  0
 13 18  1  0
 13 11  1  0
 13 10  1  0
 14 17  1  0
 14 16  1  0
 15 14  1  0
 19 30  2  0
 20 18  1  0
 20 25  1  0
 21 29  1  0
 21 31  1  0
 22 28  1  0
 22 24  1  0
 23 29  1  0
 24 23  1  0
 25 24  2  0
 26 27  1  0
 26 20  2  0
 27 22  2  0
 28 21  1  0
 29 19  1  0
 31 33  2  0
 32 31  1  0
 34 32  1  0
 35 44  2  0
 35 40  1  0
 36 32  1  0
 36 40  1  0
 37 36  1  0
 38 39  1  0
 38 37  1  0
 39 35  1  0
 40 41  2  0
 41 42  1  0
 43 42  2  0
 44 43  1  0
 45 19  1  0
 45 46  1  0
 45 55  1  0
 46 49  1  0
 47 51  1  0
 47 46  1  0
 48 47  2  0
 51 50  1  0
 53 51  1  0
 53 54  1  0
 53 52  1  0
 55 58  1  1
 55 56  1  0
 57 55  1  0
 60 72  1  0
 61 66  1  0
 62 63  1  0
 62 61  1  0
 64 63  1  0
 64 76  1  0
 64 65  1  0
 66 60  1  0
 66 65  1  0
 67 60  2  0
 69 68  1  0
 70 72  1  0
 70 71  1  0
 71 59  1  0
 71 68  1  0
 72 69  1  0
 73 74  2  0
 74 93  1  0
 75 74  1  0
 75 78  1  0
 76 77  1  0
 76 73  1  0
 77 75  2  0
 78 79  1  0
 79 80  2  0
 81 84  1  0
 81 80  1  0
 82 81  2  0
 83 82  1  0
 83 78  2  0
 84 85  1  0
 85 90  2  0
 85 86  1  0
 86 87  2  0
 88 87  1  0
 88 92  1  0
 89 88  2  0
 90 89  1  0
 91 90  1  0
 93 94  1  0
 94 97  1  0
 94 96  1  0
 95 93  2  0
 98 73  1  0
 98 99  1  0
100 98  1  0
101104  1  0
101  4  1  0
102104  1  0
104103  1  0
104105  1  1
M  ISO  4  13 101  18 101  60 100  72 100
M  END
>  <TORSDO>  (94) 
F 21

>  <SCORE>  (94) 
-11.124

>  <name>  (94) 
95

>  <ligand_id>  (94) 
95

>  <original_smiles>  (94) 
[H]c1c(N([H])C2([H])C([H])([H])C([H])([N+]([H])([H])[H])C([H])([H])C2([H])Oc2c([H])c([H])c3c(c2[H])C([H])([H])N(C(=O)C([H])(N([H])C(=O)C([H])(N([H])C([H])([H])[H])C([H])([H])[H])C(C([H])([H])[H])(C([H])([H])[H])C([H])([H])[H])C([H])(C(=O)N([H])C2([H])c4c([H])c([H])c([H])c([H])c4C([H])([H])C([H])([H])C2([H])[H])C3([H])[H])nc(C([H])([H])[N+]([H])(C([H])([H])[H])C([H])([H])[H])nc1C([H])([H])C1([H])C([H])([H])N(C(=O)N2C([H])([H])C([H])([H])C([H])([H])C([H])(n3nc(-c4c([H])c([H])c(Oc5c([H])c([H])c(F)c([H])c5F)c([H])c4[H])c(C(=O)N([H])[H])c3N([H])[H])C2([H])[H])C([H])([H])C1([H])[H]

>  <smiles>  (94) 
[H]c1c(N([H])C2([H])C([H])([H])C([H])([N+]([H])([H])[H])C([H])([H])C2([H])Oc2c([H])c([H])c3c(c2[H])C([H])([H])N(C(=O)C([H])(N([H])C(=O)C([H])(N([H])C([H])([H])[H])C([H])([H])[H])C(C([H])([H])[H])(C([H])([H])[H])C([H])([H])[H])C([H])(C(=O)N([H])C2([H])c4c([H])c([H])c([H])c([H])c4C([H])([H])C([H])([H])C2([H])[H])C3([H])[H])nc(C([H])([H])[N+]([H])(C([H])([H])[H])C([H])([H])[H])nc1C([H])([H])C1([H])C([H])([H])N(C(=O)N2C([H])([H])C([H])([H])C([H])([H])C([H])(n3nc(-c4c([H])c([H])c(Oc5c([H])c([H])c(F)c([H])c5F)c([H])c4[H])c(C(=O)N([H])[H])c3N([H])[H])C2([H])[H])C([H])([H])C1([H])[H]

$$$$
96:0:0
     RDKit          3D

 92101  0  0  1  0  0  0  0  0999 V2000
  -29.9160  -21.9300   20.8220 C   0  0  0  0  0  3  0  0  0  0  0  0
  -29.2980  -20.8300   20.1430 C   0  0  0  0  0  0  0  0  0  0  0  0
  -28.2380  -21.3730   19.3440 C   0  0  0  0  0  0  0  0  0  0  0  0
  -28.6560  -23.6560   19.8640 C   0  0  0  0  0  0  0  0  0  0  0  0
  -29.6340  -23.2680   20.6870 N   0  0  0  0  0  0  0  0  0  0  0  0
  -27.9560  -22.7140   19.2050 N   0  0  0  0  0  0  0  0  0  0  0  0
  -29.3410  -18.4070   21.2450 C   0  0  0  0  0  2  0  0  0  0  0  0
  -29.8780  -18.3510   19.2740 C   0  0  0  0  0  2  0  0  0  0  0  0
  -30.2410  -17.3830   20.4560 C   0  0  0  0  0  3  0  0  0  0  0  0
  -29.8320  -19.4320   20.2940 N   0  0  0  0  0  0  0  0  0  0  0  0
  -30.6000  -14.7820   20.1610 C   0  0  0  0  0  0  0  0  0  0  0  0
  -30.3840  -12.5210   19.1150 C   0  0  0  0  0  2  0  0  0  0  0  0
  -29.4110  -12.6200   17.9210 C   0  0  0  0  0  2  0  0  0  0  0  0
  -27.9530  -12.4370   18.3850 C   0  0  0  0  0  2  0  0  0  0  0  0
  -27.6130  -13.2970   19.6320 C   0  0  0  0  0  3  0  0  0  0  0  0
  -28.7030  -13.1860   20.7190 C   0  0  0  0  0  2  0  0  0  0  0  0
  -29.9780  -13.5550   20.0950 N   0  0  0  0  0  0  0  0  0  0  0  0
  -31.7840  -14.8890   19.8250 O   0  0  0  0  0  0  0  0  0  0  0  0
  -29.8270  -15.9070   20.4030 N   0  0  0  0  0  0  0  0  0  0  0  0
  -28.8530  -15.7220   20.5900 H   0  0  0  0  0  0  0  0  0  0  0  0
  -25.2390  -13.8740   20.4160 C   0  0  0  0  0  0  0  0  0  0  0  0
  -24.1870  -13.0930   20.8110 C   0  0  0  0  0  0  0  0  0  0  0  0
  -24.6560  -11.7460   20.7660 C   0  0  0  0  0  0  0  0  0  0  0  0
  -26.2810  -13.0010   20.1540 N   0  0  0  0  0  0  0  0  0  0  0  0
  -25.9400  -11.7150   20.4270 N   0  0  0  0  0  0  0  0  0  0  0  0
  -23.9410  -10.4800   20.9690 C   0  0  0  0  0  0  0  0  0  0  0  0
  -24.3900   -9.5160   21.9010 C   0  0  0  0  0  3  0  0  0  0  0  0
  -23.6740   -8.3140   22.0890 C   0  0  0  0  0  3  0  0  0  0  0  0
  -22.4940   -8.0670   21.3470 C   0  0  0  0  0  0  0  0  0  0  0  0
  -22.0630   -9.0180   20.4060 C   0  0  0  0  0  3  0  0  0  0  0  0
  -22.7800  -10.2110   20.2160 C   0  0  0  0  0  3  0  0  0  0  0  0
  -21.7460   -6.9180   21.4480 O   0  0  0  0  0  0  0  0  0  0  0  0
  -21.7020   -6.1860   22.6080 C   0  0  0  0  0  0  0  0  0  0  0  0
  -21.2530   -6.7440   23.8240 C   0  0  0  0  0  3  0  0  0  0  0  0
  -21.1590   -5.9370   24.9760 C   0  0  0  0  0  3  0  0  0  0  0  0
  -21.5030   -4.5740   24.9120 C   0  0  0  0  0  0  0  0  0  0  0  0
  -21.9450   -4.0150   23.7000 C   0  0  0  0  0  3  0  0  0  0  0  0
  -22.0410   -4.8180   22.5510 C   0  0  0  0  0  0  0  0  0  0  0  0
  -22.4470   -4.2700   21.3810 F   0  0  0  0  0  0  0  0  0  0  0  0
  -21.4050   -3.7970   26.0160 F   0  0  0  0  0  0  0  0  0  0  0  0
  -22.7930  -13.5620   21.1140 C   0  0  0  0  0  0  0  0  0  0  0  0
  -22.0850  -12.8620   21.9920 N   0  0  0  0  0  0  0  0  0  0  0  0
  -22.3410  -14.5870   20.6060 O   0  0  0  0  0  0  0  0  0  0  0  0
  -22.4630  -12.0310   22.4260 H   0  0  0  0  0  0  0  0  0  0  0  0
  -21.1520  -13.1610   22.2380 H   0  0  0  0  0  0  0  0  0  0  0  0
  -25.3910  -15.2460   20.2350 N   0  0  0  0  0  0  0  0  0  0  0  0
  -24.6140  -15.8880   20.3450 H   0  0  0  0  0  0  0  0  0  0  0  0
  -26.2120  -15.6830   19.8350 H   0  0  0  0  0  0  0  0  0  0  0  0
  -27.8840  -20.2400   17.0930 C   0  0  0  0  0  1  0  0  0  0  0  0
  -27.3450  -20.4640   18.5140 C   0  0  0  0  0  2  0  0  0  0  0  0
  -28.5340  -25.1880   19.3720 C   0  0  0  0  0  2  0  0  0  0  0  0
  -28.3540  -26.3980   20.2560 O   0  0  0  0  0  0  0  0  0  0  0  0
  -24.6120  -31.8750   23.2410 C   0  0  0  0  0  0  0  0  0  0  0  0
  -27.2430  -27.2770   20.1720 C   0  0  0  0  0  0  0  0  0  0  0  0
  -23.4210  -30.4770   21.5940 C   0  0  0  0  0  3  0  0  0  0  0  0
  -24.8790  -28.9280   20.1670 C   0  0  0  0  0  0  0  0  0  0  0  0
  -25.9650  -30.7850   21.4260 C   0  0  0  0  0  2  0  0  0  0  0  0
  -26.0490  -29.4030   20.7710 C   0  0  0  0  0  0  0  0  0  0  0  0
  -27.2280  -28.5880   20.7670 C   0  0  0  0  0  3  0  0  0  0  0  0
  -26.0380  -26.8630   19.5570 C   0  0  0  0  0  3  0  0  0  0  0  0
  -24.8790  -27.6660   19.5530 C   0  0  0  0  0  3  0  0  0  0  0  0
  -23.6430  -29.8050   20.2140 C   0  0  0  0  0  2  0  0  0  0  0  0
  -24.6860  -31.0640   22.1440 N   0  0  0  0  0  0  0  0  0  0  0  0
  -23.5250  -32.1500   23.7700 O   0  0  0  0  0  0  0  0  0  0  0  0
  -22.7530  -29.4590   22.5500 C   0  0  0  0  0  0  0  0  0  0  0  0
  -21.4270  -29.2820   22.4180 N   0  0  0  0  0  0  0  0  0  0  0  0
  -23.4290  -28.8330   23.3700 O   0  0  0  0  0  0  0  0  0  0  0  0
  -20.9410  -29.8400   21.7300 H   0  0  0  0  0  0  0  0  0  0  0  0
  -18.0470  -28.0850   22.9120 C   0  0  0  0  0  0  0  0  0  0  0  0
  -20.6050  -28.3410   23.1840 C   0  0  0  0  0  3  0  0  0  0  0  0
  -20.7060  -26.9120   22.6040 C   0  0  0  0  0  2  0  0  0  0  0  0
  -19.6050  -26.5940   21.5870 C   0  0  0  0  0  2  0  0  0  0  0  0
  -18.2230  -26.7390   22.2300 C   0  0  0  0  0  2  0  0  0  0  0  0
  -19.1660  -28.8440   23.3460 C   0  0  0  0  0  0  0  0  0  0  0  0
  -18.9470  -30.1040   23.9430 C   0  0  0  0  0  3  0  0  0  0  0  0
  -17.6420  -30.6050   24.1110 C   0  0  0  0  0  3  0  0  0  0  0  0
  -16.5380  -29.8430   23.6940 C   0  0  0  0  0  3  0  0  0  0  0  0
  -16.7410  -28.5850   23.0990 C   0  0  0  0  0  3  0  0  0  0  0  0
  -25.8880  -32.5120   23.8720 C   0  0  0  0  0  3  0  0  0  0  0  0
  -26.3910  -31.7490   25.1590 C   0  0  1  0  0  0  0  0  0  0  0  0
  -25.2880  -31.5180   26.2180 C   0  0  0  0  0  1  0  0  0  0  0  0
  -26.9770  -30.3690   24.7840 C   0  0  0  0  0  1  0  0  0  0  0  0
  -27.5360  -32.5470   25.8280 C   0  0  0  0  0  1  0  0  0  0  0  0
  -25.5750  -33.9120   24.1930 N   0  0  0  0  0  0  0  0  0  0  0  0
  -25.9120  -34.9630   23.4330 C   0  0  0  0  0  0  0  0  0  0  0  0
  -26.5880  -34.8560   22.4060 O   0  0  0  0  0  0  0  0  0  0  0  0
  -24.9710  -34.0690   24.9860 H   0  0  0  0  0  0  0  0  0  0  0  0
  -24.1900  -36.7610   23.0570 C   0  0  0  0  0  1  0  0  0  0  0  0
  -25.4220  -36.3540   23.8830 C   0  0  0  0  0  3  0  0  0  0  0  0
  -27.5480  -37.2390   24.7350 C   0  0  0  0  0  1  0  0  0  0  0  0
  -26.4560  -37.4070   23.7790 N   0  0  0  0  0  0  0  0  0  0  0  0
  -26.0490  -38.3280   23.9200 H   0  0  0  0  0  0  0  0  0  0  0  0
  2 10  1  0
  2  1  2  0
  3  2  1  0
  4  5  2  0
  5  1  1  0
  6  3  2  0
  6  4  1  0
  8 10  1  0
  8  9  1  0
  9 19  1  0
  9  7  1  0
 10  7  1  0
 11 19  1  0
 12 17  1  0
 13 14  1  0
 13 12  1  0
 15 14  1  0
 15 24  1  0
 15 16  1  0
 17 11  1  0
 17 16  1  0
 18 11  2  0
 19 20  1  0
 21 22  2  0
 22 41  1  0
 23 22  1  0
 23 26  1  0
 24 21  1  0
 24 25  1  0
 25 23  2  0
 26 27  1  0
 27 28  2  0
 29 32  1  0
 29 28  1  0
 30 29  2  0
 31 30  1  0
 31 26  2  0
 32 33  1  0
 33 34  1  0
 34 35  2  0
 36 35  1  0
 36 40  1  0
 37 36  2  0
 38 33  2  0
 38 37  1  0
 39 38  1  0
 41 42  1  0
 42 45  1  0
 42 44  1  0
 43 41  2  0
 46 47  1  0
 46 21  1  0
 48 46  1  0
 49 50  1  0
 50  3  1  0
 51  4  1  0
 51 52  1  0
 53 64  2  0
 54 52  1  0
 54 59  1  0
 55 63  1  0
 55 65  1  0
 56 62  1  0
 56 58  1  0
 57 63  1  0
 58 57  1  0
 59 58  2  0
 60 54  2  0
 61 60  1  0
 61 56  2  0
 62 55  1  0
 63 53  1  0
 65 67  2  0
 66 65  1  0
 68 66  1  0
 69 78  2  0
 69 74  1  0
 70 66  1  0
 70 74  1  0
 71 70  1  0
 72 73  1  0
 72 71  1  0
 73 69  1  0
 74 75  2  0
 75 76  1  0
 77 76  2  0
 78 77  1  0
 79 53  1  0
 79 84  1  0
 79 80  1  0
 80 83  1  1
 80 81  1  0
 82 80  1  0
 84 87  1  0
 85 89  1  0
 85 84  1  0
 86 85  2  0
 89 88  1  0
 91 89  1  0
 91 92  1  0
 91 90  1  0
M  ISO  4  11 100  19 100  51 101  52 101
M  END
>  <TORSDO>  (95) 
F 19

>  <SCORE>  (95) 
-14.141

>  <name>  (95) 
96

>  <ligand_id>  (95) 
96

>  <original_smiles>  (95) 
[H]c1nc(C([H])([H])Oc2c([H])c([H])c3c(c2[H])C([H])([H])N(C(=O)C([H])(N([H])C(=O)C([H])(N([H])C([H])([H])[H])C([H])([H])[H])C(C([H])([H])[H])(C([H])([H])[H])C([H])([H])[H])C([H])(C(=O)N([H])C2([H])c4c([H])c([H])c([H])c([H])c4C([H])([H])C([H])([H])C2([H])[H])C3([H])[H])nc(C([H])([H])C([H])([H])[H])c1N1C([H])([H])C([H])(N([H])C(=O)N2C([H])([H])C([H])([H])C([H])([H])C([H])(n3nc(-c4c([H])c([H])c(Oc5c([H])c([H])c(F)c([H])c5F)c([H])c4[H])c(C(=O)N([H])[H])c3N([H])[H])C2([H])[H])C1([H])[H]

>  <smiles>  (95) 
[H]c1nc(C([H])([H])Oc2c([H])c([H])c3c(c2[H])C([H])([H])N(C(=O)C([H])(N([H])C(=O)C([H])(N([H])C([H])([H])[H])C([H])([H])[H])C(C([H])([H])[H])(C([H])([H])[H])C([H])([H])[H])C([H])(C(=O)N([H])C2([H])c4c([H])c([H])c([H])c([H])c4C([H])([H])C([H])([H])C2([H])[H])C3([H])[H])nc(C([H])([H])C([H])([H])[H])c1N1C([H])([H])C([H])(N([H])C(=O)N2C([H])([H])C([H])([H])C([H])([H])C([H])(n3nc(-c4c([H])c([H])c(Oc5c([H])c([H])c(F)c([H])c5F)c([H])c4[H])c(C(=O)N([H])[H])c3N([H])[H])C2([H])[H])C1([H])[H]

$$$$
