0:0:0
     RDKit          3D

 92101  0  0  1  0  0  0  0  0999 V2000
  -26.3530  -19.4190   18.8330 C   0  0  0  0  0  3  0  0  0  0  0  0
  -28.0610  -21.5140   19.5540 C   0  0  0  0  0  0  0  0  0  0  0  0
  -28.4700  -20.0050   19.5960 C   0  0  0  0  0  0  0  0  0  0  0  0
  -26.6650  -21.6080   19.2500 C   0  0  0  0  0  0  0  0  0  0  0  0
  -27.5660  -19.0930   19.1920 N   0  0  0  0  0  0  0  0  0  0  0  0
  -25.8570  -20.6250   18.8830 N   0  0  0  0  0  0  0  0  0  0  0  0
  -25.9000  -22.7520   19.3130 N   0  0  0  0  0  0  0  0  0  0  0  0
  -26.1760  -23.4300   20.0080 H   0  0  0  0  0  0  0  0  0  0  0  0
  -24.9020  -22.5970   19.2990 H   0  0  0  0  0  0  0  0  0  0  0  0
  -30.7450  -15.3090   20.0450 C   0  0  0  0  0  0  0  0  0  0  0  0
  -30.6480  -12.8860   19.2220 C   0  0  0  0  0  2  0  0  0  0  0  0
  -29.7030  -12.7080   18.0100 C   0  0  0  0  0  2  0  0  0  0  0  0
  -28.2600  -12.4690   18.4860 C   0  0  0  0  0  2  0  0  0  0  0  0
  -27.8400  -13.4550   19.6070 C   0  0  0  0  0  3  0  0  0  0  0  0
  -28.9100  -13.6060   20.7080 C   0  0  0  0  0  2  0  0  0  0  0  0
  -30.1420  -14.0390   20.0370 N   0  0  0  0  0  0  0  0  0  0  0  0
  -31.9520  -15.3070   19.7690 O   0  0  0  0  0  0  0  0  0  0  0  0
  -29.5010  -17.5930   20.9410 C   0  0  0  0  0  2  0  0  0  0  0  0
  -30.2740  -17.7610   19.0310 C   0  0  0  0  0  2  0  0  0  0  0  0
  -29.6710  -18.9010   19.9940 C   0  0  0  0  0  3  0  0  0  0  0  0
  -30.0040  -16.5580   19.9370 N   0  0  0  0  0  0  0  0  0  0  0  0
  -25.4970  -14.0210   20.4450 C   0  0  0  0  0  0  0  0  0  0  0  0
  -24.4410  -13.2440   20.8310 C   0  0  0  0  0  0  0  0  0  0  0  0
  -24.8970  -11.8910   20.7570 C   0  0  0  0  0  0  0  0  0  0  0  0
  -26.5250  -13.1440   20.1520 N   0  0  0  0  0  0  0  0  0  0  0  0
  -26.1770  -11.8560   20.4060 N   0  0  0  0  0  0  0  0  0  0  0  0
  -24.1670  -10.6290   20.9430 C   0  0  0  0  0  0  0  0  0  0  0  0
  -24.5740   -9.6720   21.8990 C   0  0  0  0  0  3  0  0  0  0  0  0
  -23.8440   -8.4770   22.0720 C   0  0  0  0  0  3  0  0  0  0  0  0
  -22.6900   -8.2290   21.2900 C   0  0  0  0  0  0  0  0  0  0  0  0
  -22.3010   -9.1750   20.3250 C   0  0  0  0  0  3  0  0  0  0  0  0
  -23.0330  -10.3620   20.1490 C   0  0  0  0  0  3  0  0  0  0  0  0
  -21.9330   -7.0860   21.3720 O   0  0  0  0  0  0  0  0  0  0  0  0
  -21.7790   -6.4080   22.5540 C   0  0  0  0  0  0  0  0  0  0  0  0
  -21.1950   -7.0120   23.6900 C   0  0  0  0  0  3  0  0  0  0  0  0
  -20.9920   -6.2570   24.8620 C   0  0  0  0  0  3  0  0  0  0  0  0
  -21.3630   -4.9000   24.8990 C   0  0  0  0  0  0  0  0  0  0  0  0
  -21.9390   -4.2950   23.7680 C   0  0  0  0  0  3  0  0  0  0  0  0
  -22.1440   -5.0470   22.5980 C   0  0  0  0  0  0  0  0  0  0  0  0
  -22.6790   -4.4550   21.5040 F   0  0  0  0  0  0  0  0  0  0  0  0
  -21.1610   -4.1720   26.0220 F   0  0  0  0  0  0  0  0  0  0  0  0
  -23.0560  -13.7230   21.1520 C   0  0  0  0  0  0  0  0  0  0  0  0
  -22.3520  -13.0220   22.0320 N   0  0  0  0  0  0  0  0  0  0  0  0
  -22.6090  -14.7590   20.6580 O   0  0  0  0  0  0  0  0  0  0  0  0
  -22.7280  -12.1860   22.4530 H   0  0  0  0  0  0  0  0  0  0  0  0
  -21.4240  -13.3270   22.2900 H   0  0  0  0  0  0  0  0  0  0  0  0
  -25.6650  -15.3960   20.2920 N   0  0  0  0  0  0  0  0  0  0  0  0
  -24.9070  -16.0500   20.4480 H   0  0  0  0  0  0  0  0  0  0  0  0
  -26.5160  -15.8360   19.9660 H   0  0  0  0  0  0  0  0  0  0  0  0
  -28.7720  -23.0590   19.7450 C   0  0  0  0  0  3  0  0  0  0  0  0
  -27.9600  -24.6270   19.6100 C   0  0  0  0  0  3  0  0  0  0  0  0
  -28.2830  -26.1780   19.8240 O   0  0  0  0  0  0  0  0  0  0  0  0
  -24.5910  -31.7520   23.1360 C   0  0  0  0  0  0  0  0  0  0  0  0
  -27.2400  -27.2080   19.8210 C   0  0  0  0  0  0  0  0  0  0  0  0
  -23.4130  -30.4250   21.4300 C   0  0  0  0  0  3  0  0  0  0  0  0
  -24.8860  -28.9620   19.9030 C   0  0  0  0  0  0  0  0  0  0  0  0
  -25.9660  -30.7360   21.2690 C   0  0  0  0  0  2  0  0  0  0  0  0
  -26.0660  -29.3790   20.5340 C   0  0  0  0  0  0  0  0  0  0  0  0
  -27.2410  -28.5220   20.4720 C   0  0  0  0  0  3  0  0  0  0  0  0
  -26.0290  -26.9240   19.1510 C   0  0  0  0  0  3  0  0  0  0  0  0
  -24.8850  -27.7530   19.1950 C   0  0  0  0  0  3  0  0  0  0  0  0
  -23.6420  -29.8360   20.0120 C   0  0  0  0  0  2  0  0  0  0  0  0
  -24.6780  -30.9920   22.0000 N   0  0  0  0  0  0  0  0  0  0  0  0
  -23.5010  -31.9810   23.6850 O   0  0  0  0  0  0  0  0  0  0  0  0
  -22.7600  -29.3510   22.3360 C   0  0  0  0  0  0  0  0  0  0  0  0
  -21.4350  -29.1550   22.2080 N   0  0  0  0  0  0  0  0  0  0  0  0
  -23.4510  -28.6970   23.1220 O   0  0  0  0  0  0  0  0  0  0  0  0
  -20.9310  -29.7410   21.5560 H   0  0  0  0  0  0  0  0  0  0  0  0
  -18.0880  -27.8430   22.6690 C   0  0  0  0  0  0  0  0  0  0  0  0
  -20.6430  -28.1540   22.9280 C   0  0  0  0  0  3  0  0  0  0  0  0
  -20.7730  -26.7610   22.2670 C   0  0  0  0  0  2  0  0  0  0  0  0
  -19.6680  -26.4720   21.2460 C   0  0  0  0  0  2  0  0  0  0  0  0
  -18.2900  -26.5420   21.9110 C   0  0  0  0  0  2  0  0  0  0  0  0
  -19.1920  -28.6070   23.1320 C   0  0  0  0  0  0  0  0  0  0  0  0
  -18.9460  -29.8250   23.8050 C   0  0  0  0  0  3  0  0  0  0  0  0
  -17.6310  -30.2780   24.0160 C   0  0  0  0  0  3  0  0  0  0  0  0
  -16.5420  -29.5120   23.5660 C   0  0  0  0  0  3  0  0  0  0  0  0
  -16.7710  -28.2960   22.8980 C   0  0  0  0  0  3  0  0  0  0  0  0
  -25.8550  -32.3840   23.7930 C   0  0  0  0  0  3  0  0  0  0  0  0
  -25.5270  -33.7730   24.1570 N   0  0  0  0  0  0  0  0  0  0  0  0
  -25.8210  -34.8480   23.4140 C   0  0  0  0  0  0  0  0  0  0  0  0
  -26.4640  -34.7780   22.3620 O   0  0  0  0  0  0  0  0  0  0  0  0
  -24.9510  -33.9000   24.9760 H   0  0  0  0  0  0  0  0  0  0  0  0
  -24.0420  -36.6150   23.1700 C   0  0  0  0  0  1  0  0  0  0  0  0
  -25.3280  -36.2210   23.9150 C   0  0  0  0  0  3  0  0  0  0  0  0
  -27.4730  -37.1500   24.6710 C   0  0  0  0  0  1  0  0  0  0  0  0
  -26.3320  -37.2980   23.7700 N   0  0  0  0  0  0  0  0  0  0  0  0
  -25.9120  -38.2080   23.9400 H   0  0  0  0  0  0  0  0  0  0  0  0
  -26.3540  -31.5910   25.0630 C   0  0  1  0  0  0  0  0  0  0  0  0
  -25.2460  -31.3280   26.1100 C   0  0  0  0  0  1  0  0  0  0  0  0
  -26.9500  -30.2230   24.6610 C   0  0  0  0  0  1  0  0  0  0  0  0
  -27.4910  -32.3780   25.7570 C   0  0  0  0  0  1  0  0  0  0  0  0
  1  6  2  0
  1  5  1  0
  2  3  1  0
  2 50  1  0
  4  7  1  0
  4  2  2  0
  5  3  2  0
  6  4  1  0
  7  8  1  0
  9  7  1  0
 11 16  1  0
 12 13  1  0
 12 11  1  0
 14 13  1  0
 14 25  1  0
 14 15  1  0
 16 10  1  0
 16 15  1  0
 17 10  2  0
 19 21  1  0
 19 20  1  0
 20  3  1  0
 20 18  1  0
 21 10  1  0
 21 18  1  0
 22 23  2  0
 23 42  1  0
 24 23  1  0
 24 27  1  0
 25 26  1  0
 25 22  1  0
 26 24  2  0
 27 28  1  0
 28 29  2  0
 30 33  1  0
 30 29  1  0
 31 30  2  0
 32 31  1  0
 32 27  2  0
 33 34  1  0
 34 39  2  0
 34 35  1  0
 35 36  2  0
 36 37  1  0
 37 41  1  0
 38 37  2  0
 39 38  1  0
 40 39  1  0
 42 43  1  0
 43 46  1  0
 43 45  1  0
 44 42  2  0
 47 22  1  0
 47 48  1  0
 49 47  1  0
 51 50  2  0
 51 52  1  0
 53 64  2  0
 54 52  1  0
 54 59  1  0
 55 63  1  0
 55 65  1  0
 56 62  1  0
 56 58  1  0
 57 63  1  0
 58 57  1  0
 59 58  2  0
 60 61  1  0
 60 54  2  0
 61 56  2  0
 62 55  1  0
 63 53  1  0
 65 67  2  0
 66 65  1  0
 68 66  1  0
 69 78  2  0
 69 74  1  0
 70 66  1  0
 70 74  1  0
 71 70  1  0
 72 73  1  0
 72 71  1  0
 73 69  1  0
 74 75  2  0
 75 76  1  0
 77 76  2  0
 78 77  1  0
 79 53  1  0
 79 80  1  0
 79 89  1  0
 80 83  1  0
 81 85  1  0
 81 80  1  0
 82 81  2  0
 85 84  1  0
 87 85  1  0
 87 88  1  0
 87 86  1  0
 89 92  1  1
 89 90  1  0
 91 89  1  0
M  ISO  4  10 100  21 100  51 101  52 101
M  END
>  <TORSDO>  (1) 
F 18

>  <SCORE>  (1) 
-14.899

>  <name>  (1) 
0

>  <ligand_id>  (1) 
0

>  <original_smiles>  (1) 
[H]c1nc(N([H])[H])c(C([H])([H])C([H])([H])Oc2c([H])c([H])c3c(c2[H])C([H])([H])N(C(=O)C([H])(N([H])C(=O)C([H])(N([H])C([H])([H])[H])C([H])([H])[H])C(C([H])([H])[H])(C([H])([H])[H])C([H])([H])[H])C([H])(C(=O)N([H])C2([H])c4c([H])c([H])c([H])c([H])c4C([H])([H])C([H])([H])C2([H])[H])C3([H])[H])c(C2([H])C([H])([H])N(C(=O)N3C([H])([H])C([H])([H])C([H])([H])C([H])(n4nc(-c5c([H])c([H])c(Oc6c([H])c([H])c(F)c([H])c6F)c([H])c5[H])c(C(=O)N([H])[H])c4N([H])[H])C3([H])[H])C2([H])[H])n1

>  <smiles>  (1) 
[H]c1nc(N([H])[H])c(C([H])([H])C([H])([H])Oc2c([H])c([H])c3c(c2[H])C([H])([H])N(C(=O)C([H])(N([H])C(=O)C([H])(N([H])C([H])([H])[H])C([H])([H])[H])C(C([H])([H])[H])(C([H])([H])[H])C([H])([H])[H])C([H])(C(=O)N([H])C2([H])c4c([H])c([H])c([H])c([H])c4C([H])([H])C([H])([H])C2([H])[H])C3([H])[H])c(C2([H])C([H])([H])N(C(=O)N3C([H])([H])C([H])([H])C([H])([H])C([H])(n4nc(-c5c([H])c([H])c(Oc6c([H])c([H])c(F)c([H])c6F)c([H])c5[H])c(C(=O)N([H])[H])c4N([H])[H])C3([H])[H])C2([H])[H])n1

$$$$
1:0:0
     RDKit          3D

 97106  0  0  1  0  0  0  0  0999 V2000
  -28.5960  -17.9410   18.9010 C   0  0  0  0  0  2  0  0  0  0  0  0
  -28.7090  -19.2950   18.1590 C   0  0  0  0  0  2  0  0  0  0  0  0
  -29.6510  -20.3270   20.2170 C   0  0  0  0  0  2  0  0  0  0  0  0
  -29.7570  -17.7680   19.8900 C   0  0  0  0  0  3  0  0  0  0  0  0
  -29.5970  -18.9130   20.9230 C   0  0  0  0  0  3  0  0  0  0  0  0
  -28.7160  -20.5040   19.0500 N   0  0  1  0  0  4  0  0  0  0  0  0
  -27.7790  -20.6060   19.4090 H   0  0  0  0  0  0  0  0  0  0  0  0
  -30.7130  -15.4620   20.3090 C   0  0  0  0  0  0  0  0  0  0  0  0
  -30.8620  -13.0900   19.6560 C   0  0  0  0  0  2  0  0  0  0  0  0
  -29.9500  -12.8710   18.4300 C   0  0  0  0  0  2  0  0  0  0  0  0
  -28.5000  -12.5760   18.8650 C   0  0  0  0  0  2  0  0  0  0  0  0
  -27.9760  -13.5810   19.9250 C   0  0  0  0  0  3  0  0  0  0  0  0
  -29.0060  -13.7700   21.0630 C   0  0  0  0  0  2  0  0  0  0  0  0
  -30.2810  -14.1790   20.4570 N   0  0  0  0  0  0  0  0  0  0  0  0
  -31.8180  -15.7370   19.8350 O   0  0  0  0  0  0  0  0  0  0  0  0
  -29.7630  -16.4070   20.4790 N   0  0  0  0  0  0  0  0  0  0  0  0
  -28.9110  -16.1010   20.9270 H   0  0  0  0  0  0  0  0  0  0  0  0
  -25.5960  -13.9850   20.8190 C   0  0  0  0  0  0  0  0  0  0  0  0
  -24.5890  -13.1230   21.1580 C   0  0  0  0  0  0  0  0  0  0  0  0
  -25.1130  -11.8080   20.9650 C   0  0  0  0  0  0  0  0  0  0  0  0
  -26.6670  -13.1890   20.4420 N   0  0  0  0  0  0  0  0  0  0  0  0
  -26.3850  -11.8690   20.5900 N   0  0  0  0  0  0  0  0  0  0  0  0
  -24.4630  -10.4930   21.0650 C   0  0  0  0  0  0  0  0  0  0  0  0
  -24.8530   -9.5510   22.0410 C   0  0  0  0  0  3  0  0  0  0  0  0
  -24.2030   -8.3020   22.1290 C   0  0  0  0  0  3  0  0  0  0  0  0
  -23.1480   -7.9860   21.2400 C   0  0  0  0  0  0  0  0  0  0  0  0
  -22.7800   -8.9210   20.2560 C   0  0  0  0  0  3  0  0  0  0  0  0
  -23.4310  -10.1620   20.1640 C   0  0  0  0  0  3  0  0  0  0  0  0
  -22.4770   -6.7880   21.2340 O   0  0  0  0  0  0  0  0  0  0  0  0
  -22.1160   -6.1590   22.4000 C   0  0  0  0  0  0  0  0  0  0  0  0
  -21.2340   -6.7550   23.3240 C   0  0  0  0  0  3  0  0  0  0  0  0
  -20.8320   -6.0460   24.4730 C   0  0  0  0  0  3  0  0  0  0  0  0
  -21.3040   -4.7390   24.6950 C   0  0  0  0  0  0  0  0  0  0  0  0
  -22.1810   -4.1420   23.7730 C   0  0  0  0  0  3  0  0  0  0  0  0
  -22.5830   -4.8470   22.6260 C   0  0  0  0  0  0  0  0  0  0  0  0
  -23.4100   -4.2600   21.7270 F   0  0  0  0  0  0  0  0  0  0  0  0
  -20.9140   -4.0530   25.7930 F   0  0  0  0  0  0  0  0  0  0  0  0
  -23.1850  -13.4920   21.5430 C   0  0  0  0  0  0  0  0  0  0  0  0
  -22.5470  -12.6830   22.3820 N   0  0  0  0  0  0  0  0  0  0  0  0
  -22.6620  -14.5300   21.1390 O   0  0  0  0  0  0  0  0  0  0  0  0
  -22.9790  -11.8390   22.7300 H   0  0  0  0  0  0  0  0  0  0  0  0
  -21.6100  -12.9070   22.6800 H   0  0  0  0  0  0  0  0  0  0  0  0
  -25.6810  -15.3750   20.7750 N   0  0  0  0  0  0  0  0  0  0  0  0
  -24.8920  -15.9700   21.0000 H   0  0  0  0  0  0  0  0  0  0  0  0
  -26.4900  -15.8920   20.4580 H   0  0  0  0  0  0  0  0  0  0  0  0
  -31.9400  -18.5260   21.6220 C   0  0  0  0  0  1  0  0  0  0  0  0
  -30.5460  -18.7130   22.0400 N   0  0  0  0  0  0  0  0  0  0  0  0
  -31.0950  -19.3550   24.3850 C   0  0  0  0  0  1  0  0  0  0  0  0
  -30.4280  -19.7600   23.0610 C   0  0  0  0  0  2  0  0  0  0  0  0
  -28.9970  -21.7510   18.2380 C   0  0  0  0  0  2  0  0  0  0  0  0
  -29.1620  -23.9820   19.5760 C   0  0  0  0  0  3  0  0  0  0  0  0
  -28.8110  -25.3560   19.6360 C   0  0  0  0  0  3  0  0  0  0  0  0
  -28.4520  -23.1410   18.6840 C   0  0  0  0  0  0  0  0  0  0  0  0
  -27.7650  -25.8300   18.8030 C   0  0  0  0  0  0  0  0  0  0  0  0
  -27.4030  -23.6460   17.9680 N   0  0  0  0  0  0  0  0  0  0  0  0
  -27.0780  -24.9560   18.0120 N   0  0  0  0  0  0  0  0  0  0  0  0
  -27.5900  -27.1970   18.5610 O   0  0  0  0  0  0  0  0  0  0  0  0
  -24.8210  -31.7580   23.3240 C   0  0  0  0  0  0  0  0  0  0  0  0
  -26.4860  -27.9470   18.9500 C   0  0  0  0  0  0  0  0  0  0  0  0
  -23.2330  -30.8490   21.6570 C   0  0  0  0  0  3  0  0  0  0  0  0
  -24.2830  -29.5890   19.6980 C   0  0  0  0  0  0  0  0  0  0  0  0
  -25.7170  -31.0870   21.0930 C   0  0  0  0  0  2  0  0  0  0  0  0
  -25.5650  -29.8870   20.1730 C   0  0  0  0  0  0  0  0  0  0  0  0
  -26.6640  -29.0770   19.7930 C   0  0  0  0  0  3  0  0  0  0  0  0
  -25.1820  -27.6730   18.4780 C   0  0  0  0  0  3  0  0  0  0  0  0
  -24.0890  -28.4860   18.8460 C   0  0  0  0  0  3  0  0  0  0  0  0
  -23.1520  -30.4900   20.1460 C   0  0  0  0  0  2  0  0  0  0  0  0
  -24.6180  -31.2350   22.0800 N   0  0  0  0  0  0  0  0  0  0  0  0
  -23.8700  -31.9620   24.0950 O   0  0  0  0  0  0  0  0  0  0  0  0
  -22.6460  -29.6770   22.4760 C   0  0  0  0  0  0  0  0  0  0  0  0
  -21.3150  -29.5030   22.4050 N   0  0  0  0  0  0  0  0  0  0  0  0
  -23.3780  -28.9340   23.1330 O   0  0  0  0  0  0  0  0  0  0  0  0
  -20.7780  -30.1580   21.8560 H   0  0  0  0  0  0  0  0  0  0  0  0
  -18.0050  -28.0970   22.7730 C   0  0  0  0  0  0  0  0  0  0  0  0
  -20.5540  -28.4380   23.0570 C   0  0  0  0  0  3  0  0  0  0  0  0
  -20.7120  -27.0970   22.3030 C   0  0  0  0  0  2  0  0  0  0  0  0
  -19.6120  -26.8570   21.2620 C   0  0  0  0  0  2  0  0  0  0  0  0
  -18.2340  -26.8520   21.9310 C   0  0  0  0  0  2  0  0  0  0  0  0
  -19.0950  -28.8490   23.2870 C   0  0  0  0  0  0  0  0  0  0  0  0
  -18.8270  -30.0170   24.0360 C   0  0  0  0  0  3  0  0  0  0  0  0
  -17.5030  -30.4330   24.2720 C   0  0  0  0  0  3  0  0  0  0  0  0
  -16.4290  -29.6760   23.7740 C   0  0  0  0  0  3  0  0  0  0  0  0
  -16.6810  -28.5080   23.0330 C   0  0  0  0  0  3  0  0  0  0  0  0
  -26.2450  -32.1490   23.8270 C   0  0  0  0  0  3  0  0  0  0  0  0
  -26.8620  -31.0930   24.8250 C   0  0  1  0  0  0  0  0  0  0  0  0
  -25.9390  -30.7540   26.0160 C   0  0  0  0  0  1  0  0  0  0  0  0
  -27.1990  -29.7730   24.0910 C   0  0  0  0  0  1  0  0  0  0  0  0
  -28.1940  -31.6310   25.4000 C   0  0  0  0  0  1  0  0  0  0  0  0
  -26.1460  -33.4690   24.4640 N   0  0  0  0  0  0  0  0  0  0  0  0
  -26.4990  -34.6230   23.8820 C   0  0  0  0  0  0  0  0  0  0  0  0
  -27.0200  -34.6770   22.7650 O   0  0  0  0  0  0  0  0  0  0  0  0
  -25.6830  -33.5030   25.3610 H   0  0  0  0  0  0  0  0  0  0  0  0
  -24.9840  -36.6160   24.0990 C   0  0  0  0  0  1  0  0  0  0  0  0
  -26.2330  -35.9230   24.6650 C   0  0  0  0  0  3  0  0  0  0  0  0
  -28.5270  -36.3900   25.4060 C   0  0  0  0  0  1  0  0  0  0  0  0
  -27.3710  -36.8670   24.6510 N   0  0  0  0  0  0  0  0  0  0  0  0
  -27.0940  -37.7700   25.0290 H   0  0  0  0  0  0  0  0  0  0  0  0
  1  4  1  0
  2  1  1  0
  2  6  1  0
  3  5  1  0
  4 16  1  0
  4  5  1  0
  5 47  1  0
  6  7  1  1
  6  3  1  0
  8 14  1  0
  8 16  1  0
  9 14  1  0
 10 11  1  0
 10  9  1  0
 12 11  1  0
 12 21  1  0
 12 13  1  0
 14 13  1  0
 15  8  2  0
 16 17  1  0
 18 19  2  0
 19 38  1  0
 20 23  1  0
 20 19  1  0
 21 22  1  0
 21 18  1  0
 22 20  2  0
 23 24  1  0
 24 25  2  0
 26 25  1  0
 27 26  2  0
 28 27  1  0
 28 23  2  0
 29 26  1  0
 29 30  1  0
 30 35  2  0
 30 31  1  0
 31 32  2  0
 32 33  1  0
 33 37  1  0
 34 33  2  0
 35 34  1  0
 36 35  1  0
 38 39  1  0
 39 42  1  0
 39 41  1  0
 40 38  2  0
 43 18  1  0
 43 44  1  0
 45 43  1  0
 46 47  1  0
 47 49  1  0
 49 48  1  0
 50 53  1  0
 50  6  1  0
 51 52  2  0
 53 51  1  0
 54 52  1  0
 55 56  1  0
 55 53  2  0
 56 54  2  0
 57 54  1  0
 57 59  1  0
 58 69  2  0
 59 64  1  0
 60 68  1  0
 60 70  1  0
 61 67  1  0
 61 63  1  0
 62 68  1  0
 63 62  1  0
 64 63  2  0
 65 66  1  0
 65 59  2  0
 66 61  2  0
 67 60  1  0
 68 58  1  0
 70 72  2  0
 71 70  1  0
 73 71  1  0
 74 83  2  0
 74 79  1  0
 75 71  1  0
 75 79  1  0
 76 75  1  0
 77 78  1  0
 77 76  1  0
 78 74  1  0
 79 80  2  0
 80 81  1  0
 82 81  2  0
 83 82  1  0
 84 58  1  0
 84 89  1  0
 84 85  1  0
 85 88  1  1
 85 86  1  0
 87 85  1  0
 89 92  1  0
 90 89  1  0
 90 94  1  0
 91 90  2  0
 94 93  1  0
 96 94  1  0
 96 97  1  0
 96 95  1  0
M  ISO  4   8 100  16 100  54 101  57 101
M  END
>  <TORSDO>  (2) 
F 20

>  <SCORE>  (2) 
-10.273

>  <name>  (2) 
1

>  <ligand_id>  (2) 
1

>  <original_smiles>  (2) 
[H]c1c(Oc2c([H])c([H])c3c(c2[H])C([H])([H])N(C(=O)C([H])(N([H])C(=O)C([H])(N([H])C([H])([H])[H])C([H])([H])[H])C(C([H])([H])[H])(C([H])([H])[H])C([H])([H])[H])C([H])(C(=O)N([H])C2([H])c4c([H])c([H])c([H])c([H])c4C([H])([H])C([H])([H])C2([H])[H])C3([H])[H])nnc(C([H])([H])[N+]2([H])C([H])([H])C([H])([H])C([H])(N([H])C(=O)N3C([H])([H])C([H])([H])C([H])([H])C([H])(n4nc(-c5c([H])c([H])c(Oc6c([H])c([H])c(F)c([H])c6F)c([H])c5[H])c(C(=O)N([H])[H])c4N([H])[H])C3([H])[H])C([H])(N(C([H])([H])[H])C([H])([H])C([H])([H])[H])C2([H])[H])c1[H]

>  <smiles>  (2) 
[H]c1c(Oc2c([H])c([H])c3c(c2[H])C([H])([H])N(C(=O)C([H])(N([H])C(=O)C([H])(N([H])C([H])([H])[H])C([H])([H])[H])C(C([H])([H])[H])(C([H])([H])[H])C([H])([H])[H])C([H])(C(=O)N([H])C2([H])c4c([H])c([H])c([H])c([H])c4C([H])([H])C([H])([H])C2([H])[H])C3([H])[H])nnc(C([H])([H])[N+]2([H])C([H])([H])C([H])([H])C([H])(N([H])C(=O)N3C([H])([H])C([H])([H])C([H])([H])C([H])(n4nc(-c5c([H])c([H])c(Oc6c([H])c([H])c(F)c([H])c6F)c([H])c5[H])c(C(=O)N([H])[H])c4N([H])[H])C3([H])[H])C([H])(N(C([H])([H])[H])C([H])([H])C([H])([H])[H])C2([H])[H])c1[H]

$$$$
2:0:0
     RDKit          3D

 95105  0  0  1  0  0  0  0  0999 V2000
  -30.0940  -22.8230   20.7520 N   0  0  0  0  0  4  0  0  0  0  0  0
  -30.6000  -23.3840   21.4190 H   0  0  0  0  0  0  0  0  0  0  0  0
  -30.7850  -22.3000   20.2380 H   0  0  0  0  0  0  0  0  0  0  0  0
  -29.8540  -25.0090   19.4090 C   0  0  0  0  0  2  0  0  0  0  0  0
  -28.1120  -24.4150   20.4510 C   0  0  0  0  0  2  0  0  0  0  0  0
  -29.2780  -23.6390   19.8130 C   0  0  0  0  0  3  0  0  0  0  0  0
  -28.4100  -25.5500   19.4610 C   0  0  0  0  0  3  0  0  0  0  0  0
  -28.3230  -26.8350   20.0610 O   0  0  0  0  0  0  0  0  0  0  0  0
  -24.5280  -31.9210   23.2360 C   0  0  0  0  0  0  0  0  0  0  0  0
  -27.1070  -27.4830   20.0990 C   0  0  0  0  0  0  0  0  0  0  0  0
  -23.2770  -30.5250   21.6170 C   0  0  0  0  0  3  0  0  0  0  0  0
  -24.6960  -28.9640   20.1800 C   0  0  0  0  0  0  0  0  0  0  0  0
  -25.8000  -30.8670   21.3740 C   0  0  0  0  0  2  0  0  0  0  0  0
  -25.8630  -29.4940   20.7410 C   0  0  0  0  0  0  0  0  0  0  0  0
  -27.0660  -28.7580   20.7030 C   0  0  0  0  0  3  0  0  0  0  0  0
  -25.9140  -26.9510   19.5500 C   0  0  0  0  0  3  0  0  0  0  0  0
  -24.7130  -27.6860   19.5890 C   0  0  0  0  0  3  0  0  0  0  0  0
  -23.4560  -29.8250   20.2420 C   0  0  0  0  0  2  0  0  0  0  0  0
  -24.5530  -31.1220   22.1330 N   0  0  0  0  0  0  0  0  0  0  0  0
  -23.4600  -32.2040   23.7980 O   0  0  0  0  0  0  0  0  0  0  0  0
  -22.6360  -29.5160   22.5950 C   0  0  0  0  0  0  0  0  0  0  0  0
  -21.3150  -29.3180   22.4670 N   0  0  0  0  0  0  0  0  0  0  0  0
  -23.3270  -28.9090   23.4190 O   0  0  0  0  0  0  0  0  0  0  0  0
  -20.8250  -29.8480   21.7600 H   0  0  0  0  0  0  0  0  0  0  0  0
  -17.9580  -28.0760   22.9440 C   0  0  0  0  0  0  0  0  0  0  0  0
  -20.5040  -28.3840   23.2480 C   0  0  0  0  0  3  0  0  0  0  0  0
  -20.6390  -26.9430   22.7060 C   0  0  0  0  0  2  0  0  0  0  0  0
  -19.5600  -26.5850   21.6800 C   0  0  0  0  0  2  0  0  0  0  0  0
  -18.1670  -26.7160   22.3020 C   0  0  0  0  0  2  0  0  0  0  0  0
  -19.0550  -28.8680   23.3720 C   0  0  0  0  0  0  0  0  0  0  0  0
  -18.8090  -30.1430   23.9250 C   0  0  0  0  0  3  0  0  0  0  0  0
  -17.4930  -30.6270   24.0560 C   0  0  0  0  0  3  0  0  0  0  0  0
  -16.4090  -29.8350   23.6430 C   0  0  0  0  0  3  0  0  0  0  0  0
  -16.6430  -28.5620   23.0930 C   0  0  0  0  0  3  0  0  0  0  0  0
  -25.8330  -32.5400   23.8300 C   0  0  0  0  0  3  0  0  0  0  0  0
  -26.3800  -31.7570   25.0880 C   0  0  1  0  0  0  0  0  0  0  0  0
  -25.3150  -31.5160   26.1830 C   0  0  0  0  0  1  0  0  0  0  0  0
  -26.9470  -30.3780   24.6700 C   0  0  0  0  0  1  0  0  0  0  0  0
  -27.5480  -32.5420   25.7290 C   0  0  0  0  0  1  0  0  0  0  0  0
  -25.5440  -33.9380   24.1730 N   0  0  0  0  0  0  0  0  0  0  0  0
  -25.8760  -34.9910   23.4150 C   0  0  0  0  0  0  0  0  0  0  0  0
  -26.5310  -34.8900   22.3740 O   0  0  0  0  0  0  0  0  0  0  0  0
  -24.9680  -34.0960   24.9850 H   0  0  0  0  0  0  0  0  0  0  0  0
  -24.1600  -36.8030   23.0960 C   0  0  0  0  0  1  0  0  0  0  0  0
  -25.4080  -36.3820   23.8870 C   0  0  0  0  0  3  0  0  0  0  0  0
  -27.5590  -37.2440   24.6980 C   0  0  0  0  0  1  0  0  0  0  0  0
  -26.4480  -37.4260   23.7690 N   0  0  0  0  0  0  0  0  0  0  0  0
  -26.0510  -38.3490   23.9200 H   0  0  0  0  0  0  0  0  0  0  0  0
  -29.3090  -21.8280   21.5070 C   0  0  0  0  0  2  0  0  0  0  0  0
  -31.5520  -20.0050   23.6770 C   0  0  0  0  0  2  0  0  0  0  0  0
  -31.0180  -18.6760   21.9890 C   0  0  0  0  0  0  0  0  0  0  0  0
  -30.2070  -20.7420   22.0740 C   0  0  0  0  0  0  0  0  0  0  0  0
  -31.6900  -18.8070   23.1210 N   0  0  0  0  0  0  0  0  0  0  0  0
  -30.8390  -21.0240   23.2080 N   0  0  0  0  0  0  0  0  0  0  0  0
  -30.2710  -19.6020   21.3950 N   0  0  0  0  0  2  0  0  0  0  0  0
  -31.0160  -14.5460   20.1270 C   0  0  0  0  0  0  0  0  0  0  0  0
  -30.6360  -12.4180   18.9620 C   0  0  0  0  0  2  0  0  0  0  0  0
  -29.6560  -12.6810   17.8010 C   0  0  0  0  0  2  0  0  0  0  0  0
  -28.1990  -12.5650   18.2920 C   0  0  0  0  0  2  0  0  0  0  0  0
  -27.9310  -13.3960   19.5760 C   0  0  0  0  0  3  0  0  0  0  0  0
  -29.0160  -13.1170   20.6390 C   0  0  0  0  0  2  0  0  0  0  0  0
  -30.3260  -13.3860   20.0190 N   0  0  0  0  0  0  0  0  0  0  0  0
  -32.1340  -14.7300   19.6380 O   0  0  0  0  0  0  0  0  0  0  0  0
  -30.3600  -16.1300   21.9030 C   0  0  0  0  0  2  0  0  0  0  0  0
  -30.3960  -16.9600   20.0230 C   0  0  0  0  0  2  0  0  0  0  0  0
  -31.1260  -17.3140   21.3200 C   0  0  0  0  0  3  0  0  0  0  0  0
  -30.2690  -15.5880   20.5420 N   0  0  0  0  0  0  0  0  0  0  0  0
  -25.5710  -14.0520   20.3760 C   0  0  0  0  0  0  0  0  0  0  0  0
  -24.5010  -13.2980   20.7740 C   0  0  0  0  0  0  0  0  0  0  0  0
  -24.9330  -11.9370   20.7100 C   0  0  0  0  0  0  0  0  0  0  0  0
  -26.5900  -13.1510   20.0990 N   0  0  0  0  0  0  0  0  0  0  0  0
  -26.2080  -11.8740   20.3530 N   0  0  0  0  0  0  0  0  0  0  0  0
  -24.1900  -10.6850   20.9100 C   0  0  0  0  0  0  0  0  0  0  0  0
  -24.6040   -9.7250   21.8610 C   0  0  0  0  0  3  0  0  0  0  0  0
  -23.8650   -8.5370   22.0430 C   0  0  0  0  0  3  0  0  0  0  0  0
  -22.6970   -8.3040   21.2770 C   0  0  0  0  0  0  0  0  0  0  0  0
  -22.3060   -9.2500   20.3130 C   0  0  0  0  0  3  0  0  0  0  0  0
  -23.0450  -10.4300   20.1290 C   0  0  0  0  0  3  0  0  0  0  0  0
  -21.9310   -7.1660   21.3700 O   0  0  0  0  0  0  0  0  0  0  0  0
  -21.8010   -6.4810   22.5500 C   0  0  0  0  0  0  0  0  0  0  0  0
  -21.3020   -7.0970   23.7190 C   0  0  0  0  0  3  0  0  0  0  0  0
  -21.1210   -6.3400   24.8930 C   0  0  0  0  0  3  0  0  0  0  0  0
  -21.4270   -4.9650   24.8960 C   0  0  0  0  0  0  0  0  0  0  0  0
  -21.9190   -4.3480   23.7330 C   0  0  0  0  0  3  0  0  0  0  0  0
  -22.1030   -5.1050   22.5620 C   0  0  0  0  0  0  0  0  0  0  0  0
  -22.5570   -4.5020   21.4370 F   0  0  0  0  0  0  0  0  0  0  0  0
  -21.2470   -4.2330   26.0200 F   0  0  0  0  0  0  0  0  0  0  0  0
  -23.1240  -13.7970   21.1100 C   0  0  0  0  0  0  0  0  0  0  0  0
  -22.4220  -13.1010   21.9970 N   0  0  0  0  0  0  0  0  0  0  0  0
  -22.6800  -14.8340   20.6190 O   0  0  0  0  0  0  0  0  0  0  0  0
  -22.7940  -12.2580   22.4120 H   0  0  0  0  0  0  0  0  0  0  0  0
  -21.5020  -13.4140   22.2750 H   0  0  0  0  0  0  0  0  0  0  0  0
  -25.7580  -15.4200   20.2060 N   0  0  0  0  0  0  0  0  0  0  0  0
  -25.0100  -16.0940   20.3210 H   0  0  0  0  0  0  0  0  0  0  0  0
  -26.6100  -15.8310   19.8450 H   0  0  0  0  0  0  0  0  0  0  0  0
  1  2  1  0
  1 49  1  0
  3  1  1  0
  4  7  1  0
  4  6  1  0
  6  5  1  0
  6  1  1  0
  7  8  1  0
  7  5  1  0
  8 10  1  0
  9 20  2  0
 10 15  1  0
 11 19  1  0
 11 21  1  0
 12 18  1  0
 12 14  1  0
 13 19  1  0
 14 13  1  0
 15 14  2  0
 16 17  1  0
 16 10  2  0
 17 12  2  0
 18 11  1  0
 19  9  1  0
 21 23  2  0
 22 21  1  0
 24 22  1  0
 25 34  2  0
 25 30  1  0
 26 22  1  0
 26 30  1  0
 27 26  1  0
 28 29  1  0
 28 27  1  0
 29 25  1  0
 30 31  2  0
 31 32  1  0
 33 32  2  0
 34 33  1  0
 35  9  1  0
 35 40  1  0
 35 36  1  0
 36 39  1  1
 36 37  1  0
 38 36  1  0
 40 43  1  0
 41 45  1  0
 41 40  1  0
 42 41  2  0
 45 44  1  0
 47 45  1  0
 47 48  1  0
 47 46  1  0
 49 52  1  0
 51 53  2  0
 52 54  2  0
 53 50  1  0
 54 50  1  0
 55 51  1  0
 55 52  1  0
 56 67  1  0
 57 62  1  0
 58 59  1  0
 58 57  1  0
 60 59  1  0
 60 71  1  0
 60 61  1  0
 62 56  1  0
 62 61  1  0
 63 56  2  0
 65 67  1  0
 65 66  1  0
 66 64  1  0
 66 51  1  0
 67 64  1  0
 68 69  2  0
 69 88  1  0
 70 69  1  0
 70 73  1  0
 71 72  1  0
 71 68  1  0
 72 70  2  0
 73 74  1  0
 74 75  2  0
 76 79  1  0
 76 75  1  0
 77 76  2  0
 78 77  1  0
 78 73  2  0
 79 80  1  0
 80 85  2  0
 80 81  1  0
 81 82  2  0
 82 83  1  0
 83 87  1  0
 84 83  2  0
 85 84  1  0
 86 85  1  0
 88 89  1  0
 89 92  1  0
 89 91  1  0
 90 88  2  0
 93 94  1  0
 93 68  1  0
 95 93  1  0
M  ISO  4   7 101   8 101  56 100  67 100
M  END
>  <TORSDO>  (3) 
F 19

>  <SCORE>  (3) 
-14.087

>  <name>  (3) 
2

>  <ligand_id>  (3) 
2

>  <original_smiles>  (3) 
[H]c1nc(C2([H])C([H])([H])N(C(=O)N3C([H])([H])C([H])([H])C([H])([H])C([H])(n4nc(-c5c([H])c([H])c(Oc6c([H])c([H])c(F)c([H])c6F)c([H])c5[H])c(C(=O)N([H])[H])c4N([H])[H])C3([H])[H])C2([H])[H])nc(C([H])([H])[N+]([H])([H])C2([H])C([H])([H])C([H])(Oc3c([H])c([H])c4c(c3[H])C([H])([H])N(C(=O)C([H])(N([H])C(=O)C([H])(N([H])C([H])([H])[H])C([H])([H])[H])C(C([H])([H])[H])(C([H])([H])[H])C([H])([H])[H])C([H])(C(=O)N([H])C3([H])c5c([H])c([H])c([H])c([H])c5C([H])([H])C([H])([H])C3([H])[H])C4([H])[H])C2([H])[H])n1

>  <smiles>  (3) 
[H]c1nc(C2([H])C([H])([H])N(C(=O)N3C([H])([H])C([H])([H])C([H])([H])C([H])(n4nc(-c5c([H])c([H])c(Oc6c([H])c([H])c(F)c([H])c6F)c([H])c5[H])c(C(=O)N([H])[H])c4N([H])[H])C3([H])[H])C2([H])[H])nc(C([H])([H])[N+]([H])([H])C2([H])C([H])([H])C([H])(Oc3c([H])c([H])c4c(c3[H])C([H])([H])N(C(=O)C([H])(N([H])C(=O)C([H])(N([H])C([H])([H])[H])C([H])([H])[H])C(C([H])([H])[H])(C([H])([H])[H])C([H])([H])[H])C([H])(C(=O)N([H])C3([H])c5c([H])c([H])c([H])c([H])c5C([H])([H])C([H])([H])C3([H])[H])C4([H])[H])C2([H])[H])n1

$$$$
3:0:0
     RDKit          3D

100111  0  0  1  0  0  0  0  0999 V2000
  -31.8690  -13.7140   21.1700 C   0  0  0  0  0  0  0  0  0  0  0  0
  -31.6010  -11.2750   21.5290 C   0  0  0  0  0  2  0  0  0  0  0  0
  -30.9910  -10.6560   20.2540 C   0  0  0  0  0  2  0  0  0  0  0  0
  -29.4510  -10.7310   20.2930 C   0  0  0  0  0  2  0  0  0  0  0  0
  -28.9260  -12.1370   20.6950 C   0  0  0  0  0  3  0  0  0  0  0  0
  -29.6780  -12.6990   21.9210 C   0  0  0  0  0  2  0  0  0  0  0  0
  -31.1120  -12.6630   21.6130 N   0  0  0  0  0  0  0  0  0  0  0  0
  -33.1010  -13.6470   21.1410 O   0  0  0  0  0  0  0  0  0  0  0  0
  -33.3240  -18.0920   16.1310 C   0  0  0  0  0  3  0  0  0  0  0  0
  -31.0720  -19.1980   17.0780 C   0  0  0  0  0  0  0  0  0  0  0  0
  -31.8410  -19.8670   16.0520 C   0  0  0  0  0  0  0  0  0  0  0  0
  -31.5880  -17.9570   17.5960 C   0  0  0  0  0  0  0  0  0  0  0  0
  -30.5430  -15.8290   18.2660 C   0  0  0  0  0  2  0  0  0  0  0  0
  -31.7030  -17.1870   19.9390 C   0  0  0  0  0  2  0  0  0  0  0  0
  -31.3080  -14.6680   18.9860 C   0  0  0  0  0  2  0  0  0  0  0  0
  -31.1880  -16.1040   20.9580 C   0  0  0  0  0  2  0  0  0  0  0  0
  -32.9580  -19.2540   15.6100 N   0  0  0  0  0  0  0  0  0  0  0  0
  -32.7120  -17.4330   17.0990 N   0  0  0  0  0  0  0  0  0  0  0  0
  -31.0000  -17.1770   18.6420 N   0  0  0  0  0  0  0  0  0  0  0  0
  -31.2230  -14.7020   20.4670 N   0  0  0  0  0  0  0  0  0  0  0  0
  -29.8660  -21.1760   18.2180 C   0  0  0  0  0  2  0  0  0  0  0  0
  -28.5900  -19.7040   16.5880 C   0  0  0  0  0  2  0  0  0  0  0  0
  -28.5130  -21.6600   18.7800 C   0  0  0  0  0  2  0  0  0  0  0  0
  -27.2750  -20.2170   17.2020 C   0  0  0  0  0  2  0  0  0  0  0  0
  -29.7460  -19.7620   17.6130 C   0  0  0  0  0  3  0  0  0  0  0  0
  -27.4440  -21.5780   17.7590 N   0  0  0  0  0  4  0  0  0  0  0  0
  -27.6430  -22.2250   17.0110 H   0  0  0  0  0  0  0  0  0  0  0  0
  -26.5730  -21.8670   18.1760 H   0  0  0  0  0  0  0  0  0  0  0  0
  -26.6040  -13.2120   20.8740 C   0  0  0  0  0  0  0  0  0  0  0  0
  -25.3530  -12.6750   21.0220 C   0  0  0  0  0  0  0  0  0  0  0  0
  -25.5390  -11.2620   21.1170 C   0  0  0  0  0  0  0  0  0  0  0  0
  -27.4810  -12.1390   20.8900 N   0  0  0  0  0  0  0  0  0  0  0  0
  -26.8330  -10.9650   21.0940 N   0  0  0  0  0  0  0  0  0  0  0  0
  -24.5570  -10.1720   21.1690 C   0  0  0  0  0  0  0  0  0  0  0  0
  -24.6840   -9.1090   22.0900 C   0  0  0  0  0  3  0  0  0  0  0  0
  -23.7180   -8.0810   22.1340 C   0  0  0  0  0  3  0  0  0  0  0  0
  -22.6080   -8.1130   21.2570 C   0  0  0  0  0  0  0  0  0  0  0  0
  -22.4990   -9.1620   20.3260 C   0  0  0  0  0  3  0  0  0  0  0  0
  -23.4650  -10.1800   20.2790 C   0  0  0  0  0  3  0  0  0  0  0  0
  -21.6340   -7.1460   21.2110 O   0  0  0  0  0  0  0  0  0  0  0  0
  -21.2490   -6.4570   22.3330 C   0  0  0  0  0  0  0  0  0  0  0  0
  -20.9060   -7.1170   23.5330 C   0  0  0  0  0  3  0  0  0  0  0  0
  -20.4530   -6.3730   24.6410 C   0  0  0  0  0  3  0  0  0  0  0  0
  -20.3330   -4.9740   24.5490 C   0  0  0  0  0  0  0  0  0  0  0  0
  -20.6680   -4.3140   23.3520 C   0  0  0  0  0  3  0  0  0  0  0  0
  -21.1210   -5.0550   22.2470 C   0  0  0  0  0  0  0  0  0  0  0  0
  -21.4230   -4.4170   21.0900 F   0  0  0  0  0  0  0  0  0  0  0  0
  -19.8900   -4.2600   25.6100 F   0  0  0  0  0  0  0  0  0  0  0  0
  -24.0500  -13.4210   20.9800 C   0  0  0  0  0  0  0  0  0  0  0  0
  -23.0340  -12.9180   21.6700 N   0  0  0  0  0  0  0  0  0  0  0  0
  -23.9440  -14.4860   20.3730 O   0  0  0  0  0  0  0  0  0  0  0  0
  -23.1260  -12.0550   22.1860 H   0  0  0  0  0  0  0  0  0  0  0  0
  -22.1470  -13.4010   21.6830 H   0  0  0  0  0  0  0  0  0  0  0  0
  -27.0670  -14.5130   20.7120 N   0  0  0  0  0  0  0  0  0  0  0  0
  -26.4400  -15.3080   20.6560 H   0  0  0  0  0  0  0  0  0  0  0  0
  -28.0410  -14.7660   20.6020 H   0  0  0  0  0  0  0  0  0  0  0  0
  -32.2440  -21.5980   14.1020 C   0  0  0  0  0  2  0  0  0  0  0  0
  -31.6830  -21.3280   15.4840 C   0  0  0  0  0  3  0  0  0  0  0  0
  -30.7910  -21.9250   14.3180 C   0  0  0  0  0  3  0  0  0  0  0  0
  -30.8190  -23.3340   13.8920 O   0  0  0  0  0  0  0  0  0  0  0  0
  -33.3070  -29.2090   17.1640 C   0  0  0  0  0  0  0  0  0  0  0  0
  -30.5160  -24.4020   14.7380 C   0  0  0  0  0  0  0  0  0  0  0  0
  -31.1280  -28.3620   17.9690 C   0  0  0  0  0  3  0  0  0  0  0  0
  -30.0090  -26.5860   16.5050 C   0  0  0  0  0  0  0  0  0  0  0  0
  -31.8600  -27.9640   15.5460 C   0  0  0  0  0  2  0  0  0  0  0  0
  -31.0390  -26.6820   15.5620 C   0  0  0  0  0  0  0  0  0  0  0  0
  -31.2870  -25.6010   14.6750 C   0  0  0  0  0  3  0  0  0  0  0  0
  -29.4760  -24.3430   15.6930 C   0  0  0  0  0  3  0  0  0  0  0  0
  -29.2230  -25.4210   16.5670 C   0  0  0  0  0  3  0  0  0  0  0  0
  -29.7990  -27.7680   17.4290 C   0  0  0  0  0  2  0  0  0  0  0  0
  -32.1610  -28.5180   16.8930 N   0  0  0  0  0  0  0  0  0  0  0  0
  -33.4930  -29.7390   18.2690 O   0  0  0  0  0  0  0  0  0  0  0  0
  -31.6120  -27.5010   19.1580 C   0  0  0  0  0  0  0  0  0  0  0  0
  -30.8440  -27.5120   20.2610 N   0  0  0  0  0  0  0  0  0  0  0  0
  -32.6390  -26.8240   19.0700 O   0  0  0  0  0  0  0  0  0  0  0  0
  -30.0230  -28.1000   20.2600 H   0  0  0  0  0  0  0  0  0  0  0  0
  -29.5860  -26.8550   23.5880 C   0  0  0  0  0  0  0  0  0  0  0  0
  -31.0830  -26.7420   21.4830 C   0  0  0  0  0  3  0  0  0  0  0  0
  -30.5820  -25.2870   21.3310 C   0  0  0  0  0  2  0  0  0  0  0  0
  -29.1480  -25.0870   21.8310 C   0  0  0  0  0  2  0  0  0  0  0  0
  -29.0370  -25.4650   23.3100 C   0  0  0  0  0  2  0  0  0  0  0  0
  -30.5330  -27.4610   22.7210 C   0  0  0  0  0  0  0  0  0  0  0  0
  -30.9850  -28.7680   23.0060 C   0  0  0  0  0  3  0  0  0  0  0  0
  -30.5080  -29.4640   24.1320 C   0  0  0  0  0  3  0  0  0  0  0  0
  -29.5800  -28.8550   24.9940 C   0  0  0  0  0  3  0  0  0  0  0  0
  -29.1250  -27.5520   24.7240 C   0  0  0  0  0  3  0  0  0  0  0  0
  -34.4270  -29.3880   16.0920 C   0  0  0  0  0  3  0  0  0  0  0  0
  -34.3580  -30.7730   15.6040 N   0  0  0  0  0  0  0  0  0  0  0  0
  -33.5800  -31.1860   14.5950 C   0  0  0  0  0  0  0  0  0  0  0  0
  -32.8870  -30.4160   13.9250 O   0  0  0  0  0  0  0  0  0  0  0  0
  -34.8560  -31.4670   16.1420 H   0  0  0  0  0  0  0  0  0  0  0  0
  -32.3300  -33.3460   14.9180 C   0  0  0  0  0  1  0  0  0  0  0  0
  -33.5670  -32.6950   14.2780 C   0  0  0  0  0  3  0  0  0  0  0  0
  -34.7180  -32.3780   12.1330 C   0  0  0  0  0  1  0  0  0  0  0  0
  -33.5920  -32.9930   12.8300 N   0  0  0  0  0  0  0  0  0  0  0  0
  -33.6270  -33.9960   12.6680 H   0  0  0  0  0  0  0  0  0  0  0  0
  -35.8710  -29.0650   16.6430 C   0  0  1  0  0  0  0  0  0  0  0  0
  -36.2630  -29.8930   17.8890 C   0  0  0  0  0  1  0  0  0  0  0  0
  -35.9920  -27.5680   17.0140 C   0  0  0  0  0  1  0  0  0  0  0  0
  -36.9240  -29.3320   15.5410 C   0  0  0  0  0  1  0  0  0  0  0  0
  1  7  1  0
  2  7  1  0
  3  4  1  0
  3  2  1  0
  5  4  1  0
  5 32  1  0
  5  6  1  0
  7  6  1  0
  8  1  2  0
  9 18  1  0
 10 12  1  0
 10 25  1  0
 11 10  2  0
 12 19  1  0
 13 19  1  0
 13 15  1  0
 14 16  1  0
 15 20  1  0
 17 11  1  0
 17  9  2  0
 18 12  2  0
 19 14  1  0
 20 16  1  0
 20  1  1  0
 21 23  1  0
 22 24  1  0
 22 25  1  0
 24 26  1  0
 25 21  1  0
 26 28  1  0
 26 23  1  0
 27 26  1  0
 29 32  1  0
 29 30  2  0
 30 31  1  0
 31 34  1  0
 32 33  1  0
 33 31  2  0
 34 35  1  0
 35 36  2  0
 37 36  1  0
 38 37  2  0
 39 38  1  0
 39 34  2  0
 40 37  1  0
 40 41  1  0
 41 42  1  0
 42 43  2  0
 44 43  1  0
 44 48  1  0
 45 44  2  0
 46 41  2  0
 46 45  1  0
 47 46  1  0
 49 30  1  0
 49 50  1  0
 50 53  1  0
 50 52  1  0
 51 49  2  0
 54 29  1  0
 55 54  1  0
 56 54  1  0
 57 59  1  0
 57 58  1  0
 58 11  1  0
 59 60  1  0
 59 58  1  0
 60 62  1  0
 61 72  2  0
 62 68  1  0
 63 73  1  0
 64 69  1  0
 64 70  1  0
 65 66  1  0
 65 71  1  0
 66 64  2  0
 67 62  2  0
 67 66  1  0
 68 69  2  0
 70 63  1  0
 71 61  1  0
 71 63  1  0
 73 74  1  0
 75 73  2  0
 76 74  1  0
 77 86  1  0
 78 74  1  0
 78 82  1  0
 79 78  1  0
 79 80  1  0
 80 81  1  0
 81 77  1  0
 82 83  1  0
 82 77  2  0
 83 84  2  0
 84 85  1  0
 86 85  2  0
 87 97  1  0
 87 61  1  0
 88 87  1  0
 88 91  1  0
 89 88  1  0
 90 89  2  0
 93 89  1  0
 93 92  1  0
 94 95  1  0
 95 93  1  0
 96 95  1  0
 97 99  1  1
 97 98  1  0
100 97  1  0
M  ISO  4   1 100  20 100  59 101  60 101
M  END
>  <TORSDO>  (4) 
F 17

>  <SCORE>  (4) 
-8.651

>  <name>  (4) 
3

>  <ligand_id>  (4) 
3

>  <original_smiles>  (4) 
[H]c1nc(N2C([H])([H])C([H])([H])N(C(=O)N3C([H])([H])C([H])([H])C([H])([H])C([H])(n4nc(-c5c([H])c([H])c(Oc6c([H])c([H])c(F)c([H])c6F)c([H])c5[H])c(C(=O)N([H])[H])c4N([H])[H])C3([H])[H])C([H])([H])C2([H])[H])c(C2([H])C([H])([H])C([H])([H])[N+]([H])([H])C([H])([H])C2([H])[H])c(C2([H])C([H])([H])C2([H])Oc2c([H])c([H])c3c(c2[H])C([H])([H])N(C(=O)C([H])(N([H])C(=O)C([H])(N([H])C([H])([H])[H])C([H])([H])[H])C(C([H])([H])[H])(C([H])([H])[H])C([H])([H])[H])C([H])(C(=O)N([H])C2([H])c4c([H])c([H])c([H])c([H])c4C([H])([H])C([H])([H])C2([H])[H])C3([H])[H])n1

>  <smiles>  (4) 
[H]c1nc(N2C([H])([H])C([H])([H])N(C(=O)N3C([H])([H])C([H])([H])C([H])([H])C([H])(n4nc(-c5c([H])c([H])c(Oc6c([H])c([H])c(F)c([H])c6F)c([H])c5[H])c(C(=O)N([H])[H])c4N([H])[H])C3([H])[H])C([H])([H])C2([H])[H])c(C2([H])C([H])([H])C([H])([H])[N+]([H])([H])C([H])([H])C2([H])[H])c(C2([H])C([H])([H])C2([H])Oc2c([H])c([H])c3c(c2[H])C([H])([H])N(C(=O)C([H])(N([H])C(=O)C([H])(N([H])C([H])([H])[H])C([H])([H])[H])C(C([H])([H])[H])(C([H])([H])[H])C([H])([H])[H])C([H])(C(=O)N([H])C2([H])c4c([H])c([H])c([H])c([H])c4C([H])([H])C([H])([H])C2([H])[H])C3([H])[H])n1

$$$$
4:0:0
     RDKit          3D

 92101  0  0  1  0  0  0  0  0999 V2000
  -29.1630  -21.8780   21.2830 C   0  0  0  0  0  2  0  0  0  0  0  0
  -29.0900  -20.6760   20.2890 C   0  0  0  0  0  3  0  0  0  0  0  0
  -29.5240  -21.7660   19.2610 C   0  0  0  0  0  3  0  0  0  0  0  0
  -28.9460  -21.7950   17.8510 C   0  0  0  0  0  1  0  0  0  0  0  0
  -28.8220  -22.7220   20.1330 N   0  0  0  0  0  0  0  0  0  0  0  0
  -30.5520  -17.6600   22.0300 C   0  0  0  0  0  2  0  0  0  0  0  0
  -30.2920  -19.1860   21.9380 C   0  0  0  0  0  2  0  0  0  0  0  0
  -29.7400  -18.2250   19.8590 C   0  0  0  0  0  2  0  0  0  0  0  0
  -30.5920  -17.1370   20.5880 C   0  0  0  0  0  3  0  0  0  0  0  0
  -30.0630  -19.5360   20.5130 N   0  0  1  0  0  4  0  0  0  0  0  0
  -30.9590  -19.8280   20.1530 H   0  0  0  0  0  0  0  0  0  0  0  0
  -30.8850  -14.6350   20.0320 C   0  0  0  0  0  0  0  0  0  0  0  0
  -30.5900  -12.4140   18.9680 C   0  0  0  0  0  2  0  0  0  0  0  0
  -29.6070  -12.5500   17.7850 C   0  0  0  0  0  2  0  0  0  0  0  0
  -28.1500  -12.4070   18.2660 C   0  0  0  0  0  2  0  0  0  0  0  0
  -27.8400  -13.2820   19.5090 C   0  0  0  0  0  3  0  0  0  0  0  0
  -28.9340  -13.1270   20.5900 C   0  0  0  0  0  2  0  0  0  0  0  0
  -30.2270  -13.4390   19.9640 N   0  0  0  0  0  0  0  0  0  0  0  0
  -32.0240  -14.7790   19.5840 O   0  0  0  0  0  0  0  0  0  0  0  0
  -30.1610  -15.7060   20.4600 N   0  0  0  0  0  0  0  0  0  0  0  0
  -29.2210  -15.4900   20.7560 H   0  0  0  0  0  0  0  0  0  0  0  0
  -25.4740  -13.8970   20.3070 C   0  0  0  0  0  0  0  0  0  0  0  0
  -24.4160  -13.1310   20.7130 C   0  0  0  0  0  0  0  0  0  0  0  0
  -24.8680  -11.7770   20.6650 C   0  0  0  0  0  0  0  0  0  0  0  0
  -26.5060  -13.0110   20.0390 N   0  0  0  0  0  0  0  0  0  0  0  0
  -26.1470  -11.7300   20.3140 N   0  0  0  0  0  0  0  0  0  0  0  0
  -24.1390  -10.5190   20.8790 C   0  0  0  0  0  0  0  0  0  0  0  0
  -24.5500   -9.5850   21.8540 C   0  0  0  0  0  3  0  0  0  0  0  0
  -23.8230   -8.3910   22.0530 C   0  0  0  0  0  3  0  0  0  0  0  0
  -22.6710   -8.1240   21.2760 C   0  0  0  0  0  0  0  0  0  0  0  0
  -22.2800   -9.0470   20.2900 C   0  0  0  0  0  3  0  0  0  0  0  0
  -23.0080  -10.2320   20.0890 C   0  0  0  0  0  3  0  0  0  0  0  0
  -21.9170   -6.9800   21.3830 O   0  0  0  0  0  0  0  0  0  0  0  0
  -21.7870   -6.3120   22.5750 C   0  0  0  0  0  0  0  0  0  0  0  0
  -21.2290   -6.9280   23.7160 C   0  0  0  0  0  3  0  0  0  0  0  0
  -21.0490   -6.1850   24.9000 C   0  0  0  0  0  3  0  0  0  0  0  0
  -21.4150   -4.8260   24.9420 C   0  0  0  0  0  0  0  0  0  0  0  0
  -21.9640   -4.2100   23.8050 C   0  0  0  0  0  3  0  0  0  0  0  0
  -22.1470   -4.9500   22.6240 C   0  0  0  0  0  0  0  0  0  0  0  0
  -22.6570   -4.3460   21.5240 F   0  0  0  0  0  0  0  0  0  0  0  0
  -21.2340   -4.1090   26.0760 F   0  0  0  0  0  0  0  0  0  0  0  0
  -23.0320  -13.6170   21.0300 C   0  0  0  0  0  0  0  0  0  0  0  0
  -22.3250  -12.9210   21.9140 N   0  0  0  0  0  0  0  0  0  0  0  0
  -22.5860  -14.6500   20.5320 O   0  0  0  0  0  0  0  0  0  0  0  0
  -22.6970  -12.0840   22.3390 H   0  0  0  0  0  0  0  0  0  0  0  0
  -21.3970  -13.2310   22.1710 H   0  0  0  0  0  0  0  0  0  0  0  0
  -25.6400  -15.2670   20.1210 N   0  0  0  0  0  0  0  0  0  0  0  0
  -24.8720  -15.9190   20.2430 H   0  0  0  0  0  0  0  0  0  0  0  0
  -26.4620  -15.6970   19.7190 H   0  0  0  0  0  0  0  0  0  0  0  0
  -29.2760  -24.1430   20.1290 C   0  0  0  0  0  2  0  0  0  0  0  0
  -28.1510  -25.1650   20.5430 C   0  0  0  0  0  2  0  0  0  0  0  0
  -28.3760  -26.5940   20.2760 O   0  0  0  0  0  0  0  0  0  0  0  0
  -24.6110  -31.9560   23.2420 C   0  0  0  0  0  0  0  0  0  0  0  0
  -27.2430  -27.4100   20.2350 C   0  0  0  0  0  0  0  0  0  0  0  0
  -23.4080  -30.5320   21.6210 C   0  0  0  0  0  3  0  0  0  0  0  0
  -24.8640  -28.9790   20.2120 C   0  0  0  0  0  0  0  0  0  0  0  0
  -25.9420  -30.8730   21.4250 C   0  0  0  0  0  2  0  0  0  0  0  0
  -26.0290  -29.4890   20.7990 C   0  0  0  0  0  0  0  0  0  0  0  0
  -27.2220  -28.7150   20.8040 C   0  0  0  0  0  3  0  0  0  0  0  0
  -26.0620  -26.9510   19.6070 C   0  0  0  0  0  3  0  0  0  0  0  0
  -24.8810  -27.7130   19.6070 C   0  0  0  0  0  3  0  0  0  0  0  0
  -23.6210  -29.8410   20.2490 C   0  0  0  0  0  2  0  0  0  0  0  0
  -24.6730  -31.1380   22.1530 N   0  0  0  0  0  0  0  0  0  0  0  0
  -23.5280  -32.2340   23.7770 O   0  0  0  0  0  0  0  0  0  0  0  0
  -22.7570  -29.5210   22.5950 C   0  0  0  0  0  0  0  0  0  0  0  0
  -21.4320  -29.3320   22.4680 N   0  0  0  0  0  0  0  0  0  0  0  0
  -23.4410  -28.9110   23.4200 O   0  0  0  0  0  0  0  0  0  0  0  0
  -20.9410  -29.8770   21.7730 H   0  0  0  0  0  0  0  0  0  0  0  0
  -18.0640  -28.1140   22.9700 C   0  0  0  0  0  0  0  0  0  0  0  0
  -20.6180  -28.4020   23.2520 C   0  0  0  0  0  3  0  0  0  0  0  0
  -20.7370  -26.9610   22.7050 C   0  0  0  0  0  2  0  0  0  0  0  0
  -19.6450  -26.6080   21.6900 C   0  0  0  0  0  2  0  0  0  0  0  0
  -18.2580  -26.7540   22.3210 C   0  0  0  0  0  2  0  0  0  0  0  0
  -19.1730  -28.8940   23.3920 C   0  0  0  0  0  0  0  0  0  0  0  0
  -18.9380  -30.1670   23.9560 C   0  0  0  0  0  3  0  0  0  0  0  0
  -17.6290  -30.6600   24.1040 C   0  0  0  0  0  3  0  0  0  0  0  0
  -16.5340  -29.8760   23.6990 C   0  0  0  0  0  3  0  0  0  0  0  0
  -16.7530  -28.6060   23.1370 C   0  0  0  0  0  3  0  0  0  0  0  0
  -25.8940  -32.6010   23.8520 C   0  0  0  0  0  3  0  0  0  0  0  0
  -26.4210  -31.8430   25.1310 C   0  0  1  0  0  0  0  0  0  0  0  0
  -25.3320  -31.5880   26.1990 C   0  0  0  0  0  1  0  0  0  0  0  0
  -27.0290  -30.4730   24.7450 C   0  0  0  0  0  1  0  0  0  0  0  0
  -27.5580  -32.6580   25.7920 C   0  0  0  0  0  1  0  0  0  0  0  0
  -25.5790  -33.9990   24.1730 N   0  0  0  0  0  0  0  0  0  0  0  0
  -25.9140  -35.0490   23.4100 C   0  0  0  0  0  0  0  0  0  0  0  0
  -26.5930  -34.9420   22.3850 O   0  0  0  0  0  0  0  0  0  0  0  0
  -24.9810  -34.1560   24.9700 H   0  0  0  0  0  0  0  0  0  0  0  0
  -24.1990  -36.8450   23.0120 C   0  0  0  0  0  1  0  0  0  0  0  0
  -25.4180  -36.4380   23.8560 C   0  0  0  0  0  3  0  0  0  0  0  0
  -27.5310  -37.3190   24.7420 C   0  0  0  0  0  1  0  0  0  0  0  0
  -26.4550  -37.4890   23.7700 N   0  0  0  0  0  0  0  0  0  0  0  0
  -26.0460  -38.4100   23.9050 H   0  0  0  0  0  0  0  0  0  0  0  0
  2 10  1  0
  2  1  1  0
  3  4  1  0
  3  5  1  0
  3  2  1  0
  5  1  1  0
  7  6  1  0
  8 10  1  0
  8  9  1  0
  9 20  1  0
  9  6  1  0
 10 11  1  6
 10  7  1  0
 12 20  1  0
 13 18  1  0
 14 15  1  0
 14 13  1  0
 16 15  1  0
 16 25  1  0
 16 17  1  0
 18 12  1  0
 18 17  1  0
 19 12  2  0
 20 21  1  0
 22 23  2  0
 23 42  1  0
 24 23  1  0
 24 27  1  0
 25 22  1  0
 25 26  1  0
 26 24  2  0
 27 28  1  0
 28 29  2  0
 30 33  1  0
 30 29  1  0
 31 30  2  0
 32 31  1  0
 32 27  2  0
 33 34  1  0
 34 39  2  0
 34 35  1  0
 35 36  2  0
 36 37  1  0
 37 41  1  0
 38 37  2  0
 39 38  1  0
 40 39  1  0
 42 43  1  0
 43 46  1  0
 43 45  1  0
 44 42  2  0
 47 48  1  0
 47 22  1  0
 49 47  1  0
 50  5  1  0
 50 51  1  0
 52 51  1  0
 53 64  2  0
 54 52  1  0
 54 59  1  0
 55 63  1  0
 55 65  1  0
 56 62  1  0
 56 58  1  0
 57 63  1  0
 58 59  2  0
 58 57  1  0
 60 54  2  0
 61 60  1  0
 61 56  2  0
 62 55  1  0
 63 53  1  0
 65 67  2  0
 66 65  1  0
 68 66  1  0
 69 78  2  0
 69 74  1  0
 70 66  1  0
 70 74  1  0
 71 70  1  0
 72 73  1  0
 72 71  1  0
 73 69  1  0
 74 75  2  0
 75 76  1  0
 77 76  2  0
 78 77  1  0
 79 53  1  0
 79 84  1  0
 79 80  1  0
 80 83  1  1
 80 81  1  0
 82 80  1  0
 84 87  1  0
 85 89  1  0
 85 84  1  0
 86 85  2  0
 89 88  1  0
 91 89  1  0
 91 92  1  0
 91 90  1  0
M  ISO  4  12 100  20 100  51 101  52 101
M  END
>  <TORSDO>  (5) 
F 19

>  <SCORE>  (5) 
-13.815

>  <name>  (5) 
4

>  <ligand_id>  (5) 
4

>  <original_smiles>  (5) 
[H]c1c([H])c([H])c2c(c1[H])C([H])([H])C([H])([H])C([H])([H])C2([H])N([H])C(=O)C1([H])N(C(=O)C([H])(N([H])C(=O)C([H])(N([H])C([H])([H])[H])C([H])([H])[H])C(C([H])([H])[H])(C([H])([H])[H])C([H])([H])[H])C([H])([H])c2c([H])c(OC([H])([H])C([H])([H])N3C([H])([H])C([H])([N+]4([H])C([H])([H])C([H])([H])C([H])(N([H])C(=O)N5C([H])([H])C([H])([H])C([H])([H])C([H])(n6nc(-c7c([H])c([H])c(Oc8c([H])c([H])c(F)c([H])c8F)c([H])c7[H])c(C(=O)N([H])[H])c6N([H])[H])C5([H])[H])C4([H])[H])C3([H])C([H])([H])[H])c([H])c([H])c2C1([H])[H]

>  <smiles>  (5) 
[H]c1c([H])c([H])c2c(c1[H])C([H])([H])C([H])([H])C([H])([H])C2([H])N([H])C(=O)C1([H])N(C(=O)C([H])(N([H])C(=O)C([H])(N([H])C([H])([H])[H])C([H])([H])[H])C(C([H])([H])[H])(C([H])([H])[H])C([H])([H])[H])C([H])([H])c2c([H])c(OC([H])([H])C([H])([H])N3C([H])([H])C([H])([N+]4([H])C([H])([H])C([H])([H])C([H])(N([H])C(=O)N5C([H])([H])C([H])([H])C([H])([H])C([H])(n6nc(-c7c([H])c([H])c(Oc8c([H])c([H])c(F)c([H])c8F)c([H])c7[H])c(C(=O)N([H])[H])c6N([H])[H])C5([H])[H])C4([H])[H])C3([H])C([H])([H])[H])c([H])c([H])c2C1([H])[H]

$$$$
5:0:0
     RDKit          3D

103112  0  0  1  0  0  0  0  0999 V2000
  -25.5450  -19.1390   21.7970 C   0  0  0  0  0  3  0  0  0  0  0  0
  -25.6710  -20.5350   21.8480 C   0  0  0  0  0  0  0  0  0  0  0  0
  -24.6940  -18.5290   22.7270 C   0  0  0  0  0  0  0  0  0  0  0  0
  -24.2010  -20.5900   23.5980 C   0  0  0  0  0  0  0  0  0  0  0  0
  -23.3750  -21.4350   24.5360 C   0  0  0  0  0  1  0  0  0  0  0  0
  -25.0140  -21.2450   22.7770 N   0  0  0  0  0  0  0  0  0  0  0  0
  -24.0220  -19.2670   23.6390 N   0  0  0  0  0  0  0  0  0  0  0  0
  -28.0150  -21.5850   20.9490 C   0  0  0  0  0  2  0  0  0  0  0  0
  -26.4680  -22.8200   20.6040 C   0  0  0  0  0  2  0  0  0  0  0  0
  -26.5120  -21.2990   20.8400 C   0  0  0  0  0  3  0  0  0  0  0  0
  -27.7400  -22.5720   19.8940 N   0  0  1  0  0  4  0  0  0  0  0  0
  -27.5410  -22.0620   19.0440 H   0  0  0  0  0  0  0  0  0  0  0  0
  -28.7020  -23.6890   19.6190 C   0  0  0  0  0  2  0  0  0  0  0  0
  -28.0540  -24.7140   18.6450 C   0  0  0  0  0  2  0  0  0  0  0  0
  -28.4810  -26.1180   18.6090 O   0  0  0  0  0  0  0  0  0  0  0  0
  -24.9130  -30.7240   22.6180 C   0  0  0  0  0  0  0  0  0  0  0  0
  -27.4120  -26.9990   18.6300 C   0  0  0  0  0  0  0  0  0  0  0  0
  -23.6480  -29.6660   20.7800 C   0  0  0  0  0  3  0  0  0  0  0  0
  -25.0440  -28.5040   18.9950 C   0  0  0  0  0  0  0  0  0  0  0  0
  -26.1650  -30.1010   20.5510 C   0  0  0  0  0  2  0  0  0  0  0  0
  -26.2300  -28.8950   19.6360 C   0  0  0  0  0  0  0  0  0  0  0  0
  -27.4210  -28.1460   19.4590 C   0  0  0  0  0  3  0  0  0  0  0  0
  -26.2300  -26.6950   17.9130 C   0  0  0  0  0  3  0  0  0  0  0  0
  -25.0410  -27.4110   18.1230 C   0  0  0  0  0  3  0  0  0  0  0  0
  -23.7960  -29.3040   19.2800 C   0  0  0  0  0  2  0  0  0  0  0  0
  -24.9300  -30.1660   21.3750 N   0  0  0  0  0  0  0  0  0  0  0  0
  -23.8560  -30.8590   23.2500 O   0  0  0  0  0  0  0  0  0  0  0  0
  -23.0570  -28.4500   21.5330 C   0  0  0  0  0  0  0  0  0  0  0  0
  -21.7270  -28.2740   21.4400 N   0  0  0  0  0  0  0  0  0  0  0  0
  -23.7870  -27.6770   22.1590 O   0  0  0  0  0  0  0  0  0  0  0  0
  -21.1970  -28.9560   20.9180 H   0  0  0  0  0  0  0  0  0  0  0  0
  -18.3940  -26.9450   21.8490 C   0  0  0  0  0  0  0  0  0  0  0  0
  -20.9590  -27.1820   22.0390 C   0  0  0  0  0  3  0  0  0  0  0  0
  -21.0390  -25.9030   21.1740 C   0  0  0  0  0  2  0  0  0  0  0  0
  -19.8860  -25.7810   20.1720 C   0  0  0  0  0  2  0  0  0  0  0  0
  -18.5390  -25.7690   20.9000 C   0  0  0  0  0  2  0  0  0  0  0  0
  -19.5280  -27.6190   22.3720 C   0  0  0  0  0  0  0  0  0  0  0  0
  -19.3310  -28.7300   23.2210 C   0  0  0  0  0  3  0  0  0  0  0  0
  -18.0320  -29.1630   23.5520 C   0  0  0  0  0  3  0  0  0  0  0  0
  -16.9130  -28.4800   23.0430 C   0  0  0  0  0  3  0  0  0  0  0  0
  -17.0940  -27.3730   22.1960 C   0  0  0  0  0  3  0  0  0  0  0  0
  -26.2190  -31.2420   23.2980 C   0  0  0  0  0  3  0  0  0  0  0  0
  -25.9050  -32.5240   23.9410 N   0  0  0  0  0  0  0  0  0  0  0  0
  -26.1960  -33.7240   23.4240 C   0  0  0  0  0  0  0  0  0  0  0  0
  -26.8310  -33.8650   22.3730 O   0  0  0  0  0  0  0  0  0  0  0  0
  -25.3420  -32.4820   24.7780 H   0  0  0  0  0  0  0  0  0  0  0  0
  -24.4410  -35.5220   23.5120 C   0  0  0  0  0  1  0  0  0  0  0  0
  -25.7050  -34.9670   24.1890 C   0  0  0  0  0  3  0  0  0  0  0  0
  -27.8410  -35.6790   25.1680 C   0  0  0  0  0  1  0  0  0  0  0  0
  -26.7260  -36.0320   24.2940 N   0  0  0  0  0  0  0  0  0  0  0  0
  -26.3140  -36.8960   24.6380 H   0  0  0  0  0  0  0  0  0  0  0  0
  -26.8200  -30.2260   24.3450 C   0  0  1  0  0  0  0  0  0  0  0  0
  -25.7950  -29.7390   25.3960 C   0  0  0  0  0  1  0  0  0  0  0  0
  -27.3960  -28.9800   23.6320 C   0  0  0  0  0  1  0  0  0  0  0  0
  -28.0040  -30.8860   25.0930 C   0  0  0  0  0  1  0  0  0  0  0  0
  -24.5310  -17.0160   22.7600 C   0  0  0  0  0  2  0  0  0  0  0  0
  -25.1100  -16.4650   24.0000 N   0  0  0  0  0  4  0  0  0  0  0  0
  -24.5700  -16.9440   24.6980 H   0  0  0  0  0  0  0  0  0  0  0  0
  -26.0660  -16.7700   24.1050 H   0  0  0  0  0  0  0  0  0  0  0  0
  -24.9580  -14.9950   24.2030 C   0  0  0  0  0  2  0  0  0  0  0  0
  -25.8070  -14.0880   23.2530 C   0  0  0  0  0  3  0  0  0  0  0  0
  -27.2760  -13.6400   23.6900 C   0  0  0  0  0  3  0  0  0  0  0  0
  -28.5310  -13.9190   19.5800 C   0  0  2  0  0  0  0  0  0  0  0  0
  -29.7630  -13.2660   18.7620 C   0  0  0  0  0  2  0  0  0  0  0  0
  -28.5050  -12.5030   17.6400 C   0  0  0  0  0  3  0  0  0  0  0  0
  -26.8250  -12.6470   17.9790 C   0  0  0  0  0  3  0  0  0  0  0  0
  -26.1650  -13.5820   19.2650 C   0  0  0  0  0  2  0  0  0  0  0  0
  -27.3090  -14.5140   20.4090 C   0  0  0  0  0  1  0  0  0  0  0  0
  -29.1260  -14.3820   20.0740 N   0  0  0  0  0  2  0  0  0  0  0  0
  -28.3440  -14.8740   18.5270 O   0  0  0  0  0  1  0  0  0  0  0  0
  -27.0710  -11.4630   22.1410 C   0  0  0  0  0  2  0  0  0  0  0  0
  -27.7070  -11.3820   20.7170 C   0  0  0  0  0  2  0  0  0  0  0  0
  -29.0770  -12.6320   21.9310 C   0  0  0  0  0  2  0  0  0  0  0  0
  -27.9580  -12.3840   22.9720 C   0  0  0  0  0  3  0  0  0  0  0  0
  -28.4690  -12.6130   20.5250 N   0  0  0  0  0  0  0  0  0  0  0  0
  -23.8480  -13.5730   20.3780 C   0  0  0  0  0  0  0  0  0  0  0  0
  -22.9810  -12.5820   20.7630 C   0  0  0  0  0  0  0  0  0  0  0  0
  -23.6090  -11.3390   20.4700 C   0  0  0  0  0  0  0  0  0  0  0  0
  -24.9570  -12.9430   19.8540 N   0  0  0  0  0  0  0  0  0  0  0  0
  -24.7610  -11.5900   19.8710 N   0  0  0  0  0  0  0  0  0  0  0  0
  -23.1410   -9.9540   20.6190 C   0  0  0  0  0  0  0  0  0  0  0  0
  -23.8190   -9.0120   21.4230 C   0  0  0  0  0  3  0  0  0  0  0  0
  -23.3110   -7.7070   21.6120 C   0  0  0  0  0  3  0  0  0  0  0  0
  -22.1180   -7.3170   20.9490 C   0  0  0  0  0  0  0  0  0  0  0  0
  -21.4650   -8.2500   20.1190 C   0  0  0  0  0  3  0  0  0  0  0  0
  -21.9670   -9.5530   19.9560 C   0  0  0  0  0  3  0  0  0  0  0  0
  -21.5500   -6.0650   21.0310 O   0  0  0  0  0  0  0  0  0  0  0  0
  -21.6890   -5.2780   22.1450 C   0  0  0  0  0  0  0  0  0  0  0  0
  -21.2040   -5.6540   23.4240 C   0  0  0  0  0  3  0  0  0  0  0  0
  -21.2970   -4.7560   24.5040 C   0  0  0  0  0  3  0  0  0  0  0  0
  -21.8720   -3.4810   24.3140 C   0  0  0  0  0  0  0  0  0  0  0  0
  -22.3520   -3.1040   23.0490 C   0  0  0  0  0  3  0  0  0  0  0  0
  -22.2490   -3.9980   21.9640 C   0  0  0  0  0  0  0  0  0  0  0  0
  -22.6790   -3.6140   20.7420 F   0  0  0  0  0  0  0  0  0  0  0  0
  -21.9540   -2.6130   25.3510 F   0  0  0  0  0  0  0  0  0  0  0  0
  -21.5800  -12.7810   21.2540 C   0  0  0  0  0  0  0  0  0  0  0  0
  -21.0780  -11.8830   22.0950 N   0  0  0  0  0  0  0  0  0  0  0  0
  -20.9240  -13.7670   20.9300 O   0  0  0  0  0  0  0  0  0  0  0  0
  -21.6250  -11.1060   22.4280 H   0  0  0  0  0  0  0  0  0  0  0  0
  -20.1070  -11.9710   22.3680 H   0  0  0  0  0  0  0  0  0  0  0  0
  -23.7870  -14.9640   20.3870 N   0  0  0  0  0  0  0  0  0  0  0  0
  -22.8960  -15.4100   20.5430 H   0  0  0  0  0  0  0  0  0  0  0  0
  -24.4060  -15.5300   19.8190 H   0  0  0  0  0  0  0  0  0  0  0  0
  1  2  2  0
  1  3  1  0
  2  6  1  0
  3 56  1  0
  3  7  2  0
  4  7  1  0
  4  5  1  0
  6  4  2  0
  9 10  1  0
 10  8  1  0
 10  2  1  0
 11  9  1  0
 11  8  1  0
 11 12  1  6
 13 11  1  0
 14 13  1  0
 15 17  1  0
 15 14  1  0
 16 27  2  0
 17 22  1  0
 18 26  1  0
 18 28  1  0
 19 25  1  0
 19 21  1  0
 20 26  1  0
 21 20  1  0
 22 21  2  0
 23 24  1  0
 23 17  2  0
 24 19  2  0
 25 18  1  0
 26 16  1  0
 28 30  2  0
 29 28  1  0
 31 29  1  0
 32 41  2  0
 32 37  1  0
 33 29  1  0
 33 37  1  0
 34 33  1  0
 35 36  1  0
 35 34  1  0
 36 32  1  0
 37 38  2  0
 38 39  1  0
 40 39  2  0
 41 40  1  0
 42 16  1  0
 42 43  1  0
 42 52  1  0
 43 46  1  0
 44 43  1  0
 44 48  1  0
 45 44  2  0
 48 47  1  0
 48 50  1  0
 50 51  1  0
 50 49  1  0
 52 55  1  1
 52 53  1  0
 54 52  1  0
 56 57  1  0
 57 59  1  0
 57 60  1  0
 57 58  1  0
 61 62  2  0
 61 60  1  0
 63 69  1  0
 63 68  1  1
 63 75  1  0
 64 69  1  0
 65 66  2  0
 65 64  1  0
 66 67  1  0
 67 79  1  0
 70 63  1  0
 71 74  1  0
 72 71  1  0
 73 74  1  0
 74 62  1  0
 75 72  1  0
 75 73  1  0
 76101  1  0
 76 77  2  0
 77 96  1  0
 78 81  1  0
 78 77  1  0
 79 80  1  0
 79 76  1  0
 80 78  2  0
 81 82  1  0
 82 83  2  0
 84 87  1  0
 84 83  1  0
 85 84  2  0
 86 85  1  0
 86 81  2  0
 87 88  1  0
 88 89  1  0
 89 90  2  0
 91 90  1  0
 91 95  1  0
 92 91  2  0
 93 88  2  0
 93 92  1  0
 94 93  1  0
 96 97  1  0
 97100  1  0
 97 99  1  0
 98 96  2  0
101102  1  0
103101  1  0
M  ISO  4  14 101  15 101  63 100  75 100
M  END
>  <TORSDO>  (6) 
F 24

>  <SCORE>  (6) 
62.067

>  <name>  (6) 
5

>  <ligand_id>  (6) 
5

>  <original_smiles>  (6) 
[H]c1c(C2([H])C([H])([H])[N+]([H])(C([H])([H])C([H])([H])Oc3c([H])c([H])c4c(c3[H])C([H])([H])N(C(=O)C([H])(N([H])C(=O)C([H])(N([H])C([H])([H])[H])C([H])([H])[H])C(C([H])([H])[H])(C([H])([H])[H])C([H])([H])[H])C([H])(C(=O)N([H])C3([H])c5c([H])c([H])c([H])c([H])c5C([H])([H])C([H])([H])C3([H])[H])C4([H])[H])C2([H])[H])nc(C([H])([H])[H])nc1C([H])([H])[N+]([H])([H])C([H])([H])C([H])([H])C([H])([H])C1([H])C([H])([H])N(C(=O)N2C([H])([H])C([H])([H])C([H])([H])C([H])(n3nc(-c4c([H])c([H])c(Oc5c([H])c([H])c(F)c([H])c5F)c([H])c4[H])c(C(=O)N([H])[H])c3N([H])[H])C2([H])[H])C([H])([H])C1([H])[H]

>  <smiles>  (6) 
[H]c1c(C2([H])C([H])([H])[N+]([H])(C([H])([H])C([H])([H])Oc3c([H])c([H])c4c(c3[H])C([H])([H])N(C(=O)C([H])(N([H])C(=O)C([H])(N([H])C([H])([H])[H])C([H])([H])[H])C(C([H])([H])[H])(C([H])([H])[H])C([H])([H])[H])C([H])(C(=O)N([H])C3([H])c5c([H])c([H])c([H])c([H])c5C([H])([H])C([H])([H])C3([H])[H])C4([H])[H])C2([H])[H])nc(C([H])([H])[H])nc1C([H])([H])[N+]([H])([H])C([H])([H])C([H])([H])C([H])([H])C1([H])C([H])([H])N(C(=O)N2C([H])([H])C([H])([H])C([H])([H])C([H])(n3nc(-c4c([H])c([H])c(Oc5c([H])c([H])c(F)c([H])c5F)c([H])c4[H])c(C(=O)N([H])[H])c3N([H])[H])C2([H])[H])C([H])([H])C1([H])[H]

$$$$
6:0:0
     RDKit          3D

 94 91  0  0  1  0  0  0  0  0999 V2000
  -26.5360  -12.7400   22.4760 C   0  0  0  0  0  2  0  0  0  0  0  0
  -24.1470  -10.9500   20.4920 C   0  0  0  0  0  2  0  0  0  0  0  0
  -25.3630  -13.8980   21.9230 C   0  0  0  0  0  2  0  0  0  0  0  0
  -23.9800  -12.7970   21.4740 C   0  0  0  0  0  2  0  0  0  0  0  0
  -26.9970  -11.1090   21.8970 C   0  0  0  0  0  3  0  0  0  0  0  0
  -25.7960  -10.1110   20.8620 N   0  0  0  0  0  0  0  0  0  0  0  0
  -22.4620  -13.5460   21.9630 Cl  0  0  0  0  0  0  0  0  0  0  0  0
  -31.3850  -13.0880   21.6000 C   0  0  0  0  0  3  0  0  0  0  0  0
  -31.5920  -10.2520   20.9130 C   0  0  0  0  0 15  0  0  0  0  0  0
  -30.8390   -9.8280   19.0160 C   0  0  0  0  0 15  0  0  0  0  0  0
  -29.3270  -10.9430   18.1850 C   0  0  0  0  0 15  0  0  0  0  0  0
  -28.5240  -12.5800   19.1140 C   0  0  0  0  0  2  0  0  0  0  0  0
  -29.0600  -13.4100   20.7990 C   0  0  0  0  0  1  0  0  0  0  0  0
  -30.6840  -12.1190   21.8330 N   0  0  0  0  0  2  0  0  0  0  0  0
  -32.3870  -13.3820   20.8860 O   0  0  0  0  0  0  0  0  0  0  0  0
  -29.1950  -10.6260   20.5230 C   0  0  0  0  0  1  0  0  0  0  0  0
  -30.6960  -12.0340   19.7030 C   0  0  0  0  0  1  0  0  0  0  0  0
  -28.7710  -11.0540   21.7310 C   0  0  0  0  0  2  0  0  0  0  0  0
  -30.5030  -12.0230   21.2530 N   0  0  0  0  0  2  0  0  0  0  0  0
  -26.2260  -13.4700   19.1150 C   0  0  0  0  0  3  0  0  0  0  0  0
  -25.1200  -12.7370   19.0930 C   0  0  0  0  0  3  0  0  0  0  0  0
  -25.8400  -11.8810   20.0300 C   0  0  0  0  0  2  0  0  0  0  0  0
  -27.2000  -12.5570   19.1560 N   0  0  0  0  0  0  0  0  0  0  0  0
  -26.6840  -11.4650   19.1080 N   0  0  0  0  0  2  0  0  0  0  0  0
  -24.7320  -10.3090   22.2570 C   0  0  1  0  0  0  0  0  0  0  0  0
  -24.9710   -8.8450   22.5990 C   0  0  0  0  0  2  0  0  0  0  0  0
  -24.2100   -7.6020   22.2910 C   0  0  0  0  0  3  0  0  0  0  0  0
  -22.9370   -7.5670   21.6520 C   0  0  0  0  0  0  0  0  0  0  0  0
  -22.4790   -8.8480   21.4710 C   0  0  0  0  0  2  0  0  0  0  0  0
  -23.2010   -9.8940   22.2350 C   0  0  0  0  0  2  0  0  0  0  0  0
  -22.0840   -6.4730   21.4750 O   0  0  0  0  0  0  0  0  0  0  0  0
  -21.6570   -5.7760   22.5970 C   0  0  0  0  0  0  0  0  0  0  0  0
  -21.1590   -6.4490   23.7400 C   0  0  0  0  0  3  0  0  0  0  0  0
  -20.8490   -5.7390   24.9180 C   0  0  0  0  0  3  0  0  0  0  0  0
  -21.0160   -4.3430   24.9640 C   0  0  0  0  0  0  0  0  0  0  0  0
  -21.4430   -3.6540   23.8150 C   0  0  0  0  0  3  0  0  0  0  0  0
  -21.7460   -4.3640   22.6350 C   0  0  0  0  0  0  0  0  0  0  0  0
  -22.1490   -3.6760   21.5400 F   0  0  0  0  0  0  0  0  0  0  0  0
  -20.7660   -3.6650   26.1110 F   0  0  0  0  0  0  0  0  0  0  0  0
  -23.6290  -13.2130   18.9670 C   0  0  0  0  0  0  0  0  0  0  0  0
  -22.5600  -12.3780   18.9530 N   0  0  0  0  0  0  0  0  0  0  0  0
  -23.3580  -14.3550   19.2080 O   0  0  0  0  0  0  0  0  0  0  0  0
  -22.6260  -11.4130   18.6820 H   0  0  0  0  0  0  0  0  0  0  0  0
  -21.6410  -12.7830   19.0590 H   0  0  0  0  0  0  0  0  0  0  0  0
  -26.5390  -14.7690   19.0070 N   0  0  0  0  0  0  0  0  0  0  0  0
  -25.8240  -15.2210   18.4420 H   0  0  0  0  0  0  0  0  0  0  0  0
  -27.4440  -14.8820   18.5660 H   0  0  0  0  0  0  0  0  0  0  0  0
  -25.8780  -16.0150   21.4420 C   0  0  0  0  0 15  0  0  0  0  0  0
  -26.2720  -17.6030   20.1630 N   0  0  0  0  0  2  0  0  0  0  0  0
  -25.3340  -17.7390   19.8270 H   0  0  0  0  0  0  0  0  0  0  0  0
  -26.7070  -17.0540   19.4360 H   0  0  0  0  0  0  0  0  0  0  0  0
  -27.0530  -19.4900   19.7880 C   0  0  0  0  0 15  0  0  0  0  0  0
  -26.9370  -21.6690   18.8730 C   0  0  0  0  0 15  0  0  0  0  0  0
  -27.5650  -23.6630   18.5230 O   0  0  0  0  0  1  0  0  0  0  0  0
  -25.3570  -30.5010   22.1530 C   0  0  0  0  0  0  0  0  0  0  0  0
  -27.1250  -25.3210   18.4910 C   0  0  0  0  0  0  0  0  0  0  0  0
  -24.0720  -29.3760   20.3980 C   0  0  0  0  0  3  0  0  0  0  0  0
  -25.3630  -27.9320   18.6200 C   0  0  0  0  0  0  0  0  0  0  0  0
  -26.6370  -29.3490   20.1770 C   0  0  0  0  0  2  0  0  0  0  0  0
  -26.5600  -27.9700   19.3300 C   0  0  0  0  0  0  0  0  0  0  0  0
  -27.4340  -26.7040   19.2260 C   0  0  0  0  0  3  0  0  0  0  0  0
  -26.1000  -25.7450   17.5940 C   0  0  0  0  0  3  0  0  0  0  0  0
  -25.2380  -26.8920   17.6850 C   0  0  0  0  0  3  0  0  0  0  0  0
  -24.2320  -28.9480   18.9010 C   0  0  0  0  0  2  0  0  0  0  0  0
  -25.3930  -29.7960   20.9600 N   0  0  0  0  0  0  0  0  0  0  0  0
  -24.2930  -30.7050   22.7680 O   0  0  0  0  0  0  0  0  0  0  0  0
  -23.4400  -28.2300   21.2360 C   0  0  0  0  0  0  0  0  0  0  0  0
  -22.1030  -28.0740   21.2090 N   0  0  0  0  0  0  0  0  0  0  0  0
  -24.1680  -27.4870   21.8990 O   0  0  0  0  0  0  0  0  0  0  0  0
  -21.5540  -28.7280   20.6680 H   0  0  0  0  0  0  0  0  0  0  0  0
  -18.8000  -26.6690   21.7860 C   0  0  0  0  0  0  0  0  0  0  0  0
  -21.3650  -26.9910   21.8750 C   0  0  0  0  0  3  0  0  0  0  0  0
  -21.4490  -25.6820   21.0570 C   0  0  0  0  0  2  0  0  0  0  0  0
  -20.2730  -25.4980   20.0930 C   0  0  0  0  0  2  0  0  0  0  0  0
  -18.9490  -25.4720   20.8630 C   0  0  0  0  0  2  0  0  0  0  0  0
  -19.9320  -27.3920   22.2490 C   0  0  0  0  0  0  0  0  0  0  0  0
  -19.7310  -28.5120   23.0850 C   0  0  0  0  0  3  0  0  0  0  0  0
  -18.4340  -28.9130   23.4550 C   0  0  0  0  0  3  0  0  0  0  0  0
  -17.3180  -28.1880   23.0010 C   0  0  0  0  0  3  0  0  0  0  0  0
  -17.5020  -27.0660   22.1730 C   0  0  0  0  0  3  0  0  0  0  0  0
  -26.6370  -31.1000   22.8110 C   0  0  0  0  0  3  0  0  0  0  0  0
  -27.4470  -30.0430   23.6640 C   0  0  1  0  0  0  0  0  0  0  0  0
  -26.5860  -29.2880   24.7030 C   0  0  0  0  0  1  0  0  0  0  0  0
  -28.1110  -28.9790   22.7660 C   0  0  0  0  0  1  0  0  0  0  0  0
  -28.6000  -30.7480   24.4160 C   0  0  0  0  0  1  0  0  0  0  0  0
  -26.2330  -32.2210   23.6940 N   0  0  0  0  0  0  0  0  0  0  0  0
  -26.4040  -33.5270   23.4400 C   0  0  0  0  0  0  0  0  0  0  0  0
  -26.9690  -33.9290   22.4200 O   0  0  0  0  0  0  0  0  0  0  0  0
  -25.7100  -31.9680   24.5190 H   0  0  0  0  0  0  0  0  0  0  0  0
  -24.5310  -35.1270   23.9950 C   0  0  0  0  0  1  0  0  0  0  0  0
  -25.8740  -34.5490   24.4730 C   0  0  0  0  0  3  0  0  0  0  0  0
  -28.0080  -35.2470   25.4740 C   0  0  0  0  0  1  0  0  0  0  0  0
  -26.8120  -35.6620   24.7450 N   0  0  0  0  0  0  0  0  0  0  0  0
  -26.3550  -36.3960   25.2790 H   0  0  0  0  0  0  0  0  0  0  0  0
  2  6  1  0
  3  1  1  0
  4  3  1  0
  4  7  1  0
  5 18  1  0
  5  1  1  0
  6  5  1  0
  6 25  1  0
  8 14  1  0
 12 23  1  0
 12 13  1  0
 15  8  2  0
 16 18  1  0
 17 19  1  0
 19 14  1  0
 20 45  1  0
 20 23  1  0
 21 40  1  0
 21 20  1  0
 21 22  1  0
 24 23  1  0
 24 22  1  0
 25  2  1  6
 25 26  1  0
 27 26  1  0
 28 27  2  0
 29 28  1  0
 29 30  1  0
 30 25  1  0
 31 28  1  0
 31 32  1  0
 32 37  2  0
 32 33  1  0
 33 34  2  0
 34 35  1  0
 35 39  1  0
 36 35  2  0
 37 36  1  0
 38 37  1  0
 40 42  2  0
 41 40  1  0
 41 44  1  0
 43 41  1  0
 46 45  1  0
 47 45  1  0
 50 49  1  0
 51 49  1  0
 55 66  2  0
 56 54  1  0
 56 61  1  0
 57 65  1  0
 57 67  1  0
 58 64  1  0
 58 60  1  0
 59 65  1  0
 60 59  1  0
 61 60  2  0
 62 63  1  0
 62 56  2  0
 63 58  2  0
 64 57  1  0
 65 55  1  0
 67 69  2  0
 68 67  1  0
 70 68  1  0
 71 80  2  0
 71 76  1  0
 72 68  1  0
 72 76  1  0
 73 72  1  0
 74 75  1  0
 74 73  1  0
 75 71  1  0
 76 77  2  0
 77 78  1  0
 79 78  2  0
 80 79  1  0
 81 55  1  0
 81 82  1  0
 81 86  1  0
 82 85  1  1
 82 83  1  0
 84 82  1  0
 86 89  1  0
 87 86  1  0
 87 91  1  0
 88 87  2  0
 91 90  1  0
 91 93  1  0
 93 94  1  0
 93 92  1  0
M  ISO  4   8 100  19 100  53 101  54 101
M  END
>  <TORSDO>  (7) 
F 20

>  <SCORE>  (7) 
0.445

>  <name>  (7) 
6

>  <ligand_id>  (7) 
6

>  <original_smiles>  (7) 
[H]c1nc(C2([H])N(C(=O)N3C([H])([H])C([H])([H])C([H])([H])C([H])(n4nc(-c5c([H])c([H])c(Oc6c([H])c([H])c(F)c([H])c6F)c([H])c5[H])c(C(=O)N([H])[H])c4N([H])[H])C3([H])[H])C([H])([H])C2([H])[H])c([H])c(C([H])([H])[N+]([H])([H])C([H])([H])C([H])([H])Oc2c([H])c([H])c3c(c2[H])C([H])([H])N(C(=O)C([H])(N([H])C(=O)C([H])(N([H])C([H])([H])[H])C([H])([H])[H])C(C([H])([H])[H])(C([H])([H])[H])C([H])([H])[H])C([H])(C(=O)N([H])C2([H])c4c([H])c([H])c([H])c([H])c4C([H])([H])C([H])([H])C2([H])[H])C3([H])[H])c1Cl

>  <smiles>  (7) 
[H]c1nc(C2([H])N(C(=O)N3C([H])([H])C([H])([H])C([H])([H])C([H])(n4nc(-c5c([H])c([H])c(Oc6c([H])c([H])c(F)c([H])c6F)c([H])c5[H])c(C(=O)N([H])[H])c4N([H])[H])C3([H])[H])C([H])([H])C2([H])[H])c([H])c(C([H])([H])[N+]([H])([H])C([H])([H])C([H])([H])Oc2c([H])c([H])c3c(c2[H])C([H])([H])N(C(=O)C([H])(N([H])C(=O)C([H])(N([H])C([H])([H])[H])C([H])([H])[H])C(C([H])([H])[H])(C([H])([H])[H])C([H])([H])[H])C([H])(C(=O)N([H])C2([H])c4c([H])c([H])c([H])c([H])c4C([H])([H])C([H])([H])C2([H])[H])C3([H])[H])c1Cl

$$$$
7:0:0
     RDKit          3D

 92102  0  0  1  0  0  0  0  0999 V2000
  -29.1190  -18.9340   18.9870 C   0  0  0  0  0  3  0  0  0  0  0  0
  -28.7980  -20.2220   18.4970 C   0  0  0  0  0  0  0  0  0  0  0  0
  -29.3190  -19.0580   20.3390 C   0  0  0  0  0  0  0  0  0  0  0  0
  -28.9040  -21.1380   19.4280 N   0  0  0  0  0  0  0  0  0  0  0  0
  -29.2080  -20.5100   20.5860 N   0  0  0  0  0  0  0  0  0  0  0  0
  -30.7590  -14.3550   20.7820 C   0  0  0  0  0  0  0  0  0  0  0  0
  -30.4850  -12.1320   19.6530 C   0  0  0  0  0  2  0  0  0  0  0  0
  -29.5700  -12.2700   18.4180 C   0  0  0  0  0  2  0  0  0  0  0  0
  -28.0990  -12.0790   18.8240 C   0  0  0  0  0  2  0  0  0  0  0  0
  -27.7200  -12.9040   20.0840 C   0  0  0  0  0  3  0  0  0  0  0  0
  -28.7690  -12.7860   21.2110 C   0  0  0  0  0  2  0  0  0  0  0  0
  -30.0650  -13.1640   20.6370 N   0  0  0  0  0  0  0  0  0  0  0  0
  -31.9520  -14.3620   20.4700 O   0  0  0  0  0  0  0  0  0  0  0  0
  -28.9560  -16.3160   20.7280 C   0  0  0  0  0  2  0  0  0  0  0  0
  -30.8800  -16.8950   21.2140 C   0  0  0  0  0  2  0  0  0  0  0  0
  -29.5480  -17.7180   21.1880 C   0  0  0  0  0  3  0  0  0  0  0  0
  -30.1660  -15.5710   21.1800 N   0  0  0  0  0  0  0  0  0  0  0  0
  -25.3230  -13.4680   20.7840 C   0  0  0  0  0  0  0  0  0  0  0  0
  -24.2550  -12.6840   21.1210 C   0  0  0  0  0  0  0  0  0  0  0  0
  -24.7230  -11.3350   21.0770 C   0  0  0  0  0  0  0  0  0  0  0  0
  -26.3730  -12.5970   20.5510 N   0  0  0  0  0  0  0  0  0  0  0  0
  -26.0210  -11.3080   20.7940 N   0  0  0  0  0  0  0  0  0  0  0  0
  -23.9950  -10.0670   21.2280 C   0  0  0  0  0  0  0  0  0  0  0  0
  -24.3750   -9.1080   22.1930 C   0  0  0  0  0  3  0  0  0  0  0  0
  -23.6460   -7.9080   22.3350 C   0  0  0  0  0  3  0  0  0  0  0  0
  -22.5200   -7.6590   21.5130 C   0  0  0  0  0  0  0  0  0  0  0  0
  -22.1580   -8.6080   20.5400 C   0  0  0  0  0  3  0  0  0  0  0  0
  -22.8890   -9.7990   20.3960 C   0  0  0  0  0  3  0  0  0  0  0  0
  -21.7680   -6.5100   21.5610 O   0  0  0  0  0  0  0  0  0  0  0  0
  -21.6160   -5.8000   22.7260 C   0  0  0  0  0  0  0  0  0  0  0  0
  -20.9530   -6.3420   23.8480 C   0  0  0  0  0  3  0  0  0  0  0  0
  -20.7570   -5.5550   25.0010 C   0  0  0  0  0  3  0  0  0  0  0  0
  -21.2130   -4.2220   25.0270 C   0  0  0  0  0  0  0  0  0  0  0  0
  -21.8680   -3.6780   23.9080 C   0  0  0  0  0  3  0  0  0  0  0  0
  -22.0660   -4.4650   22.7600 C   0  0  0  0  0  0  0  0  0  0  0  0
  -22.6780   -3.9290   21.6760 F   0  0  0  0  0  0  0  0  0  0  0  0
  -21.0170   -3.4620   26.1300 F   0  0  0  0  0  0  0  0  0  0  0  0
  -22.8520  -13.1540   21.3690 C   0  0  0  0  0  0  0  0  0  0  0  0
  -22.1150  -12.4550   22.2230 N   0  0  0  0  0  0  0  0  0  0  0  0
  -22.4190  -14.1780   20.8410 O   0  0  0  0  0  0  0  0  0  0  0  0
  -22.4780  -11.6260   22.6700 H   0  0  0  0  0  0  0  0  0  0  0  0
  -21.1730  -12.7540   22.4330 H   0  0  0  0  0  0  0  0  0  0  0  0
  -25.4830  -14.8410   20.6270 N   0  0  0  0  0  0  0  0  0  0  0  0
  -24.7080  -15.4870   20.7270 H   0  0  0  0  0  0  0  0  0  0  0  0
  -26.3240  -15.2790   20.2770 H   0  0  0  0  0  0  0  0  0  0  0  0
  -26.8540  -20.8130   16.8840 C   0  0  0  0  0  2  0  0  0  0  0  0
  -27.5900  -19.6720   16.2290 C   0  0  0  0  0  2  0  0  0  0  0  0
  -28.3350  -20.6330   17.1300 C   0  0  0  0  0  3  0  0  0  0  0  0
  -29.1980  -21.5130   21.7370 C   0  0  0  0  0  2  0  0  0  0  0  0
  -29.4860  -23.1330   21.4870 C   0  0  0  0  0  3  0  0  0  0  0  0
  -28.3730  -24.2960   21.1700 C   0  0  0  0  0  3  0  0  0  0  0  0
  -28.6550  -25.7990   21.2230 O   0  0  0  0  0  0  0  0  0  0  0  0
  -24.7150  -31.6120   23.2440 C   0  0  0  0  0  0  0  0  0  0  0  0
  -27.6130  -26.7330   20.9420 C   0  0  0  0  0  0  0  0  0  0  0  0
  -23.7190  -30.0950   21.5760 C   0  0  0  0  0  3  0  0  0  0  0  0
  -25.3220  -28.4260   20.4730 C   0  0  0  0  0  0  0  0  0  0  0  0
  -26.2710  -30.3650   21.7120 C   0  0  0  0  0  2  0  0  0  0  0  0
  -26.4150  -28.9330   21.1870 C   0  0  0  0  0  0  0  0  0  0  0  0
  -27.5670  -28.0990   21.4050 C   0  0  0  0  0  3  0  0  0  0  0  0
  -26.5020  -26.3070   20.1820 C   0  0  0  0  0  3  0  0  0  0  0  0
  -25.3760  -27.1240   19.9560 C   0  0  0  0  0  3  0  0  0  0  0  0
  -24.1060  -29.3150   20.2920 C   0  0  0  0  0  2  0  0  0  0  0  0
  -24.9150  -30.7150   22.2340 N   0  0  0  0  0  0  0  0  0  0  0  0
  -23.5750  -31.9370   23.6070 O   0  0  0  0  0  0  0  0  0  0  0  0
  -22.9170  -29.1610   22.5170 C   0  0  0  0  0  0  0  0  0  0  0  0
  -21.5970  -29.0530   22.2870 N   0  0  0  0  0  0  0  0  0  0  0  0
  -23.4880  -28.5340   23.4130 O   0  0  0  0  0  0  0  0  0  0  0  0
  -21.2020  -29.6050   21.5400 H   0  0  0  0  0  0  0  0  0  0  0  0
  -18.1030  -28.1840   22.6600 C   0  0  0  0  0  0  0  0  0  0  0  0
  -20.6640  -28.1970   23.0220 C   0  0  0  0  0  3  0  0  0  0  0  0
  -20.6500  -26.7650   22.4390 C   0  0  0  0  0  2  0  0  0  0  0  0
  -19.5590  -26.5530   21.3860 C   0  0  0  0  0  2  0  0  0  0  0  0
  -18.1750  -26.8270   21.9810 C   0  0  0  0  0  2  0  0  0  0  0  0
  -19.2730  -28.8340   23.1340 C   0  0  0  0  0  0  0  0  0  0  0  0
  -19.1540  -30.1110   23.7260 C   0  0  0  0  0  3  0  0  0  0  0  0
  -17.8980  -30.7310   23.8540 C   0  0  0  0  0  3  0  0  0  0  0  0
  -16.7410  -30.0770   23.3960 C   0  0  0  0  0  3  0  0  0  0  0  0
  -16.8450  -28.8050   22.8050 C   0  0  0  0  0  3  0  0  0  0  0  0
  -25.9120  -32.2910   23.9800 C   0  0  0  0  0  3  0  0  0  0  0  0
  -26.3490  -31.5220   25.2870 C   0  0  1  0  0  0  0  0  0  0  0  0
  -25.1750  -31.1840   26.2350 C   0  0  0  0  0  1  0  0  0  0  0  0
  -27.0620  -30.1970   24.9310 C   0  0  0  0  0  1  0  0  0  0  0  0
  -27.3710  -32.3730   26.0770 C   0  0  0  0  0  1  0  0  0  0  0  0
  -25.5120  -33.6690   24.3030 N   0  0  0  0  0  0  0  0  0  0  0  0
  -25.8160  -34.7450   23.5640 C   0  0  0  0  0  0  0  0  0  0  0  0
  -26.5300  -34.6850   22.5600 O   0  0  0  0  0  0  0  0  0  0  0  0
  -24.8760  -33.7840   25.0780 H   0  0  0  0  0  0  0  0  0  0  0  0
  -23.9900  -36.4360   23.1750 C   0  0  0  0  0  1  0  0  0  0  0  0
  -25.2370  -36.1030   24.0110 C   0  0  0  0  0  3  0  0  0  0  0  0
  -27.2820  -37.1310   24.9020 C   0  0  0  0  0  1  0  0  0  0  0  0
  -26.2070  -37.2170   23.9160 N   0  0  0  0  0  0  0  0  0  0  0  0
  -25.7400  -38.1120   24.0340 H   0  0  0  0  0  0  0  0  0  0  0  0
  1  3  2  0
  2  1  1  0
  2  4  2  0
  3  5  1  0
  4  5  1  0
  5 49  1  0
  6 17  1  0
  7 12  1  0
  8  9  1  0
  8  7  1  0
 10  9  1  0
 10 21  1  0
 10 11  1  0
 12  6  1  0
 12 11  1  0
 13  6  2  0
 14 17  1  0
 14 16  1  0
 16  3  1  0
 16 15  1  0
 17 15  1  0
 18 19  2  0
 19 38  1  0
 20 19  1  0
 20 23  1  0
 21 18  1  0
 21 22  1  0
 22 20  2  0
 23 24  1  0
 24 25  2  0
 26 29  1  0
 26 25  1  0
 27 26  2  0
 28 27  1  0
 28 23  2  0
 29 30  1  0
 30 35  2  0
 30 31  1  0
 31 32  2  0
 32 33  1  0
 33 37  1  0
 34 33  2  0
 35 34  1  0
 36 35  1  0
 38 39  1  0
 39 42  1  0
 39 41  1  0
 40 38  2  0
 43 44  1  0
 43 18  1  0
 45 43  1  0
 46 48  1  0
 47 46  1  0
 47 48  1  0
 48  2  1  0
 50 49  1  0
 51 52  1  0
 51 50  2  0
 53 64  2  0
 54 52  1  0
 54 59  1  0
 55 63  1  0
 55 65  1  0
 56 58  1  0
 57 63  1  0
 58 59  2  0
 58 57  1  0
 60 54  2  0
 61 60  1  0
 61 56  2  0
 62 56  1  0
 62 55  1  0
 63 53  1  0
 65 67  2  0
 66 65  1  0
 68 66  1  0
 69 78  2  0
 69 74  1  0
 70 66  1  0
 70 74  1  0
 71 70  1  0
 72 73  1  0
 72 71  1  0
 73 69  1  0
 74 75  2  0
 75 76  1  0
 77 76  2  0
 78 77  1  0
 79 53  1  0
 79 84  1  0
 79 80  1  0
 80 83  1  1
 80 81  1  0
 82 80  1  0
 84 87  1  0
 85 89  1  0
 85 84  1  0
 86 85  2  0
 89 88  1  0
 91 89  1  0
 91 92  1  0
 91 90  1  0
M  ISO  4   6 100  17 100  51 101  52 101
M  END
>  <TORSDO>  (8) 
F 20

>  <SCORE>  (8) 
-12.109

>  <name>  (8) 
7

>  <ligand_id>  (8) 
7

>  <original_smiles>  (8) 
[H]c1c([H])c([H])c2c(c1[H])C([H])([H])C([H])([H])C([H])([H])C2([H])N([H])C(=O)C1([H])N(C(=O)C([H])(N([H])C(=O)C([H])(N([H])C([H])([H])[H])C([H])([H])[H])C(C([H])([H])[H])(C([H])([H])[H])C([H])([H])[H])C([H])([H])c2c([H])c(OC([H])([H])C([H])([H])C([H])([H])n3nc(C4([H])C([H])([H])C4([H])[H])c([H])c3C3([H])C([H])([H])N(C(=O)N4C([H])([H])C([H])([H])C([H])([H])C([H])(n5nc(-c6c([H])c([H])c(Oc7c([H])c([H])c(F)c([H])c7F)c([H])c6[H])c(C(=O)N([H])[H])c5N([H])[H])C4([H])[H])C3([H])[H])c([H])c([H])c2C1([H])[H]

>  <smiles>  (8) 
[H]c1c([H])c([H])c2c(c1[H])C([H])([H])C([H])([H])C([H])([H])C2([H])N([H])C(=O)C1([H])N(C(=O)C([H])(N([H])C(=O)C([H])(N([H])C([H])([H])[H])C([H])([H])[H])C(C([H])([H])[H])(C([H])([H])[H])C([H])([H])[H])C([H])([H])c2c([H])c(OC([H])([H])C([H])([H])C([H])([H])n3nc(C4([H])C([H])([H])C4([H])[H])c([H])c3C3([H])C([H])([H])N(C(=O)N4C([H])([H])C([H])([H])C([H])([H])C([H])(n5nc(-c6c([H])c([H])c(Oc7c([H])c([H])c(F)c([H])c7F)c([H])c6[H])c(C(=O)N([H])[H])c5N([H])[H])C4([H])[H])C3([H])[H])c([H])c([H])c2C1([H])[H]

$$$$
8:0:0
     RDKit          3D

 94103  0  0  1  0  0  0  0  0999 V2000
  -27.4100  -22.0260   19.5280 C   0  0  0  0  0  3  0  0  0  0  0  0
  -28.4500  -21.3600   20.2260 C   0  0  0  0  0  0  0  0  0  0  0  0
  -29.3990  -23.4470   20.6650 C   0  0  0  0  0  0  0  0  0  0  0  0
  -28.4110  -24.1040   19.8690 C   0  0  0  0  0  0  0  0  0  0  0  0
  -30.5480  -24.2080   21.3010 C   0  0  0  0  0  1  0  0  0  0  0  0
  -27.3910  -23.3750   19.3440 N   0  0  0  0  0  0  0  0  0  0  0  0
  -29.4220  -22.0890   20.8450 N   0  0  0  0  0  0  0  0  0  0  0  0
  -28.5540  -19.8080   20.1930 C   0  0  0  0  0  2  0  0  0  0  0  0
  -29.2870  -19.1810   21.3240 N   0  0  0  0  0  4  0  0  0  0  0  0
  -29.9190  -19.9010   21.6390 H   0  0  0  0  0  0  0  0  0  0  0  0
  -28.6180  -19.0350   22.0600 H   0  0  0  0  0  0  0  0  0  0  0  0
  -30.7280  -14.5170   20.0250 C   0  0  0  0  0  0  0  0  0  0  0  0
  -30.3300  -12.3740   18.8340 C   0  0  0  0  0  2  0  0  0  0  0  0
  -29.3120  -12.5980   17.6960 C   0  0  0  0  0  2  0  0  0  0  0  0
  -27.8660  -12.4880   18.2190 C   0  0  0  0  0  2  0  0  0  0  0  0
  -27.6340  -13.2920   19.5260 C   0  0  0  0  0  3  0  0  0  0  0  0
  -28.7550  -13.0280   20.5540 C   0  0  0  0  0  2  0  0  0  0  0  0
  -30.0370  -13.3430   19.9050 N   0  0  0  0  0  0  0  0  0  0  0  0
  -31.7830  -14.7190   19.4150 O   0  0  0  0  0  0  0  0  0  0  0  0
  -30.5130  -17.2670   22.4340 C   0  0  0  0  0  2  0  0  0  0  0  0
  -30.9670  -15.8570   22.0350 C   0  0  0  0  0  2  0  0  0  0  0  0
  -29.4570  -16.6860   20.3920 C   0  0  0  0  0  2  0  0  0  0  0  0
  -30.0890  -17.9160   21.1190 C   0  0  0  0  0  3  0  0  0  0  0  0
  -30.1970  -15.4680   20.8460 N   0  0  0  0  0  0  0  0  0  0  0  0
  -25.3040  -13.9240   20.4170 C   0  0  0  0  0  0  0  0  0  0  0  0
  -24.2510  -13.1610   20.8440 C   0  0  0  0  0  0  0  0  0  0  0  0
  -24.6820  -11.8020   20.7490 C   0  0  0  0  0  0  0  0  0  0  0  0
  -26.3110  -13.0280   20.0910 N   0  0  0  0  0  0  0  0  0  0  0  0
  -25.9450  -11.7470   20.3480 N   0  0  0  0  0  0  0  0  0  0  0  0
  -23.9450  -10.5470   20.9610 C   0  0  0  0  0  0  0  0  0  0  0  0
  -24.4080   -9.5600   21.8560 C   0  0  0  0  0  3  0  0  0  0  0  0
  -23.6710   -8.3740   22.0610 C   0  0  0  0  0  3  0  0  0  0  0  0
  -22.4570   -8.1660   21.3670 C   0  0  0  0  0  0  0  0  0  0  0  0
  -22.0090   -9.1430   20.4590 C   0  0  0  0  0  3  0  0  0  0  0  0
  -22.7470  -10.3200   20.2540 C   0  0  0  0  0  3  0  0  0  0  0  0
  -21.6860   -7.0330   21.4810 O   0  0  0  0  0  0  0  0  0  0  0  0
  -21.6740   -6.2880   22.6310 C   0  0  0  0  0  0  0  0  0  0  0  0
  -21.3280   -6.8510   23.8790 C   0  0  0  0  0  3  0  0  0  0  0  0
  -21.2520   -6.0310   25.0230 C   0  0  0  0  0  3  0  0  0  0  0  0
  -21.5190   -4.6520   24.9240 C   0  0  0  0  0  0  0  0  0  0  0  0
  -21.8640   -4.0910   23.6810 C   0  0  0  0  0  3  0  0  0  0  0  0
  -21.9380   -4.9060   22.5390 C   0  0  0  0  0  0  0  0  0  0  0  0
  -22.2480   -4.3540   21.3380 F   0  0  0  0  0  0  0  0  0  0  0  0
  -21.4400   -3.8660   26.0230 F   0  0  0  0  0  0  0  0  0  0  0  0
  -22.8860  -13.6590   21.2250 C   0  0  0  0  0  0  0  0  0  0  0  0
  -22.2100  -12.9620   22.1330 N   0  0  0  0  0  0  0  0  0  0  0  0
  -22.4290  -14.7000   20.7550 O   0  0  0  0  0  0  0  0  0  0  0  0
  -22.5920  -12.1180   22.5330 H   0  0  0  0  0  0  0  0  0  0  0  0
  -21.2990  -13.2770   22.4370 H   0  0  0  0  0  0  0  0  0  0  0  0
  -25.4870  -15.2960   20.2600 N   0  0  0  0  0  0  0  0  0  0  0  0
  -24.7540  -15.9680   20.4570 H   0  0  0  0  0  0  0  0  0  0  0  0
  -26.3290  -15.7170   19.8880 H   0  0  0  0  0  0  0  0  0  0  0  0
  -28.5920  -25.5360   19.2950 C   0  0  0  0  0  2  0  0  0  0  0  0
  -28.3670  -26.6810   20.1460 O   0  0  0  0  0  0  0  0  0  0  0  0
  -24.6050  -31.8770   23.2100 C   0  0  0  0  0  0  0  0  0  0  0  0
  -27.1930  -27.4150   20.0860 C   0  0  0  0  0  0  0  0  0  0  0  0
  -23.3700  -30.4820   21.5800 C   0  0  0  0  0  3  0  0  0  0  0  0
  -24.8020  -28.9490   20.1200 C   0  0  0  0  0  0  0  0  0  0  0  0
  -25.8940  -30.8360   21.3470 C   0  0  0  0  0  2  0  0  0  0  0  0
  -25.9680  -29.4650   20.6960 C   0  0  0  0  0  0  0  0  0  0  0  0
  -27.1610  -28.7050   20.6730 C   0  0  0  0  0  3  0  0  0  0  0  0
  -26.0070  -26.9210   19.4940 C   0  0  0  0  0  3  0  0  0  0  0  0
  -24.8210  -27.6830   19.5080 C   0  0  0  0  0  3  0  0  0  0  0  0
  -23.5550  -29.8010   20.1960 C   0  0  0  0  0  2  0  0  0  0  0  0
  -24.6420  -31.0820   22.1030 N   0  0  0  0  0  0  0  0  0  0  0  0
  -23.5340  -32.1500   23.7680 O   0  0  0  0  0  0  0  0  0  0  0  0
  -22.7330  -29.4620   22.5510 C   0  0  0  0  0  0  0  0  0  0  0  0
  -21.4050  -29.2800   22.4450 N   0  0  0  0  0  0  0  0  0  0  0  0
  -23.4270  -28.8360   23.3550 O   0  0  0  0  0  0  0  0  0  0  0  0
  -20.9080  -29.8360   21.7650 H   0  0  0  0  0  0  0  0  0  0  0  0
  -18.0400  -28.0740   22.9670 C   0  0  0  0  0  0  0  0  0  0  0  0
  -20.6000  -28.3390   23.2220 C   0  0  0  0  0  3  0  0  0  0  0  0
  -20.7010  -26.9090   22.6450 C   0  0  0  0  0  2  0  0  0  0  0  0
  -19.5920  -26.5820   21.6380 C   0  0  0  0  0  2  0  0  0  0  0  0
  -18.2150  -26.7240   22.2910 C   0  0  0  0  0  2  0  0  0  0  0  0
  -19.1590  -28.8380   23.3900 C   0  0  0  0  0  0  0  0  0  0  0  0
  -18.9410  -30.1030   23.9800 C   0  0  0  0  0  3  0  0  0  0  0  0
  -17.6360  -30.6010   24.1510 C   0  0  0  0  0  3  0  0  0  0  0  0
  -16.5310  -29.8320   23.7500 C   0  0  0  0  0  3  0  0  0  0  0  0
  -16.7350  -28.5700   23.1630 C   0  0  0  0  0  3  0  0  0  0  0  0
  -25.9020  -32.5020   23.8130 C   0  0  0  0  0  3  0  0  0  0  0  0
  -26.4500  -31.7140   25.0670 C   0  0  1  0  0  0  0  0  0  0  0  0
  -25.3810  -31.4600   26.1570 C   0  0  0  0  0  1  0  0  0  0  0  0
  -27.0200  -30.3390   24.6440 C   0  0  0  0  0  1  0  0  0  0  0  0
  -27.6170  -32.4990   25.7110 C   0  0  0  0  0  1  0  0  0  0  0  0
  -25.5990  -33.8950   24.1680 N   0  0  0  0  0  0  0  0  0  0  0  0
  -25.9170  -34.9570   23.4140 C   0  0  0  0  0  0  0  0  0  0  0  0
  -26.5680  -34.8680   22.3690 O   0  0  0  0  0  0  0  0  0  0  0  0
  -25.0150  -34.0380   24.9770 H   0  0  0  0  0  0  0  0  0  0  0  0
  -24.1750  -36.7460   23.1200 C   0  0  0  0  0  1  0  0  0  0  0  0
  -25.4350  -36.3370   23.8980 C   0  0  0  0  0  3  0  0  0  0  0  0
  -27.5910  -37.2140   24.6840 C   0  0  0  0  0  1  0  0  0  0  0  0
  -26.4620  -37.3960   23.7740 N   0  0  0  0  0  0  0  0  0  0  0  0
  -26.0580  -38.3130   23.9480 H   0  0  0  0  0  0  0  0  0  0  0  0
  1  2  1  0
  2  7  2  0
  3  7  1  0
  3  5  1  0
  4  3  2  0
  6  1  2  0
  6  4  1  0
  8  2  1  0
  8  9  1  0
  9 10  1  0
  9 11  1  0
 12 24  1  0
 13 18  1  0
 14 15  1  0
 14 13  1  0
 16 15  1  0
 16 28  1  0
 16 17  1  0
 18 12  1  0
 18 17  1  0
 19 12  2  0
 21 20  1  0
 22 24  1  0
 22 23  1  0
 23  9  1  0
 23 20  1  0
 24 21  1  0
 25 26  2  0
 26 45  1  0
 27 26  1  0
 27 30  1  0
 28 29  1  0
 28 25  1  0
 29 27  2  0
 30 31  1  0
 31 32  2  0
 33 36  1  0
 33 32  1  0
 34 33  2  0
 35 34  1  0
 35 30  2  0
 36 37  1  0
 37 38  1  0
 38 39  2  0
 40 39  1  0
 40 44  1  0
 41 40  2  0
 42 37  2  0
 42 41  1  0
 43 42  1  0
 45 46  1  0
 46 49  1  0
 46 48  1  0
 47 45  2  0
 50 25  1  0
 50 51  1  0
 52 50  1  0
 53  4  1  0
 53 54  1  0
 55 66  2  0
 56 54  1  0
 56 61  1  0
 57 65  1  0
 57 67  1  0
 58 64  1  0
 58 60  1  0
 59 65  1  0
 60 59  1  0
 61 60  2  0
 62 63  1  0
 62 56  2  0
 63 58  2  0
 64 57  1  0
 65 55  1  0
 67 69  2  0
 68 67  1  0
 70 68  1  0
 71 80  2  0
 71 76  1  0
 72 68  1  0
 72 76  1  0
 73 72  1  0
 74 75  1  0
 74 73  1  0
 75 71  1  0
 76 77  2  0
 77 78  1  0
 79 78  2  0
 80 79  1  0
 81 55  1  0
 81 86  1  0
 81 82  1  0
 82 85  1  1
 82 83  1  0
 84 82  1  0
 86 89  1  0
 87 91  1  0
 87 86  1  0
 88 87  2  0
 91 90  1  0
 93 91  1  0
 93 94  1  0
 93 92  1  0
M  ISO  4  12 100  24 100  53 101  54 101
M  END
>  <TORSDO>  (9) 
F 19

>  <SCORE>  (9) 
-14.123

>  <name>  (9) 
8

>  <ligand_id>  (9) 
8

>  <original_smiles>  (9) 
[H]c1nc(C([H])([H])Oc2c([H])c([H])c3c(c2[H])C([H])([H])N(C(=O)C([H])(N([H])C(=O)C([H])(N([H])C([H])([H])[H])C([H])([H])[H])C(C([H])([H])[H])(C([H])([H])[H])C([H])([H])[H])C([H])(C(=O)N([H])C2([H])c4c([H])c([H])c([H])c([H])c4C([H])([H])C([H])([H])C2([H])[H])C3([H])[H])c(C([H])([H])[H])nc1C([H])([H])[N+]([H])([H])C1([H])C([H])([H])N(C(=O)N2C([H])([H])C([H])([H])C([H])([H])C([H])(n3nc(-c4c([H])c([H])c(Oc5c([H])c([H])c(F)c([H])c5F)c([H])c4[H])c(C(=O)N([H])[H])c3N([H])[H])C2([H])[H])C([H])([H])C1([H])[H]

>  <smiles>  (9) 
[H]c1nc(C([H])([H])Oc2c([H])c([H])c3c(c2[H])C([H])([H])N(C(=O)C([H])(N([H])C(=O)C([H])(N([H])C([H])([H])[H])C([H])([H])[H])C(C([H])([H])[H])(C([H])([H])[H])C([H])([H])[H])C([H])(C(=O)N([H])C2([H])c4c([H])c([H])c([H])c([H])c4C([H])([H])C([H])([H])C2([H])[H])C3([H])[H])c(C([H])([H])[H])nc1C([H])([H])[N+]([H])([H])C1([H])C([H])([H])N(C(=O)N2C([H])([H])C([H])([H])C([H])([H])C([H])(n3nc(-c4c([H])c([H])c(Oc5c([H])c([H])c(F)c([H])c5F)c([H])c4[H])c(C(=O)N([H])[H])c3N([H])[H])C2([H])[H])C([H])([H])C1([H])[H]

$$$$
9:0:0
     RDKit          3D

 94104  0  0  1  0  0  0  0  0999 V2000
  -28.2830  -20.0950   20.0100 C   0  0  0  0  0  3  0  0  0  0  0  0
  -29.3810  -19.2960   20.4050 C   0  0  0  0  0  0  0  0  0  0  0  0
  -29.5400  -21.9390   20.4100 C   0  0  0  0  0  0  0  0  0  0  0  0
  -28.3670  -21.4460   20.0140 N   0  0  0  0  0  0  0  0  0  0  0  0
  -30.5480  -19.8870   20.7710 N   0  0  0  0  0  0  0  0  0  0  0  0
  -30.6210  -21.2310   20.7710 N   0  0  0  0  0  0  0  0  0  0  0  0
  -29.6740  -23.3030   20.4880 N   0  0  0  0  0  0  0  0  0  0  0  0
  -30.5780  -23.6280   20.8010 H   0  0  0  0  0  0  0  0  0  0  0  0
  -30.7750  -14.4850   19.7490 C   0  0  0  0  0  0  0  0  0  0  0  0
  -30.3460  -12.3960   18.4960 C   0  0  0  0  0  2  0  0  0  0  0  0
  -29.2520  -12.6680   17.4380 C   0  0  0  0  0  2  0  0  0  0  0  0
  -27.8380  -12.5190   18.0410 C   0  0  0  0  0  2  0  0  0  0  0  0
  -27.6820  -13.2610   19.3960 C   0  0  0  0  0  3  0  0  0  0  0  0
  -28.8640  -12.8970   20.3200 C   0  0  0  0  0  2  0  0  0  0  0  0
  -30.0990  -13.3010   19.6320 N   0  0  0  0  0  0  0  0  0  0  0  0
  -31.8260  -14.6890   19.1290 O   0  0  0  0  0  0  0  0  0  0  0  0
  -29.4580  -17.1850   21.9010 C   0  0  0  0  0  2  0  0  0  0  0  0
  -29.5350  -15.6840   21.6030 C   0  0  0  0  0  2  0  0  0  0  0  0
  -30.1730  -16.8950   19.6520 C   0  0  0  0  0  2  0  0  0  0  0  0
  -29.2550  -17.7730   20.5150 C   0  0  0  0  0  3  0  0  0  0  0  0
  -30.0670  -15.5440   20.2350 N   0  0  0  0  0  0  0  0  0  0  0  0
  -25.4060  -13.8590   20.4430 C   0  0  0  0  0  0  0  0  0  0  0  0
  -24.3750  -13.0790   20.8930 C   0  0  0  0  0  0  0  0  0  0  0  0
  -24.7920  -11.7260   20.7030 C   0  0  0  0  0  0  0  0  0  0  0  0
  -26.3910  -12.9790   20.0200 N   0  0  0  0  0  0  0  0  0  0  0  0
  -26.0300  -11.6880   20.2280 N   0  0  0  0  0  0  0  0  0  0  0  0
  -24.0660  -10.4650   20.8950 C   0  0  0  0  0  0  0  0  0  0  0  0
  -24.5360   -9.4710   21.7820 C   0  0  0  0  0  3  0  0  0  0  0  0
  -23.8120   -8.2730   21.9630 C   0  0  0  0  0  3  0  0  0  0  0  0
  -22.6040   -8.0610   21.2580 C   0  0  0  0  0  0  0  0  0  0  0  0
  -22.1520   -9.0430   20.3600 C   0  0  0  0  0  3  0  0  0  0  0  0
  -22.8760  -10.2330   20.1760 C   0  0  0  0  0  3  0  0  0  0  0  0
  -21.8480   -6.9180   21.3510 O   0  0  0  0  0  0  0  0  0  0  0  0
  -21.7580   -6.2070   22.5210 C   0  0  0  0  0  0  0  0  0  0  0  0
  -21.2810   -6.7930   23.7140 C   0  0  0  0  0  3  0  0  0  0  0  0
  -21.1410   -6.0080   24.8770 C   0  0  0  0  0  3  0  0  0  0  0  0
  -21.4660   -4.6380   24.8450 C   0  0  0  0  0  0  0  0  0  0  0  0
  -21.9360   -4.0520   23.6560 C   0  0  0  0  0  3  0  0  0  0  0  0
  -22.0780   -4.8350   22.4970 C   0  0  0  0  0  0  0  0  0  0  0  0
  -22.5110   -4.2610   21.3490 F   0  0  0  0  0  0  0  0  0  0  0  0
  -21.3240   -3.8820   25.9580 F   0  0  0  0  0  0  0  0  0  0  0  0
  -23.0370  -13.5560   21.3800 C   0  0  0  0  0  0  0  0  0  0  0  0
  -22.4220  -12.8250   22.3040 N   0  0  0  0  0  0  0  0  0  0  0  0
  -22.5480  -14.6120   20.9770 O   0  0  0  0  0  0  0  0  0  0  0  0
  -22.8320  -11.9700   22.6510 H   0  0  0  0  0  0  0  0  0  0  0  0
  -21.5290  -13.1250   22.6700 H   0  0  0  0  0  0  0  0  0  0  0  0
  -25.5830  -15.2350   20.3430 N   0  0  0  0  0  0  0  0  0  0  0  0
  -24.8520  -15.8930   20.5930 H   0  0  0  0  0  0  0  0  0  0  0  0
  -26.3940  -15.6790   19.9330 H   0  0  0  0  0  0  0  0  0  0  0  0
  -28.6410  -24.3030   20.2060 C   0  0  0  0  0  2  0  0  0  0  0  0
  -28.6580  -25.8270   22.4060 C   0  0  0  0  0  2  0  0  0  0  0  0
  -30.0550  -25.8950   21.8460 C   0  0  0  0  0  2  0  0  0  0  0  0
  -28.8810  -25.6390   20.9160 C   0  0  1  0  0  0  0  0  0  0  0  0
  -28.7150  -26.7960   20.0880 O   0  0  0  0  0  0  0  0  0  0  0  0
  -24.5640  -31.7080   23.1360 C   0  0  0  0  0  0  0  0  0  0  0  0
  -27.4930  -27.4250   20.1130 C   0  0  0  0  0  0  0  0  0  0  0  0
  -23.4600  -30.2530   21.4670 C   0  0  0  0  0  3  0  0  0  0  0  0
  -25.0180  -28.7840   20.0780 C   0  0  0  0  0  0  0  0  0  0  0  0
  -25.9650  -30.7410   21.3170 C   0  0  0  0  0  2  0  0  0  0  0  0
  -26.1330  -29.3760   20.6830 C   0  0  0  0  0  0  0  0  0  0  0  0
  -27.3740  -28.7060   20.6920 C   0  0  0  0  0  3  0  0  0  0  0  0
  -26.3650  -26.8320   19.5110 C   0  0  0  0  0  3  0  0  0  0  0  0
  -25.1280  -27.5080   19.4900 C   0  0  0  0  0  3  0  0  0  0  0  0
  -23.7310  -29.5780   20.0930 C   0  0  0  0  0  2  0  0  0  0  0  0
  -24.6790  -30.9170   22.0330 N   0  0  0  0  0  0  0  0  0  0  0  0
  -23.4620  -31.9270   23.6560 O   0  0  0  0  0  0  0  0  0  0  0  0
  -22.8390  -29.2030   22.4140 C   0  0  0  0  0  0  0  0  0  0  0  0
  -21.5260  -28.9680   22.2680 N   0  0  0  0  0  0  0  0  0  0  0  0
  -23.5370  -28.6010   23.2340 O   0  0  0  0  0  0  0  0  0  0  0  0
  -21.0210  -29.5090   21.5790 H   0  0  0  0  0  0  0  0  0  0  0  0
  -18.1970  -27.6380   22.7090 C   0  0  0  0  0  0  0  0  0  0  0  0
  -20.7370  -27.9940   23.0210 C   0  0  0  0  0  3  0  0  0  0  0  0
  -20.9060  -26.5730   22.4360 C   0  0  0  0  0  2  0  0  0  0  0  0
  -19.8320  -26.2140   21.4030 C   0  0  0  0  0  2  0  0  0  0  0  0
  -18.4370  -26.3010   22.0270 C   0  0  0  0  0  2  0  0  0  0  0  0
  -19.2780  -28.4400   23.1610 C   0  0  0  0  0  0  0  0  0  0  0  0
  -19.0020  -29.6910   23.7550 C   0  0  0  0  0  3  0  0  0  0  0  0
  -17.6770  -30.1400   23.9030 C   0  0  0  0  0  3  0  0  0  0  0  0
  -16.6090  -29.3350   23.4690 C   0  0  0  0  0  3  0  0  0  0  0  0
  -16.8700  -28.0860   22.8770 C   0  0  0  0  0  3  0  0  0  0  0  0
  -25.8080  -32.3960   23.7830 C   0  0  0  0  0  3  0  0  0  0  0  0
  -25.4250  -33.7740   24.1230 N   0  0  0  0  0  0  0  0  0  0  0  0
  -25.7010  -34.8470   23.3710 C   0  0  0  0  0  0  0  0  0  0  0  0
  -26.3760  -34.7860   22.3390 O   0  0  0  0  0  0  0  0  0  0  0  0
  -24.8240  -33.8920   24.9260 H   0  0  0  0  0  0  0  0  0  0  0  0
  -23.8710  -36.5380   23.0320 C   0  0  0  0  0  1  0  0  0  0  0  0
  -25.1390  -36.2040   23.8350 C   0  0  0  0  0  3  0  0  0  0  0  0
  -27.2230  -37.2090   24.6560 C   0  0  0  0  0  1  0  0  0  0  0  0
  -26.1090  -37.3140   23.7180 N   0  0  0  0  0  0  0  0  0  0  0  0
  -25.6520  -38.2090   23.8680 H   0  0  0  0  0  0  0  0  0  0  0  0
  -26.3480  -31.6350   25.0560 C   0  0  1  0  0  0  0  0  0  0  0  0
  -25.2570  -31.3200   26.1050 C   0  0  0  0  0  1  0  0  0  0  0  0
  -27.0110  -30.2970   24.6500 C   0  0  0  0  0  1  0  0  0  0  0  0
  -27.4430  -32.4810   25.7450 C   0  0  0  0  0  1  0  0  0  0  0  0
  1  4  1  0
  1  2  2  0
  2  5  1  0
  3  7  1  0
  3  6  1  0
  4  3  2  0
  5  6  2  0
  7  8  1  0
  9 21  1  0
 10 15  1  0
 11 12  1  0
 11 10  1  0
 13 12  1  0
 13 25  1  0
 13 14  1  0
 15  9  1  0
 15 14  1  0
 16  9  2  0
 18 17  1  0
 19 21  1  0
 19 20  1  0
 20  2  1  0
 20 17  1  0
 21 18  1  0
 22 23  2  0
 23 42  1  0
 24 23  1  0
 24 27  1  0
 25 26  1  0
 25 22  1  0
 26 24  2  0
 27 28  1  0
 28 29  2  0
 30 33  1  0
 30 29  1  0
 31 30  2  0
 32 31  1  0
 32 27  2  0
 33 34  1  0
 34 35  1  0
 35 36  2  0
 37 36  1  0
 37 41  1  0
 38 37  2  0
 39 34  2  0
 39 38  1  0
 40 39  1  0
 42 43  1  0
 43 45  1  0
 43 46  1  0
 44 42  2  0
 47 22  1  0
 47 48  1  0
 49 47  1  0
 50  7  1  0
 53 50  1  6
 52 51  1  0
 53 52  1  0
 53 51  1  0
 54 56  1  0
 54 53  1  0
 55 66  2  0
 56 61  1  0
 57 65  1  0
 57 67  1  0
 58 64  1  0
 58 60  1  0
 59 65  1  0
 60 61  2  0
 60 59  1  0
 62 56  2  0
 63 62  1  0
 63 58  2  0
 64 57  1  0
 65 55  1  0
 67 69  2  0
 68 67  1  0
 70 68  1  0
 71 80  2  0
 71 76  1  0
 72 68  1  0
 72 76  1  0
 73 72  1  0
 74 75  1  0
 74 73  1  0
 75 71  1  0
 76 77  2  0
 77 78  1  0
 79 78  2  0
 80 79  1  0
 81 55  1  0
 81 82  1  0
 81 91  1  0
 82 85  1  0
 83 87  1  0
 83 82  1  0
 84 83  2  0
 87 86  1  0
 89 87  1  0
 89 90  1  0
 89 88  1  0
 91 94  1  1
 91 92  1  0
 93 91  1  0
M  ISO  4   9 100  21 100  53 101  54 101
M  END
>  <TORSDO>  (10) 
F 18

>  <SCORE>  (10) 
-13.216

>  <name>  (10) 
9

>  <ligand_id>  (10) 
9

>  <original_smiles>  (10) 
[H]c1nc(N([H])C([H])([H])C2(Oc3c([H])c([H])c4c(c3[H])C([H])([H])N(C(=O)C([H])(N([H])C(=O)C([H])(N([H])C([H])([H])[H])C([H])([H])[H])C(C([H])([H])[H])(C([H])([H])[H])C([H])([H])[H])C([H])(C(=O)N([H])C3([H])c5c([H])c([H])c([H])c([H])c5C([H])([H])C([H])([H])C3([H])[H])C4([H])[H])C([H])([H])C2([H])[H])nnc1C1([H])C([H])([H])N(C(=O)N2C([H])([H])C([H])([H])C([H])([H])C([H])(n3nc(-c4c([H])c([H])c(Oc5c([H])c([H])c(F)c([H])c5F)c([H])c4[H])c(C(=O)N([H])[H])c3N([H])[H])C2([H])[H])C([H])([H])C1([H])[H]

>  <smiles>  (10) 
[H]c1nc(N([H])C([H])([H])C2(Oc3c([H])c([H])c4c(c3[H])C([H])([H])N(C(=O)C([H])(N([H])C(=O)C([H])(N([H])C([H])([H])[H])C([H])([H])[H])C(C([H])([H])[H])(C([H])([H])[H])C([H])([H])[H])C([H])(C(=O)N([H])C3([H])c5c([H])c([H])c([H])c([H])c5C([H])([H])C([H])([H])C3([H])[H])C4([H])[H])C([H])([H])C2([H])[H])nnc1C1([H])C([H])([H])N(C(=O)N2C([H])([H])C([H])([H])C([H])([H])C([H])(n3nc(-c4c([H])c([H])c(Oc5c([H])c([H])c(F)c([H])c5F)c([H])c4[H])c(C(=O)N([H])[H])c3N([H])[H])C2([H])[H])C([H])([H])C1([H])[H]

$$$$
10:0:0
     RDKit          3D

103114  0  0  1  0  0  0  0  0999 V2000
  -32.4150  -20.6460   22.0570 C   0  0  0  0  0  3  0  0  0  0  0  0
  -31.4930  -21.4940   21.4030 C   0  0  0  0  0  0  0  0  0  0  0  0
  -32.4030  -20.9320   19.3560 C   0  0  0  0  0  0  0  0  0  0  0  0
  -33.2730  -20.0190   20.0100 C   0  0  0  0  0  0  0  0  0  0  0  0
  -33.3100  -19.9020   21.3600 N   0  0  0  0  0  0  0  0  0  0  0  0
  -31.5150  -21.6610   20.0640 N   0  0  0  0  0  0  0  0  0  0  0  0
  -34.0520  -19.1260   19.2750 N   0  0  0  0  0  0  0  0  0  0  0  0
  -34.1420  -19.4150   18.3080 H   0  0  0  0  0  0  0  0  0  0  0  0
  -30.3490  -22.9520   23.3190 C   0  0  0  0  0  2  0  0  0  0  0  0
  -30.3100  -22.1340   22.0460 C   0  0  0  0  0  3  0  0  0  0  0  0
  -30.1770  -23.6400   21.9830 C   0  0  0  0  0  3  0  0  0  0  0  0
  -28.8080  -24.0570   21.6100 N   0  0  0  0  0  4  0  0  0  0  0  0
  -28.6470  -24.9970   21.9420 H   0  0  0  0  0  0  0  0  0  0  0  0
  -28.1280  -23.4590   22.0540 H   0  0  0  0  0  0  0  0  0  0  0  0
  -28.6260  -24.0450   20.1400 C   0  0  0  0  0  2  0  0  0  0  0  0
  -27.4360  -24.8820   19.6840 C   0  0  0  0  0  2  0  0  0  0  0  0
  -27.6990  -26.2720   19.8880 O   0  0  0  0  0  0  0  0  0  0  0  0
  -24.4420  -31.6440   23.1930 C   0  0  0  0  0  0  0  0  0  0  0  0
  -26.5910  -27.0890   19.9180 C   0  0  0  0  0  0  0  0  0  0  0  0
  -23.0670  -30.3860   21.5690 C   0  0  0  0  0  3  0  0  0  0  0  0
  -24.3340  -28.7810   20.0570 C   0  0  0  0  0  0  0  0  0  0  0  0
  -25.6070  -30.5450   21.2880 C   0  0  0  0  0  2  0  0  0  0  0  0
  -25.5530  -29.1940   20.6090 C   0  0  0  0  0  0  0  0  0  0  0  0
  -26.6880  -28.3560   20.5350 C   0  0  0  0  0  3  0  0  0  0  0  0
  -25.3500  -26.6950   19.3610 C   0  0  0  0  0  3  0  0  0  0  0  0
  -24.2270  -27.5310   19.4340 C   0  0  0  0  0  3  0  0  0  0  0  0
  -23.1680  -29.7350   20.1680 C   0  0  0  0  0  2  0  0  0  0  0  0
  -24.3920  -30.8710   22.0720 N   0  0  0  0  0  0  0  0  0  0  0  0
  -23.4060  -31.9880   23.7800 O   0  0  0  0  0  0  0  0  0  0  0  0
  -22.3760  -29.3900   22.5290 C   0  0  0  0  0  0  0  0  0  0  0  0
  -21.0400  -29.2930   22.4260 N   0  0  0  0  0  0  0  0  0  0  0  0
  -23.0350  -28.7110   23.3190 O   0  0  0  0  0  0  0  0  0  0  0  0
  -20.5710  -29.8890   21.7590 H   0  0  0  0  0  0  0  0  0  0  0  0
  -17.6110  -28.2930   22.9580 C   0  0  0  0  0  0  0  0  0  0  0  0
  -20.1820  -28.4000   23.2040 C   0  0  0  0  0  3  0  0  0  0  0  0
  -20.1940  -26.9680   22.6210 C   0  0  0  0  0  2  0  0  0  0  0  0
  -19.0650  -26.7140   21.6170 C   0  0  0  0  0  2  0  0  0  0  0  0
  -17.7010  -26.9380   22.2780 C   0  0  0  0  0  2  0  0  0  0  0  0
  -18.7770  -28.9860   23.3800 C   0  0  0  0  0  0  0  0  0  0  0  0
  -18.6390  -30.2590   23.9750 C   0  0  0  0  0  3  0  0  0  0  0  0
  -17.3670  -30.8350   24.1560 C   0  0  0  0  0  3  0  0  0  0  0  0
  -16.2160  -30.1370   23.7530 C   0  0  0  0  0  3  0  0  0  0  0  0
  -16.3390  -28.8680   23.1590 C   0  0  0  0  0  3  0  0  0  0  0  0
  -25.7970  -32.1540   23.7740 C   0  0  0  0  0  3  0  0  0  0  0  0
  -25.6150  -33.5630   24.1390 N   0  0  0  0  0  0  0  0  0  0  0  0
  -26.0300  -34.6010   23.3990 C   0  0  0  0  0  0  0  0  0  0  0  0
  -26.6780  -34.4640   22.3580 O   0  0  0  0  0  0  0  0  0  0  0  0
  -25.0400  -33.7510   24.9470 H   0  0  0  0  0  0  0  0  0  0  0  0
  -24.4620  -36.5450   23.1010 C   0  0  0  0  0  1  0  0  0  0  0  0
  -25.6670  -36.0140   23.8940 C   0  0  0  0  0  3  0  0  0  0  0  0
  -27.8690  -36.6980   24.7400 C   0  0  0  0  0  1  0  0  0  0  0  0
  -26.7880  -36.9750   23.7990 N   0  0  0  0  0  0  0  0  0  0  0  0
  -26.4630  -37.9240   23.9600 H   0  0  0  0  0  0  0  0  0  0  0  0
  -26.2970  -31.3140   25.0130 C   0  0  1  0  0  0  0  0  0  0  0  0
  -25.2360  -31.1610   26.1270 C   0  0  0  0  0  1  0  0  0  0  0  0
  -26.7330  -29.8960   24.5770 C   0  0  0  0  0  1  0  0  0  0  0  0
  -27.5460  -31.9880   25.6310 C   0  0  0  0  0  1  0  0  0  0  0  0
  -31.5620  -22.2490   17.2140 C   0  0  0  0  0  2  0  0  0  0  0  0
  -31.0080  -20.8390   17.1320 C   0  0  0  0  0  2  0  0  0  0  0  0
  -32.3050  -21.1000   17.8580 C   0  0  0  0  0  3  0  0  0  0  0  0
  -33.6250  -17.7300   19.3690 C   0  0  0  0  0  2  0  0  0  0  0  0
  -32.0970  -17.5000   19.2270 C   0  0  0  0  0  2  0  0  0  0  0  0
  -30.9400  -14.2200   20.2770 C   0  0  0  0  0  0  0  0  0  0  0  0
  -30.4240  -12.1130   19.1090 C   0  0  0  0  0  2  0  0  0  0  0  0
  -29.4940  -12.4230   17.9160 C   0  0  0  0  0  2  0  0  0  0  0  0
  -28.0180  -12.3760   18.3540 C   0  0  0  0  0  2  0  0  0  0  0  0
  -27.7470  -13.1740   19.6560 C   0  0  0  0  0  3  0  0  0  0  0  0
  -28.8180  -12.9100   20.7430 C   0  0  0  0  0  2  0  0  0  0  0  0
  -30.1440  -13.1210   20.1450 N   0  0  0  0  0  0  0  0  0  0  0  0
  -32.0960  -14.2380   19.8440 O   0  0  0  0  0  0  0  0  0  0  0  0
  -29.7670  -17.6070   20.1780 C   0  0  0  0  0  2  0  0  0  0  0  0
  -29.3900  -16.1220   20.0900 C   0  0  0  0  0  2  0  0  0  0  0  0
  -31.3050  -16.3450   21.4240 C   0  0  0  0  0  2  0  0  0  0  0  0
  -31.2450  -17.5910   20.5280 C   0  0  0  0  0  3  0  0  0  0  0  0
  -30.4090  -15.3460   20.8210 N   0  0  0  0  0  0  0  0  0  0  0  0
  -25.3850  -13.8810   20.3840 C   0  0  0  0  0  0  0  0  0  0  0  0
  -24.2910  -13.1540   20.7710 C   0  0  0  0  0  0  0  0  0  0  0  0
  -24.7040  -11.7870   20.7620 C   0  0  0  0  0  0  0  0  0  0  0  0
  -26.3950  -12.9580   20.1580 N   0  0  0  0  0  0  0  0  0  0  0  0
  -25.9900  -11.6940   20.4430 N   0  0  0  0  0  0  0  0  0  0  0  0
  -23.9320  -10.5540   20.9730 C   0  0  0  0  0  0  0  0  0  0  0  0
  -24.3530   -9.5710   21.8950 C   0  0  0  0  0  3  0  0  0  0  0  0
  -23.5830   -8.4040   22.0970 C   0  0  0  0  0  3  0  0  0  0  0  0
  -22.3810   -8.2130   21.3740 C   0  0  0  0  0  0  0  0  0  0  0  0
  -21.9790   -9.1820   20.4390 C   0  0  0  0  0  3  0  0  0  0  0  0
  -22.7500  -10.3400   20.2360 C   0  0  0  0  0  3  0  0  0  0  0  0
  -21.5840   -7.0990   21.4840 O   0  0  0  0  0  0  0  0  0  0  0  0
  -21.5490   -6.3500   22.6320 C   0  0  0  0  0  0  0  0  0  0  0  0
  -21.1470   -6.9010   23.8700 C   0  0  0  0  0  3  0  0  0  0  0  0
  -21.0600   -6.0790   25.0100 C   0  0  0  0  0  3  0  0  0  0  0  0
  -21.3650   -4.7080   24.9170 C   0  0  0  0  0  0  0  0  0  0  0  0
  -21.7650   -4.1580   23.6870 C   0  0  0  0  0  3  0  0  0  0  0  0
  -21.8530   -4.9770   22.5480 C   0  0  0  0  0  0  0  0  0  0  0  0
  -22.2180   -4.4360   21.3590 F   0  0  0  0  0  0  0  0  0  0  0  0
  -21.2730   -3.9170   26.0130 F   0  0  0  0  0  0  0  0  0  0  0  0
  -22.9140  -13.6870   21.0400 C   0  0  0  0  0  0  0  0  0  0  0  0
  -22.1690  -13.0280   21.9220 N   0  0  0  0  0  0  0  0  0  0  0  0
  -22.5080  -14.7150   20.4990 O   0  0  0  0  0  0  0  0  0  0  0  0
  -22.5070  -12.1910   22.3730 H   0  0  0  0  0  0  0  0  0  0  0  0
  -21.2420  -13.3650   22.1380 H   0  0  0  0  0  0  0  0  0  0  0  0
  -25.5900  -15.2410   20.1840 N   0  0  0  0  0  0  0  0  0  0  0  0
  -24.8360  -15.9170   20.2680 H   0  0  0  0  0  0  0  0  0  0  0  0
  -26.4490  -15.6430   19.8330 H   0  0  0  0  0  0  0  0  0  0  0  0
  2  1  1  0
  3  4  2  0
  3  6  1  0
  4  5  1  0
  5  1  2  0
  6  2  2  0
  7 61  1  0
  7  4  1  0
  8  7  1  0
 10  2  1  0
 10  9  1  0
 11 12  1  0
 11 10  1  0
 11  9  1  0
 12 13  1  0
 12 14  1  0
 15 12  1  0
 16 17  1  0
 16 15  1  0
 17 19  1  0
 18 29  2  0
 19 24  1  0
 20 28  1  0
 20 30  1  0
 21 27  1  0
 21 23  1  0
 22 28  1  0
 23 22  1  0
 24 23  2  0
 25 26  1  0
 25 19  2  0
 26 21  2  0
 27 20  1  0
 28 18  1  0
 30 32  2  0
 31 30  1  0
 33 31  1  0
 34 43  2  0
 34 39  1  0
 35 31  1  0
 35 39  1  0
 36 35  1  0
 37 38  1  0
 37 36  1  0
 38 34  1  0
 39 40  2  0
 40 41  1  0
 42 41  2  0
 43 42  1  0
 44 18  1  0
 44 45  1  0
 44 54  1  0
 45 48  1  0
 46 50  1  0
 46 45  1  0
 47 46  2  0
 50 49  1  0
 52 50  1  0
 52 53  1  0
 52 51  1  0
 54 57  1  1
 54 55  1  0
 56 54  1  0
 58 60  1  0
 59 58  1  0
 59 60  1  0
 60  3  1  0
 62 61  1  0
 63 75  1  0
 64 69  1  0
 65 66  1  0
 65 64  1  0
 67 66  1  0
 67 79  1  0
 67 68  1  0
 69 63  1  0
 69 68  1  0
 70 63  2  0
 71 74  1  0
 72 71  1  0
 72 75  1  0
 74 62  1  0
 74 73  1  0
 75 73  1  0
 76 77  2  0
 77 96  1  0
 78 77  1  0
 78 81  1  0
 79 76  1  0
 79 80  1  0
 80 78  2  0
 81 82  1  0
 82 83  2  0
 84 87  1  0
 84 83  1  0
 85 84  2  0
 86 85  1  0
 86 81  2  0
 87 88  1  0
 88 89  1  0
 89 90  2  0
 91 90  1  0
 91 95  1  0
 92 91  2  0
 93 88  2  0
 93 92  1  0
 94 93  1  0
 96 97  1  0
 97100  1  0
 97 99  1  0
 98 96  2  0
101102  1  0
101 76  1  0
103101  1  0
M  ISO  4  16 101  17 101  63 100  75 100
M  END
>  <TORSDO>  (11) 
F 23

>  <SCORE>  (11) 
-12.783

>  <name>  (11) 
10

>  <ligand_id>  (11) 
10

>  <original_smiles>  (11) 
[H]c1nc(N([H])C([H])([H])C([H])([H])C2([H])C([H])([H])N(C(=O)N3C([H])([H])C([H])([H])C([H])([H])C([H])(n4nc(-c5c([H])c([H])c(Oc6c([H])c([H])c(F)c([H])c6F)c([H])c5[H])c(C(=O)N([H])[H])c4N([H])[H])C3([H])[H])C([H])([H])C2([H])[H])c(C2([H])C([H])([H])C2([H])[H])nc1C1([H])C([H])([H])C1([H])[N+]([H])([H])C([H])([H])C([H])([H])Oc1c([H])c([H])c2c(c1[H])C([H])([H])N(C(=O)C([H])(N([H])C(=O)C([H])(N([H])C([H])([H])[H])C([H])([H])[H])C(C([H])([H])[H])(C([H])([H])[H])C([H])([H])[H])C([H])(C(=O)N([H])C1([H])c3c([H])c([H])c([H])c([H])c3C([H])([H])C([H])([H])C1([H])[H])C2([H])[H]

>  <smiles>  (11) 
[H]c1nc(N([H])C([H])([H])C([H])([H])C2([H])C([H])([H])N(C(=O)N3C([H])([H])C([H])([H])C([H])([H])C([H])(n4nc(-c5c([H])c([H])c(Oc6c([H])c([H])c(F)c([H])c6F)c([H])c5[H])c(C(=O)N([H])[H])c4N([H])[H])C3([H])[H])C([H])([H])C2([H])[H])c(C2([H])C([H])([H])C2([H])[H])nc1C1([H])C([H])([H])C1([H])[N+]([H])([H])C([H])([H])C([H])([H])Oc1c([H])c([H])c2c(c1[H])C([H])([H])N(C(=O)C([H])(N([H])C(=O)C([H])(N([H])C([H])([H])[H])C([H])([H])[H])C(C([H])([H])[H])(C([H])([H])[H])C([H])([H])[H])C([H])(C(=O)N([H])C1([H])c3c([H])c([H])c([H])c([H])c3C([H])([H])C([H])([H])C1([H])[H])C2([H])[H]

$$$$
11:0:0
     RDKit          3D

 94103  0  0  1  0  0  0  0  0999 V2000
  -30.5580  -21.3590   21.6960 C   0  0  0  0  0  2  0  0  0  0  0  0
  -30.0990  -22.8310   21.6800 C   0  0  0  0  0  2  0  0  0  0  0  0
  -28.5580  -21.5320   20.3890 C   0  0  0  0  0  2  0  0  0  0  0  0
  -29.9290  -20.8040   20.4220 C   0  0  0  0  0  3  0  0  0  0  0  0
  -28.7410  -22.8610   21.0720 N   0  0  2  0  0  4  0  0  0  0  0  0
  -28.0950  -22.8330   21.8500 H   0  0  0  0  0  0  0  0  0  0  0  0
  -29.7480  -18.1580   21.0950 C   0  0  0  0  0  3  0  0  0  0  0  0
  -30.0000  -19.2710   20.2140 C   0  0  0  0  0  0  0  0  0  0  0  0
  -30.0850  -17.0330   20.3670 C   0  0  0  0  0  0  0  0  0  0  0  0
  -30.8730  -16.7340   17.9210 C   0  0  0  0  0  1  0  0  0  0  0  0
  -30.4130  -18.8230   19.0300 N   0  0  0  0  0  0  0  0  0  0  0  0
  -30.4730  -17.4690   19.1070 N   0  0  0  0  0  0  0  0  0  0  0  0
  -30.7110  -14.6400   20.4380 C   0  0  0  0  0  0  0  0  0  0  0  0
  -30.4660  -12.4240   19.3740 C   0  0  0  0  0  2  0  0  0  0  0  0
  -29.5450  -12.5830   18.1450 C   0  0  0  0  0  2  0  0  0  0  0  0
  -28.0670  -12.4320   18.5510 C   0  0  0  0  0  2  0  0  0  0  0  0
  -27.6950  -13.2960   19.7870 C   0  0  0  0  0  3  0  0  0  0  0  0
  -28.7350  -13.1330   20.9190 C   0  0  0  0  0  2  0  0  0  0  0  0
  -30.0630  -13.4390   20.3650 N   0  0  0  0  0  0  0  0  0  0  0  0
  -31.8830  -14.7650   20.0720 O   0  0  0  0  0  0  0  0  0  0  0  0
  -29.9570  -15.7220   20.7800 N   0  0  0  0  0  0  0  0  0  0  0  0
  -29.0870  -15.4980   21.2370 H   0  0  0  0  0  0  0  0  0  0  0  0
  -25.2860  -13.8950   20.4500 C   0  0  0  0  0  0  0  0  0  0  0  0
  -24.2150  -13.1220   20.8080 C   0  0  0  0  0  0  0  0  0  0  0  0
  -24.6830  -11.7730   20.8070 C   0  0  0  0  0  0  0  0  0  0  0  0
  -26.3390  -13.0170   20.2500 N   0  0  0  0  0  0  0  0  0  0  0  0
  -25.9800  -11.7350   20.5270 N   0  0  0  0  0  0  0  0  0  0  0  0
  -23.9590  -10.5080   21.0000 C   0  0  0  0  0  0  0  0  0  0  0  0
  -24.3790   -9.5540   21.9510 C   0  0  0  0  0  3  0  0  0  0  0  0
  -23.6540   -8.3550   22.1320 C   0  0  0  0  0  3  0  0  0  0  0  0
  -22.4950   -8.1030   21.3590 C   0  0  0  0  0  0  0  0  0  0  0  0
  -22.0960   -9.0470   20.3960 C   0  0  0  0  0  3  0  0  0  0  0  0
  -22.8210  -10.2360   20.2150 C   0  0  0  0  0  3  0  0  0  0  0  0
  -21.7440   -6.9550   21.4470 O   0  0  0  0  0  0  0  0  0  0  0  0
  -21.6780   -6.2280   22.6070 C   0  0  0  0  0  0  0  0  0  0  0  0
  -21.2220   -6.7930   23.8170 C   0  0  0  0  0  3  0  0  0  0  0  0
  -21.1030   -5.9900   24.9700 C   0  0  0  0  0  3  0  0  0  0  0  0
  -21.4280   -4.6210   24.9120 C   0  0  0  0  0  0  0  0  0  0  0  0
  -21.8770   -4.0550   23.7070 C   0  0  0  0  0  3  0  0  0  0  0  0
  -21.9990   -4.8550   22.5560 C   0  0  0  0  0  0  0  0  0  0  0  0
  -22.4110   -4.2990   21.3920 F   0  0  0  0  0  0  0  0  0  0  0  0
  -21.3050   -3.8480   26.0160 F   0  0  0  0  0  0  0  0  0  0  0  0
  -22.8090  -13.5970   21.0430 C   0  0  0  0  0  0  0  0  0  0  0  0
  -22.0650  -12.9080   21.9040 N   0  0  0  0  0  0  0  0  0  0  0  0
  -22.3780  -14.6110   20.5000 O   0  0  0  0  0  0  0  0  0  0  0  0
  -22.4270  -12.0900   22.3690 H   0  0  0  0  0  0  0  0  0  0  0  0
  -21.1210  -13.2090   22.1030 H   0  0  0  0  0  0  0  0  0  0  0  0
  -25.4490  -15.2650   20.2560 N   0  0  0  0  0  0  0  0  0  0  0  0
  -24.6740  -15.9150   20.3190 H   0  0  0  0  0  0  0  0  0  0  0  0
  -26.3050  -15.7040   19.9400 H   0  0  0  0  0  0  0  0  0  0  0  0
  -28.3940  -24.1030   20.2740 C   0  0  0  0  0  2  0  0  0  0  0  0
  -27.6450  -25.5590   22.2970 C   0  0  0  0  0  1  0  0  0  0  0  0
  -28.5240  -25.4800   21.0330 C   0  0  0  0  0  3  0  0  0  0  0  0
  -28.4220  -26.6750   20.1960 O   0  0  0  0  0  0  0  0  0  0  0  0
  -24.5880  -31.8980   23.2370 C   0  0  0  0  0  0  0  0  0  0  0  0
  -27.2570  -27.4280   20.1940 C   0  0  0  0  0  0  0  0  0  0  0  0
  -23.3940  -30.4900   21.5900 C   0  0  0  0  0  3  0  0  0  0  0  0
  -24.8620  -28.9540   20.1720 C   0  0  0  0  0  0  0  0  0  0  0  0
  -25.9190  -30.8530   21.4040 C   0  0  0  0  0  2  0  0  0  0  0  0
  -26.0150  -29.4760   20.7680 C   0  0  0  0  0  0  0  0  0  0  0  0
  -27.2170  -28.7220   20.7720 C   0  0  0  0  0  3  0  0  0  0  0  0
  -26.0890  -26.9290   19.5800 C   0  0  0  0  0  3  0  0  0  0  0  0
  -24.8970  -27.6820   19.5700 C   0  0  0  0  0  3  0  0  0  0  0  0
  -23.6130  -29.8110   20.2110 C   0  0  0  0  0  2  0  0  0  0  0  0
  -24.6520  -31.0960   22.1360 N   0  0  0  0  0  0  0  0  0  0  0  0
  -23.5050  -32.1720   23.7700 O   0  0  0  0  0  0  0  0  0  0  0  0
  -22.7420  -29.4680   22.5490 C   0  0  0  0  0  0  0  0  0  0  0  0
  -21.4160  -29.2890   22.4230 N   0  0  0  0  0  0  0  0  0  0  0  0
  -23.4240  -28.8390   23.3600 O   0  0  0  0  0  0  0  0  0  0  0  0
  -20.9240  -29.8550   21.7480 H   0  0  0  0  0  0  0  0  0  0  0  0
  -18.0370  -28.1080   22.9220 C   0  0  0  0  0  0  0  0  0  0  0  0
  -20.5980  -28.3480   23.1870 C   0  0  0  0  0  3  0  0  0  0  0  0
  -20.6890  -26.9200   22.5980 C   0  0  0  0  0  2  0  0  0  0  0  0
  -19.5810  -26.6150   21.5830 C   0  0  0  0  0  2  0  0  0  0  0  0
  -18.2040  -26.7630   22.2360 C   0  0  0  0  0  2  0  0  0  0  0  0
  -19.1620  -28.8600   23.3550 C   0  0  0  0  0  0  0  0  0  0  0  0
  -18.9540  -30.1210   23.9560 C   0  0  0  0  0  3  0  0  0  0  0  0
  -17.6540  -30.6310   24.1290 C   0  0  0  0  0  3  0  0  0  0  0  0
  -16.5430  -29.8740   23.7160 C   0  0  0  0  0  3  0  0  0  0  0  0
  -16.7350  -28.6160   23.1190 C   0  0  0  0  0  3  0  0  0  0  0  0
  -25.8720  -32.5330   23.8620 C   0  0  0  0  0  3  0  0  0  0  0  0
  -26.3830  -31.7650   25.1420 C   0  0  1  0  0  0  0  0  0  0  0  0
  -25.2860  -31.5390   26.2090 C   0  0  0  0  0  1  0  0  0  0  0  0
  -26.9590  -30.3830   24.7540 C   0  0  0  0  0  1  0  0  0  0  0  0
  -27.5330  -32.5580   25.8080 C   0  0  0  0  0  1  0  0  0  0  0  0
  -25.5650  -33.9340   24.1830 N   0  0  0  0  0  0  0  0  0  0  0  0
  -25.9100  -34.9810   23.4210 C   0  0  0  0  0  0  0  0  0  0  0  0
  -26.5930  -34.8700   22.3990 O   0  0  0  0  0  0  0  0  0  0  0  0
  -24.9650  -34.0940   24.9790 H   0  0  0  0  0  0  0  0  0  0  0  0
  -24.1990  -36.7780   23.0220 C   0  0  0  0  0  1  0  0  0  0  0  0
  -25.4200  -36.3710   23.8630 C   0  0  0  0  0  3  0  0  0  0  0  0
  -27.5390  -37.2480   24.7420 C   0  0  0  0  0  1  0  0  0  0  0  0
  -26.4590  -37.4200   23.7720 N   0  0  0  0  0  0  0  0  0  0  0  0
  -26.0540  -38.3410   23.9120 H   0  0  0  0  0  0  0  0  0  0  0  0
  2  1  1  0
  3  4  1  0
  3  5  1  0
  4  8  1  0
  4  1  1  0
  5  2  1  0
  5  6  1  1
  8  7  1  0
  9 21  1  0
  9  7  2  0
 10 12  1  0
 11 12  1  0
 11  8  2  0
 12  9  1  0
 13 21  1  0
 14 19  1  0
 15 16  1  0
 15 14  1  0
 17 16  1  0
 17 26  1  0
 17 18  1  0
 19 13  1  0
 19 18  1  0
 20 13  2  0
 21 22  1  0
 23 24  2  0
 24 43  1  0
 25 24  1  0
 25 28  1  0
 26 23  1  0
 26 27  1  0
 27 25  2  0
 28 29  1  0
 29 30  2  0
 31 34  1  0
 31 30  1  0
 32 31  2  0
 33 32  1  0
 33 28  2  0
 34 35  1  0
 35 36  1  0
 36 37  2  0
 38 37  1  0
 38 42  1  0
 39 38  2  0
 40 35  2  0
 40 39  1  0
 41 40  1  0
 43 44  1  0
 44 47  1  0
 44 46  1  0
 45 43  2  0
 48 49  1  0
 48 23  1  0
 50 48  1  0
 51 53  1  0
 51  5  1  0
 53 52  1  0
 54 53  1  0
 55 66  2  0
 56 54  1  0
 56 61  1  0
 57 65  1  0
 57 67  1  0
 58 64  1  0
 58 60  1  0
 59 65  1  0
 60 61  2  0
 60 59  1  0
 62 56  2  0
 63 62  1  0
 63 58  2  0
 64 57  1  0
 65 55  1  0
 67 69  2  0
 68 67  1  0
 70 68  1  0
 71 80  2  0
 71 76  1  0
 72 68  1  0
 72 76  1  0
 73 72  1  0
 74 75  1  0
 74 73  1  0
 75 71  1  0
 76 77  2  0
 77 78  1  0
 79 78  2  0
 80 79  1  0
 81 55  1  0
 81 86  1  0
 81 82  1  0
 82 85  1  1
 82 83  1  0
 84 82  1  0
 86 89  1  0
 87 91  1  0
 87 86  1  0
 88 87  2  0
 91 90  1  0
 93 91  1  0
 93 94  1  0
 93 92  1  0
M  ISO  4  13 100  21 100  53 101  54 101
M  END
>  <TORSDO>  (12) 
F 19

>  <SCORE>  (12) 
-14.255

>  <name>  (12) 
11

>  <ligand_id>  (12) 
11

>  <original_smiles>  (12) 
[H]c1c([H])c([H])c2c(c1[H])C([H])([H])C([H])([H])C([H])([H])C2([H])N([H])C(=O)C1([H])N(C(=O)C([H])(N([H])C(=O)C([H])(N([H])C([H])([H])[H])C([H])([H])[H])C(C([H])([H])[H])(C([H])([H])[H])C([H])([H])[H])C([H])([H])c2c([H])c(OC([H])(C([H])([H])[H])C([H])([H])[N+]3([H])C([H])([H])C([H])([H])C([H])(c4nn(C([H])([H])[H])c(N([H])C(=O)N5C([H])([H])C([H])([H])C([H])([H])C([H])(n6nc(-c7c([H])c([H])c(Oc8c([H])c([H])c(F)c([H])c8F)c([H])c7[H])c(C(=O)N([H])[H])c6N([H])[H])C5([H])[H])c4[H])C3([H])[H])c([H])c([H])c2C1([H])[H]

>  <smiles>  (12) 
[H]c1c([H])c([H])c2c(c1[H])C([H])([H])C([H])([H])C([H])([H])C2([H])N([H])C(=O)C1([H])N(C(=O)C([H])(N([H])C(=O)C([H])(N([H])C([H])([H])[H])C([H])([H])[H])C(C([H])([H])[H])(C([H])([H])[H])C([H])([H])[H])C([H])([H])c2c([H])c(OC([H])(C([H])([H])[H])C([H])([H])[N+]3([H])C([H])([H])C([H])([H])C([H])(c4nn(C([H])([H])[H])c(N([H])C(=O)N5C([H])([H])C([H])([H])C([H])([H])C([H])(n6nc(-c7c([H])c([H])c(Oc8c([H])c([H])c(F)c([H])c8F)c([H])c7[H])c(C(=O)N([H])[H])c6N([H])[H])C5([H])[H])c4[H])C3([H])[H])c([H])c([H])c2C1([H])[H]

$$$$
12:0:0
     RDKit          3D

100104  0  0  1  0  0  0  0  0999 V2000
  -26.2810  -19.3650   22.1400 C   0  0  0  0  0  2  0  0  0  0  0  0
  -26.4550  -17.8340   22.5750 C   0  0  0  0  0  2  0  0  0  0  0  0
  -28.4910  -18.7420   22.3510 C   0  0  0  0  0  2  0  0  0  0  0  0
  -27.6230  -20.0050   21.6720 C   0  0  0  0  0  3  0  0  0  0  0  0
  -27.8160  -17.3300   22.2860 N   0  0  0  0  0  0  0  0  0  0  0  0
  -27.7710  -21.6060   21.9720 N   0  0  0  0  0  4  0  0  0  0  0  0
  -28.6130  -21.6970   22.5150 H   0  0  0  0  0  0  0  0  0  0  0  0
  -27.0270  -21.8130   22.6200 H   0  0  0  0  0  0  0  0  0  0  0  0
  -27.7920  -22.8520   20.9160 C   0  0  0  0  0  2  0  0  0  0  0  0
  -27.6230  -24.5560   21.2770 C   0  0  0  0  0  2  0  0  0  0  0  0
  -28.0240  -25.9060   20.4990 O   0  0  0  0  0  0  0  0  0  0  0  0
  -24.6460  -31.8430   23.1860 C   0  0  0  0  0  0  0  0  0  0  0  0
  -27.1100  -27.0180   20.3150 C   0  0  0  0  0  0  0  0  0  0  0  0
  -23.4500  -30.4640   21.5280 C   0  0  0  0  0  3  0  0  0  0  0  0
  -24.8940  -28.8830   20.1060 C   0  0  0  0  0  0  0  0  0  0  0  0
  -26.0080  -30.6960   21.3940 C   0  0  0  0  0  2  0  0  0  0  0  0
  -26.0660  -29.2950   20.7560 C   0  0  0  0  0  0  0  0  0  0  0  0
  -27.1870  -28.3790   20.8340 C   0  0  0  0  0  3  0  0  0  0  0  0
  -25.9540  -26.7470   19.5600 C   0  0  0  0  0  3  0  0  0  0  0  0
  -24.8630  -27.6360   19.4670 C   0  0  0  0  0  3  0  0  0  0  0  0
  -23.6810  -29.7990   20.1430 C   0  0  0  0  0  2  0  0  0  0  0  0
  -24.7210  -31.0260   22.0890 N   0  0  0  0  0  0  0  0  0  0  0  0
  -23.5590  -32.1310   23.7060 O   0  0  0  0  0  0  0  0  0  0  0  0
  -22.7580  -29.4540   22.4800 C   0  0  0  0  0  0  0  0  0  0  0  0
  -21.4270  -29.3060   22.3590 N   0  0  0  0  0  0  0  0  0  0  0  0
  -23.4210  -28.8050   23.2940 O   0  0  0  0  0  0  0  0  0  0  0  0
  -20.9490  -29.8790   21.6780 H   0  0  0  0  0  0  0  0  0  0  0  0
  -18.0310  -28.1400   22.8460 C   0  0  0  0  0  0  0  0  0  0  0  0
  -20.5920  -28.3740   23.1220 C   0  0  0  0  0  3  0  0  0  0  0  0
  -20.6800  -26.9440   22.5400 C   0  0  0  0  0  2  0  0  0  0  0  0
  -19.5780  -26.6380   21.5210 C   0  0  0  0  0  2  0  0  0  0  0  0
  -18.1950  -26.7930   22.1620 C   0  0  0  0  0  2  0  0  0  0  0  0
  -19.1560  -28.8890   23.2830 C   0  0  0  0  0  0  0  0  0  0  0  0
  -18.9480  -30.1470   23.8870 C   0  0  0  0  0  3  0  0  0  0  0  0
  -17.6470  -30.6600   24.0550 C   0  0  0  0  0  3  0  0  0  0  0  0
  -16.5360  -29.9090   23.6330 C   0  0  0  0  0  3  0  0  0  0  0  0
  -16.7290  -28.6500   23.0350 C   0  0  0  0  0  3  0  0  0  0  0  0
  -25.9230  -32.4670   23.8250 C   0  0  0  0  0  3  0  0  0  0  0  0
  -25.5970  -33.8480   24.2170 N   0  0  0  0  0  0  0  0  0  0  0  0
  -25.9080  -34.9400   23.5050 C   0  0  0  0  0  0  0  0  0  0  0  0
  -26.5670  -34.8900   22.4630 O   0  0  0  0  0  0  0  0  0  0  0  0
  -25.0080  -33.9580   25.0290 H   0  0  0  0  0  0  0  0  0  0  0  0
  -24.1500  -36.7270   23.2640 C   0  0  0  0  0  1  0  0  0  0  0  0
  -25.4130  -36.3020   24.0310 C   0  0  0  0  0  3  0  0  0  0  0  0
  -27.5580  -37.1790   24.8460 C   0  0  0  0  0  1  0  0  0  0  0  0
  -26.4280  -37.3730   23.9410 N   0  0  0  0  0  0  0  0  0  0  0  0
  -26.0150  -38.2800   24.1390 H   0  0  0  0  0  0  0  0  0  0  0  0
  -26.4530  -31.6540   25.0700 C   0  0  1  0  0  0  0  0  0  0  0  0
  -25.3720  -31.3740   26.1400 C   0  0  0  0  0  1  0  0  0  0  0  0
  -27.0370  -30.2920   24.6290 C   0  0  0  0  0  1  0  0  0  0  0  0
  -27.6060  -32.4290   25.7490 C   0  0  0  0  0  1  0  0  0  0  0  0
  -28.3000  -15.9770   23.0340 C   0  0  0  0  0  2  0  0  0  0  0  0
  -27.1980  -13.3250   23.1930 C   0  0  0  0  0  3  0  0  0  0  0  0
  -28.1020  -11.6570   21.6960 C   0  0  0  0  0  3  0  0  0  0  0  0
  -28.1080  -14.3000   22.6950 C   0  0  0  0  0  0  0  0  0  0  0  0
  -28.8080  -12.6340   20.8570 C   0  0  0  0  0  2  0  0  0  0  0  0
  -30.4980  -12.9100   17.5240 C   0  0  0  0  0  2  0  0  0  0  0  0
  -28.9560  -14.1400   17.4370 C   0  0  0  0  0  2  0  0  0  0  0  0
  -30.4600  -14.4190   17.3110 C   0  0  0  0  0  3  0  0  0  0  0  0
  -27.3070  -11.9910   22.8090 N   0  0  0  0  0  0  0  0  0  0  0  0
  -29.0600  -13.5190   22.0420 N   0  0  0  0  0  2  0  0  0  0  0  0
  -29.3400  -13.1270   18.4970 N   0  0  0  0  0  2  0  0  0  0  0  0
  -31.3510  -14.9060   19.6920 C   0  0  0  0  0  0  0  0  0  0  0  0
  -31.0010  -12.3820   20.0420 C   0  0  0  0  0  1  0  0  0  0  0  0
  -29.7100  -11.0070   19.3230 C   0  0  0  0  0 15  0  0  0  0  0  0
  -27.8070  -11.4770   18.9430 C   0  0  0  0  0 15  0  0  0  0  0  0
  -27.1720  -13.3510   19.3640 C   0  0  0  0  0  1  0  0  0  0  0  0
  -28.6280  -14.7700   19.9740 C   0  0  0  0  0 15  0  0  0  0  0  0
  -30.4660  -14.1680   20.2050 N   0  0  0  0  0  2  0  0  0  0  0  0
  -32.4020  -15.0860   20.2470 O   0  0  0  0  0  0  0  0  0  0  0  0
  -31.1370  -15.2280   18.3940 N   0  0  0  0  0  0  0  0  0  0  0  0
  -31.8580  -15.8380   18.0380 H   0  0  0  0  0  0  0  0  0  0  0  0
  -25.0870  -13.9380   20.6070 C   0  0  0  0  0  0  0  0  0  0  0  0
  -24.0540  -13.1320   20.9970 C   0  0  0  0  0  0  0  0  0  0  0  0
  -24.4890  -11.7780   20.9000 C   0  0  0  0  0  0  0  0  0  0  0  0
  -26.0440  -13.0820   20.2040 N   0  0  0  0  0  0  0  0  0  0  0  0
  -25.6730  -11.7900   20.3960 N   0  0  0  0  0  0  0  0  0  0  0  0
  -23.8270  -10.4790   21.0610 C   0  0  0  0  0  0  0  0  0  0  0  0
  -24.3250   -9.4720   21.9220 C   0  0  0  0  0  3  0  0  0  0  0  0
  -23.6280   -8.2500   22.0710 C   0  0  0  0  0  3  0  0  0  0  0  0
  -22.4290   -8.0300   21.3510 C   0  0  0  0  0  0  0  0  0  0  0  0
  -21.9740   -9.0150   20.4580 C   0  0  0  0  0  3  0  0  0  0  0  0
  -22.6680  -10.2250   20.3080 C   0  0  0  0  0  3  0  0  0  0  0  0
  -21.6780   -6.8810   21.4190 O   0  0  0  0  0  0  0  0  0  0  0  0
  -21.6940   -6.0720   22.5260 C   0  0  0  0  0  0  0  0  0  0  0  0
  -21.4090   -6.5650   23.8170 C   0  0  0  0  0  3  0  0  0  0  0  0
  -21.3700   -5.6820   24.9160 C   0  0  0  0  0  3  0  0  0  0  0  0
  -21.6020   -4.3060   24.7230 C   0  0  0  0  0  0  0  0  0  0  0  0
  -21.8810   -3.8130   23.4360 C   0  0  0  0  0  3  0  0  0  0  0  0
  -21.9210   -4.6940   22.3400 C   0  0  0  0  0  0  0  0  0  0  0  0
  -22.1650   -4.2120   21.0970 F   0  0  0  0  0  0  0  0  0  0  0  0
  -21.5620   -3.4550   25.7740 F   0  0  0  0  0  0  0  0  0  0  0  0
  -22.6690  -13.5800   21.2630 C   0  0  0  0  0  0  0  0  0  0  0  0
  -21.9590  -12.8480   22.1110 N   0  0  0  0  0  0  0  0  0  0  0  0
  -22.2270  -14.5900   20.7220 O   0  0  0  0  0  0  0  0  0  0  0  0
  -22.3530  -12.0240   22.5400 H   0  0  0  0  0  0  0  0  0  0  0  0
  -21.0120  -13.1130   22.3380 H   0  0  0  0  0  0  0  0  0  0  0  0
  -25.2880  -15.2960   20.4380 N   0  0  0  0  0  0  0  0  0  0  0  0
  -24.5620  -15.9820   20.6130 H   0  0  0  0  0  0  0  0  0  0  0  0
  -26.1460  -15.7020   20.0920 H   0  0  0  0  0  0  0  0  0  0  0  0
  1  2  1  0
  4  6  1  0
  4  1  1  0
  4  3  1  0
  5  3  1  0
  5  2  1  0
  5 52  1  0
  6  7  1  0
  6  8  1  0
  9 10  1  0
  9  6  1  0
 11 10  1  0
 12 23  2  0
 13 11  1  0
 13 18  1  0
 14 22  1  0
 14 24  1  0
 15 21  1  0
 15 17  1  0
 16 22  1  0
 17 18  2  0
 17 16  1  0
 19 13  2  0
 20 19  1  0
 20 15  2  0
 21 14  1  0
 22 12  1  0
 24 26  2  0
 25 24  1  0
 27 25  1  0
 28 37  2  0
 28 33  1  0
 29 25  1  0
 29 33  1  0
 30 29  1  0
 31 32  1  0
 31 30  1  0
 32 28  1  0
 33 34  2  0
 34 35  1  0
 36 35  2  0
 37 36  1  0
 38 12  1  0
 38 39  1  0
 38 48  1  0
 39 42  1  0
 40 44  1  0
 40 39  1  0
 41 40  2  0
 44 43  1  0
 46 44  1  0
 46 47  1  0
 46 45  1  0
 48 51  1  1
 48 49  1  0
 50 48  1  0
 54 60  2  0
 55 52  1  0
 55 53  2  0
 56 54  1  0
 56 61  1  0
 57 62  1  0
 58 62  1  0
 59 58  1  0
 59 57  1  0
 59 71  1  0
 60 53  1  0
 61 55  1  0
 63 69  1  0
 63 70  2  0
 64 69  1  0
 67 76  1  0
 71 63  1  0
 72 71  1  0
 73 74  2  0
 74 93  1  0
 75 74  1  0
 75 78  1  0
 76 77  1  0
 76 73  1  0
 77 75  2  0
 78 79  1  0
 79 80  2  0
 81 84  1  0
 81 80  1  0
 82 81  2  0
 83 82  1  0
 83 78  2  0
 84 85  1  0
 85 86  1  0
 86 87  2  0
 88 87  1  0
 88 92  1  0
 89 88  2  0
 90 85  2  0
 90 89  1  0
 91 90  1  0
 93 94  1  0
 94 97  1  0
 94 96  1  0
 95 93  2  0
 98 73  1  0
 98 99  1  0
100 98  1  0
M  ISO  4  10 101  11 101  63 100  71 100
M  END
>  <TORSDO>  (13) 
F 21

>  <SCORE>  (13) 
29.708

>  <name>  (13) 
12

>  <ligand_id>  (13) 
12

>  <original_smiles>  (13) 
[H]c1nc([H])c(C([H])([H])N2C([H])([H])C([H])([H])C([H])([N+]([H])([H])C([H])([H])C([H])([H])Oc3c([H])c([H])c4c(c3[H])C([H])([H])N(C(=O)C([H])(N([H])C(=O)C([H])(N([H])C([H])([H])[H])C([H])([H])[H])C(C([H])([H])[H])(C([H])([H])[H])C([H])([H])[H])C([H])(C(=O)N([H])C3([H])c5c([H])c([H])c([H])c([H])c5C([H])([H])C([H])([H])C3([H])[H])C4([H])[H])C2([H])[H])nc1N1C([H])([H])C([H])(N([H])C(=O)N2C([H])([H])C([H])([H])C([H])([H])C([H])(n3nc(-c4c([H])c([H])c(Oc5c([H])c([H])c(F)c([H])c5F)c([H])c4[H])c(C(=O)N([H])[H])c3N([H])[H])C2([H])[H])C1([H])[H]

>  <smiles>  (13) 
[H]c1nc([H])c(C([H])([H])N2C([H])([H])C([H])([H])C([H])([N+]([H])([H])C([H])([H])C([H])([H])Oc3c([H])c([H])c4c(c3[H])C([H])([H])N(C(=O)C([H])(N([H])C(=O)C([H])(N([H])C([H])([H])[H])C([H])([H])[H])C(C([H])([H])[H])(C([H])([H])[H])C([H])([H])[H])C([H])(C(=O)N([H])C3([H])c5c([H])c([H])c([H])c([H])c5C([H])([H])C([H])([H])C3([H])[H])C4([H])[H])C2([H])[H])nc1N1C([H])([H])C([H])(N([H])C(=O)N2C([H])([H])C([H])([H])C([H])([H])C([H])(n3nc(-c4c([H])c([H])c(Oc5c([H])c([H])c(F)c([H])c5F)c([H])c4[H])c(C(=O)N([H])[H])c3N([H])[H])C2([H])[H])C1([H])[H]

$$$$
13:0:0
     RDKit          3D

 97108  0  0  1  0  0  0  0  0999 V2000
  -31.4910  -19.4270   20.9950 C   0  0  0  0  0  3  0  0  0  0  0  0
  -32.0580  -20.6990   21.0990 C   0  0  0  0  0  0  0  0  0  0  0  0
  -30.3690  -19.2790   20.1720 C   0  0  0  0  0  0  0  0  0  0  0  0
  -30.4950  -21.5050   19.6270 C   0  0  0  0  0  0  0  0  0  0  0  0
  -31.5450  -21.7390   20.4160 N   0  0  0  0  0  0  0  0  0  0  0  0
  -29.8710  -20.3310   19.4950 N   0  0  0  0  0  0  0  0  0  0  0  0
  -30.7690  -14.3870   19.8400 C   0  0  0  0  0  0  0  0  0  0  0  0
  -30.3820  -12.2140   18.7550 C   0  0  0  0  0  2  0  0  0  0  0  0
  -29.3340  -12.3830   17.6370 C   0  0  0  0  0  2  0  0  0  0  0  0
  -27.9000  -12.2500   18.1960 C   0  0  0  0  0  2  0  0  0  0  0  0
  -27.6730  -13.0660   19.4980 C   0  0  0  0  0  3  0  0  0  0  0  0
  -28.8360  -12.8490   20.4910 C   0  0  0  0  0  2  0  0  0  0  0  0
  -30.0760  -13.2140   19.7910 N   0  0  0  0  0  0  0  0  0  0  0  0
  -31.8920  -14.4850   19.3330 O   0  0  0  0  0  0  0  0  0  0  0  0
  -29.1770  -17.3540   21.3630 C   0  0  0  0  0  2  0  0  0  0  0  0
  -29.1360  -15.8410   21.1410 C   0  0  0  0  0  2  0  0  0  0  0  0
  -30.5660  -16.8060   19.4910 C   0  0  0  0  0  2  0  0  0  0  0  0
  -29.6730  -17.9240   20.0410 C   0  0  0  0  0  3  0  0  0  0  0  0
  -30.0720  -15.5370   20.0540 N   0  0  0  0  0  0  0  0  0  0  0  0
  -25.3660  -13.6300   20.4910 C   0  0  0  0  0  0  0  0  0  0  0  0
  -24.3390  -12.8380   20.9260 C   0  0  0  0  0  0  0  0  0  0  0  0
  -24.7870  -11.4900   20.7670 C   0  0  0  0  0  0  0  0  0  0  0  0
  -26.3770  -12.7650   20.1010 N   0  0  0  0  0  0  0  0  0  0  0  0
  -26.0370  -11.4700   20.3220 N   0  0  0  0  0  0  0  0  0  0  0  0
  -24.0790  -10.2190   20.9580 C   0  0  0  0  0  0  0  0  0  0  0  0
  -24.5180   -9.2610   21.9000 C   0  0  0  0  0  3  0  0  0  0  0  0
  -23.8090   -8.0540   22.0780 C   0  0  0  0  0  3  0  0  0  0  0  0
  -22.6460   -7.7940   21.3130 C   0  0  0  0  0  0  0  0  0  0  0  0
  -22.2260   -8.7420   20.3630 C   0  0  0  0  0  3  0  0  0  0  0  0
  -22.9360   -9.9410   20.1840 C   0  0  0  0  0  3  0  0  0  0  0  0
  -21.9090   -6.6380   21.3990 O   0  0  0  0  0  0  0  0  0  0  0  0
  -21.7310   -5.9860   22.5930 C   0  0  0  0  0  0  0  0  0  0  0  0
  -21.0600   -6.5910   23.6780 C   0  0  0  0  0  3  0  0  0  0  0  0
  -20.8360   -5.8600   24.8620 C   0  0  0  0  0  3  0  0  0  0  0  0
  -21.2730   -4.5270   24.9610 C   0  0  0  0  0  0  0  0  0  0  0  0
  -21.9390   -3.9220   23.8800 C   0  0  0  0  0  3  0  0  0  0  0  0
  -22.1640   -4.6490   22.6980 C   0  0  0  0  0  0  0  0  0  0  0  0
  -22.7860   -4.0550   21.6520 F   0  0  0  0  0  0  0  0  0  0  0  0
  -21.0520   -3.8220   26.0950 F   0  0  0  0  0  0  0  0  0  0  0  0
  -22.9810  -13.2980   21.3720 C   0  0  0  0  0  0  0  0  0  0  0  0
  -22.3490  -12.5600   22.2760 N   0  0  0  0  0  0  0  0  0  0  0  0
  -22.4930  -14.3470   20.9520 O   0  0  0  0  0  0  0  0  0  0  0  0
  -22.7610  -11.7120   22.6360 H   0  0  0  0  0  0  0  0  0  0  0  0
  -21.4450  -12.8500   22.6190 H   0  0  0  0  0  0  0  0  0  0  0  0
  -25.5160  -15.0100   20.3740 N   0  0  0  0  0  0  0  0  0  0  0  0
  -24.7680  -15.6520   20.6040 H   0  0  0  0  0  0  0  0  0  0  0  0
  -26.3180  -15.4630   19.9540 H   0  0  0  0  0  0  0  0  0  0  0  0
  -33.6150  -20.0490   23.1110 C   0  0  0  0  0  2  0  0  0  0  0  0
  -33.0220  -21.4030   23.4190 C   0  0  0  0  0  2  0  0  0  0  0  0
  -33.2330  -20.9830   21.9840 C   0  0  0  0  0  3  0  0  0  0  0  0
  -29.9670  -22.6690   18.8000 C   0  0  0  0  0  2  0  0  0  0  0  0
  -29.3990  -24.6750   20.2080 C   0  0  0  0  0  2  0  0  0  0  0  0
  -28.0000  -24.2060   18.7580 C   0  0  0  0  0  2  0  0  0  0  0  0
  -28.0250  -25.2520   19.8720 C   0  0  0  0  0  3  0  0  0  0  0  0
  -28.9600  -23.4390   19.5540 N   0  0  1  0  0  4  0  0  0  0  0  0
  -28.4950  -22.8290   20.2070 H   0  0  0  0  0  0  0  0  0  0  0  0
  -28.1100  -26.6060   19.4390 O   0  0  0  0  0  0  0  0  0  0  0  0
  -24.5200  -31.5070   23.0920 C   0  0  0  0  0  0  0  0  0  0  0  0
  -26.9420  -27.3180   19.5440 C   0  0  0  0  0  0  0  0  0  0  0  0
  -23.2090  -30.2490   21.4120 C   0  0  0  0  0  3  0  0  0  0  0  0
  -24.5630  -28.8140   19.7940 C   0  0  0  0  0  0  0  0  0  0  0  0
  -25.7190  -30.6090   21.0990 C   0  0  0  0  0  2  0  0  0  0  0  0
  -25.7540  -29.2870   20.3630 C   0  0  0  0  0  0  0  0  0  0  0  0
  -26.9460  -28.5460   20.2360 C   0  0  0  0  0  3  0  0  0  0  0  0
  -25.7400  -26.8570   18.9600 C   0  0  0  0  0  3  0  0  0  0  0  0
  -24.5510  -27.6010   19.0840 C   0  0  0  0  0  3  0  0  0  0  0  0
  -23.3340  -29.6780   19.9750 C   0  0  0  0  0  2  0  0  0  0  0  0
  -24.5050  -30.7960   21.9290 N   0  0  0  0  0  0  0  0  0  0  0  0
  -23.4730  -31.7460   23.7080 O   0  0  0  0  0  0  0  0  0  0  0  0
  -22.5950  -29.1620   22.3220 C   0  0  0  0  0  0  0  0  0  0  0  0
  -21.2720  -28.9650   22.2030 N   0  0  0  0  0  0  0  0  0  0  0  0
  -23.3030  -28.5020   23.0870 O   0  0  0  0  0  0  0  0  0  0  0  0
  -20.7620  -29.5530   21.5590 H   0  0  0  0  0  0  0  0  0  0  0  0
  -17.9320  -27.6750   22.6530 C   0  0  0  0  0  0  0  0  0  0  0  0
  -20.4830  -27.9720   22.9290 C   0  0  0  0  0  3  0  0  0  0  0  0
  -20.6150  -26.5780   22.2780 C   0  0  0  0  0  2  0  0  0  0  0  0
  -19.5150  -26.2820   21.2530 C   0  0  0  0  0  2  0  0  0  0  0  0
  -18.1350  -26.3650   21.9110 C   0  0  0  0  0  2  0  0  0  0  0  0
  -19.0350  -28.4370   23.1180 C   0  0  0  0  0  0  0  0  0  0  0  0
  -18.7940  -29.6640   23.7740 C   0  0  0  0  0  3  0  0  0  0  0  0
  -17.4800  -30.1330   23.9640 C   0  0  0  0  0  3  0  0  0  0  0  0
  -16.3900  -29.3660   23.5160 C   0  0  0  0  0  3  0  0  0  0  0  0
  -16.6160  -28.1380   22.8700 C   0  0  0  0  0  3  0  0  0  0  0  0
  -25.8470  -32.0710   23.6920 C   0  0  0  0  0  3  0  0  0  0  0  0
  -26.3970  -31.2160   24.8980 C   0  0  1  0  0  0  0  0  0  0  0  0
  -25.3440  -30.9410   25.9980 C   0  0  0  0  0  1  0  0  0  0  0  0
  -26.9200  -29.8520   24.3940 C   0  0  0  0  0  1  0  0  0  0  0  0
  -27.5970  -31.9400   25.5550 C   0  0  0  0  0  1  0  0  0  0  0  0
  -25.5890  -33.4540   24.1070 N   0  0  0  0  0  0  0  0  0  0  0  0
  -25.9260  -34.5370   23.3940 C   0  0  0  0  0  0  0  0  0  0  0  0
  -26.5600  -34.4720   22.3370 O   0  0  0  0  0  0  0  0  0  0  0  0
  -25.0310  -33.5810   24.9400 H   0  0  0  0  0  0  0  0  0  0  0  0
  -24.2490  -36.3940   23.1740 C   0  0  0  0  0  1  0  0  0  0  0  0
  -25.4910  -35.9090   23.9390 C   0  0  0  0  0  3  0  0  0  0  0  0
  -27.6540  -36.6920   24.7990 C   0  0  0  0  0  1  0  0  0  0  0  0
  -26.5530  -36.9350   23.8690 N   0  0  0  0  0  0  0  0  0  0  0  0
  -26.1760  -37.8600   24.0570 H   0  0  0  0  0  0  0  0  0  0  0  0
  1  2  2  0
  2 50  1  0
  3  1  1  0
  4  5  2  0
  5  2  1  0
  6  4  1  0
  6  3  2  0
  7 19  1  0
  8 13  1  0
  9 10  1  0
  9  8  1  0
 11 10  1  0
 11 23  1  0
 11 12  1  0
 13  7  1  0
 13 12  1  0
 14  7  2  0
 16 15  1  0
 17 18  1  0
 17 19  1  0
 18  3  1  0
 18 15  1  0
 19 16  1  0
 20 21  2  0
 21 40  1  0
 22 21  1  0
 22 25  1  0
 23 24  1  0
 23 20  1  0
 24 22  2  0
 25 26  1  0
 26 27  2  0
 28 31  1  0
 28 27  1  0
 29 28  2  0
 30 29  1  0
 30 25  2  0
 31 32  1  0
 32 37  2  0
 32 33  1  0
 33 34  2  0
 34 35  1  0
 35 39  1  0
 36 35  2  0
 37 36  1  0
 38 37  1  0
 40 41  1  0
 41 44  1  0
 41 43  1  0
 42 40  2  0
 45 20  1  0
 45 46  1  0
 47 45  1  0
 48 49  1  0
 50 48  1  0
 50 49  1  0
 51 55  1  0
 51  4  1  0
 53 55  1  0
 53 54  1  0
 54 57  1  0
 54 52  1  0
 55 56  1  1
 55 52  1  0
 57 59  1  0
 58 69  2  0
 59 64  1  0
 60 68  1  0
 60 70  1  0
 61 67  1  0
 61 63  1  0
 62 68  1  0
 63 62  1  0
 64 63  2  0
 65 66  1  0
 65 59  2  0
 66 61  2  0
 67 60  1  0
 68 58  1  0
 70 72  2  0
 71 70  1  0
 73 71  1  0
 74 83  2  0
 74 79  1  0
 75 71  1  0
 75 79  1  0
 76 75  1  0
 77 78  1  0
 77 76  1  0
 78 74  1  0
 79 80  2  0
 80 81  1  0
 82 81  2  0
 83 82  1  0
 84 58  1  0
 84 89  1  0
 84 85  1  0
 85 88  1  1
 85 86  1  0
 87 85  1  0
 89 92  1  0
 90 94  1  0
 90 89  1  0
 91 90  2  0
 94 93  1  0
 96 94  1  0
 96 97  1  0
 96 95  1  0
M  ISO  4   7 100  19 100  54 101  57 101
M  END
>  <TORSDO>  (14) 
F 19

>  <SCORE>  (14) 
-12.184

>  <name>  (14) 
13

>  <ligand_id>  (14) 
13

>  <original_smiles>  (14) 
[H]c1c(C2([H])C([H])([H])N(C(=O)N3C([H])([H])C([H])([H])C([H])([H])C([H])(n4nc(-c5c([H])c([H])c(Oc6c([H])c([H])c(F)c([H])c6F)c([H])c5[H])c(C(=O)N([H])[H])c4N([H])[H])C3([H])[H])C([H])([H])C2([H])[H])nc(C([H])([H])[N+]2([H])C([H])([H])C([H])(Oc3c([H])c([H])c4c(c3[H])C([H])([H])N(C(=O)C([H])(N([H])C(=O)C([H])(N([H])C([H])([H])[H])C([H])([H])[H])C(C([H])([H])[H])(C([H])([H])[H])C([H])([H])[H])C([H])(C(=O)N([H])C3([H])c5c([H])c([H])c([H])c([H])c5C([H])([H])C([H])([H])C3([H])[H])C4([H])[H])C2([H])[H])nc1C1([H])C([H])([H])C1([H])[H]

>  <smiles>  (14) 
[H]c1c(C2([H])C([H])([H])N(C(=O)N3C([H])([H])C([H])([H])C([H])([H])C([H])(n4nc(-c5c([H])c([H])c(Oc6c([H])c([H])c(F)c([H])c6F)c([H])c5[H])c(C(=O)N([H])[H])c4N([H])[H])C3([H])[H])C([H])([H])C2([H])[H])nc(C([H])([H])[N+]2([H])C([H])([H])C([H])(Oc3c([H])c([H])c4c(c3[H])C([H])([H])N(C(=O)C([H])(N([H])C(=O)C([H])(N([H])C([H])([H])[H])C([H])([H])[H])C(C([H])([H])[H])(C([H])([H])[H])C([H])([H])[H])C([H])(C(=O)N([H])C3([H])c5c([H])c([H])c([H])c([H])c5C([H])([H])C([H])([H])C3([H])[H])C4([H])[H])C2([H])[H])nc1C1([H])C([H])([H])C1([H])[H]

$$$$
14:0:0
     RDKit          3D

101112  0  0  1  0  0  0  0  0999 V2000
  -30.1630  -22.4540   18.9290 C   0  0  0  0  0  2  0  0  0  0  0  0
  -28.2570  -21.6370   20.0800 C   0  0  0  0  0  2  0  0  0  0  0  0
  -27.4160  -23.5390   19.0150 C   0  0  0  0  0  2  0  0  0  0  0  0
  -29.0930  -22.1340   17.8590 C   0  0  0  0  0  3  0  0  0  0  0  0
  -27.7950  -22.0840   18.6940 C   0  0  0  0  0  3  0  0  0  0  0  0
  -29.3000  -22.7470   20.1730 C   0  0  0  0  0  3  0  0  0  0  0  0
  -28.5130  -23.9830   19.9200 N   0  0  2  0  0  4  0  0  0  0  0  0
  -29.1110  -24.6180   19.4080 H   0  0  0  0  0  0  0  0  0  0  0  0
  -29.3800  -20.9300   16.9740 C   0  0  0  0  0  0  0  0  0  0  0  0
  -29.9080  -20.0940   14.9890 C   0  0  0  0  0  0  0  0  0  0  0  0
  -29.9650  -18.8210   16.7860 C   0  0  0  0  0  0  0  0  0  0  0  0
  -30.1450  -20.2760   13.5040 C   0  0  0  0  0  1  0  0  0  0  0  0
  -29.5180  -21.1640   15.6710 N   0  0  0  0  0  4  0  0  0  0  0  0
  -29.5570  -19.7750   17.5950 N   0  0  0  0  0  0  0  0  0  0  0  0
  -30.1740  -18.8920   15.4880 N   0  0  0  0  0  2  0  0  0  0  0  0
  -30.4050  -17.6620   17.3550 N   0  0  0  0  0  0  0  0  0  0  0  0
  -30.8500  -17.0750   16.6610 H   0  0  0  0  0  0  0  0  0  0  0  0
  -30.8130  -14.4900   20.9350 C   0  0  0  0  0  0  0  0  0  0  0  0
  -30.5910  -12.2400   20.0160 C   0  0  0  0  0  2  0  0  0  0  0  0
  -29.7510  -12.3240   18.7220 C   0  0  0  0  0  2  0  0  0  0  0  0
  -28.2460  -12.2490   19.0370 C   0  0  0  0  0  2  0  0  0  0  0  0
  -27.8030  -13.1880   20.1910 C   0  0  0  0  0  3  0  0  0  0  0  0
  -28.7690  -13.1010   21.3960 C   0  0  0  0  0  2  0  0  0  0  0  0
  -30.1370  -13.3150   20.9040 N   0  0  0  0  0  0  0  0  0  0  0  0
  -32.0430  -14.5510   20.9200 O   0  0  0  0  0  0  0  0  0  0  0  0
  -29.2980  -17.5960   19.6850 C   0  0  0  0  0  2  0  0  0  0  0  0
  -29.3070  -16.4830   20.7550 C   0  0  0  0  0  2  0  0  0  0  0  0
  -30.7370  -15.8830   18.9540 C   0  0  0  0  0  2  0  0  0  0  0  0
  -29.7490  -16.8860   18.4010 C   0  0  0  0  0  3  0  0  0  0  0  0
  -30.1660  -15.4280   20.2190 N   0  0  0  0  0  0  0  0  0  0  0  0
  -25.3580  -13.8190   20.6900 C   0  0  0  0  0  0  0  0  0  0  0  0
  -24.2620  -13.0550   20.9840 C   0  0  0  0  0  0  0  0  0  0  0  0
  -24.7240  -11.7040   21.0340 C   0  0  0  0  0  0  0  0  0  0  0  0
  -26.4190  -12.9340   20.5780 N   0  0  0  0  0  0  0  0  0  0  0  0
  -26.0360  -11.6600   20.8480 N   0  0  0  0  0  0  0  0  0  0  0  0
  -23.9870  -10.4450   21.1890 C   0  0  0  0  0  0  0  0  0  0  0  0
  -24.3640   -9.4830   22.1540 C   0  0  0  0  0  3  0  0  0  0  0  0
  -23.6270   -8.2880   22.2960 C   0  0  0  0  0  3  0  0  0  0  0  0
  -22.5020   -8.0440   21.4720 C   0  0  0  0  0  0  0  0  0  0  0  0
  -22.1460   -8.9950   20.4990 C   0  0  0  0  0  3  0  0  0  0  0  0
  -22.8830  -10.1810   20.3540 C   0  0  0  0  0  3  0  0  0  0  0  0
  -21.7450   -6.9000   21.5230 O   0  0  0  0  0  0  0  0  0  0  0  0
  -21.6500   -6.1500   22.6680 C   0  0  0  0  0  0  0  0  0  0  0  0
  -21.1950   -6.7030   23.8850 C   0  0  0  0  0  3  0  0  0  0  0  0
  -21.0470   -5.8800   25.0200 C   0  0  0  0  0  3  0  0  0  0  0  0
  -21.3430   -4.5070   24.9380 C   0  0  0  0  0  0  0  0  0  0  0  0
  -21.7900   -3.9530   23.7260 C   0  0  0  0  0  3  0  0  0  0  0  0
  -21.9400   -4.7730   22.5930 C   0  0  0  0  0  0  0  0  0  0  0  0
  -22.3510   -4.2300   21.4220 F   0  0  0  0  0  0  0  0  0  0  0  0
  -21.1930   -3.7160   26.0260 F   0  0  0  0  0  0  0  0  0  0  0  0
  -22.8460  -13.5340   21.1170 C   0  0  0  0  0  0  0  0  0  0  0  0
  -22.0470  -12.8620   21.9370 N   0  0  0  0  0  0  0  0  0  0  0  0
  -22.4530  -14.5420   20.5290 O   0  0  0  0  0  0  0  0  0  0  0  0
  -22.3760  -12.0470   22.4350 H   0  0  0  0  0  0  0  0  0  0  0  0
  -21.0940  -13.1700   22.0740 H   0  0  0  0  0  0  0  0  0  0  0  0
  -25.5350  -15.1840   20.4860 N   0  0  0  0  0  0  0  0  0  0  0  0
  -24.7560  -15.8340   20.5050 H   0  0  0  0  0  0  0  0  0  0  0  0
  -26.4070  -15.6210   20.2200 H   0  0  0  0  0  0  0  0  0  0  0  0
  -28.0840  -24.7430   21.1240 C   0  0  0  0  0  2  0  0  0  0  0  0
  -28.5970  -26.1910   21.0430 C   0  0  0  0  0  2  0  0  0  0  0  0
  -28.1360  -26.7910   19.8330 O   0  0  0  0  0  0  0  0  0  0  0  0
  -24.4780  -31.9320   23.1510 C   0  0  0  0  0  0  0  0  0  0  0  0
  -26.9810  -27.5200   19.9430 C   0  0  0  0  0  0  0  0  0  0  0  0
  -23.2040  -30.5520   21.5380 C   0  0  0  0  0  3  0  0  0  0  0  0
  -24.5970  -29.0170   20.0590 C   0  0  0  0  0  0  0  0  0  0  0  0
  -25.7220  -30.9020   21.2560 C   0  0  0  0  0  2  0  0  0  0  0  0
  -25.7760  -29.5320   20.6180 C   0  0  0  0  0  0  0  0  0  0  0  0
  -26.9710  -28.7850   20.5670 C   0  0  0  0  0  3  0  0  0  0  0  0
  -25.7930  -27.0210   19.3700 C   0  0  0  0  0  3  0  0  0  0  0  0
  -24.5970  -27.7580   19.4400 C   0  0  0  0  0  3  0  0  0  0  0  0
  -23.3610  -29.8810   20.1480 C   0  0  0  0  0  2  0  0  0  0  0  0
  -24.4890  -31.1440   22.0390 N   0  0  0  0  0  0  0  0  0  0  0  0
  -23.4190  -32.2040   23.7310 O   0  0  0  0  0  0  0  0  0  0  0  0
  -22.5820  -29.5270   22.5110 C   0  0  0  0  0  0  0  0  0  0  0  0
  -21.2540  -29.3480   22.4170 N   0  0  0  0  0  0  0  0  0  0  0  0
  -23.2880  -28.8930   23.3000 O   0  0  0  0  0  0  0  0  0  0  0  0
  -20.7510  -29.9100   21.7460 H   0  0  0  0  0  0  0  0  0  0  0  0
  -17.8940  -28.1390   22.9680 C   0  0  0  0  0  0  0  0  0  0  0  0
  -20.4560  -28.4070   23.1990 C   0  0  0  0  0  3  0  0  0  0  0  0
  -20.5540  -26.9750   22.6230 C   0  0  0  0  0  2  0  0  0  0  0  0
  -19.4370  -26.6440   21.6280 C   0  0  0  0  0  2  0  0  0  0  0  0
  -18.0650  -26.7870   22.2930 C   0  0  0  0  0  2  0  0  0  0  0  0
  -19.0170  -28.9070   23.3780 C   0  0  0  0  0  0  0  0  0  0  0  0
  -18.8040  -30.1730   23.9650 C   0  0  0  0  0  3  0  0  0  0  0  0
  -17.4990  -30.6710   24.1470 C   0  0  0  0  0  3  0  0  0  0  0  0
  -16.3920  -29.9000   23.7550 C   0  0  0  0  0  3  0  0  0  0  0  0
  -16.5890  -28.6360   23.1710 C   0  0  0  0  0  3  0  0  0  0  0  0
  -25.7920  -32.5410   23.7320 C   0  0  0  0  0  3  0  0  0  0  0  0
  -26.3650  -31.7350   24.9620 C   0  0  1  0  0  0  0  0  0  0  0  0
  -25.3200  -31.4710   26.0730 C   0  0  0  0  0  1  0  0  0  0  0  0
  -26.9240  -30.3660   24.5030 C   0  0  0  0  0  1  0  0  0  0  0  0
  -27.5500  -32.5060   25.5910 C   0  0  0  0  0  1  0  0  0  0  0  0
  -25.5070  -33.9320   24.1080 N   0  0  0  0  0  0  0  0  0  0  0  0
  -25.8270  -34.9990   23.3630 C   0  0  0  0  0  0  0  0  0  0  0  0
  -26.4670  -34.9150   22.3100 O   0  0  0  0  0  0  0  0  0  0  0  0
  -24.9400  -34.0730   24.9310 H   0  0  0  0  0  0  0  0  0  0  0  0
  -24.1030  -36.8080   23.0980 C   0  0  0  0  0  1  0  0  0  0  0  0
  -25.3610  -36.3760   23.8670 C   0  0  0  0  0  3  0  0  0  0  0  0
  -27.5260  -37.2190   24.6600 C   0  0  0  0  0  1  0  0  0  0  0  0
  -26.3990  -37.4230   23.7550 N   0  0  0  0  0  0  0  0  0  0  0  0
  -26.0060  -38.3410   23.9430 H   0  0  0  0  0  0  0  0  0  0  0  0
  2  6  1  0
  3  7  1  0
  4  9  1  0
  4  5  1  0
  4  1  1  0
  5  3  1  0
  5  2  1  0
  6  1  1  0
  7  6  1  0
  7 59  1  0
  7  8  1  6
  9 14  1  0
 10 15  1  0
 10 13  2  0
 11 16  1  0
 11 14  2  0
 12 10  1  0
 13  9  2  0
 15 11  1  0
 17 16  1  0
 19 24  1  0
 20 21  1  0
 20 19  1  0
 22 21  1  0
 22 34  1  0
 22 23  1  0
 24 18  1  0
 24 23  1  0
 25 18  2  0
 26 27  1  0
 28 30  1  0
 29 16  1  0
 29 28  1  0
 29 26  1  0
 30 27  1  0
 30 18  1  0
 31 32  2  0
 32 33  1  0
 32 51  1  0
 33 36  1  0
 34 31  1  0
 34 35  1  0
 35 33  2  0
 36 37  1  0
 37 38  2  0
 39 42  1  0
 39 38  1  0
 40 39  2  0
 41 40  1  0
 41 36  2  0
 42 43  1  0
 43 44  1  0
 44 45  2  0
 46 45  1  0
 46 50  1  0
 47 46  2  0
 48 43  2  0
 48 47  1  0
 49 48  1  0
 51 52  1  0
 52 55  1  0
 52 54  1  0
 53 51  2  0
 56 57  1  0
 56 31  1  0
 58 56  1  0
 60 59  1  0
 61 63  1  0
 61 60  1  0
 62 73  2  0
 63 68  1  0
 64 72  1  0
 64 74  1  0
 65 71  1  0
 65 67  1  0
 66 72  1  0
 67 66  1  0
 68 67  2  0
 69 70  1  0
 69 63  2  0
 70 65  2  0
 71 64  1  0
 72 62  1  0
 74 76  2  0
 75 74  1  0
 77 75  1  0
 78 87  2  0
 78 83  1  0
 79 75  1  0
 79 83  1  0
 80 79  1  0
 81 82  1  0
 81 80  1  0
 82 78  1  0
 83 84  2  0
 84 85  1  0
 86 85  2  0
 87 86  1  0
 88 62  1  0
 88 93  1  0
 88 89  1  0
 89 92  1  1
 89 90  1  0
 91 89  1  0
 93 96  1  0
 94 98  1  0
 94 93  1  0
 95 94  2  0
 98 97  1  0
100 98  1  0
100101  1  0
100 99  1  0
M  ISO  4  18 100  30 100  60 101  61 101
M  END
>  <TORSDO>  (15) 
F 19

>  <SCORE>  (15) 
-14.299

>  <name>  (15) 
14

>  <ligand_id>  (15) 
14

>  <original_smiles>  (15) 
[H]c1c([H])c([H])c2c(c1[H])C([H])([H])C([H])([H])C([H])([H])C2([H])N([H])C(=O)C1([H])N(C(=O)C([H])(N([H])C(=O)C([H])(N([H])C([H])([H])[H])C([H])([H])[H])C(C([H])([H])[H])(C([H])([H])[H])C([H])([H])[H])C([H])([H])c2c([H])c(OC([H])([H])C([H])([H])[N+]3([H])C([H])([H])C4([H])C([H])([H])C3([H])C([H])([H])C4([H])c3nc(N([H])C4([H])C([H])([H])N(C(=O)N5C([H])([H])C([H])([H])C([H])([H])C([H])(n6nc(-c7c([H])c([H])c(Oc8c([H])c([H])c(F)c([H])c8F)c([H])c7[H])c(C(=O)N([H])[H])c6N([H])[H])C5([H])[H])C([H])([H])C4([H])[H])nc(C([H])([H])[H])n3)c([H])c([H])c2C1([H])[H]

>  <smiles>  (15) 
[H]c1c([H])c([H])c2c(c1[H])C([H])([H])C([H])([H])C([H])([H])C2([H])N([H])C(=O)C1([H])N(C(=O)C([H])(N([H])C(=O)C([H])(N([H])C([H])([H])[H])C([H])([H])[H])C(C([H])([H])[H])(C([H])([H])[H])C([H])([H])[H])C([H])([H])c2c([H])c(OC([H])([H])C([H])([H])[N+]3([H])C([H])([H])C4([H])C([H])([H])C3([H])C([H])([H])C4([H])c3nc(N([H])C4([H])C([H])([H])N(C(=O)N5C([H])([H])C([H])([H])C([H])([H])C([H])(n6nc(-c7c([H])c([H])c(Oc8c([H])c([H])c(F)c([H])c8F)c([H])c7[H])c(C(=O)N([H])[H])c6N([H])[H])C5([H])[H])C([H])([H])C4([H])[H])nc(C([H])([H])[H])n3)c([H])c([H])c2C1([H])[H]

$$$$
15:0:0
     RDKit          3D

 91100  0  0  1  0  0  0  0  0999 V2000
  -30.3660  -19.9070   22.3000 C   0  0  0  0  0  3  0  0  0  0  0  0
  -29.9540  -21.1680   22.4550 C   0  0  0  0  0  3  0  0  0  0  0  0
  -29.7630  -20.6680   20.3130 C   0  0  0  0  0  0  0  0  0  0  0  0
  -30.1950  -19.5510   20.9680 N   0  0  0  0  0  0  0  0  0  0  0  0
  -29.5430  -21.6490   21.2230 N   0  0  0  0  0  0  0  0  0  0  0  0
  -29.5410  -20.7700   19.1030 O   0  0  0  0  0  0  0  0  0  0  0  0
  -30.6810  -14.6340   20.4000 C   0  0  0  0  0  0  0  0  0  0  0  0
  -30.3630  -12.4290   19.3200 C   0  0  0  0  0  2  0  0  0  0  0  0
  -29.4090  -12.5630   18.1160 C   0  0  0  0  0  2  0  0  0  0  0  0
  -27.9430  -12.3950   18.5700 C   0  0  0  0  0  2  0  0  0  0  0  0
  -27.5950  -13.2630   19.8070 C   0  0  0  0  0  3  0  0  0  0  0  0
  -28.6780  -13.1580   20.9090 C   0  0  0  0  0  2  0  0  0  0  0  0
  -29.9820  -13.4610   20.2990 N   0  0  0  0  0  0  0  0  0  0  0  0
  -31.8700  -14.7100   20.0810 O   0  0  0  0  0  0  0  0  0  0  0  0
  -29.5230  -17.7590   19.3070 C   0  0  0  0  0  2  0  0  0  0  0  0
  -29.1220  -16.3130   19.5970 C   0  0  0  0  0  2  0  0  0  0  0  0
  -30.5070  -16.9690   21.3690 C   0  0  0  0  0  2  0  0  0  0  0  0
  -30.5050  -18.1980   20.4010 C   0  0  0  0  0  3  0  0  0  0  0  0
  -29.9710  -15.7750   20.6630 N   0  0  0  0  0  0  0  0  0  0  0  0
  -25.2170  -13.8730   20.5660 C   0  0  0  0  0  0  0  0  0  0  0  0
  -24.1520  -13.1000   20.9430 C   0  0  0  0  0  0  0  0  0  0  0  0
  -24.6150  -11.7480   20.9030 C   0  0  0  0  0  0  0  0  0  0  0  0
  -26.2570  -12.9890   20.3170 N   0  0  0  0  0  0  0  0  0  0  0  0
  -25.9010  -11.7080   20.5820 N   0  0  0  0  0  0  0  0  0  0  0  0
  -23.8920  -10.4860   21.0970 C   0  0  0  0  0  0  0  0  0  0  0  0
  -24.3460   -9.5120   22.0110 C   0  0  0  0  0  3  0  0  0  0  0  0
  -23.6280   -8.3120   22.1930 C   0  0  0  0  0  3  0  0  0  0  0  0
  -22.4410   -8.0790   21.4610 C   0  0  0  0  0  0  0  0  0  0  0  0
  -22.0050   -9.0430   20.5340 C   0  0  0  0  0  3  0  0  0  0  0  0
  -22.7250  -10.2350   20.3500 C   0  0  0  0  0  3  0  0  0  0  0  0
  -21.6910   -6.9310   21.5520 O   0  0  0  0  0  0  0  0  0  0  0  0
  -21.6800   -6.1710   22.6940 C   0  0  0  0  0  0  0  0  0  0  0  0
  -21.2830   -6.7020   23.9420 C   0  0  0  0  0  3  0  0  0  0  0  0
  -21.2170   -5.8650   25.0730 C   0  0  0  0  0  3  0  0  0  0  0  0
  -21.5390   -4.5000   24.9600 C   0  0  0  0  0  0  0  0  0  0  0  0
  -21.9290   -3.9680   23.7180 C   0  0  0  0  0  3  0  0  0  0  0  0
  -21.9960   -4.8010   22.5880 C   0  0  0  0  0  0  0  0  0  0  0  0
  -22.3500   -4.2800   21.3880 F   0  0  0  0  0  0  0  0  0  0  0  0
  -21.4700   -3.6950   26.0460 F   0  0  0  0  0  0  0  0  0  0  0  0
  -22.7580  -13.5780   21.2290 C   0  0  0  0  0  0  0  0  0  0  0  0
  -22.0360  -12.8840   22.1000 N   0  0  0  0  0  0  0  0  0  0  0  0
  -22.3160  -14.6040   20.7130 O   0  0  0  0  0  0  0  0  0  0  0  0
  -22.4060  -12.0590   22.5490 H   0  0  0  0  0  0  0  0  0  0  0  0
  -21.0990  -13.1890   22.3240 H   0  0  0  0  0  0  0  0  0  0  0  0
  -25.3750  -15.2440   20.3930 N   0  0  0  0  0  0  0  0  0  0  0  0
  -24.6130  -15.8970   20.5370 H   0  0  0  0  0  0  0  0  0  0  0  0
  -26.2270  -15.6940   20.0850 H   0  0  0  0  0  0  0  0  0  0  0  0
  -28.6410  -22.8190   21.0570 C   0  0  0  0  0  2  0  0  0  0  0  0
  -29.2360  -24.2500   20.8340 C   0  0  0  0  0  2  0  0  0  0  0  0
  -28.1120  -25.2170   20.3340 C   0  0  0  0  0  2  0  0  0  0  0  0
  -28.3460  -26.6490   20.3030 O   0  0  0  0  0  0  0  0  0  0  0  0
  -24.5750  -31.9380   23.2600 C   0  0  0  0  0  0  0  0  0  0  0  0
  -27.2020  -27.4410   20.2210 C   0  0  0  0  0  0  0  0  0  0  0  0
  -23.3660  -30.5390   21.6200 C   0  0  0  0  0  3  0  0  0  0  0  0
  -24.8180  -28.9970   20.1990 C   0  0  0  0  0  0  0  0  0  0  0  0
  -25.8990  -30.8830   21.4260 C   0  0  0  0  0  2  0  0  0  0  0  0
  -25.9830  -29.5090   20.7840 C   0  0  0  0  0  0  0  0  0  0  0  0
  -27.1780  -28.7450   20.7830 C   0  0  0  0  0  3  0  0  0  0  0  0
  -26.0130  -26.9620   19.6160 C   0  0  0  0  0  3  0  0  0  0  0  0
  -24.8310  -27.7260   19.6080 C   0  0  0  0  0  3  0  0  0  0  0  0
  -23.5770  -29.8610   20.2420 C   0  0  0  0  0  2  0  0  0  0  0  0
  -24.6320  -31.1340   22.1600 N   0  0  0  0  0  0  0  0  0  0  0  0
  -23.4940  -32.2160   23.7970 O   0  0  0  0  0  0  0  0  0  0  0  0
  -22.7100  -29.5200   22.5820 C   0  0  0  0  0  0  0  0  0  0  0  0
  -21.3850  -29.3370   22.4510 N   0  0  0  0  0  0  0  0  0  0  0  0
  -23.3890  -28.8980   23.4040 O   0  0  0  0  0  0  0  0  0  0  0  0
  -20.8970  -29.8920   21.7610 H   0  0  0  0  0  0  0  0  0  0  0  0
  -18.0060  -28.1530   22.9490 C   0  0  0  0  0  0  0  0  0  0  0  0
  -20.5650  -28.4030   23.2230 C   0  0  0  0  0  3  0  0  0  0  0  0
  -20.6630  -26.9700   22.6500 C   0  0  0  0  0  2  0  0  0  0  0  0
  -19.5620  -26.6490   21.6360 C   0  0  0  0  0  2  0  0  0  0  0  0
  -18.1790  -26.8020   22.2760 C   0  0  0  0  0  2  0  0  0  0  0  0
  -19.1270  -28.9120   23.3780 C   0  0  0  0  0  0  0  0  0  0  0  0
  -18.9120  -30.1790   23.9650 C   0  0  0  0  0  3  0  0  0  0  0  0
  -17.6100  -30.6860   24.1260 C   0  0  0  0  0  3  0  0  0  0  0  0
  -16.5030  -29.9230   23.7130 C   0  0  0  0  0  3  0  0  0  0  0  0
  -16.7030  -28.6590   23.1310 C   0  0  0  0  0  3  0  0  0  0  0  0
  -25.8610  -32.5670   23.8790 C   0  0  0  0  0  3  0  0  0  0  0  0
  -26.3760  -31.7980   25.1560 C   0  0  1  0  0  0  0  0  0  0  0  0
  -25.2830  -31.5670   26.2250 C   0  0  0  0  0  1  0  0  0  0  0  0
  -26.9550  -30.4180   24.7680 C   0  0  0  0  0  1  0  0  0  0  0  0
  -27.5300  -32.5900   25.8160 C   0  0  0  0  0  1  0  0  0  0  0  0
  -25.5590  -33.9680   24.2010 N   0  0  0  0  0  0  0  0  0  0  0  0
  -25.8980  -35.0130   23.4340 C   0  0  0  0  0  0  0  0  0  0  0  0
  -26.5680  -34.9000   22.4050 O   0  0  0  0  0  0  0  0  0  0  0  0
  -24.9600  -34.1310   24.9980 H   0  0  0  0  0  0  0  0  0  0  0  0
  -24.1810  -36.8140   23.0600 C   0  0  0  0  0  1  0  0  0  0  0  0
  -25.4160  -36.4080   23.8810 C   0  0  0  0  0  3  0  0  0  0  0  0
  -27.5510  -37.2830   24.7190 C   0  0  0  0  0  1  0  0  0  0  0  0
  -26.4540  -37.4540   23.7690 N   0  0  0  0  0  0  0  0  0  0  0  0
  -26.0520  -38.3760   23.9130 H   0  0  0  0  0  0  0  0  0  0  0  0
  1  2  2  0
  3  4  1  0
  3  5  1  0
  4  1  1  0
  5  2  1  0
  6  3  2  0
  7 19  1  0
  8 13  1  0
  9 10  1  0
  9  8  1  0
 11 10  1  0
 11 23  1  0
 11 12  1  0
 13  7  1  0
 13 12  1  0
 14  7  2  0
 15 16  1  0
 16 19  1  0
 18 15  1  0
 18  4  1  0
 18 17  1  0
 19 17  1  0
 20 21  2  0
 21 40  1  0
 22 21  1  0
 22 25  1  0
 23 20  1  0
 23 24  1  0
 24 22  2  0
 25 26  1  0
 26 27  2  0
 28 31  1  0
 28 27  1  0
 29 28  2  0
 30 29  1  0
 30 25  2  0
 31 32  1  0
 32 33  1  0
 33 34  2  0
 35 34  1  0
 35 39  1  0
 36 35  2  0
 37 32  2  0
 37 36  1  0
 38 37  1  0
 40 41  1  0
 41 44  1  0
 41 43  1  0
 42 40  2  0
 45 46  1  0
 45 20  1  0
 47 45  1  0
 48  5  1  0
 49 48  1  0
 50 49  1  0
 51 50  1  0
 52 63  2  0
 53 51  1  0
 53 58  1  0
 54 62  1  0
 54 64  1  0
 55 61  1  0
 55 57  1  0
 56 62  1  0
 57 56  1  0
 58 57  2  0
 59 53  2  0
 60 59  1  0
 60 55  2  0
 61 54  1  0
 62 52  1  0
 64 66  2  0
 65 64  1  0
 67 65  1  0
 68 77  2  0
 68 73  1  0
 69 65  1  0
 69 73  1  0
 70 69  1  0
 71 72  1  0
 71 70  1  0
 72 68  1  0
 73 74  2  0
 74 75  1  0
 76 75  2  0
 77 76  1  0
 78 52  1  0
 78 83  1  0
 78 79  1  0
 79 82  1  1
 79 80  1  0
 81 79  1  0
 83 86  1  0
 84 88  1  0
 84 83  1  0
 85 84  2  0
 88 87  1  0
 90 88  1  0
 90 91  1  0
 90 89  1  0
M  ISO  4   7 100  19 100  50 101  51 101
M  END
>  <TORSDO>  (16) 
F 19

>  <SCORE>  (16) 
-14.245

>  <name>  (16) 
15

>  <ligand_id>  (16) 
15

>  <original_smiles>  (16) 
[H]c1c([H])c([H])c2c(c1[H])C([H])([H])C([H])([H])C([H])([H])C2([H])N([H])C(=O)C1([H])N(C(=O)C([H])(N([H])C(=O)C([H])(N([H])C([H])([H])[H])C([H])([H])[H])C(C([H])([H])[H])(C([H])([H])[H])C([H])([H])[H])C([H])([H])c2c([H])c(OC([H])([H])C([H])([H])C([H])([H])n3c([H])c([H])n(C4([H])C([H])([H])N(C(=O)N5C([H])([H])C([H])([H])C([H])([H])C([H])(n6nc(-c7c([H])c([H])c(Oc8c([H])c([H])c(F)c([H])c8F)c([H])c7[H])c(C(=O)N([H])[H])c6N([H])[H])C5([H])[H])C([H])([H])C4([H])[H])c3=O)c([H])c([H])c2C1([H])[H]

>  <smiles>  (16) 
[H]c1c([H])c([H])c2c(c1[H])C([H])([H])C([H])([H])C([H])([H])C2([H])N([H])C(=O)C1([H])N(C(=O)C([H])(N([H])C(=O)C([H])(N([H])C([H])([H])[H])C([H])([H])[H])C(C([H])([H])[H])(C([H])([H])[H])C([H])([H])[H])C([H])([H])c2c([H])c(OC([H])([H])C([H])([H])C([H])([H])n3c([H])c([H])n(C4([H])C([H])([H])N(C(=O)N5C([H])([H])C([H])([H])C([H])([H])C([H])(n6nc(-c7c([H])c([H])c(Oc8c([H])c([H])c(F)c([H])c8F)c([H])c7[H])c(C(=O)N([H])[H])c6N([H])[H])C5([H])[H])C([H])([H])C4([H])[H])c3=O)c([H])c([H])c2C1([H])[H]

$$$$
16:0:0
     RDKit          3D

 93102  0  0  1  0  0  0  0  0999 V2000
  -29.1180  -23.1420   18.1820 C   0  0  0  0  0  0  0  0  0  0  0  0
  -28.8850  -23.9400   19.2890 C   0  0  0  0  0  0  0  0  0  0  0  0
  -29.1520  -21.7380   19.8380 C   0  0  0  0  0  0  0  0  0  0  0  0
  -29.1770  -23.5450   16.7390 C   0  0  0  0  0  1  0  0  0  0  0  0
  -28.6690  -23.2990   21.7650 C   0  0  0  0  0  1  0  0  0  0  0  0
  -29.3000  -21.8000   18.5270 N   0  0  0  0  0  0  0  0  0  0  0  0
  -28.8910  -22.9950   20.3650 N   0  0  0  0  0  0  0  0  0  0  0  0
  -29.2630  -20.5040   20.5640 N   0  0  0  0  0  0  0  0  0  0  0  0
  -29.0730  -20.6520   21.5500 H   0  0  0  0  0  0  0  0  0  0  0  0
  -30.6960  -14.7060   20.0930 C   0  0  0  0  0  0  0  0  0  0  0  0
  -30.3760  -12.4640   19.0520 C   0  0  0  0  0  2  0  0  0  0  0  0
  -29.3930  -12.5750   17.8690 C   0  0  0  0  0  2  0  0  0  0  0  0
  -27.9430  -12.4110   18.3600 C   0  0  0  0  0  2  0  0  0  0  0  0
  -27.6290  -13.2800   19.6080 C   0  0  0  0  0  3  0  0  0  0  0  0
  -28.7360  -13.1870   20.6790 C   0  0  0  0  0  2  0  0  0  0  0  0
  -30.0060  -13.5170   20.0260 N   0  0  0  0  0  0  0  0  0  0  0  0
  -31.8750  -14.7400   19.7260 O   0  0  0  0  0  0  0  0  0  0  0  0
  -28.9790  -18.1590   19.4050 C   0  0  0  0  0  2  0  0  0  0  0  0
  -29.9890  -18.2430   21.5960 C   0  0  0  0  0  2  0  0  0  0  0  0
  -29.6420  -16.7360   19.1640 C   0  0  0  0  0  2  0  0  0  0  0  0
  -30.6370  -16.8180   21.3690 C   0  0  0  0  0  2  0  0  0  0  0  0
  -29.8050  -19.1090   20.3160 C   0  0  0  0  0  3  0  0  0  0  0  0
  -30.0290  -15.9060   20.3510 N   0  0  0  0  0  0  0  0  0  0  0  0
  -25.2810  -13.8670   20.4520 C   0  0  0  0  0  0  0  0  0  0  0  0
  -24.2270  -13.0900   20.8510 C   0  0  0  0  0  0  0  0  0  0  0  0
  -24.6810  -11.7370   20.7760 C   0  0  0  0  0  0  0  0  0  0  0  0
  -26.3080  -12.9870   20.1540 N   0  0  0  0  0  0  0  0  0  0  0  0
  -25.9590  -11.7000   20.4130 N   0  0  0  0  0  0  0  0  0  0  0  0
  -23.9560  -10.4750   20.9740 C   0  0  0  0  0  0  0  0  0  0  0  0
  -24.3960   -9.5070   21.9040 C   0  0  0  0  0  3  0  0  0  0  0  0
  -23.6700   -8.3110   22.0910 C   0  0  0  0  0  3  0  0  0  0  0  0
  -22.4900   -8.0750   21.3460 C   0  0  0  0  0  0  0  0  0  0  0  0
  -22.0690   -9.0300   20.4060 C   0  0  0  0  0  3  0  0  0  0  0  0
  -22.7950  -10.2180   20.2180 C   0  0  0  0  0  3  0  0  0  0  0  0
  -21.7340   -6.9310   21.4420 O   0  0  0  0  0  0  0  0  0  0  0  0
  -21.6610   -6.2110   22.6080 C   0  0  0  0  0  0  0  0  0  0  0  0
  -21.1580   -6.7740   23.8020 C   0  0  0  0  0  3  0  0  0  0  0  0
  -21.0370   -5.9780   24.9590 C   0  0  0  0  0  3  0  0  0  0  0  0
  -21.4080   -4.6210   24.9220 C   0  0  0  0  0  0  0  0  0  0  0  0
  -21.9040   -4.0570   23.7330 C   0  0  0  0  0  3  0  0  0  0  0  0
  -22.0270   -4.8500   22.5790 C   0  0  0  0  0  0  0  0  0  0  0  0
  -22.4870   -4.2970   21.4300 F   0  0  0  0  0  0  0  0  0  0  0  0
  -21.2840   -3.8540   26.0310 F   0  0  0  0  0  0  0  0  0  0  0  0
  -22.8450  -13.5700   21.1890 C   0  0  0  0  0  0  0  0  0  0  0  0
  -22.1500  -12.8620   22.0720 N   0  0  0  0  0  0  0  0  0  0  0  0
  -22.3940  -14.6060   20.7050 O   0  0  0  0  0  0  0  0  0  0  0  0
  -22.5300  -12.0220   22.4840 H   0  0  0  0  0  0  0  0  0  0  0  0
  -21.2250  -13.1640   22.3400 H   0  0  0  0  0  0  0  0  0  0  0  0
  -25.4480  -15.2390   20.2950 N   0  0  0  0  0  0  0  0  0  0  0  0
  -24.6960  -15.9000   20.4600 H   0  0  0  0  0  0  0  0  0  0  0  0
  -26.3010  -15.6790   19.9770 H   0  0  0  0  0  0  0  0  0  0  0  0
  -28.6940  -25.5080   19.1420 C   0  0  0  0  0  2  0  0  0  0  0  0
  -28.3540  -26.3980   20.2700 O   0  0  0  0  0  0  0  0  0  0  0  0
  -24.5750  -31.8370   23.2030 C   0  0  0  0  0  0  0  0  0  0  0  0
  -27.2580  -27.2800   20.1680 C   0  0  0  0  0  0  0  0  0  0  0  0
  -23.4090  -30.4440   21.5330 C   0  0  0  0  0  3  0  0  0  0  0  0
  -24.8910  -28.9040   20.1250 C   0  0  0  0  0  0  0  0  0  0  0  0
  -25.9530  -30.7610   21.4060 C   0  0  0  0  0  2  0  0  0  0  0  0
  -26.0470  -29.3840   20.7520 C   0  0  0  0  0  0  0  0  0  0  0  0
  -27.2290  -28.5800   20.7730 C   0  0  0  0  0  3  0  0  0  0  0  0
  -26.0690  -26.8510   19.5370 C   0  0  0  0  0  3  0  0  0  0  0  0
  -24.9040  -27.6420   19.5110 C   0  0  0  0  0  3  0  0  0  0  0  0
  -23.6520  -29.7770   20.1540 C   0  0  0  0  0  2  0  0  0  0  0  0
  -24.6640  -31.0330   22.1030 N   0  0  0  0  0  0  0  0  0  0  0  0
  -23.4810  -32.1110   23.7160 O   0  0  0  0  0  0  0  0  0  0  0  0
  -22.7290  -29.4220   22.4740 C   0  0  0  0  0  0  0  0  0  0  0  0
  -21.4010  -29.2630   22.3390 N   0  0  0  0  0  0  0  0  0  0  0  0
  -23.3940  -28.7770   23.2890 O   0  0  0  0  0  0  0  0  0  0  0  0
  -20.9240  -29.8320   21.6550 H   0  0  0  0  0  0  0  0  0  0  0  0
  -17.9990  -28.1350   22.8410 C   0  0  0  0  0  0  0  0  0  0  0  0
  -20.5660  -28.3250   23.0920 C   0  0  0  0  0  3  0  0  0  0  0  0
  -20.6270  -26.9070   22.4790 C   0  0  0  0  0  2  0  0  0  0  0  0
  -19.5080  -26.6390   21.4670 C   0  0  0  0  0  2  0  0  0  0  0  0
  -18.1370  -26.8010   22.1270 C   0  0  0  0  0  2  0  0  0  0  0  0
  -19.1410  -28.8570   23.2800 C   0  0  0  0  0  0  0  0  0  0  0  0
  -18.9570  -30.1080   23.9100 C   0  0  0  0  0  3  0  0  0  0  0  0
  -17.6670  -30.6370   24.1030 C   0  0  0  0  0  3  0  0  0  0  0  0
  -16.5400  -29.9090   23.6790 C   0  0  0  0  0  3  0  0  0  0  0  0
  -16.7080  -28.6610   23.0560 C   0  0  0  0  0  3  0  0  0  0  0  0
  -25.8420  -32.4700   23.8550 C   0  0  0  0  0  3  0  0  0  0  0  0
  -25.5210  -33.8660   24.1890 N   0  0  0  0  0  0  0  0  0  0  0  0
  -25.8390  -34.9230   23.4310 C   0  0  0  0  0  0  0  0  0  0  0  0
  -26.5050  -34.8290   22.3960 O   0  0  0  0  0  0  0  0  0  0  0  0
  -24.9270  -34.0130   24.9920 H   0  0  0  0  0  0  0  0  0  0  0  0
  -24.0890  -36.6990   23.0950 C   0  0  0  0  0  1  0  0  0  0  0  0
  -25.3410  -36.3060   23.8940 C   0  0  0  0  0  3  0  0  0  0  0  0
  -27.4690  -37.2180   24.7130 C   0  0  0  0  0  1  0  0  0  0  0  0
  -26.3600  -37.3710   23.7740 N   0  0  0  0  0  0  0  0  0  0  0  0
  -25.9440  -38.2880   23.9220 H   0  0  0  0  0  0  0  0  0  0  0  0
  -26.3340  -31.6940   25.1390 C   0  0  1  0  0  0  0  0  0  0  0  0
  -25.2190  -31.4450   26.1810 C   0  0  0  0  0  1  0  0  0  0  0  0
  -26.9330  -30.3220   24.7540 C   0  0  0  0  0  1  0  0  0  0  0  0
  -27.4670  -32.4900   25.8290 C   0  0  0  0  0  1  0  0  0  0  0  0
  1  6  1  0
  1  2  2  0
  2  7  1  0
  3  7  1  0
  3  8  1  0
  4  1  1  0
  6  3  2  0
  7  5  1  0
  8  9  1  0
 10 23  1  0
 11 16  1  0
 12 13  1  0
 12 11  1  0
 14 13  1  0
 14 27  1  0
 14 15  1  0
 16 10  1  0
 16 15  1  0
 17 10  2  0
 18 22  1  0
 20 18  1  0
 20 23  1  0
 21 19  1  0
 22  8  1  0
 22 19  1  0
 23 21  1  0
 24 25  2  0
 25 44  1  0
 26 25  1  0
 26 29  1  0
 27 28  1  0
 27 24  1  0
 28 26  2  0
 29 30  1  0
 30 31  2  0
 32 35  1  0
 32 31  1  0
 33 32  2  0
 34 33  1  0
 34 29  2  0
 35 36  1  0
 36 37  1  0
 37 38  2  0
 39 38  1  0
 39 43  1  0
 40 39  2  0
 41 36  2  0
 41 40  1  0
 42 41  1  0
 44 45  1  0
 45 48  1  0
 45 47  1  0
 46 44  2  0
 49 24  1  0
 49 50  1  0
 51 49  1  0
 52  2  1  0
 52 53  1  0
 54 65  2  0
 55 53  1  0
 55 60  1  0
 56 64  1  0
 56 66  1  0
 57 63  1  0
 57 59  1  0
 58 64  1  0
 59 60  2  0
 59 58  1  0
 61 55  2  0
 62 61  1  0
 62 57  2  0
 63 56  1  0
 64 54  1  0
 66 68  2  0
 67 66  1  0
 69 67  1  0
 70 79  2  0
 70 75  1  0
 71 67  1  0
 71 75  1  0
 72 71  1  0
 73 74  1  0
 73 72  1  0
 74 70  1  0
 75 76  2  0
 76 77  1  0
 78 77  2  0
 79 78  1  0
 80 54  1  0
 80 81  1  0
 80 90  1  0
 81 84  1  0
 82 86  1  0
 82 81  1  0
 83 82  2  0
 86 85  1  0
 88 86  1  0
 88 89  1  0
 88 87  1  0
 90 93  1  1
 90 91  1  0
 92 90  1  0
M  ISO  4  10 100  23 100  52 101  53 101
M  END
>  <TORSDO>  (17) 
F 17

>  <SCORE>  (17) 
-15.024

>  <name>  (17) 
16

>  <ligand_id>  (17) 
16

>  <original_smiles>  (17) 
[H]c1c([H])c([H])c2c(c1[H])C([H])([H])C([H])([H])C([H])([H])C2([H])N([H])C(=O)C1([H])N(C(=O)C([H])(N([H])C(=O)C([H])(N([H])C([H])([H])[H])C([H])([H])[H])C(C([H])([H])[H])(C([H])([H])[H])C([H])([H])[H])C([H])([H])c2c([H])c(OC([H])([H])c3c(C([H])([H])[H])nc(N([H])C4([H])C([H])([H])C([H])([H])N(C(=O)N5C([H])([H])C([H])([H])C([H])([H])C([H])(n6nc(-c7c([H])c([H])c(Oc8c([H])c([H])c(F)c([H])c8F)c([H])c7[H])c(C(=O)N([H])[H])c6N([H])[H])C5([H])[H])C([H])([H])C4([H])[H])n3C([H])([H])[H])c([H])c([H])c2C1([H])[H]

>  <smiles>  (17) 
[H]c1c([H])c([H])c2c(c1[H])C([H])([H])C([H])([H])C([H])([H])C2([H])N([H])C(=O)C1([H])N(C(=O)C([H])(N([H])C(=O)C([H])(N([H])C([H])([H])[H])C([H])([H])[H])C(C([H])([H])[H])(C([H])([H])[H])C([H])([H])[H])C([H])([H])c2c([H])c(OC([H])([H])c3c(C([H])([H])[H])nc(N([H])C4([H])C([H])([H])C([H])([H])N(C(=O)N5C([H])([H])C([H])([H])C([H])([H])C([H])(n6nc(-c7c([H])c([H])c(Oc8c([H])c([H])c(F)c([H])c8F)c([H])c7[H])c(C(=O)N([H])[H])c6N([H])[H])C5([H])[H])C([H])([H])C4([H])[H])n3C([H])([H])[H])c([H])c([H])c2C1([H])[H]

$$$$
17:0:0
     RDKit          3D

 99109  0  0  1  0  0  0  0  0999 V2000
  -32.0790  -14.3930   20.6050 C   0  0  0  0  0  0  0  0  0  0  0  0
  -31.3380  -12.9690   18.7680 C   0  0  0  0  0  2  0  0  0  0  0  0
  -30.3070  -13.3660   17.6920 C   0  0  0  0  0  3  0  0  0  0  0  0
  -28.9330  -13.9230   18.1340 C   0  0  0  0  0  3  0  0  0  0  0  0
  -28.7550  -14.2210   19.6470 C   0  0  0  0  0  3  0  0  0  0  0  0
  -29.7020  -13.3450   20.5030 C   0  0  0  0  0  2  0  0  0  0  0  0
  -31.0790  -13.6370   20.0560 N   0  0  0  0  0  0  0  0  0  0  0  0
  -33.2370  -14.2650   20.2100 O   0  0  0  0  0  0  0  0  0  0  0  0
  -28.1370  -20.5650   18.9470 C   0  0  0  0  0  3  0  0  0  0  0  0
  -28.1540  -19.2720   18.3760 C   0  0  0  0  0  0  0  0  0  0  0  0
  -29.0080  -20.7880   20.0360 C   0  0  0  0  0  0  0  0  0  0  0  0
  -29.7580  -18.6560   19.8510 C   0  0  0  0  0  0  0  0  0  0  0  0
  -29.9930  -17.1330   21.6710 C   0  0  0  0  0  2  0  0  0  0  0  0
  -31.9510  -17.7990   20.2740 C   0  0  0  0  0  2  0  0  0  0  0  0
  -30.7530  -15.8990   22.2120 C   0  0  0  0  0  2  0  0  0  0  0  0
  -32.6830  -16.7400   21.1110 C   0  0  0  0  0  2  0  0  0  0  0  0
  -28.9730  -18.3250   18.8430 N   0  0  0  0  0  0  0  0  0  0  0  0
  -29.8190  -19.8210   20.4740 N   0  0  0  0  0  0  0  0  0  0  0  0
  -30.5020  -17.6510   20.3820 N   0  0  0  0  0  0  0  0  0  0  0  0
  -31.8100  -15.5510   21.2630 N   0  0  0  0  0  0  0  0  0  0  0  0
  -26.3750  -15.1200   20.0880 C   0  0  0  0  0  0  0  0  0  0  0  0
  -25.2050  -14.5020   20.4250 C   0  0  0  0  0  0  0  0  0  0  0  0
  -25.4950  -13.1040   20.4680 C   0  0  0  0  0  0  0  0  0  0  0  0
  -27.3350  -14.1200   20.0240 N   0  0  0  0  0  0  0  0  0  0  0  0
  -26.7960  -12.8940   20.2740 N   0  0  0  0  0  0  0  0  0  0  0  0
  -24.5840  -11.9640   20.6260 C   0  0  0  0  0  0  0  0  0  0  0  0
  -24.9620  -10.8310   21.3740 C   0  0  0  0  0  3  0  0  0  0  0  0
  -24.0740   -9.7500   21.5190 C   0  0  0  0  0  3  0  0  0  0  0  0
  -22.7880   -9.7970   20.9320 C   0  0  0  0  0  0  0  0  0  0  0  0
  -22.4310  -10.9170   20.1590 C   0  0  0  0  0  3  0  0  0  0  0  0
  -23.3190  -11.9940   20.0050 C   0  0  0  0  0  3  0  0  0  0  0  0
  -21.8670   -8.7820   21.0180 O   0  0  0  0  0  0  0  0  0  0  0  0
  -22.0130   -7.7420   21.9020 C   0  0  0  0  0  0  0  0  0  0  0  0
  -22.1470   -7.9520   23.2930 C   0  0  0  0  0  3  0  0  0  0  0  0
  -22.2250   -6.8510   24.1670 C   0  0  0  0  0  3  0  0  0  0  0  0
  -22.1620   -5.5420   23.6600 C   0  0  0  0  0  0  0  0  0  0  0  0
  -22.0140   -5.3290   22.2780 C   0  0  0  0  0  3  0  0  0  0  0  0
  -21.9450   -6.4250   21.4000 C   0  0  0  0  0  0  0  0  0  0  0  0
  -21.7880   -6.2030   20.0740 F   0  0  0  0  0  0  0  0  0  0  0  0
  -22.2310   -4.4910   24.5090 F   0  0  0  0  0  0  0  0  0  0  0  0
  -23.8660  -15.1690   20.5830 C   0  0  0  0  0  0  0  0  0  0  0  0
  -22.9790  -14.5930   21.3850 N   0  0  0  0  0  0  0  0  0  0  0  0
  -23.6210  -16.2480   20.0430 O   0  0  0  0  0  0  0  0  0  0  0  0
  -23.1830  -13.7350   21.8780 H   0  0  0  0  0  0  0  0  0  0  0  0
  -22.0690  -14.9990   21.5230 H   0  0  0  0  0  0  0  0  0  0  0  0
  -26.6660  -16.4400   19.8130 N   0  0  0  0  0  0  0  0  0  0  0  0
  -25.8700  -17.0710   19.7290 H   0  0  0  0  0  0  0  0  0  0  0  0
  -27.4070  -16.6440   19.1480 H   0  0  0  0  0  0  0  0  0  0  0  0
  -26.8930  -17.3640   17.1070 C   0  0  0  0  0  2  0  0  0  0  0  0
  -27.6770  -18.1150   16.0490 C   0  0  0  0  0  2  0  0  0  0  0  0
  -27.2120  -18.8320   17.2960 C   0  0  0  0  0  3  0  0  0  0  0  0
  -28.9880  -22.0340   20.9070 C   0  0  0  0  0  2  0  0  0  0  0  0
  -30.3150  -22.8360   20.8920 C   0  0  0  0  0  2  0  0  0  0  0  0
  -30.2430  -24.0470   21.7450 N   0  0  0  0  0  4  0  0  0  0  0  0
  -30.3270  -23.7420   22.7030 H   0  0  0  0  0  0  0  0  0  0  0  0
  -29.3250  -24.4570   21.6540 H   0  0  0  0  0  0  0  0  0  0  0  0
  -31.2840  -25.0940   21.5080 C   0  0  0  0  0  2  0  0  0  0  0  0
  -31.1940  -26.2310   22.5680 C   0  0  0  0  0  2  0  0  0  0  0  0
  -31.1220  -27.5730   22.0520 O   0  0  0  0  0  0  0  0  0  0  0  0
  -25.5630  -31.7840   23.6150 C   0  0  0  0  0  0  0  0  0  0  0  0
  -29.8580  -28.0070   21.7070 C   0  0  0  0  0  0  0  0  0  0  0  0
  -25.1640  -30.0330   21.9210 C   0  0  0  0  0  3  0  0  0  0  0  0
  -27.2370  -28.8560   21.0380 C   0  0  0  0  0  0  0  0  0  0  0  0
  -27.5060  -31.0210   22.2440 C   0  0  0  0  0  2  0  0  0  0  0  0
  -28.0740  -29.6890   21.7950 C   0  0  0  0  0  0  0  0  0  0  0  0
  -29.3880  -29.2710   22.1250 C   0  0  0  0  0  3  0  0  0  0  0  0
  -28.9970  -27.1960   20.9350 C   0  0  0  0  0  3  0  0  0  0  0  0
  -27.6960  -27.6090   20.6060 C   0  0  0  0  0  3  0  0  0  0  0  0
  -25.8560  -29.3670   20.7080 C   0  0  0  0  0  2  0  0  0  0  0  0
  -26.0800  -30.9680   22.6520 N   0  0  0  0  0  0  0  0  0  0  0  0
  -24.3490  -31.7900   23.8760 O   0  0  0  0  0  0  0  0  0  0  0  0
  -24.5660  -28.9250   22.8190 C   0  0  0  0  0  0  0  0  0  0  0  0
  -23.3890  -28.4060   22.4310 N   0  0  0  0  0  0  0  0  0  0  0  0
  -25.1700  -28.5310   23.8210 O   0  0  0  0  0  0  0  0  0  0  0  0
  -22.9520  -28.7910   21.6040 H   0  0  0  0  0  0  0  0  0  0  0  0
  -20.2930  -26.5480   22.4210 C   0  0  0  0  0  0  0  0  0  0  0  0
  -22.6590  -27.3340   23.1050 C   0  0  0  0  0  3  0  0  0  0  0  0
  -23.1450  -25.9470   22.6300 C   0  0  0  0  0  2  0  0  0  0  0  0
  -22.3260  -25.3840   21.4640 C   0  0  0  0  0  2  0  0  0  0  0  0
  -20.8520  -25.2520   21.8590 C   0  0  0  0  0  2  0  0  0  0  0  0
  -21.1430  -27.5330   22.9930 C   0  0  0  0  0  0  0  0  0  0  0  0
  -20.5740  -28.7340   23.4690 C   0  0  0  0  0  3  0  0  0  0  0  0
  -19.1870  -28.9600   23.3830 C   0  0  0  0  0  3  0  0  0  0  0  0
  -18.3500  -27.9760   22.8290 C   0  0  0  0  0  3  0  0  0  0  0  0
  -18.9020  -26.7720   22.3560 C   0  0  0  0  0  3  0  0  0  0  0  0
  -26.4730  -32.7560   24.4310 C   0  0  0  0  0  3  0  0  0  0  0  0
  -25.7360  -34.0130   24.5930 N   0  0  0  0  0  0  0  0  0  0  0  0
  -25.8770  -35.0790   23.7930 C   0  0  0  0  0  0  0  0  0  0  0  0
  -26.7050  -35.1280   22.8800 O   0  0  0  0  0  0  0  0  0  0  0  0
  -24.9970  -34.0260   25.2810 H   0  0  0  0  0  0  0  0  0  0  0  0
  -23.7920  -36.2700   23.0390 C   0  0  0  0  0  1  0  0  0  0  0  0
  -24.9500  -36.2840   24.0490 C   0  0  0  0  0  3  0  0  0  0  0  0
  -26.6670  -37.7510   25.0150 C   0  0  0  0  0  1  0  0  0  0  0  0
  -25.6490  -37.5860   23.9810 N   0  0  0  0  0  0  0  0  0  0  0  0
  -24.9890  -38.3550   24.0610 H   0  0  0  0  0  0  0  0  0  0  0  0
  -26.9030  -32.1730   25.8330 C   0  0  1  0  0  0  0  0  0  0  0  0
  -25.7410  -31.5240   26.6210 C   0  0  0  0  0  1  0  0  0  0  0  0
  -28.0130  -31.1070   25.6680 C   0  0  0  0  0  1  0  0  0  0  0  0
  -27.5030  -33.2990   26.7060 C   0  0  0  0  0  1  0  0  0  0  0  0
  1 20  1  0
  2  7  1  0
  3  4  2  0
  3  2  1  0
  5  4  1  0
  5 24  1  0
  5  6  1  0
  7  6  1  0
  7  1  1  0
  8  1  2  0
  9 11  1  0
 10 17  1  0
 10  9  2  0
 11 18  2  0
 11 52  1  0
 12 19  1  0
 12 18  1  0
 13 15  1  0
 14 19  1  0
 14 16  1  0
 16 20  1  0
 17 12  2  0
 19 13  1  0
 20 15  1  0
 21 22  2  0
 22 23  1  0
 22 41  1  0
 23 26  1  0
 24 21  1  0
 24 25  1  0
 25 23  2  0
 26 27  1  0
 27 28  2  0
 29 32  1  0
 29 28  1  0
 30 29  2  0
 31 30  1  0
 31 26  2  0
 32 33  1  0
 33 34  1  0
 34 35  2  0
 36 35  1  0
 36 40  1  0
 37 36  2  0
 38 33  2  0
 38 37  1  0
 39 38  1  0
 41 42  1  0
 42 45  1  0
 42 44  1  0
 43 41  2  0
 46 21  1  0
 47 46  1  0
 48 46  1  0
 49 51  1  0
 50 49  1  0
 50 51  1  0
 51 10  1  0
 53 52  1  0
 53 54  1  0
 54 55  1  0
 56 54  1  0
 57 54  1  0
 57 58  1  0
 59 58  1  0
 60 71  2  0
 61 59  1  0
 61 66  1  0
 62 70  1  0
 62 72  1  0
 63 65  1  0
 64 70  1  0
 65 66  2  0
 65 64  1  0
 67 61  2  0
 68 67  1  0
 68 63  2  0
 69 63  1  0
 69 62  1  0
 70 60  1  0
 72 74  2  0
 73 72  1  0
 75 73  1  0
 76 81  1  0
 77 73  1  0
 78 77  1  0
 79 80  1  0
 79 78  1  0
 80 76  1  0
 81 77  1  0
 81 82  2  0
 83 82  1  0
 84 83  2  0
 85 76  2  0
 85 84  1  0
 86 60  1  0
 86 87  1  0
 86 96  1  0
 87 90  1  0
 88 92  1  0
 88 87  1  0
 89 88  2  0
 92 91  1  0
 94 92  1  0
 94 95  1  0
 94 93  1  0
 96 97  1  1
 96 99  1  0
 98 96  1  0
M  ISO  4   1 100  20 100  58 101  59 101
M  END
>  <TORSDO>  (18) 
F 21

>  <SCORE>  (18) 
-2.479

>  <name>  (18) 
17

>  <ligand_id>  (18) 
17

>  <original_smiles>  (18) 
[H]c1c(C([H])([H])C([H])([H])[N+]([H])([H])C([H])([H])C([H])([H])Oc2c([H])c([H])c3c(c2[H])C([H])([H])N(C(=O)C([H])(N([H])C(=O)C([H])(N([H])C([H])([H])[H])C([H])([H])[H])C(C([H])([H])[H])(C([H])([H])[H])C([H])([H])[H])C([H])(C(=O)N([H])C2([H])c4c([H])c([H])c([H])c([H])c4C([H])([H])C([H])([H])C2([H])[H])C3([H])[H])nc(N2C([H])([H])C([H])([H])N(C(=O)N3C([H])([H])C([H])([H])C([H])([H])C([H])(n4nc(-c5c([H])c([H])c(Oc6c([H])c([H])c(F)c([H])c6F)c([H])c5[H])c(C(=O)N([H])[H])c4N([H])[H])C3([H])[H])C([H])([H])C2([H])[H])nc1C1([H])C([H])([H])C1([H])[H]

>  <smiles>  (18) 
[H]c1c(C([H])([H])C([H])([H])[N+]([H])([H])C([H])([H])C([H])([H])Oc2c([H])c([H])c3c(c2[H])C([H])([H])N(C(=O)C([H])(N([H])C(=O)C([H])(N([H])C([H])([H])[H])C([H])([H])[H])C(C([H])([H])[H])(C([H])([H])[H])C([H])([H])[H])C([H])(C(=O)N([H])C2([H])c4c([H])c([H])c([H])c([H])c4C([H])([H])C([H])([H])C2([H])[H])C3([H])[H])nc(N2C([H])([H])C([H])([H])N(C(=O)N3C([H])([H])C([H])([H])C([H])([H])C([H])(n4nc(-c5c([H])c([H])c(Oc6c([H])c([H])c(F)c([H])c6F)c([H])c5[H])c(C(=O)N([H])[H])c4N([H])[H])C3([H])[H])C([H])([H])C2([H])[H])nc1C1([H])C([H])([H])C1([H])[H]

$$$$
18:0:0
     RDKit          3D

 98108  0  0  1  0  0  0  0  0999 V2000
  -29.0740  -19.7040   19.7480 C   0  0  0  0  0  0  0  0  0  0  0  0
  -29.4050  -21.0770   19.6950 C   0  0  0  0  0  0  0  0  0  0  0  0
  -29.7090  -18.9430   20.7560 C   0  0  0  0  0  0  0  0  0  0  0  0
  -30.8040  -20.8210   21.4870 C   0  0  0  0  0  0  0  0  0  0  0  0
  -30.2880  -21.6190   20.5580 N   0  0  0  0  0  0  0  0  0  0  0  0
  -30.5500  -19.5250   21.6390 N   0  0  0  0  0  0  0  0  0  0  0  0
  -27.9620  -18.9850   18.6310 Cl  0  0  0  0  0  0  0  0  0  0  0  0
  -30.6220  -14.3740   20.2770 C   0  0  0  0  0  0  0  0  0  0  0  0
  -30.2540  -12.2590   19.0780 C   0  0  0  0  0  2  0  0  0  0  0  0
  -29.2870  -12.5390   17.9090 C   0  0  0  0  0  2  0  0  0  0  0  0
  -27.8200  -12.4240   18.3760 C   0  0  0  0  0  2  0  0  0  0  0  0
  -27.5340  -13.2040   19.6880 C   0  0  0  0  0  3  0  0  0  0  0  0
  -28.6230  -12.9200   20.7490 C   0  0  0  0  0  2  0  0  0  0  0  0
  -29.9310  -13.2130   20.1450 N   0  0  0  0  0  0  0  0  0  0  0  0
  -31.7580  -14.5410   19.8240 O   0  0  0  0  0  0  0  0  0  0  0  0
  -29.5210  -16.4700   19.7730 C   0  0  0  0  0  2  0  0  0  0  0  0
  -30.5070  -16.5000   21.5460 C   0  0  0  0  0  2  0  0  0  0  0  0
  -29.4600  -17.4430   20.9460 C   0  0  0  0  0  3  0  0  0  0  0  0
  -29.9050  -15.4210   20.7360 N   0  0  0  0  0  0  0  0  0  0  0  0
  -25.1530  -13.8140   20.4530 C   0  0  0  0  0  0  0  0  0  0  0  0
  -24.0920  -13.0410   20.8410 C   0  0  0  0  0  0  0  0  0  0  0  0
  -24.5500  -11.6880   20.7920 C   0  0  0  0  0  0  0  0  0  0  0  0
  -26.1920  -12.9310   20.1960 N   0  0  0  0  0  0  0  0  0  0  0  0
  -25.8330  -11.6470   20.4570 N   0  0  0  0  0  0  0  0  0  0  0  0
  -23.8240  -10.4270   20.9930 C   0  0  0  0  0  0  0  0  0  0  0  0
  -24.2660   -9.4610   21.9250 C   0  0  0  0  0  3  0  0  0  0  0  0
  -23.5410   -8.2640   22.1120 C   0  0  0  0  0  3  0  0  0  0  0  0
  -22.3600   -8.0240   21.3680 C   0  0  0  0  0  0  0  0  0  0  0  0
  -21.9390   -8.9780   20.4240 C   0  0  0  0  0  3  0  0  0  0  0  0
  -22.6650  -10.1660   20.2340 C   0  0  0  0  0  3  0  0  0  0  0  0
  -21.6060   -6.8790   21.4660 O   0  0  0  0  0  0  0  0  0  0  0  0
  -21.5640   -6.1420   22.6220 C   0  0  0  0  0  0  0  0  0  0  0  0
  -21.1230   -6.6950   23.8440 C   0  0  0  0  0  3  0  0  0  0  0  0
  -21.0310   -5.8840   24.9920 C   0  0  0  0  0  3  0  0  0  0  0  0
  -21.3670   -4.5190   24.9180 C   0  0  0  0  0  0  0  0  0  0  0  0
  -21.8010   -3.9640   23.7020 C   0  0  0  0  0  3  0  0  0  0  0  0
  -21.8960   -4.7740   22.5560 C   0  0  0  0  0  0  0  0  0  0  0  0
  -22.2940   -4.2300   21.3810 F   0  0  0  0  0  0  0  0  0  0  0  0
  -21.2700   -3.7370   26.0180 F   0  0  0  0  0  0  0  0  0  0  0  0
  -22.7020  -13.5180   21.1470 C   0  0  0  0  0  0  0  0  0  0  0  0
  -21.9910  -12.8170   22.0250 N   0  0  0  0  0  0  0  0  0  0  0  0
  -22.2530  -14.5480   20.6430 O   0  0  0  0  0  0  0  0  0  0  0  0
  -22.3620  -11.9830   22.4570 H   0  0  0  0  0  0  0  0  0  0  0  0
  -21.0600  -13.1190   22.2700 H   0  0  0  0  0  0  0  0  0  0  0  0
  -25.3150  -15.1860   20.2790 N   0  0  0  0  0  0  0  0  0  0  0  0
  -24.5510  -15.8400   20.4110 H   0  0  0  0  0  0  0  0  0  0  0  0
  -26.1640  -15.6280   19.9550 H   0  0  0  0  0  0  0  0  0  0  0  0
  -29.9670  -22.1700   17.4830 C   0  0  0  0  0  2  0  0  0  0  0  0
  -30.3330  -23.6550   17.4580 C   0  0  0  0  0  2  0  0  0  0  0  0
  -28.5080  -23.4260   18.9930 C   0  0  0  0  0  2  0  0  0  0  0  0
  -28.9080  -21.9950   18.5740 C   0  0  0  0  0  3  0  0  0  0  0  0
  -29.5730  -24.3500   18.5270 N   0  0  2  0  0  4  0  0  0  0  0  0
  -30.2160  -24.4420   19.3020 H   0  0  0  0  0  0  0  0  0  0  0  0
  -29.1100  -25.7180   18.1300 C   0  0  0  0  0  2  0  0  0  0  0  0
  -29.3520  -26.8010   19.1980 C   0  0  0  0  0  2  0  0  0  0  0  0
  -28.4630  -26.6650   20.3000 O   0  0  0  0  0  0  0  0  0  0  0  0
  -24.6050  -31.8700   23.2340 C   0  0  0  0  0  0  0  0  0  0  0  0
  -27.3130  -27.4150   20.2430 C   0  0  0  0  0  0  0  0  0  0  0  0
  -23.4230  -30.4360   21.6010 C   0  0  0  0  0  3  0  0  0  0  0  0
  -24.9030  -28.8840   20.2150 C   0  0  0  0  0  0  0  0  0  0  0  0
  -25.9470  -30.8090   21.4250 C   0  0  0  0  0  2  0  0  0  0  0  0
  -26.0500  -29.4310   20.8070 C   0  0  0  0  0  0  0  0  0  0  0  0
  -27.2570  -28.7000   20.8280 C   0  0  0  0  0  3  0  0  0  0  0  0
  -26.1530  -26.8710   19.6580 C   0  0  0  0  0  3  0  0  0  0  0  0
  -24.9480  -27.6010   19.6400 C   0  0  0  0  0  3  0  0  0  0  0  0
  -23.6510  -29.7330   20.2350 C   0  0  0  0  0  2  0  0  0  0  0  0
  -24.6750  -31.0530   22.1460 N   0  0  0  0  0  0  0  0  0  0  0  0
  -23.5150  -32.1450   23.7590 O   0  0  0  0  0  0  0  0  0  0  0  0
  -22.7650  -29.4290   22.5720 C   0  0  0  0  0  0  0  0  0  0  0  0
  -21.4410  -29.2480   22.4400 N   0  0  0  0  0  0  0  0  0  0  0  0
  -23.4430  -28.8110   23.3980 O   0  0  0  0  0  0  0  0  0  0  0  0
  -20.9530  -29.7990   21.7470 H   0  0  0  0  0  0  0  0  0  0  0  0
  -18.0580  -28.1000   22.9640 C   0  0  0  0  0  0  0  0  0  0  0  0
  -20.6190  -28.3210   23.2180 C   0  0  0  0  0  3  0  0  0  0  0  0
  -20.6980  -26.8890   22.6420 C   0  0  0  0  0  2  0  0  0  0  0  0
  -19.5850  -26.5820   21.6340 C   0  0  0  0  0  2  0  0  0  0  0  0
  -18.2110  -26.7480   22.2890 C   0  0  0  0  0  2  0  0  0  0  0  0
  -19.1890  -28.8460   23.3870 C   0  0  0  0  0  0  0  0  0  0  0  0
  -18.9940  -30.1130   23.9780 C   0  0  0  0  0  3  0  0  0  0  0  0
  -17.6970  -30.6320   24.1520 C   0  0  0  0  0  3  0  0  0  0  0  0
  -16.5790  -29.8830   23.7470 C   0  0  0  0  0  3  0  0  0  0  0  0
  -16.7610  -28.6190   23.1580 C   0  0  0  0  0  3  0  0  0  0  0  0
  -25.8820  -32.5170   23.8560 C   0  0  0  0  0  3  0  0  0  0  0  0
  -26.4000  -31.7590   25.1410 C   0  0  1  0  0  0  0  0  0  0  0  0
  -25.3020  -31.5140   26.2020 C   0  0  0  0  0  1  0  0  0  0  0  0
  -27.0020  -30.3860   24.7600 C   0  0  0  0  0  1  0  0  0  0  0  0
  -27.5350  -32.5720   25.8060 C   0  0  0  0  0  1  0  0  0  0  0  0
  -25.5600  -33.9140   24.1720 N   0  0  0  0  0  0  0  0  0  0  0  0
  -25.9020  -34.9630   23.4100 C   0  0  0  0  0  0  0  0  0  0  0  0
  -26.5900  -34.8550   22.3910 O   0  0  0  0  0  0  0  0  0  0  0  0
  -24.9480  -34.0720   24.9570 H   0  0  0  0  0  0  0  0  0  0  0  0
  -24.1810  -36.7500   23.0000 C   0  0  0  0  0  1  0  0  0  0  0  0
  -25.4000  -36.3520   23.8480 C   0  0  0  0  0  3  0  0  0  0  0  0
  -27.5080  -37.2460   24.7370 C   0  0  0  0  0  1  0  0  0  0  0  0
  -26.4340  -37.4060   23.7590 N   0  0  0  0  0  0  0  0  0  0  0  0
  -26.0220  -38.3260   23.8890 H   0  0  0  0  0  0  0  0  0  0  0  0
  -30.8950  -21.8590   23.7840 C   0  0  0  0  0  1  0  0  0  0  0  0
  -31.6890  -21.4760   22.5290 C   0  0  0  0  0  2  0  0  0  0  0  0
  1  3  1  0
  2  1  2  0
  2  5  1  0
  3  6  2  0
  4  6  1  0
  4 98  1  0
  5  4  2  0
  7  1  1  0
  8 19  1  0
  9 14  1  0
 10 11  1  0
 10  9  1  0
 12 11  1  0
 12 23  1  0
 12 13  1  0
 14  8  1  0
 14 13  1  0
 15  8  2  0
 16 19  1  0
 16 18  1  0
 18  3  1  0
 18 17  1  0
 19 17  1  0
 20 21  2  0
 21 40  1  0
 22 21  1  0
 22 25  1  0
 23 20  1  0
 23 24  1  0
 24 22  2  0
 25 26  1  0
 26 27  2  0
 28 31  1  0
 28 27  1  0
 29 28  2  0
 30 29  1  0
 30 25  2  0
 31 32  1  0
 32 33  1  0
 33 34  2  0
 35 34  1  0
 35 39  1  0
 36 35  2  0
 37 32  2  0
 37 36  1  0
 38 37  1  0
 40 41  1  0
 41 44  1  0
 41 43  1  0
 42 40  2  0
 45 46  1  0
 45 20  1  0
 47 45  1  0
 48 51  1  0
 49 48  1  0
 49 52  1  0
 51 50  1  0
 51  2  1  0
 52 50  1  0
 52 53  1  1
 54 52  1  0
 54 55  1  0
 55 56  1  0
 57 68  2  0
 58 56  1  0
 58 63  1  0
 59 67  1  0
 59 69  1  0
 60 66  1  0
 60 62  1  0
 61 67  1  0
 62 63  2  0
 62 61  1  0
 64 58  2  0
 65 64  1  0
 65 60  2  0
 66 59  1  0
 67 57  1  0
 69 71  2  0
 70 69  1  0
 72 70  1  0
 73 82  2  0
 73 78  1  0
 74 70  1  0
 74 78  1  0
 75 74  1  0
 76 77  1  0
 76 75  1  0
 77 73  1  0
 78 79  2  0
 79 80  1  0
 81 80  2  0
 82 81  1  0
 83 57  1  0
 83 88  1  0
 83 84  1  0
 84 87  1  1
 84 85  1  0
 86 84  1  0
 88 91  1  0
 89 93  1  0
 89 88  1  0
 90 89  2  0
 93 92  1  0
 95 93  1  0
 95 96  1  0
 95 94  1  0
 98 97  1  0
M  ISO  4   8 100  19 100  55 101  56 101
M  END
>  <TORSDO>  (19) 
F 20

>  <SCORE>  (19) 
-14.462

>  <name>  (19) 
18

>  <ligand_id>  (19) 
18

>  <original_smiles>  (19) 
[H]c1c([H])c([H])c2c(c1[H])C([H])([H])C([H])([H])C([H])([H])C2([H])N([H])C(=O)C1([H])N(C(=O)C([H])(N([H])C(=O)C([H])(N([H])C([H])([H])[H])C([H])([H])[H])C(C([H])([H])[H])(C([H])([H])[H])C([H])([H])[H])C([H])([H])c2c([H])c(OC([H])([H])C([H])([H])[N+]3([H])C([H])([H])C([H])([H])C([H])(c4nc(C([H])([H])C([H])([H])[H])nc(C5([H])C([H])([H])N(C(=O)N6C([H])([H])C([H])([H])C([H])([H])C([H])(n7nc(-c8c([H])c([H])c(Oc9c([H])c([H])c(F)c([H])c9F)c([H])c8[H])c(C(=O)N([H])[H])c7N([H])[H])C6([H])[H])C5([H])[H])c4Cl)C3([H])[H])c([H])c([H])c2C1([H])[H]

>  <smiles>  (19) 
[H]c1c([H])c([H])c2c(c1[H])C([H])([H])C([H])([H])C([H])([H])C2([H])N([H])C(=O)C1([H])N(C(=O)C([H])(N([H])C(=O)C([H])(N([H])C([H])([H])[H])C([H])([H])[H])C(C([H])([H])[H])(C([H])([H])[H])C([H])([H])[H])C([H])([H])c2c([H])c(OC([H])([H])C([H])([H])[N+]3([H])C([H])([H])C([H])([H])C([H])(c4nc(C([H])([H])C([H])([H])[H])nc(C5([H])C([H])([H])N(C(=O)N6C([H])([H])C([H])([H])C([H])([H])C([H])(n7nc(-c8c([H])c([H])c(Oc9c([H])c([H])c(F)c([H])c9F)c([H])c8[H])c(C(=O)N([H])[H])c7N([H])[H])C6([H])[H])C5([H])[H])c4Cl)C3([H])[H])c([H])c([H])c2C1([H])[H]

$$$$
19:0:0
     RDKit          3D

 99109  0  0  1  0  0  0  0  0999 V2000
  -28.2710  -18.7220   20.3820 C   0  0  0  0  0  3  0  0  0  0  0  0
  -29.6670  -18.8960   20.4250 C   0  0  0  0  0  0  0  0  0  0  0  0
  -27.9000  -21.0290   20.5830 C   0  0  0  0  0  0  0  0  0  0  0  0
  -29.3010  -21.3120   20.6790 C   0  0  0  0  0  0  0  0  0  0  0  0
  -32.0260  -23.5430   20.7560 C   0  0  0  0  0  2  0  0  0  0  0  0
  -31.1650  -22.6160   21.6100 C   0  0  0  0  0  2  0  0  0  0  0  0
  -31.0750  -24.7160   20.5320 C   0  0  0  0  0  3  0  0  0  0  0  0
  -29.6790  -24.0360   20.3460 C   0  0  0  0  0  3  0  0  0  0  0  0
  -27.4090  -19.7670   20.4390 N   0  0  0  0  0  0  0  0  0  0  0  0
  -30.1530  -20.2000   20.5750 N   0  0  0  0  0  0  0  0  0  0  0  0
  -29.8210  -22.6470   21.0180 N   0  0  0  0  0  0  0  0  0  0  0  0
  -30.9760  -14.9930   20.2580 C   0  0  0  0  0  0  0  0  0  0  0  0
  -30.7950  -12.6710   19.3550 C   0  0  0  0  0  2  0  0  0  0  0  0
  -29.8540  -12.6320   18.1350 C   0  0  0  0  0  2  0  0  0  0  0  0
  -28.3810  -12.4980   18.5660 C   0  0  0  0  0  2  0  0  0  0  0  0
  -27.9930  -13.4310   19.7430 C   0  0  0  0  0  3  0  0  0  0  0  0
  -29.0590  -13.4220   20.8630 C   0  0  0  0  0  2  0  0  0  0  0  0
  -30.3400  -13.7670   20.2390 N   0  0  0  0  0  0  0  0  0  0  0  0
  -32.1970  -15.0370   20.0860 O   0  0  0  0  0  0  0  0  0  0  0  0
  -30.9560  -17.4960   18.6820 C   0  0  0  0  0  2  0  0  0  0  0  0
  -29.8420  -16.4510   18.6950 C   0  0  0  0  0  2  0  0  0  0  0  0
  -30.6510  -17.6520   20.1680 C   0  0  0  0  0  3  0  0  0  0  0  0
  -30.2060  -16.1580   20.0990 N   0  0  0  0  0  0  0  0  0  0  0  0
  -25.6160  -14.0120   20.5160 C   0  0  0  0  0  0  0  0  0  0  0  0
  -24.5540  -13.2330   20.8890 C   0  0  0  0  0  0  0  0  0  0  0  0
  -25.0190  -11.8830   20.8330 C   0  0  0  0  0  0  0  0  0  0  0  0
  -26.6570  -13.1370   20.2520 N   0  0  0  0  0  0  0  0  0  0  0  0
  -26.3040  -11.8510   20.5090 N   0  0  0  0  0  0  0  0  0  0  0  0
  -24.2960  -10.6160   21.0080 C   0  0  0  0  0  0  0  0  0  0  0  0
  -24.6990   -9.6560   21.9630 C   0  0  0  0  0  3  0  0  0  0  0  0
  -23.9710   -8.4570   22.1270 C   0  0  0  0  0  3  0  0  0  0  0  0
  -22.8240   -8.2060   21.3360 C   0  0  0  0  0  0  0  0  0  0  0  0
  -22.4410   -9.1550   20.3700 C   0  0  0  0  0  3  0  0  0  0  0  0
  -23.1710  -10.3450   20.2030 C   0  0  0  0  0  3  0  0  0  0  0  0
  -22.0700   -7.0580   21.4110 O   0  0  0  0  0  0  0  0  0  0  0  0
  -21.9330   -6.3630   22.5850 C   0  0  0  0  0  0  0  0  0  0  0  0
  -21.3400   -6.9390   23.7300 C   0  0  0  0  0  3  0  0  0  0  0  0
  -21.1540   -6.1630   24.8920 C   0  0  0  0  0  3  0  0  0  0  0  0
  -21.5520   -4.8130   24.9100 C   0  0  0  0  0  0  0  0  0  0  0  0
  -22.1370   -4.2360   23.7690 C   0  0  0  0  0  3  0  0  0  0  0  0
  -22.3250   -5.0080   22.6080 C   0  0  0  0  0  0  0  0  0  0  0  0
  -22.8670   -4.4410   21.5050 F   0  0  0  0  0  0  0  0  0  0  0  0
  -21.3660   -4.0660   26.0220 F   0  0  0  0  0  0  0  0  0  0  0  0
  -23.1570  -13.7030   21.1740 C   0  0  0  0  0  0  0  0  0  0  0  0
  -22.4300  -12.9930   22.0320 N   0  0  0  0  0  0  0  0  0  0  0  0
  -22.7150  -14.7360   20.6710 O   0  0  0  0  0  0  0  0  0  0  0  0
  -22.7920  -12.1550   22.4620 H   0  0  0  0  0  0  0  0  0  0  0  0
  -21.4920  -13.2910   22.2580 H   0  0  0  0  0  0  0  0  0  0  0  0
  -25.7880  -15.3840   20.3530 N   0  0  0  0  0  0  0  0  0  0  0  0
  -25.0460  -16.0560   20.5200 H   0  0  0  0  0  0  0  0  0  0  0  0
  -26.6420  -15.8090   20.0160 H   0  0  0  0  0  0  0  0  0  0  0  0
  -31.1380  -25.6580   21.6800 N   0  0  0  0  0  4  0  0  0  0  0  0
  -30.8990  -25.2080   22.5510 H   0  0  0  0  0  0  0  0  0  0  0  0
  -30.4840  -26.4070   21.5230 H   0  0  0  0  0  0  0  0  0  0  0  0
  -32.0530  -26.0690   21.7630 H   0  0  0  0  0  0  0  0  0  0  0  0
  -26.4210  -22.5910   19.2600 C   0  0  0  0  0  1  0  0  0  0  0  0
  -26.8190  -22.0950   20.6570 C   0  0  0  0  0  2  0  0  0  0  0  0
  -28.5090  -25.1230   20.6920 C   0  0  0  0  0  2  0  0  0  0  0  0
  -28.6710  -26.5760   20.2800 O   0  0  0  0  0  0  0  0  0  0  0  0
  -24.7640  -31.9100   23.2960 C   0  0  0  0  0  0  0  0  0  0  0  0
  -27.5480  -27.4360   20.2300 C   0  0  0  0  0  0  0  0  0  0  0  0
  -23.6410  -30.5300   21.5880 C   0  0  0  0  0  3  0  0  0  0  0  0
  -25.1640  -29.0440   20.1630 C   0  0  0  0  0  0  0  0  0  0  0  0
  -26.1780  -30.8960   21.4810 C   0  0  0  0  0  2  0  0  0  0  0  0
  -26.3070  -29.5290   20.8120 C   0  0  0  0  0  0  0  0  0  0  0  0
  -27.4990  -28.7390   20.8340 C   0  0  0  0  0  3  0  0  0  0  0  0
  -26.3860  -27.0240   19.5390 C   0  0  0  0  0  3  0  0  0  0  0  0
  -25.2100  -27.7980   19.5140 C   0  0  0  0  0  3  0  0  0  0  0  0
  -23.9130  -29.9000   20.1970 C   0  0  0  0  0  2  0  0  0  0  0  0
  -24.8820  -31.1290   22.1810 N   0  0  0  0  0  0  0  0  0  0  0  0
  -23.6610  -32.1520   23.8030 O   0  0  0  0  0  0  0  0  0  0  0  0
  -22.9710  -29.4730   22.4990 C   0  0  0  0  0  0  0  0  0  0  0  0
  -21.6530  -29.2740   22.3270 N   0  0  0  0  0  0  0  0  0  0  0  0
  -23.6360  -28.8370   23.3200 O   0  0  0  0  0  0  0  0  0  0  0  0
  -21.1790  -29.8360   21.6340 H   0  0  0  0  0  0  0  0  0  0  0  0
  -18.2670  -28.0700   22.7420 C   0  0  0  0  0  0  0  0  0  0  0  0
  -20.8250  -28.3020   23.0430 C   0  0  0  0  0  3  0  0  0  0  0  0
  -20.9270  -26.9060   22.3850 C   0  0  0  0  0  2  0  0  0  0  0  0
  -19.8260  -26.6440   21.3540 C   0  0  0  0  0  2  0  0  0  0  0  0
  -18.4410  -26.7590   21.9940 C   0  0  0  0  0  2  0  0  0  0  0  0
  -19.3850  -28.8040   23.2180 C   0  0  0  0  0  0  0  0  0  0  0  0
  -19.1650  -30.0370   23.8700 C   0  0  0  0  0  3  0  0  0  0  0  0
  -17.8600  -30.5320   24.0520 C   0  0  0  0  0  3  0  0  0  0  0  0
  -16.7560  -29.7930   23.5920 C   0  0  0  0  0  3  0  0  0  0  0  0
  -16.9600  -28.5640   22.9410 C   0  0  0  0  0  3  0  0  0  0  0  0
  -26.0110  -32.5460   23.9790 C   0  0  0  0  0  3  0  0  0  0  0  0
  -26.4610  -31.7700   25.2750 C   0  0  1  0  0  0  0  0  0  0  0  0
  -25.3120  -31.5230   26.2820 C   0  0  0  0  0  1  0  0  0  0  0  0
  -27.0670  -30.3990   24.8980 C   0  0  0  0  0  1  0  0  0  0  0  0
  -27.5740  -32.5650   25.9960 C   0  0  0  0  0  1  0  0  0  0  0  0
  -25.6820  -33.9420   24.3000 N   0  0  0  0  0  0  0  0  0  0  0  0
  -25.9730  -34.9900   23.5200 C   0  0  0  0  0  0  0  0  0  0  0  0
  -26.6140  -34.8830   22.4690 O   0  0  0  0  0  0  0  0  0  0  0  0
  -25.1020  -34.0930   25.1130 H   0  0  0  0  0  0  0  0  0  0  0  0
  -24.1750  -36.7230   23.2190 C   0  0  0  0  0  1  0  0  0  0  0  0
  -25.4720  -36.3760   23.9690 C   0  0  0  0  0  3  0  0  0  0  0  0
  -27.6150  -37.3530   24.6670 C   0  0  0  0  0  1  0  0  0  0  0  0
  -26.4670  -37.4530   23.7710 N   0  0  0  0  0  0  0  0  0  0  0  0
  -26.0420  -38.3680   23.9000 H   0  0  0  0  0  0  0  0  0  0  0  0
  1  2  2  0
  1  9  1  0
  2 10  1  0
  3 57  1  0
  3  4  1  0
  4 11  1  0
  5  6  1  0
  7  5  1  0
  7 52  1  0
  8  7  1  0
  8 58  1  0
  8 11  1  0
  9  3  2  0
 10  4  2  0
 11  6  1  0
 13 18  1  0
 14 15  1  0
 14 13  1  0
 16 15  1  0
 16 27  1  0
 16 17  1  0
 18 12  1  0
 18 17  1  0
 19 12  2  0
 20 21  1  0
 20 22  1  0
 21 23  1  0
 22  2  1  0
 23 22  1  0
 23 12  1  0
 24 25  2  0
 25 44  1  0
 26 25  1  0
 26 29  1  0
 27 28  1  0
 27 24  1  0
 28 26  2  0
 29 30  1  0
 30 31  2  0
 32 35  1  0
 32 31  1  0
 33 32  2  0
 34 33  1  0
 34 29  2  0
 35 36  1  0
 36 41  2  0
 36 37  1  0
 37 38  2  0
 38 39  1  0
 39 43  1  0
 40 39  2  0
 41 40  1  0
 42 41  1  0
 44 45  1  0
 45 48  1  0
 45 47  1  0
 46 44  2  0
 49 24  1  0
 49 50  1  0
 51 49  1  0
 52 55  1  0
 52 53  1  0
 54 52  1  0
 56 57  1  0
 59 58  1  0
 60 71  2  0
 61 59  1  0
 61 66  1  0
 62 70  1  0
 62 72  1  0
 63 69  1  0
 63 65  1  0
 64 70  1  0
 65 66  2  0
 65 64  1  0
 67 61  2  0
 68 67  1  0
 68 63  2  0
 69 62  1  0
 70 60  1  0
 72 74  2  0
 73 72  1  0
 75 73  1  0
 76 85  2  0
 76 81  1  0
 77 73  1  0
 77 81  1  0
 78 77  1  0
 79 80  1  0
 79 78  1  0
 80 76  1  0
 81 82  2  0
 82 83  1  0
 84 83  2  0
 85 84  1  0
 86 60  1  0
 86 91  1  0
 86 87  1  0
 87 90  1  1
 87 88  1  0
 89 87  1  0
 91 94  1  0
 92 96  1  0
 92 91  1  0
 93 92  2  0
 96 95  1  0
 98 99  1  0
 98 96  1  0
 98 97  1  0
M  ISO  4  12 100  23 100  58 101  59 101
M  END
>  <TORSDO>  (20) 
F 19

>  <SCORE>  (20) 
-13.568

>  <name>  (20) 
19

>  <ligand_id>  (20) 
19

>  <original_smiles>  (20) 
[H]c1nc(C([H])([H])C([H])([H])[H])c(N2C([H])([H])C([H])([H])C([H])([N+]([H])([H])[H])C2([H])C([H])([H])Oc2c([H])c([H])c3c(c2[H])C([H])([H])N(C(=O)C([H])(N([H])C(=O)C([H])(N([H])C([H])([H])[H])C([H])([H])[H])C(C([H])([H])[H])(C([H])([H])[H])C([H])([H])[H])C([H])(C(=O)N([H])C2([H])c4c([H])c([H])c([H])c([H])c4C([H])([H])C([H])([H])C2([H])[H])C3([H])[H])nc1C1([H])N(C(=O)N2C([H])([H])C([H])([H])C([H])([H])C([H])(n3nc(-c4c([H])c([H])c(Oc5c([H])c([H])c(F)c([H])c5F)c([H])c4[H])c(C(=O)N([H])[H])c3N([H])[H])C2([H])[H])C([H])([H])C1([H])[H]

>  <smiles>  (20) 
[H]c1nc(C([H])([H])C([H])([H])[H])c(N2C([H])([H])C([H])([H])C([H])([N+]([H])([H])[H])C2([H])C([H])([H])Oc2c([H])c([H])c3c(c2[H])C([H])([H])N(C(=O)C([H])(N([H])C(=O)C([H])(N([H])C([H])([H])[H])C([H])([H])[H])C(C([H])([H])[H])(C([H])([H])[H])C([H])([H])[H])C([H])(C(=O)N([H])C2([H])c4c([H])c([H])c([H])c([H])c4C([H])([H])C([H])([H])C2([H])[H])C3([H])[H])nc1C1([H])N(C(=O)N2C([H])([H])C([H])([H])C([H])([H])C([H])(n3nc(-c4c([H])c([H])c(Oc5c([H])c([H])c(F)c([H])c5F)c([H])c4[H])c(C(=O)N([H])[H])c3N([H])[H])C2([H])[H])C([H])([H])C1([H])[H]

$$$$
20:0:0
     RDKit          3D

 91101  0  0  1  0  0  0  0  0999 V2000
  -28.9840  -20.3530   21.3750 C   0  0  0  0  0  2  0  0  0  0  0  0
  -29.6730  -19.8870   20.2290 C   0  0  0  0  0  0  0  0  0  0  0  0
  -29.0920  -22.5370   20.5720 C   0  0  0  0  0  0  0  0  0  0  0  0
  -28.7050  -21.6830   21.5410 N   0  0  0  0  0  0  0  0  0  0  0  0
  -30.0330  -20.8190   19.2960 N   0  0  0  0  0  0  0  0  0  0  0  0
  -29.7550  -22.1350   19.4670 N   0  0  0  0  0  2  0  0  0  0  0  0
  -30.6570  -14.7740   20.4240 C   0  0  0  0  0  0  0  0  0  0  0  0
  -30.4410  -12.5040   19.4580 C   0  0  0  0  0  2  0  0  0  0  0  0
  -29.5140  -12.5870   18.2270 C   0  0  0  0  0  2  0  0  0  0  0  0
  -28.0380  -12.4370   18.6460 C   0  0  0  0  0  2  0  0  0  0  0  0
  -27.6520  -13.3250   19.8610 C   0  0  0  0  0  3  0  0  0  0  0  0
  -28.7090  -13.2550   20.9850 C   0  0  0  0  0  2  0  0  0  0  0  0
  -30.0130  -13.5650   20.3860 N   0  0  0  0  0  0  0  0  0  0  0  0
  -31.8780  -14.8550   20.2600 O   0  0  0  0  0  0  0  0  0  0  0  0
  -29.1950  -17.7680   18.8130 C   0  0  0  0  0  2  0  0  0  0  0  0
  -29.5770  -16.2800   18.8550 C   0  0  0  0  0  2  0  0  0  0  0  0
  -30.0350  -17.2190   20.9660 C   0  0  0  0  0  2  0  0  0  0  0  0
  -30.0420  -18.3890   19.9070 C   0  0  0  0  0  3  0  0  0  0  0  0
  -29.8760  -15.9010   20.2520 N   0  0  0  0  0  0  0  0  0  0  0  0
  -25.2590  -13.9270   20.5590 C   0  0  0  0  0  0  0  0  0  0  0  0
  -24.1870  -13.1540   20.9110 C   0  0  0  0  0  0  0  0  0  0  0  0
  -24.6500  -11.8030   20.8870 C   0  0  0  0  0  0  0  0  0  0  0  0
  -26.3050  -13.0440   20.3400 N   0  0  0  0  0  0  0  0  0  0  0  0
  -25.9450  -11.7620   20.5990 N   0  0  0  0  0  0  0  0  0  0  0  0
  -23.9230  -10.5410   21.0650 C   0  0  0  0  0  0  0  0  0  0  0  0
  -24.3400   -9.5760   22.0080 C   0  0  0  0  0  3  0  0  0  0  0  0
  -23.6130   -8.3780   22.1740 C   0  0  0  0  0  3  0  0  0  0  0  0
  -22.4560   -8.1370   21.3960 C   0  0  0  0  0  0  0  0  0  0  0  0
  -22.0590   -9.0900   20.4420 C   0  0  0  0  0  3  0  0  0  0  0  0
  -22.7860  -10.2800   20.2730 C   0  0  0  0  0  3  0  0  0  0  0  0
  -21.7010   -6.9910   21.4710 O   0  0  0  0  0  0  0  0  0  0  0  0
  -21.6190   -6.2590   22.6290 C   0  0  0  0  0  0  0  0  0  0  0  0
  -21.1180   -6.8140   23.8260 C   0  0  0  0  0  3  0  0  0  0  0  0
  -20.9850   -6.0070   24.9750 C   0  0  0  0  0  3  0  0  0  0  0  0
  -21.3420   -4.6470   24.9240 C   0  0  0  0  0  0  0  0  0  0  0  0
  -21.8370   -4.0920   23.7300 C   0  0  0  0  0  3  0  0  0  0  0  0
  -21.9710   -4.8960   22.5860 C   0  0  0  0  0  0  0  0  0  0  0  0
  -22.4280   -4.3510   21.4320 F   0  0  0  0  0  0  0  0  0  0  0  0
  -21.2070   -3.8680   26.0230 F   0  0  0  0  0  0  0  0  0  0  0  0
  -22.7870  -13.6310   21.1640 C   0  0  0  0  0  0  0  0  0  0  0  0
  -22.0470  -12.9340   22.0190 N   0  0  0  0  0  0  0  0  0  0  0  0
  -22.3560  -14.6570   20.6370 O   0  0  0  0  0  0  0  0  0  0  0  0
  -22.4090  -12.1050   22.4650 H   0  0  0  0  0  0  0  0  0  0  0  0
  -21.1070  -13.2350   22.2310 H   0  0  0  0  0  0  0  0  0  0  0  0
  -25.4270  -15.2980   20.3840 N   0  0  0  0  0  0  0  0  0  0  0  0
  -24.6610  -15.9550   20.4870 H   0  0  0  0  0  0  0  0  0  0  0  0
  -26.2900  -15.7380   20.0930 H   0  0  0  0  0  0  0  0  0  0  0  0
  -27.5260  -24.5400   21.2260 C   0  0  0  0  0  2  0  0  0  0  0  0
  -28.9140  -24.0650   20.8420 C   0  0  0  0  0  3  0  0  0  0  0  0
  -28.1470  -25.1480   19.9970 C   0  0  0  0  0  3  0  0  0  0  0  0
  -28.3160  -26.6070   20.1980 O   0  0  0  0  0  0  0  0  0  0  0  0
  -24.5860  -31.9410   23.2860 C   0  0  0  0  0  0  0  0  0  0  0  0
  -27.1820  -27.4330   20.1600 C   0  0  0  0  0  0  0  0  0  0  0  0
  -23.3710  -30.5640   21.6350 C   0  0  0  0  0  3  0  0  0  0  0  0
  -24.8120  -29.0300   20.1840 C   0  0  0  0  0  0  0  0  0  0  0  0
  -25.9080  -30.8870   21.4390 C   0  0  0  0  0  2  0  0  0  0  0  0
  -25.9840  -29.5170   20.7770 C   0  0  0  0  0  0  0  0  0  0  0  0
  -27.1710  -28.7310   20.7540 C   0  0  0  0  0  3  0  0  0  0  0  0
  -25.9850  -26.9920   19.5500 C   0  0  0  0  0  3  0  0  0  0  0  0
  -24.8130  -27.7720   19.5630 C   0  0  0  0  0  3  0  0  0  0  0  0
  -23.5760  -29.9040   20.2460 C   0  0  0  0  0  2  0  0  0  0  0  0
  -24.6410  -31.1470   22.1770 N   0  0  0  0  0  0  0  0  0  0  0  0
  -23.5070  -32.2130   23.8300 O   0  0  0  0  0  0  0  0  0  0  0  0
  -22.7130  -29.5370   22.5860 C   0  0  0  0  0  0  0  0  0  0  0  0
  -21.3890  -29.3490   22.4510 N   0  0  0  0  0  0  0  0  0  0  0  0
  -23.3920  -28.9110   23.4050 O   0  0  0  0  0  0  0  0  0  0  0  0
  -20.9010  -29.9050   21.7620 H   0  0  0  0  0  0  0  0  0  0  0  0
  -18.0180  -28.1320   22.9270 C   0  0  0  0  0  0  0  0  0  0  0  0
  -20.5720  -28.4040   23.2130 C   0  0  0  0  0  3  0  0  0  0  0  0
  -20.6860  -26.9760   22.6300 C   0  0  0  0  0  2  0  0  0  0  0  0
  -19.5910  -26.6530   21.6080 C   0  0  0  0  0  2  0  0  0  0  0  0
  -18.2060  -26.7870   22.2450 C   0  0  0  0  0  2  0  0  0  0  0  0
  -19.1290  -28.8980   23.3660 C   0  0  0  0  0  0  0  0  0  0  0  0
  -18.9000  -30.1560   23.9630 C   0  0  0  0  0  3  0  0  0  0  0  0
  -17.5920  -30.6500   24.1240 C   0  0  0  0  0  3  0  0  0  0  0  0
  -16.4940  -29.8820   23.7010 C   0  0  0  0  0  3  0  0  0  0  0  0
  -16.7070  -28.6240   23.1080 C   0  0  0  0  0  3  0  0  0  0  0  0
  -25.8740  -32.5630   23.9080 C   0  0  0  0  0  3  0  0  0  0  0  0
  -25.5790  -33.9660   24.2300 N   0  0  0  0  0  0  0  0  0  0  0  0
  -25.9050  -35.0100   23.4560 C   0  0  0  0  0  0  0  0  0  0  0  0
  -26.5570  -34.8930   22.4160 O   0  0  0  0  0  0  0  0  0  0  0  0
  -24.9980  -34.1310   25.0390 H   0  0  0  0  0  0  0  0  0  0  0  0
  -24.1820  -36.8110   23.1130 C   0  0  0  0  0  1  0  0  0  0  0  0
  -25.4330  -36.4060   23.9080 C   0  0  0  0  0  3  0  0  0  0  0  0
  -27.5820  -37.2900   24.7030 C   0  0  0  0  0  1  0  0  0  0  0  0
  -26.4710  -37.4510   23.7690 N   0  0  0  0  0  0  0  0  0  0  0  0
  -26.0720  -38.3750   23.9060 H   0  0  0  0  0  0  0  0  0  0  0  0
  -26.3790  -31.7940   25.1900 C   0  0  1  0  0  0  0  0  0  0  0  0
  -25.2790  -31.5700   26.2540 C   0  0  0  0  0  1  0  0  0  0  0  0
  -26.9520  -30.4080   24.8080 C   0  0  0  0  0  1  0  0  0  0  0  0
  -27.5330  -32.5800   25.8530 C   0  0  0  0  0  1  0  0  0  0  0  0
  1  4  1  0
  2  1  1  0
  3  4  2  0
  5  6  1  0
  5  2  2  0
  6  3  1  0
  8 13  1  0
  9 10  1  0
  9  8  1  0
 11 10  1  0
 11 23  1  0
 11 12  1  0
 13  7  1  0
 13 12  1  0
 14  7  2  0
 15 16  1  0
 15 18  1  0
 16 19  1  0
 18  2  1  0
 18 17  1  0
 19  7  1  0
 19 17  1  0
 20 21  2  0
 21 40  1  0
 22 21  1  0
 22 25  1  0
 23 20  1  0
 23 24  1  0
 24 22  2  0
 25 26  1  0
 26 27  2  0
 28 31  1  0
 28 27  1  0
 29 28  2  0
 30 29  1  0
 30 25  2  0
 31 32  1  0
 32 33  1  0
 33 34  2  0
 35 34  1  0
 35 39  1  0
 36 35  2  0
 37 32  2  0
 37 36  1  0
 38 37  1  0
 40 41  1  0
 41 44  1  0
 41 43  1  0
 42 40  2  0
 45 46  1  0
 45 20  1  0
 47 45  1  0
 49  3  1  0
 49 48  1  0
 50 51  1  0
 50 49  1  0
 50 48  1  0
 52 63  2  0
 53 51  1  0
 53 58  1  0
 54 62  1  0
 54 64  1  0
 55 61  1  0
 55 57  1  0
 56 62  1  0
 57 56  1  0
 58 57  2  0
 59 60  1  0
 59 53  2  0
 60 55  2  0
 61 54  1  0
 62 52  1  0
 64 66  2  0
 65 64  1  0
 67 65  1  0
 68 77  2  0
 68 73  1  0
 69 65  1  0
 69 73  1  0
 70 69  1  0
 71 72  1  0
 71 70  1  0
 72 68  1  0
 73 74  2  0
 74 75  1  0
 76 75  2  0
 77 76  1  0
 78 52  1  0
 78 79  1  0
 78 88  1  0
 79 82  1  0
 80 84  1  0
 80 79  1  0
 81 80  2  0
 84 83  1  0
 86 87  1  0
 86 84  1  0
 86 85  1  0
 88 91  1  1
 88 89  1  0
 90 88  1  0
M  ISO  4   7 100  19 100  50 101  51 101
M  END
>  <TORSDO>  (21) 
F 17

>  <SCORE>  (21) 
-14.912

>  <name>  (21) 
20

>  <ligand_id>  (21) 
20

>  <original_smiles>  (21) 
[H]c1nc(C2([H])C([H])([H])C2([H])Oc2c([H])c([H])c3c(c2[H])C([H])([H])N(C(=O)C([H])(N([H])C(=O)C([H])(N([H])C([H])([H])[H])C([H])([H])[H])C(C([H])([H])[H])(C([H])([H])[H])C([H])([H])[H])C([H])(C(=O)N([H])C2([H])c4c([H])c([H])c([H])c([H])c4C([H])([H])C([H])([H])C2([H])[H])C3([H])[H])nnc1C1([H])C([H])([H])N(C(=O)N2C([H])([H])C([H])([H])C([H])([H])C([H])(n3nc(-c4c([H])c([H])c(Oc5c([H])c([H])c(F)c([H])c5F)c([H])c4[H])c(C(=O)N([H])[H])c3N([H])[H])C2([H])[H])C([H])([H])C1([H])[H]

>  <smiles>  (21) 
[H]c1nc(C2([H])C([H])([H])C2([H])Oc2c([H])c([H])c3c(c2[H])C([H])([H])N(C(=O)C([H])(N([H])C(=O)C([H])(N([H])C([H])([H])[H])C([H])([H])[H])C(C([H])([H])[H])(C([H])([H])[H])C([H])([H])[H])C([H])(C(=O)N([H])C2([H])c4c([H])c([H])c([H])c([H])c4C([H])([H])C([H])([H])C2([H])[H])C3([H])[H])nnc1C1([H])C([H])([H])N(C(=O)N2C([H])([H])C([H])([H])C([H])([H])C([H])(n3nc(-c4c([H])c([H])c(Oc5c([H])c([H])c(F)c([H])c5F)c([H])c4[H])c(C(=O)N([H])[H])c3N([H])[H])C2([H])[H])C([H])([H])C1([H])[H]

$$$$
21:0:0
     RDKit          3D

 99109  0  0  1  0  0  0  0  0999 V2000
  -27.4360  -24.7430   20.0930 C   0  0  0  0  0  3  0  0  0  0  0  0
  -27.3970  -23.4640   19.5160 C   0  0  0  0  0  0  0  0  0  0  0  0
  -28.5620  -23.0180   18.8480 C   0  0  0  0  0  0  0  0  0  0  0  0
  -28.5120  -25.6040   19.8120 C   0  0  0  0  0  0  0  0  0  0  0  0
  -29.6670  -23.9040   18.7640 C   0  0  0  0  0  0  0  0  0  0  0  0
  -29.6290  -25.1810   19.1940 N   0  0  0  0  0  0  0  0  0  0  0  0
  -31.1620  -23.3920   18.0700 Cl  0  0  0  0  0  0  0  0  0  0  0  0
  -25.5640  -22.6090   21.0520 C   0  0  0  0  0  1  0  0  0  0  0  0
  -26.0870  -22.6920   19.6100 C   0  0  0  0  0  2  0  0  0  0  0  0
  -28.4870  -26.9600   20.0900 O   0  0  0  0  0  0  0  0  0  0  0  0
  -24.6190  -32.0020   23.2940 C   0  0  0  0  0  0  0  0  0  0  0  0
  -27.3000  -27.6660   20.0990 C   0  0  0  0  0  0  0  0  0  0  0  0
  -23.4220  -30.6280   21.6240 C   0  0  0  0  0  3  0  0  0  0  0  0
  -24.8880  -29.1430   20.1650 C   0  0  0  0  0  0  0  0  0  0  0  0
  -25.9430  -31.0160   21.4290 C   0  0  0  0  0  2  0  0  0  0  0  0
  -26.0400  -29.6550   20.7770 C   0  0  0  0  0  0  0  0  0  0  0  0
  -27.2400  -28.9140   20.7580 C   0  0  0  0  0  3  0  0  0  0  0  0
  -26.1380  -27.2120   19.4260 C   0  0  0  0  0  3  0  0  0  0  0  0
  -24.9300  -27.9210   19.4850 C   0  0  0  0  0  3  0  0  0  0  0  0
  -23.6380  -29.9850   20.2320 C   0  0  0  0  0  2  0  0  0  0  0  0
  -24.6790  -31.2240   22.1770 N   0  0  0  0  0  0  0  0  0  0  0  0
  -23.5340  -32.2480   23.8390 O   0  0  0  0  0  0  0  0  0  0  0  0
  -22.7840  -29.5730   22.5660 C   0  0  0  0  0  0  0  0  0  0  0  0
  -21.4630  -29.3620   22.4240 N   0  0  0  0  0  0  0  0  0  0  0  0
  -23.4790  -28.9470   23.3670 O   0  0  0  0  0  0  0  0  0  0  0  0
  -20.9610  -29.9100   21.7390 H   0  0  0  0  0  0  0  0  0  0  0  0
  -18.1160  -28.1120   22.9170 C   0  0  0  0  0  0  0  0  0  0  0  0
  -20.6700  -28.4000   23.1860 C   0  0  0  0  0  3  0  0  0  0  0  0
  -20.7860  -26.9780   22.5940 C   0  0  0  0  0  2  0  0  0  0  0  0
  -19.6900  -26.6380   21.5790 C   0  0  0  0  0  2  0  0  0  0  0  0
  -18.3080  -26.7670   22.2370 C   0  0  0  0  0  2  0  0  0  0  0  0
  -19.2260  -28.8850   23.3520 C   0  0  0  0  0  0  0  0  0  0  0  0
  -18.9900  -30.1410   23.9590 C   0  0  0  0  0  3  0  0  0  0  0  0
  -17.6810  -30.6220   24.1380 C   0  0  0  0  0  3  0  0  0  0  0  0
  -16.5890  -29.8440   23.7190 C   0  0  0  0  0  3  0  0  0  0  0  0
  -16.8030  -28.5890   23.1190 C   0  0  0  0  0  3  0  0  0  0  0  0
  -25.8960  -32.6390   23.9230 C   0  0  0  0  0  3  0  0  0  0  0  0
  -26.4140  -31.8620   25.1930 C   0  0  1  0  0  0  0  0  0  0  0  0
  -25.3200  -31.6030   26.2540 C   0  0  0  0  0  1  0  0  0  0  0  0
  -27.0100  -30.4930   24.7860 C   0  0  0  0  0  1  0  0  0  0  0  0
  -27.5570  -32.6610   25.8640 C   0  0  0  0  0  1  0  0  0  0  0  0
  -25.5820  -34.0360   24.2490 N   0  0  0  0  0  0  0  0  0  0  0  0
  -25.9210  -35.0840   23.4850 C   0  0  0  0  0  0  0  0  0  0  0  0
  -26.5930  -34.9750   22.4570 O   0  0  0  0  0  0  0  0  0  0  0  0
  -24.9750  -34.1870   25.0430 H   0  0  0  0  0  0  0  0  0  0  0  0
  -24.1880  -36.8720   23.1140 C   0  0  0  0  0  1  0  0  0  0  0  0
  -25.4240  -36.4710   23.9350 C   0  0  0  0  0  3  0  0  0  0  0  0
  -27.5500  -37.3690   24.7760 C   0  0  0  0  0  1  0  0  0  0  0  0
  -26.4520  -37.5280   23.8240 N   0  0  0  0  0  0  0  0  0  0  0  0
  -26.0440  -38.4490   23.9630 H   0  0  0  0  0  0  0  0  0  0  0  0
  -28.6210  -21.6370   18.2110 C   0  0  0  0  0  2  0  0  0  0  0  0
  -28.8750  -20.5470   19.2550 C   0  0  0  0  0  2  0  0  0  0  0  0
  -30.1480  -18.9160   16.5890 C   0  0  0  0  0  2  0  0  0  0  0  0
  -28.7590  -18.8820   17.2110 C   0  0  0  0  0  2  0  0  0  0  0  0
  -30.9860  -18.2270   17.6560 C   0  0  0  0  0  2  0  0  0  0  0  0
  -29.0240  -19.1040   18.7240 C   0  0  0  0  0  3  0  0  0  0  0  0
  -30.4170  -18.6430   18.9640 N   0  0  1  0  0  4  0  0  0  0  0  0
  -30.9450  -19.4530   19.2450 H   0  0  0  0  0  0  0  0  0  0  0  0
  -30.9770  -14.6260   20.6420 C   0  0  0  0  0  0  0  0  0  0  0  0
  -30.7130  -12.5660   19.3430 C   0  0  0  0  0  2  0  0  0  0  0  0
  -29.7860  -12.8390   18.1370 C   0  0  0  0  0  2  0  0  0  0  0  0
  -28.2930  -12.7160   18.5200 C   0  0  0  0  0  2  0  0  0  0  0  0
  -27.9370  -13.4830   19.8170 C   0  0  0  0  0  3  0  0  0  0  0  0
  -28.9610  -13.1620   20.9280 C   0  0  0  0  0  2  0  0  0  0  0  0
  -30.3080  -13.4760   20.4180 N   0  0  0  0  0  0  0  0  0  0  0  0
  -32.1220  -14.8470   20.2330 O   0  0  0  0  0  0  0  0  0  0  0  0
  -30.6480  -17.9900   21.4820 C   0  0  0  0  0  2  0  0  0  0  0  0
  -30.6580  -16.5800   22.1230 C   0  0  0  0  0  2  0  0  0  0  0  0
  -29.6740  -16.4610   20.0170 C   0  0  0  0  0  2  0  0  0  0  0  0
  -30.6590  -17.6190   20.0030 C   0  0  0  0  0  3  0  0  0  0  0  0
  -30.1960  -15.6280   21.0910 N   0  0  0  0  0  0  0  0  0  0  0  0
  -25.5160  -14.1230   20.4200 C   0  0  0  0  0  0  0  0  0  0  0  0
  -24.4310  -13.3590   20.7640 C   0  0  0  0  0  0  0  0  0  0  0  0
  -24.8890  -12.0070   20.7680 C   0  0  0  0  0  0  0  0  0  0  0  0
  -26.5680  -13.2310   20.2440 N   0  0  0  0  0  0  0  0  0  0  0  0
  -26.1880  -11.9570   20.5040 N   0  0  0  0  0  0  0  0  0  0  0  0
  -24.1620  -10.7420   20.9430 C   0  0  0  0  0  0  0  0  0  0  0  0
  -24.5380   -9.8070   21.9290 C   0  0  0  0  0  3  0  0  0  0  0  0
  -23.8100   -8.6090   22.0900 C   0  0  0  0  0  3  0  0  0  0  0  0
  -22.6970   -8.3400   21.2620 C   0  0  0  0  0  0  0  0  0  0  0  0
  -22.3400   -9.2670   20.2680 C   0  0  0  0  0  3  0  0  0  0  0  0
  -23.0690  -10.4560   20.1040 C   0  0  0  0  0  3  0  0  0  0  0  0
  -21.9450   -7.1940   21.3330 O   0  0  0  0  0  0  0  0  0  0  0  0
  -21.7870   -6.5080   22.5090 C   0  0  0  0  0  0  0  0  0  0  0  0
  -21.2220   -7.1140   23.6540 C   0  0  0  0  0  3  0  0  0  0  0  0
  -21.0120   -6.3520   24.8220 C   0  0  0  0  0  3  0  0  0  0  0  0
  -21.3550   -4.9870   24.8430 C   0  0  0  0  0  0  0  0  0  0  0  0
  -21.9140   -4.3820   23.7040 C   0  0  0  0  0  3  0  0  0  0  0  0
  -22.1240   -5.1400   22.5390 C   0  0  0  0  0  0  0  0  0  0  0  0
  -22.6410   -4.5450   21.4360 F   0  0  0  0  0  0  0  0  0  0  0  0
  -21.1470   -4.2550   25.9630 F   0  0  0  0  0  0  0  0  0  0  0  0
  -23.0260  -13.8420   20.9790 C   0  0  0  0  0  0  0  0  0  0  0  0
  -22.2700  -13.1620   21.8340 N   0  0  0  0  0  0  0  0  0  0  0  0
  -22.6050  -14.8560   20.4250 O   0  0  0  0  0  0  0  0  0  0  0  0
  -22.6240  -12.3450   22.3060 H   0  0  0  0  0  0  0  0  0  0  0  0
  -21.3200  -13.4610   22.0180 H   0  0  0  0  0  0  0  0  0  0  0  0
  -25.6850  -15.4890   20.2280 N   0  0  0  0  0  0  0  0  0  0  0  0
  -24.9210  -16.1530   20.3040 H   0  0  0  0  0  0  0  0  0  0  0  0
  -26.5470  -15.9120   19.9200 H   0  0  0  0  0  0  0  0  0  0  0  0
  2  9  1  0
  2  1  2  0
  3  2  1  0
  4 10  1  0
  4  1  1  0
  5  3  2  0
  5  6  1  0
  6  4  2  0
  7  5  1  0
  9  8  1  0
 10 12  1  0
 11 22  2  0
 12 17  1  0
 13 21  1  0
 13 23  1  0
 14 20  1  0
 14 16  1  0
 15 21  1  0
 16 15  1  0
 17 16  2  0
 18 19  1  0
 18 12  2  0
 19 14  2  0
 20 13  1  0
 21 11  1  0
 23 25  2  0
 24 23  1  0
 26 24  1  0
 27 36  2  0
 27 32  1  0
 28 24  1  0
 28 32  1  0
 29 28  1  0
 30 31  1  0
 30 29  1  0
 31 27  1  0
 32 33  2  0
 33 34  1  0
 35 34  2  0
 36 35  1  0
 37 11  1  0
 37 42  1  0
 37 38  1  0
 38 41  1  1
 38 39  1  0
 40 38  1  0
 42 45  1  0
 43 47  1  0
 43 42  1  0
 44 43  2  0
 47 46  1  0
 49 47  1  0
 49 50  1  0
 49 48  1  0
 51  3  1  0
 51 52  1  0
 53 54  1  0
 53 55  1  0
 54 56  1  0
 55 57  1  0
 56 57  1  0
 56 52  1  0
 57 58  1  1
 57 70  1  0
 59 71  1  0
 60 65  1  0
 61 62  1  0
 61 60  1  0
 63 62  1  0
 63 75  1  0
 63 64  1  0
 65 59  1  0
 65 64  1  0
 66 59  2  0
 67 68  1  0
 69 71  1  0
 70 69  1  0
 70 67  1  0
 71 68  1  0
 72 73  2  0
 73 74  1  0
 73 92  1  0
 74 77  1  0
 75 72  1  0
 75 76  1  0
 76 74  2  0
 77 78  1  0
 78 79  2  0
 80 83  1  0
 80 79  1  0
 81 80  2  0
 82 81  1  0
 82 77  2  0
 83 84  1  0
 84 89  2  0
 84 85  1  0
 85 86  2  0
 86 87  1  0
 87 91  1  0
 88 87  2  0
 89 88  1  0
 90 89  1  0
 92 93  1  0
 93 96  1  0
 93 95  1  0
 94 92  2  0
 97 98  1  0
 97 72  1  0
 99 97  1  0
M  ISO  4   4 101  10 101  59 100  71 100
M  END
>  <TORSDO>  (22) 
F 20

>  <SCORE>  (22) 
-13.554

>  <name>  (22) 
21

>  <ligand_id>  (22) 
21

>  <original_smiles>  (22) 
[H]c1c([H])c([H])c2c(c1[H])C([H])([H])C([H])([H])C([H])([H])C2([H])N([H])C(=O)C1([H])N(C(=O)C([H])(N([H])C(=O)C([H])(N([H])C([H])([H])[H])C([H])([H])[H])C(C([H])([H])[H])(C([H])([H])[H])C([H])([H])[H])C([H])([H])c2c([H])c(Oc3nc(Cl)c(C([H])([H])C([H])([H])C4([H])C([H])([H])C([H])([H])C([H])([H])[N+]4([H])C4([H])C([H])([H])N(C(=O)N5C([H])([H])C([H])([H])C([H])([H])C([H])(n6nc(-c7c([H])c([H])c(Oc8c([H])c([H])c(F)c([H])c8F)c([H])c7[H])c(C(=O)N([H])[H])c6N([H])[H])C5([H])[H])C([H])([H])C4([H])[H])c(C([H])([H])C([H])([H])[H])c3[H])c([H])c([H])c2C1([H])[H]

>  <smiles>  (22) 
[H]c1c([H])c([H])c2c(c1[H])C([H])([H])C([H])([H])C([H])([H])C2([H])N([H])C(=O)C1([H])N(C(=O)C([H])(N([H])C(=O)C([H])(N([H])C([H])([H])[H])C([H])([H])[H])C(C([H])([H])[H])(C([H])([H])[H])C([H])([H])[H])C([H])([H])c2c([H])c(Oc3nc(Cl)c(C([H])([H])C([H])([H])C4([H])C([H])([H])C([H])([H])C([H])([H])[N+]4([H])C4([H])C([H])([H])N(C(=O)N5C([H])([H])C([H])([H])C([H])([H])C([H])(n6nc(-c7c([H])c([H])c(Oc8c([H])c([H])c(F)c([H])c8F)c([H])c7[H])c(C(=O)N([H])[H])c6N([H])[H])C5([H])[H])C([H])([H])C4([H])[H])c(C([H])([H])C([H])([H])[H])c3[H])c([H])c([H])c2C1([H])[H]

$$$$
22:0:0
     RDKit          3D

 97107  0  0  1  0  0  0  0  0999 V2000
  -30.6640  -24.8850   20.5570 C   0  0  0  0  0  3  0  0  0  0  0  0
  -30.1780  -22.2470   20.0750 C   0  0  0  0  0  0  0  0  0  0  0  0
  -31.5030  -22.7520   20.2050 C   0  0  0  0  0  0  0  0  0  0  0  0
  -29.3480  -24.4040   20.3820 C   0  0  0  0  0  0  0  0  0  0  0  0
  -31.7380  -24.0640   20.4680 N   0  0  0  0  0  0  0  0  0  0  0  0
  -29.1060  -23.0850   20.1430 N   0  0  0  0  0  0  0  0  0  0  0  0
  -29.9320  -20.7690   19.8340 C   0  0  0  0  0  0  0  0  0  0  0  0
  -29.4630  -20.5020   22.2380 C   0  0  0  0  0  1  0  0  0  0  0  0
  -29.8220  -19.9560   20.9200 N   0  0  0  0  0  0  0  0  0  0  0  0
  -29.9370  -20.3400   18.6750 O   0  0  0  0  0  0  0  0  0  0  0  0
  -30.6870  -14.5470   20.1180 C   0  0  0  0  0  0  0  0  0  0  0  0
  -30.2840  -12.4220   18.9170 C   0  0  0  0  0  2  0  0  0  0  0  0
  -29.2740  -12.6440   17.7730 C   0  0  0  0  0  2  0  0  0  0  0  0
  -27.8320  -12.4640   18.2900 C   0  0  0  0  0  2  0  0  0  0  0  0
  -27.5640  -13.2760   19.5800 C   0  0  0  0  0  3  0  0  0  0  0  0
  -28.6890  -13.0660   20.6250 C   0  0  0  0  0  2  0  0  0  0  0  0
  -29.9710  -13.3890   19.9820 N   0  0  0  0  0  0  0  0  0  0  0  0
  -31.7920  -14.6890   19.5860 O   0  0  0  0  0  0  0  0  0  0  0  0
  -28.7370  -17.7530   20.4510 C   0  0  0  0  0  2  0  0  0  0  0  0
  -30.5980  -17.7930   22.0440 C   0  0  0  0  0  2  0  0  0  0  0  0
  -28.9180  -16.2300   20.2750 C   0  0  0  0  0  2  0  0  0  0  0  0
  -31.0050  -16.3300   21.7590 C   0  0  0  0  0  2  0  0  0  0  0  0
  -30.0250  -18.4870   20.8000 C   0  0  0  0  0  3  0  0  0  0  0  0
  -30.1290  -15.5680   20.8330 N   0  0  0  0  0  0  0  0  0  0  0  0
  -25.2240  -13.8900   20.4600 C   0  0  0  0  0  0  0  0  0  0  0  0
  -24.1750  -13.1160   20.8750 C   0  0  0  0  0  0  0  0  0  0  0  0
  -24.6240  -11.7640   20.7770 C   0  0  0  0  0  0  0  0  0  0  0  0
  -26.2440  -13.0070   20.1390 N   0  0  0  0  0  0  0  0  0  0  0  0
  -25.8910  -11.7220   20.3880 N   0  0  0  0  0  0  0  0  0  0  0  0
  -23.9060  -10.5020   20.9710 C   0  0  0  0  0  0  0  0  0  0  0  0
  -24.3590   -9.5320   21.8930 C   0  0  0  0  0  3  0  0  0  0  0  0
  -23.6430   -8.3300   22.0750 C   0  0  0  0  0  3  0  0  0  0  0  0
  -22.4610   -8.0910   21.3350 C   0  0  0  0  0  0  0  0  0  0  0  0
  -22.0300   -9.0480   20.4010 C   0  0  0  0  0  3  0  0  0  0  0  0
  -22.7470  -10.2410   20.2170 C   0  0  0  0  0  3  0  0  0  0  0  0
  -21.7150   -6.9400   21.4240 O   0  0  0  0  0  0  0  0  0  0  0  0
  -21.6360   -6.2250   22.5900 C   0  0  0  0  0  0  0  0  0  0  0  0
  -21.1680   -6.8030   23.7910 C   0  0  0  0  0  3  0  0  0  0  0  0
  -21.0360   -6.0110   24.9480 C   0  0  0  0  0  3  0  0  0  0  0  0
  -21.3610   -4.6420   24.9080 C   0  0  0  0  0  0  0  0  0  0  0  0
  -21.8220   -4.0640   23.7120 C   0  0  0  0  0  3  0  0  0  0  0  0
  -21.9540   -4.8520   22.5560 C   0  0  0  0  0  0  0  0  0  0  0  0
  -22.3800   -4.2840   21.4020 F   0  0  0  0  0  0  0  0  0  0  0  0
  -21.2280   -3.8820   26.0190 F   0  0  0  0  0  0  0  0  0  0  0  0
  -22.8010  -13.5960   21.2430 C   0  0  0  0  0  0  0  0  0  0  0  0
  -22.1220  -12.8860   22.1360 N   0  0  0  0  0  0  0  0  0  0  0  0
  -22.3400  -14.6340   20.7710 O   0  0  0  0  0  0  0  0  0  0  0  0
  -22.5110  -12.0510   22.5450 H   0  0  0  0  0  0  0  0  0  0  0  0
  -21.2030  -13.1950   22.4250 H   0  0  0  0  0  0  0  0  0  0  0  0
  -25.3820  -15.2650   20.3070 N   0  0  0  0  0  0  0  0  0  0  0  0
  -24.6270  -15.9200   20.4690 H   0  0  0  0  0  0  0  0  0  0  0  0
  -26.1980  -15.6980   19.8960 H   0  0  0  0  0  0  0  0  0  0  0  0
  -33.9300  -22.3400   19.2530 C   0  0  0  0  0  2  0  0  0  0  0  0
  -33.0690  -21.2090   18.7700 C   0  0  0  0  0  2  0  0  0  0  0  0
  -32.7400  -21.8940   20.0810 C   0  0  0  0  0  3  0  0  0  0  0  0
  -28.1330  -25.3190   20.4900 C   0  0  0  0  0  2  0  0  0  0  0  0
  -28.3650  -26.7160   20.1780 O   0  0  0  0  0  0  0  0  0  0  0  0
  -24.6140  -31.9520   23.2640 C   0  0  0  0  0  0  0  0  0  0  0  0
  -27.2230  -27.4940   20.1580 C   0  0  0  0  0  0  0  0  0  0  0  0
  -23.3990  -30.5590   21.6270 C   0  0  0  0  0  3  0  0  0  0  0  0
  -24.8420  -29.0330   20.1830 C   0  0  0  0  0  0  0  0  0  0  0  0
  -25.9310  -30.9040   21.4270 C   0  0  0  0  0  2  0  0  0  0  0  0
  -26.0090  -29.5390   20.7720 C   0  0  0  0  0  0  0  0  0  0  0  0
  -27.2050  -28.7780   20.7530 C   0  0  0  0  0  3  0  0  0  0  0  0
  -26.0390  -27.0230   19.5410 C   0  0  0  0  0  3  0  0  0  0  0  0
  -24.8540  -27.7750   19.5650 C   0  0  0  0  0  3  0  0  0  0  0  0
  -23.6010  -29.8930   20.2420 C   0  0  0  0  0  2  0  0  0  0  0  0
  -24.6660  -31.1530   22.1620 N   0  0  0  0  0  0  0  0  0  0  0  0
  -23.5350  -32.2280   23.8050 O   0  0  0  0  0  0  0  0  0  0  0  0
  -22.7540  -29.5300   22.5820 C   0  0  0  0  0  0  0  0  0  0  0  0
  -21.4290  -29.3460   22.4580 N   0  0  0  0  0  0  0  0  0  0  0  0
  -23.4400  -28.9020   23.3930 O   0  0  0  0  0  0  0  0  0  0  0  0
  -20.9340  -29.9030   21.7770 H   0  0  0  0  0  0  0  0  0  0  0  0
  -18.0560  -28.1530   22.9610 C   0  0  0  0  0  0  0  0  0  0  0  0
  -20.6160  -28.4060   23.2280 C   0  0  0  0  0  3  0  0  0  0  0  0
  -20.7150  -26.9760   22.6470 C   0  0  0  0  0  2  0  0  0  0  0  0
  -19.6090  -26.6570   21.6360 C   0  0  0  0  0  2  0  0  0  0  0  0
  -18.2280  -26.8040   22.2820 C   0  0  0  0  0  2  0  0  0  0  0  0
  -19.1770  -28.9120   23.3910 C   0  0  0  0  0  0  0  0  0  0  0  0
  -18.9610  -30.1750   23.9840 C   0  0  0  0  0  3  0  0  0  0  0  0
  -17.6580  -30.6800   24.1510 C   0  0  0  0  0  3  0  0  0  0  0  0
  -16.5520  -29.9170   23.7380 C   0  0  0  0  0  3  0  0  0  0  0  0
  -16.7520  -28.6550   23.1490 C   0  0  0  0  0  3  0  0  0  0  0  0
  -25.9040  -32.5800   23.8780 C   0  0  0  0  0  3  0  0  0  0  0  0
  -26.4300  -31.8030   25.1460 C   0  0  1  0  0  0  0  0  0  0  0  0
  -25.3410  -31.5620   26.2190 C   0  0  0  0  0  1  0  0  0  0  0  0
  -27.0120  -30.4260   24.7480 C   0  0  0  0  0  1  0  0  0  0  0  0
  -27.5790  -32.6000   25.8080 C   0  0  0  0  0  1  0  0  0  0  0  0
  -25.5940  -33.9750   24.2150 N   0  0  0  0  0  0  0  0  0  0  0  0
  -25.9040  -35.0290   23.4500 C   0  0  0  0  0  0  0  0  0  0  0  0
  -26.5510  -34.9310   22.4030 O   0  0  0  0  0  0  0  0  0  0  0  0
  -25.0080  -34.1260   25.0240 H   0  0  0  0  0  0  0  0  0  0  0  0
  -24.1460  -36.8050   23.1500 C   0  0  0  0  0  1  0  0  0  0  0  0
  -25.4180  -36.4130   23.9190 C   0  0  0  0  0  3  0  0  0  0  0  0
  -27.5680  -37.3210   24.6800 C   0  0  0  0  0  1  0  0  0  0  0  0
  -26.4350  -37.4770   23.7730 N   0  0  0  0  0  0  0  0  0  0  0  0
  -26.0220  -38.3910   23.9340 H   0  0  0  0  0  0  0  0  0  0  0  0
  2  6  2  0
  2  3  1  0
  3  5  2  0
  4 56  1  0
  4  1  2  0
  5  1  1  0
  6  4  1  0
  7  2  1  0
  7  9  1  0
  9  8  1  0
 10  7  2  0
 11 24  1  0
 12 17  1  0
 13 14  1  0
 13 12  1  0
 15 14  1  0
 15 28  1  0
 15 16  1  0
 17 11  1  0
 17 16  1  0
 18 11  2  0
 19 23  1  0
 21 19  1  0
 21 24  1  0
 22 20  1  0
 23  9  1  0
 23 20  1  0
 24 22  1  0
 25 26  2  0
 26 45  1  0
 27 26  1  0
 27 30  1  0
 28 29  1  0
 28 25  1  0
 29 27  2  0
 30 31  1  0
 31 32  2  0
 33 36  1  0
 33 32  1  0
 34 33  2  0
 35 34  1  0
 35 30  2  0
 36 37  1  0
 37 38  1  0
 38 39  2  0
 40 39  1  0
 40 44  1  0
 41 40  2  0
 42 37  2  0
 42 41  1  0
 43 42  1  0
 45 46  1  0
 46 49  1  0
 46 48  1  0
 47 45  2  0
 50 25  1  0
 50 51  1  0
 52 50  1  0
 53 55  1  0
 54 53  1  0
 54 55  1  0
 55  3  1  0
 57 56  1  0
 58 69  2  0
 59 57  1  0
 59 64  1  0
 60 68  1  0
 60 70  1  0
 61 67  1  0
 61 63  1  0
 62 68  1  0
 63 62  1  0
 64 63  2  0
 65 66  1  0
 65 59  2  0
 66 61  2  0
 67 60  1  0
 68 58  1  0
 70 72  2  0
 71 70  1  0
 73 71  1  0
 74 83  2  0
 74 79  1  0
 75 71  1  0
 75 79  1  0
 76 75  1  0
 77 78  1  0
 77 76  1  0
 78 74  1  0
 79 80  2  0
 80 81  1  0
 82 81  2  0
 83 82  1  0
 84 58  1  0
 84 89  1  0
 84 85  1  0
 85 88  1  1
 85 86  1  0
 87 85  1  0
 89 92  1  0
 90 94  1  0
 90 89  1  0
 91 90  2  0
 94 93  1  0
 96 94  1  0
 96 97  1  0
 96 95  1  0
M  ISO  4  11 100  24 100  56 101  57 101
M  END
>  <TORSDO>  (23) 
F 19

>  <SCORE>  (23) 
-14.123

>  <name>  (23) 
22

>  <ligand_id>  (23) 
22

>  <original_smiles>  (23) 
[H]c1nc(C2([H])C([H])([H])C2([H])[H])c(C(=O)N(C([H])([H])[H])C2([H])C([H])([H])C([H])([H])N(C(=O)N3C([H])([H])C([H])([H])C([H])([H])C([H])(n4nc(-c5c([H])c([H])c(Oc6c([H])c([H])c(F)c([H])c6F)c([H])c5[H])c(C(=O)N([H])[H])c4N([H])[H])C3([H])[H])C([H])([H])C2([H])[H])nc1C([H])([H])Oc1c([H])c([H])c2c(c1[H])C([H])([H])N(C(=O)C([H])(N([H])C(=O)C([H])(N([H])C([H])([H])[H])C([H])([H])[H])C(C([H])([H])[H])(C([H])([H])[H])C([H])([H])[H])C([H])(C(=O)N([H])C1([H])c3c([H])c([H])c([H])c([H])c3C([H])([H])C([H])([H])C1([H])[H])C2([H])[H]

>  <smiles>  (23) 
[H]c1nc(C2([H])C([H])([H])C2([H])[H])c(C(=O)N(C([H])([H])[H])C2([H])C([H])([H])C([H])([H])N(C(=O)N3C([H])([H])C([H])([H])C([H])([H])C([H])(n4nc(-c5c([H])c([H])c(Oc6c([H])c([H])c(F)c([H])c6F)c([H])c5[H])c(C(=O)N([H])[H])c4N([H])[H])C3([H])[H])C([H])([H])C2([H])[H])nc1C([H])([H])Oc1c([H])c([H])c2c(c1[H])C([H])([H])N(C(=O)C([H])(N([H])C(=O)C([H])(N([H])C([H])([H])[H])C([H])([H])[H])C(C([H])([H])[H])(C([H])([H])[H])C([H])([H])[H])C([H])(C(=O)N([H])C1([H])c3c([H])c([H])c([H])c([H])c3C([H])([H])C([H])([H])C1([H])[H])C2([H])[H]

$$$$
23:0:0
     RDKit          3D

 98109  0  0  1  0  0  0  0  0999 V2000
  -29.6430  -19.1430   18.6620 C   0  0  0  0  0  3  0  0  0  0  0  0
  -30.1060  -18.8690   19.9570 C   0  0  0  0  0  0  0  0  0  0  0  0
  -30.3170  -19.9820   20.7980 C   0  0  0  0  0  0  0  0  0  0  0  0
  -29.6500  -21.3760   19.0950 C   0  0  0  0  0  0  0  0  0  0  0  0
  -29.4230  -20.3950   18.2350 N   0  0  0  0  0  0  0  0  0  0  0  0
  -30.0840  -21.2360   20.3470 N   0  0  0  0  0  0  0  0  0  0  0  0
  -30.7270  -14.4770   20.5680 C   0  0  0  0  0  0  0  0  0  0  0  0
  -30.4230  -12.3390   19.3890 C   0  0  0  0  0  2  0  0  0  0  0  0
  -29.5070  -12.5750   18.1710 C   0  0  0  0  0  2  0  0  0  0  0  0
  -28.0250  -12.4310   18.5680 C   0  0  0  0  0  2  0  0  0  0  0  0
  -27.6640  -13.2590   19.8300 C   0  0  0  0  0  3  0  0  0  0  0  0
  -28.6970  -13.0320   20.9590 C   0  0  0  0  0  2  0  0  0  0  0  0
  -30.0390  -13.3160   20.4180 N   0  0  0  0  0  0  0  0  0  0  0  0
  -31.8770  -14.6440   20.1500 O   0  0  0  0  0  0  0  0  0  0  0  0
  -30.5780  -16.7370   21.6630 C   0  0  0  0  0  2  0  0  0  0  0  0
  -29.2730  -16.3770   20.1200 C   0  0  0  0  0  2  0  0  0  0  0  0
  -30.3770  -17.4110   20.3030 C   0  0  0  0  0  3  0  0  0  0  0  0
  -30.0100  -15.5130   21.0560 N   0  0  0  0  0  0  0  0  0  0  0  0
  -25.2520  -13.8800   20.4720 C   0  0  0  0  0  0  0  0  0  0  0  0
  -24.1750  -13.1120   20.8230 C   0  0  0  0  0  0  0  0  0  0  0  0
  -24.6360  -11.7600   20.8210 C   0  0  0  0  0  0  0  0  0  0  0  0
  -26.3020  -12.9930   20.2800 N   0  0  0  0  0  0  0  0  0  0  0  0
  -25.9330  -11.7160   20.5440 N   0  0  0  0  0  0  0  0  0  0  0  0
  -23.9080  -10.5010   21.0110 C   0  0  0  0  0  0  0  0  0  0  0  0
  -24.3180   -9.5490   21.9710 C   0  0  0  0  0  3  0  0  0  0  0  0
  -23.5920   -8.3520   22.1460 C   0  0  0  0  0  3  0  0  0  0  0  0
  -22.4430   -8.0970   21.3620 C   0  0  0  0  0  0  0  0  0  0  0  0
  -22.0530   -9.0380   20.3910 C   0  0  0  0  0  3  0  0  0  0  0  0
  -22.7790  -10.2260   20.2140 C   0  0  0  0  0  3  0  0  0  0  0  0
  -21.6900   -6.9510   21.4440 O   0  0  0  0  0  0  0  0  0  0  0  0
  -21.6040   -6.2320   22.6080 C   0  0  0  0  0  0  0  0  0  0  0  0
  -21.1150   -6.8030   23.8040 C   0  0  0  0  0  3  0  0  0  0  0  0
  -20.9770   -6.0060   24.9590 C   0  0  0  0  0  3  0  0  0  0  0  0
  -21.3190   -4.6410   24.9190 C   0  0  0  0  0  0  0  0  0  0  0  0
  -21.8010   -4.0700   23.7280 C   0  0  0  0  0  3  0  0  0  0  0  0
  -21.9410   -4.8620   22.5760 C   0  0  0  0  0  0  0  0  0  0  0  0
  -22.3870   -4.3020   21.4250 F   0  0  0  0  0  0  0  0  0  0  0  0
  -21.1770   -3.8750   26.0260 F   0  0  0  0  0  0  0  0  0  0  0  0
  -22.7720  -13.5920   21.0570 C   0  0  0  0  0  0  0  0  0  0  0  0
  -22.0250  -12.9040   21.9120 N   0  0  0  0  0  0  0  0  0  0  0  0
  -22.3460  -14.6120   20.5190 O   0  0  0  0  0  0  0  0  0  0  0  0
  -22.3840  -12.0780   22.3680 H   0  0  0  0  0  0  0  0  0  0  0  0
  -21.0830  -13.2080   22.1120 H   0  0  0  0  0  0  0  0  0  0  0  0
  -25.4240  -15.2490   20.2840 N   0  0  0  0  0  0  0  0  0  0  0  0
  -24.6650  -15.9130   20.3850 H   0  0  0  0  0  0  0  0  0  0  0  0
  -26.2960  -15.6820   20.0090 H   0  0  0  0  0  0  0  0  0  0  0  0
  -30.7570  -23.4560   17.9470 C   0  0  0  0  0  2  0  0  0  0  0  0
  -30.3350  -24.6890   18.7320 C   0  0  0  0  0  2  0  0  0  0  0  0
  -29.5220  -22.7840   18.5410 C   0  0  0  0  0  3  0  0  0  0  0  0
  -29.5540  -23.7980   19.5920 N   0  0  2  0  0  4  0  0  0  0  0  0
  -30.0930  -23.3550   20.3280 H   0  0  0  0  0  0  0  0  0  0  0  0
  -28.2350  -24.2930   20.0600 C   0  0  0  0  0  2  0  0  0  0  0  0
  -29.3900  -25.5450   22.0320 C   0  0  0  0  0  1  0  0  0  0  0  0
  -28.2930  -25.5530   20.9580 C   0  0  0  0  0  3  0  0  0  0  0  0
  -28.4010  -26.7570   20.1800 O   0  0  0  0  0  0  0  0  0  0  0  0
  -24.5780  -31.8940   23.2490 C   0  0  0  0  0  0  0  0  0  0  0  0
  -27.2460  -27.5020   20.1450 C   0  0  0  0  0  0  0  0  0  0  0  0
  -23.3810  -30.5000   21.5930 C   0  0  0  0  0  3  0  0  0  0  0  0
  -24.8450  -28.9830   20.1610 C   0  0  0  0  0  0  0  0  0  0  0  0
  -25.9040  -30.8780   21.4020 C   0  0  0  0  0  2  0  0  0  0  0  0
  -25.9980  -29.5150   20.7500 C   0  0  0  0  0  0  0  0  0  0  0  0
  -27.2060  -28.7820   20.7360 C   0  0  0  0  0  3  0  0  0  0  0  0
  -26.0780  -26.9820   19.5460 C   0  0  0  0  0  3  0  0  0  0  0  0
  -24.8780  -27.7150   19.5550 C   0  0  0  0  0  3  0  0  0  0  0  0
  -23.5940  -29.8310   20.2100 C   0  0  0  0  0  2  0  0  0  0  0  0
  -24.6390  -31.1050   22.1400 N   0  0  0  0  0  0  0  0  0  0  0  0
  -23.4950  -32.1570   23.7900 O   0  0  0  0  0  0  0  0  0  0  0  0
  -22.7330  -29.4690   22.5440 C   0  0  0  0  0  0  0  0  0  0  0  0
  -21.4080  -29.2870   22.4160 N   0  0  0  0  0  0  0  0  0  0  0  0
  -23.4190  -28.8350   23.3510 O   0  0  0  0  0  0  0  0  0  0  0  0
  -20.9190  -29.8500   21.7340 H   0  0  0  0  0  0  0  0  0  0  0  0
  -18.0320  -28.1020   22.9160 C   0  0  0  0  0  0  0  0  0  0  0  0
  -20.5910  -28.3430   23.1780 C   0  0  0  0  0  3  0  0  0  0  0  0
  -20.6850  -26.9200   22.5800 C   0  0  0  0  0  2  0  0  0  0  0  0
  -19.5750  -26.6170   21.5680 C   0  0  0  0  0  2  0  0  0  0  0  0
  -18.1960  -26.7630   22.2200 C   0  0  0  0  0  2  0  0  0  0  0  0
  -19.1570  -28.8520   23.3510 C   0  0  0  0  0  0  0  0  0  0  0  0
  -18.9480  -30.1090   23.9590 C   0  0  0  0  0  3  0  0  0  0  0  0
  -17.6480  -30.6160   24.1380 C   0  0  0  0  0  3  0  0  0  0  0  0
  -16.5370  -29.8620   23.7210 C   0  0  0  0  0  3  0  0  0  0  0  0
  -16.7300  -28.6070   23.1170 C   0  0  0  0  0  3  0  0  0  0  0  0
  -25.8610  -32.5240   23.8770 C   0  0  0  0  0  3  0  0  0  0  0  0
  -26.3630  -31.7610   25.1630 C   0  0  1  0  0  0  0  0  0  0  0  0
  -25.2590  -31.5320   26.2210 C   0  0  0  0  0  1  0  0  0  0  0  0
  -26.9500  -30.3800   24.7880 C   0  0  0  0  0  1  0  0  0  0  0  0
  -27.5090  -32.5590   25.8300 C   0  0  0  0  0  1  0  0  0  0  0  0
  -25.5590  -33.9260   24.1890 N   0  0  0  0  0  0  0  0  0  0  0  0
  -25.8990  -34.9660   23.4170 C   0  0  0  0  0  0  0  0  0  0  0  0
  -26.5740  -34.8470   22.3910 O   0  0  0  0  0  0  0  0  0  0  0  0
  -24.9660  -34.0940   24.9880 H   0  0  0  0  0  0  0  0  0  0  0  0
  -24.1810  -36.7580   23.0200 C   0  0  0  0  0  1  0  0  0  0  0  0
  -25.4110  -36.3610   23.8530 C   0  0  0  0  0  3  0  0  0  0  0  0
  -27.5380  -37.2450   24.7010 C   0  0  0  0  0  1  0  0  0  0  0  0
  -26.4480  -37.4110   23.7440 N   0  0  0  0  0  0  0  0  0  0  0  0
  -26.0420  -38.3320   23.8840 H   0  0  0  0  0  0  0  0  0  0  0  0
  -31.6260  -20.9770   22.8660 C   0  0  0  0  0  2  0  0  0  0  0  0
  -32.2590  -19.6620   22.5060 C   0  0  0  0  0  2  0  0  0  0  0  0
  -30.7910  -19.8890   22.2180 C   0  0  0  0  0  3  0  0  0  0  0  0
  1  2  2  0
  2  3  1  0
  3 98  1  0
  4  6  1  0
  5  1  1  0
  5  4  2  0
  6  3  2  0
  7 18  1  0
  8 13  1  0
  9 10  1  0
  9  8  1  0
 11 10  1  0
 11 22  1  0
 11 12  1  0
 13  7  1  0
 13 12  1  0
 14  7  2  0
 16 17  1  0
 16 18  1  0
 17  2  1  0
 17 15  1  0
 18 15  1  0
 19 20  2  0
 20 39  1  0
 21 20  1  0
 21 24  1  0
 22 19  1  0
 22 23  1  0
 23 21  2  0
 24 25  1  0
 25 26  2  0
 27 30  1  0
 27 26  1  0
 28 27  2  0
 29 28  1  0
 29 24  2  0
 30 31  1  0
 31 32  1  0
 32 33  2  0
 34 33  1  0
 34 38  1  0
 35 34  2  0
 36 31  2  0
 36 35  1  0
 37 36  1  0
 39 40  1  0
 40 43  1  0
 40 42  1  0
 41 39  2  0
 44 45  1  0
 44 19  1  0
 46 44  1  0
 47 49  1  0
 47 48  1  0
 48 50  1  0
 49  4  1  0
 49 50  1  0
 50 52  1  0
 50 51  1  1
 52 54  1  0
 54 53  1  0
 55 54  1  0
 56 67  2  0
 57 55  1  0
 57 62  1  0
 58 66  1  0
 58 68  1  0
 59 65  1  0
 59 61  1  0
 60 66  1  0
 61 60  1  0
 62 61  2  0
 63 64  1  0
 63 57  2  0
 64 59  2  0
 65 58  1  0
 66 56  1  0
 68 70  2  0
 69 68  1  0
 71 69  1  0
 72 81  2  0
 72 77  1  0
 73 69  1  0
 73 77  1  0
 74 73  1  0
 75 76  1  0
 75 74  1  0
 76 72  1  0
 77 78  2  0
 78 79  1  0
 80 79  2  0
 81 80  1  0
 82 56  1  0
 82 87  1  0
 82 83  1  0
 83 86  1  1
 83 84  1  0
 85 83  1  0
 87 90  1  0
 88 92  1  0
 88 87  1  0
 89 88  2  0
 92 91  1  0
 94 92  1  0
 94 95  1  0
 94 93  1  0
 97 96  1  0
 98 97  1  0
 98 96  1  0
M  ISO  4   7 100  18 100  54 101  55 101
M  END
>  <TORSDO>  (24) 
F 20

>  <SCORE>  (24) 
-14.393

>  <name>  (24) 
23

>  <ligand_id>  (24) 
23

>  <original_smiles>  (24) 
[H]c1nc(C2([H])C([H])([H])C([H])([H])[N+]2([H])C([H])([H])C([H])(Oc2c([H])c([H])c3c(c2[H])C([H])([H])N(C(=O)C([H])(N([H])C(=O)C([H])(N([H])C([H])([H])[H])C([H])([H])[H])C(C([H])([H])[H])(C([H])([H])[H])C([H])([H])[H])C([H])(C(=O)N([H])C2([H])c4c([H])c([H])c([H])c([H])c4C([H])([H])C([H])([H])C2([H])[H])C3([H])[H])C([H])([H])[H])nc(C2([H])C([H])([H])C2([H])[H])c1C1([H])C([H])([H])N(C(=O)N2C([H])([H])C([H])([H])C([H])([H])C([H])(n3nc(-c4c([H])c([H])c(Oc5c([H])c([H])c(F)c([H])c5F)c([H])c4[H])c(C(=O)N([H])[H])c3N([H])[H])C2([H])[H])C1([H])[H]

>  <smiles>  (24) 
[H]c1nc(C2([H])C([H])([H])C([H])([H])[N+]2([H])C([H])([H])C([H])(Oc2c([H])c([H])c3c(c2[H])C([H])([H])N(C(=O)C([H])(N([H])C(=O)C([H])(N([H])C([H])([H])[H])C([H])([H])[H])C(C([H])([H])[H])(C([H])([H])[H])C([H])([H])[H])C([H])(C(=O)N([H])C2([H])c4c([H])c([H])c([H])c([H])c4C([H])([H])C([H])([H])C2([H])[H])C3([H])[H])C([H])([H])[H])nc(C2([H])C([H])([H])C2([H])[H])c1C1([H])C([H])([H])N(C(=O)N2C([H])([H])C([H])([H])C([H])([H])C([H])(n3nc(-c4c([H])c([H])c(Oc5c([H])c([H])c(F)c([H])c5F)c([H])c4[H])c(C(=O)N([H])[H])c3N([H])[H])C2([H])[H])C1([H])[H]

$$$$
24:0:0
     RDKit          3D

 89 98  0  0  1  0  0  0  0  0999 V2000
  -29.8510  -21.4400   18.8920 C   0  0  0  0  0  3  0  0  0  0  0  0
  -29.7330  -20.6520   20.0830 C   0  0  0  0  0  0  0  0  0  0  0  0
  -29.2590  -21.5430   21.1040 C   0  0  0  0  0  0  0  0  0  0  0  0
  -29.0820  -23.5630   19.7750 C   0  0  0  0  0  0  0  0  0  0  0  0
  -29.5280  -22.7940   18.7470 N   0  0  0  0  0  0  0  0  0  0  0  0
  -28.9440  -22.8940   20.9460 N   0  0  0  0  0  0  0  0  0  0  0  0
  -29.0500  -20.9040   22.6930 Cl  0  0  0  0  0  0  0  0  0  0  0  0
  -31.2220  -15.5380   20.1940 C   0  0  0  0  0  0  0  0  0  0  0  0
  -31.0820  -13.1440   19.3550 C   0  0  0  0  0  2  0  0  0  0  0  0
  -30.1670  -12.9890   18.1210 C   0  0  0  0  0  2  0  0  0  0  0  0
  -28.7130  -12.7590   18.5650 C   0  0  0  0  0  2  0  0  0  0  0  0
  -28.2730  -13.7390   19.6850 C   0  0  0  0  0  3  0  0  0  0  0  0
  -29.3230  -13.8870   20.8060 C   0  0  0  0  0  2  0  0  0  0  0  0
  -30.5720  -14.3000   20.1570 N   0  0  0  0  0  0  0  0  0  0  0  0
  -32.4340  -15.4980   19.9560 O   0  0  0  0  0  0  0  0  0  0  0  0
  -29.4280  -17.6630   20.5680 C   0  0  0  0  0  2  0  0  0  0  0  0
  -31.1090  -18.1000   19.4150 C   0  0  0  0  0  2  0  0  0  0  0  0
  -30.2010  -19.0490   20.3010 C   0  0  0  0  0  3  0  0  0  0  0  0
  -30.5850  -16.8260   20.0540 N   0  0  0  0  0  0  0  0  0  0  0  0
  -25.9190  -14.2920   20.5050 C   0  0  0  0  0  0  0  0  0  0  0  0
  -24.8540  -13.5080   20.8530 C   0  0  0  0  0  0  0  0  0  0  0  0
  -25.3060  -12.1560   20.7480 C   0  0  0  0  0  0  0  0  0  0  0  0
  -26.9490  -13.4200   20.2020 N   0  0  0  0  0  0  0  0  0  0  0  0
  -26.5930  -12.1250   20.4160 N   0  0  0  0  0  0  0  0  0  0  0  0
  -24.5700  -10.8920   20.8850 C   0  0  0  0  0  0  0  0  0  0  0  0
  -24.9390   -9.9200   21.8410 C   0  0  0  0  0  3  0  0  0  0  0  0
  -24.2010   -8.7240   21.9680 C   0  0  0  0  0  3  0  0  0  0  0  0
  -23.0780   -8.4910   21.1390 C   0  0  0  0  0  0  0  0  0  0  0  0
  -22.7290   -9.4500   20.1730 C   0  0  0  0  0  3  0  0  0  0  0  0
  -23.4680  -10.6380   20.0440 C   0  0  0  0  0  3  0  0  0  0  0  0
  -22.3190   -7.3460   21.1740 O   0  0  0  0  0  0  0  0  0  0  0  0
  -22.0850   -6.6730   22.3460 C   0  0  0  0  0  0  0  0  0  0  0  0
  -21.4180   -7.2780   23.4340 C   0  0  0  0  0  3  0  0  0  0  0  0
  -21.1380   -6.5280   24.5930 C   0  0  0  0  0  3  0  0  0  0  0  0
  -21.5130   -5.1740   24.6640 C   0  0  0  0  0  0  0  0  0  0  0  0
  -22.1730   -4.5680   23.5800 C   0  0  0  0  0  3  0  0  0  0  0  0
  -22.4550   -5.3150   22.4230 C   0  0  0  0  0  0  0  0  0  0  0  0
  -23.0720   -4.7200   21.3740 F   0  0  0  0  0  0  0  0  0  0  0  0
  -21.2380   -4.4500   25.7750 F   0  0  0  0  0  0  0  0  0  0  0  0
  -23.4660  -13.9840   21.1660 C   0  0  0  0  0  0  0  0  0  0  0  0
  -22.7470  -13.2590   22.0150 N   0  0  0  0  0  0  0  0  0  0  0  0
  -23.0300  -15.0340   20.6950 O   0  0  0  0  0  0  0  0  0  0  0  0
  -23.1140  -12.4090   22.4170 H   0  0  0  0  0  0  0  0  0  0  0  0
  -21.8160  -13.5580   22.2670 H   0  0  0  0  0  0  0  0  0  0  0  0
  -26.0930  -15.6670   20.3920 N   0  0  0  0  0  0  0  0  0  0  0  0
  -25.3360  -16.3230   20.5480 H   0  0  0  0  0  0  0  0  0  0  0  0
  -26.9410  -16.1090   20.0630 H   0  0  0  0  0  0  0  0  0  0  0  0
  -28.2770  -25.0160   19.5190 C   0  0  0  0  0  2  0  0  0  0  0  0
  -28.6160  -26.5210   19.8560 O   0  0  0  0  0  0  0  0  0  0  0  0
  -24.7860  -31.8400   23.3320 C   0  0  0  0  0  0  0  0  0  0  0  0
  -27.5600  -27.5250   19.8610 C   0  0  0  0  0  0  0  0  0  0  0  0
  -23.6540  -30.5680   21.5530 C   0  0  0  0  0  3  0  0  0  0  0  0
  -25.1730  -29.2080   19.9850 C   0  0  0  0  0  0  0  0  0  0  0  0
  -26.2000  -30.9400   21.4420 C   0  0  0  0  0  2  0  0  0  0  0  0
  -26.3330  -29.6220   20.6520 C   0  0  0  0  0  0  0  0  0  0  0  0
  -27.5260  -28.7980   20.5770 C   0  0  0  0  0  3  0  0  0  0  0  0
  -26.3690  -27.2440   19.1510 C   0  0  0  0  0  3  0  0  0  0  0  0
  -25.2060  -28.0370   19.2190 C   0  0  0  0  0  3  0  0  0  0  0  0
  -23.9100  -30.0480   20.1150 C   0  0  0  0  0  2  0  0  0  0  0  0
  -24.8990  -31.1340   22.1650 N   0  0  0  0  0  0  0  0  0  0  0  0
  -23.6860  -32.0270   23.8740 O   0  0  0  0  0  0  0  0  0  0  0  0
  -23.0120  -29.4410   22.4030 C   0  0  0  0  0  0  0  0  0  0  0  0
  -21.6980  -29.2130   22.2330 N   0  0  0  0  0  0  0  0  0  0  0  0
  -23.7020  -28.7790   23.1820 O   0  0  0  0  0  0  0  0  0  0  0  0
  -21.1950  -29.8050   21.5850 H   0  0  0  0  0  0  0  0  0  0  0  0
  -18.3780  -27.7950   22.5540 C   0  0  0  0  0  0  0  0  0  0  0  0
  -20.9150  -28.1680   22.8980 C   0  0  0  0  0  3  0  0  0  0  0  0
  -21.1030  -26.8010   22.2000 C   0  0  0  0  0  2  0  0  0  0  0  0
  -20.0370  -26.5140   21.1370 C   0  0  0  0  0  2  0  0  0  0  0  0
  -18.6400  -26.5260   21.7620 C   0  0  0  0  0  2  0  0  0  0  0  0
  -19.4460  -28.5740   23.0740 C   0  0  0  0  0  0  0  0  0  0  0  0
  -19.1460  -29.7620   23.7760 C   0  0  0  0  0  3  0  0  0  0  0  0
  -17.8130  -30.1720   23.9610 C   0  0  0  0  0  3  0  0  0  0  0  0
  -16.7600  -29.3910   23.4550 C   0  0  0  0  0  3  0  0  0  0  0  0
  -17.0430  -28.2020   22.7580 C   0  0  0  0  0  3  0  0  0  0  0  0
  -26.0320  -32.4650   24.0290 C   0  0  0  0  0  3  0  0  0  0  0  0
  -25.6930  -33.8490   24.3960 N   0  0  0  0  0  0  0  0  0  0  0  0
  -25.9970  -34.9310   23.6670 C   0  0  0  0  0  0  0  0  0  0  0  0
  -26.6590  -34.8690   22.6270 O   0  0  0  0  0  0  0  0  0  0  0  0
  -25.1030  -33.9690   25.2070 H   0  0  0  0  0  0  0  0  0  0  0  0
  -24.2130  -36.6870   23.4070 C   0  0  0  0  0  1  0  0  0  0  0  0
  -25.4900  -36.2980   24.1690 C   0  0  0  0  0  3  0  0  0  0  0  0
  -27.6160  -37.2350   24.9630 C   0  0  0  0  0  1  0  0  0  0  0  0
  -26.4900  -37.3810   24.0450 N   0  0  0  0  0  0  0  0  0  0  0  0
  -26.0620  -38.2870   24.2110 H   0  0  0  0  0  0  0  0  0  0  0  0
  -26.4970  -31.6580   25.3050 C   0  0  1  0  0  0  0  0  0  0  0  0
  -25.3580  -31.3760   26.3130 C   0  0  0  0  0  1  0  0  0  0  0  0
  -27.1120  -30.2980   24.9040 C   0  0  0  0  0  1  0  0  0  0  0  0
  -27.6070  -32.4420   26.0430 C   0  0  0  0  0  1  0  0  0  0  0  0
  1  2  2  0
  2  3  1  0
  3  7  1  0
  4  6  1  0
  5  1  1  0
  5  4  2  0
  6  3  2  0
  9 14  1  0
 10 11  1  0
 10  9  1  0
 12 11  1  0
 12 23  1  0
 12 13  1  0
 14  8  1  0
 14 13  1  0
 15  8  2  0
 17 19  1  0
 17 18  1  0
 18  2  1  0
 18 16  1  0
 19  8  1  0
 19 16  1  0
 20 21  2  0
 21 40  1  0
 22 21  1  0
 22 25  1  0
 23 24  1  0
 23 20  1  0
 24 22  2  0
 25 26  1  0
 26 27  2  0
 28 31  1  0
 28 27  1  0
 29 28  2  0
 30 29  1  0
 30 25  2  0
 31 32  1  0
 32 37  2  0
 32 33  1  0
 33 34  2  0
 34 35  1  0
 35 39  1  0
 36 35  2  0
 37 36  1  0
 38 37  1  0
 40 41  1  0
 41 44  1  0
 41 43  1  0
 42 40  2  0
 45 20  1  0
 45 46  1  0
 47 45  1  0
 48  4  1  0
 48 49  1  0
 49 51  1  0
 50 61  2  0
 51 56  1  0
 52 60  1  0
 52 62  1  0
 53 59  1  0
 53 55  1  0
 54 60  1  0
 55 54  1  0
 56 55  2  0
 57 58  1  0
 57 51  2  0
 58 53  2  0
 59 52  1  0
 60 50  1  0
 62 64  2  0
 63 62  1  0
 65 63  1  0
 66 75  2  0
 66 71  1  0
 67 63  1  0
 67 71  1  0
 68 67  1  0
 69 70  1  0
 69 68  1  0
 70 66  1  0
 71 72  2  0
 72 73  1  0
 74 73  2  0
 75 74  1  0
 76 50  1  0
 76 77  1  0
 76 86  1  0
 77 80  1  0
 78 82  1  0
 78 77  1  0
 79 78  2  0
 82 81  1  0
 84 82  1  0
 84 85  1  0
 84 83  1  0
 86 89  1  1
 86 87  1  0
 88 86  1  0
M  ISO  4   8 100  19 100  48 101  49 101
M  END
>  <TORSDO>  (25) 
F 17

>  <SCORE>  (25) 
-12.906

>  <name>  (25) 
24

>  <ligand_id>  (25) 
24

>  <original_smiles>  (25) 
[H]c1nc(C([H])([H])Oc2c([H])c([H])c3c(c2[H])C([H])([H])N(C(=O)C([H])(N([H])C(=O)C([H])(N([H])C([H])([H])[H])C([H])([H])[H])C(C([H])([H])[H])(C([H])([H])[H])C([H])([H])[H])C([H])(C(=O)N([H])C2([H])c4c([H])c([H])c([H])c([H])c4C([H])([H])C([H])([H])C2([H])[H])C3([H])[H])nc(Cl)c1C1([H])C([H])([H])N(C(=O)N2C([H])([H])C([H])([H])C([H])([H])C([H])(n3nc(-c4c([H])c([H])c(Oc5c([H])c([H])c(F)c([H])c5F)c([H])c4[H])c(C(=O)N([H])[H])c3N([H])[H])C2([H])[H])C1([H])[H]

>  <smiles>  (25) 
[H]c1nc(C([H])([H])Oc2c([H])c([H])c3c(c2[H])C([H])([H])N(C(=O)C([H])(N([H])C(=O)C([H])(N([H])C([H])([H])[H])C([H])([H])[H])C(C([H])([H])[H])(C([H])([H])[H])C([H])([H])[H])C([H])(C(=O)N([H])C2([H])c4c([H])c([H])c([H])c([H])c4C([H])([H])C([H])([H])C2([H])[H])C3([H])[H])nc(Cl)c1C1([H])C([H])([H])N(C(=O)N2C([H])([H])C([H])([H])C([H])([H])C([H])(n3nc(-c4c([H])c([H])c(Oc5c([H])c([H])c(F)c([H])c5F)c([H])c4[H])c(C(=O)N([H])[H])c3N([H])[H])C2([H])[H])C1([H])[H]

$$$$
25:0:0
     RDKit          3D

 92101  0  0  1  0  0  0  0  0999 V2000
  -29.0220  -20.8560   18.4810 C   0  0  0  0  0  2  0  0  0  0  0  0
  -29.2960  -22.3580   18.6960 C   0  0  0  0  0  2  0  0  0  0  0  0
  -29.1570  -21.4370   20.8180 C   0  0  0  0  0  2  0  0  0  0  0  0
  -28.9250  -20.2070   19.8780 C   0  0  0  0  0  3  0  0  0  0  0  0
  -28.7890  -22.6430   20.0360 N   0  0  0  0  0  0  0  0  0  0  0  0
  -29.6770  -18.1200   21.1930 C   0  0  0  0  0  2  0  0  0  0  0  0
  -29.6870  -17.8590   19.1850 C   0  0  0  0  0  2  0  0  0  0  0  0
  -30.3470  -17.0470   20.3130 C   0  0  0  0  0  3  0  0  0  0  0  0
  -29.8780  -19.0470   20.0530 N   0  0  1  0  0  4  0  0  0  0  0  0
  -30.8400  -19.3490   20.0090 H   0  0  0  0  0  0  0  0  0  0  0  0
  -30.6690  -14.5360   20.1710 C   0  0  0  0  0  0  0  0  0  0  0  0
  -30.3470  -12.3570   19.0610 C   0  0  0  0  0  2  0  0  0  0  0  0
  -29.3680  -12.5670   17.8860 C   0  0  0  0  0  2  0  0  0  0  0  0
  -27.9100  -12.4190   18.3650 C   0  0  0  0  0  2  0  0  0  0  0  0
  -27.6100  -13.2480   19.6420 C   0  0  0  0  0  3  0  0  0  0  0  0
  -28.7040  -13.0400   20.7130 C   0  0  0  0  0  2  0  0  0  0  0  0
  -30.0010  -13.3490   20.0930 N   0  0  0  0  0  0  0  0  0  0  0  0
  -31.8250  -14.6660   19.7650 O   0  0  0  0  0  0  0  0  0  0  0  0
  -29.9230  -15.6270   20.4850 N   0  0  0  0  0  0  0  0  0  0  0  0
  -28.9680  -15.4480   20.7590 H   0  0  0  0  0  0  0  0  0  0  0  0
  -25.2400  -13.8490   20.4400 C   0  0  0  0  0  0  0  0  0  0  0  0
  -24.1850  -13.0740   20.8360 C   0  0  0  0  0  0  0  0  0  0  0  0
  -24.6460  -11.7220   20.7780 C   0  0  0  0  0  0  0  0  0  0  0  0
  -26.2760  -12.9700   20.1670 N   0  0  0  0  0  0  0  0  0  0  0  0
  -25.9260  -11.6860   20.4300 N   0  0  0  0  0  0  0  0  0  0  0  0
  -23.9250  -10.4590   20.9790 C   0  0  0  0  0  0  0  0  0  0  0  0
  -24.3670   -9.4960   21.9140 C   0  0  0  0  0  3  0  0  0  0  0  0
  -23.6470   -8.2970   22.1020 C   0  0  0  0  0  3  0  0  0  0  0  0
  -22.4730   -8.0510   21.3510 C   0  0  0  0  0  0  0  0  0  0  0  0
  -22.0490   -9.0010   20.4060 C   0  0  0  0  0  3  0  0  0  0  0  0
  -22.7690  -10.1920   20.2180 C   0  0  0  0  0  3  0  0  0  0  0  0
  -21.7230   -6.9020   21.4470 O   0  0  0  0  0  0  0  0  0  0  0  0
  -21.6540   -6.1830   22.6120 C   0  0  0  0  0  0  0  0  0  0  0  0
  -21.1460   -6.7420   23.8050 C   0  0  0  0  0  3  0  0  0  0  0  0
  -21.0290   -5.9460   24.9620 C   0  0  0  0  0  3  0  0  0  0  0  0
  -21.4100   -4.5920   24.9270 C   0  0  0  0  0  0  0  0  0  0  0  0
  -21.9130   -4.0320   23.7390 C   0  0  0  0  0  3  0  0  0  0  0  0
  -22.0340   -4.8260   22.5850 C   0  0  0  0  0  0  0  0  0  0  0  0
  -22.4990   -4.2750   21.4380 F   0  0  0  0  0  0  0  0  0  0  0  0
  -21.2930   -3.8260   26.0370 F   0  0  0  0  0  0  0  0  0  0  0  0
  -22.7960  -13.5490   21.1550 C   0  0  0  0  0  0  0  0  0  0  0  0
  -22.0930  -12.8430   22.0350 N   0  0  0  0  0  0  0  0  0  0  0  0
  -22.3460  -14.5820   20.6630 O   0  0  0  0  0  0  0  0  0  0  0  0
  -22.4720  -12.0060   22.4540 H   0  0  0  0  0  0  0  0  0  0  0  0
  -21.1640  -13.1460   22.2940 H   0  0  0  0  0  0  0  0  0  0  0  0
  -25.3920  -15.2210   20.2690 N   0  0  0  0  0  0  0  0  0  0  0  0
  -24.6070  -15.8510   20.3850 H   0  0  0  0  0  0  0  0  0  0  0  0
  -26.2020  -15.6730   19.8670 H   0  0  0  0  0  0  0  0  0  0  0  0
  -30.5830  -24.2470   20.7690 C   0  0  0  0  0  1  0  0  0  0  0  0
  -29.0770  -24.0040   20.5910 C   0  0  0  0  0  3  0  0  0  0  0  0
  -28.4160  -25.1640   19.7510 C   0  0  0  0  0  2  0  0  0  0  0  0
  -28.4230  -26.5250   20.3040 O   0  0  0  0  0  0  0  0  0  0  0  0
  -24.6010  -31.8500   23.2410 C   0  0  0  0  0  0  0  0  0  0  0  0
  -27.2850  -27.3360   20.2120 C   0  0  0  0  0  0  0  0  0  0  0  0
  -23.4360  -30.4600   21.5690 C   0  0  0  0  0  3  0  0  0  0  0  0
  -24.9160  -28.9290   20.1690 C   0  0  0  0  0  0  0  0  0  0  0  0
  -25.9770  -30.7870   21.4430 C   0  0  0  0  0  2  0  0  0  0  0  0
  -26.0680  -29.4130   20.7960 C   0  0  0  0  0  0  0  0  0  0  0  0
  -27.2500  -28.6250   20.8200 C   0  0  0  0  0  3  0  0  0  0  0  0
  -26.1130  -26.9140   19.5360 C   0  0  0  0  0  3  0  0  0  0  0  0
  -24.9380  -27.6810   19.5360 C   0  0  0  0  0  3  0  0  0  0  0  0
  -23.6800  -29.8000   20.1890 C   0  0  0  0  0  2  0  0  0  0  0  0
  -24.6890  -31.0490   22.1400 N   0  0  0  0  0  0  0  0  0  0  0  0
  -23.5060  -32.1240   23.7520 O   0  0  0  0  0  0  0  0  0  0  0  0
  -22.7610  -29.4320   22.5050 C   0  0  0  0  0  0  0  0  0  0  0  0
  -21.4340  -29.2700   22.3680 N   0  0  0  0  0  0  0  0  0  0  0  0
  -23.4290  -28.7840   23.3160 O   0  0  0  0  0  0  0  0  0  0  0  0
  -20.9550  -29.8530   21.6950 H   0  0  0  0  0  0  0  0  0  0  0  0
  -18.0330  -28.1460   22.8640 C   0  0  0  0  0  0  0  0  0  0  0  0
  -20.5990  -28.3300   23.1170 C   0  0  0  0  0  3  0  0  0  0  0  0
  -20.6580  -26.9120   22.5030 C   0  0  0  0  0  2  0  0  0  0  0  0
  -19.5400  -26.6440   21.4920 C   0  0  0  0  0  2  0  0  0  0  0  0
  -18.1680  -26.8100   22.1520 C   0  0  0  0  0  2  0  0  0  0  0  0
  -19.1760  -28.8660   23.3060 C   0  0  0  0  0  0  0  0  0  0  0  0
  -19.0000  -30.1190   23.9310 C   0  0  0  0  0  3  0  0  0  0  0  0
  -17.7110  -30.6520   24.1240 C   0  0  0  0  0  3  0  0  0  0  0  0
  -16.5820  -29.9290   23.6980 C   0  0  0  0  0  3  0  0  0  0  0  0
  -16.7440  -28.6780   23.0740 C   0  0  0  0  0  3  0  0  0  0  0  0
  -25.8720  -32.4830   23.8890 C   0  0  0  0  0  3  0  0  0  0  0  0
  -26.3540  -31.7180   25.1830 C   0  0  1  0  0  0  0  0  0  0  0  0
  -25.2320  -31.4880   26.2230 C   0  0  0  0  0  1  0  0  0  0  0  0
  -26.9500  -30.3390   24.8130 C   0  0  0  0  0  1  0  0  0  0  0  0
  -27.4810  -32.5190   25.8760 C   0  0  0  0  0  1  0  0  0  0  0  0
  -25.5590  -33.8840   24.2030 N   0  0  0  0  0  0  0  0  0  0  0  0
  -25.8920  -34.9300   23.4350 C   0  0  0  0  0  0  0  0  0  0  0  0
  -26.5680  -34.8190   22.4100 O   0  0  0  0  0  0  0  0  0  0  0  0
  -24.9600  -34.0420   25.0000 H   0  0  0  0  0  0  0  0  0  0  0  0
  -24.1640  -36.7170   23.0530 C   0  0  0  0  0  1  0  0  0  0  0  0
  -25.3970  -36.3200   23.8780 C   0  0  0  0  0  3  0  0  0  0  0  0
  -27.5160  -37.2260   24.7300 C   0  0  0  0  0  1  0  0  0  0  0  0
  -26.4300  -37.3730   23.7670 N   0  0  0  0  0  0  0  0  0  0  0  0
  -26.0180  -38.2940   23.8940 H   0  0  0  0  0  0  0  0  0  0  0  0
  1  2  1  0
  2  5  1  0
  4  1  1  0
  4  9  1  0
  4  3  1  0
  5 50  1  0
  5  3  1  0
  7  9  1  0
  7  8  1  0
  8 19  1  0
  8  6  1  0
  9 10  1  1
  9  6  1  0
 11 19  1  0
 12 17  1  0
 13 14  1  0
 13 12  1  0
 15 14  1  0
 15 24  1  0
 15 16  1  0
 17 11  1  0
 17 16  1  0
 18 11  2  0
 19 20  1  0
 21 22  2  0
 22 41  1  0
 23 22  1  0
 23 26  1  0
 24 25  1  0
 24 21  1  0
 25 23  2  0
 26 27  1  0
 27 28  2  0
 29 32  1  0
 29 28  1  0
 30 29  2  0
 31 30  1  0
 31 26  2  0
 32 33  1  0
 33 34  1  0
 34 35  2  0
 36 35  1  0
 36 40  1  0
 37 36  2  0
 38 33  2  0
 38 37  1  0
 39 38  1  0
 41 42  1  0
 42 45  1  0
 42 44  1  0
 43 41  2  0
 46 47  1  0
 46 21  1  0
 48 46  1  0
 50 49  1  0
 51 52  1  0
 51 50  1  0
 53 64  2  0
 54 52  1  0
 54 59  1  0
 55 63  1  0
 55 65  1  0
 56 62  1  0
 56 58  1  0
 57 63  1  0
 58 59  2  0
 58 57  1  0
 60 54  2  0
 61 60  1  0
 61 56  2  0
 62 55  1  0
 63 53  1  0
 65 67  2  0
 66 65  1  0
 68 66  1  0
 69 78  2  0
 69 74  1  0
 70 66  1  0
 70 74  1  0
 71 70  1  0
 72 73  1  0
 72 71  1  0
 73 69  1  0
 74 75  2  0
 75 76  1  0
 77 76  2  0
 78 77  1  0
 79 53  1  0
 79 84  1  0
 79 80  1  0
 80 83  1  1
 80 81  1  0
 82 80  1  0
 84 87  1  0
 85 89  1  0
 85 84  1  0
 86 85  2  0
 89 88  1  0
 91 89  1  0
 91 92  1  0
 91 90  1  0
M  ISO  4  11 100  19 100  51 101  52 101
M  END
>  <TORSDO>  (26) 
F 19

>  <SCORE>  (26) 
-14.221

>  <name>  (26) 
25

>  <ligand_id>  (26) 
25

>  <original_smiles>  (26) 
[H]c1c([H])c([H])c2c(c1[H])C([H])([H])C([H])([H])C([H])([H])C2([H])N([H])C(=O)C1([H])N(C(=O)C([H])(N([H])C(=O)C([H])(N([H])C([H])([H])[H])C([H])([H])[H])C(C([H])([H])[H])(C([H])([H])[H])C([H])([H])[H])C([H])([H])c2c([H])c(OC([H])([H])C([H])(N3C([H])([H])C([H])([H])C([H])([N+]4([H])C([H])([H])C([H])(N([H])C(=O)N5C([H])([H])C([H])([H])C([H])([H])C([H])(n6nc(-c7c([H])c([H])c(Oc8c([H])c([H])c(F)c([H])c8F)c([H])c7[H])c(C(=O)N([H])[H])c6N([H])[H])C5([H])[H])C4([H])[H])C3([H])[H])C([H])([H])[H])c([H])c([H])c2C1([H])[H]

>  <smiles>  (26) 
[H]c1c([H])c([H])c2c(c1[H])C([H])([H])C([H])([H])C([H])([H])C2([H])N([H])C(=O)C1([H])N(C(=O)C([H])(N([H])C(=O)C([H])(N([H])C([H])([H])[H])C([H])([H])[H])C(C([H])([H])[H])(C([H])([H])[H])C([H])([H])[H])C([H])([H])c2c([H])c(OC([H])([H])C([H])(N3C([H])([H])C([H])([H])C([H])([N+]4([H])C([H])([H])C([H])(N([H])C(=O)N5C([H])([H])C([H])([H])C([H])([H])C([H])(n6nc(-c7c([H])c([H])c(Oc8c([H])c([H])c(F)c([H])c8F)c([H])c7[H])c(C(=O)N([H])[H])c6N([H])[H])C5([H])[H])C4([H])[H])C3([H])[H])C([H])([H])[H])c([H])c([H])c2C1([H])[H]

$$$$
26:0:0
     RDKit          3D

 97107  0  0  1  0  0  0  0  0999 V2000
  -30.9050  -19.6660   22.8550 C   0  0  0  0  0  3  0  0  0  0  0  0
  -29.4370  -19.7150   20.9410 C   0  0  0  0  0  3  0  0  0  0  0  0
  -30.1550  -18.9650   21.8900 C   0  0  0  0  0  0  0  0  0  0  0  0
  -30.9070  -21.0750   22.8460 C   0  0  0  0  0  0  0  0  0  0  0  0
  -30.1550  -21.7310   21.8430 C   0  0  0  0  0  0  0  0  0  0  0  0
  -29.4390  -21.0630   20.9080 N   0  0  0  0  0  0  0  0  0  0  0  0
  -31.0040  -14.5340   19.8490 C   0  0  0  0  0  0  0  0  0  0  0  0
  -30.5690  -12.4130   18.6600 C   0  0  0  0  0  2  0  0  0  0  0  0
  -29.4960  -12.5970   17.5680 C   0  0  0  0  0  2  0  0  0  0  0  0
  -28.0810  -12.4310   18.1530 C   0  0  0  0  0  2  0  0  0  0  0  0
  -27.8690  -13.2790   19.4340 C   0  0  0  0  0  3  0  0  0  0  0  0
  -29.0300  -13.0640   20.4250 C   0  0  0  0  0  2  0  0  0  0  0  0
  -30.3010  -13.3740   19.7400 N   0  0  0  0  0  0  0  0  0  0  0  0
  -31.9170  -14.8440   19.0750 O   0  0  0  0  0  0  0  0  0  0  0  0
  -30.9840  -16.6540   22.7880 C   0  0  0  0  0  2  0  0  0  0  0  0
  -30.9280  -15.2380   22.2080 C   0  0  0  0  0  2  0  0  0  0  0  0
  -30.3410  -16.8070   20.5040 C   0  0  0  0  0  2  0  0  0  0  0  0
  -30.0580  -17.4430   21.8660 C   0  0  0  0  0  3  0  0  0  0  0  0
  -30.5640  -15.3910   20.7920 N   0  0  0  0  0  0  0  0  0  0  0  0
  -25.5880  -13.8780   20.4730 C   0  0  0  0  0  0  0  0  0  0  0  0
  -24.5570  -13.0970   20.9260 C   0  0  0  0  0  0  0  0  0  0  0  0
  -24.9810  -11.7440   20.7500 C   0  0  0  0  0  0  0  0  0  0  0  0
  -26.5760  -12.9980   20.0560 N   0  0  0  0  0  0  0  0  0  0  0  0
  -26.2190  -11.7060   20.2760 N   0  0  0  0  0  0  0  0  0  0  0  0
  -24.2580  -10.4810   20.9510 C   0  0  0  0  0  0  0  0  0  0  0  0
  -24.7110   -9.5110   21.8710 C   0  0  0  0  0  3  0  0  0  0  0  0
  -23.9900   -8.3120   22.0590 C   0  0  0  0  0  3  0  0  0  0  0  0
  -22.8020   -8.0760   21.3270 C   0  0  0  0  0  0  0  0  0  0  0  0
  -22.3680   -9.0360   20.3970 C   0  0  0  0  0  3  0  0  0  0  0  0
  -23.0890  -10.2260   20.2070 C   0  0  0  0  0  3  0  0  0  0  0  0
  -22.0500   -6.9310   21.4250 O   0  0  0  0  0  0  0  0  0  0  0  0
  -21.8930   -6.2720   22.6180 C   0  0  0  0  0  0  0  0  0  0  0  0
  -21.3600   -6.9130   23.7580 C   0  0  0  0  0  3  0  0  0  0  0  0
  -21.1510   -6.1800   24.9440 C   0  0  0  0  0  3  0  0  0  0  0  0
  -21.4640   -4.8080   24.9890 C   0  0  0  0  0  0  0  0  0  0  0  0
  -21.9900   -4.1680   23.8530 C   0  0  0  0  0  3  0  0  0  0  0  0
  -22.2000   -4.8980   22.6710 C   0  0  0  0  0  0  0  0  0  0  0  0
  -22.6870   -4.2710   21.5730 F   0  0  0  0  0  0  0  0  0  0  0  0
  -21.2560   -4.1030   26.1260 F   0  0  0  0  0  0  0  0  0  0  0  0
  -23.2160  -13.5730   21.4040 C   0  0  0  0  0  0  0  0  0  0  0  0
  -22.6070  -12.8520   22.3390 N   0  0  0  0  0  0  0  0  0  0  0  0
  -22.7210  -14.6180   20.9830 O   0  0  0  0  0  0  0  0  0  0  0  0
  -23.0220  -12.0070   22.7000 H   0  0  0  0  0  0  0  0  0  0  0  0
  -21.7120  -13.1520   22.7010 H   0  0  0  0  0  0  0  0  0  0  0  0
  -25.7600  -15.2540   20.3650 N   0  0  0  0  0  0  0  0  0  0  0  0
  -25.0290  -15.9120   20.6120 H   0  0  0  0  0  0  0  0  0  0  0  0
  -26.5780  -15.6990   19.9680 H   0  0  0  0  0  0  0  0  0  0  0  0
  -31.6690  -21.4580   25.3430 C   0  0  0  0  0  2  0  0  0  0  0  0
  -31.0110  -22.7330   24.8750 C   0  0  0  0  0  2  0  0  0  0  0  0
  -31.6990  -21.8290   23.8770 C   0  0  0  0  0  3  0  0  0  0  0  0
  -30.1050  -23.2520   21.7280 C   0  0  0  0  0  2  0  0  0  0  0  0
  -30.8550  -23.3660   19.3830 C   0  0  0  0  0  1  0  0  0  0  0  0
  -29.7720  -23.6850   20.3500 N   0  0  2  0  0  4  0  0  0  0  0  0
  -28.9870  -23.0850   20.1270 H   0  0  0  0  0  0  0  0  0  0  0  0
  -29.3530  -25.1150   20.2950 C   0  0  0  0  0  2  0  0  0  0  0  0
  -28.4530  -25.4660   19.0990 C   0  0  0  0  0  2  0  0  0  0  0  0
  -28.3930  -26.8890   19.0330 O   0  0  0  0  0  0  0  0  0  0  0  0
  -24.7840  -31.4280   23.1270 C   0  0  0  0  0  0  0  0  0  0  0  0
  -27.1980  -27.5400   19.2300 C   0  0  0  0  0  0  0  0  0  0  0  0
  -23.4740  -30.3310   21.3380 C   0  0  0  0  0  3  0  0  0  0  0  0
  -24.8260  -29.0280   19.6160 C   0  0  0  0  0  0  0  0  0  0  0  0
  -25.9920  -30.6910   21.0760 C   0  0  0  0  0  2  0  0  0  0  0  0
  -26.0180  -29.4410   20.2240 C   0  0  0  0  0  0  0  0  0  0  0  0
  -27.2050  -28.7040   20.0290 C   0  0  0  0  0  3  0  0  0  0  0  0
  -25.9860  -27.1380   18.6200 C   0  0  0  0  0  3  0  0  0  0  0  0
  -24.8030  -27.8730   18.8170 C   0  0  0  0  0  3  0  0  0  0  0  0
  -23.6040  -29.8830   19.8580 C   0  0  0  0  0  2  0  0  0  0  0  0
  -24.7720  -30.8210   21.9070 N   0  0  0  0  0  0  0  0  0  0  0  0
  -23.7370  -31.6190   23.7570 O   0  0  0  0  0  0  0  0  0  0  0  0
  -22.8500  -29.1720   22.1480 C   0  0  0  0  0  0  0  0  0  0  0  0
  -21.5170  -29.0350   22.0630 N   0  0  0  0  0  0  0  0  0  0  0  0
  -23.5580  -28.4070   22.8080 O   0  0  0  0  0  0  0  0  0  0  0  0
  -21.0060  -29.7090   21.5110 H   0  0  0  0  0  0  0  0  0  0  0  0
  -18.1460  -27.8150   22.5060 C   0  0  0  0  0  0  0  0  0  0  0  0
  -20.7180  -27.9950   22.7080 C   0  0  0  0  0  3  0  0  0  0  0  0
  -20.7710  -26.6730   21.9080 C   0  0  0  0  0  2  0  0  0  0  0  0
  -19.6250  -26.5320   20.9020 C   0  0  0  0  0  2  0  0  0  0  0  0
  -18.2720  -26.5880   21.6190 C   0  0  0  0  0  2  0  0  0  0  0  0
  -19.2960  -28.4860   23.0050 C   0  0  0  0  0  0  0  0  0  0  0  0
  -19.1240  -29.6420   23.7960 C   0  0  0  0  0  3  0  0  0  0  0  0
  -17.8370  -30.1270   24.0930 C   0  0  0  0  0  3  0  0  0  0  0  0
  -16.7030  -29.4510   23.6100 C   0  0  0  0  0  3  0  0  0  0  0  0
  -16.8590  -28.2970   22.8220 C   0  0  0  0  0  3  0  0  0  0  0  0
  -26.1120  -31.9300   23.7780 C   0  0  0  0  0  3  0  0  0  0  0  0
  -25.8420  -33.2440   24.3750 N   0  0  0  0  0  0  0  0  0  0  0  0
  -26.1940  -34.4140   23.8250 C   0  0  0  0  0  0  0  0  0  0  0  0
  -26.8510  -34.4950   22.7830 O   0  0  0  0  0  0  0  0  0  0  0  0
  -25.2600  -33.2560   25.2000 H   0  0  0  0  0  0  0  0  0  0  0  0
  -24.5140  -36.2840   23.8310 C   0  0  0  0  0  1  0  0  0  0  0  0
  -25.7430  -35.7000   24.5440 C   0  0  0  0  0  3  0  0  0  0  0  0
  -27.9000  -36.3500   25.5210 C   0  0  0  0  0  1  0  0  0  0  0  0
  -26.8050  -36.7270   24.6320 N   0  0  0  0  0  0  0  0  0  0  0  0
  -26.4240  -37.6110   24.9570 H   0  0  0  0  0  0  0  0  0  0  0  0
  -26.6920  -30.9350   24.8560 C   0  0  1  0  0  0  0  0  0  0  0  0
  -25.6610  -30.5070   25.9260 C   0  0  0  0  0  1  0  0  0  0  0  0
  -27.2300  -29.6520   24.1790 C   0  0  0  0  0  1  0  0  0  0  0  0
  -27.8920  -31.5880   25.5810 C   0  0  0  0  0  1  0  0  0  0  0  0
  2  3  1  0
  3  1  2  0
  4  1  1  0
  4 50  1  0
  5  4  2  0
  6  2  2  0
  6  5  1  0
  7 19  1  0
  8 13  1  0
  9 10  1  0
  9  8  1  0
 11 10  1  0
 11 23  1  0
 11 12  1  0
 13  7  1  0
 13 12  1  0
 14  7  2  0
 16 15  1  0
 17 19  1  0
 17 18  1  0
 18  3  1  0
 18 15  1  0
 19 16  1  0
 20 21  2  0
 21 40  1  0
 22 21  1  0
 22 25  1  0
 23 24  1  0
 23 20  1  0
 24 22  2  0
 25 26  1  0
 26 27  2  0
 28 31  1  0
 28 27  1  0
 29 28  2  0
 30 29  1  0
 30 25  2  0
 31 32  1  0
 32 37  2  0
 32 33  1  0
 33 34  2  0
 34 35  1  0
 35 39  1  0
 36 35  2  0
 37 36  1  0
 38 37  1  0
 40 41  1  0
 41 43  1  0
 41 44  1  0
 42 40  2  0
 45 20  1  0
 45 46  1  0
 47 45  1  0
 49 48  1  0
 50 49  1  0
 50 48  1  0
 51  5  1  0
 52 53  1  0
 53 51  1  0
 53 54  1  6
 55 53  1  0
 56 55  1  0
 57 56  1  0
 57 59  1  0
 58 69  2  0
 59 64  1  0
 60 68  1  0
 60 70  1  0
 61 67  1  0
 61 63  1  0
 62 68  1  0
 63 62  1  0
 64 63  2  0
 65 66  1  0
 65 59  2  0
 66 61  2  0
 67 60  1  0
 68 58  1  0
 70 72  2  0
 71 70  1  0
 73 71  1  0
 74 83  2  0
 74 79  1  0
 75 71  1  0
 75 79  1  0
 76 75  1  0
 77 78  1  0
 77 76  1  0
 78 74  1  0
 79 80  2  0
 80 81  1  0
 82 81  2  0
 83 82  1  0
 84 58  1  0
 84 85  1  0
 84 94  1  0
 85 88  1  0
 86 85  1  0
 86 90  1  0
 87 86  2  0
 90 89  1  0
 90 92  1  0
 92 93  1  0
 92 91  1  0
 94 97  1  1
 94 95  1  0
 96 94  1  0
M  ISO  4   7 100  19 100  56 101  57 101
M  END
>  <TORSDO>  (27) 
F 21

>  <SCORE>  (27) 
-9.424

>  <name>  (27) 
26

>  <ligand_id>  (27) 
26

>  <original_smiles>  (27) 
[H]c1nc(C([H])([H])[N+]([H])(C([H])([H])[H])C([H])([H])C([H])([H])Oc2c([H])c([H])c3c(c2[H])C([H])([H])N(C(=O)C([H])(N([H])C(=O)C([H])(N([H])C([H])([H])[H])C([H])([H])[H])C(C([H])([H])[H])(C([H])([H])[H])C([H])([H])[H])C([H])(C(=O)N([H])C2([H])c4c([H])c([H])c([H])c([H])c4C([H])([H])C([H])([H])C2([H])[H])C3([H])[H])c(C2([H])C([H])([H])C2([H])[H])c([H])c1C1([H])C([H])([H])N(C(=O)N2C([H])([H])C([H])([H])C([H])([H])C([H])(n3nc(-c4c([H])c([H])c(Oc5c([H])c([H])c(F)c([H])c5F)c([H])c4[H])c(C(=O)N([H])[H])c3N([H])[H])C2([H])[H])C([H])([H])C1([H])[H]

>  <smiles>  (27) 
[H]c1nc(C([H])([H])[N+]([H])(C([H])([H])[H])C([H])([H])C([H])([H])Oc2c([H])c([H])c3c(c2[H])C([H])([H])N(C(=O)C([H])(N([H])C(=O)C([H])(N([H])C([H])([H])[H])C([H])([H])[H])C(C([H])([H])[H])(C([H])([H])[H])C([H])([H])[H])C([H])(C(=O)N([H])C2([H])c4c([H])c([H])c([H])c([H])c4C([H])([H])C([H])([H])C2([H])[H])C3([H])[H])c(C2([H])C([H])([H])C2([H])[H])c([H])c1C1([H])C([H])([H])N(C(=O)N2C([H])([H])C([H])([H])C([H])([H])C([H])(n3nc(-c4c([H])c([H])c(Oc5c([H])c([H])c(F)c([H])c5F)c([H])c4[H])c(C(=O)N([H])[H])c3N([H])[H])C2([H])[H])C([H])([H])C1([H])[H]

$$$$
27:0:0
     RDKit          3D

 94103  0  0  1  0  0  0  0  0999 V2000
  -31.6710  -23.1350   19.4140 C   0  0  0  0  0  2  0  0  0  0  0  0
  -30.4440  -23.7980   18.9150 N   0  0  0  0  0  4  0  0  0  0  0  0
  -30.6590  -24.2360   18.0300 H   0  0  0  0  0  0  0  0  0  0  0  0
  -29.7500  -23.0860   18.7300 H   0  0  0  0  0  0  0  0  0  0  0  0
  -29.9020  -24.8300   19.8280 C   0  0  0  0  0  2  0  0  0  0  0  0
  -28.6200  -25.4900   19.2990 C   0  0  0  0  0  2  0  0  0  0  0  0
  -28.4250  -26.6720   20.0710 O   0  0  0  0  0  0  0  0  0  0  0  0
  -24.4780  -31.7140   23.0990 C   0  0  0  0  0  0  0  0  0  0  0  0
  -27.2240  -27.3410   20.0170 C   0  0  0  0  0  0  0  0  0  0  0  0
  -23.3210  -30.3370   21.3980 C   0  0  0  0  0  3  0  0  0  0  0  0
  -24.8170  -28.8250   19.9950 C   0  0  0  0  0  0  0  0  0  0  0  0
  -25.8470  -30.7060   21.2810 C   0  0  0  0  0  2  0  0  0  0  0  0
  -25.9520  -29.3430   20.6280 C   0  0  0  0  0  0  0  0  0  0  0  0
  -27.1530  -28.6040   20.6460 C   0  0  0  0  0  3  0  0  0  0  0  0
  -26.0660  -26.8320   19.3780 C   0  0  0  0  0  3  0  0  0  0  0  0
  -24.8680  -27.5670   19.3720 C   0  0  0  0  0  3  0  0  0  0  0  0
  -23.5720  -29.6810   20.0140 C   0  0  0  0  0  2  0  0  0  0  0  0
  -24.5650  -30.9330   21.9860 N   0  0  0  0  0  0  0  0  0  0  0  0
  -23.3800  -31.9770   23.6120 O   0  0  0  0  0  0  0  0  0  0  0  0
  -22.6440  -29.2990   22.3220 C   0  0  0  0  0  0  0  0  0  0  0  0
  -21.3200  -29.1330   22.1640 N   0  0  0  0  0  0  0  0  0  0  0  0
  -23.3050  -28.6480   23.1340 O   0  0  0  0  0  0  0  0  0  0  0  0
  -20.8470  -29.7150   21.4860 H   0  0  0  0  0  0  0  0  0  0  0  0
  -17.9200  -27.9910   22.5910 C   0  0  0  0  0  0  0  0  0  0  0  0
  -20.4800  -28.1860   22.8950 C   0  0  0  0  0  3  0  0  0  0  0  0
  -20.5590  -26.7730   22.2730 C   0  0  0  0  0  2  0  0  0  0  0  0
  -19.4610  -26.5070   21.2380 C   0  0  0  0  0  2  0  0  0  0  0  0
  -18.0770  -26.6600   21.8730 C   0  0  0  0  0  2  0  0  0  0  0  0
  -19.0500  -28.7140   23.0560 C   0  0  0  0  0  0  0  0  0  0  0  0
  -18.8510  -29.9640   23.6840 C   0  0  0  0  0  3  0  0  0  0  0  0
  -17.5550  -30.4880   23.8490 C   0  0  0  0  0  3  0  0  0  0  0  0
  -16.4400  -29.7600   23.4000 C   0  0  0  0  0  3  0  0  0  0  0  0
  -16.6230  -28.5130   22.7770 C   0  0  0  0  0  3  0  0  0  0  0  0
  -25.7450  -32.3340   23.7670 C   0  0  0  0  0  3  0  0  0  0  0  0
  -25.4240  -33.7240   24.1170 N   0  0  0  0  0  0  0  0  0  0  0  0
  -25.7710  -34.7910   23.3860 C   0  0  0  0  0  0  0  0  0  0  0  0
  -26.4670  -34.7100   22.3710 O   0  0  0  0  0  0  0  0  0  0  0  0
  -24.8090  -33.8600   24.9060 H   0  0  0  0  0  0  0  0  0  0  0  0
  -24.0450  -36.5830   23.0210 C   0  0  0  0  0  1  0  0  0  0  0  0
  -25.2660  -36.1690   23.8570 C   0  0  0  0  0  3  0  0  0  0  0  0
  -27.3730  -37.0470   24.7620 C   0  0  0  0  0  1  0  0  0  0  0  0
  -26.2960  -37.2270   23.7910 N   0  0  0  0  0  0  0  0  0  0  0  0
  -25.8820  -38.1420   23.9420 H   0  0  0  0  0  0  0  0  0  0  0  0
  -26.2350  -31.5350   25.0370 C   0  0  1  0  0  0  0  0  0  0  0  0
  -25.1180  -31.2680   26.0710 C   0  0  0  0  0  1  0  0  0  0  0  0
  -26.8350  -30.1700   24.6240 C   0  0  0  0  0  1  0  0  0  0  0  0
  -27.3650  -32.3170   25.7480 C   0  0  0  0  0  1  0  0  0  0  0  0
  -31.3410  -21.9140   20.2830 C   0  0  0  0  0  2  0  0  0  0  0  0
  -30.6230  -21.0040   19.4670 O   0  0  0  0  0  0  0  0  0  0  0  0
  -30.8880  -14.3140   19.8000 C   0  0  0  0  0  0  0  0  0  0  0  0
  -30.3680  -12.2780   18.5230 C   0  0  0  0  0  2  0  0  0  0  0  0
  -29.3050  -12.6160   17.4580 C   0  0  0  0  0  2  0  0  0  0  0  0
  -27.8830  -12.4930   18.0420 C   0  0  0  0  0  2  0  0  0  0  0  0
  -27.7240  -13.2370   19.3930 C   0  0  0  0  0  3  0  0  0  0  0  0
  -28.8860  -12.8880   20.3500 C   0  0  0  0  0  2  0  0  0  0  0  0
  -30.1540  -13.1810   19.6600 N   0  0  0  0  0  0  0  0  0  0  0  0
  -31.9560  -14.5130   19.2080 O   0  0  0  0  0  0  0  0  0  0  0  0
  -30.3850  -19.3890   21.4010 C   0  0  0  0  0  3  0  0  0  0  0  0
  -30.1250  -18.0490   21.3360 C   0  0  0  0  0  0  0  0  0  0  0  0
  -30.4120  -19.7780   20.0270 C   0  0  0  0  0  0  0  0  0  0  0  0
  -29.9430  -16.9580   22.3280 C   0  0  0  0  0  2  0  0  0  0  0  0
  -30.5390  -15.6290   21.8110 C   0  0  0  0  0  2  0  0  0  0  0  0
  -29.7530  -16.4020   19.4850 C   0  0  0  0  0  2  0  0  0  0  0  0
  -30.1720  -18.7800   19.1960 N   0  0  0  0  0  0  0  0  0  0  0  0
  -30.0320  -17.7180   20.0110 N   0  0  0  0  0  0  0  0  0  0  0  0
  -30.2380  -15.3340   20.3890 N   0  0  0  0  0  0  0  0  0  0  0  0
  -25.4390  -13.8780   20.3930 C   0  0  0  0  0  0  0  0  0  0  0  0
  -24.3920  -13.1140   20.8350 C   0  0  0  0  0  0  0  0  0  0  0  0
  -24.8030  -11.7550   20.6810 C   0  0  0  0  0  0  0  0  0  0  0  0
  -26.4230  -12.9810   20.0030 N   0  0  0  0  0  0  0  0  0  0  0  0
  -26.0480  -11.6980   20.2320 N   0  0  0  0  0  0  0  0  0  0  0  0
  -24.0640  -10.5030   20.8800 C   0  0  0  0  0  0  0  0  0  0  0  0
  -24.5260   -9.5050   21.7660 C   0  0  0  0  0  3  0  0  0  0  0  0
  -23.7880   -8.3170   21.9540 C   0  0  0  0  0  3  0  0  0  0  0  0
  -22.5730   -8.1200   21.2550 C   0  0  0  0  0  0  0  0  0  0  0  0
  -22.1290   -9.1060   20.3560 C   0  0  0  0  0  3  0  0  0  0  0  0
  -22.8690  -10.2850   20.1680 C   0  0  0  0  0  3  0  0  0  0  0  0
  -21.8030   -6.9860   21.3560 O   0  0  0  0  0  0  0  0  0  0  0  0
  -21.7540   -6.2480   22.5110 C   0  0  0  0  0  0  0  0  0  0  0  0
  -21.3580   -6.8170   23.7420 C   0  0  0  0  0  3  0  0  0  0  0  0
  -21.2560   -6.0060   24.8890 C   0  0  0  0  0  3  0  0  0  0  0  0
  -21.5400   -4.6290   24.8080 C   0  0  0  0  0  0  0  0  0  0  0  0
  -21.9330   -4.0630   23.5820 C   0  0  0  0  0  3  0  0  0  0  0  0
  -22.0360   -4.8700   22.4370 C   0  0  0  0  0  0  0  0  0  0  0  0
  -22.3930   -4.3140   21.2530 F   0  0  0  0  0  0  0  0  0  0  0  0
  -21.4350   -3.8480   25.9090 F   0  0  0  0  0  0  0  0  0  0  0  0
  -23.0490  -13.6110   21.2860 C   0  0  0  0  0  0  0  0  0  0  0  0
  -22.4140  -12.9040   22.2140 N   0  0  0  0  0  0  0  0  0  0  0  0
  -22.5750  -14.6590   20.8510 O   0  0  0  0  0  0  0  0  0  0  0  0
  -22.8100  -12.0530   22.5850 H   0  0  0  0  0  0  0  0  0  0  0  0
  -21.5190  -13.2210   22.5610 H   0  0  0  0  0  0  0  0  0  0  0  0
  -25.6280  -15.2520   20.2740 N   0  0  0  0  0  0  0  0  0  0  0  0
  -24.8980  -15.9180   20.5070 H   0  0  0  0  0  0  0  0  0  0  0  0
  -26.4530  -15.6900   19.8860 H   0  0  0  0  0  0  0  0  0  0  0  0
  1 48  1  0
  2  1  1  0
  2  5  1  0
  3  2  1  0
  4  2  1  0
  6  5  1  0
  6  7  1  0
  8 19  2  0
  9  7  1  0
  9 14  1  0
 10 18  1  0
 10 20  1  0
 11 17  1  0
 11 13  1  0
 12 18  1  0
 13 14  2  0
 13 12  1  0
 15  9  2  0
 16 15  1  0
 16 11  2  0
 17 10  1  0
 18  8  1  0
 20 22  2  0
 21 20  1  0
 23 21  1  0
 24 33  2  0
 24 29  1  0
 25 21  1  0
 25 29  1  0
 26 25  1  0
 27 28  1  0
 27 26  1  0
 28 24  1  0
 29 30  2  0
 30 31  1  0
 32 31  2  0
 33 32  1  0
 34  8  1  0
 34 35  1  0
 34 44  1  0
 35 38  1  0
 36 40  1  0
 36 35  1  0
 37 36  2  0
 40 39  1  0
 42 40  1  0
 42 43  1  0
 42 41  1  0
 44 47  1  1
 44 45  1  0
 46 44  1  0
 49 60  1  0
 49 48  1  0
 50 66  1  0
 51 56  1  0
 52 53  1  0
 52 51  1  0
 54 53  1  0
 54 70  1  0
 54 55  1  0
 56 50  1  0
 56 55  1  0
 57 50  2  0
 59 58  2  0
 59 61  1  0
 60 58  1  0
 62 61  1  0
 63 65  1  0
 63 66  1  0
 64 65  1  0
 64 60  2  0
 65 59  1  0
 66 62  1  0
 67 68  2  0
 68 87  1  0
 69 68  1  0
 69 72  1  0
 70 71  1  0
 70 67  1  0
 71 69  2  0
 72 73  1  0
 73 74  2  0
 75 78  1  0
 75 74  1  0
 76 75  2  0
 77 76  1  0
 77 72  2  0
 78 79  1  0
 79 80  1  0
 80 81  2  0
 82 81  1  0
 82 86  1  0
 83 82  2  0
 84 79  2  0
 84 83  1  0
 85 84  1  0
 87 88  1  0
 88 91  1  0
 88 90  1  0
 89 87  2  0
 92 67  1  0
 92 93  1  0
 94 92  1  0
M  ISO  4   6 101   7 101  50 100  66 100
M  END
>  <TORSDO>  (28) 
F 21

>  <SCORE>  (28) 
-12.227

>  <name>  (28) 
27

>  <ligand_id>  (28) 
27

>  <original_smiles>  (28) 
[H]c1c([H])c([H])c2c(c1[H])C([H])([H])C([H])([H])C([H])([H])C2([H])N([H])C(=O)C1([H])N(C(=O)C([H])(N([H])C(=O)C([H])(N([H])C([H])([H])[H])C([H])([H])[H])C(C([H])([H])[H])(C([H])([H])[H])C([H])([H])[H])C([H])([H])c2c([H])c(OC([H])([H])C([H])([H])[N+]([H])([H])C([H])([H])C([H])([H])Oc3nn4c(c3[H])C([H])([H])C([H])([H])N(C(=O)N3C([H])([H])C([H])([H])C([H])([H])C([H])(n5nc(-c6c([H])c([H])c(Oc7c([H])c([H])c(F)c([H])c7F)c([H])c6[H])c(C(=O)N([H])[H])c5N([H])[H])C3([H])[H])C4([H])[H])c([H])c([H])c2C1([H])[H]

>  <smiles>  (28) 
[H]c1c([H])c([H])c2c(c1[H])C([H])([H])C([H])([H])C([H])([H])C2([H])N([H])C(=O)C1([H])N(C(=O)C([H])(N([H])C(=O)C([H])(N([H])C([H])([H])[H])C([H])([H])[H])C(C([H])([H])[H])(C([H])([H])[H])C([H])([H])[H])C([H])([H])c2c([H])c(OC([H])([H])C([H])([H])[N+]([H])([H])C([H])([H])C([H])([H])Oc3nn4c(c3[H])C([H])([H])C([H])([H])N(C(=O)N3C([H])([H])C([H])([H])C([H])([H])C([H])(n5nc(-c6c([H])c([H])c(Oc7c([H])c([H])c(F)c([H])c7F)c([H])c6[H])c(C(=O)N([H])[H])c5N([H])[H])C3([H])[H])C4([H])[H])c([H])c([H])c2C1([H])[H]

$$$$
28:0:0
     RDKit          3D

 94103  0  0  1  0  0  0  0  0999 V2000
  -29.2760  -23.3230   20.0420 C   0  0  0  0  0  2  0  0  0  0  0  0
  -28.6070  -22.1190   20.5860 N   0  0  0  0  0  4  0  0  0  0  0  0
  -28.5560  -22.2120   21.5880 H   0  0  0  0  0  0  0  0  0  0  0  0
  -27.6650  -22.1220   20.2380 H   0  0  0  0  0  0  0  0  0  0  0  0
  -29.2420  -20.8270   20.2370 C   0  0  0  0  0  2  0  0  0  0  0  0
  -28.5370  -19.6400   20.9270 C   0  0  0  0  0  2  0  0  0  0  0  0
  -31.0010  -14.4500   19.7550 C   0  0  0  0  0  0  0  0  0  0  0  0
  -30.5740  -12.3140   18.5870 C   0  0  0  0  0  2  0  0  0  0  0  0
  -29.4850  -12.5010   17.5100 C   0  0  0  0  0  2  0  0  0  0  0  0
  -28.0780  -12.3130   18.1120 C   0  0  0  0  0  2  0  0  0  0  0  0
  -27.8870  -13.1080   19.4290 C   0  0  0  0  0  3  0  0  0  0  0  0
  -29.0790  -12.8580   20.3810 C   0  0  0  0  0  2  0  0  0  0  0  0
  -30.3040  -13.2730   19.6800 N   0  0  0  0  0  0  0  0  0  0  0  0
  -32.0210  -14.6120   19.0730 O   0  0  0  0  0  0  0  0  0  0  0  0
  -31.3170  -16.7700   20.5250 C   0  0  0  0  0  2  0  0  0  0  0  0
  -29.3460  -15.7350   21.3050 C   0  0  0  0  0  2  0  0  0  0  0  0
  -30.4850  -17.8550   21.1580 C   0  0  0  0  0  3  0  0  0  0  0  0
  -29.2340  -17.2020   21.6460 C   0  0  0  0  0  3  0  0  0  0  0  0
  -29.1510  -18.2870   20.5920 C   0  0  0  0  0  3  0  0  0  0  0  0
  -30.5660  -15.5000   20.5140 N   0  0  0  0  0  0  0  0  0  0  0  0
  -25.6320  -13.6660   20.5380 C   0  0  0  0  0  0  0  0  0  0  0  0
  -24.6120  -12.8680   20.9820 C   0  0  0  0  0  0  0  0  0  0  0  0
  -25.0320  -11.5240   20.7450 C   0  0  0  0  0  0  0  0  0  0  0  0
  -26.6110  -12.8040   20.0690 N   0  0  0  0  0  0  0  0  0  0  0  0
  -26.2620  -11.5060   20.2470 N   0  0  0  0  0  0  0  0  0  0  0  0
  -24.3140  -10.2540   20.9090 C   0  0  0  0  0  0  0  0  0  0  0  0
  -24.7610   -9.2650   21.8120 C   0  0  0  0  0  3  0  0  0  0  0  0
  -24.0430   -8.0590   21.9650 C   0  0  0  0  0  3  0  0  0  0  0  0
  -22.8660   -7.8340   21.2140 C   0  0  0  0  0  0  0  0  0  0  0  0
  -22.4380   -8.8130   20.2990 C   0  0  0  0  0  3  0  0  0  0  0  0
  -23.1560  -10.0100   20.1450 C   0  0  0  0  0  3  0  0  0  0  0  0
  -22.1190   -6.6820   21.2760 O   0  0  0  0  0  0  0  0  0  0  0  0
  -21.9720   -5.9840   22.4480 C   0  0  0  0  0  0  0  0  0  0  0  0
  -21.4230   -6.5780   23.6060 C   0  0  0  0  0  3  0  0  0  0  0  0
  -21.2260   -5.8050   24.7680 C   0  0  0  0  0  3  0  0  0  0  0  0
  -21.5650   -4.4390   24.7730 C   0  0  0  0  0  0  0  0  0  0  0  0
  -22.1050   -3.8450   23.6190 C   0  0  0  0  0  3  0  0  0  0  0  0
  -22.3060   -4.6150   22.4600 C   0  0  0  0  0  0  0  0  0  0  0  0
  -22.8080   -4.0320   21.3450 F   0  0  0  0  0  0  0  0  0  0  0  0
  -21.3690   -3.6960   25.8870 F   0  0  0  0  0  0  0  0  0  0  0  0
  -23.2810  -13.3240   21.5060 C   0  0  0  0  0  0  0  0  0  0  0  0
  -22.6970  -12.5740   22.4340 N   0  0  0  0  0  0  0  0  0  0  0  0
  -22.7730  -14.3790   21.1280 O   0  0  0  0  0  0  0  0  0  0  0  0
  -23.1220  -11.7180   22.7570 H   0  0  0  0  0  0  0  0  0  0  0  0
  -21.8120  -12.8610   22.8280 H   0  0  0  0  0  0  0  0  0  0  0  0
  -25.7960  -15.0470   20.4760 N   0  0  0  0  0  0  0  0  0  0  0  0
  -25.0630  -15.6890   20.7610 H   0  0  0  0  0  0  0  0  0  0  0  0
  -26.5930  -15.5150   20.0660 H   0  0  0  0  0  0  0  0  0  0  0  0
  -28.2320  -24.3310   19.5020 C   0  0  0  0  0  3  0  0  0  0  0  0
  -27.5790  -23.7580   18.3270 N   0  0  0  0  0  0  0  0  0  0  0  0
  -28.2230  -23.7580   17.5420 H   0  0  0  0  0  0  0  0  0  0  0  0
  -27.3020  -22.7910   18.4340 H   0  0  0  0  0  0  0  0  0  0  0  0
  -28.8480  -25.6970   19.0850 C   0  0  0  0  0  2  0  0  0  0  0  0
  -28.6250  -26.7510   20.0260 O   0  0  0  0  0  0  0  0  0  0  0  0
  -24.6470  -31.7050   23.2170 C   0  0  0  0  0  0  0  0  0  0  0  0
  -27.4180  -27.4250   20.0140 C   0  0  0  0  0  0  0  0  0  0  0  0
  -23.4900  -30.3460   21.5030 C   0  0  0  0  0  3  0  0  0  0  0  0
  -24.9890  -28.8830   20.0510 C   0  0  0  0  0  0  0  0  0  0  0  0
  -26.0120  -30.7480   21.3630 C   0  0  0  0  0  2  0  0  0  0  0  0
  -26.1270  -29.4010   20.6830 C   0  0  0  0  0  0  0  0  0  0  0  0
  -27.3370  -28.6730   20.6740 C   0  0  0  0  0  3  0  0  0  0  0  0
  -26.2560  -26.9190   19.3840 C   0  0  0  0  0  3  0  0  0  0  0  0
  -25.0470  -27.6380   19.4060 C   0  0  0  0  0  3  0  0  0  0  0  0
  -23.7330  -29.7210   20.1050 C   0  0  0  0  0  2  0  0  0  0  0  0
  -24.7330  -30.9460   22.0870 N   0  0  0  0  0  0  0  0  0  0  0  0
  -23.5530  -31.9410   23.7480 O   0  0  0  0  0  0  0  0  0  0  0  0
  -22.8400  -29.2810   22.4150 C   0  0  0  0  0  0  0  0  0  0  0  0
  -21.5220  -29.0810   22.2560 N   0  0  0  0  0  0  0  0  0  0  0  0
  -23.5190  -28.6370   23.2200 O   0  0  0  0  0  0  0  0  0  0  0  0
  -21.0350  -29.6510   21.5780 H   0  0  0  0  0  0  0  0  0  0  0  0
  -18.1550  -27.8400   22.6710 C   0  0  0  0  0  0  0  0  0  0  0  0
  -20.7070  -28.1040   22.9780 C   0  0  0  0  0  3  0  0  0  0  0  0
  -20.8270  -26.7010   22.3410 C   0  0  0  0  0  2  0  0  0  0  0  0
  -19.7370  -26.4150   21.3050 C   0  0  0  0  0  2  0  0  0  0  0  0
  -18.3480  -26.5220   21.9410 C   0  0  0  0  0  2  0  0  0  0  0  0
  -19.2630  -28.5900   23.1460 C   0  0  0  0  0  0  0  0  0  0  0  0
  -19.0300  -29.8250   23.7870 C   0  0  0  0  0  3  0  0  0  0  0  0
  -17.7210  -30.3100   23.9630 C   0  0  0  0  0  3  0  0  0  0  0  0
  -16.6260  -29.5560   23.5070 C   0  0  0  0  0  3  0  0  0  0  0  0
  -16.8430  -28.3240   22.8650 C   0  0  0  0  0  3  0  0  0  0  0  0
  -25.9130  -32.3320   23.8790 C   0  0  0  0  0  3  0  0  0  0  0  0
  -25.5960  -33.7280   24.2070 N   0  0  0  0  0  0  0  0  0  0  0  0
  -25.9510  -34.7820   23.4610 C   0  0  0  0  0  0  0  0  0  0  0  0
  -26.6520  -34.6840   22.4500 O   0  0  0  0  0  0  0  0  0  0  0  0
  -24.9780  -33.8790   24.9900 H   0  0  0  0  0  0  0  0  0  0  0  0
  -24.2430  -36.5820   23.0490 C   0  0  0  0  0  1  0  0  0  0  0  0
  -25.4490  -36.1680   23.9090 C   0  0  0  0  0  3  0  0  0  0  0  0
  -27.5460  -37.0440   24.8360 C   0  0  0  0  0  1  0  0  0  0  0  0
  -26.4880  -37.2190   23.8450 N   0  0  0  0  0  0  0  0  0  0  0  0
  -26.0780  -38.1390   23.9780 H   0  0  0  0  0  0  0  0  0  0  0  0
  -26.3940  -31.5510   25.1640 C   0  0  1  0  0  0  0  0  0  0  0  0
  -25.2680  -31.3000   26.1930 C   0  0  0  0  0  1  0  0  0  0  0  0
  -26.9950  -30.1800   24.7760 C   0  0  0  0  0  1  0  0  0  0  0  0
  -27.5210  -32.3430   25.8670 C   0  0  0  0  0  1  0  0  0  0  0  0
  1  2  1  0
  2  3  1  0
  4  2  1  0
  5  2  1  0
  5  6  1  0
  7 20  1  0
  8 13  1  0
  9 10  1  0
  9  8  1  0
 11 10  1  0
 11 24  1  0
 11 12  1  0
 13  7  1  0
 13 12  1  0
 14  7  2  0
 17 15  1  0
 17 18  1  0
 18 16  1  0
 19  6  1  0
 19 17  1  0
 19 18  1  0
 20 15  1  0
 20 16  1  0
 21 22  2  0
 22 41  1  0
 23 26  1  0
 23 22  1  0
 24 25  1  0
 24 21  1  0
 25 23  2  0
 26 27  1  0
 27 28  2  0
 29 32  1  0
 29 28  1  0
 30 29  2  0
 31 30  1  0
 31 26  2  0
 32 33  1  0
 33 38  2  0
 33 34  1  0
 34 35  2  0
 35 36  1  0
 36 40  1  0
 37 36  2  0
 38 37  1  0
 39 38  1  0
 41 42  1  0
 42 44  1  0
 42 45  1  0
 43 41  2  0
 46 21  1  0
 46 47  1  0
 48 46  1  0
 49 53  1  0
 49  1  1  0
 50 52  1  0
 50 49  1  0
 51 50  1  0
 53 54  1  0
 55 66  2  0
 56 54  1  0
 56 61  1  0
 57 65  1  0
 57 67  1  0
 58 64  1  0
 58 60  1  0
 59 65  1  0
 60 59  1  0
 61 60  2  0
 62 63  1  0
 62 56  2  0
 63 58  2  0
 64 57  1  0
 65 55  1  0
 67 69  2  0
 68 67  1  0
 70 68  1  0
 71 80  2  0
 71 76  1  0
 72 68  1  0
 72 76  1  0
 73 72  1  0
 74 75  1  0
 74 73  1  0
 75 71  1  0
 76 77  2  0
 77 78  1  0
 79 78  2  0
 80 79  1  0
 81 55  1  0
 81 82  1  0
 81 91  1  0
 82 85  1  0
 83 87  1  0
 83 82  1  0
 84 83  2  0
 87 86  1  0
 89 87  1  0
 89 90  1  0
 89 88  1  0
 91 94  1  1
 91 92  1  0
 93 91  1  0
M  ISO  4   7 100  20 100  53 101  54 101
M  END
>  <TORSDO>  (29) 
F 22

>  <SCORE>  (29) 
-11.299

>  <name>  (29) 
28

>  <ligand_id>  (29) 
28

>  <original_smiles>  (29) 
[H]c1c([H])c([H])c2c(c1[H])C([H])([H])C([H])([H])C([H])([H])C2([H])N([H])C(=O)C1([H])N(C(=O)C([H])(N([H])C(=O)C([H])(N([H])C([H])([H])[H])C([H])([H])[H])C(C([H])([H])[H])(C([H])([H])[H])C([H])([H])[H])C([H])([H])c2c([H])c(OC([H])([H])C([H])(N([H])[H])C([H])([H])[N+]([H])([H])C([H])([H])C([H])([H])C3([H])C4([H])C([H])([H])N(C(=O)N5C([H])([H])C([H])([H])C([H])([H])C([H])(n6nc(-c7c([H])c([H])c(Oc8c([H])c([H])c(F)c([H])c8F)c([H])c7[H])c(C(=O)N([H])[H])c6N([H])[H])C5([H])[H])C([H])([H])C43[H])c([H])c([H])c2C1([H])[H]

>  <smiles>  (29) 
[H]c1c([H])c([H])c2c(c1[H])C([H])([H])C([H])([H])C([H])([H])C2([H])N([H])C(=O)C1([H])N(C(=O)C([H])(N([H])C(=O)C([H])(N([H])C([H])([H])[H])C([H])([H])[H])C(C([H])([H])[H])(C([H])([H])[H])C([H])([H])[H])C([H])([H])c2c([H])c(OC([H])([H])C([H])(N([H])[H])C([H])([H])[N+]([H])([H])C([H])([H])C([H])([H])C3([H])C4([H])C([H])([H])N(C(=O)N5C([H])([H])C([H])([H])C([H])([H])C([H])(n6nc(-c7c([H])c([H])c(Oc8c([H])c([H])c(F)c([H])c8F)c([H])c7[H])c(C(=O)N([H])[H])c6N([H])[H])C5([H])[H])C([H])([H])C43[H])c([H])c([H])c2C1([H])[H]

$$$$
29:0:0
     RDKit          3D

100110  0  0  1  0  0  0  0  0999 V2000
  -29.6030  -22.9590   19.0370 C   0  0  0  0  0  2  0  0  0  0  0  0
  -30.8010  -23.8690   19.2270 C   0  0  0  0  0  3  0  0  0  0  0  0
  -30.9980  -22.4230   18.8030 C   0  0  0  0  0  3  0  0  0  0  0  0
  -32.7760  -20.8210   21.3470 C   0  0  0  0  0  0  0  0  0  0  0  0
  -31.8440  -19.8210   20.9660 C   0  0  0  0  0  0  0  0  0  0  0  0
  -33.8580  -20.7580   22.3800 C   0  0  0  0  0  1  0  0  0  0  0  0
  -32.5690  -21.8890   20.6180 N   0  0  0  0  0  0  0  0  0  0  0  0
  -31.0570  -20.2640   20.0190 N   0  0  0  0  0  0  0  0  0  0  0  0
  -31.5080  -21.5390   19.8400 N   0  0  0  0  0  0  0  0  0  0  0  0
  -31.7820  -18.5340   21.5280 N   0  0  0  0  0  0  0  0  0  0  0  0
  -32.4150  -18.3410   22.2980 H   0  0  0  0  0  0  0  0  0  0  0  0
  -31.1950  -14.0950   19.7000 C   0  0  0  0  0  0  0  0  0  0  0  0
  -30.6240  -11.9740   18.5610 C   0  0  0  0  0  2  0  0  0  0  0  0
  -29.6070  -12.2120   17.4240 C   0  0  0  0  0  2  0  0  0  0  0  0
  -28.1590  -12.1900   17.9560 C   0  0  0  0  0  2  0  0  0  0  0  0
  -27.9800  -13.0600   19.2270 C   0  0  0  0  0  3  0  0  0  0  0  0
  -29.0880  -12.7240   20.2460 C   0  0  0  0  0  2  0  0  0  0  0  0
  -30.3920  -12.9880   19.6120 N   0  0  0  0  0  0  0  0  0  0  0  0
  -32.2210  -14.1830   19.0140 O   0  0  0  0  0  0  0  0  0  0  0  0
  -30.5730  -16.5600   22.3470 C   0  0  0  0  0  2  0  0  0  0  0  0
  -30.1150  -15.2610   21.6910 C   0  0  0  0  0  2  0  0  0  0  0  0
  -31.3440  -16.5240   20.0920 C   0  0  0  0  0  2  0  0  0  0  0  0
  -30.8360  -17.4870   21.1720 C   0  0  0  0  0  3  0  0  0  0  0  0
  -30.7610  -15.1980   20.3750 N   0  0  0  0  0  0  0  0  0  0  0  0
  -25.7000  -13.8580   20.1170 C   0  0  0  0  0  0  0  0  0  0  0  0
  -24.6060  -13.1710   20.5730 C   0  0  0  0  0  0  0  0  0  0  0  0
  -24.9530  -11.7870   20.5090 C   0  0  0  0  0  0  0  0  0  0  0  0
  -26.6490  -12.8960   19.8080 N   0  0  0  0  0  0  0  0  0  0  0  0
  -26.2070  -11.6450   20.0970 N   0  0  0  0  0  0  0  0  0  0  0  0
  -24.1480  -10.5860   20.7610 C   0  0  0  0  0  0  0  0  0  0  0  0
  -24.5520   -9.6090   21.6980 C   0  0  0  0  0  3  0  0  0  0  0  0
  -23.7510   -8.4710   21.9350 C   0  0  0  0  0  3  0  0  0  0  0  0
  -22.5320   -8.3040   21.2360 C   0  0  0  0  0  0  0  0  0  0  0  0
  -22.1470   -9.2680   20.2880 C   0  0  0  0  0  3  0  0  0  0  0  0
  -22.9480  -10.3970   20.0490 C   0  0  0  0  0  3  0  0  0  0  0  0
  -21.7020   -7.2190   21.3830 O   0  0  0  0  0  0  0  0  0  0  0  0
  -21.6260   -6.5250   22.5650 C   0  0  0  0  0  0  0  0  0  0  0  0
  -21.2770   -7.1580   23.7780 C   0  0  0  0  0  3  0  0  0  0  0  0
  -21.1420   -6.3960   24.9550 C   0  0  0  0  0  3  0  0  0  0  0  0
  -21.3460   -5.0040   24.9220 C   0  0  0  0  0  0  0  0  0  0  0  0
  -21.6880   -4.3710   23.7130 C   0  0  0  0  0  3  0  0  0  0  0  0
  -21.8240   -5.1300   22.5370 C   0  0  0  0  0  0  0  0  0  0  0  0
  -22.1340   -4.5130   21.3720 F   0  0  0  0  0  0  0  0  0  0  0  0
  -21.2080   -4.2700   26.0500 F   0  0  0  0  0  0  0  0  0  0  0  0
  -23.2780  -13.7560   20.9580 C   0  0  0  0  0  0  0  0  0  0  0  0
  -22.5840  -13.1300   21.9020 N   0  0  0  0  0  0  0  0  0  0  0  0
  -22.8700  -14.8020   20.4550 O   0  0  0  0  0  0  0  0  0  0  0  0
  -22.9270  -12.2810   22.3250 H   0  0  0  0  0  0  0  0  0  0  0  0
  -21.6970  -13.5060   22.2080 H   0  0  0  0  0  0  0  0  0  0  0  0
  -25.9620  -15.2120   19.9260 N   0  0  0  0  0  0  0  0  0  0  0  0
  -25.2720  -15.9330   20.1050 H   0  0  0  0  0  0  0  0  0  0  0  0
  -26.8280  -15.5770   19.5480 H   0  0  0  0  0  0  0  0  0  0  0  0
  -32.6280  -25.3760   18.3290 C   0  0  0  0  0  1  0  0  0  0  0  0
  -31.1380  -24.9890   18.2520 C   0  0  0  0  0  3  0  0  0  0  0  0
  -30.2190  -26.1540   18.3550 N   0  0  0  0  0  4  0  0  0  0  0  0
  -30.3070  -26.6650   17.4890 H   0  0  0  0  0  0  0  0  0  0  0  0
  -29.2650  -25.8220   18.3900 H   0  0  0  0  0  0  0  0  0  0  0  0
  -30.3920  -27.1450   19.4540 C   0  0  0  0  0  2  0  0  0  0  0  0
  -29.4920  -26.8520   20.6600 C   0  0  0  0  0  2  0  0  0  0  0  0
  -28.2080  -26.4920   20.1500 O   0  0  0  0  0  0  0  0  0  0  0  0
  -24.5600  -31.8560   23.2210 C   0  0  0  0  0  0  0  0  0  0  0  0
  -27.1190  -27.3350   20.2080 C   0  0  0  0  0  0  0  0  0  0  0  0
  -23.3140  -30.4470   21.6120 C   0  0  0  0  0  3  0  0  0  0  0  0
  -24.7320  -28.8580   20.2100 C   0  0  0  0  0  0  0  0  0  0  0  0
  -25.8400  -30.7630   21.3890 C   0  0  0  0  0  2  0  0  0  0  0  0
  -25.9000  -29.3810   20.7780 C   0  0  0  0  0  0  0  0  0  0  0  0
  -27.0950  -28.6310   20.7800 C   0  0  0  0  0  3  0  0  0  0  0  0
  -25.9330  -26.8240   19.6440 C   0  0  0  0  0  3  0  0  0  0  0  0
  -24.7410  -27.5740   19.6400 C   0  0  0  0  0  3  0  0  0  0  0  0
  -23.5000  -29.7340   20.2460 C   0  0  0  0  0  2  0  0  0  0  0  0
  -24.5900  -31.0370   22.1330 N   0  0  0  0  0  0  0  0  0  0  0  0
  -23.4900  -32.1600   23.7650 O   0  0  0  0  0  0  0  0  0  0  0  0
  -22.6510  -29.4570   22.5960 C   0  0  0  0  0  0  0  0  0  0  0  0
  -21.3290  -29.2740   22.4560 N   0  0  0  0  0  0  0  0  0  0  0  0
  -23.3240  -28.8560   23.4370 O   0  0  0  0  0  0  0  0  0  0  0  0
  -20.8500  -29.8070   21.7430 H   0  0  0  0  0  0  0  0  0  0  0  0
  -17.9530  -28.0740   22.9130 C   0  0  0  0  0  0  0  0  0  0  0  0
  -20.4990  -28.3630   23.2430 C   0  0  0  0  0  3  0  0  0  0  0  0
  -20.6280  -26.9100   22.7290 C   0  0  0  0  0  2  0  0  0  0  0  0
  -19.5550  -26.5370   21.7010 C   0  0  0  0  0  2  0  0  0  0  0  0
  -18.1570  -26.6990   22.3010 C   0  0  0  0  0  2  0  0  0  0  0  0
  -19.0540  -28.8630   23.3410 C   0  0  0  0  0  0  0  0  0  0  0  0
  -18.8110  -30.1480   23.8700 C   0  0  0  0  0  3  0  0  0  0  0  0
  -17.5000  -30.6480   23.9760 C   0  0  0  0  0  3  0  0  0  0  0  0
  -16.4120  -29.8570   23.5660 C   0  0  0  0  0  3  0  0  0  0  0  0
  -16.6390  -28.5730   23.0400 C   0  0  0  0  0  3  0  0  0  0  0  0
  -25.8660  -32.4670   23.8220 C   0  0  0  0  0  3  0  0  0  0  0  0
  -25.5800  -33.8660   24.1660 N   0  0  0  0  0  0  0  0  0  0  0  0
  -25.9090  -34.9170   23.4040 C   0  0  0  0  0  0  0  0  0  0  0  0
  -26.5590  -34.8110   22.3590 O   0  0  0  0  0  0  0  0  0  0  0  0
  -25.0000  -34.0230   24.9770 H   0  0  0  0  0  0  0  0  0  0  0  0
  -24.1910  -36.7250   23.0890 C   0  0  0  0  0  1  0  0  0  0  0  0
  -25.4440  -36.3080   23.8750 C   0  0  0  0  0  3  0  0  0  0  0  0
  -27.6040  -37.1670   24.6660 C   0  0  0  0  0  1  0  0  0  0  0  0
  -26.4850  -37.3510   23.7450 N   0  0  0  0  0  0  0  0  0  0  0  0
  -26.0910  -38.2750   23.9040 H   0  0  0  0  0  0  0  0  0  0  0  0
  -26.4030  -31.6800   25.0790 C   0  0  1  0  0  0  0  0  0  0  0  0
  -25.3300  -31.4430   26.1660 C   0  0  0  0  0  1  0  0  0  0  0  0
  -26.9640  -30.3010   24.6600 C   0  0  0  0  0  1  0  0  0  0  0  0
  -27.5750  -32.4570   25.7220 C   0  0  0  0  0  1  0  0  0  0  0  0
  1  2  1  0
  2 54  1  0
  3  1  1  0
  3  2  1  0
  3  9  1  0
  4  6  1  0
  5  4  1  0
  5 10  1  0
  7  4  2  0
  8  5  2  0
  9  8  1  0
  9  7  1  0
 10 11  1  0
 12 24  1  0
 13 18  1  0
 14 15  1  0
 14 13  1  0
 16 15  1  0
 16 28  1  0
 16 17  1  0
 18 12  1  0
 18 17  1  0
 19 12  2  0
 21 20  1  0
 22 24  1  0
 22 23  1  0
 23 10  1  0
 23 20  1  0
 24 21  1  0
 25 26  2  0
 26 45  1  0
 27 26  1  0
 27 30  1  0
 28 29  1  0
 28 25  1  0
 29 27  2  0
 30 31  1  0
 31 32  2  0
 33 36  1  0
 33 32  1  0
 34 33  2  0
 35 34  1  0
 35 30  2  0
 36 37  1  0
 37 38  1  0
 38 39  2  0
 40 39  1  0
 40 44  1  0
 41 40  2  0
 42 37  2  0
 42 41  1  0
 43 42  1  0
 45 46  1  0
 46 49  1  0
 46 48  1  0
 47 45  2  0
 50 51  1  0
 50 25  1  0
 52 50  1  0
 54 53  1  0
 54 55  1  0
 55 57  1  0
 55 58  1  0
 56 55  1  0
 58 59  1  0
 60 62  1  0
 60 59  1  0
 61 72  2  0
 62 67  1  0
 63 71  1  0
 63 73  1  0
 64 70  1  0
 64 66  1  0
 65 71  1  0
 66 67  2  0
 66 65  1  0
 68 62  2  0
 69 68  1  0
 69 64  2  0
 70 63  1  0
 71 61  1  0
 73 75  2  0
 74 73  1  0
 76 74  1  0
 77 86  2  0
 77 82  1  0
 78 74  1  0
 78 82  1  0
 79 78  1  0
 80 81  1  0
 80 79  1  0
 81 77  1  0
 82 83  2  0
 83 84  1  0
 85 84  2  0
 86 85  1  0
 87 61  1  0
 87 88  1  0
 87 97  1  0
 88 91  1  0
 89 93  1  0
 89 88  1  0
 90 89  2  0
 93 92  1  0
 95 93  1  0
 95 96  1  0
 95 94  1  0
 97100  1  1
 97 98  1  0
 99 97  1  0
M  ISO  4  12 100  24 100  59 101  60 101
M  END
>  <TORSDO>  (30) 
F 21

>  <SCORE>  (30) 
-12.910

>  <name>  (30) 
29

>  <ligand_id>  (30) 
29

>  <original_smiles>  (30) 
[H]c1c([H])c([H])c2c(c1[H])C([H])([H])C([H])([H])C([H])([H])C2([H])N([H])C(=O)C1([H])N(C(=O)C([H])(N([H])C(=O)C([H])(N([H])C([H])([H])[H])C([H])([H])[H])C(C([H])([H])[H])(C([H])([H])[H])C([H])([H])[H])C([H])([H])c2c([H])c(OC([H])([H])C([H])([H])[N+]([H])([H])C([H])(C([H])([H])[H])C3([H])C([H])([H])C3([H])n3nc(N([H])C4([H])C([H])([H])N(C(=O)N5C([H])([H])C([H])([H])C([H])([H])C([H])(n6nc(-c7c([H])c([H])c(Oc8c([H])c([H])c(F)c([H])c8F)c([H])c7[H])c(C(=O)N([H])[H])c6N([H])[H])C5([H])[H])C([H])([H])C4([H])[H])c(C([H])([H])[H])n3)c([H])c([H])c2C1([H])[H]

>  <smiles>  (30) 
[H]c1c([H])c([H])c2c(c1[H])C([H])([H])C([H])([H])C([H])([H])C2([H])N([H])C(=O)C1([H])N(C(=O)C([H])(N([H])C(=O)C([H])(N([H])C([H])([H])[H])C([H])([H])[H])C(C([H])([H])[H])(C([H])([H])[H])C([H])([H])[H])C([H])([H])c2c([H])c(OC([H])([H])C([H])([H])[N+]([H])([H])C([H])(C([H])([H])[H])C3([H])C([H])([H])C3([H])n3nc(N([H])C4([H])C([H])([H])N(C(=O)N5C([H])([H])C([H])([H])C([H])([H])C([H])(n6nc(-c7c([H])c([H])c(Oc8c([H])c([H])c(F)c([H])c8F)c([H])c7[H])c(C(=O)N([H])[H])c6N([H])[H])C5([H])[H])C([H])([H])C4([H])[H])c(C([H])([H])[H])n3)c([H])c([H])c2C1([H])[H]

$$$$
30:0:0
     RDKit          3D

 95104  0  0  1  0  0  0  0  0999 V2000
  -30.1710  -23.5800   19.8070 C   0  0  0  0  0  3  0  0  0  0  0  0
  -29.9960  -24.9860   19.8900 C   0  0  0  0  0  3  0  0  0  0  0  0
  -29.0520  -22.7110   19.7450 C   0  0  0  0  0  0  0  0  0  0  0  0
  -27.7850  -23.3760   19.8340 C   0  0  0  0  0  0  0  0  0  0  0  0
  -28.7040  -25.5560   19.9220 C   0  0  0  0  0  0  0  0  0  0  0  0
  -27.6280  -24.7310   19.9540 N   0  0  0  0  0  0  0  0  0  0  0  0
  -25.9710  -22.1240   21.1090 C   0  0  0  0  0  1  0  0  0  0  0  0
  -26.4660  -22.6220   19.7440 C   0  0  0  0  0  2  0  0  0  0  0  0
  -29.5040  -21.2040   17.8090 C   0  0  0  0  0  1  0  0  0  0  0  0
  -29.2070  -21.1890   19.3260 C   0  0  0  0  0  3  0  0  0  0  0  0
  -30.1570  -20.2550   20.0750 N   0  0  0  0  0  4  0  0  0  0  0  0
  -31.0670  -20.3180   19.6490 H   0  0  0  0  0  0  0  0  0  0  0  0
  -30.2560  -20.6050   21.0150 H   0  0  0  0  0  0  0  0  0  0  0  0
  -30.9940  -15.1370   20.1050 C   0  0  0  0  0  0  0  0  0  0  0  0
  -30.7220  -12.8610   19.1290 C   0  0  0  0  0  2  0  0  0  0  0  0
  -29.7530  -12.8910   17.9280 C   0  0  0  0  0  2  0  0  0  0  0  0
  -28.3010  -12.6840   18.4010 C   0  0  0  0  0  2  0  0  0  0  0  0
  -27.9290  -13.6030   19.5860 C   0  0  0  0  0  3  0  0  0  0  0  0
  -29.0230  -13.6220   20.6840 C   0  0  0  0  0  2  0  0  0  0  0  0
  -30.3120  -13.9420   20.0490 N   0  0  0  0  0  0  0  0  0  0  0  0
  -32.2030  -15.1750   19.8660 O   0  0  0  0  0  0  0  0  0  0  0  0
  -29.2060  -18.1100   18.9670 C   0  0  0  0  0  2  0  0  0  0  0  0
  -29.1610  -16.6300   19.3500 C   0  0  0  0  0  2  0  0  0  0  0  0
  -30.8400  -17.6820   20.5980 C   0  0  0  0  0  2  0  0  0  0  0  0
  -29.7670  -18.7800   20.2060 C   0  0  0  0  0  3  0  0  0  0  0  0
  -30.2870  -16.3240   20.2410 N   0  0  0  0  0  0  0  0  0  0  0  0
  -25.5860  -14.2390   20.4110 C   0  0  0  0  0  0  0  0  0  0  0  0
  -24.5170  -13.4760   20.7890 C   0  0  0  0  0  0  0  0  0  0  0  0
  -24.9580  -12.1190   20.7080 C   0  0  0  0  0  0  0  0  0  0  0  0
  -26.6040  -13.3420   20.1210 N   0  0  0  0  0  0  0  0  0  0  0  0
  -26.2370  -12.0630   20.3660 N   0  0  0  0  0  0  0  0  0  0  0  0
  -24.2200  -10.8670   20.8750 C   0  0  0  0  0  0  0  0  0  0  0  0
  -24.6160   -9.9030   21.8270 C   0  0  0  0  0  3  0  0  0  0  0  0
  -23.8810   -8.7090   21.9810 C   0  0  0  0  0  3  0  0  0  0  0  0
  -22.7370   -8.4730   21.1820 C   0  0  0  0  0  0  0  0  0  0  0  0
  -22.3630   -9.4250   20.2170 C   0  0  0  0  0  3  0  0  0  0  0  0
  -23.1000  -10.6110   20.0610 C   0  0  0  0  0  3  0  0  0  0  0  0
  -21.9760   -7.3310   21.2450 O   0  0  0  0  0  0  0  0  0  0  0  0
  -21.8290   -6.6310   22.4150 C   0  0  0  0  0  0  0  0  0  0  0  0
  -21.2550   -7.2140   23.5650 C   0  0  0  0  0  3  0  0  0  0  0  0
  -21.0590   -6.4370   24.7240 C   0  0  0  0  0  3  0  0  0  0  0  0
  -21.4290   -5.0790   24.7320 C   0  0  0  0  0  0  0  0  0  0  0  0
  -21.9970   -4.4960   23.5870 C   0  0  0  0  0  3  0  0  0  0  0  0
  -22.1950   -5.2700   22.4300 C   0  0  0  0  0  0  0  0  0  0  0  0
  -22.7240   -4.6990   21.3210 F   0  0  0  0  0  0  0  0  0  0  0  0
  -21.2330   -4.3300   25.8430 F   0  0  0  0  0  0  0  0  0  0  0  0
  -23.1350  -13.9690   21.1040 C   0  0  0  0  0  0  0  0  0  0  0  0
  -22.4120  -13.2550   21.9600 N   0  0  0  0  0  0  0  0  0  0  0  0
  -22.7050  -15.0190   20.6290 O   0  0  0  0  0  0  0  0  0  0  0  0
  -22.7740  -12.4050   22.3650 H   0  0  0  0  0  0  0  0  0  0  0  0
  -21.4860  -13.5650   22.2130 H   0  0  0  0  0  0  0  0  0  0  0  0
  -25.7570  -15.6140   20.2680 N   0  0  0  0  0  0  0  0  0  0  0  0
  -24.9910  -16.2620   20.4080 H   0  0  0  0  0  0  0  0  0  0  0  0
  -26.5870  -16.0560   19.9000 H   0  0  0  0  0  0  0  0  0  0  0  0
  -28.5550  -26.9640   19.9020 O   0  0  0  0  0  0  0  0  0  0  0  0
  -24.6230  -31.9440   23.2940 C   0  0  0  0  0  0  0  0  0  0  0  0
  -27.3650  -27.7010   19.9410 C   0  0  0  0  0  0  0  0  0  0  0  0
  -23.4660  -30.6690   21.5190 C   0  0  0  0  0  3  0  0  0  0  0  0
  -24.9640  -29.2530   20.0040 C   0  0  0  0  0  0  0  0  0  0  0  0
  -25.9990  -31.0370   21.4120 C   0  0  0  0  0  2  0  0  0  0  0  0
  -26.1070  -29.7150   20.6690 C   0  0  0  0  0  0  0  0  0  0  0  0
  -27.3040  -28.9470   20.6340 C   0  0  0  0  0  3  0  0  0  0  0  0
  -26.2050  -27.2940   19.2420 C   0  0  0  0  0  3  0  0  0  0  0  0
  -25.0130  -28.0460   19.2850 C   0  0  0  0  0  3  0  0  0  0  0  0
  -23.7140  -30.1030   20.0940 C   0  0  0  0  0  2  0  0  0  0  0  0
  -24.7130  -31.2300   22.1340 N   0  0  0  0  0  0  0  0  0  0  0  0
  -23.5280  -32.1640   23.8300 O   0  0  0  0  0  0  0  0  0  0  0  0
  -22.8020  -29.5710   22.3820 C   0  0  0  0  0  0  0  0  0  0  0  0
  -21.4840  -29.3810   22.2050 N   0  0  0  0  0  0  0  0  0  0  0  0
  -23.4710  -28.8970   23.1690 O   0  0  0  0  0  0  0  0  0  0  0  0
  -21.0040  -29.9830   21.5500 H   0  0  0  0  0  0  0  0  0  0  0  0
  -18.1050  -28.1410   22.5670 C   0  0  0  0  0  0  0  0  0  0  0  0
  -20.6610  -28.3740   22.8770 C   0  0  0  0  0  3  0  0  0  0  0  0
  -20.7680  -27.0040   22.1680 C   0  0  0  0  0  2  0  0  0  0  0  0
  -19.6730  -26.7780   21.1210 C   0  0  0  0  0  2  0  0  0  0  0  0
  -18.2880  -26.8620   21.7670 C   0  0  0  0  0  2  0  0  0  0  0  0
  -19.2210  -28.8590   23.0740 C   0  0  0  0  0  0  0  0  0  0  0  0
  -18.9960  -30.0610   23.7800 C   0  0  0  0  0  3  0  0  0  0  0  0
  -17.6900  -30.5430   23.9850 C   0  0  0  0  0  3  0  0  0  0  0  0
  -16.5890  -29.8200   23.4930 C   0  0  0  0  0  3  0  0  0  0  0  0
  -16.7970  -28.6200   22.7910 C   0  0  0  0  0  3  0  0  0  0  0  0
  -25.8890  -32.5350   23.9900 C   0  0  0  0  0  3  0  0  0  0  0  0
  -26.3510  -31.7050   25.2500 C   0  0  1  0  0  0  0  0  0  0  0  0
  -25.2170  -31.4290   26.2640 C   0  0  0  0  0  1  0  0  0  0  0  0
  -26.9410  -30.3410   24.8220 C   0  0  0  0  0  1  0  0  0  0  0  0
  -27.4790  -32.4610   25.9910 C   0  0  0  0  0  1  0  0  0  0  0  0
  -25.5810  -33.9220   24.3690 N   0  0  0  0  0  0  0  0  0  0  0  0
  -25.8990  -34.9990   23.6400 C   0  0  0  0  0  0  0  0  0  0  0  0
  -26.5560  -34.9310   22.5960 O   0  0  0  0  0  0  0  0  0  0  0  0
  -24.9960  -34.0490   25.1810 H   0  0  0  0  0  0  0  0  0  0  0  0
  -24.1420  -36.7810   23.3910 C   0  0  0  0  0  1  0  0  0  0  0  0
  -25.4150  -36.3710   24.1470 C   0  0  0  0  0  3  0  0  0  0  0  0
  -27.5600  -37.2700   24.9350 C   0  0  0  0  0  1  0  0  0  0  0  0
  -26.4320  -37.4370   24.0240 N   0  0  0  0  0  0  0  0  0  0  0  0
  -26.0190  -38.3500   24.1930 H   0  0  0  0  0  0  0  0  0  0  0  0
  1  2  2  0
  2  5  1  0
  3  1  1  0
  3  4  2  0
  4  6  1  0
  5  6  2  0
  8  4  1  0
  8  7  1  0
 10  9  1  0
 10  3  1  0
 10 11  1  0
 11 13  1  0
 12 11  1  0
 14 26  1  0
 15 20  1  0
 16 17  1  0
 16 15  1  0
 18 17  1  0
 18 30  1  0
 18 19  1  0
 20 14  1  0
 20 19  1  0
 21 14  2  0
 22 23  1  0
 22 25  1  0
 23 26  1  0
 25 11  1  0
 25 24  1  0
 26 24  1  0
 27 28  2  0
 28 47  1  0
 29 28  1  0
 29 32  1  0
 30 31  1  0
 30 27  1  0
 31 29  2  0
 32 33  1  0
 33 34  2  0
 35 38  1  0
 35 34  1  0
 36 35  2  0
 37 36  1  0
 37 32  2  0
 38 39  1  0
 39 44  2  0
 39 40  1  0
 40 41  2  0
 41 42  1  0
 42 46  1  0
 43 42  2  0
 44 43  1  0
 45 44  1  0
 47 48  1  0
 48 51  1  0
 48 50  1  0
 49 47  2  0
 52 53  1  0
 52 27  1  0
 54 52  1  0
 55  5  1  0
 55 57  1  0
 56 67  2  0
 57 62  1  0
 58 66  1  0
 58 68  1  0
 59 65  1  0
 59 61  1  0
 60 66  1  0
 61 60  1  0
 62 61  2  0
 63 64  1  0
 63 57  2  0
 64 59  2  0
 65 58  1  0
 66 56  1  0
 68 70  2  0
 69 68  1  0
 71 69  1  0
 72 81  2  0
 72 77  1  0
 73 69  1  0
 73 77  1  0
 74 73  1  0
 75 76  1  0
 75 74  1  0
 76 72  1  0
 77 78  2  0
 78 79  1  0
 80 79  2  0
 81 80  1  0
 82 56  1  0
 82 87  1  0
 82 83  1  0
 83 86  1  1
 83 84  1  0
 85 83  1  0
 87 90  1  0
 88 92  1  0
 88 87  1  0
 89 88  2  0
 92 91  1  0
 94 92  1  0
 94 95  1  0
 94 93  1  0
M  ISO  4   5 101  14 100  26 100  55 101
M  END
>  <TORSDO>  (31) 
F 19

>  <SCORE>  (31) 
-12.414

>  <name>  (31) 
30

>  <ligand_id>  (31) 
30

>  <original_smiles>  (31) 
[H]c1c(Oc2c([H])c([H])c3c(c2[H])C([H])([H])N(C(=O)C([H])(N([H])C(=O)C([H])(N([H])C([H])([H])[H])C([H])([H])[H])C(C([H])([H])[H])(C([H])([H])[H])C([H])([H])[H])C([H])(C(=O)N([H])C2([H])c4c([H])c([H])c([H])c([H])c4C([H])([H])C([H])([H])C2([H])[H])C3([H])[H])nc(C([H])([H])C([H])([H])[H])c(C([H])(C([H])([H])[H])[N+]([H])([H])C2([H])C([H])([H])N(C(=O)N3C([H])([H])C([H])([H])C([H])([H])C([H])(n4nc(-c5c([H])c([H])c(Oc6c([H])c([H])c(F)c([H])c6F)c([H])c5[H])c(C(=O)N([H])[H])c4N([H])[H])C3([H])[H])C([H])([H])C2([H])[H])c1[H]

>  <smiles>  (31) 
[H]c1c(Oc2c([H])c([H])c3c(c2[H])C([H])([H])N(C(=O)C([H])(N([H])C(=O)C([H])(N([H])C([H])([H])[H])C([H])([H])[H])C(C([H])([H])[H])(C([H])([H])[H])C([H])([H])[H])C([H])(C(=O)N([H])C2([H])c4c([H])c([H])c([H])c([H])c4C([H])([H])C([H])([H])C2([H])[H])C3([H])[H])nc(C([H])([H])C([H])([H])[H])c(C([H])(C([H])([H])[H])[N+]([H])([H])C2([H])C([H])([H])N(C(=O)N3C([H])([H])C([H])([H])C([H])([H])C([H])(n4nc(-c5c([H])c([H])c(Oc6c([H])c([H])c(F)c([H])c6F)c([H])c5[H])c(C(=O)N([H])[H])c4N([H])[H])C3([H])[H])C([H])([H])C2([H])[H])c1[H]

$$$$
31:0:0
     RDKit          3D

 98108  0  0  1  0  0  0  0  0999 V2000
  -29.5140  -21.5460   19.3380 C   0  0  0  0  0  2  0  0  0  0  0  0
  -29.7070  -20.1050   18.9560 C   0  0  0  0  0  2  0  0  0  0  0  0
  -30.5110  -21.6890   20.4720 C   0  0  0  0  0  3  0  0  0  0  0  0
  -30.4090  -20.3350   21.2230 C   0  0  0  0  0  3  0  0  0  0  0  0
  -29.8250  -19.3860   20.2320 N   0  0  0  0  0  0  0  0  0  0  0  0
  -30.7820  -14.6380   20.8170 C   0  0  0  0  0  0  0  0  0  0  0  0
  -30.6080  -12.3840   19.8970 C   0  0  0  0  0  2  0  0  0  0  0  0
  -29.7610  -12.4740   18.6090 C   0  0  0  0  0  2  0  0  0  0  0  0
  -28.2510  -12.4000   18.9290 C   0  0  0  0  0  2  0  0  0  0  0  0
  -27.8030  -13.2940   20.1210 C   0  0  0  0  0  3  0  0  0  0  0  0
  -28.7880  -13.1940   21.3080 C   0  0  0  0  0  2  0  0  0  0  0  0
  -30.1440  -13.4420   20.7980 N   0  0  0  0  0  0  0  0  0  0  0  0
  -32.0060  -14.7670   20.7390 O   0  0  0  0  0  0  0  0  0  0  0  0
  -29.6250  -17.3800   18.8030 C   0  0  0  0  0  2  0  0  0  0  0  0
  -29.8860  -15.9080   18.9980 C   0  0  0  0  0  2  0  0  0  0  0  0
  -30.0900  -16.9870   21.1000 C   0  0  0  0  0  2  0  0  0  0  0  0
  -30.3360  -18.0270   19.9880 C   0  0  0  0  0  3  0  0  0  0  0  0
  -29.9930  -15.6710   20.4480 N   0  0  0  0  0  0  0  0  0  0  0  0
  -25.3620  -13.9010   20.6420 C   0  0  0  0  0  0  0  0  0  0  0  0
  -24.2750  -13.1280   20.9420 C   0  0  0  0  0  0  0  0  0  0  0  0
  -24.7490  -11.7810   20.9780 C   0  0  0  0  0  0  0  0  0  0  0  0
  -26.4280  -13.0220   20.5150 N   0  0  0  0  0  0  0  0  0  0  0  0
  -26.0590  -11.7450   20.7760 N   0  0  0  0  0  0  0  0  0  0  0  0
  -24.0240  -10.5170   21.1360 C   0  0  0  0  0  0  0  0  0  0  0  0
  -24.4100   -9.5620   22.1010 C   0  0  0  0  0  3  0  0  0  0  0  0
  -23.6850   -8.3590   22.2480 C   0  0  0  0  0  3  0  0  0  0  0  0
  -22.5620   -8.1050   21.4270 C   0  0  0  0  0  0  0  0  0  0  0  0
  -22.1970   -9.0490   20.4510 C   0  0  0  0  0  3  0  0  0  0  0  0
  -22.9230  -10.2420   20.3020 C   0  0  0  0  0  3  0  0  0  0  0  0
  -21.8120   -6.9560   21.4830 O   0  0  0  0  0  0  0  0  0  0  0  0
  -21.7150   -6.2150   22.6340 C   0  0  0  0  0  0  0  0  0  0  0  0
  -21.2160   -6.7640   23.8340 C   0  0  0  0  0  3  0  0  0  0  0  0
  -21.0670   -5.9490   24.9750 C   0  0  0  0  0  3  0  0  0  0  0  0
  -21.4070   -4.5850   24.9150 C   0  0  0  0  0  0  0  0  0  0  0  0
  -21.9000   -4.0340   23.7180 C   0  0  0  0  0  3  0  0  0  0  0  0
  -22.0510   -4.8460   22.5810 C   0  0  0  0  0  0  0  0  0  0  0  0
  -22.5060   -4.3060   21.4250 F   0  0  0  0  0  0  0  0  0  0  0  0
  -21.2600   -3.7980   26.0070 F   0  0  0  0  0  0  0  0  0  0  0  0
  -22.8570  -13.5950   21.0960 C   0  0  0  0  0  0  0  0  0  0  0  0
  -22.0720  -12.9070   21.9180 N   0  0  0  0  0  0  0  0  0  0  0  0
  -22.4490  -14.6050   20.5240 O   0  0  0  0  0  0  0  0  0  0  0  0
  -22.4130  -12.0880   22.3980 H   0  0  0  0  0  0  0  0  0  0  0  0
  -21.1180  -13.2030   22.0670 H   0  0  0  0  0  0  0  0  0  0  0  0
  -25.5300  -15.2710   20.4470 N   0  0  0  0  0  0  0  0  0  0  0  0
  -24.7610  -15.9300   20.4870 H   0  0  0  0  0  0  0  0  0  0  0  0
  -26.4130  -15.7060   20.2120 H   0  0  0  0  0  0  0  0  0  0  0  0
  -31.4170  -19.3840   23.4130 C   0  0  0  0  0  1  0  0  0  0  0  0
  -32.8870  -19.3650   21.2930 C   0  0  0  0  0  1  0  0  0  0  0  0
  -31.7050  -20.0150   22.0380 C   0  0  0  0  0  3  0  0  0  0  0  0
  -30.2290  -22.8840   21.2990 N   0  0  0  0  0  4  0  0  0  0  0  0
  -30.9350  -22.9420   22.0160 H   0  0  0  0  0  0  0  0  0  0  0  0
  -29.3360  -22.7890   21.7550 H   0  0  0  0  0  0  0  0  0  0  0  0
  -30.2520  -24.1360   20.5110 C   0  0  0  0  0  2  0  0  0  0  0  0
  -29.3030  -26.0470   22.0750 C   0  0  0  0  0  2  0  0  0  0  0  0
  -30.7100  -26.6890   20.6100 C   0  0  0  0  0  2  0  0  0  0  0  0
  -30.4900  -25.3720   21.3650 C   0  0  0  0  0  3  0  0  0  0  0  0
  -29.3100  -27.1460   21.0100 C   0  0  0  0  0  3  0  0  0  0  0  0
  -28.3310  -26.8920   19.9900 O   0  0  0  0  0  0  0  0  0  0  0  0
  -24.5090  -31.9540   23.1980 C   0  0  0  0  0  0  0  0  0  0  0  0
  -27.1560  -27.6130   20.0520 C   0  0  0  0  0  0  0  0  0  0  0  0
  -23.2690  -30.5470   21.5750 C   0  0  0  0  0  3  0  0  0  0  0  0
  -24.7060  -29.0300   20.1100 C   0  0  0  0  0  0  0  0  0  0  0  0
  -25.7700  -30.9620   21.3000 C   0  0  0  0  0  2  0  0  0  0  0  0
  -25.8570  -29.5940   20.6630 C   0  0  0  0  0  0  0  0  0  0  0  0
  -27.0760  -28.9020   20.6250 C   0  0  0  0  0  3  0  0  0  0  0  0
  -25.9890  -27.0540   19.4860 C   0  0  0  0  0  3  0  0  0  0  0  0
  -24.7630  -27.7540   19.5150 C   0  0  0  0  0  3  0  0  0  0  0  0
  -23.4460  -29.8620   20.1900 C   0  0  0  0  0  2  0  0  0  0  0  0
  -24.5350  -31.1680   22.0840 N   0  0  0  0  0  0  0  0  0  0  0  0
  -23.4430  -32.2130   23.7700 O   0  0  0  0  0  0  0  0  0  0  0  0
  -22.6570  -29.5180   22.5500 C   0  0  0  0  0  0  0  0  0  0  0  0
  -21.3330  -29.3190   22.4450 N   0  0  0  0  0  0  0  0  0  0  0  0
  -23.3660  -28.9030   23.3500 O   0  0  0  0  0  0  0  0  0  0  0  0
  -20.8240  -29.8700   21.7690 H   0  0  0  0  0  0  0  0  0  0  0  0
  -17.9890  -28.0660   22.9730 C   0  0  0  0  0  0  0  0  0  0  0  0
  -20.5430  -28.3690   23.2260 C   0  0  0  0  0  3  0  0  0  0  0  0
  -20.6680  -26.9380   22.6540 C   0  0  0  0  0  2  0  0  0  0  0  0
  -19.5650  -26.5920   21.6500 C   0  0  0  0  0  2  0  0  0  0  0  0
  -18.1850  -26.7160   22.3020 C   0  0  0  0  0  2  0  0  0  0  0  0
  -19.0970  -28.8480   23.3920 C   0  0  0  0  0  0  0  0  0  0  0  0
  -18.8610  -30.1120   23.9760 C   0  0  0  0  0  3  0  0  0  0  0  0
  -17.5500  -30.5930   24.1460 C   0  0  0  0  0  3  0  0  0  0  0  0
  -16.4560  -29.8060   23.7460 C   0  0  0  0  0  3  0  0  0  0  0  0
  -16.6760  -28.5450   23.1640 C   0  0  0  0  0  3  0  0  0  0  0  0
  -25.8100  -32.5880   23.7890 C   0  0  0  0  0  3  0  0  0  0  0  0
  -26.3660  -31.8120   25.0460 C   0  0  1  0  0  0  0  0  0  0  0  0
  -25.3000  -31.5470   26.1340 C   0  0  0  0  0  1  0  0  0  0  0  0
  -26.9620  -30.4490   24.6230 C   0  0  0  0  0  1  0  0  0  0  0  0
  -27.5200  -32.6170   25.6920 C   0  0  0  0  0  1  0  0  0  0  0  0
  -25.5050  -33.9840   24.1300 N   0  0  0  0  0  0  0  0  0  0  0  0
  -25.8460  -35.0400   23.3780 C   0  0  0  0  0  0  0  0  0  0  0  0
  -26.5210  -34.9400   22.3490 O   0  0  0  0  0  0  0  0  0  0  0  0
  -24.9080  -34.1340   24.9300 H   0  0  0  0  0  0  0  0  0  0  0  0
  -24.1440  -36.8510   23.0030 C   0  0  0  0  0  1  0  0  0  0  0  0
  -25.3600  -36.4250   23.8410 C   0  0  0  0  0  3  0  0  0  0  0  0
  -27.4800  -37.2760   24.7380 C   0  0  0  0  0  1  0  0  0  0  0  0
  -26.4050  -37.4700   23.7690 N   0  0  0  0  0  0  0  0  0  0  0  0
  -26.0040  -38.3920   23.9210 H   0  0  0  0  0  0  0  0  0  0  0  0
  1  3  1  0
  2  1  1  0
  3  4  1  0
  3 50  1  0
  4 49  1  0
  5  2  1  0
  5  4  1  0
  7 12  1  0
  8  9  1  0
  8  7  1  0
 10  9  1  0
 10 22  1  0
 10 11  1  0
 12  6  1  0
 12 11  1  0
 13  6  2  0
 14 15  1  0
 15 18  1  0
 17 14  1  0
 17  5  1  0
 17 16  1  0
 18  6  1  0
 18 16  1  0
 19 20  2  0
 20 21  1  0
 20 39  1  0
 21 24  1  0
 22 19  1  0
 22 23  1  0
 23 21  2  0
 24 25  1  0
 25 26  2  0
 27 30  1  0
 27 26  1  0
 28 27  2  0
 29 28  1  0
 29 24  2  0
 30 31  1  0
 31 32  1  0
 32 33  2  0
 34 33  1  0
 34 38  1  0
 35 34  2  0
 36 31  2  0
 36 35  1  0
 37 36  1  0
 39 40  1  0
 40 43  1  0
 40 42  1  0
 41 39  2  0
 44 45  1  0
 44 19  1  0
 46 44  1  0
 48 49  1  0
 49 47  1  0
 50 52  1  0
 50 51  1  0
 53 50  1  0
 55 57  1  0
 55 56  1  0
 56 53  1  0
 56 54  1  0
 57 58  1  0
 57 54  1  0
 58 60  1  0
 59 70  2  0
 60 65  1  0
 61 69  1  0
 61 71  1  0
 62 68  1  0
 62 64  1  0
 63 69  1  0
 64 63  1  0
 65 64  2  0
 66 67  1  0
 66 60  2  0
 67 62  2  0
 68 61  1  0
 69 59  1  0
 71 73  2  0
 72 71  1  0
 74 72  1  0
 75 84  2  0
 75 80  1  0
 76 72  1  0
 76 80  1  0
 77 76  1  0
 78 79  1  0
 78 77  1  0
 79 75  1  0
 80 81  2  0
 81 82  1  0
 83 82  2  0
 84 83  1  0
 85 59  1  0
 85 90  1  0
 85 86  1  0
 86 89  1  1
 86 87  1  0
 88 86  1  0
 90 93  1  0
 91 95  1  0
 91 90  1  0
 92 91  2  0
 95 94  1  0
 97 95  1  0
 97 98  1  0
 97 96  1  0
M  ISO  4   6 100  18 100  57 101  58 101
M  END
>  <TORSDO>  (32) 
F 20

>  <SCORE>  (32) 
-14.096

>  <name>  (32) 
31

>  <ligand_id>  (32) 
31

>  <original_smiles>  (32) 
[H]c1c([H])c([H])c2c(c1[H])C([H])([H])C([H])([H])C([H])([H])C2([H])N([H])C(=O)C1([H])N(C(=O)C([H])(N([H])C(=O)C([H])(N([H])C([H])([H])[H])C([H])([H])[H])C(C([H])([H])[H])(C([H])([H])[H])C([H])([H])[H])C([H])([H])c2c([H])c(OC3([H])C([H])([H])C([H])(C([H])([H])[N+]([H])([H])C4([H])C([H])([H])C([H])([H])N(C5([H])C([H])([H])N(C(=O)N6C([H])([H])C([H])([H])C([H])([H])C([H])(n7nc(-c8c([H])c([H])c(Oc9c([H])c([H])c(F)c([H])c9F)c([H])c8[H])c(C(=O)N([H])[H])c7N([H])[H])C6([H])[H])C([H])([H])C5([H])[H])C4([H])C([H])(C([H])([H])[H])C([H])([H])[H])C3([H])[H])c([H])c([H])c2C1([H])[H]

>  <smiles>  (32) 
[H]c1c([H])c([H])c2c(c1[H])C([H])([H])C([H])([H])C([H])([H])C2([H])N([H])C(=O)C1([H])N(C(=O)C([H])(N([H])C(=O)C([H])(N([H])C([H])([H])[H])C([H])([H])[H])C(C([H])([H])[H])(C([H])([H])[H])C([H])([H])[H])C([H])([H])c2c([H])c(OC3([H])C([H])([H])C([H])(C([H])([H])[N+]([H])([H])C4([H])C([H])([H])C([H])([H])N(C5([H])C([H])([H])N(C(=O)N6C([H])([H])C([H])([H])C([H])([H])C([H])(n7nc(-c8c([H])c([H])c(Oc9c([H])c([H])c(F)c([H])c9F)c([H])c8[H])c(C(=O)N([H])[H])c7N([H])[H])C6([H])[H])C([H])([H])C5([H])[H])C4([H])C([H])(C([H])([H])[H])C([H])([H])[H])C3([H])[H])c([H])c([H])c2C1([H])[H]

$$$$
32:0:0
     RDKit          3D

 98107  0  0  1  0  0  0  0  0999 V2000
  -28.1230  -21.1210   20.4330 C   0  0  0  0  0  2  0  0  0  0  0  0
  -30.6360  -14.6180   19.8070 C   0  0  0  0  0  0  0  0  0  0  0  0
  -30.2730  -12.4750   18.6500 C   0  0  0  0  0  2  0  0  0  0  0  0
  -29.2070  -12.7130   17.5590 C   0  0  0  0  0  2  0  0  0  0  0  0
  -27.7850  -12.5440   18.1330 C   0  0  0  0  0  2  0  0  0  0  0  0
  -27.5730  -13.3330   19.4530 C   0  0  0  0  0  3  0  0  0  0  0  0
  -28.7410  -13.0920   20.4360 C   0  0  0  0  0  2  0  0  0  0  0  0
  -29.9930  -13.4240   19.7370 N   0  0  0  0  0  0  0  0  0  0  0  0
  -31.7580  -14.8060   19.3230 O   0  0  0  0  0  0  0  0  0  0  0  0
  -30.4310  -20.2330   20.3880 C   0  0  0  0  0  2  0  0  0  0  0  0
  -29.6800  -16.7940   19.1980 C   0  0  0  0  0  2  0  0  0  0  0  0
  -30.1060  -16.5800   21.2500 C   0  0  0  0  0  2  0  0  0  0  0  0
  -28.7280  -18.7520   20.6540 C   0  0  0  0  0  2  0  0  0  0  0  0
  -31.0400  -18.8490   20.1010 C   0  0  0  0  0  3  0  0  0  0  0  0
  -29.9080  -17.8120   20.3280 C   0  0  2  0  0  0  0  0  0  0  0  0
  -29.8400  -15.6680   20.1290 N   0  0  0  0  0  0  0  0  0  0  0  0
  -29.0350  -20.0400   20.0210 N   0  0  0  0  0  0  0  0  0  0  0  0
  -25.2650  -13.8920   20.4380 C   0  0  0  0  0  0  0  0  0  0  0  0
  -24.2430  -13.0960   20.8830 C   0  0  0  0  0  0  0  0  0  0  0  0
  -24.7040  -11.7500   20.7490 C   0  0  0  0  0  0  0  0  0  0  0  0
  -26.2810  -13.0270   20.0610 N   0  0  0  0  0  0  0  0  0  0  0  0
  -25.9530  -11.7330   20.3050 N   0  0  0  0  0  0  0  0  0  0  0  0
  -24.0080  -10.4750   20.9620 C   0  0  0  0  0  0  0  0  0  0  0  0
  -24.4850   -9.5210   21.8880 C   0  0  0  0  0  3  0  0  0  0  0  0
  -23.7900   -8.3090   22.0920 C   0  0  0  0  0  3  0  0  0  0  0  0
  -22.6040   -8.0430   21.3670 C   0  0  0  0  0  0  0  0  0  0  0  0
  -22.1450   -8.9850   20.4310 C   0  0  0  0  0  3  0  0  0  0  0  0
  -22.8410  -10.1880   20.2270 C   0  0  0  0  0  3  0  0  0  0  0  0
  -21.8770   -6.8820   21.4790 O   0  0  0  0  0  0  0  0  0  0  0  0
  -21.8080   -6.1850   22.6590 C   0  0  0  0  0  0  0  0  0  0  0  0
  -21.3180   -6.7750   23.8440 C   0  0  0  0  0  3  0  0  0  0  0  0
  -21.2030   -6.0020   25.0180 C   0  0  0  0  0  3  0  0  0  0  0  0
  -21.5670   -4.6430   25.0060 C   0  0  0  0  0  0  0  0  0  0  0  0
  -22.0480   -4.0530   23.8240 C   0  0  0  0  0  3  0  0  0  0  0  0
  -22.1670   -4.8220   22.6530 C   0  0  0  0  0  0  0  0  0  0  0  0
  -22.6130   -4.2440   21.5110 F   0  0  0  0  0  0  0  0  0  0  0  0
  -21.4470   -3.8990   26.1300 F   0  0  0  0  0  0  0  0  0  0  0  0
  -22.8800  -13.5480   21.3200 C   0  0  0  0  0  0  0  0  0  0  0  0
  -22.2660  -12.8260   22.2500 N   0  0  0  0  0  0  0  0  0  0  0  0
  -22.3730  -14.5760   20.8710 O   0  0  0  0  0  0  0  0  0  0  0  0
  -22.6890  -11.9930   22.6300 H   0  0  0  0  0  0  0  0  0  0  0  0
  -21.3570  -13.1110   22.5880 H   0  0  0  0  0  0  0  0  0  0  0  0
  -25.4110  -15.2700   20.3070 N   0  0  0  0  0  0  0  0  0  0  0  0
  -24.6760  -15.9260   20.5470 H   0  0  0  0  0  0  0  0  0  0  0  0
  -26.2530  -15.7180   19.9680 H   0  0  0  0  0  0  0  0  0  0  0  0
  -32.3450  -18.6150   20.8870 C   0  0  0  0  0  0  0  0  0  0  0  0
  -34.7410  -17.9990   20.7390 C   0  0  0  0  0  1  0  0  0  0  0  0
  -33.4180  -18.2480   20.1800 N   0  0  0  0  0  0  0  0  0  0  0  0
  -32.3840  -18.7610   22.1110 O   0  0  0  0  0  0  0  0  0  0  0  0
  -33.3050  -18.1130   19.1830 H   0  0  0  0  0  0  0  0  0  0  0  0
  -28.4310  -22.0370   18.0180 C   0  0  0  0  0  1  0  0  0  0  0  0
  -28.0440  -22.3590   19.4730 C   0  0  0  0  0  3  0  0  0  0  0  0
  -28.7590  -23.5760   19.9560 N   0  0  0  0  0  4  0  0  0  0  0  0
  -29.6470  -23.3150   20.3510 H   0  0  0  0  0  0  0  0  0  0  0  0
  -28.9520  -24.1430   19.1430 H   0  0  0  0  0  0  0  0  0  0  0  0
  -27.9850  -24.4400   20.8970 C   0  0  0  0  0  2  0  0  0  0  0  0
  -28.5920  -25.8550   21.1210 C   0  0  0  0  0  2  0  0  0  0  0  0
  -28.3950  -26.7650   20.0250 O   0  0  0  0  0  0  0  0  0  0  0  0
  -24.5750  -31.9130   23.1770 C   0  0  0  0  0  0  0  0  0  0  0  0
  -27.2330  -27.5030   20.0730 C   0  0  0  0  0  0  0  0  0  0  0  0
  -23.3660  -30.5030   21.5440 C   0  0  0  0  0  3  0  0  0  0  0  0
  -24.8230  -28.9790   20.1060 C   0  0  0  0  0  0  0  0  0  0  0  0
  -25.8880  -30.8900   21.3200 C   0  0  0  0  0  2  0  0  0  0  0  0
  -25.9830  -29.5200   20.6810 C   0  0  0  0  0  0  0  0  0  0  0  0
  -27.1940  -28.7890   20.6590 C   0  0  0  0  0  3  0  0  0  0  0  0
  -26.0600  -26.9770   19.4930 C   0  0  0  0  0  3  0  0  0  0  0  0
  -24.8580  -27.7050   19.5140 C   0  0  0  0  0  3  0  0  0  0  0  0
  -23.5700  -29.8250   20.1620 C   0  0  0  0  0  2  0  0  0  0  0  0
  -24.6280  -31.1190   22.0710 N   0  0  0  0  0  0  0  0  0  0  0  0
  -23.4980  -32.1700   23.7320 O   0  0  0  0  0  0  0  0  0  0  0  0
  -22.7360  -29.4710   22.5080 C   0  0  0  0  0  0  0  0  0  0  0  0
  -21.4100  -29.2800   22.3970 N   0  0  0  0  0  0  0  0  0  0  0  0
  -23.4330  -28.8450   23.3110 O   0  0  0  0  0  0  0  0  0  0  0  0
  -20.9090  -29.8330   21.7180 H   0  0  0  0  0  0  0  0  0  0  0  0
  -18.0490  -28.0820   22.9500 C   0  0  0  0  0  0  0  0  0  0  0  0
  -20.6120  -28.3330   23.1730 C   0  0  0  0  0  3  0  0  0  0  0  0
  -20.7000  -26.9100   22.5750 C   0  0  0  0  0  2  0  0  0  0  0  0
  -19.5770  -26.6020   21.5800 C   0  0  0  0  0  2  0  0  0  0  0  0
  -18.2090  -26.7410   22.2550 C   0  0  0  0  0  2  0  0  0  0  0  0
  -19.1770  -28.8370   23.3670 C   0  0  0  0  0  0  0  0  0  0  0  0
  -18.9730  -30.0950   23.9760 C   0  0  0  0  0  3  0  0  0  0  0  0
  -17.6730  -30.5950   24.1760 C   0  0  0  0  0  3  0  0  0  0  0  0
  -16.5580  -29.8360   23.7790 C   0  0  0  0  0  3  0  0  0  0  0  0
  -16.7480  -28.5820   23.1700 C   0  0  0  0  0  3  0  0  0  0  0  0
  -25.8620  -32.5540   23.7880 C   0  0  0  0  0  3  0  0  0  0  0  0
  -25.5420  -33.9460   24.1290 N   0  0  0  0  0  0  0  0  0  0  0  0
  -25.8720  -35.0080   23.3800 C   0  0  0  0  0  0  0  0  0  0  0  0
  -26.5490  -34.9190   22.3520 O   0  0  0  0  0  0  0  0  0  0  0  0
  -24.9440  -34.0920   24.9280 H   0  0  0  0  0  0  0  0  0  0  0  0
  -24.1450  -36.8000   23.0120 C   0  0  0  0  0  1  0  0  0  0  0  0
  -25.3690  -36.3880   23.8460 C   0  0  0  0  0  3  0  0  0  0  0  0
  -27.4820  -37.2660   24.7380 C   0  0  0  0  0  1  0  0  0  0  0  0
  -26.4010  -37.4450   23.7720 N   0  0  0  0  0  0  0  0  0  0  0  0
  -25.9880  -38.3610   23.9240 H   0  0  0  0  0  0  0  0  0  0  0  0
  -26.4050  -31.7800   25.0510 C   0  0  1  0  0  0  0  0  0  0  0  0
  -25.3280  -31.5170   26.1290 C   0  0  0  0  0  1  0  0  0  0  0  0
  -27.0050  -30.4150   24.6390 C   0  0  0  0  0  1  0  0  0  0  0  0
  -27.5510  -32.5870   25.7070 C   0  0  0  0  0  1  0  0  0  0  0  0
  2 16  1  0
  3  8  1  0
  4  5  1  0
  4  3  1  0
  6  5  1  0
  6 21  1  0
  6  7  1  0
  8  2  1  0
  8  7  1  0
  9  2  2  0
 11 16  1  0
 14 15  1  0
 14 10  1  0
 14 46  1  0
 15 11  1  6
 15 13  1  0
 15 12  1  0
 16 12  1  0
 17 10  1  0
 17  1  1  0
 17 13  1  0
 18 19  2  0
 19 38  1  0
 20 19  1  0
 20 23  1  0
 21 22  1  0
 21 18  1  0
 22 20  2  0
 23 24  1  0
 24 25  2  0
 26 29  1  0
 26 25  1  0
 27 26  2  0
 28 27  1  0
 28 23  2  0
 29 30  1  0
 30 31  1  0
 31 32  2  0
 33 32  1  0
 33 37  1  0
 34 33  2  0
 35 30  2  0
 35 34  1  0
 36 35  1  0
 38 39  1  0
 39 42  1  0
 39 41  1  0
 40 38  2  0
 43 18  1  0
 43 44  1  0
 45 43  1  0
 46 49  2  0
 48 47  1  0
 48 46  1  0
 50 48  1  0
 52 51  1  0
 52 53  1  0
 52  1  1  0
 53 54  1  0
 53 56  1  0
 55 53  1  0
 56 57  1  0
 58 60  1  0
 58 57  1  0
 59 70  2  0
 60 65  1  0
 61 69  1  0
 61 71  1  0
 62 68  1  0
 62 64  1  0
 63 69  1  0
 64 63  1  0
 65 64  2  0
 66 67  1  0
 66 60  2  0
 67 62  2  0
 68 61  1  0
 69 59  1  0
 71 73  2  0
 72 71  1  0
 74 72  1  0
 75 84  2  0
 75 80  1  0
 76 72  1  0
 76 80  1  0
 77 76  1  0
 78 79  1  0
 78 77  1  0
 79 75  1  0
 80 81  2  0
 81 82  1  0
 83 82  2  0
 84 83  1  0
 85 59  1  0
 85 86  1  0
 85 95  1  0
 86 89  1  0
 87 91  1  0
 87 86  1  0
 88 87  2  0
 91 90  1  0
 93 91  1  0
 93 94  1  0
 93 92  1  0
 95 98  1  1
 95 96  1  0
 97 95  1  0
M  ISO  4   2 100  16 100  57 101  58 101
M  END
>  <TORSDO>  (33) 
F 21

>  <SCORE>  (33) 
-12.470

>  <name>  (33) 
32

>  <ligand_id>  (33) 
32

>  <original_smiles>  (33) 
[H]c1c([H])c([H])c2c(c1[H])C([H])([H])C([H])([H])C([H])([H])C2([H])N([H])C(=O)C1([H])N(C(=O)C([H])(N([H])C(=O)C([H])(N([H])C([H])([H])[H])C([H])([H])[H])C(C([H])([H])[H])(C([H])([H])[H])C([H])([H])[H])C([H])([H])c2c([H])c(OC([H])([H])C([H])([H])[N+]([H])([H])C([H])(C([H])([H])[H])C([H])([H])N3C([H])([H])C([H])(C(=O)N([H])C([H])([H])[H])C4(C([H])([H])N(C(=O)N5C([H])([H])C([H])([H])C([H])([H])C([H])(n6nc(-c7c([H])c([H])c(Oc8c([H])c([H])c(F)c([H])c8F)c([H])c7[H])c(C(=O)N([H])[H])c6N([H])[H])C5([H])[H])C4([H])[H])C3([H])[H])c([H])c([H])c2C1([H])[H]

>  <smiles>  (33) 
[H]c1c([H])c([H])c2c(c1[H])C([H])([H])C([H])([H])C([H])([H])C2([H])N([H])C(=O)C1([H])N(C(=O)C([H])(N([H])C(=O)C([H])(N([H])C([H])([H])[H])C([H])([H])[H])C(C([H])([H])[H])(C([H])([H])[H])C([H])([H])[H])C([H])([H])c2c([H])c(OC([H])([H])C([H])([H])[N+]([H])([H])C([H])(C([H])([H])[H])C([H])([H])N3C([H])([H])C([H])(C(=O)N([H])C([H])([H])[H])C4(C([H])([H])N(C(=O)N5C([H])([H])C([H])([H])C([H])([H])C([H])(n6nc(-c7c([H])c([H])c(Oc8c([H])c([H])c(F)c([H])c8F)c([H])c7[H])c(C(=O)N([H])[H])c6N([H])[H])C5([H])[H])C4([H])[H])C3([H])[H])c([H])c([H])c2C1([H])[H]

$$$$
33:0:0
     RDKit          3D

 93102  0  0  1  0  0  0  0  0999 V2000
  -31.2860  -23.1190   20.0140 C   0  0  0  0  0  2  0  0  0  0  0  0
  -30.0970  -19.5660   19.2460 C   0  0  0  0  0  3  0  0  0  0  0  0
  -30.2640  -20.9580   19.1210 C   0  0  0  0  0  3  0  0  0  0  0  0
  -30.6860  -18.9320   20.3580 C   0  0  0  0  0  0  0  0  0  0  0  0
  -30.9990  -21.6240   20.1240 C   0  0  0  0  0  0  0  0  0  0  0  0
  -31.3850  -19.6290   21.2910 N   0  0  0  0  0  0  0  0  0  0  0  0
  -31.5220  -20.9600   21.1870 N   0  0  0  0  0  0  0  0  0  0  0  0
  -30.6880  -14.4430   20.4840 C   0  0  0  0  0  0  0  0  0  0  0  0
  -30.3470  -12.2950   19.3400 C   0  0  0  0  0  2  0  0  0  0  0  0
  -29.4060  -12.5260   18.1400 C   0  0  0  0  0  2  0  0  0  0  0  0
  -27.9310  -12.4100   18.5740 C   0  0  0  0  0  2  0  0  0  0  0  0
  -27.6070  -13.2410   19.8470 C   0  0  0  0  0  3  0  0  0  0  0  0
  -28.6680  -13.0100   20.9470 C   0  0  0  0  0  2  0  0  0  0  0  0
  -29.9910  -13.2830   20.3670 N   0  0  0  0  0  0  0  0  0  0  0  0
  -31.8360  -14.5860   20.0550 O   0  0  0  0  0  0  0  0  0  0  0  0
  -30.5090  -16.6020   21.7310 C   0  0  0  0  0  2  0  0  0  0  0  0
  -29.5850  -16.5470   19.9090 C   0  0  0  0  0  2  0  0  0  0  0  0
  -30.7190  -17.4130   20.4530 C   0  0  0  0  0  3  0  0  0  0  0  0
  -29.9660  -15.5110   20.8910 N   0  0  0  0  0  0  0  0  0  0  0  0
  -25.2110  -13.8510   20.5660 C   0  0  0  0  0  0  0  0  0  0  0  0
  -24.1440  -13.0800   20.9400 C   0  0  0  0  0  0  0  0  0  0  0  0
  -24.6040  -11.7280   20.9100 C   0  0  0  0  0  0  0  0  0  0  0  0
  -26.2560  -12.9690   20.3340 N   0  0  0  0  0  0  0  0  0  0  0  0
  -25.8930  -11.6870   20.5970 N   0  0  0  0  0  0  0  0  0  0  0  0
  -23.8780  -10.4660   21.1040 C   0  0  0  0  0  0  0  0  0  0  0  0
  -24.3280   -9.4880   22.0180 C   0  0  0  0  0  3  0  0  0  0  0  0
  -23.6020   -8.2910   22.2020 C   0  0  0  0  0  3  0  0  0  0  0  0
  -22.4100   -8.0660   21.4710 C   0  0  0  0  0  0  0  0  0  0  0  0
  -21.9780   -9.0340   20.5470 C   0  0  0  0  0  3  0  0  0  0  0  0
  -22.7050  -10.2210   20.3610 C   0  0  0  0  0  3  0  0  0  0  0  0
  -21.6540   -6.9230   21.5650 O   0  0  0  0  0  0  0  0  0  0  0  0
  -21.6450   -6.1560   22.7030 C   0  0  0  0  0  0  0  0  0  0  0  0
  -21.2820   -6.6920   23.9580 C   0  0  0  0  0  3  0  0  0  0  0  0
  -21.2180   -5.8530   25.0880 C   0  0  0  0  0  3  0  0  0  0  0  0
  -21.5070   -4.4810   24.9650 C   0  0  0  0  0  0  0  0  0  0  0  0
  -21.8630   -3.9450   23.7150 C   0  0  0  0  0  3  0  0  0  0  0  0
  -21.9290   -4.7810   22.5870 C   0  0  0  0  0  0  0  0  0  0  0  0
  -22.2520   -4.2550   21.3810 F   0  0  0  0  0  0  0  0  0  0  0  0
  -21.4390   -3.6740   26.0500 F   0  0  0  0  0  0  0  0  0  0  0  0
  -22.7480  -13.5590   21.2180 C   0  0  0  0  0  0  0  0  0  0  0  0
  -22.0220  -12.8690   22.0900 N   0  0  0  0  0  0  0  0  0  0  0  0
  -22.3090  -14.5830   20.6970 O   0  0  0  0  0  0  0  0  0  0  0  0
  -22.3900  -12.0450   22.5390 H   0  0  0  0  0  0  0  0  0  0  0  0
  -21.0860  -13.1760   22.3170 H   0  0  0  0  0  0  0  0  0  0  0  0
  -25.3750  -15.2210   20.3880 N   0  0  0  0  0  0  0  0  0  0  0  0
  -24.6120  -15.8780   20.5110 H   0  0  0  0  0  0  0  0  0  0  0  0
  -26.2360  -15.6620   20.0870 H   0  0  0  0  0  0  0  0  0  0  0  0
  -30.0400  -23.9110   20.0920 N   0  0  0  0  0  4  0  0  0  0  0  0
  -29.8650  -24.1290   21.0610 H   0  0  0  0  0  0  0  0  0  0  0  0
  -29.2980  -23.3050   19.7850 H   0  0  0  0  0  0  0  0  0  0  0  0
  -30.0280  -25.1460   19.2650 C   0  0  0  0  0  2  0  0  0  0  0  0
  -28.6200  -25.7580   19.1440 C   0  0  0  0  0  2  0  0  0  0  0  0
  -28.4330  -26.7790   20.1240 O   0  0  0  0  0  0  0  0  0  0  0  0
  -24.6050  -31.8880   23.2410 C   0  0  0  0  0  0  0  0  0  0  0  0
  -27.2340  -27.4630   20.1240 C   0  0  0  0  0  0  0  0  0  0  0  0
  -23.3840  -30.4870   21.6090 C   0  0  0  0  0  3  0  0  0  0  0  0
  -24.8270  -28.9510   20.1730 C   0  0  0  0  0  0  0  0  0  0  0  0
  -25.9070  -30.8460   21.3930 C   0  0  0  0  0  2  0  0  0  0  0  0
  -25.9860  -29.4750   20.7550 C   0  0  0  0  0  0  0  0  0  0  0  0
  -27.1860  -28.7320   20.7410 C   0  0  0  0  0  3  0  0  0  0  0  0
  -26.0480  -26.9460   19.5450 C   0  0  0  0  0  3  0  0  0  0  0  0
  -24.8500  -27.6820   19.5720 C   0  0  0  0  0  3  0  0  0  0  0  0
  -23.5830  -29.8060   20.2280 C   0  0  0  0  0  2  0  0  0  0  0  0
  -24.6510  -31.0880   22.1390 N   0  0  0  0  0  0  0  0  0  0  0  0
  -23.5280  -32.1600   23.7910 O   0  0  0  0  0  0  0  0  0  0  0  0
  -22.7430  -29.4640   22.5730 C   0  0  0  0  0  0  0  0  0  0  0  0
  -21.4180  -29.2780   22.4530 N   0  0  0  0  0  0  0  0  0  0  0  0
  -23.4340  -28.8400   23.3840 O   0  0  0  0  0  0  0  0  0  0  0  0
  -20.9230  -29.8330   21.7700 H   0  0  0  0  0  0  0  0  0  0  0  0
  -18.0510  -28.0740   22.9610 C   0  0  0  0  0  0  0  0  0  0  0  0
  -20.6080  -28.3400   23.2300 C   0  0  0  0  0  3  0  0  0  0  0  0
  -20.7160  -26.9070   22.6590 C   0  0  0  0  0  2  0  0  0  0  0  0
  -19.6150  -26.5780   21.6460 C   0  0  0  0  0  2  0  0  0  0  0  0
  -18.2320  -26.7220   22.2910 C   0  0  0  0  0  2  0  0  0  0  0  0
  -19.1680  -28.8410   23.3870 C   0  0  0  0  0  0  0  0  0  0  0  0
  -18.9460  -30.1060   23.9730 C   0  0  0  0  0  3  0  0  0  0  0  0
  -17.6410  -30.6050   24.1360 C   0  0  0  0  0  3  0  0  0  0  0  0
  -16.5390  -29.8350   23.7280 C   0  0  0  0  0  3  0  0  0  0  0  0
  -16.7450  -28.5720   23.1450 C   0  0  0  0  0  3  0  0  0  0  0  0
  -25.8960  -32.5170   23.8500 C   0  0  0  0  0  3  0  0  0  0  0  0
  -26.4300  -31.7400   25.1160 C   0  0  1  0  0  0  0  0  0  0  0  0
  -25.3510  -31.4970   26.1950 C   0  0  0  0  0  1  0  0  0  0  0  0
  -27.0090  -30.3650   24.7090 C   0  0  0  0  0  1  0  0  0  0  0  0
  -27.5900  -32.5310   25.7670 C   0  0  0  0  0  1  0  0  0  0  0  0
  -25.5910  -33.9130   24.1880 N   0  0  0  0  0  0  0  0  0  0  0  0
  -25.9190  -34.9670   23.4280 C   0  0  0  0  0  0  0  0  0  0  0  0
  -26.5810  -34.8650   22.3910 O   0  0  0  0  0  0  0  0  0  0  0  0
  -25.0020  -34.0650   24.9930 H   0  0  0  0  0  0  0  0  0  0  0  0
  -24.1860  -36.7560   23.0880 C   0  0  0  0  0  1  0  0  0  0  0  0
  -25.4330  -36.3530   23.8910 C   0  0  0  0  0  3  0  0  0  0  0  0
  -27.5750  -37.2350   24.7050 C   0  0  0  0  0  1  0  0  0  0  0  0
  -26.4640  -37.4070   23.7730 N   0  0  0  0  0  0  0  0  0  0  0  0
  -26.0590  -38.3270   23.9270 H   0  0  0  0  0  0  0  0  0  0  0  0
  1 48  1  0
  1  5  1  0
  2  4  1  0
  3  2  2  0
  3  5  1  0
  4  6  2  0
  5  7  2  0
  7  6  1  0
  8 19  1  0
  9 14  1  0
 10 11  1  0
 10  9  1  0
 12 11  1  0
 12 23  1  0
 12 13  1  0
 14  8  1  0
 14 13  1  0
 15  8  2  0
 17 18  1  0
 17 19  1  0
 18  4  1  0
 18 16  1  0
 19 16  1  0
 20 21  2  0
 21 40  1  0
 22 21  1  0
 22 25  1  0
 23 20  1  0
 23 24  1  0
 24 22  2  0
 25 26  1  0
 26 27  2  0
 28 31  1  0
 28 27  1  0
 29 28  2  0
 30 29  1  0
 30 25  2  0
 31 32  1  0
 32 33  1  0
 33 34  2  0
 35 34  1  0
 35 39  1  0
 36 35  2  0
 37 32  2  0
 37 36  1  0
 38 37  1  0
 40 41  1  0
 41 44  1  0
 41 43  1  0
 42 40  2  0
 45 46  1  0
 45 20  1  0
 47 45  1  0
 48 49  1  0
 50 48  1  0
 51 48  1  0
 52 51  1  0
 52 53  1  0
 54 65  2  0
 55 53  1  0
 55 60  1  0
 56 64  1  0
 56 66  1  0
 57 63  1  0
 57 59  1  0
 58 64  1  0
 59 58  1  0
 60 59  2  0
 61 62  1  0
 61 55  2  0
 62 57  2  0
 63 56  1  0
 64 54  1  0
 66 68  2  0
 67 66  1  0
 69 67  1  0
 70 79  2  0
 70 75  1  0
 71 67  1  0
 71 75  1  0
 72 71  1  0
 73 74  1  0
 73 72  1  0
 74 70  1  0
 75 76  2  0
 76 77  1  0
 78 77  2  0
 79 78  1  0
 80 54  1  0
 80 85  1  0
 80 81  1  0
 81 84  1  1
 81 82  1  0
 83 81  1  0
 85 88  1  0
 86 90  1  0
 86 85  1  0
 87 86  2  0
 90 89  1  0
 92 90  1  0
 92 93  1  0
 92 91  1  0
M  ISO  4   8 100  19 100  52 101  53 101
M  END
>  <TORSDO>  (34) 
F 20

>  <SCORE>  (34) 
-14.002

>  <name>  (34) 
33

>  <ligand_id>  (34) 
33

>  <original_smiles>  (34) 
[H]c1c(C2([H])C([H])([H])N(C(=O)N3C([H])([H])C([H])([H])C([H])([H])C([H])(n4nc(-c5c([H])c([H])c(Oc6c([H])c([H])c(F)c([H])c6F)c([H])c5[H])c(C(=O)N([H])[H])c4N([H])[H])C3([H])[H])C2([H])[H])nnc(C([H])([H])[N+]([H])([H])C([H])([H])C([H])([H])Oc2c([H])c([H])c3c(c2[H])C([H])([H])N(C(=O)C([H])(N([H])C(=O)C([H])(N([H])C([H])([H])[H])C([H])([H])[H])C(C([H])([H])[H])(C([H])([H])[H])C([H])([H])[H])C([H])(C(=O)N([H])C2([H])c4c([H])c([H])c([H])c([H])c4C([H])([H])C([H])([H])C2([H])[H])C3([H])[H])c1[H]

>  <smiles>  (34) 
[H]c1c(C2([H])C([H])([H])N(C(=O)N3C([H])([H])C([H])([H])C([H])([H])C([H])(n4nc(-c5c([H])c([H])c(Oc6c([H])c([H])c(F)c([H])c6F)c([H])c5[H])c(C(=O)N([H])[H])c4N([H])[H])C3([H])[H])C2([H])[H])nnc(C([H])([H])[N+]([H])([H])C([H])([H])C([H])([H])Oc2c([H])c([H])c3c(c2[H])C([H])([H])N(C(=O)C([H])(N([H])C(=O)C([H])(N([H])C([H])([H])[H])C([H])([H])[H])C(C([H])([H])[H])(C([H])([H])[H])C([H])([H])[H])C([H])(C(=O)N([H])C2([H])c4c([H])c([H])c([H])c([H])c4C([H])([H])C([H])([H])C2([H])[H])C3([H])[H])c1[H]

$$$$
34:0:0
     RDKit          3D

 91101  0  0  1  0  0  0  0  0999 V2000
  -28.4090  -21.2700   20.2830 C   0  0  0  0  0  0  0  0  0  0  0  0
  -28.3190  -21.0800   18.9300 N   0  0  0  0  0  0  0  0  0  0  0  0
  -28.7070  -20.1390   20.9440 N   0  0  0  0  0  2  0  0  0  0  0  0
  -28.5540  -19.8150   18.7140 N   0  0  0  0  0  2  0  0  0  0  0  0
  -28.7990  -19.2270   19.9300 N   0  0  0  0  0  0  0  0  0  0  0  0
  -26.8280  -23.0980   21.3490 C   0  0  0  0  0  2  0  0  0  0  0  0
  -28.2150  -22.6200   20.9890 C   0  0  0  0  0  3  0  0  0  0  0  0
  -27.6740  -23.9590   20.3970 C   0  0  0  0  0  3  0  0  0  0  0  0
  -28.3550  -25.2990   20.8470 C   0  0  0  0  0  2  0  0  0  0  0  0
  -28.3840  -26.5540   20.0990 O   0  0  0  0  0  0  0  0  0  0  0  0
  -24.6450  -31.8720   23.2300 C   0  0  0  0  0  0  0  0  0  0  0  0
  -27.2630  -27.3630   20.1570 C   0  0  0  0  0  0  0  0  0  0  0  0
  -23.4490  -30.4630   21.6000 C   0  0  0  0  0  3  0  0  0  0  0  0
  -24.8970  -28.9130   20.1810 C   0  0  0  0  0  0  0  0  0  0  0  0
  -25.9820  -30.8110   21.3900 C   0  0  0  0  0  2  0  0  0  0  0  0
  -26.0660  -29.4310   20.7520 C   0  0  0  0  0  0  0  0  0  0  0  0
  -27.2650  -28.6720   20.7210 C   0  0  0  0  0  3  0  0  0  0  0  0
  -26.0760  -26.8730   19.5900 C   0  0  0  0  0  3  0  0  0  0  0  0
  -24.8980  -27.6360   19.5930 C   0  0  0  0  0  3  0  0  0  0  0  0
  -23.6550  -29.7760   20.2260 C   0  0  0  0  0  2  0  0  0  0  0  0
  -24.7150  -31.0680   22.1280 N   0  0  0  0  0  0  0  0  0  0  0  0
  -23.5620  -32.1360   23.7690 O   0  0  0  0  0  0  0  0  0  0  0  0
  -22.8020  -29.4420   22.5630 C   0  0  0  0  0  0  0  0  0  0  0  0
  -21.4800  -29.2560   22.4370 N   0  0  0  0  0  0  0  0  0  0  0  0
  -23.4890  -28.8060   23.3680 O   0  0  0  0  0  0  0  0  0  0  0  0
  -20.9870  -29.8250   21.7620 H   0  0  0  0  0  0  0  0  0  0  0  0
  -18.1060  -28.0650   22.9470 C   0  0  0  0  0  0  0  0  0  0  0  0
  -20.6650  -28.3110   23.2010 C   0  0  0  0  0  3  0  0  0  0  0  0
  -20.7570  -26.8850   22.6070 C   0  0  0  0  0  2  0  0  0  0  0  0
  -19.6450  -26.5780   21.5970 C   0  0  0  0  0  2  0  0  0  0  0  0
  -18.2700  -26.7230   22.2560 C   0  0  0  0  0  2  0  0  0  0  0  0
  -19.2310  -28.8190   23.3760 C   0  0  0  0  0  0  0  0  0  0  0  0
  -19.0220  -30.0800   23.9740 C   0  0  0  0  0  3  0  0  0  0  0  0
  -17.7200  -30.5830   24.1590 C   0  0  0  0  0  3  0  0  0  0  0  0
  -16.6090  -29.8260   23.7460 C   0  0  0  0  0  3  0  0  0  0  0  0
  -16.8050  -28.5710   23.1420 C   0  0  0  0  0  3  0  0  0  0  0  0
  -25.9210  -32.5150   23.8570 C   0  0  0  0  0  3  0  0  0  0  0  0
  -26.4400  -31.7390   25.1300 C   0  0  1  0  0  0  0  0  0  0  0  0
  -25.3500  -31.4830   26.2000 C   0  0  0  0  0  1  0  0  0  0  0  0
  -27.0340  -30.3730   24.7220 C   0  0  0  0  0  1  0  0  0  0  0  0
  -27.5840  -32.5410   25.7930 C   0  0  0  0  0  1  0  0  0  0  0  0
  -25.5930  -33.9070   24.1990 N   0  0  0  0  0  0  0  0  0  0  0  0
  -25.9130  -34.9710   23.4490 C   0  0  0  0  0  0  0  0  0  0  0  0
  -26.5840  -34.8780   22.4180 O   0  0  0  0  0  0  0  0  0  0  0  0
  -24.9790  -34.0440   24.9900 H   0  0  0  0  0  0  0  0  0  0  0  0
  -24.1620  -36.7500   23.1200 C   0  0  0  0  0  1  0  0  0  0  0  0
  -25.4150  -36.3540   23.9160 C   0  0  0  0  0  3  0  0  0  0  0  0
  -27.5500  -37.2640   24.7250 C   0  0  0  0  0  1  0  0  0  0  0  0
  -26.4380  -37.4160   23.7880 N   0  0  0  0  0  0  0  0  0  0  0  0
  -26.0300  -38.3360   23.9220 H   0  0  0  0  0  0  0  0  0  0  0  0
  -28.3460  -17.2980   21.4490 C   0  0  0  0  0  2  0  0  0  0  0  0
  -28.8440  -17.7210   20.0800 C   0  0  0  0  0  3  0  0  0  0  0  0
  -29.7510  -16.8690   21.0330 C   0  0  0  0  0  3  0  0  0  0  0  0
  -30.5590  -14.5270   20.1930 C   0  0  0  0  0  0  0  0  0  0  0  0
  -30.2880  -12.4070   18.8950 C   0  0  0  0  0  2  0  0  0  0  0  0
  -29.2650  -12.6410   17.7610 C   0  0  0  0  0  2  0  0  0  0  0  0
  -27.8150  -12.4810   18.2710 C   0  0  0  0  0  2  0  0  0  0  0  0
  -27.5630  -13.2700   19.5830 C   0  0  0  0  0  3  0  0  0  0  0  0
  -28.6630  -12.9220   20.6000 C   0  0  0  0  0  2  0  0  0  0  0  0
  -29.9600  -13.3130   20.0120 N   0  0  0  0  0  0  0  0  0  0  0  0
  -31.6170  -14.8390   19.6260 O   0  0  0  0  0  0  0  0  0  0  0  0
  -29.7960  -15.4070   20.9110 N   0  0  0  0  0  0  0  0  0  0  0  0
  -29.0090  -14.9470   21.3550 H   0  0  0  0  0  0  0  0  0  0  0  0
  -25.2130  -13.8810   20.4280 C   0  0  0  0  0  0  0  0  0  0  0  0
  -24.1670  -13.1100   20.8700 C   0  0  0  0  0  0  0  0  0  0  0  0
  -24.6130  -11.7590   20.7860 C   0  0  0  0  0  0  0  0  0  0  0  0
  -26.2320  -13.0000   20.1240 N   0  0  0  0  0  0  0  0  0  0  0  0
  -25.8780  -11.7140   20.3840 N   0  0  0  0  0  0  0  0  0  0  0  0
  -23.8890  -10.4940   21.0020 C   0  0  0  0  0  0  0  0  0  0  0  0
  -24.3560   -9.5140   21.8990 C   0  0  0  0  0  3  0  0  0  0  0  0
  -23.6360   -8.3120   22.0860 C   0  0  0  0  0  3  0  0  0  0  0  0
  -22.4320   -8.0900   21.3790 C   0  0  0  0  0  0  0  0  0  0  0  0
  -21.9810   -9.0650   20.4690 C   0  0  0  0  0  3  0  0  0  0  0  0
  -22.7010  -10.2530   20.2820 C   0  0  0  0  0  3  0  0  0  0  0  0
  -21.6690   -6.9530   21.4800 O   0  0  0  0  0  0  0  0  0  0  0  0
  -21.6430   -6.2170   22.6350 C   0  0  0  0  0  0  0  0  0  0  0  0
  -21.2700   -6.7780   23.8740 C   0  0  0  0  0  3  0  0  0  0  0  0
  -21.2010   -5.9660   25.0230 C   0  0  0  0  0  3  0  0  0  0  0  0
  -21.4870   -4.5890   24.9290 C   0  0  0  0  0  0  0  0  0  0  0  0
  -21.8510   -4.0260   23.6930 C   0  0  0  0  0  3  0  0  0  0  0  0
  -21.9340   -4.8390   22.5510 C   0  0  0  0  0  0  0  0  0  0  0  0
  -22.2710   -4.2920   21.3610 F   0  0  0  0  0  0  0  0  0  0  0  0
  -21.4030   -3.8080   26.0300 F   0  0  0  0  0  0  0  0  0  0  0  0
  -22.8020  -13.5970   21.2570 C   0  0  0  0  0  0  0  0  0  0  0  0
  -22.1500  -12.9190   22.1920 N   0  0  0  0  0  0  0  0  0  0  0  0
  -22.3270  -14.6200   20.7700 O   0  0  0  0  0  0  0  0  0  0  0  0
  -22.5550  -12.1050   22.6320 H   0  0  0  0  0  0  0  0  0  0  0  0
  -21.2490  -13.2500   22.5070 H   0  0  0  0  0  0  0  0  0  0  0  0
  -25.3720  -15.2490   20.2220 N   0  0  0  0  0  0  0  0  0  0  0  0
  -24.5380  -15.8210   20.1430 H   0  0  0  0  0  0  0  0  0  0  0  0
  -26.0910  -15.5450   19.5720 H   0  0  0  0  0  0  0  0  0  0  0  0
  1  3  1  0
  2  1  2  0
  4  2  1  0
  5  4  1  0
  5 52  1  0
  5  3  1  0
  7  1  1  0
  7  6  1  0
  8  9  1  0
  8  7  1  0
  8  6  1  0
 10 12  1  0
 10  9  1  0
 11 22  2  0
 12 17  1  0
 13 21  1  0
 13 23  1  0
 14 20  1  0
 14 16  1  0
 15 21  1  0
 16 15  1  0
 17 16  2  0
 18 19  1  0
 18 12  2  0
 19 14  2  0
 20 13  1  0
 21 11  1  0
 23 25  2  0
 24 23  1  0
 26 24  1  0
 27 36  2  0
 27 32  1  0
 28 24  1  0
 28 32  1  0
 29 28  1  0
 30 31  1  0
 30 29  1  0
 31 27  1  0
 32 33  2  0
 33 34  1  0
 35 34  2  0
 36 35  1  0
 37 11  1  0
 37 42  1  0
 37 38  1  0
 38 41  1  1
 38 39  1  0
 40 38  1  0
 42 45  1  0
 43 47  1  0
 43 42  1  0
 44 43  2  0
 47 46  1  0
 49 47  1  0
 49 50  1  0
 49 48  1  0
 52 53  1  0
 52 51  1  0
 53 62  1  0
 53 51  1  0
 54 62  1  0
 55 60  1  0
 56 57  1  0
 56 55  1  0
 58 57  1  0
 58 67  1  0
 58 59  1  0
 60 54  1  0
 60 59  1  0
 61 54  2  0
 62 63  1  0
 64 65  2  0
 65 84  1  0
 66 65  1  0
 66 69  1  0
 67 68  1  0
 67 64  1  0
 68 66  2  0
 69 70  1  0
 70 71  2  0
 72 75  1  0
 72 71  1  0
 73 72  2  0
 74 73  1  0
 74 69  2  0
 75 76  1  0
 76 77  1  0
 77 78  2  0
 79 78  1  0
 79 83  1  0
 80 79  2  0
 81 76  2  0
 81 80  1  0
 82 81  1  0
 84 85  1  0
 85 88  1  0
 85 87  1  0
 86 84  2  0
 89 64  1  0
 90 89  1  0
 91 89  1  0
M  ISO  4   9 101  10 101  54 100  62 100
M  END
>  <TORSDO>  (35) 
F 19

>  <SCORE>  (35) 
-13.183

>  <name>  (35) 
34

>  <ligand_id>  (35) 
34

>  <original_smiles>  (35) 
[H]c1c([H])c([H])c2c(c1[H])C([H])([H])C([H])([H])C([H])([H])C2([H])N([H])C(=O)C1([H])N(C(=O)C([H])(N([H])C(=O)C([H])(N([H])C([H])([H])[H])C([H])([H])[H])C(C([H])([H])[H])(C([H])([H])[H])C([H])([H])[H])C([H])([H])c2c([H])c(OC([H])([H])C3([H])C([H])([H])C3([H])c3nnn(C4([H])C([H])([H])C4([H])N([H])C(=O)N4C([H])([H])C([H])([H])C([H])([H])C([H])(n5nc(-c6c([H])c([H])c(Oc7c([H])c([H])c(F)c([H])c7F)c([H])c6[H])c(C(=O)N([H])[H])c5N([H])[H])C4([H])[H])n3)c([H])c([H])c2C1([H])[H]

>  <smiles>  (35) 
[H]c1c([H])c([H])c2c(c1[H])C([H])([H])C([H])([H])C([H])([H])C2([H])N([H])C(=O)C1([H])N(C(=O)C([H])(N([H])C(=O)C([H])(N([H])C([H])([H])[H])C([H])([H])[H])C(C([H])([H])[H])(C([H])([H])[H])C([H])([H])[H])C([H])([H])c2c([H])c(OC([H])([H])C3([H])C([H])([H])C3([H])c3nnn(C4([H])C([H])([H])C4([H])N([H])C(=O)N4C([H])([H])C([H])([H])C([H])([H])C([H])(n5nc(-c6c([H])c([H])c(Oc7c([H])c([H])c(F)c([H])c7F)c([H])c6[H])c(C(=O)N([H])[H])c5N([H])[H])C4([H])[H])n3)c([H])c([H])c2C1([H])[H]

$$$$
35:0:0
     RDKit          3D

 94104  0  0  1  0  0  0  0  0999 V2000
  -27.9560  -19.8960   20.0180 C   0  0  0  0  0  3  0  0  0  0  0  0
  -29.2910  -20.0350   20.1650 C   0  0  0  0  0  0  0  0  0  0  0  0
  -29.8080  -21.4660   20.1470 C   0  0  0  0  0  0  0  0  0  0  0  0
  -27.5050  -22.1820   20.1100 C   0  0  0  0  0  0  0  0  0  0  0  0
  -27.0670  -20.9670   19.9910 N   0  0  0  0  0  0  0  0  0  0  0  0
  -28.8860  -22.5290   20.0940 N   0  0  0  0  0  0  0  0  0  0  0  0
  -31.0200  -21.7030   20.1910 O   0  0  0  0  0  0  0  0  0  0  0  0
  -30.9650  -14.9940   20.0420 C   0  0  0  0  0  0  0  0  0  0  0  0
  -30.6990  -12.7160   19.0360 C   0  0  0  0  0  2  0  0  0  0  0  0
  -29.7270  -12.7840   17.8390 C   0  0  0  0  0  2  0  0  0  0  0  0
  -28.2710  -12.6240   18.3160 C   0  0  0  0  0  2  0  0  0  0  0  0
  -27.9410  -13.5260   19.5350 C   0  0  0  0  0  3  0  0  0  0  0  0
  -29.0300  -13.4410   20.6260 C   0  0  0  0  0  2  0  0  0  0  0  0
  -30.3120  -13.7790   19.9950 N   0  0  0  0  0  0  0  0  0  0  0  0
  -32.1030  -15.0890   19.5680 O   0  0  0  0  0  0  0  0  0  0  0  0
  -29.8820  -18.1100   21.8280 C   0  0  0  0  0  2  0  0  0  0  0  0
  -30.3460  -16.6330   21.7820 C   0  0  0  0  0  2  0  0  0  0  0  0
  -30.0920  -17.4080   19.5750 C   0  0  0  0  0  2  0  0  0  0  0  0
  -30.1830  -18.7360   20.4610 C   0  0  0  0  0  3  0  0  0  0  0  0
  -30.2570  -16.1410   20.4000 N   0  0  0  0  0  0  0  0  0  0  0  0
  -25.6020  -14.1430   20.3860 C   0  0  0  0  0  0  0  0  0  0  0  0
  -24.5320  -13.3800   20.7690 C   0  0  0  0  0  0  0  0  0  0  0  0
  -24.9580  -12.0200   20.6630 C   0  0  0  0  0  0  0  0  0  0  0  0
  -26.6110  -13.2490   20.0690 N   0  0  0  0  0  0  0  0  0  0  0  0
  -26.2330  -11.9650   20.2990 N   0  0  0  0  0  0  0  0  0  0  0  0
  -24.2070  -10.7700   20.8320 C   0  0  0  0  0  0  0  0  0  0  0  0
  -24.6100   -9.7860   21.7610 C   0  0  0  0  0  3  0  0  0  0  0  0
  -23.8600   -8.6000   21.9200 C   0  0  0  0  0  3  0  0  0  0  0  0
  -22.6920   -8.3900   21.1480 C   0  0  0  0  0  0  0  0  0  0  0  0
  -22.3070   -9.3630   20.2090 C   0  0  0  0  0  3  0  0  0  0  0  0
  -23.0570  -10.5400   20.0480 C   0  0  0  0  0  3  0  0  0  0  0  0
  -21.9160   -7.2580   21.2150 O   0  0  0  0  0  0  0  0  0  0  0  0
  -21.7910   -6.5400   22.3780 C   0  0  0  0  0  0  0  0  0  0  0  0
  -21.2740   -7.1160   23.5590 C   0  0  0  0  0  3  0  0  0  0  0  0
  -21.0960   -6.3240   24.7100 C   0  0  0  0  0  3  0  0  0  0  0  0
  -21.4250   -4.9550   24.6820 C   0  0  0  0  0  0  0  0  0  0  0  0
  -21.9350   -4.3780   23.5050 C   0  0  0  0  0  3  0  0  0  0  0  0
  -22.1130   -5.1680   22.3560 C   0  0  0  0  0  0  0  0  0  0  0  0
  -22.5850   -4.6010   21.2180 F   0  0  0  0  0  0  0  0  0  0  0  0
  -21.2480   -4.1910   25.7850 F   0  0  0  0  0  0  0  0  0  0  0  0
  -23.1600  -13.8800   21.1170 C   0  0  0  0  0  0  0  0  0  0  0  0
  -22.4550  -13.1770   21.9970 N   0  0  0  0  0  0  0  0  0  0  0  0
  -22.7240  -14.9290   20.6470 O   0  0  0  0  0  0  0  0  0  0  0  0
  -22.8200  -12.3300   22.4050 H   0  0  0  0  0  0  0  0  0  0  0  0
  -21.5360  -13.4970   22.2690 H   0  0  0  0  0  0  0  0  0  0  0  0
  -25.7970  -15.5150   20.2590 N   0  0  0  0  0  0  0  0  0  0  0  0
  -25.0550  -16.1850   20.4320 H   0  0  0  0  0  0  0  0  0  0  0  0
  -26.6540  -15.9460   19.9350 H   0  0  0  0  0  0  0  0  0  0  0  0
  -25.4300  -23.1200   21.4540 C   0  0  0  0  0  2  0  0  0  0  0  0
  -26.4710  -24.1990   21.5800 C   0  0  0  0  0  2  0  0  0  0  0  0
  -26.4750  -23.2820   20.3670 C   0  0  0  0  0  3  0  0  0  0  0  0
  -29.2940  -24.0250   20.2060 C   0  0  0  0  0  2  0  0  0  0  0  0
  -28.6630  -25.2000   19.2740 C   0  0  0  0  0  2  0  0  0  0  0  0
  -28.6200  -26.6390   19.7320 O   0  0  0  0  0  0  0  0  0  0  0  0
  -24.6110  -31.7320   23.0000 C   0  0  0  0  0  0  0  0  0  0  0  0
  -27.4530  -27.4440   19.7000 C   0  0  0  0  0  0  0  0  0  0  0  0
  -23.4810  -30.3590   21.2910 C   0  0  0  0  0  3  0  0  0  0  0  0
  -25.0080  -28.9680   19.7800 C   0  0  0  0  0  0  0  0  0  0  0  0
  -26.0060  -30.8080   21.1290 C   0  0  0  0  0  2  0  0  0  0  0  0
  -26.1540  -29.4700   20.4070 C   0  0  0  0  0  0  0  0  0  0  0  0
  -27.3740  -28.7200   20.3610 C   0  0  0  0  0  3  0  0  0  0  0  0
  -26.2740  -27.0220   19.0370 C   0  0  0  0  0  3  0  0  0  0  0  0
  -25.0740  -27.7530   19.0860 C   0  0  0  0  0  3  0  0  0  0  0  0
  -23.7280  -29.7740   19.8760 C   0  0  0  0  0  2  0  0  0  0  0  0
  -24.7180  -30.9840   21.8630 N   0  0  0  0  0  0  0  0  0  0  0  0
  -23.5150  -31.9230   23.5470 O   0  0  0  0  0  0  0  0  0  0  0  0
  -22.8770  -29.2570   22.1960 C   0  0  0  0  0  0  0  0  0  0  0  0
  -21.5540  -29.0450   22.0960 N   0  0  0  0  0  0  0  0  0  0  0  0
  -23.5990  -28.5990   22.9510 O   0  0  0  0  0  0  0  0  0  0  0  0
  -21.0270  -29.6360   21.4680 H   0  0  0  0  0  0  0  0  0  0  0  0
  -18.2290  -27.7210   22.6230 C   0  0  0  0  0  0  0  0  0  0  0  0
  -20.7870  -28.0310   22.8230 C   0  0  0  0  0  3  0  0  0  0  0  0
  -20.9060  -26.6490   22.1410 C   0  0  0  0  0  2  0  0  0  0  0  0
  -19.7760  -26.3690   21.1450 C   0  0  0  0  0  2  0  0  0  0  0  0
  -18.4150  -26.4280   21.8440 C   0  0  0  0  0  2  0  0  0  0  0  0
  -19.3430  -28.4810   23.0690 C   0  0  0  0  0  0  0  0  0  0  0  0
  -19.1130  -29.6900   23.7600 C   0  0  0  0  0  3  0  0  0  0  0  0
  -17.8020  -30.1390   24.0090 C   0  0  0  0  0  3  0  0  0  0  0  0
  -16.7040  -29.3760   23.5770 C   0  0  0  0  0  3  0  0  0  0  0  0
  -16.9180  -28.1690   22.8890 C   0  0  0  0  0  3  0  0  0  0  0  0
  -25.8580  -32.4020   23.6540 C   0  0  0  0  0  3  0  0  0  0  0  0
  -26.4030  -31.6100   24.9060 C   0  0  1  0  0  0  0  0  0  0  0  0
  -25.3210  -31.2960   25.9630 C   0  0  0  0  0  1  0  0  0  0  0  0
  -27.0390  -30.2690   24.4740 C   0  0  0  0  0  1  0  0  0  0  0  0
  -27.5220  -32.4280   25.5950 C   0  0  0  0  0  1  0  0  0  0  0  0
  -25.4780  -33.7710   24.0350 N   0  0  0  0  0  0  0  0  0  0  0  0
  -25.7750  -34.8690   23.3290 C   0  0  0  0  0  0  0  0  0  0  0  0
  -26.4680  -34.8400   22.3070 O   0  0  0  0  0  0  0  0  0  0  0  0
  -24.8640  -33.8640   24.8300 H   0  0  0  0  0  0  0  0  0  0  0  0
  -23.9750  -36.6000   23.0180 C   0  0  0  0  0  1  0  0  0  0  0  0
  -25.2180  -36.2140   23.8350 C   0  0  0  0  0  3  0  0  0  0  0  0
  -27.2900  -37.1620   24.7530 C   0  0  0  0  0  1  0  0  0  0  0  0
  -26.2040  -37.3170   23.7880 N   0  0  0  0  0  0  0  0  0  0  0  0
  -25.7530  -38.2100   23.9580 H   0  0  0  0  0  0  0  0  0  0  0  0
  1  2  2  0
  3  2  1  0
  3  7  2  0
  4 51  1  0
  5  1  1  0
  5  4  2  0
  6  4  1  0
  6  3  1  0
  6 52  1  0
  8 20  1  0
  9 14  1  0
 10 11  1  0
 10  9  1  0
 12 11  1  0
 12 24  1  0
 12 13  1  0
 14  8  1  0
 14 13  1  0
 15  8  2  0
 17 16  1  0
 18 20  1  0
 18 19  1  0
 19  2  1  0
 19 16  1  0
 20 17  1  0
 21 22  2  0
 22 41  1  0
 23 22  1  0
 23 26  1  0
 24 25  1  0
 24 21  1  0
 25 23  2  0
 26 27  1  0
 27 28  2  0
 29 32  1  0
 29 28  1  0
 30 29  2  0
 31 30  1  0
 31 26  2  0
 32 33  1  0
 33 34  1  0
 34 35  2  0
 36 35  1  0
 36 40  1  0
 37 36  2  0
 38 33  2  0
 38 37  1  0
 39 38  1  0
 41 42  1  0
 42 45  1  0
 42 44  1  0
 43 41  2  0
 46 21  1  0
 46 47  1  0
 48 46  1  0
 49 50  1  0
 51 49  1  0
 51 50  1  0
 53 54  1  0
 53 52  1  0
 55 66  2  0
 56 54  1  0
 56 61  1  0
 57 65  1  0
 57 67  1  0
 58 64  1  0
 58 60  1  0
 59 65  1  0
 60 59  1  0
 61 60  2  0
 62 63  1  0
 62 56  2  0
 63 58  2  0
 64 57  1  0
 65 55  1  0
 67 69  2  0
 68 67  1  0
 70 68  1  0
 71 80  2  0
 71 76  1  0
 72 68  1  0
 72 76  1  0
 73 72  1  0
 74 75  1  0
 74 73  1  0
 75 71  1  0
 76 77  2  0
 77 78  1  0
 79 78  2  0
 80 79  1  0
 81 55  1  0
 81 86  1  0
 81 82  1  0
 82 85  1  1
 82 83  1  0
 84 82  1  0
 86 89  1  0
 87 91  1  0
 87 86  1  0
 88 87  2  0
 91 90  1  0
 93 91  1  0
 93 94  1  0
 93 92  1  0
M  ISO  4   8 100  20 100  53 101  54 101
M  END
>  <TORSDO>  (36) 
F 19

>  <SCORE>  (36) 
-12.956

>  <name>  (36) 
35

>  <ligand_id>  (36) 
35

>  <original_smiles>  (36) 
[H]c1nc(C2([H])C([H])([H])C2([H])[H])n(C([H])([H])C([H])([H])Oc2c([H])c([H])c3c(c2[H])C([H])([H])N(C(=O)C([H])(N([H])C(=O)C([H])(N([H])C([H])([H])[H])C([H])([H])[H])C(C([H])([H])[H])(C([H])([H])[H])C([H])([H])[H])C([H])(C(=O)N([H])C2([H])c4c([H])c([H])c([H])c([H])c4C([H])([H])C([H])([H])C2([H])[H])C3([H])[H])c(=O)c1C1([H])C([H])([H])N(C(=O)N2C([H])([H])C([H])([H])C([H])([H])C([H])(n3nc(-c4c([H])c([H])c(Oc5c([H])c([H])c(F)c([H])c5F)c([H])c4[H])c(C(=O)N([H])[H])c3N([H])[H])C2([H])[H])C([H])([H])C1([H])[H]

>  <smiles>  (36) 
[H]c1nc(C2([H])C([H])([H])C2([H])[H])n(C([H])([H])C([H])([H])Oc2c([H])c([H])c3c(c2[H])C([H])([H])N(C(=O)C([H])(N([H])C(=O)C([H])(N([H])C([H])([H])[H])C([H])([H])[H])C(C([H])([H])[H])(C([H])([H])[H])C([H])([H])[H])C([H])(C(=O)N([H])C2([H])c4c([H])c([H])c([H])c([H])c4C([H])([H])C([H])([H])C2([H])[H])C3([H])[H])c(=O)c1C1([H])C([H])([H])N(C(=O)N2C([H])([H])C([H])([H])C([H])([H])C([H])(n3nc(-c4c([H])c([H])c(Oc5c([H])c([H])c(F)c([H])c5F)c([H])c4[H])c(C(=O)N([H])[H])c3N([H])[H])C2([H])[H])C([H])([H])C1([H])[H]

$$$$
36:0:0
     RDKit          3D

 96106  0  0  1  0  0  0  0  0999 V2000
  -31.1440  -23.4160   20.9190 C   0  0  0  0  0  2  0  0  0  0  0  0
  -29.2240  -23.7560   21.5660 C   0  0  0  0  0  2  0  0  0  0  0  0
  -30.3760  -22.9390   22.1560 C   0  0  0  0  0  3  0  0  0  0  0  0
  -30.2150  -24.5460   20.8350 N   0  0  2  0  0  4  0  0  0  0  0  0
  -30.5260  -25.3160   21.4120 H   0  0  0  0  0  0  0  0  0  0  0  0
  -30.1240  -21.4590   22.4510 C   0  0  0  0  0  2  0  0  0  0  0  0
  -30.6910  -14.4590   20.0820 C   0  0  0  0  0  0  0  0  0  0  0  0
  -30.2710  -12.3930   18.7940 C   0  0  0  0  0  2  0  0  0  0  0  0
  -29.2190  -12.6460   17.6970 C   0  0  0  0  0  2  0  0  0  0  0  0
  -27.7940  -12.4590   18.2510 C   0  0  0  0  0  2  0  0  0  0  0  0
  -27.5650  -13.2320   19.5760 C   0  0  0  0  0  3  0  0  0  0  0  0
  -28.7140  -12.9590   20.5720 C   0  0  0  0  0  2  0  0  0  0  0  0
  -29.9920  -13.3030   19.9160 N   0  0  0  0  0  0  0  0  0  0  0  0
  -31.6740  -14.7450   19.3870 O   0  0  0  0  0  0  0  0  0  0  0  0
  -29.4430  -18.6700   21.3500 C   0  0  0  0  0  2  0  0  0  0  0  0
  -30.7070  -19.2410   21.5850 C   0  0  0  0  0  0  0  0  0  0  0  0
  -31.7690  -18.3630   21.6490 C   0  0  0  0  0  0  0  0  0  0  0  0
  -30.4250  -16.5930   21.2180 C   0  0  0  0  0  0  0  0  0  0  0  0
  -33.0370  -19.0940   21.9500 C   0  0  0  0  0  3  0  0  0  0  0  0
  -32.5060  -20.5300   22.1810 C   0  0  0  0  0  3  0  0  0  0  0  0
  -29.3170  -17.3360   21.1820 N   0  0  0  0  0  0  0  0  0  0  0  0
  -31.6610  -17.0320   21.4790 N   0  0  0  0  0  2  0  0  0  0  0  0
  -31.0830  -20.5770   21.7900 N   0  0  0  0  0  0  0  0  0  0  0  0
  -30.2180  -15.2590   21.0490 N   0  0  0  0  0  0  0  0  0  0  0  0
  -29.3880  -14.9060   21.4910 H   0  0  0  0  0  0  0  0  0  0  0  0
  -25.2300  -13.7710   20.5240 C   0  0  0  0  0  0  0  0  0  0  0  0
  -24.2080  -12.9640   20.9490 C   0  0  0  0  0  0  0  0  0  0  0  0
  -24.6780  -11.6230   20.8060 C   0  0  0  0  0  0  0  0  0  0  0  0
  -26.2600  -12.9180   20.1580 N   0  0  0  0  0  0  0  0  0  0  0  0
  -25.9350  -11.6190   20.3800 N   0  0  0  0  0  0  0  0  0  0  0  0
  -23.9870  -10.3410   20.9980 C   0  0  0  0  0  0  0  0  0  0  0  0
  -24.4510   -9.3840   21.9270 C   0  0  0  0  0  3  0  0  0  0  0  0
  -23.7590   -8.1670   22.1060 C   0  0  0  0  0  3  0  0  0  0  0  0
  -22.5900   -7.8980   21.3550 C   0  0  0  0  0  0  0  0  0  0  0  0
  -22.1450   -8.8450   20.4150 C   0  0  0  0  0  3  0  0  0  0  0  0
  -22.8380  -10.0540   20.2350 C   0  0  0  0  0  3  0  0  0  0  0  0
  -21.8670   -6.7330   21.4440 O   0  0  0  0  0  0  0  0  0  0  0  0
  -21.7760   -6.0300   22.6180 C   0  0  0  0  0  0  0  0  0  0  0  0
  -21.2560   -6.6110   23.7960 C   0  0  0  0  0  3  0  0  0  0  0  0
  -21.1150   -5.8320   24.9620 C   0  0  0  0  0  3  0  0  0  0  0  0
  -21.4840   -4.4750   24.9510 C   0  0  0  0  0  0  0  0  0  0  0  0
  -21.9970   -3.8930   23.7780 C   0  0  0  0  0  3  0  0  0  0  0  0
  -22.1400   -4.6680   22.6150 C   0  0  0  0  0  0  0  0  0  0  0  0
  -22.6150   -4.0980   21.4820 F   0  0  0  0  0  0  0  0  0  0  0  0
  -21.3410   -3.7240   26.0690 F   0  0  0  0  0  0  0  0  0  0  0  0
  -22.8370  -13.4050   21.3750 C   0  0  0  0  0  0  0  0  0  0  0  0
  -22.2030  -12.6570   22.2720 N   0  0  0  0  0  0  0  0  0  0  0  0
  -22.3380  -14.4450   20.9480 O   0  0  0  0  0  0  0  0  0  0  0  0
  -22.6200  -11.8130   22.6370 H   0  0  0  0  0  0  0  0  0  0  0  0
  -21.2880  -12.9320   22.5980 H   0  0  0  0  0  0  0  0  0  0  0  0
  -25.3660  -15.1500   20.4040 N   0  0  0  0  0  0  0  0  0  0  0  0
  -24.6110  -15.7940   20.6200 H   0  0  0  0  0  0  0  0  0  0  0  0
  -26.1930  -15.6180   20.0520 H   0  0  0  0  0  0  0  0  0  0  0  0
  -29.8700  -24.9920   19.4600 C   0  0  0  0  0  2  0  0  0  0  0  0
  -28.4880  -25.6550   19.3450 C   0  0  0  0  0  2  0  0  0  0  0  0
  -28.4390  -26.9110   20.0240 O   0  0  0  0  0  0  0  0  0  0  0  0
  -24.6040  -31.9570   23.2400 C   0  0  0  0  0  0  0  0  0  0  0  0
  -27.2310  -27.5810   20.0520 C   0  0  0  0  0  0  0  0  0  0  0  0
  -23.3760  -30.5660   21.6030 C   0  0  0  0  0  3  0  0  0  0  0  0
  -24.8150  -29.0540   20.1410 C   0  0  0  0  0  0  0  0  0  0  0  0
  -25.8940  -30.9450   21.3660 C   0  0  0  0  0  2  0  0  0  0  0  0
  -25.9780  -29.5830   20.7130 C   0  0  0  0  0  0  0  0  0  0  0  0
  -27.1840  -28.8500   20.6720 C   0  0  0  0  0  3  0  0  0  0  0  0
  -26.0390  -27.0610   19.4860 C   0  0  0  0  0  3  0  0  0  0  0  0
  -24.8390  -27.7900   19.5310 C   0  0  0  0  0  3  0  0  0  0  0  0
  -23.5660  -29.9040   20.2130 C   0  0  0  0  0  2  0  0  0  0  0  0
  -24.6440  -31.1700   22.1280 N   0  0  0  0  0  0  0  0  0  0  0  0
  -23.5300  -32.2160   23.8030 O   0  0  0  0  0  0  0  0  0  0  0  0
  -22.7500  -29.5290   22.5630 C   0  0  0  0  0  0  0  0  0  0  0  0
  -21.4290  -29.3240   22.4410 N   0  0  0  0  0  0  0  0  0  0  0  0
  -23.4500  -28.9110   23.3700 O   0  0  0  0  0  0  0  0  0  0  0  0
  -20.9260  -29.8760   21.7610 H   0  0  0  0  0  0  0  0  0  0  0  0
  -18.0810  -28.0610   22.9360 C   0  0  0  0  0  0  0  0  0  0  0  0
  -20.6310  -28.3710   23.2120 C   0  0  0  0  0  3  0  0  0  0  0  0
  -20.7640  -26.9420   22.6380 C   0  0  0  0  0  2  0  0  0  0  0  0
  -19.6710  -26.5950   21.6220 C   0  0  0  0  0  2  0  0  0  0  0  0
  -18.2850  -26.7140   22.2640 C   0  0  0  0  0  2  0  0  0  0  0  0
  -19.1820  -28.8460   23.3670 C   0  0  0  0  0  0  0  0  0  0  0  0
  -18.9380  -30.1070   23.9540 C   0  0  0  0  0  3  0  0  0  0  0  0
  -17.6240  -30.5830   24.1160 C   0  0  0  0  0  3  0  0  0  0  0  0
  -16.5350  -29.7960   23.7010 C   0  0  0  0  0  3  0  0  0  0  0  0
  -16.7650  -28.5370   23.1170 C   0  0  0  0  0  3  0  0  0  0  0  0
  -25.8980  -32.5880   23.8440 C   0  0  0  0  0  3  0  0  0  0  0  0
  -26.4300  -31.8180   25.1150 C   0  0  1  0  0  0  0  0  0  0  0  0
  -25.3490  -31.5760   26.1940 C   0  0  0  0  0  1  0  0  0  0  0  0
  -27.0110  -30.4430   24.7150 C   0  0  0  0  0  1  0  0  0  0  0  0
  -27.5870  -32.6140   25.7640 C   0  0  0  0  0  1  0  0  0  0  0  0
  -25.5960  -33.9880   24.1700 N   0  0  0  0  0  0  0  0  0  0  0  0
  -25.9330  -35.0370   23.4070 C   0  0  0  0  0  0  0  0  0  0  0  0
  -26.6040  -34.9260   22.3760 O   0  0  0  0  0  0  0  0  0  0  0  0
  -25.0040  -34.1480   24.9720 H   0  0  0  0  0  0  0  0  0  0  0  0
  -24.2230  -36.8410   23.0260 C   0  0  0  0  0  1  0  0  0  0  0  0
  -25.4490  -36.4270   23.8570 C   0  0  0  0  0  3  0  0  0  0  0  0
  -27.5780  -37.2950   24.7200 C   0  0  0  0  0  1  0  0  0  0  0  0
  -26.4900  -37.4740   23.7610 N   0  0  0  0  0  0  0  0  0  0  0  0
  -26.0880  -38.3960   23.9090 H   0  0  0  0  0  0  0  0  0  0  0  0
  1  3  1  0
  2  3  1  0
  3  6  1  0
  4  1  1  0
  4  5  1  1
  4  2  1  0
  7 24  1  0
  8 13  1  0
  9 10  1  0
  9  8  1  0
 11 10  1  0
 11 29  1  0
 11 12  1  0
 13  7  1  0
 13 12  1  0
 14  7  2  0
 15 16  1  0
 16 17  2  0
 16 23  1  0
 17 19  1  0
 18 22  1  0
 19 20  2  0
 21 18  2  0
 21 15  1  0
 22 17  1  0
 23 20  1  0
 23  6  1  0
 24 18  1  0
 24 25  1  0
 26 27  2  0
 27 46  1  0
 28 27  1  0
 28 31  1  0
 29 30  1  0
 29 26  1  0
 30 28  2  0
 31 32  1  0
 32 33  2  0
 34 37  1  0
 34 33  1  0
 35 34  2  0
 36 35  1  0
 36 31  2  0
 37 38  1  0
 38 39  1  0
 39 40  2  0
 41 40  1  0
 41 45  1  0
 42 41  2  0
 43 38  2  0
 43 42  1  0
 44 43  1  0
 46 47  1  0
 47 50  1  0
 47 49  1  0
 48 46  2  0
 51 26  1  0
 51 52  1  0
 53 51  1  0
 54  4  1  0
 55 54  1  0
 55 56  1  0
 56 58  1  0
 57 68  2  0
 58 63  1  0
 59 67  1  0
 59 69  1  0
 60 66  1  0
 60 62  1  0
 61 67  1  0
 62 61  1  0
 63 62  2  0
 64 65  1  0
 64 58  2  0
 65 60  2  0
 66 59  1  0
 67 57  1  0
 69 71  2  0
 70 69  1  0
 72 70  1  0
 73 82  2  0
 73 78  1  0
 74 70  1  0
 74 78  1  0
 75 74  1  0
 76 77  1  0
 76 75  1  0
 77 73  1  0
 78 79  2  0
 79 80  1  0
 81 80  2  0
 82 81  1  0
 83 57  1  0
 83 88  1  0
 83 84  1  0
 84 87  1  1
 84 85  1  0
 86 84  1  0
 88 91  1  0
 89 93  1  0
 89 88  1  0
 90 89  2  0
 93 92  1  0
 95 93  1  0
 95 96  1  0
 95 94  1  0
M  ISO  4   7 100  24 100  55 101  56 101
M  END
>  <TORSDO>  (37) 
F 19

>  <SCORE>  (37) 
-13.647

>  <name>  (37) 
36

>  <ligand_id>  (37) 
36

>  <original_smiles>  (37) 
[H]c1nc(N([H])C(=O)N2C([H])([H])C([H])([H])C([H])([H])C([H])(n3nc(-c4c([H])c([H])c(Oc5c([H])c([H])c(F)c([H])c5F)c([H])c4[H])c(C(=O)N([H])[H])c3N([H])[H])C2([H])[H])nc2c1N(C([H])([H])C1([H])C([H])([H])[N+]([H])(C([H])([H])C([H])([H])Oc3c([H])c([H])c4c(c3[H])C([H])([H])N(C(=O)C([H])(N([H])C(=O)C([H])(N([H])C([H])([H])[H])C([H])([H])[H])C(C([H])([H])[H])(C([H])([H])[H])C([H])([H])[H])C([H])(C(=O)N([H])C3([H])c5c([H])c([H])c([H])c([H])c5C([H])([H])C([H])([H])C3([H])[H])C4([H])[H])C1([H])[H])C([H])([H])C2([H])[H]

>  <smiles>  (37) 
[H]c1nc(N([H])C(=O)N2C([H])([H])C([H])([H])C([H])([H])C([H])(n3nc(-c4c([H])c([H])c(Oc5c([H])c([H])c(F)c([H])c5F)c([H])c4[H])c(C(=O)N([H])[H])c3N([H])[H])C2([H])[H])nc2c1N(C([H])([H])C1([H])C([H])([H])[N+]([H])(C([H])([H])C([H])([H])Oc3c([H])c([H])c4c(c3[H])C([H])([H])N(C(=O)C([H])(N([H])C(=O)C([H])(N([H])C([H])([H])[H])C([H])([H])[H])C(C([H])([H])[H])(C([H])([H])[H])C([H])([H])[H])C([H])(C(=O)N([H])C3([H])c5c([H])c([H])c([H])c([H])c5C([H])([H])C([H])([H])C3([H])[H])C4([H])[H])C1([H])[H])C([H])([H])C2([H])[H]

$$$$
37:0:0
     RDKit          3D

 95105  0  0  1  0  0  0  0  0999 V2000
  -29.9710  -22.9410   21.7960 C   0  0  0  0  0  3  0  0  0  0  0  0
  -29.8210  -21.5890   21.6610 C   0  0  0  0  0  0  0  0  0  0  0  0
  -29.6220  -21.3920   20.2560 C   0  0  0  0  0  0  0  0  0  0  0  0
  -29.6590  -22.5580   19.6020 N   0  0  0  0  0  0  0  0  0  0  0  0
  -29.8630  -23.5080   20.5510 N   0  0  0  0  0  0  0  0  0  0  0  0
  -30.5760  -20.9020   24.0620 C   0  0  0  0  0  2  0  0  0  0  0  0
  -31.0620  -19.8030   23.1520 C   0  0  0  0  0  2  0  0  0  0  0  0
  -29.8250  -20.5930   22.7880 C   0  0  0  0  0  3  0  0  0  0  0  0
  -29.3100  -20.1070   19.4870 C   0  0  0  0  0  2  0  0  0  0  0  0
  -31.1740  -14.8030   20.0800 C   0  0  0  0  0  0  0  0  0  0  0  0
  -30.8550  -12.6070   19.0250 C   0  0  0  0  0  2  0  0  0  0  0  0
  -29.8870  -12.7880   17.8370 C   0  0  0  0  0  2  0  0  0  0  0  0
  -28.4230  -12.6710   18.3060 C   0  0  0  0  0  2  0  0  0  0  0  0
  -28.1150  -13.5380   19.5570 C   0  0  0  0  0  3  0  0  0  0  0  0
  -29.1960  -13.3240   20.6410 C   0  0  0  0  0  2  0  0  0  0  0  0
  -30.4980  -13.6220   20.0270 N   0  0  0  0  0  0  0  0  0  0  0  0
  -32.3600  -14.8910   19.7450 O   0  0  0  0  0  0  0  0  0  0  0  0
  -30.5170  -16.7480   18.7350 C   0  0  0  0  0  2  0  0  0  0  0  0
  -29.8410  -16.6270   21.1180 C   0  0  0  0  0  2  0  0  0  0  0  0
  -30.9210  -18.2170   19.0330 C   0  0  0  0  0  2  0  0  0  0  0  0
  -29.1340  -17.9540   20.7390 C   0  0  0  0  0  2  0  0  0  0  0  0
  -30.3870  -15.9100   19.9500 N   0  0  0  0  0  0  0  0  0  0  0  0
  -30.0250  -18.9020   20.0130 N   0  0  2  0  0  4  0  0  0  0  0  0
  -30.6530  -19.2910   20.6990 H   0  0  0  0  0  0  0  0  0  0  0  0
  -25.7520  -14.1890   20.3280 C   0  0  0  0  0  0  0  0  0  0  0  0
  -24.6750  -13.4380   20.7100 C   0  0  0  0  0  0  0  0  0  0  0  0
  -25.1070  -12.0770   20.6610 C   0  0  0  0  0  0  0  0  0  0  0  0
  -26.7710  -13.2870   20.0680 N   0  0  0  0  0  0  0  0  0  0  0  0
  -26.3900  -12.0110   20.3270 N   0  0  0  0  0  0  0  0  0  0  0  0
  -24.3620  -10.8280   20.8560 C   0  0  0  0  0  0  0  0  0  0  0  0
  -24.7510   -9.8820   21.8280 C   0  0  0  0  0  3  0  0  0  0  0  0
  -24.0080   -8.6940   22.0090 C   0  0  0  0  0  3  0  0  0  0  0  0
  -22.8620   -8.4480   21.2170 C   0  0  0  0  0  0  0  0  0  0  0  0
  -22.4930   -9.3840   20.2340 C   0  0  0  0  0  3  0  0  0  0  0  0
  -23.2370  -10.5610   20.0520 C   0  0  0  0  0  3  0  0  0  0  0  0
  -22.0940   -7.3120   21.3060 O   0  0  0  0  0  0  0  0  0  0  0  0
  -21.9220   -6.6530   22.4970 C   0  0  0  0  0  0  0  0  0  0  0  0
  -21.3590   -7.2880   23.6260 C   0  0  0  0  0  3  0  0  0  0  0  0
  -21.1370   -6.5540   24.8090 C   0  0  0  0  0  3  0  0  0  0  0  0
  -21.4640   -5.1870   24.8610 C   0  0  0  0  0  0  0  0  0  0  0  0
  -22.0160   -4.5510   23.7350 C   0  0  0  0  0  3  0  0  0  0  0  0
  -22.2430   -5.2830   22.5550 C   0  0  0  0  0  0  0  0  0  0  0  0
  -22.7570   -4.6600   21.4680 F   0  0  0  0  0  0  0  0  0  0  0  0
  -21.2420   -4.4790   25.9930 F   0  0  0  0  0  0  0  0  0  0  0  0
  -23.2930  -13.9380   21.0100 C   0  0  0  0  0  0  0  0  0  0  0  0
  -22.5730  -13.2570   21.8940 N   0  0  0  0  0  0  0  0  0  0  0  0
  -22.8620  -14.9700   20.4970 O   0  0  0  0  0  0  0  0  0  0  0  0
  -22.9410  -12.4230   22.3290 H   0  0  0  0  0  0  0  0  0  0  0  0
  -21.6440  -13.5720   22.1380 H   0  0  0  0  0  0  0  0  0  0  0  0
  -25.9500  -15.5560   20.1590 N   0  0  0  0  0  0  0  0  0  0  0  0
  -25.2150  -16.2410   20.3020 H   0  0  0  0  0  0  0  0  0  0  0  0
  -26.8020  -15.9520   19.7880 H   0  0  0  0  0  0  0  0  0  0  0  0
  -29.9350  -24.9310   20.2300 C   0  0  0  0  0  2  0  0  0  0  0  0
  -28.5510  -25.5540   19.9670 C   0  0  0  0  0  2  0  0  0  0  0  0
  -28.5940  -26.9870   20.0470 O   0  0  0  0  0  0  0  0  0  0  0  0
  -24.6450  -31.9450   23.2880 C   0  0  0  0  0  0  0  0  0  0  0  0
  -27.3800  -27.6490   20.0830 C   0  0  0  0  0  0  0  0  0  0  0  0
  -23.4490  -30.5170   21.6620 C   0  0  0  0  0  3  0  0  0  0  0  0
  -24.9220  -29.0520   20.1820 C   0  0  0  0  0  0  0  0  0  0  0  0
  -25.9520  -30.9770   21.3980 C   0  0  0  0  0  2  0  0  0  0  0  0
  -26.0730  -29.6180   20.7400 C   0  0  0  0  0  0  0  0  0  0  0  0
  -27.3050  -28.9260   20.6830 C   0  0  0  0  0  3  0  0  0  0  0  0
  -26.2030  -27.0930   19.5290 C   0  0  0  0  0  3  0  0  0  0  0  0
  -24.9810  -27.7850   19.5760 C   0  0  0  0  0  3  0  0  0  0  0  0
  -23.6480  -29.8600   20.2690 C   0  0  0  0  0  2  0  0  0  0  0  0
  -24.7020  -31.1610   22.1740 N   0  0  0  0  0  0  0  0  0  0  0  0
  -23.5720  -32.1650   23.8660 O   0  0  0  0  0  0  0  0  0  0  0  0
  -22.8640  -29.4610   22.6260 C   0  0  0  0  0  0  0  0  0  0  0  0
  -21.5630  -29.1650   22.4770 N   0  0  0  0  0  0  0  0  0  0  0  0
  -23.5800  -28.9040   23.4640 O   0  0  0  0  0  0  0  0  0  0  0  0
  -21.0410  -29.6730   21.7770 H   0  0  0  0  0  0  0  0  0  0  0  0
  -18.3100  -27.6420   22.8680 C   0  0  0  0  0  0  0  0  0  0  0  0
  -20.8120  -28.1740   23.2470 C   0  0  0  0  0  3  0  0  0  0  0  0
  -21.0880  -26.7410   22.7360 C   0  0  0  0  0  2  0  0  0  0  0  0
  -20.0800  -26.2690   21.6850 C   0  0  0  0  0  2  0  0  0  0  0  0
  -18.6590  -26.2930   22.2580 C   0  0  0  0  0  2  0  0  0  0  0  0
  -19.3230  -28.5310   23.3180 C   0  0  0  0  0  0  0  0  0  0  0  0
  -18.9490  -29.7870   23.8430 C   0  0  0  0  0  3  0  0  0  0  0  0
  -17.5940  -30.1570   23.9260 C   0  0  0  0  0  3  0  0  0  0  0  0
  -16.5950  -29.2680   23.4950 C   0  0  0  0  0  3  0  0  0  0  0  0
  -16.9540  -28.0110   22.9710 C   0  0  0  0  0  3  0  0  0  0  0  0
  -25.9240  -32.6210   23.8800 C   0  0  0  0  0  3  0  0  0  0  0  0
  -26.4840  -31.8780   25.1540 C   0  0  1  0  0  0  0  0  0  0  0  0
  -25.4120  -31.5880   26.2290 C   0  0  0  0  0  1  0  0  0  0  0  0
  -27.1300  -30.5310   24.7560 C   0  0  0  0  0  1  0  0  0  0  0  0
  -27.5970  -32.7280   25.8090 C   0  0  0  0  0  1  0  0  0  0  0  0
  -25.5820  -34.0110   24.1990 N   0  0  0  0  0  0  0  0  0  0  0  0
  -25.9090  -35.0690   23.4430 C   0  0  0  0  0  0  0  0  0  0  0  0
  -26.6020  -34.9770   22.4280 O   0  0  0  0  0  0  0  0  0  0  0  0
  -24.9720  -34.1560   24.9910 H   0  0  0  0  0  0  0  0  0  0  0  0
  -24.1590  -36.8270   23.0360 C   0  0  0  0  0  1  0  0  0  0  0  0
  -25.3820  -36.4490   23.8860 C   0  0  0  0  0  3  0  0  0  0  0  0
  -27.4780  -37.3650   24.7750 C   0  0  0  0  0  1  0  0  0  0  0  0
  -26.3970  -37.5210   23.8060 N   0  0  0  0  0  0  0  0  0  0  0  0
  -25.9730  -38.4340   23.9500 H   0  0  0  0  0  0  0  0  0  0  0  0
  2  1  2  0
  2  8  1  0
  3  2  1  0
  4  3  2  0
  4  5  1  0
  5  1  1  0
  7  6  1  0
  8  7  1  0
  8  6  1  0
  9 23  1  0
  9  3  1  0
 11 16  1  0
 12 13  1  0
 12 11  1  0
 14 13  1  0
 14 28  1  0
 14 15  1  0
 16 10  1  0
 16 15  1  0
 17 10  2  0
 18 20  1  0
 18 22  1  0
 20 23  1  0
 21 19  1  0
 22 10  1  0
 22 19  1  0
 23 24  1  1
 23 21  1  0
 25 26  2  0
 26 45  1  0
 27 26  1  0
 27 30  1  0
 28 29  1  0
 28 25  1  0
 29 27  2  0
 30 31  1  0
 31 32  2  0
 33 36  1  0
 33 32  1  0
 34 33  2  0
 35 34  1  0
 35 30  2  0
 36 37  1  0
 37 42  2  0
 37 38  1  0
 38 39  2  0
 39 40  1  0
 40 44  1  0
 41 40  2  0
 42 41  1  0
 43 42  1  0
 45 46  1  0
 46 49  1  0
 46 48  1  0
 47 45  2  0
 50 51  1  0
 50 25  1  0
 52 50  1  0
 53  5  1  0
 54 55  1  0
 54 53  1  0
 55 57  1  0
 56 67  2  0
 57 62  1  0
 58 66  1  0
 58 68  1  0
 59 65  1  0
 59 61  1  0
 60 66  1  0
 61 60  1  0
 62 61  2  0
 63 64  1  0
 63 57  2  0
 64 59  2  0
 65 58  1  0
 66 56  1  0
 68 70  2  0
 69 68  1  0
 71 69  1  0
 72 81  2  0
 72 77  1  0
 73 69  1  0
 73 77  1  0
 74 73  1  0
 75 76  1  0
 75 74  1  0
 76 72  1  0
 77 78  2  0
 78 79  1  0
 80 79  2  0
 81 80  1  0
 82 56  1  0
 82 87  1  0
 82 83  1  0
 83 86  1  1
 83 84  1  0
 85 83  1  0
 87 90  1  0
 88 92  1  0
 88 87  1  0
 89 88  2  0
 92 91  1  0
 94 92  1  0
 94 95  1  0
 94 93  1  0
M  ISO  4  10 100  22 100  54 101  55 101
M  END
>  <TORSDO>  (38) 
F 20

>  <SCORE>  (38) 
-13.135

>  <name>  (38) 
37

>  <ligand_id>  (38) 
37

>  <original_smiles>  (38) 
[H]c1c([H])c([H])c2c(c1[H])C([H])([H])C([H])([H])C([H])([H])C2([H])N([H])C(=O)C1([H])N(C(=O)C([H])(N([H])C(=O)C([H])(N([H])C([H])([H])[H])C([H])([H])[H])C(C([H])([H])[H])(C([H])([H])[H])C([H])([H])[H])C([H])([H])c2c([H])c(OC([H])([H])C([H])([H])n3nc(C([H])([H])[N+]4([H])C([H])([H])C([H])([H])N(C(=O)N5C([H])([H])C([H])([H])C([H])([H])C([H])(n6nc(-c7c([H])c([H])c(Oc8c([H])c([H])c(F)c([H])c8F)c([H])c7[H])c(C(=O)N([H])[H])c6N([H])[H])C5([H])[H])C([H])([H])C4([H])[H])c(C4([H])C([H])([H])C4([H])[H])c3[H])c([H])c([H])c2C1([H])[H]

>  <smiles>  (38) 
[H]c1c([H])c([H])c2c(c1[H])C([H])([H])C([H])([H])C([H])([H])C2([H])N([H])C(=O)C1([H])N(C(=O)C([H])(N([H])C(=O)C([H])(N([H])C([H])([H])[H])C([H])([H])[H])C(C([H])([H])[H])(C([H])([H])[H])C([H])([H])[H])C([H])([H])c2c([H])c(OC([H])([H])C([H])([H])n3nc(C([H])([H])[N+]4([H])C([H])([H])C([H])([H])N(C(=O)N5C([H])([H])C([H])([H])C([H])([H])C([H])(n6nc(-c7c([H])c([H])c(Oc8c([H])c([H])c(F)c([H])c8F)c([H])c7[H])c(C(=O)N([H])[H])c6N([H])[H])C5([H])[H])C([H])([H])C4([H])[H])c(C4([H])C([H])([H])C4([H])[H])c3[H])c([H])c([H])c2C1([H])[H]

$$$$
38:0:0
     RDKit          3D

 94103  0  0  1  0  0  0  0  0999 V2000
  -31.5810  -22.8770   19.7030 C   0  0  0  0  0  1  0  0  0  0  0  0
  -30.1050  -22.5320   19.9650 C   0  0  0  0  0  3  0  0  0  0  0  0
  -28.6480  -20.4780   20.7440 C   0  0  0  0  0  2  0  0  0  0  0  0
  -29.9730  -21.2130   20.7340 C   0  0  0  0  0  3  0  0  0  0  0  0
  -29.8380  -19.8660   20.0240 C   0  0  0  0  0  3  0  0  0  0  0  0
  -29.6320  -17.7630   21.4440 C   0  0  0  0  0  2  0  0  0  0  0  0
  -30.8750  -17.5900   19.8460 C   0  0  0  0  0  2  0  0  0  0  0  0
  -30.6720  -16.7020   21.0760 C   0  0  0  0  0  3  0  0  0  0  0  0
  -30.4930  -18.7150   20.7180 N   0  0  1  0  0  4  0  0  0  0  0  0
  -31.2770  -19.0000   21.2870 H   0  0  0  0  0  0  0  0  0  0  0  0
  -30.7950  -14.3490   20.2010 C   0  0  0  0  0  0  0  0  0  0  0  0
  -30.4050  -12.2240   19.0150 C   0  0  0  0  0  2  0  0  0  0  0  0
  -29.4360  -12.4680   17.8410 C   0  0  0  0  0  2  0  0  0  0  0  0
  -27.9710  -12.3710   18.3140 C   0  0  0  0  0  2  0  0  0  0  0  0
  -27.6930  -13.1940   19.6010 C   0  0  0  0  0  3  0  0  0  0  0  0
  -28.7730  -12.9220   20.6710 C   0  0  0  0  0  2  0  0  0  0  0  0
  -30.0890  -13.1990   20.0680 N   0  0  0  0  0  0  0  0  0  0  0  0
  -31.8950  -14.5380   19.6740 O   0  0  0  0  0  0  0  0  0  0  0  0
  -30.1600  -15.3410   20.8490 N   0  0  0  0  0  0  0  0  0  0  0  0
  -29.2570  -15.1000   21.2340 H   0  0  0  0  0  0  0  0  0  0  0  0
  -25.3380  -13.8430   20.4050 C   0  0  0  0  0  0  0  0  0  0  0  0
  -24.2670  -13.0890   20.8030 C   0  0  0  0  0  0  0  0  0  0  0  0
  -24.6980  -11.7270   20.7480 C   0  0  0  0  0  0  0  0  0  0  0  0
  -26.3520  -12.9410   20.1250 N   0  0  0  0  0  0  0  0  0  0  0  0
  -25.9740  -11.6650   20.3890 N   0  0  0  0  0  0  0  0  0  0  0  0
  -23.9560  -10.4780   20.9570 C   0  0  0  0  0  0  0  0  0  0  0  0
  -24.3910   -9.5060   21.8860 C   0  0  0  0  0  3  0  0  0  0  0  0
  -23.6500   -8.3190   22.0800 C   0  0  0  0  0  3  0  0  0  0  0  0
  -22.4590   -8.0980   21.3480 C   0  0  0  0  0  0  0  0  0  0  0  0
  -22.0390   -9.0620   20.4120 C   0  0  0  0  0  3  0  0  0  0  0  0
  -22.7840  -10.2370   20.2140 C   0  0  0  0  0  3  0  0  0  0  0  0
  -21.6920   -6.9600   21.4490 O   0  0  0  0  0  0  0  0  0  0  0  0
  -21.6440   -6.2260   22.6080 C   0  0  0  0  0  0  0  0  0  0  0  0
  -21.2220   -6.7930   23.8300 C   0  0  0  0  0  3  0  0  0  0  0  0
  -21.1180   -5.9870   24.9820 C   0  0  0  0  0  3  0  0  0  0  0  0
  -21.4290   -4.6160   24.9130 C   0  0  0  0  0  0  0  0  0  0  0  0
  -21.8470   -4.0470   23.6960 C   0  0  0  0  0  3  0  0  0  0  0  0
  -21.9500   -4.8510   22.5460 C   0  0  0  0  0  0  0  0  0  0  0  0
  -22.3320   -4.2950   21.3700 F   0  0  0  0  0  0  0  0  0  0  0  0
  -21.3210   -3.8400   26.0160 F   0  0  0  0  0  0  0  0  0  0  0  0
  -22.8890  -13.5940   21.1250 C   0  0  0  0  0  0  0  0  0  0  0  0
  -22.1730  -12.9060   22.0060 N   0  0  0  0  0  0  0  0  0  0  0  0
  -22.4570  -14.6340   20.6290 O   0  0  0  0  0  0  0  0  0  0  0  0
  -22.5300  -12.0620   22.4300 H   0  0  0  0  0  0  0  0  0  0  0  0
  -21.2510  -13.2330   22.2580 H   0  0  0  0  0  0  0  0  0  0  0  0
  -25.5290  -15.2130   20.2380 N   0  0  0  0  0  0  0  0  0  0  0  0
  -24.7930  -15.8920   20.4040 H   0  0  0  0  0  0  0  0  0  0  0  0
  -26.3660  -15.6230   19.8430 H   0  0  0  0  0  0  0  0  0  0  0  0
  -29.4310  -23.6260   20.7120 N   0  0  0  0  0  4  0  0  0  0  0  0
  -29.1160  -23.2340   21.5870 H   0  0  0  0  0  0  0  0  0  0  0  0
  -30.0940  -24.3490   20.9470 H   0  0  0  0  0  0  0  0  0  0  0  0
  -28.2490  -24.2410   20.0520 C   0  0  0  0  0  2  0  0  0  0  0  0
  -28.6000  -25.5380   19.2890 C   0  0  0  0  0  2  0  0  0  0  0  0
  -28.4210  -26.6900   20.1250 O   0  0  0  0  0  0  0  0  0  0  0  0
  -24.5250  -31.8030   23.1970 C   0  0  0  0  0  0  0  0  0  0  0  0
  -27.2100  -27.3580   20.1310 C   0  0  0  0  0  0  0  0  0  0  0  0
  -23.3360  -30.4040   21.5380 C   0  0  0  0  0  3  0  0  0  0  0  0
  -24.8020  -28.8570   20.1380 C   0  0  0  0  0  0  0  0  0  0  0  0
  -25.8640  -30.7520   21.3760 C   0  0  0  0  0  2  0  0  0  0  0  0
  -25.9530  -29.3780   20.7410 C   0  0  0  0  0  0  0  0  0  0  0  0
  -27.1520  -28.6330   20.7430 C   0  0  0  0  0  3  0  0  0  0  0  0
  -26.0290  -26.8380   19.5480 C   0  0  0  0  0  3  0  0  0  0  0  0
  -24.8320  -27.5830   19.5470 C   0  0  0  0  0  3  0  0  0  0  0  0
  -23.5610  -29.7190   20.1640 C   0  0  0  0  0  2  0  0  0  0  0  0
  -24.5930  -31.0000   22.0960 N   0  0  0  0  0  0  0  0  0  0  0  0
  -23.4360  -32.0830   23.7190 O   0  0  0  0  0  0  0  0  0  0  0  0
  -22.6640  -29.3870   22.4880 C   0  0  0  0  0  0  0  0  0  0  0  0
  -21.3380  -29.2310   22.3540 N   0  0  0  0  0  0  0  0  0  0  0  0
  -23.3320  -28.7410   23.2990 O   0  0  0  0  0  0  0  0  0  0  0  0
  -20.8610  -29.8050   21.6730 H   0  0  0  0  0  0  0  0  0  0  0  0
  -17.9340  -28.1300   22.8580 C   0  0  0  0  0  0  0  0  0  0  0  0
  -20.5000  -28.3040   23.1140 C   0  0  0  0  0  3  0  0  0  0  0  0
  -20.5560  -26.8830   22.5070 C   0  0  0  0  0  2  0  0  0  0  0  0
  -19.4360  -26.6140   21.4970 C   0  0  0  0  0  2  0  0  0  0  0  0
  -18.0640  -26.7900   22.1540 C   0  0  0  0  0  2  0  0  0  0  0  0
  -19.0790  -28.8480   23.2940 C   0  0  0  0  0  0  0  0  0  0  0  0
  -18.9050  -30.1070   23.9100 C   0  0  0  0  0  3  0  0  0  0  0  0
  -17.6180  -30.6450   24.0960 C   0  0  0  0  0  3  0  0  0  0  0  0
  -16.4870  -29.9220   23.6790 C   0  0  0  0  0  3  0  0  0  0  0  0
  -16.6460  -28.6650   23.0660 C   0  0  0  0  0  3  0  0  0  0  0  0
  -25.8050  -32.4250   23.8350 C   0  0  0  0  0  3  0  0  0  0  0  0
  -25.4990  -33.8220   24.1670 N   0  0  0  0  0  0  0  0  0  0  0  0
  -25.8430  -34.8770   23.4130 C   0  0  0  0  0  0  0  0  0  0  0  0
  -26.5240  -34.7730   22.3890 O   0  0  0  0  0  0  0  0  0  0  0  0
  -24.9020  -33.9770   24.9670 H   0  0  0  0  0  0  0  0  0  0  0  0
  -24.1260  -36.6730   23.0320 C   0  0  0  0  0  1  0  0  0  0  0  0
  -25.3500  -36.2630   23.8660 C   0  0  0  0  0  3  0  0  0  0  0  0
  -27.4730  -37.1350   24.7370 C   0  0  0  0  0  1  0  0  0  0  0  0
  -26.3860  -37.3140   23.7780 N   0  0  0  0  0  0  0  0  0  0  0  0
  -25.9810  -38.2340   23.9310 H   0  0  0  0  0  0  0  0  0  0  0  0
  -26.3030  -31.6470   25.1140 C   0  0  1  0  0  0  0  0  0  0  0  0
  -25.1960  -31.4100   26.1670 C   0  0  0  0  0  1  0  0  0  0  0  0
  -26.8880  -30.2710   24.7190 C   0  0  0  0  0  1  0  0  0  0  0  0
  -27.4450  -32.4350   25.7970 C   0  0  0  0  0  1  0  0  0  0  0  0
  2  1  1  0
  2 49  1  0
  4  2  1  0
  4  3  1  0
  5  9  1  0
  5  4  1  0
  5  3  1  0
  7  9  1  0
  7  8  1  0
  8 19  1  0
  8  6  1  0
  9 10  1  1
  9  6  1  0
 11 19  1  0
 12 17  1  0
 13 14  1  0
 13 12  1  0
 15 14  1  0
 15 24  1  0
 15 16  1  0
 17 11  1  0
 17 16  1  0
 18 11  2  0
 19 20  1  0
 21 22  2  0
 22 41  1  0
 23 22  1  0
 23 26  1  0
 24 25  1  0
 24 21  1  0
 25 23  2  0
 26 27  1  0
 27 28  2  0
 29 32  1  0
 29 28  1  0
 30 29  2  0
 31 30  1  0
 31 26  2  0
 32 33  1  0
 33 34  1  0
 34 35  2  0
 36 35  1  0
 36 40  1  0
 37 36  2  0
 38 33  2  0
 38 37  1  0
 39 38  1  0
 41 42  1  0
 42 45  1  0
 42 44  1  0
 43 41  2  0
 46 47  1  0
 46 21  1  0
 48 46  1  0
 49 51  1  0
 49 50  1  0
 52 49  1  0
 53 52  1  0
 53 54  1  0
 54 56  1  0
 55 66  2  0
 56 61  1  0
 57 65  1  0
 57 67  1  0
 58 64  1  0
 58 60  1  0
 59 65  1  0
 60 61  2  0
 60 59  1  0
 62 56  2  0
 63 62  1  0
 63 58  2  0
 64 57  1  0
 65 55  1  0
 67 69  2  0
 68 67  1  0
 70 68  1  0
 71 80  2  0
 71 76  1  0
 72 68  1  0
 72 76  1  0
 73 72  1  0
 74 75  1  0
 74 73  1  0
 75 71  1  0
 76 77  2  0
 77 78  1  0
 79 78  2  0
 80 79  1  0
 81 55  1  0
 81 82  1  0
 81 91  1  0
 82 85  1  0
 83 87  1  0
 83 82  1  0
 84 83  2  0
 87 86  1  0
 89 87  1  0
 89 90  1  0
 89 88  1  0
 91 94  1  1
 91 92  1  0
 93 91  1  0
M  ISO  4  11 100  19 100  53 101  54 101
M  END
>  <TORSDO>  (39) 
F 21

>  <SCORE>  (39) 
-13.392

>  <name>  (39) 
38

>  <ligand_id>  (39) 
38

>  <original_smiles>  (39) 
[H]c1c([H])c([H])c2c(c1[H])C([H])([H])C([H])([H])C([H])([H])C2([H])N([H])C(=O)C1([H])N(C(=O)C([H])(N([H])C(=O)C([H])(N([H])C([H])([H])[H])C([H])([H])[H])C(C([H])([H])[H])(C([H])([H])[H])C([H])([H])[H])C([H])([H])c2c([H])c(OC([H])([H])C([H])([H])[N+]([H])([H])C([H])(C([H])([H])[H])C3([H])C([H])([H])C3([H])[N+]3([H])C([H])([H])C([H])(N([H])C(=O)N4C([H])([H])C([H])([H])C([H])([H])C([H])(n5nc(-c6c([H])c([H])c(Oc7c([H])c([H])c(F)c([H])c7F)c([H])c6[H])c(C(=O)N([H])[H])c5N([H])[H])C4([H])[H])C3([H])[H])c([H])c([H])c2C1([H])[H]

>  <smiles>  (39) 
[H]c1c([H])c([H])c2c(c1[H])C([H])([H])C([H])([H])C([H])([H])C2([H])N([H])C(=O)C1([H])N(C(=O)C([H])(N([H])C(=O)C([H])(N([H])C([H])([H])[H])C([H])([H])[H])C(C([H])([H])[H])(C([H])([H])[H])C([H])([H])[H])C([H])([H])c2c([H])c(OC([H])([H])C([H])([H])[N+]([H])([H])C([H])(C([H])([H])[H])C3([H])C([H])([H])C3([H])[N+]3([H])C([H])([H])C([H])(N([H])C(=O)N4C([H])([H])C([H])([H])C([H])([H])C([H])(n5nc(-c6c([H])c([H])c(Oc7c([H])c([H])c(F)c([H])c7F)c([H])c6[H])c(C(=O)N([H])[H])c5N([H])[H])C4([H])[H])C3([H])[H])c([H])c([H])c2C1([H])[H]

$$$$
39:0:0
     RDKit          3D

 92101  0  0  1  0  0  0  0  0999 V2000
  -27.8980  -22.1050   20.7940 C   0  0  0  0  0  3  0  0  0  0  0  0
  -29.4020  -20.7860   20.2050 C   0  0  0  0  0  0  0  0  0  0  0  0
  -26.6420  -22.6710   21.3670 C   0  0  0  0  0  1  0  0  0  0  0  0
  -28.2550  -20.8240   20.9370 N   0  0  0  0  0  0  0  0  0  0  0  0
  -29.7560  -21.9570   19.6630 N   0  0  0  0  0  2  0  0  0  0  0  0
  -28.7650  -22.8250   20.0540 N   0  0  0  0  0  0  0  0  0  0  0  0
  -30.1520  -19.5850   20.0280 N   0  0  0  0  0  0  0  0  0  0  0  0
  -30.9570  -19.6710   19.4180 H   0  0  0  0  0  0  0  0  0  0  0  0
  -30.8250  -14.6840   19.9540 C   0  0  0  0  0  0  0  0  0  0  0  0
  -30.4830  -12.4900   18.8570 C   0  0  0  0  0  2  0  0  0  0  0  0
  -29.4680  -12.6610   17.7080 C   0  0  0  0  0  2  0  0  0  0  0  0
  -28.0220  -12.5190   18.2250 C   0  0  0  0  0  2  0  0  0  0  0  0
  -27.7560  -13.3450   19.5140 C   0  0  0  0  0  3  0  0  0  0  0  0
  -28.8860  -13.1410   20.5470 C   0  0  0  0  0  2  0  0  0  0  0  0
  -30.1520  -13.4930   19.8890 N   0  0  0  0  0  0  0  0  0  0  0  0
  -31.9490  -14.7980   19.4540 O   0  0  0  0  0  0  0  0  0  0  0  0
  -29.7050  -17.7060   21.6680 C   0  0  0  0  0  2  0  0  0  0  0  0
  -29.5440  -16.1790   21.5160 C   0  0  0  0  0  2  0  0  0  0  0  0
  -30.2920  -17.0900   19.4590 C   0  0  0  0  0  2  0  0  0  0  0  0
  -29.5880  -18.2320   20.2410 C   0  0  0  0  0  3  0  0  0  0  0  0
  -30.0890  -15.8170   20.2020 N   0  0  0  0  0  0  0  0  0  0  0  0
  -25.4150  -13.9310   20.3970 C   0  0  0  0  0  0  0  0  0  0  0  0
  -24.3710  -13.1520   20.8160 C   0  0  0  0  0  0  0  0  0  0  0  0
  -24.8250  -11.8010   20.7230 C   0  0  0  0  0  0  0  0  0  0  0  0
  -26.4390  -13.0550   20.0770 N   0  0  0  0  0  0  0  0  0  0  0  0
  -26.0920  -11.7660   20.3290 N   0  0  0  0  0  0  0  0  0  0  0  0
  -24.1080  -10.5350   20.9300 C   0  0  0  0  0  0  0  0  0  0  0  0
  -24.5460   -9.5850   21.8780 C   0  0  0  0  0  3  0  0  0  0  0  0
  -23.8290   -8.3860   22.0720 C   0  0  0  0  0  3  0  0  0  0  0  0
  -22.6600   -8.1260   21.3200 C   0  0  0  0  0  0  0  0  0  0  0  0
  -22.2410   -9.0660   20.3610 C   0  0  0  0  0  3  0  0  0  0  0  0
  -22.9580  -10.2580   20.1640 C   0  0  0  0  0  3  0  0  0  0  0  0
  -21.9150   -6.9760   21.4230 O   0  0  0  0  0  0  0  0  0  0  0  0
  -21.8030   -6.2950   22.6090 C   0  0  0  0  0  0  0  0  0  0  0  0
  -21.2920   -6.9060   23.7740 C   0  0  0  0  0  3  0  0  0  0  0  0
  -21.1280   -6.1500   24.9520 C   0  0  0  0  0  3  0  0  0  0  0  0
  -21.4650   -4.7830   24.9650 C   0  0  0  0  0  0  0  0  0  0  0  0
  -21.9700   -4.1720   23.8040 C   0  0  0  0  0  3  0  0  0  0  0  0
  -22.1350   -4.9260   22.6290 C   0  0  0  0  0  0  0  0  0  0  0  0
  -22.6020   -4.3250   21.5070 F   0  0  0  0  0  0  0  0  0  0  0  0
  -21.3010   -4.0560   26.0940 F   0  0  0  0  0  0  0  0  0  0  0  0
  -22.9960  -13.6260   21.1890 C   0  0  0  0  0  0  0  0  0  0  0  0
  -22.3310  -12.9210   22.0990 N   0  0  0  0  0  0  0  0  0  0  0  0
  -22.5220  -14.6560   20.7110 O   0  0  0  0  0  0  0  0  0  0  0  0
  -22.7290  -12.0890   22.5080 H   0  0  0  0  0  0  0  0  0  0  0  0
  -21.4120  -13.2190   22.3890 H   0  0  0  0  0  0  0  0  0  0  0  0
  -25.5730  -15.3050   20.2410 N   0  0  0  0  0  0  0  0  0  0  0  0
  -24.8200  -15.9610   20.4230 H   0  0  0  0  0  0  0  0  0  0  0  0
  -26.4070  -15.7500   19.8770 H   0  0  0  0  0  0  0  0  0  0  0  0
  -28.7090  -24.2190   19.5240 C   0  0  0  0  0  3  0  0  0  0  0  0
  -28.4150  -25.3700   20.5460 C   0  0  0  0  0  3  0  0  0  0  0  0
  -28.4930  -26.7280   20.0200 O   0  0  0  0  0  0  0  0  0  0  0  0
  -24.6140  -31.8490   23.1890 C   0  0  0  0  0  0  0  0  0  0  0  0
  -27.3230  -27.4750   20.0350 C   0  0  0  0  0  0  0  0  0  0  0  0
  -23.4260  -30.4420   21.5390 C   0  0  0  0  0  3  0  0  0  0  0  0
  -24.9000  -28.9550   20.0790 C   0  0  0  0  0  0  0  0  0  0  0  0
  -25.9430  -30.8560   21.3220 C   0  0  0  0  0  2  0  0  0  0  0  0
  -26.0550  -29.4920   20.6610 C   0  0  0  0  0  0  0  0  0  0  0  0
  -27.2730  -28.7640   20.6270 C   0  0  0  0  0  3  0  0  0  0  0  0
  -26.1500  -26.9620   19.4410 C   0  0  0  0  0  3  0  0  0  0  0  0
  -24.9440  -27.6910   19.4640 C   0  0  0  0  0  3  0  0  0  0  0  0
  -23.6380  -29.7860   20.1490 C   0  0  0  0  0  2  0  0  0  0  0  0
  -24.6800  -31.0650   22.0740 N   0  0  0  0  0  0  0  0  0  0  0  0
  -23.5330  -32.0870   23.7440 O   0  0  0  0  0  0  0  0  0  0  0  0
  -22.8050  -29.3940   22.4930 C   0  0  0  0  0  0  0  0  0  0  0  0
  -21.4860  -29.1710   22.3640 N   0  0  0  0  0  0  0  0  0  0  0  0
  -23.5070  -28.7830   23.3030 O   0  0  0  0  0  0  0  0  0  0  0  0
  -20.9770  -29.7160   21.6850 H   0  0  0  0  0  0  0  0  0  0  0  0
  -18.1550  -27.8540   22.8450 C   0  0  0  0  0  0  0  0  0  0  0  0
  -20.7020  -28.2000   23.1270 C   0  0  0  0  0  3  0  0  0  0  0  0
  -20.8570  -26.7770   22.5430 C   0  0  0  0  0  2  0  0  0  0  0  0
  -19.7710  -26.4220   21.5230 C   0  0  0  0  0  2  0  0  0  0  0  0
  -18.3810  -26.5160   22.1620 C   0  0  0  0  0  2  0  0  0  0  0  0
  -19.2440  -28.6520   23.2840 C   0  0  0  0  0  0  0  0  0  0  0  0
  -18.9810  -29.9040   23.8790 C   0  0  0  0  0  3  0  0  0  0  0  0
  -17.6590  -30.3590   24.0430 C   0  0  0  0  0  3  0  0  0  0  0  0
  -16.5830  -29.5580   23.6210 C   0  0  0  0  0  3  0  0  0  0  0  0
  -16.8320  -28.3070   23.0280 C   0  0  0  0  0  3  0  0  0  0  0  0
  -25.8900  -32.5020   23.8070 C   0  0  0  0  0  3  0  0  0  0  0  0
  -25.5560  -33.8900   24.1520 N   0  0  0  0  0  0  0  0  0  0  0  0
  -25.8650  -34.9570   23.4010 C   0  0  0  0  0  0  0  0  0  0  0  0
  -26.5330  -34.8760   22.3670 O   0  0  0  0  0  0  0  0  0  0  0  0
  -24.9670  -34.0270   24.9600 H   0  0  0  0  0  0  0  0  0  0  0  0
  -24.1060  -36.7220   23.0620 C   0  0  0  0  0  1  0  0  0  0  0  0
  -25.3510  -36.3310   23.8750 C   0  0  0  0  0  3  0  0  0  0  0  0
  -27.4630  -37.2430   24.7290 C   0  0  0  0  0  1  0  0  0  0  0  0
  -26.3630  -37.4030   23.7800 N   0  0  0  0  0  0  0  0  0  0  0  0
  -25.9400  -38.3140   23.9380 H   0  0  0  0  0  0  0  0  0  0  0  0
  -26.4340  -31.7300   25.0710 C   0  0  1  0  0  0  0  0  0  0  0  0
  -25.3570  -31.4550   26.1450 C   0  0  0  0  0  1  0  0  0  0  0  0
  -27.0440  -30.3700   24.6570 C   0  0  0  0  0  1  0  0  0  0  0  0
  -27.5720  -32.5420   25.7340 C   0  0  0  0  0  1  0  0  0  0  0  0
  1  4  1  0
  1  3  1  0
  2  4  2  0
  5  6  1  0
  5  2  1  0
  6  1  1  0
  7  2  1  0
  8  7  1  0
  9 21  1  0
 10 15  1  0
 11 12  1  0
 11 10  1  0
 13 12  1  0
 13 25  1  0
 13 14  1  0
 15  9  1  0
 15 14  1  0
 16  9  2  0
 18 17  1  0
 19 21  1  0
 19 20  1  0
 20  7  1  0
 20 17  1  0
 21 18  1  0
 22 23  2  0
 23 42  1  0
 24 23  1  0
 24 27  1  0
 25 26  1  0
 25 22  1  0
 26 24  2  0
 27 28  1  0
 28 29  2  0
 30 33  1  0
 30 29  1  0
 31 30  2  0
 32 31  1  0
 32 27  2  0
 33 34  1  0
 34 39  2  0
 34 35  1  0
 35 36  2  0
 36 37  1  0
 37 41  1  0
 38 37  2  0
 39 38  1  0
 40 39  1  0
 42 43  1  0
 43 46  1  0
 43 45  1  0
 44 42  2  0
 47 22  1  0
 47 48  1  0
 49 47  1  0
 50  6  1  0
 50 51  2  0
 52 54  1  0
 52 51  1  0
 53 64  2  0
 54 59  1  0
 55 63  1  0
 55 65  1  0
 56 62  1  0
 56 58  1  0
 57 63  1  0
 58 57  1  0
 59 58  2  0
 60 61  1  0
 60 54  2  0
 61 56  2  0
 62 55  1  0
 63 53  1  0
 65 67  2  0
 66 65  1  0
 68 66  1  0
 69 78  2  0
 69 74  1  0
 70 66  1  0
 70 74  1  0
 71 70  1  0
 72 73  1  0
 72 71  1  0
 73 69  1  0
 74 75  2  0
 75 76  1  0
 77 76  2  0
 78 77  1  0
 79 53  1  0
 79 80  1  0
 79 89  1  0
 80 83  1  0
 81 85  1  0
 81 80  1  0
 82 81  2  0
 85 84  1  0
 87 85  1  0
 87 88  1  0
 87 86  1  0
 89 92  1  1
 89 90  1  0
 91 89  1  0
M  ISO  4   9 100  21 100  51 101  52 101
M  END
>  <TORSDO>  (40) 
F 18

>  <SCORE>  (40) 
-13.979

>  <name>  (40) 
39

>  <ligand_id>  (40) 
39

>  <original_smiles>  (40) 
[H]c1c([H])c([H])c2c(c1[H])C([H])([H])C([H])([H])C([H])([H])C2([H])N([H])C(=O)C1([H])N(C(=O)C([H])(N([H])C(=O)C([H])(N([H])C([H])([H])[H])C([H])([H])[H])C(C([H])([H])[H])(C([H])([H])[H])C([H])([H])[H])C([H])([H])c2c([H])c(OC([H])([H])C([H])([H])n3nc(N([H])C4([H])C([H])([H])N(C(=O)N5C([H])([H])C([H])([H])C([H])([H])C([H])(n6nc(-c7c([H])c([H])c(Oc8c([H])c([H])c(F)c([H])c8F)c([H])c7[H])c(C(=O)N([H])[H])c6N([H])[H])C5([H])[H])C([H])([H])C4([H])[H])nc3C([H])([H])[H])c([H])c([H])c2C1([H])[H]

>  <smiles>  (40) 
[H]c1c([H])c([H])c2c(c1[H])C([H])([H])C([H])([H])C([H])([H])C2([H])N([H])C(=O)C1([H])N(C(=O)C([H])(N([H])C(=O)C([H])(N([H])C([H])([H])[H])C([H])([H])[H])C(C([H])([H])[H])(C([H])([H])[H])C([H])([H])[H])C([H])([H])c2c([H])c(OC([H])([H])C([H])([H])n3nc(N([H])C4([H])C([H])([H])N(C(=O)N5C([H])([H])C([H])([H])C([H])([H])C([H])(n6nc(-c7c([H])c([H])c(Oc8c([H])c([H])c(F)c([H])c8F)c([H])c7[H])c(C(=O)N([H])[H])c6N([H])[H])C5([H])[H])C([H])([H])C4([H])[H])nc3C([H])([H])[H])c([H])c([H])c2C1([H])[H]

$$$$
40:0:0
     RDKit          3D

 94103  0  0  1  0  0  0  0  0999 V2000
  -30.1830  -21.3220   20.9670 C   0  0  0  0  0  2  0  0  0  0  0  0
  -28.2340  -21.5260   19.7000 C   0  0  0  0  0  2  0  0  0  0  0  0
  -29.6220  -22.8180   21.0740 C   0  0  0  0  0  3  0  0  0  0  0  0
  -28.7320  -23.1010   19.8320 C   0  0  0  0  0  3  0  0  0  0  0  0
  -29.3610  -20.4990   20.0290 N   0  0  2  0  0  4  0  0  0  0  0  0
  -29.9020  -20.4700   19.1790 H   0  0  0  0  0  0  0  0  0  0  0  0
  -30.4110  -15.0190   20.1870 C   0  0  0  0  0  0  0  0  0  0  0  0
  -30.2580  -12.6270   19.3140 C   0  0  0  0  0  2  0  0  0  0  0  0
  -29.3030  -12.4820   18.1080 C   0  0  0  0  0  2  0  0  0  0  0  0
  -27.8630  -12.2310   18.5900 C   0  0  0  0  0  2  0  0  0  0  0  0
  -27.4490  -13.1970   19.7280 C   0  0  0  0  0  3  0  0  0  0  0  0
  -28.5340  -13.3370   20.8210 C   0  0  0  0  0  2  0  0  0  0  0  0
  -29.7690  -13.7690   20.1490 N   0  0  0  0  0  0  0  0  0  0  0  0
  -31.6320  -14.9890   19.9940 O   0  0  0  0  0  0  0  0  0  0  0  0
  -28.1230  -18.1420   19.5790 C   0  0  0  0  0  2  0  0  0  0  0  0
  -28.3420  -16.6040   19.8760 C   0  0  0  0  0  2  0  0  0  0  0  0
  -30.2950  -17.7610   20.3310 C   0  0  0  0  0  2  0  0  0  0  0  0
  -29.1410  -18.9440   20.3980 C   0  0  0  0  0  3  0  0  0  0  0  0
  -29.7370  -16.3030   20.2570 N   0  0  0  0  0  0  0  0  0  0  0  0
  -25.1020  -13.7830   20.5510 C   0  0  0  0  0  0  0  0  0  0  0  0
  -24.0460  -13.0100   20.9380 C   0  0  0  0  0  0  0  0  0  0  0  0
  -24.5030  -11.6580   20.8760 C   0  0  0  0  0  0  0  0  0  0  0  0
  -26.1330  -12.9010   20.2710 N   0  0  0  0  0  0  0  0  0  0  0  0
  -25.7850  -11.6170   20.5340 N   0  0  0  0  0  0  0  0  0  0  0  0
  -23.7760  -10.3980   21.0620 C   0  0  0  0  0  0  0  0  0  0  0  0
  -24.2130   -9.4240   21.9850 C   0  0  0  0  0  3  0  0  0  0  0  0
  -23.4840   -8.2270   22.1610 C   0  0  0  0  0  3  0  0  0  0  0  0
  -22.3050   -7.9990   21.4120 C   0  0  0  0  0  0  0  0  0  0  0  0
  -21.8880   -8.9620   20.4770 C   0  0  0  0  0  3  0  0  0  0  0  0
  -22.6170  -10.1490   20.2990 C   0  0  0  0  0  3  0  0  0  0  0  0
  -21.5470   -6.8560   21.4990 O   0  0  0  0  0  0  0  0  0  0  0  0
  -21.4900   -6.1170   22.6530 C   0  0  0  0  0  0  0  0  0  0  0  0
  -21.0210   -6.6660   23.8670 C   0  0  0  0  0  3  0  0  0  0  0  0
  -20.9130   -5.8510   25.0120 C   0  0  0  0  0  3  0  0  0  0  0  0
  -21.2650   -4.4900   24.9440 C   0  0  0  0  0  0  0  0  0  0  0  0
  -21.7270   -3.9420   23.7350 C   0  0  0  0  0  3  0  0  0  0  0  0
  -21.8370   -4.7520   22.5920 C   0  0  0  0  0  0  0  0  0  0  0  0
  -22.2640   -4.2140   21.4240 F   0  0  0  0  0  0  0  0  0  0  0  0
  -21.1540   -3.7060   26.0410 F   0  0  0  0  0  0  0  0  0  0  0  0
  -22.6570  -13.4910   21.2470 C   0  0  0  0  0  0  0  0  0  0  0  0
  -21.9500  -12.7960   22.1280 N   0  0  0  0  0  0  0  0  0  0  0  0
  -22.2120  -14.5210   20.7420 O   0  0  0  0  0  0  0  0  0  0  0  0
  -22.3240  -11.9630   22.5590 H   0  0  0  0  0  0  0  0  0  0  0  0
  -21.0200  -13.1010   22.3780 H   0  0  0  0  0  0  0  0  0  0  0  0
  -25.2600  -15.1550   20.3820 N   0  0  0  0  0  0  0  0  0  0  0  0
  -24.4900  -15.8010   20.5160 H   0  0  0  0  0  0  0  0  0  0  0  0
  -26.0880  -15.5970   20.0050 H   0  0  0  0  0  0  0  0  0  0  0  0
  -30.7220  -23.8900   21.2690 C   0  0  0  0  0  2  0  0  0  0  0  0
  -31.3080  -23.8940   22.6240 N   0  0  0  0  0  4  0  0  0  0  0  0
  -30.6080  -24.0650   23.3230 H   0  0  0  0  0  0  0  0  0  0  0  0
  -31.9870  -24.6330   22.6900 H   0  0  0  0  0  0  0  0  0  0  0  0
  -31.7790  -23.0340   22.8350 H   0  0  0  0  0  0  0  0  0  0  0  0
  -27.6970  -24.4700   19.8190 C   0  0  0  0  0  2  0  0  0  0  0  0
  -27.9700  -26.0250   19.8000 O   0  0  0  0  0  0  0  0  0  0  0  0
  -24.3100  -31.6470   22.9750 C   0  0  0  0  0  0  0  0  0  0  0  0
  -26.9000  -27.0120   19.7940 C   0  0  0  0  0  0  0  0  0  0  0  0
  -23.1010  -30.2670   21.3310 C   0  0  0  0  0  3  0  0  0  0  0  0
  -24.5460  -28.7450   19.8450 C   0  0  0  0  0  0  0  0  0  0  0  0
  -25.6510  -30.5690   21.1240 C   0  0  0  0  0  2  0  0  0  0  0  0
  -25.7340  -29.1900   20.4400 C   0  0  0  0  0  0  0  0  0  0  0  0
  -26.9100  -28.3420   20.3940 C   0  0  0  0  0  3  0  0  0  0  0  0
  -25.6790  -26.6820   19.1620 C   0  0  0  0  0  3  0  0  0  0  0  0
  -24.5340  -27.5070   19.1900 C   0  0  0  0  0  3  0  0  0  0  0  0
  -23.3070  -29.6240   19.9350 C   0  0  0  0  0  2  0  0  0  0  0  0
  -24.3760  -30.8490   21.8650 N   0  0  0  0  0  0  0  0  0  0  0  0
  -23.2290  -31.9030   23.5280 O   0  0  0  0  0  0  0  0  0  0  0  0
  -22.4560  -29.2300   22.2850 C   0  0  0  0  0  0  0  0  0  0  0  0
  -21.1270  -29.0440   22.1850 N   0  0  0  0  0  0  0  0  0  0  0  0
  -23.1530  -28.5950   23.0800 O   0  0  0  0  0  0  0  0  0  0  0  0
  -20.6190  -29.6100   21.5190 H   0  0  0  0  0  0  0  0  0  0  0  0
  -17.7740  -27.7860   22.7380 C   0  0  0  0  0  0  0  0  0  0  0  0
  -20.3350  -28.0790   22.9510 C   0  0  0  0  0  3  0  0  0  0  0  0
  -20.4420  -26.6610   22.3430 C   0  0  0  0  0  2  0  0  0  0  0  0
  -19.3210  -26.3450   21.3470 C   0  0  0  0  0  2  0  0  0  0  0  0
  -17.9540  -26.4560   22.0250 C   0  0  0  0  0  2  0  0  0  0  0  0
  -18.8920  -28.5550   23.1580 C   0  0  0  0  0  0  0  0  0  0  0  0
  -18.6670  -29.7990   23.7880 C   0  0  0  0  0  3  0  0  0  0  0  0
  -17.3590  -30.2740   23.9980 C   0  0  0  0  0  3  0  0  0  0  0  0
  -16.2570  -29.5030   23.5910 C   0  0  0  0  0  3  0  0  0  0  0  0
  -16.4650  -28.2590   22.9670 C   0  0  0  0  0  3  0  0  0  0  0  0
  -25.5880  -32.2920   23.5920 C   0  0  0  0  0  3  0  0  0  0  0  0
  -26.1560  -31.4850   24.8240 C   0  0  1  0  0  0  0  0  0  0  0  0
  -25.0970  -31.1790   25.9090 C   0  0  0  0  0  1  0  0  0  0  0  0
  -26.7630  -30.1380   24.3670 C   0  0  0  0  0  1  0  0  0  0  0  0
  -27.3040  -32.2820   25.4870 C   0  0  0  0  0  1  0  0  0  0  0  0
  -25.2480  -33.6670   23.9940 N   0  0  0  0  0  0  0  0  0  0  0  0
  -25.5620  -34.7670   23.2970 C   0  0  0  0  0  0  0  0  0  0  0  0
  -26.2320  -34.7320   22.2630 O   0  0  0  0  0  0  0  0  0  0  0  0
  -24.6500  -33.7640   24.8000 H   0  0  0  0  0  0  0  0  0  0  0  0
  -23.8120  -36.5580   23.0350 C   0  0  0  0  0  1  0  0  0  0  0  0
  -25.0520  -36.1210   23.8320 C   0  0  0  0  0  3  0  0  0  0  0  0
  -27.1620  -36.9910   24.7400 C   0  0  0  0  0  1  0  0  0  0  0  0
  -26.0710  -37.1930   23.7900 N   0  0  0  0  0  0  0  0  0  0  0  0
  -25.6490  -38.0990   23.9780 H   0  0  0  0  0  0  0  0  0  0  0  0
  1  3  1  0
  2  4  1  0
  2  5  1  0
  3 48  1  0
  4 53  1  0
  4  3  1  0
  5  6  1  6
  5 18  1  0
  5  1  1  0
  7 19  1  0
  8 13  1  0
  9 10  1  0
  9  8  1  0
 11 10  1  0
 11 23  1  0
 11 12  1  0
 13  7  1  0
 13 12  1  0
 14  7  2  0
 15 16  1  0
 16 19  1  0
 17 18  1  0
 18 15  1  0
 19 17  1  0
 20 21  2  0
 21 40  1  0
 22 21  1  0
 22 25  1  0
 23 24  1  0
 23 20  1  0
 24 22  2  0
 25 26  1  0
 26 27  2  0
 28 31  1  0
 28 27  1  0
 29 28  2  0
 30 29  1  0
 30 25  2  0
 31 32  1  0
 32 33  1  0
 33 34  2  0
 35 34  1  0
 35 39  1  0
 36 35  2  0
 37 32  2  0
 37 36  1  0
 38 37  1  0
 40 41  1  0
 41 44  1  0
 41 43  1  0
 42 40  2  0
 45 46  1  0
 45 20  1  0
 47 45  1  0
 48 49  1  0
 49 51  1  0
 49 52  1  0
 49 50  1  0
 54 53  1  0
 55 66  2  0
 56 54  1  0
 56 61  1  0
 57 65  1  0
 57 67  1  0
 58 64  1  0
 58 60  1  0
 59 65  1  0
 60 59  1  0
 61 60  2  0
 62 63  1  0
 62 56  2  0
 63 58  2  0
 64 57  1  0
 65 55  1  0
 67 69  2  0
 68 67  1  0
 70 68  1  0
 71 80  2  0
 71 76  1  0
 72 68  1  0
 72 76  1  0
 73 72  1  0
 74 75  1  0
 74 73  1  0
 75 71  1  0
 76 77  2  0
 77 78  1  0
 79 78  2  0
 80 79  1  0
 81 55  1  0
 81 86  1  0
 81 82  1  0
 82 85  1  1
 82 83  1  0
 84 82  1  0
 86 89  1  0
 87 91  1  0
 87 86  1  0
 88 87  2  0
 91 90  1  0
 93 91  1  0
 93 94  1  0
 93 92  1  0
M  ISO  4   7 100  19 100  53 101  54 101
M  END
>  <TORSDO>  (41) 
F 19

>  <SCORE>  (41) 
-13.554

>  <name>  (41) 
40

>  <ligand_id>  (41) 
40

>  <original_smiles>  (41) 
[H]c1c([H])c([H])c2c(c1[H])C([H])([H])C([H])([H])C([H])([H])C2([H])N([H])C(=O)C1([H])N(C(=O)C([H])(N([H])C(=O)C([H])(N([H])C([H])([H])[H])C([H])([H])[H])C(C([H])([H])[H])(C([H])([H])[H])C([H])([H])[H])C([H])([H])c2c([H])c(OC([H])([H])C3([H])C([H])(C([H])([H])[N+]([H])([H])[H])C([H])([H])[N+]([H])(C4([H])C([H])([H])N(C(=O)N5C([H])([H])C([H])([H])C([H])([H])C([H])(n6nc(-c7c([H])c([H])c(Oc8c([H])c([H])c(F)c([H])c8F)c([H])c7[H])c(C(=O)N([H])[H])c6N([H])[H])C5([H])[H])C([H])([H])C4([H])[H])C3([H])[H])c([H])c([H])c2C1([H])[H]

>  <smiles>  (41) 
[H]c1c([H])c([H])c2c(c1[H])C([H])([H])C([H])([H])C([H])([H])C2([H])N([H])C(=O)C1([H])N(C(=O)C([H])(N([H])C(=O)C([H])(N([H])C([H])([H])[H])C([H])([H])[H])C(C([H])([H])[H])(C([H])([H])[H])C([H])([H])[H])C([H])([H])c2c([H])c(OC([H])([H])C3([H])C([H])(C([H])([H])[N+]([H])([H])[H])C([H])([H])[N+]([H])(C4([H])C([H])([H])N(C(=O)N5C([H])([H])C([H])([H])C([H])([H])C([H])(n6nc(-c7c([H])c([H])c(Oc8c([H])c([H])c(F)c([H])c8F)c([H])c7[H])c(C(=O)N([H])[H])c6N([H])[H])C5([H])[H])C([H])([H])C4([H])[H])C3([H])[H])c([H])c([H])c2C1([H])[H]

$$$$
41:0:0
     RDKit          3D

 91 99  0  0  1  0  0  0  0  0999 V2000
  -29.5260  -20.7570   21.6760 C   0  0  0  0  0  2  0  0  0  0  0  0
  -30.7060  -19.7890   21.9180 C   0  0  0  0  0  2  0  0  0  0  0  0
  -30.2770  -18.4990   22.5320 N   0  0  0  0  0  4  0  0  0  0  0  0
  -30.6440  -18.4780   23.4700 H   0  0  0  0  0  0  0  0  0  0  0  0
  -29.2730  -18.4870   22.6290 H   0  0  0  0  0  0  0  0  0  0  0  0
  -30.7000  -17.2370   21.8640 C   0  0  0  0  0  2  0  0  0  0  0  0
  -30.8620  -14.6040   20.1150 C   0  0  0  0  0  0  0  0  0  0  0  0
  -30.5740  -12.4170   19.0460 C   0  0  0  0  0  2  0  0  0  0  0  0
  -29.6040  -12.6260   17.8610 C   0  0  0  0  0  2  0  0  0  0  0  0
  -28.1350  -12.5120   18.3170 C   0  0  0  0  0  2  0  0  0  0  0  0
  -27.8250  -13.3510   19.5850 C   0  0  0  0  0  3  0  0  0  0  0  0
  -28.9050  -13.1390   20.6720 C   0  0  0  0  0  2  0  0  0  0  0  0
  -30.2220  -13.4070   20.0700 N   0  0  0  0  0  0  0  0  0  0  0  0
  -32.0600  -14.7500   19.8600 O   0  0  0  0  0  0  0  0  0  0  0  0
  -30.3490  -17.5600   19.2570 C   0  0  0  0  0  2  0  0  0  0  0  0
  -29.8600  -16.2670   18.6350 C   0  0  0  0  0  2  0  0  0  0  0  0
  -29.8880  -16.9840   20.5870 C   0  0  0  0  0  3  0  0  0  0  0  0
  -29.9980  -15.6390   19.9630 N   0  0  0  0  0  0  0  0  0  0  0  0
  -25.4460  -13.9920   20.3270 C   0  0  0  0  0  0  0  0  0  0  0  0
  -24.3760  -13.2310   20.7170 C   0  0  0  0  0  0  0  0  0  0  0  0
  -24.8270  -11.8770   20.6940 C   0  0  0  0  0  0  0  0  0  0  0  0
  -26.4800  -13.0970   20.0900 N   0  0  0  0  0  0  0  0  0  0  0  0
  -26.1110  -11.8210   20.3710 N   0  0  0  0  0  0  0  0  0  0  0  0
  -24.0960  -10.6220   20.9060 C   0  0  0  0  0  0  0  0  0  0  0  0
  -24.5220   -9.6720   21.8590 C   0  0  0  0  0  3  0  0  0  0  0  0
  -23.7930   -8.4800   22.0570 C   0  0  0  0  0  3  0  0  0  0  0  0
  -22.6240   -8.2300   21.2990 C   0  0  0  0  0  0  0  0  0  0  0  0
  -22.2160   -9.1700   20.3370 C   0  0  0  0  0  3  0  0  0  0  0  0
  -22.9460  -10.3530   20.1380 C   0  0  0  0  0  3  0  0  0  0  0  0
  -21.8650   -7.0880   21.4050 O   0  0  0  0  0  0  0  0  0  0  0  0
  -21.7890   -6.3810   22.5790 C   0  0  0  0  0  0  0  0  0  0  0  0
  -21.3260   -6.9700   23.7760 C   0  0  0  0  0  3  0  0  0  0  0  0
  -21.2010   -6.1900   24.9410 C   0  0  0  0  0  3  0  0  0  0  0  0
  -21.5250   -4.8210   24.9100 C   0  0  0  0  0  0  0  0  0  0  0  0
  -21.9810   -4.2310   23.7190 C   0  0  0  0  0  3  0  0  0  0  0  0
  -22.1100   -5.0090   22.5550 C   0  0  0  0  0  0  0  0  0  0  0  0
  -22.5290   -4.4310   21.4040 F   0  0  0  0  0  0  0  0  0  0  0  0
  -21.3960   -4.0690   26.0280 F   0  0  0  0  0  0  0  0  0  0  0  0
  -22.9860  -13.7220   21.0030 C   0  0  0  0  0  0  0  0  0  0  0  0
  -22.2650  -13.0400   21.8860 N   0  0  0  0  0  0  0  0  0  0  0  0
  -22.5480  -14.7460   20.4800 O   0  0  0  0  0  0  0  0  0  0  0  0
  -22.6280  -12.2100   22.3290 H   0  0  0  0  0  0  0  0  0  0  0  0
  -21.3340  -13.3540   22.1230 H   0  0  0  0  0  0  0  0  0  0  0  0
  -25.6220  -15.3610   20.1320 N   0  0  0  0  0  0  0  0  0  0  0  0
  -24.8670  -16.0300   20.2400 H   0  0  0  0  0  0  0  0  0  0  0  0
  -26.4780  -15.7790   19.7910 H   0  0  0  0  0  0  0  0  0  0  0  0
  -29.9850  -22.0660   21.3020 O   0  0  0  0  0  0  0  0  0  0  0  0
  -28.9180  -22.9210   20.8790 C   0  0  0  0  0  2  0  0  0  0  0  0
  -29.3320  -24.4090   20.7430 C   0  0  0  0  0  2  0  0  0  0  0  0
  -28.1540  -25.2700   20.2290 C   0  0  0  0  0  2  0  0  0  0  0  0
  -28.3570  -26.7000   20.2530 O   0  0  0  0  0  0  0  0  0  0  0  0
  -24.5820  -31.9450   23.2670 C   0  0  0  0  0  0  0  0  0  0  0  0
  -27.2020  -27.4650   20.2010 C   0  0  0  0  0  0  0  0  0  0  0  0
  -23.3680  -30.5330   21.6420 C   0  0  0  0  0  3  0  0  0  0  0  0
  -24.8130  -28.9930   20.2120 C   0  0  0  0  0  0  0  0  0  0  0  0
  -25.8940  -30.8860   21.4290 C   0  0  0  0  0  2  0  0  0  0  0  0
  -25.9770  -29.5120   20.7920 C   0  0  0  0  0  0  0  0  0  0  0  0
  -27.1740  -28.7560   20.7830 C   0  0  0  0  0  3  0  0  0  0  0  0
  -26.0170  -26.9790   19.5970 C   0  0  0  0  0  3  0  0  0  0  0  0
  -24.8290  -27.7270   19.6090 C   0  0  0  0  0  3  0  0  0  0  0  0
  -23.5710  -29.8530   20.2620 C   0  0  0  0  0  2  0  0  0  0  0  0
  -24.6340  -31.1360   22.1700 N   0  0  0  0  0  0  0  0  0  0  0  0
  -23.5040  -32.2180   23.8120 O   0  0  0  0  0  0  0  0  0  0  0  0
  -22.7250  -29.5130   22.6090 C   0  0  0  0  0  0  0  0  0  0  0  0
  -21.4030  -29.3130   22.4790 N   0  0  0  0  0  0  0  0  0  0  0  0
  -23.4120  -28.9060   23.4340 O   0  0  0  0  0  0  0  0  0  0  0  0
  -20.9080  -29.8620   21.7900 H   0  0  0  0  0  0  0  0  0  0  0  0
  -18.0450  -28.0640   22.9530 C   0  0  0  0  0  0  0  0  0  0  0  0
  -20.5930  -28.3760   23.2560 C   0  0  0  0  0  3  0  0  0  0  0  0
  -20.7300  -26.9350   22.7140 C   0  0  0  0  0  2  0  0  0  0  0  0
  -19.6510  -26.5690   21.6900 C   0  0  0  0  0  2  0  0  0  0  0  0
  -18.2570  -26.7030   22.3110 C   0  0  0  0  0  2  0  0  0  0  0  0
  -19.1430  -28.8560   23.3830 C   0  0  0  0  0  0  0  0  0  0  0  0
  -18.8920  -30.1270   23.9410 C   0  0  0  0  0  3  0  0  0  0  0  0
  -17.5770  -30.6090   24.0750 C   0  0  0  0  0  3  0  0  0  0  0  0
  -16.4930  -29.8140   23.6610 C   0  0  0  0  0  3  0  0  0  0  0  0
  -16.7280  -28.5440   23.1080 C   0  0  0  0  0  3  0  0  0  0  0  0
  -25.8710  -32.5820   23.8730 C   0  0  0  0  0  3  0  0  0  0  0  0
  -25.5650  -33.9830   24.1900 N   0  0  0  0  0  0  0  0  0  0  0  0
  -25.9100  -35.0280   23.4250 C   0  0  0  0  0  0  0  0  0  0  0  0
  -26.5920  -34.9140   22.4030 O   0  0  0  0  0  0  0  0  0  0  0  0
  -24.9620  -34.1480   24.9820 H   0  0  0  0  0  0  0  0  0  0  0  0
  -24.2090  -36.8340   23.0190 C   0  0  0  0  0  1  0  0  0  0  0  0
  -25.4230  -36.4210   23.8650 C   0  0  0  0  0  3  0  0  0  0  0  0
  -27.5420  -37.2900   24.7520 C   0  0  0  0  0  1  0  0  0  0  0  0
  -26.4670  -37.4650   23.7780 N   0  0  0  0  0  0  0  0  0  0  0  0
  -26.0650  -38.3900   23.9120 H   0  0  0  0  0  0  0  0  0  0  0  0
  -26.3990  -31.8220   25.1520 C   0  0  1  0  0  0  0  0  0  0  0  0
  -25.3150  -31.5900   26.2310 C   0  0  0  0  0  1  0  0  0  0  0  0
  -26.9800  -30.4420   24.7650 C   0  0  0  0  0  1  0  0  0  0  0  0
  -27.5520  -32.6230   25.8010 C   0  0  0  0  0  1  0  0  0  0  0  0
  1  2  1  0
  2  3  1  0
  3  5  1  0
  3  4  1  0
  6  3  1  0
  8 13  1  0
  9 10  1  0
  9  8  1  0
 11 10  1  0
 11 22  1  0
 11 12  1  0
 13  7  1  0
 13 12  1  0
 14  7  2  0
 15 17  1  0
 16 15  1  0
 16 18  1  0
 17  6  1  0
 18  7  1  0
 18 17  1  0
 19 20  2  0
 20 39  1  0
 21 20  1  0
 21 24  1  0
 22 19  1  0
 22 23  1  0
 23 21  2  0
 24 25  1  0
 25 26  2  0
 27 30  1  0
 27 26  1  0
 28 27  2  0
 29 28  1  0
 29 24  2  0
 30 31  1  0
 31 32  1  0
 32 33  2  0
 34 33  1  0
 34 38  1  0
 35 34  2  0
 36 31  2  0
 36 35  1  0
 37 36  1  0
 39 40  1  0
 40 43  1  0
 40 42  1  0
 41 39  2  0
 44 45  1  0
 44 19  1  0
 46 44  1  0
 47  1  1  0
 48 47  1  0
 49 48  1  0
 50 51  1  0
 50 49  1  0
 52 63  2  0
 53 51  1  0
 53 58  1  0
 54 62  1  0
 54 64  1  0
 55 61  1  0
 55 57  1  0
 56 62  1  0
 57 56  1  0
 58 57  2  0
 59 60  1  0
 59 53  2  0
 60 55  2  0
 61 54  1  0
 62 52  1  0
 64 66  2  0
 65 64  1  0
 67 65  1  0
 68 77  2  0
 68 73  1  0
 69 65  1  0
 69 73  1  0
 70 69  1  0
 71 72  1  0
 71 70  1  0
 72 68  1  0
 73 74  2  0
 74 75  1  0
 76 75  2  0
 77 76  1  0
 78 52  1  0
 78 79  1  0
 78 88  1  0
 79 82  1  0
 80 84  1  0
 80 79  1  0
 81 80  2  0
 84 83  1  0
 86 84  1  0
 86 87  1  0
 86 85  1  0
 88 91  1  1
 88 89  1  0
 90 88  1  0
M  ISO  4   7 100  18 100  50 101  51 101
M  END
>  <TORSDO>  (42) 
F 23

>  <SCORE>  (42) 
-12.226

>  <name>  (42) 
41

>  <ligand_id>  (42) 
41

>  <original_smiles>  (42) 
[H]c1c([H])c([H])c2c(c1[H])C([H])([H])C([H])([H])C([H])([H])C2([H])N([H])C(=O)C1([H])N(C(=O)C([H])(N([H])C(=O)C([H])(N([H])C([H])([H])[H])C([H])([H])[H])C(C([H])([H])[H])(C([H])([H])[H])C([H])([H])[H])C([H])([H])c2c([H])c(OC([H])([H])C([H])([H])C([H])([H])OC([H])([H])C([H])([H])[N+]([H])([H])C([H])([H])C3([H])N(C(=O)N4C([H])([H])C([H])([H])C([H])([H])C([H])(n5nc(-c6c([H])c([H])c(Oc7c([H])c([H])c(F)c([H])c7F)c([H])c6[H])c(C(=O)N([H])[H])c5N([H])[H])C4([H])[H])C([H])([H])C3([H])[H])c([H])c([H])c2C1([H])[H]

>  <smiles>  (42) 
[H]c1c([H])c([H])c2c(c1[H])C([H])([H])C([H])([H])C([H])([H])C2([H])N([H])C(=O)C1([H])N(C(=O)C([H])(N([H])C(=O)C([H])(N([H])C([H])([H])[H])C([H])([H])[H])C(C([H])([H])[H])(C([H])([H])[H])C([H])([H])[H])C([H])([H])c2c([H])c(OC([H])([H])C([H])([H])C([H])([H])OC([H])([H])C([H])([H])[N+]([H])([H])C([H])([H])C3([H])N(C(=O)N4C([H])([H])C([H])([H])C([H])([H])C([H])(n5nc(-c6c([H])c([H])c(Oc7c([H])c([H])c(F)c([H])c7F)c([H])c6[H])c(C(=O)N([H])[H])c5N([H])[H])C4([H])[H])C([H])([H])C3([H])[H])c([H])c([H])c2C1([H])[H]

$$$$
42:0:0
     RDKit          3D

 93102  0  0  1  0  0  0  0  0999 V2000
  -29.1410  -22.8560   20.4250 N   0  0  0  0  0  4  0  0  0  0  0  0
  -29.0770  -22.9120   19.4200 H   0  0  0  0  0  0  0  0  0  0  0  0
  -30.0880  -23.1220   20.6490 H   0  0  0  0  0  0  0  0  0  0  0  0
  -26.7360  -23.6540   20.7070 C   0  0  0  0  0  1  0  0  0  0  0  0
  -28.2090  -23.8750   21.0880 C   0  0  0  0  0  3  0  0  0  0  0  0
  -28.6380  -25.4290   21.1760 C   0  0  0  0  0  2  0  0  0  0  0  0
  -28.3720  -26.4660   20.1630 O   0  0  0  0  0  0  0  0  0  0  0  0
  -24.5760  -31.8650   23.2100 C   0  0  0  0  0  0  0  0  0  0  0  0
  -27.2480  -27.2950   20.2430 C   0  0  0  0  0  0  0  0  0  0  0  0
  -23.4030  -30.4600   21.5530 C   0  0  0  0  0  3  0  0  0  0  0  0
  -24.8840  -28.8980   20.1740 C   0  0  0  0  0  0  0  0  0  0  0  0
  -25.9450  -30.7790   21.4190 C   0  0  0  0  0  2  0  0  0  0  0  0
  -26.0390  -29.3900   20.7970 C   0  0  0  0  0  0  0  0  0  0  0  0
  -27.2270  -28.5980   20.8320 C   0  0  0  0  0  3  0  0  0  0  0  0
  -26.0790  -26.8570   19.5920 C   0  0  0  0  0  3  0  0  0  0  0  0
  -24.9030  -27.6320   19.5690 C   0  0  0  0  0  3  0  0  0  0  0  0
  -23.6470  -29.7740   20.1850 C   0  0  0  0  0  2  0  0  0  0  0  0
  -24.6590  -31.0530   22.1180 N   0  0  0  0  0  0  0  0  0  0  0  0
  -23.4820  -32.1460   23.7240 O   0  0  0  0  0  0  0  0  0  0  0  0
  -22.7240  -29.4470   22.5060 C   0  0  0  0  0  0  0  0  0  0  0  0
  -21.3970  -29.2890   22.3670 N   0  0  0  0  0  0  0  0  0  0  0  0
  -23.3890  -28.8090   23.3240 O   0  0  0  0  0  0  0  0  0  0  0  0
  -20.9200  -29.8560   21.6810 H   0  0  0  0  0  0  0  0  0  0  0  0
  -17.9920  -28.1670   22.8690 C   0  0  0  0  0  0  0  0  0  0  0  0
  -20.5580  -28.3580   23.1270 C   0  0  0  0  0  3  0  0  0  0  0  0
  -20.6210  -26.9350   22.5270 C   0  0  0  0  0  2  0  0  0  0  0  0
  -19.5050  -26.6560   21.5150 C   0  0  0  0  0  2  0  0  0  0  0  0
  -18.1320  -26.8240   22.1690 C   0  0  0  0  0  2  0  0  0  0  0  0
  -19.1330  -28.8950   23.3030 C   0  0  0  0  0  0  0  0  0  0  0  0
  -18.9480  -30.1530   23.9180 C   0  0  0  0  0  3  0  0  0  0  0  0
  -17.6570  -30.6840   24.1000 C   0  0  0  0  0  3  0  0  0  0  0  0
  -16.5320  -29.9520   23.6830 C   0  0  0  0  0  3  0  0  0  0  0  0
  -16.7000  -28.6950   23.0730 C   0  0  0  0  0  3  0  0  0  0  0  0
  -25.8460  -32.4990   23.8550 C   0  0  0  0  0  3  0  0  0  0  0  0
  -26.3300  -31.7400   25.1510 C   0  0  1  0  0  0  0  0  0  0  0  0
  -25.2080  -31.5140   26.1930 C   0  0  0  0  0  1  0  0  0  0  0  0
  -26.9200  -30.3580   24.7890 C   0  0  0  0  0  1  0  0  0  0  0  0
  -27.4700  -32.5380   25.8310 C   0  0  0  0  0  1  0  0  0  0  0  0
  -25.5380  -33.9020   24.1620 N   0  0  0  0  0  0  0  0  0  0  0  0
  -25.9000  -34.9440   23.4000 C   0  0  0  0  0  0  0  0  0  0  0  0
  -26.5990  -34.8250   22.3910 O   0  0  0  0  0  0  0  0  0  0  0  0
  -24.9180  -34.0700   24.9410 H   0  0  0  0  0  0  0  0  0  0  0  0
  -24.2050  -36.7530   22.9720 C   0  0  0  0  0  1  0  0  0  0  0  0
  -25.4110  -36.3400   23.8290 C   0  0  0  0  0  3  0  0  0  0  0  0
  -27.5180  -37.2160   24.7370 C   0  0  0  0  0  1  0  0  0  0  0  0
  -26.4580  -37.3820   23.7460 N   0  0  0  0  0  0  0  0  0  0  0  0
  -26.0540  -38.3060   23.8720 H   0  0  0  0  0  0  0  0  0  0  0  0
  -29.0360  -21.3900   20.8490 C   0  0  0  0  0  2  0  0  0  0  0  0
  -28.5380  -20.7300   18.3150 C   0  0  0  0  0  2  0  0  0  0  0  0
  -27.5160  -20.0420   19.1600 C   0  0  0  0  0  2  0  0  0  0  0  0
  -28.9120  -20.2710   19.7320 C   0  0  2  0  0  0  0  0  0  0  0  0
  -30.9670  -14.7120   20.0160 C   0  0  0  0  0  0  0  0  0  0  0  0
  -30.6300  -12.4430   19.0650 C   0  0  0  0  0  2  0  0  0  0  0  0
  -29.6750  -12.5270   17.8580 C   0  0  0  0  0  2  0  0  0  0  0  0
  -28.2150  -12.3940   18.3280 C   0  0  0  0  0  2  0  0  0  0  0  0
  -27.8840  -13.3100   19.5380 C   0  0  0  0  0  3  0  0  0  0  0  0
  -28.9720  -13.2470   20.6310 C   0  0  0  0  0  2  0  0  0  0  0  0
  -30.2550  -13.5400   19.9820 N   0  0  0  0  0  0  0  0  0  0  0  0
  -32.1650  -14.6940   19.7140 O   0  0  0  0  0  0  0  0  0  0  0  0
  -29.9840  -16.7150   21.1500 C   0  0  0  0  0  2  0  0  0  0  0  0
  -30.8140  -16.9090   18.9460 C   0  0  0  0  0  2  0  0  0  0  0  0
  -29.1470  -18.0340   20.9080 C   0  0  0  0  0  2  0  0  0  0  0  0
  -29.9550  -18.1950   18.7310 C   0  0  0  0  0  2  0  0  0  0  0  0
  -30.2940  -15.9230   19.9340 N   0  0  0  0  0  0  0  0  0  0  0  0
  -29.7390  -19.0000   19.9480 N   0  0  0  0  0  0  0  0  0  0  0  0
  -25.5280  -13.9290   20.3380 C   0  0  0  0  0  0  0  0  0  0  0  0
  -24.4610  -13.1690   20.7290 C   0  0  0  0  0  0  0  0  0  0  0  0
  -24.9040  -11.8110   20.6820 C   0  0  0  0  0  0  0  0  0  0  0  0
  -26.5520  -13.0370   20.0690 N   0  0  0  0  0  0  0  0  0  0  0  0
  -26.1850  -11.7590   20.3410 N   0  0  0  0  0  0  0  0  0  0  0  0
  -24.1620  -10.5600   20.8820 C   0  0  0  0  0  0  0  0  0  0  0  0
  -24.5520   -9.6200   21.8620 C   0  0  0  0  0  3  0  0  0  0  0  0
  -23.8100   -8.4340   22.0510 C   0  0  0  0  0  3  0  0  0  0  0  0
  -22.6650   -8.1770   21.2590 C   0  0  0  0  0  0  0  0  0  0  0  0
  -22.2960   -9.1050   20.2690 C   0  0  0  0  0  3  0  0  0  0  0  0
  -23.0380  -10.2830   20.0790 C   0  0  0  0  0  3  0  0  0  0  0  0
  -21.9000   -7.0390   21.3550 O   0  0  0  0  0  0  0  0  0  0  0  0
  -21.7390   -6.3780   22.5450 C   0  0  0  0  0  0  0  0  0  0  0  0
  -21.1740   -7.0080   23.6760 C   0  0  0  0  0  3  0  0  0  0  0  0
  -20.9620   -6.2720   24.8590 C   0  0  0  0  0  3  0  0  0  0  0  0
  -21.3060   -4.9080   24.9110 C   0  0  0  0  0  0  0  0  0  0  0  0
  -21.8650   -4.2780   23.7860 C   0  0  0  0  0  3  0  0  0  0  0  0
  -22.0780   -5.0120   22.6050 C   0  0  0  0  0  0  0  0  0  0  0  0
  -22.5970   -4.3960   21.5160 F   0  0  0  0  0  0  0  0  0  0  0  0
  -21.0960   -4.1990   26.0450 F   0  0  0  0  0  0  0  0  0  0  0  0
  -23.0780  -13.6640   21.0390 C   0  0  0  0  0  0  0  0  0  0  0  0
  -22.3640  -12.9750   21.9200 N   0  0  0  0  0  0  0  0  0  0  0  0
  -22.6450  -14.7000   20.5340 O   0  0  0  0  0  0  0  0  0  0  0  0
  -22.7310  -12.1380   22.3470 H   0  0  0  0  0  0  0  0  0  0  0  0
  -21.4360  -13.2880   22.1710 H   0  0  0  0  0  0  0  0  0  0  0  0
  -25.7070  -15.2990   20.1640 N   0  0  0  0  0  0  0  0  0  0  0  0
  -24.9500  -15.9600   20.2980 H   0  0  0  0  0  0  0  0  0  0  0  0
  -26.5560  -15.7280   19.8200 H   0  0  0  0  0  0  0  0  0  0  0  0
  1  3  1  0
  1 48  1  0
  1  5  1  0
  2  1  1  0
  5  4  1  0
  5  6  1  0
  7  9  1  0
  7  6  1  0
  8 19  2  0
  9 14  1  0
 10 18  1  0
 10 20  1  0
 11 17  1  0
 11 13  1  0
 12 18  1  0
 13 14  2  0
 13 12  1  0
 15  9  2  0
 16 15  1  0
 16 11  2  0
 17 10  1  0
 18  8  1  0
 20 22  2  0
 21 20  1  0
 23 21  1  0
 24 33  2  0
 24 29  1  0
 25 21  1  0
 25 29  1  0
 26 25  1  0
 27 28  1  0
 27 26  1  0
 28 24  1  0
 29 30  2  0
 30 31  1  0
 32 31  2  0
 33 32  1  0
 34  8  1  0
 34 39  1  0
 34 35  1  0
 35 38  1  1
 35 36  1  0
 37 35  1  0
 39 42  1  0
 40 44  1  0
 40 39  1  0
 41 40  2  0
 44 43  1  0
 46 44  1  0
 46 47  1  0
 46 45  1  0
 49 50  1  0
 49 51  1  0
 50 51  1  0
 51 65  1  0
 51 48  1  1
 53 58  1  0
 54 55  1  0
 54 53  1  0
 56 55  1  0
 56 69  1  0
 56 57  1  0
 58 52  1  0
 58 57  1  0
 59 52  2  0
 61 64  1  0
 62 60  1  0
 63 61  1  0
 64 52  1  0
 64 60  1  0
 65 63  1  0
 65 62  1  0
 66 67  2  0
 67 86  1  0
 68 67  1  0
 68 71  1  0
 69 66  1  0
 69 70  1  0
 70 68  2  0
 71 72  1  0
 72 73  2  0
 74 77  1  0
 74 73  1  0
 75 74  2  0
 76 75  1  0
 76 71  2  0
 77 78  1  0
 78 83  2  0
 78 79  1  0
 79 80  2  0
 80 81  1  0
 81 85  1  0
 82 81  2  0
 83 82  1  0
 84 83  1  0
 86 87  1  0
 87 90  1  0
 87 89  1  0
 88 86  2  0
 91 92  1  0
 91 66  1  0
 93 91  1  0
M  ISO  4   6 101   7 101  52 100  64 100
M  END
>  <TORSDO>  (43) 
F 20

>  <SCORE>  (43) 
-13.873

>  <name>  (43) 
42

>  <ligand_id>  (43) 
42

>  <original_smiles>  (43) 
[H]c1c([H])c([H])c2c(c1[H])C([H])([H])C([H])([H])C([H])([H])C2([H])N([H])C(=O)C1([H])N(C(=O)C([H])(N([H])C(=O)C([H])(N([H])C([H])([H])[H])C([H])([H])[H])C(C([H])([H])[H])(C([H])([H])[H])C([H])([H])[H])C([H])([H])c2c([H])c(OC([H])([H])C([H])(C([H])([H])[H])[N+]([H])([H])C([H])([H])C3(N4C([H])([H])C([H])([H])N(C(=O)N5C([H])([H])C([H])([H])C([H])([H])C([H])(n6nc(-c7c([H])c([H])c(Oc8c([H])c([H])c(F)c([H])c8F)c([H])c7[H])c(C(=O)N([H])[H])c6N([H])[H])C5([H])[H])C([H])([H])C4([H])[H])C([H])([H])C3([H])[H])c([H])c([H])c2C1([H])[H]

>  <smiles>  (43) 
[H]c1c([H])c([H])c2c(c1[H])C([H])([H])C([H])([H])C([H])([H])C2([H])N([H])C(=O)C1([H])N(C(=O)C([H])(N([H])C(=O)C([H])(N([H])C([H])([H])[H])C([H])([H])[H])C(C([H])([H])[H])(C([H])([H])[H])C([H])([H])[H])C([H])([H])c2c([H])c(OC([H])([H])C([H])(C([H])([H])[H])[N+]([H])([H])C([H])([H])C3(N4C([H])([H])C([H])([H])N(C(=O)N5C([H])([H])C([H])([H])C([H])([H])C([H])(n6nc(-c7c([H])c([H])c(Oc8c([H])c([H])c(F)c([H])c8F)c([H])c7[H])c(C(=O)N([H])[H])c6N([H])[H])C5([H])[H])C([H])([H])C4([H])[H])C([H])([H])C3([H])[H])c([H])c([H])c2C1([H])[H]

$$$$
43:0:0
     RDKit          3D

104114  0  0  1  0  0  0  0  0999 V2000
  -31.6950  -20.2520   20.5490 C   0  0  0  0  0  3  0  0  0  0  0  0
  -30.6050  -19.7680   19.8050 C   0  0  0  0  0  0  0  0  0  0  0  0
  -29.3250  -20.1330   20.2820 C   0  0  0  0  0  0  0  0  0  0  0  0
  -30.3020  -21.3340   21.9670 C   0  0  0  0  0  0  0  0  0  0  0  0
  -28.0090  -19.7500   19.6260 C   0  0  0  0  0  1  0  0  0  0  0  0
  -31.5350  -21.0350   21.6300 N   0  0  0  0  0  0  0  0  0  0  0  0
  -29.2010  -20.9040   21.3770 N   0  0  0  0  0  0  0  0  0  0  0  0
  -30.2100  -22.2990   22.9370 N   0  0  0  0  0  0  0  0  0  0  0  0
  -31.1080  -22.5100   23.3530 H   0  0  0  0  0  0  0  0  0  0  0  0
  -28.0640  -23.4850   22.1080 C   0  0  0  0  0  2  0  0  0  0  0  0
  -29.7910  -24.6740   23.4070 C   0  0  0  0  0  2  0  0  0  0  0  0
  -28.6500  -24.0250   20.7910 C   0  0  0  0  0  2  0  0  0  0  0  0
  -30.3670  -25.2540   22.0930 C   0  0  0  0  0  2  0  0  0  0  0  0
  -29.1530  -23.2900   23.1920 C   0  0  0  0  0  3  0  0  0  0  0  0
  -29.3540  -25.3170   21.0000 N   0  0  1  0  0  4  0  0  0  0  0  0
  -28.6560  -25.9720   21.3220 H   0  0  0  0  0  0  0  0  0  0  0  0
  -29.8930  -25.8800   19.7310 C   0  0  0  0  0  2  0  0  0  0  0  0
  -29.0790  -27.0950   19.2660 C   0  0  0  0  0  2  0  0  0  0  0  0
  -27.8150  -26.6830   18.7350 O   0  0  0  0  0  0  0  0  0  0  0  0
  -24.5850  -31.4380   22.9420 C   0  0  0  0  0  0  0  0  0  0  0  0
  -26.7090  -27.4680   18.9960 C   0  0  0  0  0  0  0  0  0  0  0  0
  -23.1340  -30.3120   21.2780 C   0  0  0  0  0  3  0  0  0  0  0  0
  -24.3530  -28.9570   19.4920 C   0  0  0  0  0  0  0  0  0  0  0  0
  -25.6160  -30.6680   20.8130 C   0  0  0  0  0  2  0  0  0  0  0  0
  -25.5810  -29.3970   19.9950 C   0  0  0  0  0  0  0  0  0  0  0  0
  -26.7560  -28.6710   19.7400 C   0  0  0  0  0  3  0  0  0  0  0  0
  -25.4620  -27.0330   18.4950 C   0  0  0  0  0  3  0  0  0  0  0  0
  -24.2850  -27.7720   18.7360 C   0  0  0  0  0  3  0  0  0  0  0  0
  -23.1500  -29.8190   19.8030 C   0  0  0  0  0  2  0  0  0  0  0  0
  -24.4710  -30.8110   21.7380 N   0  0  0  0  0  0  0  0  0  0  0  0
  -23.5890  -31.6540   23.6460 O   0  0  0  0  0  0  0  0  0  0  0  0
  -22.5630  -29.1830   22.1640 C   0  0  0  0  0  0  0  0  0  0  0  0
  -21.2330  -29.0040   22.1140 N   0  0  0  0  0  0  0  0  0  0  0  0
  -23.3090  -28.4740   22.8440 O   0  0  0  0  0  0  0  0  0  0  0  0
  -20.6930  -29.6340   21.5370 H   0  0  0  0  0  0  0  0  0  0  0  0
  -17.9220  -27.6610   22.6220 C   0  0  0  0  0  0  0  0  0  0  0  0
  -20.4780  -27.9780   22.8290 C   0  0  0  0  0  3  0  0  0  0  0  0
  -20.6030  -26.6060   22.1280 C   0  0  0  0  0  2  0  0  0  0  0  0
  -19.4740  -26.3350   21.1270 C   0  0  0  0  0  2  0  0  0  0  0  0
  -18.1140  -26.3800   21.8280 C   0  0  0  0  0  2  0  0  0  0  0  0
  -19.0310  -28.4190   23.0790 C   0  0  0  0  0  0  0  0  0  0  0  0
  -18.7980  -29.6220   23.7820 C   0  0  0  0  0  3  0  0  0  0  0  0
  -17.4860  -30.0650   24.0330 C   0  0  0  0  0  3  0  0  0  0  0  0
  -16.3900  -29.3020   23.5910 C   0  0  0  0  0  3  0  0  0  0  0  0
  -16.6090  -28.1020   22.8920 C   0  0  0  0  0  3  0  0  0  0  0  0
  -25.9620  -31.9390   23.4810 C   0  0  0  0  0  3  0  0  0  0  0  0
  -25.7620  -33.2930   24.0130 N   0  0  0  0  0  0  0  0  0  0  0  0
  -26.0830  -34.4210   23.3630 C   0  0  0  0  0  0  0  0  0  0  0  0
  -26.6500  -34.4230   22.2670 O   0  0  0  0  0  0  0  0  0  0  0  0
  -25.2500  -33.3680   24.8800 H   0  0  0  0  0  0  0  0  0  0  0  0
  -24.4220  -36.3080   23.4070 C   0  0  0  0  0  1  0  0  0  0  0  0
  -25.7120  -35.7560   24.0340 C   0  0  0  0  0  3  0  0  0  0  0  0
  -27.9610  -36.4430   24.7450 C   0  0  0  0  0  1  0  0  0  0  0  0
  -26.7830  -36.7730   23.9480 N   0  0  0  0  0  0  0  0  0  0  0  0
  -26.4400  -37.6820   24.2470 H   0  0  0  0  0  0  0  0  0  0  0  0
  -26.5860  -30.9920   24.5780 C   0  0  1  0  0  0  0  0  0  0  0  0
  -25.6180  -30.6640   25.7380 C   0  0  0  0  0  1  0  0  0  0  0  0
  -27.0390  -29.6560   23.9450 C   0  0  0  0  0  1  0  0  0  0  0  0
  -27.8500  -31.6480   25.1820 C   0  0  0  0  0  1  0  0  0  0  0  0
  -30.8740  -18.9760   18.5260 C   0  0  0  0  0  2  0  0  0  0  0  0
  -31.5620  -16.8510   17.5100 C   0  0  0  0  0  1  0  0  0  0  0  0
  -31.1390  -17.5280   18.7580 N   0  0  2  0  0  4  0  0  0  0  0  0
  -31.9390  -17.4350   19.3670 H   0  0  0  0  0  0  0  0  0  0  0  0
  -30.0240  -16.8190   19.4330 C   0  0  0  0  0  2  0  0  0  0  0  0
  -31.1530  -14.2240   20.4610 C   0  0  0  0  0  0  0  0  0  0  0  0
  -30.7700  -12.0880   19.2880 C   0  0  0  0  0  2  0  0  0  0  0  0
  -29.8400  -12.2690   18.0730 C   0  0  0  0  0  2  0  0  0  0  0  0
  -28.3590  -12.2310   18.4950 C   0  0  0  0  0  2  0  0  0  0  0  0
  -28.0490  -13.1460   19.7110 C   0  0  0  0  0  3  0  0  0  0  0  0
  -29.0670  -12.8800   20.8420 C   0  0  0  0  0  2  0  0  0  0  0  0
  -30.4200  -13.0970   20.2960 N   0  0  0  0  0  0  0  0  0  0  0  0
  -32.2120  -14.4500   19.8660 O   0  0  0  0  0  0  0  0  0  0  0  0
  -31.5590  -16.9160   21.6960 C   0  0  0  0  0  2  0  0  0  0  0  0
  -31.2930  -15.6300   22.4660 C   0  0  0  0  0  2  0  0  0  0  0  0
  -30.2850  -16.5560   20.9320 C   0  0  0  0  0  3  0  0  0  0  0  0
  -30.5840  -15.1450   21.2710 N   0  0  0  0  0  0  0  0  0  0  0  0
  -25.6800  -13.9290   20.3580 C   0  0  0  0  0  0  0  0  0  0  0  0
  -24.5620  -13.2330   20.7310 C   0  0  0  0  0  0  0  0  0  0  0  0
  -24.9410  -11.8550   20.7370 C   0  0  0  0  0  0  0  0  0  0  0  0
  -26.6730  -12.9790   20.1670 N   0  0  0  0  0  0  0  0  0  0  0  0
  -26.2290  -11.7290   20.4490 N   0  0  0  0  0  0  0  0  0  0  0  0
  -24.1400  -10.6430   20.9360 C   0  0  0  0  0  0  0  0  0  0  0  0
  -24.5170   -9.6540   21.8710 C   0  0  0  0  0  3  0  0  0  0  0  0
  -23.7220   -8.5030   22.0540 C   0  0  0  0  0  3  0  0  0  0  0  0
  -22.5360   -8.3350   21.3020 C   0  0  0  0  0  0  0  0  0  0  0  0
  -22.1790   -9.3080   20.3550 C   0  0  0  0  0  3  0  0  0  0  0  0
  -22.9730  -10.4510   20.1690 C   0  0  0  0  0  3  0  0  0  0  0  0
  -21.7100   -7.2420   21.4010 O   0  0  0  0  0  0  0  0  0  0  0  0
  -21.6290   -6.5040   22.5550 C   0  0  0  0  0  0  0  0  0  0  0  0
  -21.2610   -7.0840   23.7890 C   0  0  0  0  0  3  0  0  0  0  0  0
  -21.1180   -6.2730   24.9340 C   0  0  0  0  0  3  0  0  0  0  0  0
  -21.3360   -4.8850   24.8470 C   0  0  0  0  0  0  0  0  0  0  0  0
  -21.6970   -4.3060   23.6190 C   0  0  0  0  0  3  0  0  0  0  0  0
  -21.8400   -5.1130   22.4750 C   0  0  0  0  0  0  0  0  0  0  0  0
  -22.1680   -4.5460   21.2910 F   0  0  0  0  0  0  0  0  0  0  0  0
  -21.1940   -4.1030   25.9430 F   0  0  0  0  0  0  0  0  0  0  0  0
  -23.1940  -13.8000   20.9730 C   0  0  0  0  0  0  0  0  0  0  0  0
  -22.4240  -13.1820   21.8620 N   0  0  0  0  0  0  0  0  0  0  0  0
  -22.8180  -14.8260   20.4070 O   0  0  0  0  0  0  0  0  0  0  0  0
  -22.7420  -12.3490   22.3370 H   0  0  0  0  0  0  0  0  0  0  0  0
  -21.5060  -13.5520   22.0710 H   0  0  0  0  0  0  0  0  0  0  0  0
  -25.9230  -15.2810   20.1460 N   0  0  0  0  0  0  0  0  0  0  0  0
  -25.1520  -15.9420   20.1380 H   0  0  0  0  0  0  0  0  0  0  0  0
  -26.7490  -15.6360   19.6850 H   0  0  0  0  0  0  0  0  0  0  0  0
  1  6  1  0
  2  3  1  0
  2  1  2  0
  3  7  2  0
  4  8  1  0
  5  3  1  0
  6  4  2  0
  7  4  1  0
  8  9  1  0
 10 14  1  0
 12 15  1  0
 12 10  1  0
 13 11  1  0
 14  8  1  0
 14 11  1  0
 15 16  1  1
 15 13  1  0
 17 15  1  0
 18 17  1  0
 19 21  1  0
 19 18  1  0
 20 31  2  0
 21 26  1  0
 22 30  1  0
 22 32  1  0
 23 29  1  0
 23 25  1  0
 24 30  1  0
 25 24  1  0
 26 25  2  0
 27 28  1  0
 27 21  2  0
 28 23  2  0
 29 22  1  0
 30 20  1  0
 32 34  2  0
 33 32  1  0
 35 33  1  0
 36 45  2  0
 36 41  1  0
 37 33  1  0
 37 41  1  0
 38 37  1  0
 39 40  1  0
 39 38  1  0
 40 36  1  0
 41 42  2  0
 42 43  1  0
 44 43  2  0
 45 44  1  0
 46 20  1  0
 46 47  1  0
 46 56  1  0
 47 50  1  0
 48 47  1  0
 48 52  1  0
 49 48  2  0
 52 51  1  0
 54 52  1  0
 54 55  1  0
 54 53  1  0
 56 59  1  1
 56 57  1  0
 58 56  1  0
 60 62  1  0
 60  2  1  0
 61 62  1  0
 62 63  1  1
 62 64  1  0
 65 76  1  0
 66 71  1  0
 67 68  1  0
 67 66  1  0
 69 68  1  0
 69 80  1  0
 69 70  1  0
 71 65  1  0
 71 70  1  0
 72 65  2  0
 73 74  1  0
 75 64  1  0
 75 76  1  0
 75 73  1  0
 76 74  1  0
 77 78  2  0
 78 79  1  0
 78 97  1  0
 79 82  1  0
 80 77  1  0
 80 81  1  0
 81 79  2  0
 82 83  1  0
 83 84  2  0
 85 88  1  0
 85 84  1  0
 86 85  2  0
 87 86  1  0
 87 82  2  0
 88 89  1  0
 89 90  1  0
 90 91  2  0
 92 91  1  0
 92 96  1  0
 93 92  2  0
 94 89  2  0
 94 93  1  0
 95 94  1  0
 97 98  1  0
 98101  1  0
 98100  1  0
 99 97  2  0
102 77  1  0
103102  1  0
104102  1  0
M  ISO  4  18 101  19 101  65 100  76 100
M  END
>  <TORSDO>  (44) 
F 22

>  <SCORE>  (44) 
-11.026

>  <name>  (44) 
43

>  <ligand_id>  (44) 
43

>  <original_smiles>  (44) 
[H]c1nc(N([H])C2([H])C([H])([H])C([H])([H])[N+]([H])(C([H])([H])C([H])([H])Oc3c([H])c([H])c4c(c3[H])C([H])([H])N(C(=O)C([H])(N([H])C(=O)C([H])(N([H])C([H])([H])[H])C([H])([H])[H])C(C([H])([H])[H])(C([H])([H])[H])C([H])([H])[H])C([H])(C(=O)N([H])C3([H])c5c([H])c([H])c([H])c([H])c5C([H])([H])C([H])([H])C3([H])[H])C4([H])[H])C([H])([H])C2([H])[H])nc(C([H])([H])[H])c1C([H])([H])[N+]([H])(C([H])([H])[H])C([H])([H])C1([H])N(C(=O)N2C([H])([H])C([H])([H])C([H])([H])C([H])(n3nc(-c4c([H])c([H])c(Oc5c([H])c([H])c(F)c([H])c5F)c([H])c4[H])c(C(=O)N([H])[H])c3N([H])[H])C2([H])[H])C([H])([H])C1([H])[H]

>  <smiles>  (44) 
[H]c1nc(N([H])C2([H])C([H])([H])C([H])([H])[N+]([H])(C([H])([H])C([H])([H])Oc3c([H])c([H])c4c(c3[H])C([H])([H])N(C(=O)C([H])(N([H])C(=O)C([H])(N([H])C([H])([H])[H])C([H])([H])[H])C(C([H])([H])[H])(C([H])([H])[H])C([H])([H])[H])C([H])(C(=O)N([H])C3([H])c5c([H])c([H])c([H])c([H])c5C([H])([H])C([H])([H])C3([H])[H])C4([H])[H])C([H])([H])C2([H])[H])nc(C([H])([H])[H])c1C([H])([H])[N+]([H])(C([H])([H])[H])C([H])([H])C1([H])N(C(=O)N2C([H])([H])C([H])([H])C([H])([H])C([H])(n3nc(-c4c([H])c([H])c(Oc5c([H])c([H])c(F)c([H])c5F)c([H])c4[H])c(C(=O)N([H])[H])c3N([H])[H])C2([H])[H])C([H])([H])C1([H])[H]

$$$$
44:0:0
     RDKit          3D

 97106  0  0  1  0  0  0  0  0999 V2000
  -28.3800  -20.5790   18.5020 N   0  0  0  0  0  4  0  0  0  0  0  0
  -27.8970  -20.6120   17.6160 H   0  0  0  0  0  0  0  0  0  0  0  0
  -29.3430  -20.8490   18.3730 H   0  0  0  0  0  0  0  0  0  0  0  0
  -28.4960  -19.0070   18.8780 C   0  0  0  0  0  2  0  0  0  0  0  0
  -28.8390  -17.3560   16.8620 C   0  0  0  0  0  2  0  0  0  0  0  0
  -29.6160  -18.0270   18.0960 C   0  0  0  0  0  3  0  0  0  0  0  0
  -30.1060  -16.7180   17.1790 C   0  0  0  0  0  3  0  0  0  0  0  0
  -31.9210  -14.8220   17.4960 C   0  0  0  0  0  2  0  0  0  0  0  0
  -30.1950  -13.7710   17.7070 C   0  0  0  0  0  2  0  0  0  0  0  0
  -31.6330  -13.5430   18.3330 C   0  0  0  0  0  3  0  0  0  0  0  0
  -30.5260  -15.1770   17.2470 N   0  0  1  0  0  4  0  0  0  0  0  0
  -30.3080  -15.0120   16.2730 H   0  0  0  0  0  0  0  0  0  0  0  0
  -32.0800  -13.9260   21.1970 C   0  0  0  0  0  0  0  0  0  0  0  0
  -30.5070  -14.9150   21.9050 C   0  0  0  0  0  2  0  0  0  0  0  0
  -30.0550  -15.2830   20.4400 C   0  0  0  0  0  2  0  0  0  0  0  0
  -28.9440  -14.3540   20.0250 C   0  0  0  0  0  2  0  0  0  0  0  0
  -28.4280  -13.6690   21.2040 C   0  0  0  0  0  3  0  0  0  0  0  0
  -29.6290  -12.8310   21.7670 C   0  0  0  0  0  2  0  0  0  0  0  0
  -30.9050  -13.6390   21.8650 N   0  0  0  0  0  0  0  0  0  0  0  0
  -32.9250  -14.7600   21.6710 O   0  0  0  0  0  0  0  0  0  0  0  0
  -32.1940  -13.4810   19.8360 N   0  0  0  0  0  0  0  0  0  0  0  0
  -33.1880  -13.5550   19.6590 H   0  0  0  0  0  0  0  0  0  0  0  0
  -26.0410  -14.1590   20.7250 C   0  0  0  0  0  0  0  0  0  0  0  0
  -24.9620  -13.3220   20.7480 C   0  0  0  0  0  0  0  0  0  0  0  0
  -25.4910  -12.0340   21.0190 C   0  0  0  0  0  0  0  0  0  0  0  0
  -27.0930  -13.2920   21.0170 N   0  0  0  0  0  0  0  0  0  0  0  0
  -26.7740  -12.0440   21.2310 N   0  0  0  0  0  0  0  0  0  0  0  0
  -24.8040  -10.7630   21.1080 C   0  0  0  0  0  0  0  0  0  0  0  0
  -25.0970   -9.8520   22.1560 C   0  0  0  0  0  3  0  0  0  0  0  0
  -24.3850   -8.6430   22.2320 C   0  0  0  0  0  3  0  0  0  0  0  0
  -23.3980   -8.3140   21.2700 C   0  0  0  0  0  0  0  0  0  0  0  0
  -23.1570   -9.2050   20.2100 C   0  0  0  0  0  3  0  0  0  0  0  0
  -23.8440  -10.4240   20.1350 C   0  0  0  0  0  3  0  0  0  0  0  0
  -22.6780   -7.1590   21.2580 O   0  0  0  0  0  0  0  0  0  0  0  0
  -22.4250   -6.4660   22.4190 C   0  0  0  0  0  0  0  0  0  0  0  0
  -21.7570   -7.0580   23.5100 C   0  0  0  0  0  3  0  0  0  0  0  0
  -21.4550   -6.2870   24.6460 C   0  0  0  0  0  3  0  0  0  0  0  0
  -21.7720   -4.9130   24.6800 C   0  0  0  0  0  0  0  0  0  0  0  0
  -22.3880   -4.3190   23.5670 C   0  0  0  0  0  3  0  0  0  0  0  0
  -22.7020   -5.0840   22.4300 C   0  0  0  0  0  0  0  0  0  0  0  0
  -23.3090   -4.4960   21.3700 F   0  0  0  0  0  0  0  0  0  0  0  0
  -21.4460   -4.1670   25.7570 F   0  0  0  0  0  0  0  0  0  0  0  0
  -23.5620  -13.7400   20.4570 C   0  0  0  0  0  0  0  0  0  0  0  0
  -22.6220  -13.1120   21.1610 N   0  0  0  0  0  0  0  0  0  0  0  0
  -23.2850  -14.6080   19.6380 O   0  0  0  0  0  0  0  0  0  0  0  0
  -22.8390  -12.3950   21.8330 H   0  0  0  0  0  0  0  0  0  0  0  0
  -21.6630  -13.3310   21.0010 H   0  0  0  0  0  0  0  0  0  0  0  0
  -26.1710  -15.5210   20.4560 N   0  0  0  0  0  0  0  0  0  0  0  0
  -25.3850  -16.0380   20.0590 H   0  0  0  0  0  0  0  0  0  0  0  0
  -27.0310  -16.0700   20.5170 H   0  0  0  0  0  0  0  0  0  0  0  0
  -27.7510  -21.8220   19.3290 C   0  0  0  0  0  2  0  0  0  0  0  0
  -28.3860  -23.4320   19.3060 C   0  0  0  0  0  3  0  0  0  0  0  0
  -29.2800  -23.6010   16.9550 C   0  0  0  0  0  1  0  0  0  0  0  0
  -26.9560  -23.9760   17.3300 C   0  0  0  0  0  1  0  0  0  0  0  0
  -28.2810  -24.0260   17.9550 N   0  0  0  0  0  0  0  0  0  0  0  0
  -27.9350  -24.6960   20.4230 C   0  0  0  0  0  2  0  0  0  0  0  0
  -28.3750  -26.2240   20.7280 O   0  0  0  0  0  0  0  0  0  0  0  0
  -24.7940  -32.1460   23.8860 C   0  0  0  0  0  0  0  0  0  0  0  0
  -27.4220  -27.3230   20.8470 C   0  0  0  0  0  0  0  0  0  0  0  0
  -23.6920  -30.7750   22.1720 C   0  0  0  0  0  3  0  0  0  0  0  0
  -25.1880  -29.1890   20.8220 C   0  0  0  0  0  0  0  0  0  0  0  0
  -26.2760  -30.9240   22.2030 C   0  0  0  0  0  2  0  0  0  0  0  0
  -26.3490  -29.5360   21.5220 C   0  0  0  0  0  0  0  0  0  0  0  0
  -27.4720  -28.6110   21.5360 C   0  0  0  0  0  3  0  0  0  0  0  0
  -26.2370  -27.1080   20.1280 C   0  0  0  0  0  3  0  0  0  0  0  0
  -25.1490  -27.9760   20.1270 C   0  0  0  0  0  3  0  0  0  0  0  0
  -24.0010  -30.1330   20.8000 C   0  0  0  0  0  2  0  0  0  0  0  0
  -24.9440  -31.3110   22.8040 N   0  0  0  0  0  0  0  0  0  0  0  0
  -23.6770  -32.4560   24.3270 O   0  0  0  0  0  0  0  0  0  0  0  0
  -22.9440  -29.7670   23.0710 C   0  0  0  0  0  0  0  0  0  0  0  0
  -21.6500  -29.5370   22.7930 N   0  0  0  0  0  0  0  0  0  0  0  0
  -23.5220  -29.1920   23.9970 O   0  0  0  0  0  0  0  0  0  0  0  0
  -21.2190  -30.0550   22.0430 H   0  0  0  0  0  0  0  0  0  0  0  0
  -18.2950  -28.1410   22.8780 C   0  0  0  0  0  0  0  0  0  0  0  0
  -20.7790  -28.5930   23.4950 C   0  0  0  0  0  3  0  0  0  0  0  0
  -21.0370  -27.1320   23.0470 C   0  0  0  0  0  2  0  0  0  0  0  0
  -20.1170  -26.6740   21.9120 C   0  0  0  0  0  2  0  0  0  0  0  0
  -18.6510  -26.7690   22.3350 C   0  0  0  0  0  2  0  0  0  0  0  0
  -19.2960  -28.9990   23.4150 C   0  0  0  0  0  0  0  0  0  0  0  0
  -18.9170  -30.2810   23.8770 C   0  0  0  0  0  3  0  0  0  0  0  0
  -17.5750  -30.7030   23.8190 C   0  0  0  0  0  3  0  0  0  0  0  0
  -16.5920  -29.8450   23.2990 C   0  0  0  0  0  3  0  0  0  0  0  0
  -16.9490  -28.5660   22.8360 C   0  0  0  0  0  3  0  0  0  0  0  0
  -26.0350  -32.7860   24.5870 C   0  0  0  0  0  3  0  0  0  0  0  0
  -25.7530  -34.2120   24.7900 N   0  0  0  0  0  0  0  0  0  0  0  0
  -26.1970  -35.1970   24.0020 C   0  0  0  0  0  0  0  0  0  0  0  0
  -26.9550  -35.0020   23.0500 O   0  0  0  0  0  0  0  0  0  0  0  0
  -25.1100  -34.4450   25.5300 H   0  0  0  0  0  0  0  0  0  0  0  0
  -24.5950  -37.0350   23.3700 C   0  0  0  0  0  1  0  0  0  0  0  0
  -25.7320  -36.6270   24.3220 C   0  0  0  0  0  3  0  0  0  0  0  0
  -27.8110  -37.4990   25.3050 C   0  0  0  0  0  1  0  0  0  0  0  0
  -26.8130  -37.6380   24.2460 N   0  0  0  0  0  0  0  0  0  0  0  0
  -26.4360  -38.5830   24.2900 H   0  0  0  0  0  0  0  0  0  0  0  0
  -26.3660  -32.0950   25.9640 C   0  0  1  0  0  0  0  0  0  0  0  0
  -25.1550  -31.9730   26.9220 C   0  0  0  0  0  1  0  0  0  0  0  0
  -26.9530  -30.6790   25.7630 C   0  0  0  0  0  1  0  0  0  0  0  0
  -27.4520  -32.9130   26.7130 C   0  0  0  0  0  1  0  0  0  0  0  0
  1  4  1  0
  1 51  1  0
  2  1  1  0
  3  1  1  0
  5  6  1  0
  6  4  1  0
  7  5  1  0
  7 11  1  0
  7  6  1  0
  8 10  1  0
  9 10  1  0
 10 21  1  0
 11 12  1  6
 11  8  1  0
 11  9  1  0
 13 20  2  0
 13 19  1  0
 15 14  1  0
 16 15  1  0
 17 16  1  0
 17 18  1  0
 18 19  1  0
 19 14  1  0
 21 13  1  0
 22 21  1  0
 23 24  2  0
 23 26  1  0
 24 25  1  0
 25 28  1  0
 25 27  2  0
 26 17  1  0
 26 27  1  0
 28 29  1  0
 29 30  2  0
 31 30  1  0
 32 31  2  0
 33 32  1  0
 33 28  2  0
 34 31  1  0
 34 35  1  0
 35 40  2  0
 35 36  1  0
 36 37  2  0
 37 38  1  0
 38 42  1  0
 39 38  2  0
 40 39  1  0
 41 40  1  0
 43 24  1  0
 43 44  1  0
 44 46  1  0
 45 43  2  0
 47 44  1  0
 48 50  1  0
 48 23  1  0
 49 48  1  0
 52 51  1  0
 52 56  1  0
 53 55  1  0
 54 55  1  0
 55 52  1  0
 56 57  1  0
 57 59  1  0
 58 69  2  0
 59 64  1  0
 60 68  1  0
 60 70  1  0
 61 63  1  0
 62 68  1  0
 63 64  2  0
 63 62  1  0
 65 59  2  0
 66 65  1  0
 66 61  2  0
 67 61  1  0
 67 60  1  0
 68 58  1  0
 70 72  2  0
 71 70  1  0
 73 71  1  0
 74 79  1  0
 75 71  1  0
 76 75  1  0
 77 78  1  0
 77 76  1  0
 78 74  1  0
 79 75  1  0
 79 80  2  0
 81 80  1  0
 82 81  2  0
 83 74  2  0
 83 82  1  0
 84 58  1  0
 84 85  1  0
 84 94  1  0
 85 88  1  0
 86 90  1  0
 86 85  1  0
 87 86  2  0
 90 89  1  0
 92 93  1  0
 92 90  1  0
 92 91  1  0
 94 97  1  1
 94 95  1  0
 96 94  1  0
M  ISO  4  13 100  21 100  56 101  57 101
M  END
>  <TORSDO>  (45) 
F 23

>  <SCORE>  (45) 
-3.826

>  <name>  (45) 
44

>  <ligand_id>  (45) 
44

>  <original_smiles>  (45) 
[H]c1c([H])c([H])c2c(c1[H])C([H])([H])C([H])([H])C([H])([H])C2([H])N([H])C(=O)C1([H])N(C(=O)C([H])(N([H])C(=O)C([H])(N([H])C([H])([H])[H])C([H])([H])[H])C(C([H])([H])[H])(C([H])([H])[H])C([H])([H])[H])C([H])([H])c2c([H])c(OC([H])([H])C([H])(N(C([H])([H])[H])C([H])([H])[H])C([H])([H])[N+]([H])([H])C([H])([H])C3([H])C([H])([H])C3([H])[N+]3([H])C([H])([H])C([H])(N([H])C(=O)N4C([H])([H])C([H])([H])C([H])([H])C([H])(n5nc(-c6c([H])c([H])c(Oc7c([H])c([H])c(F)c([H])c7F)c([H])c6[H])c(C(=O)N([H])[H])c5N([H])[H])C4([H])[H])C3([H])[H])c([H])c([H])c2C1([H])[H]

>  <smiles>  (45) 
[H]c1c([H])c([H])c2c(c1[H])C([H])([H])C([H])([H])C([H])([H])C2([H])N([H])C(=O)C1([H])N(C(=O)C([H])(N([H])C(=O)C([H])(N([H])C([H])([H])[H])C([H])([H])[H])C(C([H])([H])[H])(C([H])([H])[H])C([H])([H])[H])C([H])([H])c2c([H])c(OC([H])([H])C([H])(N(C([H])([H])[H])C([H])([H])[H])C([H])([H])[N+]([H])([H])C([H])([H])C3([H])C([H])([H])C3([H])[N+]3([H])C([H])([H])C([H])(N([H])C(=O)N4C([H])([H])C([H])([H])C([H])([H])C([H])(n5nc(-c6c([H])c([H])c(Oc7c([H])c([H])c(F)c([H])c7F)c([H])c6[H])c(C(=O)N([H])[H])c5N([H])[H])C4([H])[H])C3([H])[H])c([H])c([H])c2C1([H])[H]

$$$$
45:0:0
     RDKit          3D

103114  0  0  1  0  0  0  0  0999 V2000
  -33.0080  -23.5550   17.0230 C   0  0  0  0  0  3  0  0  0  0  0  0
  -33.3730  -21.3040   17.3830 C   0  0  0  0  0  0  0  0  0  0  0  0
  -32.2930  -23.6330   18.2390 C   0  0  0  0  0  0  0  0  0  0  0  0
  -32.6340  -21.3780   18.5990 C   0  0  0  0  0  0  0  0  0  0  0  0
  -33.5530  -22.3940   16.6000 N   0  0  0  0  0  0  0  0  0  0  0  0
  -32.1120  -22.5510   19.0390 N   0  0  0  0  0  0  0  0  0  0  0  0
  -35.0050  -19.2380   17.5440 C   0  0  0  0  0  2  0  0  0  0  0  0
  -35.3950  -20.0270   16.3270 C   0  0  0  0  0  2  0  0  0  0  0  0
  -33.9560  -20.0470   16.8070 C   0  0  0  0  0  3  0  0  0  0  0  0
  -32.2870  -20.1480   19.4280 C   0  0  0  0  0  2  0  0  0  0  0  0
  -30.8650  -19.6590   19.1130 C   0  0  0  0  0  2  0  0  0  0  0  0
  -30.6760  -14.6390   20.7730 C   0  0  0  0  0  0  0  0  0  0  0  0
  -30.5020  -12.4090   19.7950 C   0  0  0  0  0  2  0  0  0  0  0  0
  -29.6120  -12.4700   18.5320 C   0  0  0  0  0  2  0  0  0  0  0  0
  -28.1120  -12.3870   18.8800 C   0  0  0  0  0  2  0  0  0  0  0  0
  -27.6880  -13.2830   20.0750 C   0  0  0  0  0  3  0  0  0  0  0  0
  -28.6910  -13.1740   21.2450 C   0  0  0  0  0  2  0  0  0  0  0  0
  -30.0360  -13.4460   20.7200 N   0  0  0  0  0  0  0  0  0  0  0  0
  -31.8920  -14.7780   20.6390 O   0  0  0  0  0  0  0  0  0  0  0  0
  -29.7790  -15.9890   19.0030 C   0  0  0  0  0  2  0  0  0  0  0  0
  -29.7530  -16.7910   21.4350 C   0  0  0  0  0  2  0  0  0  0  0  0
  -29.9770  -17.4420   18.5620 C   0  0  0  0  0  2  0  0  0  0  0  0
  -29.8090  -18.2210   20.8460 C   0  0  0  0  0  2  0  0  0  0  0  0
  -29.8820  -15.6890   20.4570 N   0  0  0  0  0  0  0  0  0  0  0  0
  -30.6060  -18.2800   19.6010 N   0  0  2  0  0  4  0  0  0  0  0  0
  -31.5070  -17.8680   19.7990 H   0  0  0  0  0  0  0  0  0  0  0  0
  -25.2570  -13.8950   20.6360 C   0  0  0  0  0  0  0  0  0  0  0  0
  -24.1720  -13.1190   20.9490 C   0  0  0  0  0  0  0  0  0  0  0  0
  -24.6460  -11.7720   20.9660 C   0  0  0  0  0  0  0  0  0  0  0  0
  -26.3180  -13.0140   20.4890 N   0  0  0  0  0  0  0  0  0  0  0  0
  -25.9520  -11.7350   20.7430 N   0  0  0  0  0  0  0  0  0  0  0  0
  -23.9230  -10.5040   21.1280 C   0  0  0  0  0  0  0  0  0  0  0  0
  -24.3210   -9.5510   22.0920 C   0  0  0  0  0  3  0  0  0  0  0  0
  -23.6030   -8.3440   22.2440 C   0  0  0  0  0  3  0  0  0  0  0  0
  -22.4750   -8.0860   21.4280 C   0  0  0  0  0  0  0  0  0  0  0  0
  -22.0980   -9.0280   20.4550 C   0  0  0  0  0  3  0  0  0  0  0  0
  -22.8170  -10.2260   20.3030 C   0  0  0  0  0  3  0  0  0  0  0  0
  -21.7320   -6.9330   21.4860 O   0  0  0  0  0  0  0  0  0  0  0  0
  -21.6320   -6.1970   22.6390 C   0  0  0  0  0  0  0  0  0  0  0  0
  -21.1340   -6.7550   23.8360 C   0  0  0  0  0  3  0  0  0  0  0  0
  -20.9820   -5.9440   24.9800 C   0  0  0  0  0  3  0  0  0  0  0  0
  -21.3210   -4.5780   24.9250 C   0  0  0  0  0  0  0  0  0  0  0  0
  -21.8130   -4.0210   23.7310 C   0  0  0  0  0  3  0  0  0  0  0  0
  -21.9630   -4.8290   22.5910 C   0  0  0  0  0  0  0  0  0  0  0  0
  -22.4200   -4.2830   21.4360 F   0  0  0  0  0  0  0  0  0  0  0  0
  -21.1690   -3.7980   26.0190 F   0  0  0  0  0  0  0  0  0  0  0  0
  -22.7550  -13.5820   21.1220 C   0  0  0  0  0  0  0  0  0  0  0  0
  -21.9840  -12.8830   21.9500 N   0  0  0  0  0  0  0  0  0  0  0  0
  -22.3370  -14.5940   20.5620 O   0  0  0  0  0  0  0  0  0  0  0  0
  -22.3340  -12.0620   22.4210 H   0  0  0  0  0  0  0  0  0  0  0  0
  -21.0280  -13.1670   22.1110 H   0  0  0  0  0  0  0  0  0  0  0  0
  -25.4230  -15.2650   20.4470 N   0  0  0  0  0  0  0  0  0  0  0  0
  -24.6500  -15.9200   20.4920 H   0  0  0  0  0  0  0  0  0  0  0  0
  -26.3030  -15.7060   20.2100 H   0  0  0  0  0  0  0  0  0  0  0  0
  -31.6810  -24.9350   18.6980 C   0  0  0  0  0  2  0  0  0  0  0  0
  -32.2680  -25.3360   19.9920 N   0  0  0  0  0  4  0  0  0  0  0  0
  -32.4270  -24.4820   20.5020 H   0  0  0  0  0  0  0  0  0  0  0  0
  -33.1780  -25.7330   19.8130 H   0  0  0  0  0  0  0  0  0  0  0  0
  -30.1520  -25.7140   21.3650 C   0  0  0  0  0  2  0  0  0  0  0  0
  -30.7040  -27.3940   20.1150 C   0  0  0  0  0  2  0  0  0  0  0  0
  -31.4800  -26.2730   20.8350 C   0  0  0  0  0  3  0  0  0  0  0  0
  -29.4790  -27.0290   20.9590 C   0  0  0  0  0  3  0  0  0  0  0  0
  -28.3850  -26.7320   20.1080 O   0  0  0  0  0  0  0  0  0  0  0  0
  -24.6080  -31.9260   23.2200 C   0  0  0  0  0  0  0  0  0  0  0  0
  -27.2660  -27.5230   20.1540 C   0  0  0  0  0  0  0  0  0  0  0  0
  -23.3980  -30.5080   21.5920 C   0  0  0  0  0  3  0  0  0  0  0  0
  -24.8520  -28.9830   20.1610 C   0  0  0  0  0  0  0  0  0  0  0  0
  -25.9140  -30.8990   21.3670 C   0  0  0  0  0  2  0  0  0  0  0  0
  -26.0040  -29.5260   20.7410 C   0  0  0  0  0  0  0  0  0  0  0  0
  -27.2140  -28.8080   20.7400 C   0  0  0  0  0  3  0  0  0  0  0  0
  -26.1050  -26.9900   19.5620 C   0  0  0  0  0  3  0  0  0  0  0  0
  -24.8960  -27.7090   19.5670 C   0  0  0  0  0  3  0  0  0  0  0  0
  -23.6020  -29.8270   20.2120 C   0  0  0  0  0  2  0  0  0  0  0  0
  -24.6590  -31.1250   22.1180 N   0  0  0  0  0  0  0  0  0  0  0  0
  -23.5300  -32.1910   23.7700 O   0  0  0  0  0  0  0  0  0  0  0  0
  -22.7680  -29.4820   22.5590 C   0  0  0  0  0  0  0  0  0  0  0  0
  -21.4450  -29.2850   22.4410 N   0  0  0  0  0  0  0  0  0  0  0  0
  -23.4620  -28.8660   23.3720 O   0  0  0  0  0  0  0  0  0  0  0  0
  -20.9440  -29.8320   21.7550 H   0  0  0  0  0  0  0  0  0  0  0  0
  -18.0850  -28.0650   22.9550 C   0  0  0  0  0  0  0  0  0  0  0  0
  -20.6420  -28.3440   23.2200 C   0  0  0  0  0  3  0  0  0  0  0  0
  -20.7550  -26.9120   22.6500 C   0  0  0  0  0  2  0  0  0  0  0  0
  -19.6540  -26.5750   21.6410 C   0  0  0  0  0  2  0  0  0  0  0  0
  -18.2710  -26.7120   22.2870 C   0  0  0  0  0  2  0  0  0  0  0  0
  -19.1990  -28.8370   23.3790 C   0  0  0  0  0  0  0  0  0  0  0  0
  -18.9730  -30.1030   23.9620 C   0  0  0  0  0  3  0  0  0  0  0  0
  -17.6670  -30.5990   24.1250 C   0  0  0  0  0  3  0  0  0  0  0  0
  -16.5660  -29.8230   23.7190 C   0  0  0  0  0  3  0  0  0  0  0  0
  -16.7760  -28.5580   23.1410 C   0  0  0  0  0  3  0  0  0  0  0  0
  -25.8980  -32.5670   23.8250 C   0  0  0  0  0  3  0  0  0  0  0  0
  -25.5850  -33.9640   24.1540 N   0  0  0  0  0  0  0  0  0  0  0  0
  -25.9140  -35.0140   23.3900 C   0  0  0  0  0  0  0  0  0  0  0  0
  -26.5840  -34.9100   22.3600 O   0  0  0  0  0  0  0  0  0  0  0  0
  -24.9890  -34.1180   24.9550 H   0  0  0  0  0  0  0  0  0  0  0  0
  -24.1800  -36.7930   23.0170 C   0  0  0  0  0  1  0  0  0  0  0  0
  -25.4160  -36.4000   23.8400 C   0  0  0  0  0  3  0  0  0  0  0  0
  -27.5410  -37.2880   24.6870 C   0  0  0  0  0  1  0  0  0  0  0  0
  -26.4450  -37.4560   23.7360 N   0  0  0  0  0  0  0  0  0  0  0  0
  -26.0360  -38.3750   23.8820 H   0  0  0  0  0  0  0  0  0  0  0  0
  -26.4360  -31.7990   25.0940 C   0  0  1  0  0  0  0  0  0  0  0  0
  -25.3560  -31.5540   26.1730 C   0  0  0  0  0  1  0  0  0  0  0  0
  -27.0240  -30.4260   24.6920 C   0  0  0  0  0  1  0  0  0  0  0  0
  -27.5920  -32.5990   25.7410 C   0  0  0  0  0  1  0  0  0  0  0  0
  1  3  1  0
  2  4  2  0
  3 55  1  0
  3  6  2  0
  4  6  1  0
  4 10  1  0
  5  1  2  0
  5  2  1  0
  8  9  1  0
  8  7  1  0
  9  2  1  0
  9  7  1  0
 11 10  1  0
 11 25  1  0
 13 18  1  0
 14 15  1  0
 14 13  1  0
 16 15  1  0
 16 30  1  0
 16 17  1  0
 18 12  1  0
 18 17  1  0
 19 12  2  0
 20 24  1  0
 22 20  1  0
 22 25  1  0
 23 21  1  0
 24 12  1  0
 24 21  1  0
 25 26  1  1
 25 23  1  0
 27 28  2  0
 28 29  1  0
 28 47  1  0
 29 32  1  0
 30 27  1  0
 30 31  1  0
 31 29  2  0
 32 33  1  0
 33 34  2  0
 35 38  1  0
 35 34  1  0
 36 35  2  0
 37 36  1  0
 37 32  2  0
 38 39  1  0
 39 40  1  0
 40 41  2  0
 42 41  1  0
 42 46  1  0
 43 42  2  0
 44 39  2  0
 44 43  1  0
 45 44  1  0
 47 48  1  0
 48 51  1  0
 48 50  1  0
 49 47  2  0
 52 53  1  0
 52 27  1  0
 54 52  1  0
 55 56  1  0
 56 57  1  0
 58 56  1  0
 60 61  1  0
 60 62  1  0
 61 56  1  0
 61 59  1  0
 62 63  1  0
 62 59  1  0
 63 65  1  0
 64 75  2  0
 65 70  1  0
 66 74  1  0
 66 76  1  0
 67 73  1  0
 67 69  1  0
 68 74  1  0
 69 68  1  0
 70 69  2  0
 71 72  1  0
 71 65  2  0
 72 67  2  0
 73 66  1  0
 74 64  1  0
 76 78  2  0
 77 76  1  0
 79 77  1  0
 80 89  2  0
 80 85  1  0
 81 77  1  0
 81 85  1  0
 82 81  1  0
 83 84  1  0
 83 82  1  0
 84 80  1  0
 85 86  2  0
 86 87  1  0
 88 87  2  0
 89 88  1  0
 90 64  1  0
 90 91  1  0
 90100  1  0
 91 94  1  0
 92 96  1  0
 92 91  1  0
 93 92  2  0
 96 95  1  0
 98 96  1  0
 98 99  1  0
 98 97  1  0
100103  1  1
100101  1  0
102100  1  0
M  ISO  4  12 100  24 100  62 101  63 101
M  END
>  <TORSDO>  (46) 
F 22

>  <SCORE>  (46) 
-13.076

>  <name>  (46) 
45

>  <ligand_id>  (46) 
45

>  <original_smiles>  (46) 
[H]c1nc(C2([H])C([H])([H])C2([H])[H])c(C([H])([H])C([H])([H])[N+]2([H])C([H])([H])C([H])([H])N(C(=O)N3C([H])([H])C([H])([H])C([H])([H])C([H])(n4nc(-c5c([H])c([H])c(Oc6c([H])c([H])c(F)c([H])c6F)c([H])c5[H])c(C(=O)N([H])[H])c4N([H])[H])C3([H])[H])C([H])([H])C2([H])[H])nc1C([H])([H])[N+]([H])([H])C1([H])C([H])([H])C([H])(Oc2c([H])c([H])c3c(c2[H])C([H])([H])N(C(=O)C([H])(N([H])C(=O)C([H])(N([H])C([H])([H])[H])C([H])([H])[H])C(C([H])([H])[H])(C([H])([H])[H])C([H])([H])[H])C([H])(C(=O)N([H])C2([H])c4c([H])c([H])c([H])c([H])c4C([H])([H])C([H])([H])C2([H])[H])C3([H])[H])C1([H])[H]

>  <smiles>  (46) 
[H]c1nc(C2([H])C([H])([H])C2([H])[H])c(C([H])([H])C([H])([H])[N+]2([H])C([H])([H])C([H])([H])N(C(=O)N3C([H])([H])C([H])([H])C([H])([H])C([H])(n4nc(-c5c([H])c([H])c(Oc6c([H])c([H])c(F)c([H])c6F)c([H])c5[H])c(C(=O)N([H])[H])c4N([H])[H])C3([H])[H])C([H])([H])C2([H])[H])nc1C([H])([H])[N+]([H])([H])C1([H])C([H])([H])C([H])(Oc2c([H])c([H])c3c(c2[H])C([H])([H])N(C(=O)C([H])(N([H])C(=O)C([H])(N([H])C([H])([H])[H])C([H])([H])[H])C(C([H])([H])[H])(C([H])([H])[H])C([H])([H])[H])C([H])(C(=O)N([H])C2([H])c4c([H])c([H])c([H])c([H])c4C([H])([H])C([H])([H])C2([H])[H])C3([H])[H])C1([H])[H]

$$$$
46:0:0
     RDKit          3D

 95104  0  0  1  0  0  0  0  0999 V2000
  -32.6780  -21.6620   21.8320 C   0  0  0  0  0  3  0  0  0  0  0  0
  -30.4650  -21.6150   21.9520 C   0  0  0  0  0  3  0  0  0  0  0  0
  -31.6240  -19.7260   21.9390 C   0  0  0  0  0  0  0  0  0  0  0  0
  -31.5540  -22.3720   21.8360 N   0  0  0  0  0  0  0  0  0  0  0  0
  -32.7900  -20.3410   21.8630 N   0  0  0  0  0  0  0  0  0  0  0  0
  -30.4230  -20.2890   22.0060 N   0  0  0  0  0  0  0  0  0  0  0  0
  -29.1410  -22.3650   21.9010 C   0  0  0  0  0  2  0  0  0  0  0  0
  -29.2300  -23.3440   20.8040 N   0  0  0  0  0  4  0  0  0  0  0  0
  -30.2050  -23.6120   20.8750 H   0  0  0  0  0  0  0  0  0  0  0  0
  -29.1260  -22.8400   19.9390 H   0  0  0  0  0  0  0  0  0  0  0  0
  -28.3320  -24.5260   20.8810 C   0  0  0  0  0  2  0  0  0  0  0  0
  -28.5510  -25.4950   19.6990 C   0  0  0  0  0  2  0  0  0  0  0  0
  -28.4070  -26.8510   20.1160 O   0  0  0  0  0  0  0  0  0  0  0  0
  -24.5770  -31.9140   23.2500 C   0  0  0  0  0  0  0  0  0  0  0  0
  -27.1840  -27.4830   20.1350 C   0  0  0  0  0  0  0  0  0  0  0  0
  -23.3460  -30.5160   21.6200 C   0  0  0  0  0  3  0  0  0  0  0  0
  -24.7770  -28.9700   20.1840 C   0  0  0  0  0  0  0  0  0  0  0  0
  -25.8670  -30.8730   21.3910 C   0  0  0  0  0  2  0  0  0  0  0  0
  -25.9390  -29.5020   20.7540 C   0  0  0  0  0  0  0  0  0  0  0  0
  -27.1390  -28.7640   20.7260 C   0  0  0  0  0  3  0  0  0  0  0  0
  -25.9960  -26.9480   19.5790 C   0  0  0  0  0  3  0  0  0  0  0  0
  -24.7990  -27.6910   19.5980 C   0  0  0  0  0  3  0  0  0  0  0  0
  -23.5360  -29.8310   20.2410 C   0  0  0  0  0  2  0  0  0  0  0  0
  -24.6150  -31.1160   22.1460 N   0  0  0  0  0  0  0  0  0  0  0  0
  -23.5040  -32.1900   23.8040 O   0  0  0  0  0  0  0  0  0  0  0  0
  -22.7030  -29.4980   22.5880 C   0  0  0  0  0  0  0  0  0  0  0  0
  -21.3770  -29.3190   22.4730 N   0  0  0  0  0  0  0  0  0  0  0  0
  -23.3940  -28.8720   23.3970 O   0  0  0  0  0  0  0  0  0  0  0  0
  -20.8820  -29.8740   21.7880 H   0  0  0  0  0  0  0  0  0  0  0  0
  -18.0070  -28.1300   22.9910 C   0  0  0  0  0  0  0  0  0  0  0  0
  -20.5660  -28.3830   23.2490 C   0  0  0  0  0  3  0  0  0  0  0  0
  -20.6630  -26.9510   22.6740 C   0  0  0  0  0  2  0  0  0  0  0  0
  -19.5550  -26.6290   21.6670 C   0  0  0  0  0  2  0  0  0  0  0  0
  -18.1780  -26.7790   22.3180 C   0  0  0  0  0  2  0  0  0  0  0  0
  -19.1290  -28.8910   23.4140 C   0  0  0  0  0  0  0  0  0  0  0  0
  -18.9160  -30.1570   24.0020 C   0  0  0  0  0  3  0  0  0  0  0  0
  -17.6130  -30.6630   24.1710 C   0  0  0  0  0  3  0  0  0  0  0  0
  -16.5050  -29.8980   23.7640 C   0  0  0  0  0  3  0  0  0  0  0  0
  -16.7030  -28.6340   23.1810 C   0  0  0  0  0  3  0  0  0  0  0  0
  -25.8740  -32.5370   23.8560 C   0  0  0  0  0  3  0  0  0  0  0  0
  -25.5830  -33.9400   24.1780 N   0  0  0  0  0  0  0  0  0  0  0  0
  -25.9240  -34.9830   23.4090 C   0  0  0  0  0  0  0  0  0  0  0  0
  -26.5890  -34.8640   22.3760 O   0  0  0  0  0  0  0  0  0  0  0  0
  -24.9960  -34.1070   24.9820 H   0  0  0  0  0  0  0  0  0  0  0  0
  -24.2150  -36.7890   23.0390 C   0  0  0  0  0  1  0  0  0  0  0  0
  -25.4510  -36.3790   23.8570 C   0  0  0  0  0  3  0  0  0  0  0  0
  -27.5930  -37.2460   24.6850 C   0  0  0  0  0  1  0  0  0  0  0  0
  -26.4960  -37.4190   23.7380 N   0  0  0  0  0  0  0  0  0  0  0  0
  -26.1000  -38.3450   23.8790 H   0  0  0  0  0  0  0  0  0  0  0  0
  -26.3980  -31.7690   25.1310 C   0  0  1  0  0  0  0  0  0  0  0  0
  -25.3140  -31.5450   26.2100 C   0  0  0  0  0  1  0  0  0  0  0  0
  -26.9670  -30.3860   24.7380 C   0  0  0  0  0  1  0  0  0  0  0  0
  -27.5620  -32.5570   25.7770 C   0  0  0  0  0  1  0  0  0  0  0  0
  -31.7310  -18.3760   21.8840 O   0  0  0  0  0  0  0  0  0  0  0  0
  -30.6110  -14.4250   20.2190 C   0  0  0  0  0  0  0  0  0  0  0  0
  -30.1990  -12.3570   18.9320 C   0  0  0  0  0  2  0  0  0  0  0  0
  -29.1980  -12.6120   17.7880 C   0  0  0  0  0  2  0  0  0  0  0  0
  -27.7500  -12.4400   18.2850 C   0  0  0  0  0  2  0  0  0  0  0  0
  -27.4740  -13.2310   19.5890 C   0  0  0  0  0  3  0  0  0  0  0  0
  -28.5810  -12.9720   20.6380 C   0  0  0  0  0  2  0  0  0  0  0  0
  -29.8840  -13.2890   20.0260 N   0  0  0  0  0  0  0  0  0  0  0  0
  -31.6700  -14.6470   19.6240 O   0  0  0  0  0  0  0  0  0  0  0  0
  -29.6320  -17.6230   20.8070 C   0  0  0  0  0  2  0  0  0  0  0  0
  -29.0570  -16.2180   20.6900 C   0  0  0  0  0  2  0  0  0  0  0  0
  -31.0140  -16.0640   22.0170 C   0  0  0  0  0  2  0  0  0  0  0  0
  -30.5750  -17.5410   22.0040 C   0  0  0  0  0  3  0  0  0  0  0  0
  -30.1210  -15.3080   21.1200 N   0  0  0  0  0  0  0  0  0  0  0  0
  -25.1020  -13.8170   20.3990 C   0  0  0  0  0  0  0  0  0  0  0  0
  -24.0580  -13.0340   20.8080 C   0  0  0  0  0  0  0  0  0  0  0  0
  -24.5310  -11.6860   20.7500 C   0  0  0  0  0  0  0  0  0  0  0  0
  -26.1450  -12.9470   20.1220 N   0  0  0  0  0  0  0  0  0  0  0  0
  -25.8070  -11.6590   20.3890 N   0  0  0  0  0  0  0  0  0  0  0  0
  -23.8280  -10.4150   20.9620 C   0  0  0  0  0  0  0  0  0  0  0  0
  -24.3040   -9.4530   21.8790 C   0  0  0  0  0  3  0  0  0  0  0  0
  -23.6020   -8.2450   22.0780 C   0  0  0  0  0  3  0  0  0  0  0  0
  -22.4080   -7.9920   21.3610 C   0  0  0  0  0  0  0  0  0  0  0  0
  -21.9510   -8.9440   20.4320 C   0  0  0  0  0  3  0  0  0  0  0  0
  -22.6550  -10.1430   20.2310 C   0  0  0  0  0  3  0  0  0  0  0  0
  -21.6730   -6.8360   21.4700 O   0  0  0  0  0  0  0  0  0  0  0  0
  -21.6740   -6.0910   22.6210 C   0  0  0  0  0  0  0  0  0  0  0  0
  -21.2820   -6.6360   23.8630 C   0  0  0  0  0  3  0  0  0  0  0  0
  -21.2310   -5.8150   25.0070 C   0  0  0  0  0  3  0  0  0  0  0  0
  -21.5610   -4.4490   24.9100 C   0  0  0  0  0  0  0  0  0  0  0  0
  -21.9450   -3.9040   23.6730 C   0  0  0  0  0  3  0  0  0  0  0  0
  -21.9990   -4.7220   22.5310 C   0  0  0  0  0  0  0  0  0  0  0  0
  -22.3500   -4.1860   21.3370 F   0  0  0  0  0  0  0  0  0  0  0  0
  -21.5040   -3.6590   26.0070 F   0  0  0  0  0  0  0  0  0  0  0  0
  -22.6680  -13.4940   21.1400 C   0  0  0  0  0  0  0  0  0  0  0  0
  -21.9830  -12.7820   22.0280 N   0  0  0  0  0  0  0  0  0  0  0  0
  -22.1980  -14.5190   20.6470 O   0  0  0  0  0  0  0  0  0  0  0  0
  -22.3750  -11.9520   22.4480 H   0  0  0  0  0  0  0  0  0  0  0  0
  -21.0520  -13.0710   22.2930 H   0  0  0  0  0  0  0  0  0  0  0  0
  -25.2450  -15.1910   20.2210 N   0  0  0  0  0  0  0  0  0  0  0  0
  -24.4750  -15.8350   20.3600 H   0  0  0  0  0  0  0  0  0  0  0  0
  -26.0750  -15.6390   19.8540 H   0  0  0  0  0  0  0  0  0  0  0  0
  1  4  2  0
  1  5  1  0
  2  7  1  0
  2  6  1  0
  3  6  2  0
  4  2  1  0
  5  3  2  0
  8  9  1  0
  8 11  1  0
  8  7  1  0
 10  8  1  0
 12 13  1  0
 12 11  1  0
 13 15  1  0
 14 25  2  0
 15 20  1  0
 16 24  1  0
 16 26  1  0
 17 23  1  0
 17 19  1  0
 18 24  1  0
 19 18  1  0
 20 19  2  0
 21 22  1  0
 21 15  2  0
 22 17  2  0
 23 16  1  0
 24 14  1  0
 26 28  2  0
 27 26  1  0
 29 27  1  0
 30 39  2  0
 30 35  1  0
 31 27  1  0
 31 35  1  0
 32 31  1  0
 33 34  1  0
 33 32  1  0
 34 30  1  0
 35 36  2  0
 36 37  1  0
 38 37  2  0
 39 38  1  0
 40 14  1  0
 40 41  1  0
 40 50  1  0
 41 44  1  0
 42 46  1  0
 42 41  1  0
 43 42  2  0
 46 45  1  0
 48 46  1  0
 48 49  1  0
 48 47  1  0
 50 53  1  1
 50 51  1  0
 52 50  1  0
 54  3  1  0
 55 67  1  0
 56 61  1  0
 57 58  1  0
 57 56  1  0
 59 58  1  0
 59 71  1  0
 59 60  1  0
 61 55  1  0
 61 60  1  0
 62 55  2  0
 63 66  1  0
 64 63  1  0
 64 67  1  0
 66 54  1  0
 66 65  1  0
 67 65  1  0
 68 69  2  0
 69 88  1  0
 70 69  1  0
 70 73  1  0
 71 72  1  0
 71 68  1  0
 72 70  2  0
 73 74  1  0
 74 75  2  0
 76 79  1  0
 76 75  1  0
 77 76  2  0
 78 77  1  0
 78 73  2  0
 79 80  1  0
 80 81  1  0
 81 82  2  0
 83 82  1  0
 83 87  1  0
 84 83  2  0
 85 80  2  0
 85 84  1  0
 86 85  1  0
 88 89  1  0
 89 92  1  0
 89 91  1  0
 90 88  2  0
 93 94  1  0
 93 68  1  0
 95 93  1  0
M  ISO  4  12 101  13 101  55 100  67 100
M  END
>  <TORSDO>  (47) 
F 21

>  <SCORE>  (47) 
-13.169

>  <name>  (47) 
46

>  <ligand_id>  (47) 
46

>  <original_smiles>  (47) 
[H]c1nc(OC2([H])C([H])([H])N(C(=O)N3C([H])([H])C([H])([H])C([H])([H])C([H])(n4nc(-c5c([H])c([H])c(Oc6c([H])c([H])c(F)c([H])c6F)c([H])c5[H])c(C(=O)N([H])[H])c4N([H])[H])C3([H])[H])C([H])([H])C2([H])[H])nc(C([H])([H])[N+]([H])([H])C([H])([H])C([H])([H])Oc2c([H])c([H])c3c(c2[H])C([H])([H])N(C(=O)C([H])(N([H])C(=O)C([H])(N([H])C([H])([H])[H])C([H])([H])[H])C(C([H])([H])[H])(C([H])([H])[H])C([H])([H])[H])C([H])(C(=O)N([H])C2([H])c4c([H])c([H])c([H])c([H])c4C([H])([H])C([H])([H])C2([H])[H])C3([H])[H])n1

>  <smiles>  (47) 
[H]c1nc(OC2([H])C([H])([H])N(C(=O)N3C([H])([H])C([H])([H])C([H])([H])C([H])(n4nc(-c5c([H])c([H])c(Oc6c([H])c([H])c(F)c([H])c6F)c([H])c5[H])c(C(=O)N([H])[H])c4N([H])[H])C3([H])[H])C([H])([H])C2([H])[H])nc(C([H])([H])[N+]([H])([H])C([H])([H])C([H])([H])Oc2c([H])c([H])c3c(c2[H])C([H])([H])N(C(=O)C([H])(N([H])C(=O)C([H])(N([H])C([H])([H])[H])C([H])([H])[H])C(C([H])([H])[H])(C([H])([H])[H])C([H])([H])[H])C([H])(C(=O)N([H])C2([H])c4c([H])c([H])c([H])c([H])c4C([H])([H])C([H])([H])C2([H])[H])C3([H])[H])n1

$$$$
47:0:0
     RDKit          3D

 99107  0  0  1  0  0  0  0  0999 V2000
  -32.6130  -18.3470   20.1690 C   0  0  0  0  0  1  0  0  0  0  0  0
  -33.7780  -17.2970   18.9620 C   0  0  0  0  0  2  0  0  0  0  0  0
  -30.8960  -18.9780   19.5620 C   0  0  0  0  0  3  0  0  0  0  0  0
  -33.1450  -16.9130   17.1550 C   0  0  0  0  0  3  0  0  0  0  0  0
  -30.2780  -18.4050   17.8540 C   0  0  0  0  0  0  0  0  0  0  0  0
  -31.3900  -17.4380   16.6690 N   0  0  0  0  0  0  0  0  0  0  0  0
  -28.7900  -19.0920   17.3220 Cl  0  0  0  0  0  0  0  0  0  0  0  0
  -30.3270  -20.5560   20.1360 C   0  0  0  0  0  2  0  0  0  0  0  0
  -30.1370  -22.0870   19.4550 N   0  0  0  0  0  4  0  0  0  0  0  0
  -29.4630  -21.9700   18.7140 H   0  0  0  0  0  0  0  0  0  0  0  0
  -31.0120  -22.2700   18.9860 H   0  0  0  0  0  0  0  0  0  0  0  0
  -28.9290  -23.2620   21.4430 C   0  0  0  0  0  1  0  0  0  0  0  0
  -29.7480  -23.5620   20.1740 C   0  0  0  0  0  3  0  0  0  0  0  0
  -29.0070  -25.0750   19.4820 C   0  0  0  0  0  2  0  0  0  0  0  0
  -28.8710  -26.6510   19.9910 O   0  0  0  0  0  0  0  0  0  0  0  0
  -24.5840  -31.9820   23.1790 C   0  0  0  0  0  0  0  0  0  0  0  0
  -27.7220  -27.6140   19.9350 C   0  0  0  0  0  0  0  0  0  0  0  0
  -23.5690  -30.5630   21.4370 C   0  0  0  0  0  3  0  0  0  0  0  0
  -25.2080  -29.2160   19.9490 C   0  0  0  0  0  0  0  0  0  0  0  0
  -26.0920  -31.0740   21.3450 C   0  0  0  0  0  2  0  0  0  0  0  0
  -26.3330  -29.7200   20.6140 C   0  0  0  0  0  0  0  0  0  0  0  0
  -27.5760  -28.9390   20.5850 C   0  0  0  0  0  3  0  0  0  0  0  0
  -26.5490  -27.2590   19.2270 C   0  0  0  0  0  3  0  0  0  0  0  0
  -25.3390  -28.0090   19.2380 C   0  0  0  0  0  3  0  0  0  0  0  0
  -23.8890  -29.9860   20.0280 C   0  0  0  0  0  2  0  0  0  0  0  0
  -24.7650  -31.2320   22.0430 N   0  0  0  0  0  0  0  0  0  0  0  0
  -23.4640  -32.1200   23.6950 O   0  0  0  0  0  0  0  0  0  0  0  0
  -22.9770  -29.4450   22.3340 C   0  0  0  0  0  0  0  0  0  0  0  0
  -21.6810  -29.1300   22.1620 N   0  0  0  0  0  0  0  0  0  0  0  0
  -23.6920  -28.8630   23.1530 O   0  0  0  0  0  0  0  0  0  0  0  0
  -21.1480  -29.6570   21.4840 H   0  0  0  0  0  0  0  0  0  0  0  0
  -18.4480  -27.5240   22.5340 C   0  0  0  0  0  0  0  0  0  0  0  0
  -20.9600  -28.0590   22.8570 C   0  0  0  0  0  3  0  0  0  0  0  0
  -21.2270  -26.6880   22.1940 C   0  0  0  0  0  2  0  0  0  0  0  0
  -20.1810  -26.3110   21.1420 C   0  0  0  0  0  2  0  0  0  0  0  0
  -18.7850  -26.2520   21.7710 C   0  0  0  0  0  2  0  0  0  0  0  0
  -19.4690  -28.3800   23.0290 C   0  0  0  0  0  0  0  0  0  0  0  0
  -19.1010  -29.5630   23.7060 C   0  0  0  0  0  3  0  0  0  0  0  0
  -17.7460  -29.8980   23.8860 C   0  0  0  0  0  3  0  0  0  0  0  0
  -16.7400  -29.0430   23.4050 C   0  0  0  0  0  3  0  0  0  0  0  0
  -17.0910  -27.8550   22.7370 C   0  0  0  0  0  3  0  0  0  0  0  0
  -25.7690  -32.7190   23.8750 C   0  0  0  0  0  3  0  0  0  0  0  0
  -25.3370  -34.0950   24.1760 N   0  0  0  0  0  0  0  0  0  0  0  0
  -25.6300  -35.1700   23.4330 C   0  0  0  0  0  0  0  0  0  0  0  0
  -26.3540  -35.1130   22.4370 O   0  0  0  0  0  0  0  0  0  0  0  0
  -24.6960  -34.2110   24.9470 H   0  0  0  0  0  0  0  0  0  0  0  0
  -23.8020  -36.8440   22.9930 C   0  0  0  0  0  1  0  0  0  0  0  0
  -25.0280  -36.5240   23.8640 C   0  0  0  0  0  3  0  0  0  0  0  0
  -27.0460  -37.5660   24.7980 C   0  0  0  0  0  1  0  0  0  0  0  0
  -25.9890  -37.6470   23.7930 N   0  0  0  0  0  0  0  0  0  0  0  0
  -25.5130  -38.5380   23.9030 H   0  0  0  0  0  0  0  0  0  0  0  0
  -26.2540  -31.9980   25.1940 C   0  0  1  0  0  0  0  0  0  0  0  0
  -25.1100  -31.6750   26.1850 C   0  0  0  0  0  1  0  0  0  0  0  0
  -26.9780  -30.6720   24.8660 C   0  0  0  0  0  1  0  0  0  0  0  0
  -27.2850  -32.8890   25.9260 C   0  0  0  0  0  1  0  0  0  0  0  0
  -34.1570  -17.2230   16.0570 C   0  0  0  0  0  2  0  0  0  0  0  0
  -34.8710  -15.3600   19.4200 C   0  0  0  0  0  2  0  0  0  0  0  0
  -33.6970  -13.5190   17.8220 C   0  0  0  0  0  2  0  0  0  0  0  0
  -32.5990  -13.9680   16.8100 C   0  0  0  0  0  2  0  0  0  0  0  0
  -31.2140  -14.0990   17.4610 C   0  0  0  0  0  2  0  0  0  0  0  0
  -31.2650  -14.6740   18.8860 C   0  0  0  0  0  3  0  0  0  0  0  0
  -32.4510  -14.1190   19.7360 C   0  0  0  0  0  2  0  0  0  0  0  0
  -33.7390  -14.4380   19.0360 N   0  0  0  0  0  0  0  0  0  0  0  0
  -35.7060  -14.4130   19.5570 O   0  0  0  0  0  1  0  0  0  0  0  0
  -34.4080  -19.1960   18.7470 C   0  0  0  0  0  2  0  0  0  0  0  0
  -36.4160  -18.6990   18.0800 C   0  0  0  0  0  2  0  0  0  0  0  0
  -33.8110  -19.4260   17.3230 C   0  0  0  0  0  2  0  0  0  0  0  0
  -36.0660  -18.8770   16.5590 C   0  0  0  0  0  2  0  0  0  0  0  0
  -35.2740  -17.8400   18.8100 N   0  0  0  0  0  0  0  0  0  0  0  0
  -34.6250  -18.5820   16.4380 N   0  0  2  0  0  4  0  0  0  0  0  0
  -34.7860  -18.0820   17.3100 H   0  0  0  0  0  0  0  0  0  0  0  0
  -29.3590  -15.8460   20.1070 C   0  0  0  0  0  0  0  0  0  0  0  0
  -28.1090  -15.4410   20.4640 C   0  0  0  0  0  0  0  0  0  0  0  0
  -28.0270  -14.0690   20.0710 C   0  0  0  0  0  0  0  0  0  0  0  0
  -29.9830  -14.7350   19.5600 N   0  0  0  0  0  0  0  0  0  0  0  0
  -29.1860  -13.6450   19.5870 N   0  0  0  0  0  0  0  0  0  0  0  0
  -26.8880  -13.1500   20.0640 C   0  0  0  0  0  0  0  0  0  0  0  0
  -26.9280  -11.9330   20.7780 C   0  0  0  0  0  3  0  0  0  0  0  0
  -25.8130  -11.0720   20.7770 C   0  0  0  0  0  3  0  0  0  0  0  0
  -24.6460  -11.4260   20.0620 C   0  0  0  0  0  0  0  0  0  0  0  0
  -24.6220  -12.6240   19.3280 C   0  0  0  0  0  3  0  0  0  0  0  0
  -25.7350  -13.4800   19.3230 C   0  0  0  0  0  3  0  0  0  0  0  0
  -23.5240  -10.6370   19.9890 O   0  0  0  0  0  0  0  0  0  0  0  0
  -23.0950   -9.9020   21.0650 C   0  0  0  0  0  0  0  0  0  0  0  0
  -22.7900  -10.5040   22.3060 C   0  0  0  0  0  3  0  0  0  0  0  0
  -22.2850   -9.7200   23.3630 C   0  0  0  0  0  3  0  0  0  0  0  0
  -22.0790   -8.3400   23.1790 C   0  0  0  0  0  0  0  0  0  0  0  0
  -22.3770   -7.7400   21.9430 C   0  0  0  0  0  3  0  0  0  0  0  0
  -22.8820   -8.5200   20.8880 C   0  0  0  0  0  0  0  0  0  0  0  0
  -23.1510   -7.9430   19.6930 F   0  0  0  0  0  0  0  0  0  0  0  0
  -21.5860   -7.5870   24.1910 F   0  0  0  0  0  0  0  0  0  0  0  0
  -27.0140  -16.3030   21.0210 C   0  0  0  0  0  0  0  0  0  0  0  0
  -26.1300  -15.7200   21.8210 N   0  0  0  0  0  0  0  0  0  0  0  0
  -26.9620  -17.5120   20.7880 O   0  0  0  0  0  0  0  0  0  0  0  0
  -26.1850  -14.7320   22.0230 H   0  0  0  0  0  0  0  0  0  0  0  0
  -25.3890  -16.2650   22.2370 H   0  0  0  0  0  0  0  0  0  0  0  0
  -29.9930  -17.0750   20.1500 N   0  0  0  0  0  0  0  0  0  0  0  0
  -29.5090  -17.9280   20.4000 H   0  0  0  0  0  0  0  0  0  0  0  0
  -30.8530  -17.2450   19.6400 H   0  0  0  0  0  0  0  0  0  0  0  0
  3  8  1  0
  3  1  1  0
  4  6  1  0
  4  2  1  0
  5  3  1  0
  6  5  2  0
  7  5  1  0
  9  8  1  0
  9 13  1  0
 10  9  1  0
 11  9  1  0
 13 12  1  0
 14 15  1  0
 14 13  1  0
 16 27  2  0
 17 15  1  0
 17 22  1  0
 18 26  1  0
 18 28  1  0
 19 25  1  0
 19 21  1  0
 20 26  1  0
 21 20  1  0
 22 21  2  0
 23 24  1  0
 23 17  2  0
 24 19  2  0
 25 18  1  0
 26 16  1  0
 28 30  2  0
 29 28  1  0
 31 29  1  0
 32 41  2  0
 32 37  1  0
 33 29  1  0
 33 37  1  0
 34 33  1  0
 35 36  1  0
 35 34  1  0
 36 32  1  0
 37 38  2  0
 38 39  1  0
 40 39  2  0
 41 40  1  0
 42 16  1  0
 42 43  1  0
 42 52  1  0
 43 46  1  0
 44 48  1  0
 44 43  1  0
 45 44  2  0
 48 47  1  0
 50 48  1  0
 50 51  1  0
 50 49  1  0
 52 55  1  1
 52 53  1  0
 54 52  1  0
 56 70  1  0
 56  4  1  0
 57 64  1  0
 58 63  1  0
 59 60  1  0
 59 58  1  0
 61 60  1  0
 61 75  1  0
 61 62  1  0
 63 57  1  0
 63 62  1  0
 65 69  1  0
 67 65  1  0
 68 66  1  0
 69 66  1  0
 69  2  1  0
 70 68  1  0
 70 71  1  1
 70 67  1  0
 72 97  1  0
 72 73  2  0
 73 92  1  0
 74 73  1  0
 75 76  1  0
 75 72  1  0
 76 74  2  0
 77 74  1  0
 77 78  1  0
 79 78  2  0
 80 79  1  0
 81 80  2  0
 82 81  1  0
 82 77  2  0
 83 80  1  0
 83 84  1  0
 84 85  1  0
 85 86  2  0
 87 86  1  0
 87 91  1  0
 88 87  2  0
 89 84  2  0
 89 88  1  0
 90 89  1  0
 92 93  1  0
 93 95  1  0
 93 96  1  0
 94 92  2  0
 97 98  1  0
 99 97  1  0
M  ISO  4  14 101  15 101  57 100  69 100
M  END
>  <TORSDO>  (48) 
F 21

>  <SCORE>  (48) 
-5.762

>  <name>  (48) 
47

>  <ligand_id>  (48) 
47

>  <original_smiles>  (48) 
[H]c1c(C([H])([H])[N+]2([H])C([H])([H])C([H])([H])N(C(=O)N3C([H])([H])C([H])([H])C([H])([H])C([H])(n4nc(-c5c([H])c([H])c(Oc6c([H])c([H])c(F)c([H])c6F)c([H])c5[H])c(C(=O)N([H])[H])c4N([H])[H])C3([H])[H])C([H])([H])C2([H])[H])nc(Cl)c(C([H])([H])[N+]([H])([H])C([H])(C([H])([H])[H])C([H])([H])Oc2c([H])c([H])c3c(c2[H])C([H])([H])N(C(=O)C([H])(N([H])C(=O)C([H])(N([H])C([H])([H])[H])C([H])([H])[H])C(C([H])([H])[H])(C([H])([H])[H])C([H])([H])[H])C([H])(C(=O)N([H])C2([H])c4c([H])c([H])c([H])c([H])c4C([H])([H])C([H])([H])C2([H])[H])C3([H])[H])c1[H]

>  <smiles>  (48) 
[H]c1c(C([H])([H])[N+]2([H])C([H])([H])C([H])([H])N(C(=O)N3C([H])([H])C([H])([H])C([H])([H])C([H])(n4nc(-c5c([H])c([H])c(Oc6c([H])c([H])c(F)c([H])c6F)c([H])c5[H])c(C(=O)N([H])[H])c4N([H])[H])C3([H])[H])C([H])([H])C2([H])[H])nc(Cl)c(C([H])([H])[N+]([H])([H])C([H])(C([H])([H])[H])C([H])([H])Oc2c([H])c([H])c3c(c2[H])C([H])([H])N(C(=O)C([H])(N([H])C(=O)C([H])(N([H])C([H])([H])[H])C([H])([H])[H])C(C([H])([H])[H])(C([H])([H])[H])C([H])([H])[H])C([H])(C(=O)N([H])C2([H])c4c([H])c([H])c([H])c([H])c4C([H])([H])C([H])([H])C2([H])[H])C3([H])[H])c1[H]

$$$$
48:0:0
     RDKit          3D

 99110  0  0  1  0  0  0  0  0999 V2000
  -27.8530  -22.8200   20.0990 C   0  0  0  0  0  2  0  0  0  0  0  0
  -29.9940  -22.5150   20.2920 C   0  0  0  0  0  0  0  0  0  0  0  0
  -29.3170  -21.7540   21.2300 C   0  0  0  0  0  0  0  0  0  0  0  0
  -27.9490  -21.9010   21.0470 N   0  0  0  0  0  2  0  0  0  0  0  0
  -29.0260  -23.3270   19.6760 N   0  0  0  0  0  0  0  0  0  0  0  0
  -32.3730  -21.6430   19.9820 C   0  0  0  0  0  0  0  0  0  0  0  0
  -31.3810  -22.5590   19.9170 C   0  0  0  0  0  3  0  0  0  0  0  0
  -33.8390  -21.8040   19.6470 C   0  0  0  0  0  2  0  0  0  0  0  0
  -34.0030  -20.6600   20.6660 C   0  0  0  0  0  2  0  0  0  0  0  0
  -32.5220  -20.2180   20.5230 C   0  0  0  0  0  3  0  0  0  0  0  0
  -32.8840  -17.8230   19.8490 C   0  0  0  0  0  2  0  0  0  0  0  0
  -31.0010  -18.4990   19.4780 C   0  0  0  0  0  2  0  0  0  0  0  0
  -31.7520  -17.2570   19.0020 C   0  0  0  0  0  3  0  0  0  0  0  0
  -32.3270  -19.1440   19.5100 N   0  0  1  0  0  4  0  0  0  0  0  0
  -32.6130  -19.4240   18.5840 H   0  0  0  0  0  0  0  0  0  0  0  0
  -31.7740  -14.7710   19.0940 C   0  0  0  0  0  0  0  0  0  0  0  0
  -31.4760  -12.3300   18.9400 C   0  0  0  0  0  2  0  0  0  0  0  0
  -30.4910  -11.9840   17.8060 C   0  0  0  0  0  2  0  0  0  0  0  0
  -29.0430  -12.0000   18.3260 C   0  0  0  0  0  2  0  0  0  0  0  0
  -28.7090  -13.2870   19.1250 C   0  0  0  0  0  3  0  0  0  0  0  0
  -29.8070  -13.5980   20.1700 C   0  0  0  0  0  2  0  0  0  0  0  0
  -31.1050  -13.6500   19.4760 N   0  0  0  0  0  0  0  0  0  0  0  0
  -32.8120  -14.7360   18.4290 O   0  0  0  0  0  0  0  0  0  0  0  0
  -31.2160  -15.9490   19.4250 N   0  0  0  0  0  0  0  0  0  0  0  0
  -30.3650  -15.9160   19.9660 H   0  0  0  0  0  0  0  0  0  0  0  0
  -26.5210  -14.2210   20.1130 C   0  0  0  0  0  0  0  0  0  0  0  0
  -25.3860  -13.6050   20.5680 C   0  0  0  0  0  0  0  0  0  0  0  0
  -25.6180  -12.2020   20.4360 C   0  0  0  0  0  0  0  0  0  0  0  0
  -27.3830  -13.2020   19.7380 N   0  0  0  0  0  0  0  0  0  0  0  0
  -26.8470  -11.9790   19.9870 N   0  0  0  0  0  0  0  0  0  0  0  0
  -24.7220  -11.0600   20.6570 C   0  0  0  0  0  0  0  0  0  0  0  0
  -25.0570  -10.0210   21.5530 C   0  0  0  0  0  3  0  0  0  0  0  0
  -24.1700   -8.9430   21.7630 C   0  0  0  0  0  3  0  0  0  0  0  0
  -22.9330   -8.8970   21.0770 C   0  0  0  0  0  0  0  0  0  0  0  0
  -22.6140   -9.9230   20.1700 C   0  0  0  0  0  3  0  0  0  0  0  0
  -23.5000  -10.9930   19.9580 C   0  0  0  0  0  3  0  0  0  0  0  0
  -22.0210   -7.8770   21.1990 O   0  0  0  0  0  0  0  0  0  0  0  0
  -21.8790   -7.1740   22.3680 C   0  0  0  0  0  0  0  0  0  0  0  0
  -21.5360   -7.8070   23.5820 C   0  0  0  0  0  3  0  0  0  0  0  0
  -21.3330   -7.0370   24.7460 C   0  0  0  0  0  3  0  0  0  0  0  0
  -21.4620   -5.6370   24.6950 C   0  0  0  0  0  0  0  0  0  0  0  0
  -21.7990   -5.0040   23.4860 C   0  0  0  0  0  3  0  0  0  0  0  0
  -22.0040   -5.7710   22.3250 C   0  0  0  0  0  0  0  0  0  0  0  0
  -22.3070   -5.1530   21.1580 F   0  0  0  0  0  0  0  0  0  0  0  0
  -21.2600   -4.8960   25.8100 F   0  0  0  0  0  0  0  0  0  0  0  0
  -24.1190  -14.2790   21.0110 C   0  0  0  0  0  0  0  0  0  0  0  0
  -23.4020  -13.6770   21.9550 N   0  0  0  0  0  0  0  0  0  0  0  0
  -23.7830  -15.3710   20.5560 O   0  0  0  0  0  0  0  0  0  0  0  0
  -23.6890  -12.7910   22.3430 H   0  0  0  0  0  0  0  0  0  0  0  0
  -22.5540  -14.1100   22.2920 H   0  0  0  0  0  0  0  0  0  0  0  0
  -26.8850  -15.5570   19.9690 N   0  0  0  0  0  0  0  0  0  0  0  0
  -26.2460  -16.3160   20.1770 H   0  0  0  0  0  0  0  0  0  0  0  0
  -27.7540  -15.8730   19.5540 H   0  0  0  0  0  0  0  0  0  0  0  0
  -29.7780  -21.4510   23.7760 C   0  0  0  0  0  2  0  0  0  0  0  0
  -31.0980  -21.2560   23.0840 C   0  0  0  0  0  2  0  0  0  0  0  0
  -29.8100  -20.9070   22.3640 C   0  0  0  0  0  3  0  0  0  0  0  0
  -29.1970  -24.4760   18.7630 C   0  0  0  0  0  2  0  0  0  0  0  0
  -27.9820  -25.4340   18.8530 C   0  0  0  0  0  2  0  0  0  0  0  0
  -28.1350  -26.8390   18.5560 O   0  0  0  0  0  0  0  0  0  0  0  0
  -24.7370  -31.2880   22.9670 C   0  0  0  0  0  0  0  0  0  0  0  0
  -26.9830  -27.5810   18.7830 C   0  0  0  0  0  0  0  0  0  0  0  0
  -23.3330  -30.1380   21.2920 C   0  0  0  0  0  3  0  0  0  0  0  0
  -24.5890  -28.9660   19.4120 C   0  0  0  0  0  0  0  0  0  0  0  0
  -25.7960  -30.6460   20.8030 C   0  0  0  0  0  2  0  0  0  0  0  0
  -25.8150  -29.4190   19.9160 C   0  0  0  0  0  0  0  0  0  0  0  0
  -27.0160  -28.7340   19.6030 C   0  0  0  0  0  3  0  0  0  0  0  0
  -25.7310  -27.1810   18.2460 C   0  0  0  0  0  3  0  0  0  0  0  0
  -24.5420  -27.8460   18.5730 C   0  0  0  0  0  3  0  0  0  0  0  0
  -23.3470  -29.7350   19.7960 C   0  0  0  0  0  2  0  0  0  0  0  0
  -24.6490  -30.6950   21.7440 N   0  0  0  0  0  0  0  0  0  0  0  0
  -23.7420  -31.4080   23.6950 O   0  0  0  0  0  0  0  0  0  0  0  0
  -22.8580  -28.9280   22.1300 C   0  0  0  0  0  0  0  0  0  0  0  0
  -21.5670  -28.5810   22.0030 N   0  0  0  0  0  0  0  0  0  0  0  0
  -23.6450  -28.3110   22.8520 O   0  0  0  0  0  0  0  0  0  0  0  0
  -20.9840  -29.1430   21.3960 H   0  0  0  0  0  0  0  0  0  0  0  0
  -18.4780  -26.7140   22.1930 C   0  0  0  0  0  0  0  0  0  0  0  0
  -20.9060  -27.4590   22.6700 C   0  0  0  0  0  3  0  0  0  0  0  0
  -21.3340  -26.1110   22.0460 C   0  0  0  0  0  2  0  0  0  0  0  0
  -20.3910  -25.6310   20.9390 C   0  0  0  0  0  2  0  0  0  0  0  0
  -18.9680  -25.4650   21.4800 C   0  0  0  0  0  2  0  0  0  0  0  0
  -19.3880  -27.6580   22.7380 C   0  0  0  0  0  0  0  0  0  0  0  0
  -18.8800  -28.8200   23.3580 C   0  0  0  0  0  3  0  0  0  0  0  0
  -17.4930  -29.0440   23.4430 C   0  0  0  0  0  3  0  0  0  0  0  0
  -16.5960  -28.0980   22.9170 C   0  0  0  0  0  3  0  0  0  0  0  0
  -17.0880  -26.9350   22.2980 C   0  0  0  0  0  3  0  0  0  0  0  0
  -26.0860  -31.8640   23.4970 C   0  0  0  0  0  3  0  0  0  0  0  0
  -25.7910  -33.1440   24.1540 N   0  0  0  0  0  0  0  0  0  0  0  0
  -26.0990  -34.3470   23.6480 C   0  0  0  0  0  0  0  0  0  0  0  0
  -26.7340  -34.4900   22.6010 O   0  0  0  0  0  0  0  0  0  0  0  0
  -25.2230  -33.1050   24.9880 H   0  0  0  0  0  0  0  0  0  0  0  0
  -24.3960  -36.1940   23.7380 C   0  0  0  0  0  1  0  0  0  0  0  0
  -25.6260  -35.5870   24.4300 C   0  0  0  0  0  3  0  0  0  0  0  0
  -27.7660  -36.2080   25.4590 C   0  0  0  0  0  1  0  0  0  0  0  0
  -26.6730  -36.6200   24.5830 N   0  0  0  0  0  0  0  0  0  0  0  0
  -26.2780  -37.4810   24.9510 H   0  0  0  0  0  0  0  0  0  0  0  0
  -26.8340  -30.8870   24.4840 C   0  0  1  0  0  0  0  0  0  0  0  0
  -25.9440  -30.3700   25.6380 C   0  0  0  0  0  1  0  0  0  0  0  0
  -27.3840  -29.6580   23.7250 C   0  0  0  0  0  1  0  0  0  0  0  0
  -28.0560  -31.6040   25.1050 C   0  0  0  0  0  1  0  0  0  0  0  0
  1  4  1  0
  2  3  2  0
  3 56  1  0
  4  3  1  0
  5  1  1  0
  5  2  1  0
  6 10  1  0
  7  6  2  0
  7  2  1  0
  8  6  1  0
  8  9  1  0
 10  9  1  0
 12 14  1  0
 13 24  1  0
 13 12  1  0
 13 11  1  0
 14 15  1  6
 14 11  1  0
 14 10  1  0
 16 24  1  0
 16 22  1  0
 17 22  1  0
 18 19  1  0
 18 17  1  0
 20 19  1  0
 20 29  1  0
 20 21  1  0
 22 21  1  0
 23 16  2  0
 24 25  1  0
 26 27  2  0
 27 46  1  0
 28 27  1  0
 28 31  1  0
 29 30  1  0
 29 26  1  0
 30 28  2  0
 31 32  1  0
 32 33  2  0
 34 37  1  0
 34 33  1  0
 35 34  2  0
 36 35  1  0
 36 31  2  0
 37 38  1  0
 38 39  1  0
 39 40  2  0
 41 40  1  0
 41 45  1  0
 42 41  2  0
 43 38  2  0
 43 42  1  0
 44 43  1  0
 46 47  1  0
 47 50  1  0
 47 49  1  0
 48 46  2  0
 51 26  1  0
 51 52  1  0
 53 51  1  0
 55 54  1  0
 56 55  1  0
 56 54  1  0
 57 58  1  0
 57  5  1  0
 59 61  1  0
 59 58  1  0
 60 71  2  0
 61 66  1  0
 62 70  1  0
 62 72  1  0
 63 69  1  0
 63 65  1  0
 64 70  1  0
 65 64  1  0
 66 65  2  0
 67 68  1  0
 67 61  2  0
 68 63  2  0
 69 62  1  0
 70 60  1  0
 72 74  2  0
 73 72  1  0
 75 73  1  0
 76 85  2  0
 76 81  1  0
 77 73  1  0
 77 81  1  0
 78 77  1  0
 79 80  1  0
 79 78  1  0
 80 76  1  0
 81 82  2  0
 82 83  1  0
 84 83  2  0
 85 84  1  0
 86 60  1  0
 86 87  1  0
 86 96  1  0
 87 90  1  0
 88 87  1  0
 88 92  1  0
 89 88  2  0
 92 91  1  0
 92 94  1  0
 94 95  1  0
 94 93  1  0
 96 99  1  1
 96 97  1  0
 98 96  1  0
M  ISO  4  16 100  24 100  58 101  59 101
M  END
>  <TORSDO>  (49) 
F 21

>  <SCORE>  (49) 
-10.632

>  <name>  (49) 
48

>  <ligand_id>  (49) 
48

>  <original_smiles>  (49) 
[H]C(=C1C([H])([H])C([H])([H])C1([H])[N+]1([H])C([H])([H])C([H])(N([H])C(=O)N2C([H])([H])C([H])([H])C([H])([H])C([H])(n3nc(-c4c([H])c([H])c(Oc5c([H])c([H])c(F)c([H])c5F)c([H])c4[H])c(C(=O)N([H])[H])c3N([H])[H])C2([H])[H])C1([H])[H])c1c(C2([H])C([H])([H])C2([H])[H])nc([H])n1C([H])([H])C([H])([H])Oc1c([H])c([H])c2c(c1[H])C([H])([H])N(C(=O)C([H])(N([H])C(=O)C([H])(N([H])C([H])([H])[H])C([H])([H])[H])C(C([H])([H])[H])(C([H])([H])[H])C([H])([H])[H])C([H])(C(=O)N([H])C1([H])c3c([H])c([H])c([H])c([H])c3C([H])([H])C([H])([H])C1([H])[H])C2([H])[H]

>  <smiles>  (49) 
[H]C(=C1C([H])([H])C([H])([H])C1([H])[N+]1([H])C([H])([H])C([H])(N([H])C(=O)N2C([H])([H])C([H])([H])C([H])([H])C([H])(n3nc(-c4c([H])c([H])c(Oc5c([H])c([H])c(F)c([H])c5F)c([H])c4[H])c(C(=O)N([H])[H])c3N([H])[H])C2([H])[H])C1([H])[H])c1c(C2([H])C([H])([H])C2([H])[H])nc([H])n1C([H])([H])C([H])([H])Oc1c([H])c([H])c2c(c1[H])C([H])([H])N(C(=O)C([H])(N([H])C(=O)C([H])(N([H])C([H])([H])[H])C([H])([H])[H])C(C([H])([H])[H])(C([H])([H])[H])C([H])([H])[H])C([H])(C(=O)N([H])C1([H])c3c([H])c([H])c([H])c([H])c3C([H])([H])C([H])([H])C1([H])[H])C2([H])[H]

$$$$
49:0:0
     RDKit          3D

 94103  0  0  1  0  0  0  0  0999 V2000
  -29.7270  -19.0920   19.8270 C   0  0  0  0  0  3  0  0  0  0  0  0
  -32.0000  -20.2450   20.7240 C   0  0  0  0  0  3  0  0  0  0  0  0
  -30.9490  -18.3750   19.8600 C   0  0  0  0  0  0  0  0  0  0  0  0
  -30.7910  -20.9800   20.6380 C   0  0  0  0  0  0  0  0  0  0  0  0
  -32.0860  -18.9460   20.3320 N   0  0  0  0  0  0  0  0  0  0  0  0
  -29.6410  -20.3930   20.2070 N   0  0  0  0  0  0  0  0  0  0  0  0
  -31.0500  -16.9600   19.2800 C   0  0  0  0  0  2  0  0  0  0  0  0
  -31.0710  -14.5490   19.6670 C   0  0  0  0  0  0  0  0  0  0  0  0
  -30.3880  -12.5320   18.3990 C   0  0  0  0  0  2  0  0  0  0  0  0
  -29.3220  -12.8650   17.3360 C   0  0  0  0  0  2  0  0  0  0  0  0
  -27.9110  -12.7700   17.9430 C   0  0  0  0  0  2  0  0  0  0  0  0
  -27.7910  -13.5090   19.3020 C   0  0  0  0  0  3  0  0  0  0  0  0
  -28.9740  -13.1550   20.2320 C   0  0  0  0  0  2  0  0  0  0  0  0
  -30.2170  -13.4800   19.5240 N   0  0  0  0  0  0  0  0  0  0  0  0
  -32.1570  -14.5240   19.0820 O   0  0  0  0  0  0  0  0  0  0  0  0
  -30.6350  -15.7770   20.1000 N   0  0  0  0  0  0  0  0  0  0  0  0
  -25.5290  -14.1630   20.3360 C   0  0  0  0  0  0  0  0  0  0  0  0
  -24.4780  -13.4120   20.7920 C   0  0  0  0  0  0  0  0  0  0  0  0
  -24.8730  -12.0490   20.6410 C   0  0  0  0  0  0  0  0  0  0  0  0
  -26.5000  -13.2570   19.9370 N   0  0  0  0  0  0  0  0  0  0  0  0
  -26.1160  -11.9800   20.1780 N   0  0  0  0  0  0  0  0  0  0  0  0
  -24.1210  -10.8050   20.8570 C   0  0  0  0  0  0  0  0  0  0  0  0
  -24.5800   -9.8070   21.7440 C   0  0  0  0  0  3  0  0  0  0  0  0
  -23.8280   -8.6300   21.9490 C   0  0  0  0  0  3  0  0  0  0  0  0
  -22.6030   -8.4420   21.2680 C   0  0  0  0  0  0  0  0  0  0  0  0
  -22.1600   -9.4280   20.3700 C   0  0  0  0  0  3  0  0  0  0  0  0
  -22.9120  -10.5970   20.1620 C   0  0  0  0  0  3  0  0  0  0  0  0
  -21.8160   -7.3200   21.3860 O   0  0  0  0  0  0  0  0  0  0  0  0
  -21.7620   -6.5980   22.5510 C   0  0  0  0  0  0  0  0  0  0  0  0
  -21.3950   -7.1900   23.7790 C   0  0  0  0  0  3  0  0  0  0  0  0
  -21.2860   -6.3970   24.9370 C   0  0  0  0  0  3  0  0  0  0  0  0
  -21.5310   -5.0130   24.8710 C   0  0  0  0  0  0  0  0  0  0  0  0
  -21.8950   -4.4210   23.6500 C   0  0  0  0  0  3  0  0  0  0  0  0
  -22.0060   -5.2110   22.4910 C   0  0  0  0  0  0  0  0  0  0  0  0
  -22.3330   -4.6300   21.3120 F   0  0  0  0  0  0  0  0  0  0  0  0
  -21.4210   -4.2490   25.9840 F   0  0  0  0  0  0  0  0  0  0  0  0
  -23.1470  -13.9260   21.2590 C   0  0  0  0  0  0  0  0  0  0  0  0
  -22.5150  -13.2240   22.1940 N   0  0  0  0  0  0  0  0  0  0  0  0
  -22.6860  -14.9800   20.8280 O   0  0  0  0  0  0  0  0  0  0  0  0
  -22.9000  -12.3640   22.5560 H   0  0  0  0  0  0  0  0  0  0  0  0
  -21.6320  -13.5530   22.5550 H   0  0  0  0  0  0  0  0  0  0  0  0
  -25.7290  -15.5320   20.1960 N   0  0  0  0  0  0  0  0  0  0  0  0
  -25.0010  -16.2030   20.4180 H   0  0  0  0  0  0  0  0  0  0  0  0
  -26.5250  -15.9500   19.7370 H   0  0  0  0  0  0  0  0  0  0  0  0
  -29.8850  -16.9960   22.2650 C   0  0  0  0  0  2  0  0  0  0  0  0
  -29.8230  -15.5260   22.5290 C   0  0  0  0  0  2  0  0  0  0  0  0
  -29.6420  -16.0370   21.1090 C   0  0  0  0  0  3  0  0  0  0  0  0
  -30.7300  -22.4750   20.9830 C   0  0  0  0  0  2  0  0  0  0  0  0
  -29.7430  -23.2000   20.1470 N   0  0  0  0  0  4  0  0  0  0  0  0
  -28.8730  -22.7030   20.2820 H   0  0  0  0  0  0  0  0  0  0  0  0
  -30.0030  -23.0660   19.1810 H   0  0  0  0  0  0  0  0  0  0  0  0
  -29.5830  -24.6510   20.4510 C   0  0  0  0  0  2  0  0  0  0  0  0
  -28.4330  -25.3170   19.6650 C   0  0  0  0  0  2  0  0  0  0  0  0
  -28.4080  -26.7260   19.9550 O   0  0  0  0  0  0  0  0  0  0  0  0
  -24.5040  -31.7450   23.1010 C   0  0  0  0  0  0  0  0  0  0  0  0
  -27.1970  -27.3900   19.9520 C   0  0  0  0  0  0  0  0  0  0  0  0
  -23.2990  -30.3270   21.4710 C   0  0  0  0  0  3  0  0  0  0  0  0
  -24.7640  -28.8320   20.0130 C   0  0  0  0  0  0  0  0  0  0  0  0
  -25.8100  -30.7490   21.2290 C   0  0  0  0  0  2  0  0  0  0  0  0
  -25.9170  -29.3830   20.5840 C   0  0  0  0  0  0  0  0  0  0  0  0
  -27.1340  -28.6670   20.5520 C   0  0  0  0  0  3  0  0  0  0  0  0
  -26.0250  -26.8560   19.3660 C   0  0  0  0  0  3  0  0  0  0  0  0
  -24.8110  -27.5660   19.4050 C   0  0  0  0  0  3  0  0  0  0  0  0
  -23.5000  -29.6580   20.0840 C   0  0  0  0  0  2  0  0  0  0  0  0
  -24.5580  -30.9550   21.9930 N   0  0  0  0  0  0  0  0  0  0  0  0
  -23.4270  -31.9910   23.6620 O   0  0  0  0  0  0  0  0  0  0  0  0
  -22.6890  -29.2860   22.4340 C   0  0  0  0  0  0  0  0  0  0  0  0
  -21.3780  -29.0350   22.2890 N   0  0  0  0  0  0  0  0  0  0  0  0
  -23.3900  -28.7070   23.2680 O   0  0  0  0  0  0  0  0  0  0  0  0
  -20.8710  -29.5570   21.5890 H   0  0  0  0  0  0  0  0  0  0  0  0
  -18.0690  -27.6460   22.7130 C   0  0  0  0  0  0  0  0  0  0  0  0
  -20.5970  -28.0670   23.0580 C   0  0  0  0  0  3  0  0  0  0  0  0
  -20.8040  -26.6310   22.5210 C   0  0  0  0  0  2  0  0  0  0  0  0
  -19.7550  -26.2190   21.4810 C   0  0  0  0  0  2  0  0  0  0  0  0
  -18.3490  -26.2940   22.0800 C   0  0  0  0  0  2  0  0  0  0  0  0
  -19.1250  -28.4850   23.1600 C   0  0  0  0  0  0  0  0  0  0  0  0
  -18.8130  -29.7480   23.7070 C   0  0  0  0  0  3  0  0  0  0  0  0
  -17.4750  -30.1730   23.8190 C   0  0  0  0  0  3  0  0  0  0  0  0
  -16.4320  -29.3310   23.3940 C   0  0  0  0  0  3  0  0  0  0  0  0
  -16.7300  -28.0700   22.8460 C   0  0  0  0  0  3  0  0  0  0  0  0
  -25.7880  -32.4010   23.7050 C   0  0  0  0  0  3  0  0  0  0  0  0
  -25.4420  -33.7740   24.0920 N   0  0  0  0  0  0  0  0  0  0  0  0
  -25.7150  -34.8620   23.3590 C   0  0  0  0  0  0  0  0  0  0  0  0
  -26.3560  -34.8160   22.3060 O   0  0  0  0  0  0  0  0  0  0  0  0
  -24.8680  -33.8820   24.9150 H   0  0  0  0  0  0  0  0  0  0  0  0
  -23.9230  -36.6070   23.1060 C   0  0  0  0  0  1  0  0  0  0  0  0
  -25.1940  -36.2150   23.8760 C   0  0  0  0  0  3  0  0  0  0  0  0
  -27.3170  -37.1380   24.6950 C   0  0  0  0  0  1  0  0  0  0  0  0
  -26.1900  -37.3050   23.7810 N   0  0  0  0  0  0  0  0  0  0  0  0
  -25.7580  -38.2050   23.9710 H   0  0  0  0  0  0  0  0  0  0  0  0
  -26.3730  -31.6020   24.9320 C   0  0  1  0  0  0  0  0  0  0  0  0
  -25.3230  -31.2600   26.0130 C   0  0  0  0  0  1  0  0  0  0  0  0
  -27.0170  -30.2760   24.4620 C   0  0  0  0  0  1  0  0  0  0  0  0
  -27.5000  -32.4260   25.6040 C   0  0  0  0  0  1  0  0  0  0  0  0
  1  3  2  0
  1  6  1  0
  3  5  1  0
  4  2  1  0
  4 48  1  0
  5  2  2  0
  6  4  2  0
  7  3  1  0
  7 16  1  0
  8 16  1  0
  9 14  1  0
 10 11  1  0
 10  9  1  0
 12 11  1  0
 12 20  1  0
 12 13  1  0
 14  8  1  0
 14 13  1  0
 15  8  2  0
 16 47  1  0
 17 18  2  0
 18 37  1  0
 19 18  1  0
 19 22  1  0
 20 21  1  0
 20 17  1  0
 21 19  2  0
 22 23  1  0
 23 24  2  0
 25 28  1  0
 25 24  1  0
 26 25  2  0
 27 26  1  0
 27 22  2  0
 28 29  1  0
 29 30  1  0
 30 31  2  0
 32 31  1  0
 32 36  1  0
 33 32  2  0
 34 29  2  0
 34 33  1  0
 35 34  1  0
 37 38  1  0
 38 41  1  0
 38 40  1  0
 39 37  2  0
 42 17  1  0
 42 43  1  0
 44 42  1  0
 45 46  1  0
 47 45  1  0
 47 46  1  0
 49 50  1  0
 49 52  1  0
 49 48  1  0
 51 49  1  0
 53 54  1  0
 53 52  1  0
 55 66  2  0
 56 54  1  0
 56 61  1  0
 57 65  1  0
 57 67  1  0
 58 64  1  0
 58 60  1  0
 59 65  1  0
 60 59  1  0
 61 60  2  0
 62 63  1  0
 62 56  2  0
 63 58  2  0
 64 57  1  0
 65 55  1  0
 67 69  2  0
 68 67  1  0
 70 68  1  0
 71 80  2  0
 71 76  1  0
 72 68  1  0
 72 76  1  0
 73 72  1  0
 74 75  1  0
 74 73  1  0
 75 71  1  0
 76 77  2  0
 77 78  1  0
 79 78  2  0
 80 79  1  0
 81 55  1  0
 81 82  1  0
 81 91  1  0
 82 85  1  0
 83 87  1  0
 83 82  1  0
 84 83  2  0
 87 86  1  0
 89 87  1  0
 89 90  1  0
 89 88  1  0
 91 94  1  1
 91 92  1  0
 93 91  1  0
M  ISO  4   8 100  16 100  53 101  54 101
M  END
>  <TORSDO>  (50) 
F 22

>  <SCORE>  (50) 
-10.052

>  <name>  (50) 
49

>  <ligand_id>  (50) 
49

>  <original_smiles>  (50) 
[H]c1nc(C([H])([H])[N+]([H])([H])C([H])([H])C([H])([H])Oc2c([H])c([H])c3c(c2[H])C([H])([H])N(C(=O)C([H])(N([H])C(=O)C([H])(N([H])C([H])([H])[H])C([H])([H])[H])C(C([H])([H])[H])(C([H])([H])[H])C([H])([H])[H])C([H])(C(=O)N([H])C2([H])c4c([H])c([H])c([H])c([H])c4C([H])([H])C([H])([H])C2([H])[H])C3([H])[H])c([H])nc1C([H])([H])N(C(=O)N1C([H])([H])C([H])([H])C([H])([H])C([H])(n2nc(-c3c([H])c([H])c(Oc4c([H])c([H])c(F)c([H])c4F)c([H])c3[H])c(C(=O)N([H])[H])c2N([H])[H])C1([H])[H])C1([H])C([H])([H])C1([H])[H]

>  <smiles>  (50) 
[H]c1nc(C([H])([H])[N+]([H])([H])C([H])([H])C([H])([H])Oc2c([H])c([H])c3c(c2[H])C([H])([H])N(C(=O)C([H])(N([H])C(=O)C([H])(N([H])C([H])([H])[H])C([H])([H])[H])C(C([H])([H])[H])(C([H])([H])[H])C([H])([H])[H])C([H])(C(=O)N([H])C2([H])c4c([H])c([H])c([H])c([H])c4C([H])([H])C([H])([H])C2([H])[H])C3([H])[H])c([H])nc1C([H])([H])N(C(=O)N1C([H])([H])C([H])([H])C([H])([H])C([H])(n2nc(-c3c([H])c([H])c(Oc4c([H])c([H])c(F)c([H])c4F)c([H])c3[H])c(C(=O)N([H])[H])c2N([H])[H])C1([H])[H])C1([H])C([H])([H])C1([H])[H]

$$$$
50:0:0
     RDKit          3D

 93102  0  0  1  0  0  0  0  0999 V2000
  -29.9890  -22.6970   18.7610 C   0  0  0  0  0  3  0  0  0  0  0  0
  -28.9290  -22.6330   19.6740 C   0  0  0  0  0  3  0  0  0  0  0  0
  -30.7150  -21.5260   18.4920 C   0  0  0  0  0  0  0  0  0  0  0  0
  -29.4260  -20.3340   19.9700 C   0  0  0  0  0  0  0  0  0  0  0  0
  -28.6640  -21.4200   20.2840 N   0  0  0  0  0  0  0  0  0  0  0  0
  -30.4250  -20.3600   19.1000 N   0  0  0  0  0  0  0  0  0  0  0  0
  -31.8170  -21.4940   17.4440 C   0  0  0  0  0  3  0  0  0  0  0  0
  -32.2090  -22.7180   17.0880 F   0  0  0  0  0  0  0  0  0  0  0  0
  -31.3980  -20.8380   16.3600 F   0  0  0  0  0  0  0  0  0  0  0  0
  -27.9970  -23.9010   19.8080 C   0  0  0  0  0  2  0  0  0  0  0  0
  -28.4730  -25.1750   20.6360 C   0  0  0  0  0  2  0  0  0  0  0  0
  -28.3960  -26.5580   20.1080 O   0  0  0  0  0  0  0  0  0  0  0  0
  -24.6070  -31.8640   23.2320 C   0  0  0  0  0  0  0  0  0  0  0  0
  -27.2310  -27.3240   20.1800 C   0  0  0  0  0  0  0  0  0  0  0  0
  -23.4010  -30.4600   21.5950 C   0  0  0  0  0  3  0  0  0  0  0  0
  -24.8500  -28.8990   20.1810 C   0  0  0  0  0  0  0  0  0  0  0  0
  -25.9320  -30.7960   21.3910 C   0  0  0  0  0  2  0  0  0  0  0  0
  -26.0170  -29.4110   20.7600 C   0  0  0  0  0  0  0  0  0  0  0  0
  -27.2120  -28.6370   20.7410 C   0  0  0  0  0  3  0  0  0  0  0  0
  -26.0390  -26.8450   19.6020 C   0  0  0  0  0  3  0  0  0  0  0  0
  -24.8600  -27.6200   19.5980 C   0  0  0  0  0  3  0  0  0  0  0  0
  -23.6110  -29.7700   20.2200 C   0  0  0  0  0  2  0  0  0  0  0  0
  -24.6670  -31.0580   22.1320 N   0  0  0  0  0  0  0  0  0  0  0  0
  -23.5250  -32.1400   23.7710 O   0  0  0  0  0  0  0  0  0  0  0  0
  -22.7430  -29.4470   22.5620 C   0  0  0  0  0  0  0  0  0  0  0  0
  -21.4160  -29.2730   22.4390 N   0  0  0  0  0  0  0  0  0  0  0  0
  -23.4250  -28.8190   23.3750 O   0  0  0  0  0  0  0  0  0  0  0  0
  -20.9270  -29.8320   21.7550 H   0  0  0  0  0  0  0  0  0  0  0  0
  -18.0370  -28.0900   22.9480 C   0  0  0  0  0  0  0  0  0  0  0  0
  -20.5970  -28.3370   23.2110 C   0  0  0  0  0  3  0  0  0  0  0  0
  -20.6910  -26.9070   22.6270 C   0  0  0  0  0  2  0  0  0  0  0  0
  -19.5830  -26.5930   21.6170 C   0  0  0  0  0  2  0  0  0  0  0  0
  -18.2050  -26.7430   22.2680 C   0  0  0  0  0  2  0  0  0  0  0  0
  -19.1610  -28.8470   23.3760 C   0  0  0  0  0  0  0  0  0  0  0  0
  -18.9500  -30.1090   23.9720 C   0  0  0  0  0  3  0  0  0  0  0  0
  -17.6480  -30.6140   24.1460 C   0  0  0  0  0  3  0  0  0  0  0  0
  -16.5390  -29.8550   23.7330 C   0  0  0  0  0  3  0  0  0  0  0  0
  -16.7340  -28.5960   23.1380 C   0  0  0  0  0  3  0  0  0  0  0  0
  -25.8910  -32.4960   23.8530 C   0  0  0  0  0  3  0  0  0  0  0  0
  -26.4070  -31.7240   25.1280 C   0  0  1  0  0  0  0  0  0  0  0  0
  -25.3150  -31.4870   26.1970 C   0  0  0  0  0  1  0  0  0  0  0  0
  -26.9850  -30.3450   24.7300 C   0  0  0  0  0  1  0  0  0  0  0  0
  -27.5590  -32.5140   25.7900 C   0  0  0  0  0  1  0  0  0  0  0  0
  -25.5800  -33.8940   24.1870 N   0  0  0  0  0  0  0  0  0  0  0  0
  -25.9120  -34.9500   23.4310 C   0  0  0  0  0  0  0  0  0  0  0  0
  -26.5810  -34.8490   22.3990 O   0  0  0  0  0  0  0  0  0  0  0  0
  -24.9810  -34.0450   24.9850 H   0  0  0  0  0  0  0  0  0  0  0  0
  -24.1820  -36.7450   23.0860 C   0  0  0  0  0  1  0  0  0  0  0  0
  -25.4250  -36.3370   23.8930 C   0  0  0  0  0  3  0  0  0  0  0  0
  -27.5630  -37.2210   24.7180 C   0  0  0  0  0  1  0  0  0  0  0  0
  -26.4570  -37.3920   23.7810 N   0  0  0  0  0  0  0  0  0  0  0  0
  -26.0500  -38.3110   23.9350 H   0  0  0  0  0  0  0  0  0  0  0  0
  -29.1440  -19.1160   20.5700 O   0  0  0  0  0  0  0  0  0  0  0  0
  -30.6040  -14.6680   20.4080 C   0  0  0  0  0  0  0  0  0  0  0  0
  -30.3990  -12.4240   19.3530 C   0  0  0  0  0  2  0  0  0  0  0  0
  -29.4530  -12.5370   18.1390 C   0  0  0  0  0  2  0  0  0  0  0  0
  -27.9830  -12.3740   18.5740 C   0  0  0  0  0  2  0  0  0  0  0  0
  -27.6230  -13.2430   19.8080 C   0  0  0  0  0  3  0  0  0  0  0  0
  -28.6820  -13.1090   20.9220 C   0  0  0  0  0  2  0  0  0  0  0  0
  -29.9810  -13.4490   20.3300 N   0  0  0  0  0  0  0  0  0  0  0  0
  -31.7830  -14.8010   20.0680 O   0  0  0  0  0  0  0  0  0  0  0  0
  -30.2560  -16.9710   21.4790 C   0  0  0  0  0  2  0  0  0  0  0  0
  -29.1580  -16.6560   19.7390 C   0  0  0  0  0  2  0  0  0  0  0  0
  -29.9260  -17.8830   20.2790 C   0  0  0  0  0  3  0  0  0  0  0  0
  -29.8220  -15.7600   20.7260 N   0  0  0  0  0  0  0  0  0  0  0  0
  -25.2320  -13.8440   20.5250 C   0  0  0  0  0  0  0  0  0  0  0  0
  -24.1670  -13.0710   20.8950 C   0  0  0  0  0  0  0  0  0  0  0  0
  -24.6310  -11.7200   20.8730 C   0  0  0  0  0  0  0  0  0  0  0  0
  -26.2780  -12.9620   20.2970 N   0  0  0  0  0  0  0  0  0  0  0  0
  -25.9220  -11.6810   20.5700 N   0  0  0  0  0  0  0  0  0  0  0  0
  -23.9080  -10.4570   21.0680 C   0  0  0  0  0  0  0  0  0  0  0  0
  -24.3450   -9.4920   22.0020 C   0  0  0  0  0  3  0  0  0  0  0  0
  -23.6230   -8.2930   22.1840 C   0  0  0  0  0  3  0  0  0  0  0  0
  -22.4480   -8.0530   21.4330 C   0  0  0  0  0  0  0  0  0  0  0  0
  -22.0300   -9.0070   20.4880 C   0  0  0  0  0  3  0  0  0  0  0  0
  -22.7540  -10.1960   20.3050 C   0  0  0  0  0  3  0  0  0  0  0  0
  -21.6920   -6.9090   21.5260 O   0  0  0  0  0  0  0  0  0  0  0  0
  -21.6530   -6.1640   22.6770 C   0  0  0  0  0  0  0  0  0  0  0  0
  -21.2380   -6.7190   23.9080 C   0  0  0  0  0  3  0  0  0  0  0  0
  -21.1460   -5.9010   25.0530 C   0  0  0  0  0  3  0  0  0  0  0  0
  -21.4590   -4.5310   24.9650 C   0  0  0  0  0  0  0  0  0  0  0  0
  -21.8660   -3.9760   23.7390 C   0  0  0  0  0  3  0  0  0  0  0  0
  -21.9600   -4.7910   22.5970 C   0  0  0  0  0  0  0  0  0  0  0  0
  -22.3330   -4.2500   21.4120 F   0  0  0  0  0  0  0  0  0  0  0  0
  -21.3620   -3.7410   26.0600 F   0  0  0  0  0  0  0  0  0  0  0  0
  -22.7670  -13.5460   21.1610 C   0  0  0  0  0  0  0  0  0  0  0  0
  -22.0370  -12.8500   22.0250 N   0  0  0  0  0  0  0  0  0  0  0  0
  -22.3310  -14.5700   20.6380 O   0  0  0  0  0  0  0  0  0  0  0  0
  -22.4050  -12.0220   22.4700 H   0  0  0  0  0  0  0  0  0  0  0  0
  -21.0970  -13.1480   22.2410 H   0  0  0  0  0  0  0  0  0  0  0  0
  -25.3960  -15.2140   20.3390 N   0  0  0  0  0  0  0  0  0  0  0  0
  -24.6370  -15.8760   20.4550 H   0  0  0  0  0  0  0  0  0  0  0  0
  -26.2610  -15.6470   20.0440 H   0  0  0  0  0  0  0  0  0  0  0  0
  1  2  1  0
  2 10  1  0
  2  5  1  0
  3  1  2  0
  3  6  1  0
  4  5  2  0
  4 53  1  0
  6  4  2  0
  7  3  1  0
  8  7  1  0
  9  7  1  0
 10 11  1  0
 12 14  1  0
 12 11  1  0
 13 24  2  0
 14 19  1  0
 15 23  1  0
 15 25  1  0
 16 22  1  0
 16 18  1  0
 17 23  1  0
 18 17  1  0
 19 18  2  0
 20 14  2  0
 21 20  1  0
 21 16  2  0
 22 15  1  0
 23 13  1  0
 25 27  2  0
 26 25  1  0
 28 26  1  0
 29 38  2  0
 29 34  1  0
 30 26  1  0
 30 34  1  0
 31 30  1  0
 32 33  1  0
 32 31  1  0
 33 29  1  0
 34 35  2  0
 35 36  1  0
 37 36  2  0
 38 37  1  0
 39 13  1  0
 39 44  1  0
 39 40  1  0
 40 43  1  1
 40 41  1  0
 42 40  1  0
 44 47  1  0
 45 49  1  0
 45 44  1  0
 46 45  2  0
 49 48  1  0
 51 49  1  0
 51 52  1  0
 51 50  1  0
 54 65  1  0
 55 60  1  0
 56 57  1  0
 56 55  1  0
 58 57  1  0
 58 69  1  0
 58 59  1  0
 60 54  1  0
 60 59  1  0
 61 54  2  0
 63 64  1  0
 63 65  1  0
 64 53  1  0
 64 62  1  0
 65 62  1  0
 66 67  2  0
 67 86  1  0
 68 67  1  0
 68 71  1  0
 69 66  1  0
 69 70  1  0
 70 68  2  0
 71 72  1  0
 72 73  2  0
 74 77  1  0
 74 73  1  0
 75 74  2  0
 76 75  1  0
 76 71  2  0
 77 78  1  0
 78 79  1  0
 79 80  2  0
 81 80  1  0
 81 85  1  0
 82 81  2  0
 83 78  2  0
 83 82  1  0
 84 83  1  0
 86 87  1  0
 87 90  1  0
 87 89  1  0
 88 86  2  0
 91 92  1  0
 91 66  1  0
 93 91  1  0
M  ISO  4  11 101  12 101  54 100  65 100
M  END
>  <TORSDO>  (51) 
F 20

>  <SCORE>  (51) 
-14.028

>  <name>  (51) 
50

>  <ligand_id>  (51) 
50

>  <original_smiles>  (51) 
[H]c1c(C([H])(F)F)nc(OC2([H])C([H])([H])N(C(=O)N3C([H])([H])C([H])([H])C([H])([H])C([H])(n4nc(-c5c([H])c([H])c(Oc6c([H])c([H])c(F)c([H])c6F)c([H])c5[H])c(C(=O)N([H])[H])c4N([H])[H])C3([H])[H])C2([H])[H])nc1C([H])([H])C([H])([H])Oc1c([H])c([H])c2c(c1[H])C([H])([H])N(C(=O)C([H])(N([H])C(=O)C([H])(N([H])C([H])([H])[H])C([H])([H])[H])C(C([H])([H])[H])(C([H])([H])[H])C([H])([H])[H])C([H])(C(=O)N([H])C1([H])c3c([H])c([H])c([H])c([H])c3C([H])([H])C([H])([H])C1([H])[H])C2([H])[H]

>  <smiles>  (51) 
[H]c1c(C([H])(F)F)nc(OC2([H])C([H])([H])N(C(=O)N3C([H])([H])C([H])([H])C([H])([H])C([H])(n4nc(-c5c([H])c([H])c(Oc6c([H])c([H])c(F)c([H])c6F)c([H])c5[H])c(C(=O)N([H])[H])c4N([H])[H])C3([H])[H])C2([H])[H])nc1C([H])([H])C([H])([H])Oc1c([H])c([H])c2c(c1[H])C([H])([H])N(C(=O)C([H])(N([H])C(=O)C([H])(N([H])C([H])([H])[H])C([H])([H])[H])C(C([H])([H])[H])(C([H])([H])[H])C([H])([H])[H])C([H])(C(=O)N([H])C1([H])c3c([H])c([H])c([H])c([H])c3C([H])([H])C([H])([H])C1([H])[H])C2([H])[H]

$$$$
51:0:0
     RDKit          3D

 90 98  0  0  1  0  0  0  0  0999 V2000
  -30.6840  -15.5040   20.0210 C   0  0  0  0  0  0  0  0  0  0  0  0
  -30.7670  -12.9510   19.5720 C   0  0  0  0  0  2  0  0  0  0  0  0
  -29.9100  -12.5460   18.3450 C   0  0  0  0  0  2  0  0  0  0  0  0
  -28.4420  -12.3220   18.7480 C   0  0  0  0  0  2  0  0  0  0  0  0
  -27.9230  -13.4330   19.6940 C   0  0  0  0  0  3  0  0  0  0  0  0
  -28.9140  -13.7650   20.8320 C   0  0  0  0  0  2  0  0  0  0  0  0
  -30.1700  -14.1880   20.1940 N   0  0  0  0  0  0  0  0  0  0  0  0
  -31.9060  -15.5130   19.7950 O   0  0  0  0  0  0  0  0  0  0  0  0
  -30.1940  -20.2830   18.3390 C   0  0  0  0  0  3  0  0  0  0  0  0
  -29.3000  -21.2600   18.9620 C   0  0  0  0  0  0  0  0  0  0  0  0
  -28.6560  -20.4460   19.9810 C   0  0  0  0  0  0  0  0  0  0  0  0
  -29.7630  -18.2300   19.6350 C   0  0  0  0  0  0  0  0  0  0  0  0
  -30.4100  -18.9080   18.6430 N   0  0  0  0  0  0  0  0  0  0  0  0
  -28.8650  -19.0640   20.2570 N   0  0  0  0  0  0  0  0  0  0  0  0
  -29.8390  -16.7150   19.9820 N   0  0  0  0  0  0  0  0  0  0  0  0
  -28.9410  -16.4380   20.3400 H   0  0  0  0  0  0  0  0  0  0  0  0
  -25.5810  -14.0850   20.4680 C   0  0  0  0  0  0  0  0  0  0  0  0
  -24.4750  -13.3520   20.7910 C   0  0  0  0  0  0  0  0  0  0  0  0
  -24.8650  -11.9800   20.6860 C   0  0  0  0  0  0  0  0  0  0  0  0
  -26.5750  -13.1680   20.1810 N   0  0  0  0  0  0  0  0  0  0  0  0
  -26.1550  -11.8900   20.3800 N   0  0  0  0  0  0  0  0  0  0  0  0
  -24.0650  -10.7530   20.8030 C   0  0  0  0  0  0  0  0  0  0  0  0
  -24.4450   -9.7010   21.6660 C   0  0  0  0  0  3  0  0  0  0  0  0
  -23.6460   -8.5430   21.7770 C   0  0  0  0  0  3  0  0  0  0  0  0
  -22.4530   -8.4270   21.0250 C   0  0  0  0  0  0  0  0  0  0  0  0
  -22.0910   -9.4680   20.1510 C   0  0  0  0  0  3  0  0  0  0  0  0
  -22.8890  -10.6170   20.0380 C   0  0  0  0  0  3  0  0  0  0  0  0
  -21.6300   -7.3280   21.0480 O   0  0  0  0  0  0  0  0  0  0  0  0
  -21.5700   -6.4960   22.1370 C   0  0  0  0  0  0  0  0  0  0  0  0
  -21.1940   -6.9660   23.4150 C   0  0  0  0  0  3  0  0  0  0  0  0
  -21.0770   -6.0650   24.4910 C   0  0  0  0  0  3  0  0  0  0  0  0
  -21.3300   -4.6940   24.2920 C   0  0  0  0  0  0  0  0  0  0  0  0
  -21.7000   -4.2220   23.0200 C   0  0  0  0  0  3  0  0  0  0  0  0
  -21.8160   -5.1210   21.9460 C   0  0  0  0  0  0  0  0  0  0  0  0
  -22.1520   -4.6580   20.7180 F   0  0  0  0  0  0  0  0  0  0  0  0
  -21.2110   -3.8250   25.3240 F   0  0  0  0  0  0  0  0  0  0  0  0
  -23.1060  -13.8930   21.0790 C   0  0  0  0  0  0  0  0  0  0  0  0
  -22.3450  -13.2140   21.9310 N   0  0  0  0  0  0  0  0  0  0  0  0
  -22.7210  -14.9520   20.5850 O   0  0  0  0  0  0  0  0  0  0  0  0
  -22.6710  -12.3560   22.3510 H   0  0  0  0  0  0  0  0  0  0  0  0
  -21.4260  -13.5580   22.1680 H   0  0  0  0  0  0  0  0  0  0  0  0
  -25.8180  -15.4540   20.3630 N   0  0  0  0  0  0  0  0  0  0  0  0
  -25.0730  -16.1320   20.4820 H   0  0  0  0  0  0  0  0  0  0  0  0
  -26.6670  -15.8640   19.9960 H   0  0  0  0  0  0  0  0  0  0  0  0
  -28.4530  -21.9310   22.0090 C   0  0  0  0  0  1  0  0  0  0  0  0
  -27.7030  -21.1130   20.9510 C   0  0  0  0  0  2  0  0  0  0  0  0
  -30.2320  -23.2680   17.5070 C   0  0  0  0  0  1  0  0  0  0  0  0
  -29.3220  -23.0070   18.7200 C   0  0  0  0  0  3  0  0  0  0  0  0
  -28.1520  -24.3600   18.6300 C   0  0  0  0  0  2  0  0  0  0  0  0
  -28.3320  -25.9810   18.8620 O   0  0  0  0  0  0  0  0  0  0  0  0
  -24.6660  -31.2210   22.8640 C   0  0  0  0  0  0  0  0  0  0  0  0
  -27.2780  -27.0210   19.0100 C   0  0  0  0  0  0  0  0  0  0  0  0
  -23.4710  -30.0920   21.0310 C   0  0  0  0  0  3  0  0  0  0  0  0
  -24.9260  -28.7970   19.3300 C   0  0  0  0  0  0  0  0  0  0  0  0
  -26.0270  -30.4030   20.8760 C   0  0  0  0  0  2  0  0  0  0  0  0
  -26.1170  -29.1320   19.9860 C   0  0  0  0  0  0  0  0  0  0  0  0
  -27.2860  -28.2700   19.8020 C   0  0  0  0  0  3  0  0  0  0  0  0
  -26.0500  -26.8350   18.3370 C   0  0  0  0  0  3  0  0  0  0  0  0
  -24.9140  -27.6720   18.4900 C   0  0  0  0  0  3  0  0  0  0  0  0
  -23.6850  -29.6600   19.5540 C   0  0  0  0  0  2  0  0  0  0  0  0
  -24.7440  -30.5900   21.6470 N   0  0  0  0  0  0  0  0  0  0  0  0
  -23.5820  -31.3850   23.4450 O   0  0  0  0  0  0  0  0  0  0  0  0
  -22.8260  -28.9260   21.8250 C   0  0  0  0  0  0  0  0  0  0  0  0
  -21.4950  -28.7570   21.7120 N   0  0  0  0  0  0  0  0  0  0  0  0
  -23.5280  -28.1790   22.5110 O   0  0  0  0  0  0  0  0  0  0  0  0
  -20.9800  -29.4170   21.1460 H   0  0  0  0  0  0  0  0  0  0  0  0
  -18.1540  -27.3930   22.0850 C   0  0  0  0  0  0  0  0  0  0  0  0
  -20.7140  -27.6790   22.3280 C   0  0  0  0  0  3  0  0  0  0  0  0
  -20.8300  -26.3690   21.5140 C   0  0  0  0  0  2  0  0  0  0  0  0
  -19.7070  -26.1960   20.4860 C   0  0  0  0  0  2  0  0  0  0  0  0
  -18.3420  -26.1880   21.1780 C   0  0  0  0  0  2  0  0  0  0  0  0
  -19.2670  -28.1020   22.6130 C   0  0  0  0  0  0  0  0  0  0  0  0
  -19.0340  -29.2310   23.4260 C   0  0  0  0  0  3  0  0  0  0  0  0
  -17.7240  -29.6560   23.7130 C   0  0  0  0  0  3  0  0  0  0  0  0
  -16.6260  -28.9430   23.1990 C   0  0  0  0  0  3  0  0  0  0  0  0
  -16.8420  -27.8120   22.3910 C   0  0  0  0  0  3  0  0  0  0  0  0
  -25.9340  -31.7830   23.5760 C   0  0  0  0  0  3  0  0  0  0  0  0
  -25.6060  -33.1230   24.0960 N   0  0  0  0  0  0  0  0  0  0  0  0
  -25.9360  -34.2790   23.5050 C   0  0  0  0  0  0  0  0  0  0  0  0
  -26.6100  -34.3290   22.4720 O   0  0  0  0  0  0  0  0  0  0  0  0
  -25.0090  -33.1560   24.9090 H   0  0  0  0  0  0  0  0  0  0  0  0
  -24.2200  -36.1190   23.3950 C   0  0  0  0  0  1  0  0  0  0  0  0
  -25.4420  -35.5860   24.1600 C   0  0  0  0  0  3  0  0  0  0  0  0
  -27.5550  -36.3290   25.1690 C   0  0  0  0  0  1  0  0  0  0  0  0
  -26.4800  -36.6390   24.2300 N   0  0  0  0  0  0  0  0  0  0  0  0
  -26.0710  -37.5300   24.4980 H   0  0  0  0  0  0  0  0  0  0  0  0
  -26.4500  -30.8580   24.7470 C   0  0  1  0  0  0  0  0  0  0  0  0
  -25.3580  -30.4920   25.7800 C   0  0  0  0  0  1  0  0  0  0  0  0
  -27.0310  -29.5370   24.1930 C   0  0  0  0  0  1  0  0  0  0  0  0
  -27.6030  -31.5630   25.5000 C   0  0  0  0  0  1  0  0  0  0  0  0
  1  7  1  0
  2  7  1  0
  3  4  1  0
  3  2  1  0
  5  4  1  0
  5 20  1  0
  5  6  1  0
  7  6  1  0
  8  1  2  0
  9 13  1  0
  9 10  2  0
 10 11  1  0
 11 14  2  0
 11 46  1  0
 12 15  1  0
 12 14  1  0
 13 12  2  0
 15  1  1  0
 15 16  1  0
 17 18  2  0
 18 37  1  0
 19 18  1  0
 19 22  1  0
 20 21  1  0
 20 17  1  0
 21 19  2  0
 22 23  1  0
 23 24  2  0
 25 28  1  0
 25 24  1  0
 26 25  2  0
 27 26  1  0
 27 22  2  0
 28 29  1  0
 29 30  1  0
 30 31  2  0
 32 31  1  0
 32 36  1  0
 33 32  2  0
 34 29  2  0
 34 33  1  0
 35 34  1  0
 37 38  1  0
 38 41  1  0
 38 40  1  0
 39 37  2  0
 42 17  1  0
 42 43  1  0
 44 42  1  0
 46 45  1  0
 48 47  1  0
 48 10  1  0
 49 48  1  0
 49 50  1  0
 50 52  1  0
 51 62  2  0
 52 57  1  0
 53 61  1  0
 53 63  1  0
 54 60  1  0
 54 56  1  0
 55 61  1  0
 56 55  1  0
 57 56  2  0
 58 59  1  0
 58 52  2  0
 59 54  2  0
 60 53  1  0
 61 51  1  0
 63 65  2  0
 64 63  1  0
 66 64  1  0
 67 76  2  0
 67 72  1  0
 68 64  1  0
 68 72  1  0
 69 68  1  0
 70 71  1  0
 70 69  1  0
 71 67  1  0
 72 73  2  0
 73 74  1  0
 75 74  2  0
 76 75  1  0
 77 51  1  0
 77 78  1  0
 77 87  1  0
 78 81  1  0
 79 78  1  0
 79 83  1  0
 80 79  2  0
 83 82  1  0
 83 85  1  0
 85 86  1  0
 85 84  1  0
 87 90  1  1
 87 88  1  0
 89 87  1  0
M  ISO  4   1 100  15 100  49 101  50 101
M  END
>  <TORSDO>  (52) 
F 18

>  <SCORE>  (52) 
-13.052

>  <name>  (52) 
51

>  <ligand_id>  (52) 
51

>  <original_smiles>  (52) 
[H]c1nc(N([H])C(=O)N2C([H])([H])C([H])([H])C([H])([H])C([H])(n3nc(-c4c([H])c([H])c(Oc5c([H])c([H])c(F)c([H])c5F)c([H])c4[H])c(C(=O)N([H])[H])c3N([H])[H])C2([H])[H])nc(C([H])([H])C([H])([H])[H])c1C([H])(C([H])([H])[H])C([H])([H])Oc1c([H])c([H])c2c(c1[H])C([H])([H])N(C(=O)C([H])(N([H])C(=O)C([H])(N([H])C([H])([H])[H])C([H])([H])[H])C(C([H])([H])[H])(C([H])([H])[H])C([H])([H])[H])C([H])(C(=O)N([H])C1([H])c3c([H])c([H])c([H])c([H])c3C([H])([H])C([H])([H])C1([H])[H])C2([H])[H]

>  <smiles>  (52) 
[H]c1nc(N([H])C(=O)N2C([H])([H])C([H])([H])C([H])([H])C([H])(n3nc(-c4c([H])c([H])c(Oc5c([H])c([H])c(F)c([H])c5F)c([H])c4[H])c(C(=O)N([H])[H])c3N([H])[H])C2([H])[H])nc(C([H])([H])C([H])([H])[H])c1C([H])(C([H])([H])[H])C([H])([H])Oc1c([H])c([H])c2c(c1[H])C([H])([H])N(C(=O)C([H])(N([H])C(=O)C([H])(N([H])C([H])([H])[H])C([H])([H])[H])C(C([H])([H])[H])(C([H])([H])[H])C([H])([H])[H])C([H])(C(=O)N([H])C1([H])c3c([H])c([H])c([H])c([H])c3C([H])([H])C([H])([H])C1([H])[H])C2([H])[H]

$$$$
52:0:0
     RDKit          3D

101111  0  0  1  0  0  0  0  0999 V2000
  -33.1970  -13.7930   20.9540 C   0  0  0  0  0  0  0  0  0  0  0  0
  -32.5930  -11.4170   21.2160 C   0  0  0  0  0  2  0  0  0  0  0  0
  -31.9150  -10.8890   19.9330 C   0  0  0  0  0  2  0  0  0  0  0  0
  -30.3970  -11.0840   20.0560 C   0  0  0  0  0  2  0  0  0  0  0  0
  -30.0030  -12.5300   20.4690 C   0  0  0  0  0  3  0  0  0  0  0  0
  -30.8540  -13.0660   21.6430 C   0  0  0  0  0  2  0  0  0  0  0  0
  -32.2630  -12.8510   21.2940 N   0  0  0  0  0  0  0  0  0  0  0  0
  -34.3920  -13.5590   21.1610 O   0  0  0  0  0  0  0  0  0  0  0  0
  -31.9650  -17.6510   17.1710 C   0  0  0  0  0  3  0  0  0  0  0  0
  -31.4800  -13.9830   16.9970 C   0  0  0  0  0  3  0  0  0  0  0  0
  -31.5660  -17.8910   18.4610 C   0  0  0  0  0  0  0  0  0  0  0  0
  -32.2520  -16.3600   16.6840 C   0  0  0  0  0  3  0  0  0  0  0  0
  -31.2170  -16.7520   19.5260 C   0  0  0  0  0  2  0  0  0  0  0  0
  -32.3650  -16.0950   20.3920 C   0  0  0  0  0  2  0  0  0  0  0  0
  -33.8790  -15.0440   18.8950 C   0  0  0  0  0  2  0  0  0  0  0  0
  -34.3470  -15.0640   16.3500 C   0  0  0  0  0  2  0  0  0  0  0  0
  -33.8690  -14.2360   17.5710 C   0  0  0  0  0  3  0  0  0  0  0  0
  -32.6360  -13.4820   17.3230 N   0  0  0  0  0  0  0  0  0  0  0  0
  -31.4000  -15.3610   16.9380 N   0  0  0  0  0  0  0  0  0  0  0  0
  -32.8840  -14.7490   19.9910 N   0  0  0  0  0  0  0  0  0  0  0  0
  -33.4030  -16.1490   16.0230 N   0  0  0  0  0  0  0  0  0  0  0  0
  -30.4580  -15.6810   16.7610 H   0  0  0  0  0  0  0  0  0  0  0  0
  -33.7230  -16.8880   15.4210 H   0  0  0  0  0  0  0  0  0  0  0  0
  -27.7880  -13.8130   20.7370 C   0  0  0  0  0  0  0  0  0  0  0  0
  -26.4990  -13.4020   20.8820 C   0  0  0  0  0  0  0  0  0  0  0  0
  -26.5460  -11.9680   20.9490 C   0  0  0  0  0  0  0  0  0  0  0  0
  -28.5710  -12.6700   20.7010 N   0  0  0  0  0  0  0  0  0  0  0  0
  -27.8110  -11.5570   20.8880 N   0  0  0  0  0  0  0  0  0  0  0  0
  -25.4820  -10.9690   20.9850 C   0  0  0  0  0  0  0  0  0  0  0  0
  -25.6640   -9.6920   21.5660 C   0  0  0  0  0  3  0  0  0  0  0  0
  -24.6010   -8.7620   21.6110 C   0  0  0  0  0  3  0  0  0  0  0  0
  -23.3380   -9.1040   21.0710 C   0  0  0  0  0  0  0  0  0  0  0  0
  -23.1630  -10.3680   20.4770 C   0  0  0  0  0  3  0  0  0  0  0  0
  -24.2270  -11.2840   20.4290 C   0  0  0  0  0  3  0  0  0  0  0  0
  -22.2560   -8.2600   21.0410 O   0  0  0  0  0  0  0  0  0  0  0  0
  -21.9860   -7.4010   22.0740 C   0  0  0  0  0  0  0  0  0  0  0  0
  -22.1710   -7.7890   23.4160 C   0  0  0  0  0  3  0  0  0  0  0  0
  -21.8210   -6.9070   24.4550 C   0  0  0  0  0  3  0  0  0  0  0  0
  -21.2830   -5.6430   24.1580 C   0  0  0  0  0  0  0  0  0  0  0  0
  -21.1000   -5.2550   22.8190 C   0  0  0  0  0  3  0  0  0  0  0  0
  -21.4420   -6.1350   21.7780 C   0  0  0  0  0  0  0  0  0  0  0  0
  -21.2460   -5.7680   20.4870 F   0  0  0  0  0  0  0  0  0  0  0  0
  -20.9330   -4.8020   25.1550 F   0  0  0  0  0  0  0  0  0  0  0  0
  -25.2640  -14.2690   20.8750 C   0  0  0  0  0  0  0  0  0  0  0  0
  -24.2070  -13.8190   21.5270 N   0  0  0  0  0  0  0  0  0  0  0  0
  -25.2580  -15.3810   20.3270 O   0  0  0  0  0  0  0  0  0  0  0  0
  -24.2130  -12.9130   21.9910 H   0  0  0  0  0  0  0  0  0  0  0  0
  -23.3580  -14.3740   21.5500 H   0  0  0  0  0  0  0  0  0  0  0  0
  -28.3950  -15.0700   20.6020 N   0  0  0  0  0  0  0  0  0  0  0  0
  -27.9140  -15.9230   20.8500 H   0  0  0  0  0  0  0  0  0  0  0  0
  -29.3880  -15.2170   20.4930 H   0  0  0  0  0  0  0  0  0  0  0  0
  -31.2490  -19.7290   20.3720 C   0  0  0  0  0  2  0  0  0  0  0  0
  -29.9910  -19.5660   19.5680 C   0  0  0  0  0  2  0  0  0  0  0  0
  -31.3190  -19.3300   18.8810 C   0  0  2  0  0  0  0  0  0  0  0  0
  -31.8540  -20.4810   17.9540 C   0  0  0  0  0  2  0  0  0  0  0  0
  -31.4330  -20.5330   16.5010 N   0  0  0  0  0  4  0  0  0  0  0  0
  -30.4700  -20.8320   16.5440 H   0  0  0  0  0  0  0  0  0  0  0  0
  -31.4030  -19.6170   16.0840 H   0  0  0  0  0  0  0  0  0  0  0  0
  -32.1870  -21.4810   15.5630 C   0  0  0  0  0  2  0  0  0  0  0  0
  -31.6240  -21.4400   14.0910 C   0  0  0  0  0  2  0  0  0  0  0  0
  -32.2640  -22.1740   12.9880 O   0  0  0  0  0  0  0  0  0  0  0  0
  -28.9190  -27.8460   10.1950 C   0  0  0  0  0  0  0  0  0  0  0  0
  -31.3730  -22.6380   12.0200 C   0  0  0  0  0  0  0  0  0  0  0  0
  -27.8510  -25.6540    9.8460 C   0  0  0  0  0  3  0  0  0  0  0  0
  -29.3040  -23.6190   10.3300 C   0  0  0  0  0  0  0  0  0  0  0  0
  -30.4050  -25.8370   10.0520 C   0  0  0  0  0  2  0  0  0  0  0  0
  -30.3970  -24.4400   10.6390 C   0  0  0  0  0  0  0  0  0  0  0  0
  -31.4300  -23.9530   11.4840 C   0  0  0  0  0  3  0  0  0  0  0  0
  -30.3040  -21.8180   11.6050 C   0  0  0  0  0  3  0  0  0  0  0  0
  -29.2630  -22.2970   10.7940 C   0  0  0  0  0  3  0  0  0  0  0  0
  -28.2090  -24.1980    9.4580 C   0  0  0  0  0  2  0  0  0  0  0  0
  -29.0770  -26.4990   10.0650 N   0  0  0  0  0  0  0  0  0  0  0  0
  -27.8050  -28.3820   10.1140 O   0  0  0  0  0  0  0  0  0  0  0  0
  -26.8960  -25.6210   11.0630 C   0  0  0  0  0  0  0  0  0  0  0  0
  -25.5750  -25.6600   10.8080 N   0  0  0  0  0  0  0  0  0  0  0  0
  -27.3430  -25.5490   12.2140 O   0  0  0  0  0  0  0  0  0  0  0  0
  -25.2920  -25.6300    9.8390 H   0  0  0  0  0  0  0  0  0  0  0  0
  -22.0480  -26.2440   11.3510 C   0  0  0  0  0  0  0  0  0  0  0  0
  -24.5060  -25.6140   11.8100 C   0  0  0  0  0  3  0  0  0  0  0  0
  -24.0120  -24.1620   11.9880 C   0  0  0  0  0  2  0  0  0  0  0  0
  -22.7540  -23.8340   11.1680 C   0  0  0  0  0  2  0  0  0  0  0  0
  -21.6100  -24.7930   11.5010 C   0  0  0  0  0  2  0  0  0  0  0  0
  -23.4080  -26.6300   11.4840 C   0  0  0  0  0  0  0  0  0  0  0  0
  -23.7440  -27.9910   11.3140 C   0  0  0  0  0  3  0  0  0  0  0  0
  -22.7540  -28.9540   11.0150 C   0  0  0  0  0  3  0  0  0  0  0  0
  -21.4170  -28.5520   10.8780 C   0  0  0  0  0  3  0  0  0  0  0  0
  -21.0660  -27.1980   11.0450 C   0  0  0  0  0  3  0  0  0  0  0  0
  -30.1390  -28.7840   10.4360 C   0  0  0  0  0  3  0  0  0  0  0  0
  -30.1490  -29.4300   11.8750 C   0  0  1  0  0  0  0  0  0  0  0  0
  -28.8690  -30.2250   12.2240 C   0  0  0  0  0  1  0  0  0  0  0  0
  -30.3590  -28.3480   12.9570 C   0  0  0  0  0  1  0  0  0  0  0  0
  -31.3450  -30.3980   12.0060 C   0  0  0  0  0  1  0  0  0  0  0  0
  -30.1100  -29.8290    9.4030 N   0  0  0  0  0  0  0  0  0  0  0  0
  -30.7470  -29.7580    8.2320 C   0  0  0  0  0  0  0  0  0  0  0  0
  -31.5000  -28.8280    7.9340 O   0  0  0  0  0  0  0  0  0  0  0  0
  -29.4730  -30.5970    9.5570 H   0  0  0  0  0  0  0  0  0  0  0  0
  -29.5150  -30.4630    6.1510 C   0  0  0  0  0  1  0  0  0  0  0  0
  -30.5240  -30.9070    7.2240 C   0  0  0  0  0  3  0  0  0  0  0  0
  -32.6460  -32.1230    7.4630 C   0  0  0  0  0  1  0  0  0  0  0  0
  -31.7690  -31.3720    6.5660 N   0  0  0  0  0  0  0  0  0  0  0  0
  -31.5550  -31.9560    5.7590 H   0  0  0  0  0  0  0  0  0  0  0  0
  1  8  2  0
  1  7  1  0
  2  7  1  0
  3  4  1  0
  3  2  1  0
  5  4  1  0
  5 27  1  0
  5  6  1  0
  7  6  1  0
  9 11  2  0
 10 18  2  0
 11 54  1  0
 11 13  1  0
 12 19  1  0
 12  9  1  0
 13 14  1  0
 15 20  1  0
 17 16  1  0
 17 15  1  0
 18 17  1  0
 19 10  1  0
 20 14  1  0
 20  1  1  0
 21 16  1  0
 21 12  1  0
 22 19  1  0
 23 21  1  0
 24 25  2  0
 25 26  1  0
 26 29  1  0
 27 24  1  0
 27 28  1  0
 28 26  2  0
 29 30  1  0
 30 31  2  0
 32 31  1  0
 33 32  2  0
 34 33  1  0
 34 29  2  0
 35 32  1  0
 35 36  1  0
 36 37  1  0
 37 38  2  0
 39 38  1  0
 39 43  1  0
 40 39  2  0
 41 36  2  0
 41 40  1  0
 42 41  1  0
 44 25  1  0
 44 45  1  0
 45 48  1  0
 45 47  1  0
 46 44  2  0
 49 24  1  0
 49 50  1  0
 51 49  1  0
 53 52  1  0
 54 53  1  0
 54 52  1  0
 54 55  1  6
 56 57  1  0
 56 55  1  0
 58 56  1  0
 59 56  1  0
 60 59  1  0
 61 60  1  0
 63 61  1  0
 64 72  1  0
 64 74  1  0
 65 67  2  0
 65 70  1  0
 66 72  1  0
 66 67  1  0
 67 68  1  0
 68 63  2  0
 69 63  1  0
 70 69  2  0
 71 64  1  0
 71 65  1  0
 72 62  1  0
 73 62  2  0
 74 76  2  0
 75 74  1  0
 77 75  1  0
 78 83  1  0
 78 82  1  0
 79 75  1  0
 79 80  1  0
 81 82  1  0
 81 80  1  0
 83 79  1  0
 84 83  2  0
 85 84  1  0
 86 85  2  0
 86 87  1  0
 87 78  2  0
 88 62  1  0
 88 89  1  0
 89 92  1  6
 89 90  1  0
 89 91  1  0
 93 96  1  0
 93 88  1  0
 94 93  1  0
 95 94  2  0
 98 97  1  0
 98 94  1  0
100 98  1  0
100 99  1  0
101100  1  0
M  ISO  4   1 100  20 100  60 101  61 101
M  END
>  <TORSDO>  (53) 
F 20

>  <SCORE>  (53) 
-7.998

>  <name>  (53) 
52

>  <ligand_id>  (53) 
52

>  <original_smiles>  (53) 
[H]C1=NC2([H])C([H])([H])N(C(=O)N3C([H])([H])C([H])([H])C([H])([H])C([H])(n4nc(-c5c([H])c([H])c(Oc6c([H])c([H])c(F)c([H])c6F)c([H])c5[H])c(C(=O)N([H])[H])c4N([H])[H])C3([H])[H])C([H])([H])C([H])([H])C(C3(C([H])([H])[N+]([H])([H])C([H])([H])C([H])([H])Oc4c([H])c([H])c5c(c4[H])C([H])([H])N(C(=O)C([H])(N([H])C(=O)C([H])(N([H])C([H])([H])[H])C([H])([H])[H])C(C([H])([H])[H])(C([H])([H])[H])C([H])([H])[H])C([H])(C(=O)N([H])C4([H])c6c([H])c([H])c([H])c([H])c6C([H])([H])C([H])([H])C4([H])[H])C5([H])[H])C([H])([H])C3([H])[H])=C([H])C(=[N+]([H])C2([H])[H])N1[H]

>  <smiles>  (53) 
[H]C1=NC2([H])C([H])([H])N(C(=O)N3C([H])([H])C([H])([H])C([H])([H])C([H])(n4nc(-c5c([H])c([H])c(Oc6c([H])c([H])c(F)c([H])c6F)c([H])c5[H])c(C(=O)N([H])[H])c4N([H])[H])C3([H])[H])C([H])([H])C([H])([H])C(C3(C([H])([H])[N+]([H])([H])C([H])([H])C([H])([H])Oc4c([H])c([H])c5c(c4[H])C([H])([H])N(C(=O)C([H])(N([H])C(=O)C([H])(N([H])C([H])([H])[H])C([H])([H])[H])C(C([H])([H])[H])(C([H])([H])[H])C([H])([H])[H])C([H])(C(=O)N([H])C4([H])c6c([H])c([H])c([H])c([H])c6C([H])([H])C([H])([H])C4([H])[H])C5([H])[H])C([H])([H])C3([H])[H])=C([H])C(=[N+]([H])C2([H])[H])N1[H]

$$$$
53:0:0
     RDKit          3D

 97106  0  0  1  0  0  0  0  0999 V2000
  -29.3410  -19.4480   20.0950 C   0  0  0  0  0  0  0  0  0  0  0  0
  -30.3160  -20.4760   20.2280 C   0  0  0  0  0  0  0  0  0  0  0  0
  -31.7640  -18.9800   21.2190 C   0  0  0  0  0  0  0  0  0  0  0  0
  -30.7860  -17.9490   21.1340 C   0  0  0  0  0  0  0  0  0  0  0  0
  -33.1270  -18.7770   21.8480 C   0  0  0  0  0  1  0  0  0  0  0  0
  -29.5760  -18.1880   20.5600 N   0  0  0  0  0  0  0  0  0  0  0  0
  -31.5290  -20.2310   20.7680 N   0  0  0  0  0  0  0  0  0  0  0  0
  -27.3100  -18.6950   18.5870 C   0  0  0  0  0  2  0  0  0  0  0  0
  -27.8050  -20.0040   18.0390 C   0  0  0  0  0  2  0  0  0  0  0  0
  -27.9730  -19.6940   19.5150 C   0  0  0  0  0  3  0  0  0  0  0  0
  -30.0850  -21.9290   19.8210 C   0  0  0  0  0  2  0  0  0  0  0  0
  -29.6620  -22.8320   20.9990 C   0  0  0  0  0  2  0  0  0  0  0  0
  -29.5330  -24.2580   20.5980 N   0  0  0  0  0  4  0  0  0  0  0  0
  -28.8970  -24.3330   19.8170 H   0  0  0  0  0  0  0  0  0  0  0  0
  -30.4370  -24.5700   20.2830 H   0  0  0  0  0  0  0  0  0  0  0  0
  -29.0700  -25.1700   21.6760 C   0  0  0  0  0  2  0  0  0  0  0  0
  -29.1440  -26.6550   21.2680 C   0  0  0  0  0  2  0  0  0  0  0  0
  -28.3510  -26.8550   20.0950 O   0  0  0  0  0  0  0  0  0  0  0  0
  -24.5530  -32.0200   23.2990 C   0  0  0  0  0  0  0  0  0  0  0  0
  -27.2080  -27.6160   20.1930 C   0  0  0  0  0  0  0  0  0  0  0  0
  -23.3400  -30.6280   21.6500 C   0  0  0  0  0  3  0  0  0  0  0  0
  -24.7980  -29.1000   20.2140 C   0  0  0  0  0  0  0  0  0  0  0  0
  -25.8640  -30.9950   21.4450 C   0  0  0  0  0  2  0  0  0  0  0  0
  -25.9510  -29.6240   20.8110 C   0  0  0  0  0  0  0  0  0  0  0  0
  -27.1600  -28.8920   20.8050 C   0  0  0  0  0  3  0  0  0  0  0  0
  -26.0430  -27.1070   19.5850 C   0  0  0  0  0  3  0  0  0  0  0  0
  -24.8380  -27.8390   19.5940 C   0  0  0  0  0  3  0  0  0  0  0  0
  -23.5490  -29.9540   20.2660 C   0  0  0  0  0  2  0  0  0  0  0  0
  -24.6030  -31.2310   22.1880 N   0  0  0  0  0  0  0  0  0  0  0  0
  -23.4750  -32.2880   23.8450 O   0  0  0  0  0  0  0  0  0  0  0  0
  -22.6950  -29.5960   22.6050 C   0  0  0  0  0  0  0  0  0  0  0  0
  -21.3770  -29.3890   22.4630 N   0  0  0  0  0  0  0  0  0  0  0  0
  -23.3810  -28.9890   23.4310 O   0  0  0  0  0  0  0  0  0  0  0  0
  -20.8830  -29.9300   21.7670 H   0  0  0  0  0  0  0  0  0  0  0  0
  -18.0220  -28.1320   22.9190 C   0  0  0  0  0  0  0  0  0  0  0  0
  -20.5710  -28.4390   23.2250 C   0  0  0  0  0  3  0  0  0  0  0  0
  -20.7060  -27.0070   22.6570 C   0  0  0  0  0  2  0  0  0  0  0  0
  -19.6240  -26.6600   21.6290 C   0  0  0  0  0  2  0  0  0  0  0  0
  -18.2320  -26.7830   22.2520 C   0  0  0  0  0  2  0  0  0  0  0  0
  -19.1210  -28.9170   23.3620 C   0  0  0  0  0  0  0  0  0  0  0  0
  -18.8700  -30.1810   23.9400 C   0  0  0  0  0  3  0  0  0  0  0  0
  -17.5540  -30.6590   24.0830 C   0  0  0  0  0  3  0  0  0  0  0  0
  -16.4710  -29.8710   23.6600 C   0  0  0  0  0  3  0  0  0  0  0  0
  -16.7050  -28.6100   23.0810 C   0  0  0  0  0  3  0  0  0  0  0  0
  -25.8410  -32.6460   23.9160 C   0  0  0  0  0  3  0  0  0  0  0  0
  -25.5480  -34.0530   24.2160 N   0  0  0  0  0  0  0  0  0  0  0  0
  -25.9090  -35.0850   23.4420 C   0  0  0  0  0  0  0  0  0  0  0  0
  -26.5950  -34.9520   22.4250 O   0  0  0  0  0  0  0  0  0  0  0  0
  -24.9410  -34.2320   25.0020 H   0  0  0  0  0  0  0  0  0  0  0  0
  -24.2200  -36.8980   23.0070 C   0  0  0  0  0  1  0  0  0  0  0  0
  -25.4290  -36.4870   23.8620 C   0  0  0  0  0  3  0  0  0  0  0  0
  -27.5520  -37.3530   24.7460 C   0  0  0  0  0  1  0  0  0  0  0  0
  -26.4820  -37.5200   23.7670 N   0  0  0  0  0  0  0  0  0  0  0  0
  -26.0870  -38.4500   23.8770 H   0  0  0  0  0  0  0  0  0  0  0  0
  -26.3430  -31.8870   25.2070 C   0  0  1  0  0  0  0  0  0  0  0  0
  -25.2400  -31.6750   26.2690 C   0  0  0  0  0  1  0  0  0  0  0  0
  -26.9190  -30.5000   24.8380 C   0  0  0  0  0  1  0  0  0  0  0  0
  -27.4920  -32.6850   25.8660 C   0  0  0  0  0  1  0  0  0  0  0  0
  -31.0100  -16.5880   21.8070 C   0  0  0  0  0  2  0  0  0  0  0  0
  -30.7690  -14.5790   20.3630 C   0  0  0  0  0  0  0  0  0  0  0  0
  -30.4160  -12.4660   19.1370 C   0  0  0  0  0  2  0  0  0  0  0  0
  -29.4440  -12.6770   17.9600 C   0  0  0  0  0  2  0  0  0  0  0  0
  -27.9820  -12.5210   18.4280 C   0  0  0  0  0  2  0  0  0  0  0  0
  -27.6710  -13.3480   19.7070 C   0  0  0  0  0  3  0  0  0  0  0  0
  -28.7520  -13.1140   20.7850 C   0  0  0  0  0  2  0  0  0  0  0  0
  -30.0630  -13.4290   20.1920 N   0  0  0  0  0  0  0  0  0  0  0  0
  -31.8130  -14.8240   19.7520 O   0  0  0  0  0  0  0  0  0  0  0  0
  -30.2770  -15.4380   21.2650 N   0  0  0  0  0  0  0  0  0  0  0  0
  -29.4020  -15.2000   21.7070 H   0  0  0  0  0  0  0  0  0  0  0  0
  -25.2890  -13.9380   20.4840 C   0  0  0  0  0  0  0  0  0  0  0  0
  -24.2320  -13.1600   20.8690 C   0  0  0  0  0  0  0  0  0  0  0  0
  -24.6950  -11.8080   20.8090 C   0  0  0  0  0  0  0  0  0  0  0  0
  -26.3300  -13.0630   20.2130 N   0  0  0  0  0  0  0  0  0  0  0  0
  -25.9770  -11.7760   20.4670 N   0  0  0  0  0  0  0  0  0  0  0  0
  -23.9770  -10.5430   21.0020 C   0  0  0  0  0  0  0  0  0  0  0  0
  -24.4270   -9.5730   21.9260 C   0  0  0  0  0  3  0  0  0  0  0  0
  -23.7140   -8.3680   22.1060 C   0  0  0  0  0  3  0  0  0  0  0  0
  -22.5350   -8.1250   21.3610 C   0  0  0  0  0  0  0  0  0  0  0  0
  -22.1020   -9.0830   20.4280 C   0  0  0  0  0  3  0  0  0  0  0  0
  -22.8160  -10.2800   20.2460 C   0  0  0  0  0  3  0  0  0  0  0  0
  -21.7860   -6.9780   21.4550 O   0  0  0  0  0  0  0  0  0  0  0  0
  -21.7380   -6.2410   22.6110 C   0  0  0  0  0  0  0  0  0  0  0  0
  -21.2720   -6.7900   23.8250 C   0  0  0  0  0  3  0  0  0  0  0  0
  -21.1750   -5.9770   24.9720 C   0  0  0  0  0  3  0  0  0  0  0  0
  -21.5290   -4.6170   24.9050 C   0  0  0  0  0  0  0  0  0  0  0  0
  -21.9820   -4.0660   23.6940 C   0  0  0  0  0  3  0  0  0  0  0  0
  -22.0840   -4.8750   22.5490 C   0  0  0  0  0  0  0  0  0  0  0  0
  -22.5050   -4.3350   21.3800 F   0  0  0  0  0  0  0  0  0  0  0  0
  -21.4240   -3.8340   26.0050 F   0  0  0  0  0  0  0  0  0  0  0  0
  -22.8400  -13.6280   21.1870 C   0  0  0  0  0  0  0  0  0  0  0  0
  -22.1340  -12.9180   22.0610 N   0  0  0  0  0  0  0  0  0  0  0  0
  -22.3860  -14.6590   20.6940 O   0  0  0  0  0  0  0  0  0  0  0  0
  -22.5160  -12.0860   22.4880 H   0  0  0  0  0  0  0  0  0  0  0  0
  -21.2000  -13.2110   22.3120 H   0  0  0  0  0  0  0  0  0  0  0  0
  -25.4460  -15.3120   20.3220 N   0  0  0  0  0  0  0  0  0  0  0  0
  -24.6840  -15.9670   20.4630 H   0  0  0  0  0  0  0  0  0  0  0  0
  -26.2950  -15.7560   20.0000 H   0  0  0  0  0  0  0  0  0  0  0  0
  1  2  2  0
  1  6  1  0
  2  7  1  0
  3  5  1  0
  4  3  1  0
  4 59  1  0
  6  4  2  0
  7  3  2  0
  8 10  1  0
  9  8  1  0
  9 10  1  0
 10  1  1  0
 11  2  1  0
 11 12  1  0
 13 12  1  0
 13 16  1  0
 14 13  1  0
 15 13  1  0
 17 16  1  0
 18 20  1  0
 18 17  1  0
 19 30  2  0
 20 25  1  0
 21 29  1  0
 21 31  1  0
 22 28  1  0
 22 24  1  0
 23 29  1  0
 24 23  1  0
 25 24  2  0
 26 27  1  0
 26 20  2  0
 27 22  2  0
 28 21  1  0
 29 19  1  0
 31 33  2  0
 32 31  1  0
 34 32  1  0
 35 44  2  0
 35 40  1  0
 36 32  1  0
 36 40  1  0
 37 36  1  0
 38 39  1  0
 38 37  1  0
 39 35  1  0
 40 41  2  0
 41 42  1  0
 43 42  2  0
 44 43  1  0
 45 19  1  0
 45 46  1  0
 45 55  1  0
 46 49  1  0
 47 51  1  0
 47 46  1  0
 48 47  2  0
 51 50  1  0
 53 51  1  0
 53 54  1  0
 53 52  1  0
 55 58  1  1
 55 56  1  0
 57 55  1  0
 60 68  1  0
 61 66  1  0
 62 63  1  0
 62 61  1  0
 64 63  1  0
 64 73  1  0
 64 65  1  0
 66 60  1  0
 66 65  1  0
 67 60  2  0
 68 69  1  0
 68 59  1  0
 70 71  2  0
 71 90  1  0
 72 71  1  0
 72 75  1  0
 73 74  1  0
 73 70  1  0
 74 72  2  0
 75 76  1  0
 76 77  2  0
 78 81  1  0
 78 77  1  0
 79 78  2  0
 80 79  1  0
 80 75  2  0
 81 82  1  0
 82 83  1  0
 83 84  2  0
 85 84  1  0
 85 89  1  0
 86 85  2  0
 87 82  2  0
 87 86  1  0
 88 87  1  0
 90 91  1  0
 91 94  1  0
 91 93  1  0
 92 90  2  0
 95 96  1  0
 95 70  1  0
 97 95  1  0
M  ISO  4  17 101  18 101  60 100  68 100
M  END
>  <TORSDO>  (54) 
F 23

>  <SCORE>  (54) 
-12.790

>  <name>  (54) 
53

>  <ligand_id>  (54) 
53

>  <original_smiles>  (54) 
[H]c1c([H])c([H])c2c(c1[H])C([H])([H])C([H])([H])C([H])([H])C2([H])N([H])C(=O)C1([H])N(C(=O)C([H])(N([H])C(=O)C([H])(N([H])C([H])([H])[H])C([H])([H])[H])C(C([H])([H])[H])(C([H])([H])[H])C([H])([H])[H])C([H])([H])c2c([H])c(OC([H])([H])C([H])([H])[N+]([H])([H])C([H])([H])C([H])([H])c3nc(C([H])([H])[H])c(C([H])([H])N([H])C(=O)N4C([H])([H])C([H])([H])C([H])([H])C([H])(n5nc(-c6c([H])c([H])c(Oc7c([H])c([H])c(F)c([H])c7F)c([H])c6[H])c(C(=O)N([H])[H])c5N([H])[H])C4([H])[H])nc3C3([H])C([H])([H])C3([H])[H])c([H])c([H])c2C1([H])[H]

>  <smiles>  (54) 
[H]c1c([H])c([H])c2c(c1[H])C([H])([H])C([H])([H])C([H])([H])C2([H])N([H])C(=O)C1([H])N(C(=O)C([H])(N([H])C(=O)C([H])(N([H])C([H])([H])[H])C([H])([H])[H])C(C([H])([H])[H])(C([H])([H])[H])C([H])([H])[H])C([H])([H])c2c([H])c(OC([H])([H])C([H])([H])[N+]([H])([H])C([H])([H])C([H])([H])c3nc(C([H])([H])[H])c(C([H])([H])N([H])C(=O)N4C([H])([H])C([H])([H])C([H])([H])C([H])(n5nc(-c6c([H])c([H])c(Oc7c([H])c([H])c(F)c([H])c7F)c([H])c6[H])c(C(=O)N([H])[H])c5N([H])[H])C4([H])[H])nc3C3([H])C([H])([H])C3([H])[H])c([H])c([H])c2C1([H])[H]

$$$$
54:0:0
     RDKit          3D

 97106  0  0  1  0  0  0  0  0999 V2000
  -31.0110  -22.1370   21.9220 C   0  0  0  0  0  3  0  0  0  0  0  0
  -30.9040  -20.8280   21.4320 C   0  0  0  0  0  3  0  0  0  0  0  0
  -30.1050  -23.1290   21.5090 C   0  0  0  0  0  0  0  0  0  0  0  0
  -29.1110  -22.7760   20.5530 C   0  0  0  0  0  0  0  0  0  0  0  0
  -29.8990  -20.4640   20.5190 C   0  0  0  0  0  0  0  0  0  0  0  0
  -30.9420  -18.1410   20.2660 C   0  0  0  0  0  2  0  0  0  0  0  0
  -28.9010  -18.1030   20.3550 C   0  0  0  0  0  2  0  0  0  0  0  0
  -29.9350  -17.0530   19.8320 C   0  0  0  0  0  3  0  0  0  0  0  0
  -29.0240  -21.4550   20.1120 N   0  0  0  0  0  0  0  0  0  0  0  0
  -29.8770  -19.1220   19.9330 N   0  0  0  0  0  0  0  0  0  0  0  0
  -30.7380  -14.6160   20.1660 C   0  0  0  0  0  0  0  0  0  0  0  0
  -30.4810  -12.3710   19.1380 C   0  0  0  0  0  2  0  0  0  0  0  0
  -29.5120  -12.5150   17.9430 C   0  0  0  0  0  2  0  0  0  0  0  0
  -28.0490  -12.3750   18.4050 C   0  0  0  0  0  2  0  0  0  0  0  0
  -27.7320  -13.2420   19.6530 C   0  0  0  0  0  3  0  0  0  0  0  0
  -28.8150  -13.0770   20.7450 C   0  0  0  0  0  2  0  0  0  0  0  0
  -30.1150  -13.3950   20.1380 N   0  0  0  0  0  0  0  0  0  0  0  0
  -31.8750  -14.7640   19.7070 O   0  0  0  0  0  0  0  0  0  0  0  0
  -29.9580  -15.6940   20.4910 N   0  0  0  0  0  0  0  0  0  0  0  0
  -29.0920  -15.4400   20.9410 H   0  0  0  0  0  0  0  0  0  0  0  0
  -25.3680  -13.8740   20.4370 C   0  0  0  0  0  0  0  0  0  0  0  0
  -24.2990  -13.1160   20.8300 C   0  0  0  0  0  0  0  0  0  0  0  0
  -24.7370  -11.7570   20.7750 C   0  0  0  0  0  0  0  0  0  0  0  0
  -26.3910  -12.9790   20.1690 N   0  0  0  0  0  0  0  0  0  0  0  0
  -26.0180  -11.7000   20.4320 N   0  0  0  0  0  0  0  0  0  0  0  0
  -23.9950  -10.5050   20.9740 C   0  0  0  0  0  0  0  0  0  0  0  0
  -24.4180   -9.5360   21.9100 C   0  0  0  0  0  3  0  0  0  0  0  0
  -23.6770   -8.3490   22.0960 C   0  0  0  0  0  3  0  0  0  0  0  0
  -22.4990   -8.1230   21.3460 C   0  0  0  0  0  0  0  0  0  0  0  0
  -22.0950   -9.0800   20.3980 C   0  0  0  0  0  3  0  0  0  0  0  0
  -22.8360  -10.2580   20.2110 C   0  0  0  0  0  3  0  0  0  0  0  0
  -21.7300   -6.9870   21.4400 O   0  0  0  0  0  0  0  0  0  0  0  0
  -21.6510   -6.2670   22.6050 C   0  0  0  0  0  0  0  0  0  0  0  0
  -21.1840   -6.8430   23.8070 C   0  0  0  0  0  3  0  0  0  0  0  0
  -21.0520   -6.0480   24.9630 C   0  0  0  0  0  3  0  0  0  0  0  0
  -21.3790   -4.6800   24.9190 C   0  0  0  0  0  0  0  0  0  0  0  0
  -21.8400   -4.1040   23.7210 C   0  0  0  0  0  3  0  0  0  0  0  0
  -21.9730   -4.8960   22.5680 C   0  0  0  0  0  0  0  0  0  0  0  0
  -22.3970   -4.3320   21.4110 F   0  0  0  0  0  0  0  0  0  0  0  0
  -21.2460   -3.9150   26.0280 F   0  0  0  0  0  0  0  0  0  0  0  0
  -22.9170  -13.6130   21.1430 C   0  0  0  0  0  0  0  0  0  0  0  0
  -22.2010  -12.9220   22.0220 N   0  0  0  0  0  0  0  0  0  0  0  0
  -22.4830  -14.6510   20.6440 O   0  0  0  0  0  0  0  0  0  0  0  0
  -22.5650  -12.0820   22.4490 H   0  0  0  0  0  0  0  0  0  0  0  0
  -21.2750  -13.2380   22.2750 H   0  0  0  0  0  0  0  0  0  0  0  0
  -25.5500  -15.2430   20.2650 N   0  0  0  0  0  0  0  0  0  0  0  0
  -24.7910  -15.9040   20.3880 H   0  0  0  0  0  0  0  0  0  0  0  0
  -26.3820  -15.6660   19.8750 H   0  0  0  0  0  0  0  0  0  0  0  0
  -28.0300  -23.8200   20.1720 C   0  0  0  0  0  0  0  0  0  0  0  0
  -26.8570  -23.6660   20.5280 O   0  0  0  0  0  0  0  0  0  0  0  0
  -28.3720  -25.0970   19.3030 C   0  0  0  0  0  2  0  0  0  0  0  0
  -28.2550  -26.4260   19.9560 O   0  0  0  0  0  0  0  0  0  0  0  0
  -24.5340  -31.7210   23.0850 C   0  0  0  0  0  0  0  0  0  0  0  0
  -27.1070  -27.2280   19.9050 C   0  0  0  0  0  0  0  0  0  0  0  0
  -23.3100  -30.3690   21.4180 C   0  0  0  0  0  3  0  0  0  0  0  0
  -24.7420  -28.8390   19.9460 C   0  0  0  0  0  0  0  0  0  0  0  0
  -25.8470  -30.6790   21.2250 C   0  0  0  0  0  2  0  0  0  0  0  0
  -25.9130  -29.3140   20.5480 C   0  0  0  0  0  0  0  0  0  0  0  0
  -27.0940  -28.5180   20.5210 C   0  0  0  0  0  3  0  0  0  0  0  0
  -25.9110  -26.7950   19.2880 C   0  0  0  0  0  3  0  0  0  0  0  0
  -24.7430  -27.5860   19.3110 C   0  0  0  0  0  3  0  0  0  0  0  0
  -23.5100  -29.7190   20.0230 C   0  0  0  0  0  2  0  0  0  0  0  0
  -24.5830  -30.9390   21.9670 N   0  0  0  0  0  0  0  0  0  0  0  0
  -23.4570  -31.9930   23.6340 O   0  0  0  0  0  0  0  0  0  0  0  0
  -22.6470  -29.3360   22.3610 C   0  0  0  0  0  0  0  0  0  0  0  0
  -21.3150  -29.1930   22.2570 N   0  0  0  0  0  0  0  0  0  0  0  0
  -23.3290  -28.6680   23.1410 O   0  0  0  0  0  0  0  0  0  0  0  0
  -20.8250  -29.7830   21.5990 H   0  0  0  0  0  0  0  0  0  0  0  0
  -17.9180  -28.0860   22.8190 C   0  0  0  0  0  0  0  0  0  0  0  0
  -20.4910  -28.2500   23.0140 C   0  0  0  0  0  3  0  0  0  0  0  0
  -20.5270  -26.8430   22.3740 C   0  0  0  0  0  2  0  0  0  0  0  0
  -19.3830  -26.6010   21.3840 C   0  0  0  0  0  2  0  0  0  0  0  0
  -18.0280  -26.7620   22.0790 C   0  0  0  0  0  2  0  0  0  0  0  0
  -19.0760  -28.7910   23.2430 C   0  0  0  0  0  0  0  0  0  0  0  0
  -18.9180  -30.0330   23.8960 C   0  0  0  0  0  3  0  0  0  0  0  0
  -17.6370  -30.5680   24.1280 C   0  0  0  0  0  3  0  0  0  0  0  0
  -16.4950  -29.8580   23.7180 C   0  0  0  0  0  3  0  0  0  0  0  0
  -16.6370  -28.6190   23.0690 C   0  0  0  0  0  3  0  0  0  0  0  0
  -25.8260  -32.3300   23.7140 C   0  0  0  0  0  3  0  0  0  0  0  0
  -26.3470  -31.5220   24.9670 C   0  0  1  0  0  0  0  0  0  0  0  0
  -25.2600  -31.2660   26.0370 C   0  0  0  0  0  1  0  0  0  0  0  0
  -26.9160  -30.1510   24.5360 C   0  0  0  0  0  1  0  0  0  0  0  0
  -27.5070  -32.2920   25.6400 C   0  0  0  0  0  1  0  0  0  0  0  0
  -25.5270  -33.7210   24.0840 N   0  0  0  0  0  0  0  0  0  0  0  0
  -25.8710  -34.7930   23.3570 C   0  0  0  0  0  0  0  0  0  0  0  0
  -26.5400  -34.7130   22.3240 O   0  0  0  0  0  0  0  0  0  0  0  0
  -24.9330  -33.8570   24.8890 H   0  0  0  0  0  0  0  0  0  0  0  0
  -24.1700  -36.6190   23.0410 C   0  0  0  0  0  1  0  0  0  0  0  0
  -25.3950  -36.1720   23.8540 C   0  0  0  0  0  3  0  0  0  0  0  0
  -27.5260  -37.0050   24.7450 C   0  0  0  0  0  1  0  0  0  0  0  0
  -26.4420  -37.2140   23.7890 N   0  0  0  0  0  0  0  0  0  0  0  0
  -26.0450  -38.1350   23.9540 H   0  0  0  0  0  0  0  0  0  0  0  0
  -30.2570  -24.5220   22.1390 C   0  0  0  0  0  2  0  0  0  0  0  0
  -29.4340  -24.6990   23.3500 N   0  0  0  0  0  4  0  0  0  0  0  0
  -28.4520  -24.6330   23.1570 H   0  0  0  0  0  0  0  0  0  0  0  0
  -29.6100  -25.6080   23.7430 H   0  0  0  0  0  0  0  0  0  0  0  0
  -29.6720  -24.0200   24.0500 H   0  0  0  0  0  0  0  0  0  0  0  0
  2  1  2  0
  3  1  1  0
  3 93  1  0
  4  3  2  0
  5  2  1  0
  8  6  1  0
  8  7  1  0
  8 19  1  0
  9  5  2  0
  9  4  1  0
 10  6  1  0
 10  7  1  0
 10  5  1  0
 11 19  1  0
 12 17  1  0
 13 14  1  0
 13 12  1  0
 15 14  1  0
 15 24  1  0
 15 16  1  0
 17 11  1  0
 17 16  1  0
 18 11  2  0
 19 20  1  0
 21 22  2  0
 22 41  1  0
 23 22  1  0
 23 26  1  0
 24 25  1  0
 24 21  1  0
 25 23  2  0
 26 27  1  0
 27 28  2  0
 29 32  1  0
 29 28  1  0
 30 29  2  0
 31 30  1  0
 31 26  2  0
 32 33  1  0
 33 34  1  0
 34 35  2  0
 36 35  1  0
 36 40  1  0
 37 36  2  0
 38 33  2  0
 38 37  1  0
 39 38  1  0
 41 42  1  0
 42 45  1  0
 42 44  1  0
 43 41  2  0
 46 47  1  0
 46 21  1  0
 48 46  1  0
 49 50  2  0
 49  4  1  0
 51 52  1  0
 51 49  1  0
 53 64  2  0
 54 52  1  0
 54 59  1  0
 55 63  1  0
 55 65  1  0
 56 62  1  0
 56 58  1  0
 57 63  1  0
 58 57  1  0
 59 58  2  0
 60 61  1  0
 60 54  2  0
 61 56  2  0
 62 55  1  0
 63 53  1  0
 65 67  2  0
 66 65  1  0
 68 66  1  0
 69 78  2  0
 69 74  1  0
 70 66  1  0
 70 74  1  0
 71 70  1  0
 72 73  1  0
 72 71  1  0
 73 69  1  0
 74 75  2  0
 75 76  1  0
 77 76  2  0
 78 77  1  0
 79 53  1  0
 79 84  1  0
 79 80  1  0
 80 83  1  1
 80 81  1  0
 82 80  1  0
 84 87  1  0
 85 89  1  0
 85 84  1  0
 86 85  2  0
 89 88  1  0
 91 89  1  0
 91 92  1  0
 91 90  1  0
 93 94  1  0
 94 96  1  0
 94 97  1  0
 95 94  1  0
M  ISO  4  11 100  19 100  51 101  52 101
M  END
>  <TORSDO>  (55) 
F 20

>  <SCORE>  (55) 
-14.373

>  <name>  (55) 
54

>  <ligand_id>  (55) 
54

>  <original_smiles>  (55) 
[H]c1c(N2C([H])([H])C([H])(N([H])C(=O)N3C([H])([H])C([H])([H])C([H])([H])C([H])(n4nc(-c5c([H])c([H])c(Oc6c([H])c([H])c(F)c([H])c6F)c([H])c5[H])c(C(=O)N([H])[H])c4N([H])[H])C3([H])[H])C2([H])[H])nc(C(=O)C([H])([H])Oc2c([H])c([H])c3c(c2[H])C([H])([H])N(C(=O)C([H])(N([H])C(=O)C([H])(N([H])C([H])([H])[H])C([H])([H])[H])C(C([H])([H])[H])(C([H])([H])[H])C([H])([H])[H])C([H])(C(=O)N([H])C2([H])c4c([H])c([H])c([H])c([H])c4C([H])([H])C([H])([H])C2([H])[H])C3([H])[H])c(C([H])([H])[N+]([H])([H])[H])c1[H]

>  <smiles>  (55) 
[H]c1c(N2C([H])([H])C([H])(N([H])C(=O)N3C([H])([H])C([H])([H])C([H])([H])C([H])(n4nc(-c5c([H])c([H])c(Oc6c([H])c([H])c(F)c([H])c6F)c([H])c5[H])c(C(=O)N([H])[H])c4N([H])[H])C3([H])[H])C2([H])[H])nc(C(=O)C([H])([H])Oc2c([H])c([H])c3c(c2[H])C([H])([H])N(C(=O)C([H])(N([H])C(=O)C([H])(N([H])C([H])([H])[H])C([H])([H])[H])C(C([H])([H])[H])(C([H])([H])[H])C([H])([H])[H])C([H])(C(=O)N([H])C2([H])c4c([H])c([H])c([H])c([H])c4C([H])([H])C([H])([H])C2([H])[H])C3([H])[H])c(C([H])([H])[N+]([H])([H])[H])c1[H]

$$$$
55:0:0
     RDKit          3D

 98107  0  0  1  0  0  0  0  0999 V2000
  -29.6210  -22.0980   18.0850 C   0  0  0  0  0  3  0  0  0  0  0  0
  -30.5550  -24.2340   17.5250 C   0  0  0  0  0  3  0  0  0  0  0  0
  -28.7480  -22.6920   19.0360 C   0  0  0  0  0  0  0  0  0  0  0  0
  -30.5160  -22.8560   17.3210 C   0  0  0  0  0  0  0  0  0  0  0  0
  -28.9150  -24.1530   19.2090 C   0  0  0  0  0  0  0  0  0  0  0  0
  -29.7910  -24.8480   18.4430 N   0  0  0  0  0  0  0  0  0  0  0  0
  -31.5390  -22.1030   16.1490 Cl  0  0  0  0  0  0  0  0  0  0  0  0
  -28.2770  -25.1770   20.2310 C   0  0  0  0  0  2  0  0  0  0  0  0
  -28.4180  -26.6370   19.9280 O   0  0  0  0  0  0  0  0  0  0  0  0
  -24.6560  -31.9180   23.1240 C   0  0  0  0  0  0  0  0  0  0  0  0
  -27.2860  -27.4620   19.9380 C   0  0  0  0  0  0  0  0  0  0  0  0
  -23.4510  -30.5410   21.4640 C   0  0  0  0  0  3  0  0  0  0  0  0
  -24.9040  -29.0400   19.9900 C   0  0  0  0  0  0  0  0  0  0  0  0
  -25.9830  -30.9000   21.2570 C   0  0  0  0  0  2  0  0  0  0  0  0
  -26.0720  -29.5350   20.5810 C   0  0  0  0  0  0  0  0  0  0  0  0
  -27.2700  -28.7600   20.5380 C   0  0  0  0  0  3  0  0  0  0  0  0
  -26.0940  -27.0200   19.3230 C   0  0  0  0  0  3  0  0  0  0  0  0
  -24.9160  -27.7890   19.3530 C   0  0  0  0  0  3  0  0  0  0  0  0
  -23.6570  -29.8980   20.0690 C   0  0  0  0  0  2  0  0  0  0  0  0
  -24.7160  -31.1370   22.0050 N   0  0  0  0  0  0  0  0  0  0  0  0
  -23.5750  -32.1690   23.6760 O   0  0  0  0  0  0  0  0  0  0  0  0
  -22.8140  -29.4940   22.4080 C   0  0  0  0  0  0  0  0  0  0  0  0
  -21.4860  -29.3150   22.3030 N   0  0  0  0  0  0  0  0  0  0  0  0
  -23.5100  -28.8460   23.1950 O   0  0  0  0  0  0  0  0  0  0  0  0
  -20.9810  -29.8950   21.6460 H   0  0  0  0  0  0  0  0  0  0  0  0
  -18.1190  -28.1140   22.8540 C   0  0  0  0  0  0  0  0  0  0  0  0
  -20.6840  -28.3520   23.0600 C   0  0  0  0  0  3  0  0  0  0  0  0
  -20.7620  -26.9420   22.4290 C   0  0  0  0  0  2  0  0  0  0  0  0
  -19.6320  -26.6620   21.4340 C   0  0  0  0  0  2  0  0  0  0  0  0
  -18.2690  -26.7890   22.1230 C   0  0  0  0  0  2  0  0  0  0  0  0
  -19.2530  -28.8560   23.2800 C   0  0  0  0  0  0  0  0  0  0  0  0
  -19.0590  -30.0960   23.9240 C   0  0  0  0  0  3  0  0  0  0  0  0
  -17.7620  -30.5950   24.1480 C   0  0  0  0  0  3  0  0  0  0  0  0
  -16.6420  -29.8500   23.7400 C   0  0  0  0  0  3  0  0  0  0  0  0
  -16.8210  -28.6110   23.0990 C   0  0  0  0  0  3  0  0  0  0  0  0
  -25.9390  -32.5510   23.7490 C   0  0  0  0  0  3  0  0  0  0  0  0
  -25.6140  -33.9380   24.1170 N   0  0  0  0  0  0  0  0  0  0  0  0
  -25.9170  -35.0130   23.3770 C   0  0  0  0  0  0  0  0  0  0  0  0
  -26.5680  -34.9430   22.3320 O   0  0  0  0  0  0  0  0  0  0  0  0
  -25.0370  -34.0650   24.9350 H   0  0  0  0  0  0  0  0  0  0  0  0
  -24.1470  -36.7820   23.1110 C   0  0  0  0  0  1  0  0  0  0  0  0
  -25.4190  -36.3830   23.8780 C   0  0  0  0  0  3  0  0  0  0  0  0
  -27.5580  -37.2900   24.6710 C   0  0  0  0  0  1  0  0  0  0  0  0
  -26.4290  -37.4570   23.7600 N   0  0  0  0  0  0  0  0  0  0  0  0
  -26.0110  -38.3650   23.9400 H   0  0  0  0  0  0  0  0  0  0  0  0
  -26.4790  -31.7580   25.0020 C   0  0  1  0  0  0  0  0  0  0  0  0
  -25.3990  -31.4820   26.0760 C   0  0  0  0  0  1  0  0  0  0  0  0
  -27.0720  -30.3960   24.5710 C   0  0  0  0  0  1  0  0  0  0  0  0
  -27.6280  -32.5500   25.6690 C   0  0  0  0  0  1  0  0  0  0  0  0
  -27.7430  -21.6590   19.7200 C   0  0  0  0  0  3  0  0  0  0  0  0
  -26.3540  -21.8570   19.2160 N   0  0  0  0  0  4  0  0  0  0  0  0
  -26.3130  -21.6330   18.2340 H   0  0  0  0  0  0  0  0  0  0  0  0
  -25.8100  -21.1530   19.6880 H   0  0  0  0  0  0  0  0  0  0  0  0
  -24.1300  -22.9890   19.2160 C   0  0  0  0  0  1  0  0  0  0  0  0
  -25.6400  -23.1230   19.4580 C   0  0  0  0  0  2  0  0  0  0  0  0
  -27.9150  -20.0600   19.4190 C   0  0  0  0  0  2  0  0  0  0  0  0
  -30.7170  -14.9710   20.1500 C   0  0  0  0  0  0  0  0  0  0  0  0
  -30.5110  -12.6810   19.2100 C   0  0  0  0  0  2  0  0  0  0  0  0
  -29.5660  -12.7190   17.9900 C   0  0  0  0  0  2  0  0  0  0  0  0
  -28.1020  -12.5420   18.4370 C   0  0  0  0  0  2  0  0  0  0  0  0
  -27.7230  -13.4550   19.6350 C   0  0  0  0  0  3  0  0  0  0  0  0
  -28.7940  -13.4250   20.7470 C   0  0  0  0  0  2  0  0  0  0  0  0
  -30.0760  -13.7590   20.1220 N   0  0  0  0  0  0  0  0  0  0  0  0
  -31.9140  -15.0340   19.8540 O   0  0  0  0  0  0  0  0  0  0  0  0
  -29.6750  -17.0020   21.2100 C   0  0  0  0  0  2  0  0  0  0  0  0
  -30.2880  -17.0540   18.9460 C   0  0  0  0  0  2  0  0  0  0  0  0
  -28.6740  -18.1990   20.9270 C   0  0  0  0  0  2  0  0  0  0  0  0
  -29.2230  -18.1610   18.6840 C   0  0  0  0  0  2  0  0  0  0  0  0
  -29.9470  -16.1210   20.0460 N   0  0  0  0  0  0  0  0  0  0  0  0
  -29.0330  -19.1130   19.8030 N   0  0  0  0  0  0  0  0  0  0  0  0
  -25.3410  -14.0100   20.4040 C   0  0  0  0  0  0  0  0  0  0  0  0
  -24.2910  -13.2190   20.7880 C   0  0  0  0  0  0  0  0  0  0  0  0
  -24.7730  -11.8740   20.7440 C   0  0  0  0  0  0  0  0  0  0  0  0
  -26.3920  -13.1460   20.1500 N   0  0  0  0  0  0  0  0  0  0  0  0
  -26.0590  -11.8560   20.4170 N   0  0  0  0  0  0  0  0  0  0  0  0
  -24.0670  -10.6010   20.9410 C   0  0  0  0  0  0  0  0  0  0  0  0
  -24.4970   -9.6570   21.9000 C   0  0  0  0  0  3  0  0  0  0  0  0
  -23.7910   -8.4500   22.0840 C   0  0  0  0  0  3  0  0  0  0  0  0
  -22.6380   -8.1770   21.3080 C   0  0  0  0  0  0  0  0  0  0  0  0
  -22.2280   -9.1090   20.3400 C   0  0  0  0  0  3  0  0  0  0  0  0
  -22.9360  -10.3080   20.1540 C   0  0  0  0  0  3  0  0  0  0  0  0
  -21.9050   -7.0190   21.4000 O   0  0  0  0  0  0  0  0  0  0  0  0
  -21.8180   -6.3120   22.5720 C   0  0  0  0  0  0  0  0  0  0  0  0
  -21.3150   -6.8930   23.7570 C   0  0  0  0  0  3  0  0  0  0  0  0
  -21.1790   -6.1120   24.9220 C   0  0  0  0  0  3  0  0  0  0  0  0
  -21.5340   -4.7500   24.9020 C   0  0  0  0  0  0  0  0  0  0  0  0
  -22.0290   -4.1680   23.7220 C   0  0  0  0  0  3  0  0  0  0  0  0
  -22.1670   -4.9470   22.5590 C   0  0  0  0  0  0  0  0  0  0  0  0
  -22.6240   -4.3760   21.4200 F   0  0  0  0  0  0  0  0  0  0  0  0
  -21.3950   -3.9960   26.0180 F   0  0  0  0  0  0  0  0  0  0  0  0
  -22.8930  -13.6770   21.0820 C   0  0  0  0  0  0  0  0  0  0  0  0
  -22.1850  -12.9610   21.9490 N   0  0  0  0  0  0  0  0  0  0  0  0
  -22.4360  -14.7010   20.5780 O   0  0  0  0  0  0  0  0  0  0  0  0
  -22.5680  -12.1290   22.3750 H   0  0  0  0  0  0  0  0  0  0  0  0
  -21.2470  -13.2480   22.1910 H   0  0  0  0  0  0  0  0  0  0  0  0
  -25.4850  -15.3830   20.2290 N   0  0  0  0  0  0  0  0  0  0  0  0
  -24.7100  -16.0260   20.3490 H   0  0  0  0  0  0  0  0  0  0  0  0
  -26.3270  -15.8260   19.8890 H   0  0  0  0  0  0  0  0  0  0  0  0
  1  3  1  0
  2  6  2  0
  3  5  2  0
  3 50  1  0
  4  2  1  0
  4  1  2  0
  5  8  1  0
  6  5  1  0
  7  4  1  0
  9 11  1  0
  9  8  1  0
 10 21  2  0
 11 16  1  0
 12 20  1  0
 12 22  1  0
 13 19  1  0
 13 15  1  0
 14 20  1  0
 15 14  1  0
 16 15  2  0
 17 18  1  0
 17 11  2  0
 18 13  2  0
 19 12  1  0
 20 10  1  0
 22 24  2  0
 23 22  1  0
 25 23  1  0
 26 35  2  0
 26 31  1  0
 27 23  1  0
 27 31  1  0
 28 27  1  0
 29 30  1  0
 29 28  1  0
 30 26  1  0
 31 32  2  0
 32 33  1  0
 34 33  2  0
 35 34  1  0
 36 10  1  0
 36 37  1  0
 36 46  1  0
 37 40  1  0
 38 42  1  0
 38 37  1  0
 39 38  2  0
 42 41  1  0
 44 42  1  0
 44 45  1  0
 44 43  1  0
 46 49  1  1
 46 47  1  0
 48 46  1  0
 50 56  1  0
 51 55  1  0
 51 53  1  0
 51 50  1  0
 52 51  1  0
 54 55  1  0
 56 70  1  0
 58 63  1  0
 59 60  1  0
 59 58  1  0
 61 60  1  0
 61 74  1  0
 61 62  1  0
 63 57  1  0
 63 62  1  0
 64 57  2  0
 66 69  1  0
 67 65  1  0
 68 66  1  0
 68 70  1  0
 69 57  1  0
 69 65  1  0
 70 67  1  0
 71 72  2  0
 72 91  1  0
 73 72  1  0
 73 76  1  0
 74 71  1  0
 74 75  1  0
 75 73  2  0
 76 77  1  0
 77 78  2  0
 79 82  1  0
 79 78  1  0
 80 79  2  0
 81 80  1  0
 81 76  2  0
 82 83  1  0
 83 84  1  0
 84 85  2  0
 86 85  1  0
 86 90  1  0
 87 86  2  0
 88 83  2  0
 88 87  1  0
 89 88  1  0
 91 92  1  0
 92 95  1  0
 92 94  1  0
 93 91  2  0
 96 97  1  0
 96 71  1  0
 98 96  1  0
M  ISO  4   8 101   9 101  57 100  69 100
M  END
>  <TORSDO>  (56) 
F 21

>  <SCORE>  (56) 
-13.651

>  <name>  (56) 
55

>  <ligand_id>  (56) 
55

>  <original_smiles>  (56) 
[H]c1nc(C([H])([H])Oc2c([H])c([H])c3c(c2[H])C([H])([H])N(C(=O)C([H])(N([H])C(=O)C([H])(N([H])C([H])([H])[H])C([H])([H])[H])C(C([H])([H])[H])(C([H])([H])[H])C([H])([H])[H])C([H])(C(=O)N([H])C2([H])c4c([H])c([H])c([H])c([H])c4C([H])([H])C([H])([H])C2([H])[H])C3([H])[H])c(C([H])(C([H])([H])N2C([H])([H])C([H])([H])N(C(=O)N3C([H])([H])C([H])([H])C([H])([H])C([H])(n4nc(-c5c([H])c([H])c(Oc6c([H])c([H])c(F)c([H])c6F)c([H])c5[H])c(C(=O)N([H])[H])c4N([H])[H])C3([H])[H])C([H])([H])C2([H])[H])[N+]([H])([H])C([H])([H])C([H])([H])[H])c([H])c1Cl

>  <smiles>  (56) 
[H]c1nc(C([H])([H])Oc2c([H])c([H])c3c(c2[H])C([H])([H])N(C(=O)C([H])(N([H])C(=O)C([H])(N([H])C([H])([H])[H])C([H])([H])[H])C(C([H])([H])[H])(C([H])([H])[H])C([H])([H])[H])C([H])(C(=O)N([H])C2([H])c4c([H])c([H])c([H])c([H])c4C([H])([H])C([H])([H])C2([H])[H])C3([H])[H])c(C([H])(C([H])([H])N2C([H])([H])C([H])([H])N(C(=O)N3C([H])([H])C([H])([H])C([H])([H])C([H])(n4nc(-c5c([H])c([H])c(Oc6c([H])c([H])c(F)c([H])c6F)c([H])c5[H])c(C(=O)N([H])[H])c4N([H])[H])C3([H])[H])C([H])([H])C2([H])[H])[N+]([H])([H])C([H])([H])C([H])([H])[H])c([H])c1Cl

$$$$
56:0:0
     RDKit          3D

 92101  0  0  1  0  0  0  0  0999 V2000
  -28.6000  -23.8260   20.5060 C   0  0  0  0  0  3  0  0  0  0  0  0
  -28.8660  -21.6930   20.2970 C   0  0  0  0  0  0  0  0  0  0  0  0
  -30.7150  -24.5130   19.2910 C   0  0  0  0  0  1  0  0  0  0  0  0
  -28.0060  -22.6430   20.8070 N   0  0  0  0  0  0  0  0  0  0  0  0
  -29.9210  -22.2250   19.6800 N   0  0  0  0  0  2  0  0  0  0  0  0
  -29.7350  -23.5850   19.8200 N   0  0  0  0  0  0  0  0  0  0  0  0
  -28.5810  -20.2780   20.4450 N   0  0  0  0  0  0  0  0  0  0  0  0
  -27.7000  -20.0910   20.9120 H   0  0  0  0  0  0  0  0  0  0  0  0
  -30.6260  -14.7070   20.1170 C   0  0  0  0  0  0  0  0  0  0  0  0
  -30.3230  -12.4590   19.1010 C   0  0  0  0  0  2  0  0  0  0  0  0
  -29.3430  -12.5600   17.9150 C   0  0  0  0  0  2  0  0  0  0  0  0
  -27.8910  -12.4040   18.4050 C   0  0  0  0  0  2  0  0  0  0  0  0
  -27.5730  -13.2810   19.6460 C   0  0  0  0  0  3  0  0  0  0  0  0
  -28.6770  -13.1910   20.7210 C   0  0  0  0  0  2  0  0  0  0  0  0
  -29.9480  -13.5150   20.0650 N   0  0  0  0  0  0  0  0  0  0  0  0
  -31.8100  -14.7550   19.7700 O   0  0  0  0  0  0  0  0  0  0  0  0
  -28.8870  -18.0530   19.1970 C   0  0  0  0  0  2  0  0  0  0  0  0
  -29.5980  -18.1900   21.5070 C   0  0  0  0  0  2  0  0  0  0  0  0
  -29.7060  -16.7130   19.0480 C   0  0  0  0  0  2  0  0  0  0  0  0
  -30.3990  -16.8410   21.3310 C   0  0  0  0  0  2  0  0  0  0  0  0
  -29.4540  -19.0700   20.2300 C   0  0  0  0  0  3  0  0  0  0  0  0
  -29.9220  -15.8960   20.2810 N   0  0  0  0  0  0  0  0  0  0  0  0
  -25.2230  -13.8640   20.4950 C   0  0  0  0  0  0  0  0  0  0  0  0
  -24.1690  -13.0870   20.8900 C   0  0  0  0  0  0  0  0  0  0  0  0
  -24.6230  -11.7340   20.8080 C   0  0  0  0  0  0  0  0  0  0  0  0
  -26.2510  -12.9860   20.1920 N   0  0  0  0  0  0  0  0  0  0  0  0
  -25.9000  -11.6990   20.4440 N   0  0  0  0  0  0  0  0  0  0  0  0
  -23.8970  -10.4710   20.9980 C   0  0  0  0  0  0  0  0  0  0  0  0
  -24.3350   -9.4960   21.9220 C   0  0  0  0  0  3  0  0  0  0  0  0
  -23.6080   -8.3000   22.1010 C   0  0  0  0  0  3  0  0  0  0  0  0
  -22.4270   -8.0680   21.3550 C   0  0  0  0  0  0  0  0  0  0  0  0
  -22.0080   -9.0310   20.4190 C   0  0  0  0  0  3  0  0  0  0  0  0
  -22.7360  -10.2200   20.2390 C   0  0  0  0  0  3  0  0  0  0  0  0
  -21.6710   -6.9250   21.4430 O   0  0  0  0  0  0  0  0  0  0  0  0
  -21.5990   -6.1970   22.6040 C   0  0  0  0  0  0  0  0  0  0  0  0
  -21.1200   -6.7620   23.8070 C   0  0  0  0  0  3  0  0  0  0  0  0
  -20.9950   -5.9600   24.9610 C   0  0  0  0  0  3  0  0  0  0  0  0
  -21.3410   -4.5960   24.9120 C   0  0  0  0  0  0  0  0  0  0  0  0
  -21.8140   -4.0320   23.7140 C   0  0  0  0  0  3  0  0  0  0  0  0
  -21.9390   -4.8310   22.5640 C   0  0  0  0  0  0  0  0  0  0  0  0
  -22.3740   -4.2760   21.4060 F   0  0  0  0  0  0  0  0  0  0  0  0
  -21.2140   -3.8250   26.0170 F   0  0  0  0  0  0  0  0  0  0  0  0
  -22.7880  -13.5630   21.2320 C   0  0  0  0  0  0  0  0  0  0  0  0
  -22.0920  -12.8500   22.1090 N   0  0  0  0  0  0  0  0  0  0  0  0
  -22.3370  -14.6050   20.7580 O   0  0  0  0  0  0  0  0  0  0  0  0
  -22.4680  -12.0050   22.5140 H   0  0  0  0  0  0  0  0  0  0  0  0
  -21.1670  -13.1520   22.3800 H   0  0  0  0  0  0  0  0  0  0  0  0
  -25.3900  -15.2380   20.3450 N   0  0  0  0  0  0  0  0  0  0  0  0
  -24.6420  -15.9010   20.5200 H   0  0  0  0  0  0  0  0  0  0  0  0
  -26.2430  -15.6790   20.0270 H   0  0  0  0  0  0  0  0  0  0  0  0
  -28.1110  -25.2180   21.0460 C   0  0  0  0  0  2  0  0  0  0  0  0
  -28.3630  -26.4460   20.2480 O   0  0  0  0  0  0  0  0  0  0  0  0
  -24.6190  -31.8810   23.2440 C   0  0  0  0  0  0  0  0  0  0  0  0
  -27.2820  -27.3380   20.2100 C   0  0  0  0  0  0  0  0  0  0  0  0
  -23.4380  -30.4740   21.5950 C   0  0  0  0  0  3  0  0  0  0  0  0
  -24.9110  -28.9350   20.1790 C   0  0  0  0  0  0  0  0  0  0  0  0
  -25.9770  -30.8100   21.4290 C   0  0  0  0  0  2  0  0  0  0  0  0
  -26.0740  -29.4330   20.7830 C   0  0  0  0  0  0  0  0  0  0  0  0
  -27.2680  -28.6470   20.7880 C   0  0  0  0  0  3  0  0  0  0  0  0
  -26.1010  -26.8940   19.5790 C   0  0  0  0  0  3  0  0  0  0  0  0
  -24.9260  -27.6700   19.5680 C   0  0  0  0  0  3  0  0  0  0  0  0
  -23.6680  -29.8000   20.2170 C   0  0  0  0  0  2  0  0  0  0  0  0
  -24.6970  -31.0730   22.1460 N   0  0  0  0  0  0  0  0  0  0  0  0
  -23.5290  -32.1530   23.7690 O   0  0  0  0  0  0  0  0  0  0  0  0
  -22.7730  -29.4560   22.5500 C   0  0  0  0  0  0  0  0  0  0  0  0
  -21.4470  -29.2790   22.4160 N   0  0  0  0  0  0  0  0  0  0  0  0
  -23.4480  -28.8260   23.3690 O   0  0  0  0  0  0  0  0  0  0  0  0
  -20.9610  -29.8360   21.7280 H   0  0  0  0  0  0  0  0  0  0  0  0
  -18.0640  -28.1000   22.9220 C   0  0  0  0  0  0  0  0  0  0  0  0
  -20.6250  -28.3400   23.1820 C   0  0  0  0  0  3  0  0  0  0  0  0
  -20.7150  -26.9140   22.5900 C   0  0  0  0  0  2  0  0  0  0  0  0
  -19.6060  -26.6090   21.5790 C   0  0  0  0  0  2  0  0  0  0  0  0
  -18.2270  -26.7570   22.2300 C   0  0  0  0  0  2  0  0  0  0  0  0
  -19.1900  -28.8500   23.3540 C   0  0  0  0  0  0  0  0  0  0  0  0
  -18.9820  -30.1080   23.9620 C   0  0  0  0  0  3  0  0  0  0  0  0
  -17.6810  -30.6160   24.1380 C   0  0  0  0  0  3  0  0  0  0  0  0
  -16.5710  -29.8630   23.7230 C   0  0  0  0  0  3  0  0  0  0  0  0
  -16.7620  -28.6070   23.1220 C   0  0  0  0  0  3  0  0  0  0  0  0
  -25.8930  -32.5210   23.8780 C   0  0  0  0  0  3  0  0  0  0  0  0
  -25.5770  -33.9220   24.1910 N   0  0  0  0  0  0  0  0  0  0  0  0
  -25.9160  -34.9680   23.4250 C   0  0  0  0  0  0  0  0  0  0  0  0
  -26.5970  -34.8550   22.4020 O   0  0  0  0  0  0  0  0  0  0  0  0
  -24.9740  -34.0840   24.9830 H   0  0  0  0  0  0  0  0  0  0  0  0
  -24.1940  -36.7590   23.0340 C   0  0  0  0  0  1  0  0  0  0  0  0
  -25.4230  -36.3600   23.8660 C   0  0  0  0  0  3  0  0  0  0  0  0
  -27.5440  -37.2520   24.7240 C   0  0  0  0  0  1  0  0  0  0  0  0
  -26.4570  -37.4120   23.7590 N   0  0  0  0  0  0  0  0  0  0  0  0
  -26.0500  -38.3330   23.8930 H   0  0  0  0  0  0  0  0  0  0  0  0
  -26.3910  -31.7630   25.1700 C   0  0  1  0  0  0  0  0  0  0  0  0
  -25.2830  -31.5330   26.2240 C   0  0  0  0  0  1  0  0  0  0  0  0
  -26.9840  -30.3830   24.8010 C   0  0  0  0  0  1  0  0  0  0  0  0
  -27.5320  -32.5650   25.8390 C   0  0  0  0  0  1  0  0  0  0  0  0
  1  4  1  0
  1 51  1  0
  2  7  1  0
  2  4  2  0
  3  6  1  0
  5  6  1  0
  5  2  1  0
  6  1  1  0
  7  8  1  0
  9 22  1  0
 10 15  1  0
 11 12  1  0
 11 10  1  0
 13 12  1  0
 13 26  1  0
 13 14  1  0
 15  9  1  0
 15 14  1  0
 16  9  2  0
 17 21  1  0
 19 17  1  0
 19 22  1  0
 20 18  1  0
 21  7  1  0
 21 18  1  0
 22 20  1  0
 23 24  2  0
 24 43  1  0
 25 24  1  0
 25 28  1  0
 26 27  1  0
 26 23  1  0
 27 25  2  0
 28 29  1  0
 29 30  2  0
 31 34  1  0
 31 30  1  0
 32 31  2  0
 33 32  1  0
 33 28  2  0
 34 35  1  0
 35 36  1  0
 36 37  2  0
 38 37  1  0
 38 42  1  0
 39 38  2  0
 40 35  2  0
 40 39  1  0
 41 40  1  0
 43 44  1  0
 44 47  1  0
 44 46  1  0
 45 43  2  0
 48 23  1  0
 48 49  1  0
 50 48  1  0
 52 51  1  0
 53 64  2  0
 54 52  1  0
 54 59  1  0
 55 63  1  0
 55 65  1  0
 56 62  1  0
 56 58  1  0
 57 63  1  0
 58 59  2  0
 58 57  1  0
 60 54  2  0
 61 60  1  0
 61 56  2  0
 62 55  1  0
 63 53  1  0
 65 67  2  0
 66 65  1  0
 68 66  1  0
 69 78  2  0
 69 74  1  0
 70 66  1  0
 70 74  1  0
 71 70  1  0
 72 73  1  0
 72 71  1  0
 73 69  1  0
 74 75  2  0
 75 76  1  0
 77 76  2  0
 78 77  1  0
 79 53  1  0
 79 80  1  0
 79 89  1  0
 80 83  1  0
 81 85  1  0
 81 80  1  0
 82 81  2  0
 85 84  1  0
 87 85  1  0
 87 88  1  0
 87 86  1  0
 89 92  1  1
 89 90  1  0
 91 89  1  0
M  ISO  4   9 100  22 100  51 101  52 101
M  END
>  <TORSDO>  (57) 
F 17

>  <SCORE>  (57) 
-14.897

>  <name>  (57) 
56

>  <ligand_id>  (57) 
56

>  <original_smiles>  (57) 
[H]c1c([H])c([H])c2c(c1[H])C([H])([H])C([H])([H])C([H])([H])C2([H])N([H])C(=O)C1([H])N(C(=O)C([H])(N([H])C(=O)C([H])(N([H])C([H])([H])[H])C([H])([H])[H])C(C([H])([H])[H])(C([H])([H])[H])C([H])([H])[H])C([H])([H])c2c([H])c(OC([H])([H])c3nc(N([H])C4([H])C([H])([H])C([H])([H])N(C(=O)N5C([H])([H])C([H])([H])C([H])([H])C([H])(n6nc(-c7c([H])c([H])c(Oc8c([H])c([H])c(F)c([H])c8F)c([H])c7[H])c(C(=O)N([H])[H])c6N([H])[H])C5([H])[H])C([H])([H])C4([H])[H])nn3C([H])([H])[H])c([H])c([H])c2C1([H])[H]

>  <smiles>  (57) 
[H]c1c([H])c([H])c2c(c1[H])C([H])([H])C([H])([H])C([H])([H])C2([H])N([H])C(=O)C1([H])N(C(=O)C([H])(N([H])C(=O)C([H])(N([H])C([H])([H])[H])C([H])([H])[H])C(C([H])([H])[H])(C([H])([H])[H])C([H])([H])[H])C([H])([H])c2c([H])c(OC([H])([H])c3nc(N([H])C4([H])C([H])([H])C([H])([H])N(C(=O)N5C([H])([H])C([H])([H])C([H])([H])C([H])(n6nc(-c7c([H])c([H])c(Oc8c([H])c([H])c(F)c([H])c8F)c([H])c7[H])c(C(=O)N([H])[H])c6N([H])[H])C5([H])[H])C([H])([H])C4([H])[H])nn3C([H])([H])[H])c([H])c([H])c2C1([H])[H]

$$$$
57:0:0
     RDKit          3D

 97106  0  0  1  0  0  0  0  0999 V2000
  -28.8610  -20.0110   21.7950 C   0  0  0  0  0  3  0  0  0  0  0  0
  -28.5240  -21.3680   21.7220 C   0  0  0  0  0  3  0  0  0  0  0  0
  -29.8010  -19.5410   20.8790 C   0  0  0  0  0  0  0  0  0  0  0  0
  -29.9340  -21.6220   19.9480 C   0  0  0  0  0  0  0  0  0  0  0  0
  -29.0720  -22.1810   20.7980 N   0  0  0  0  0  0  0  0  0  0  0  0
  -30.3400  -20.3560   19.9610 N   0  0  0  0  0  0  0  0  0  0  0  0
  -30.1830  -18.1980   20.9010 N   0  0  0  0  0  0  0  0  0  0  0  0
  -29.7730  -17.6210   21.6250 H   0  0  0  0  0  0  0  0  0  0  0  0
  -31.8450  -14.3300   19.1680 C   0  0  0  0  0  0  0  0  0  0  0  0
  -31.2650  -12.0370   18.4620 C   0  0  0  0  0  2  0  0  0  0  0  0
  -30.2050  -12.0560   17.3430 C   0  0  0  0  0  2  0  0  0  0  0  0
  -28.7850  -12.1100   17.9370 C   0  0  0  0  0  2  0  0  0  0  0  0
  -28.6320  -13.2210   19.0070 C   0  0  0  0  0  3  0  0  0  0  0  0
  -29.7830  -13.1510   20.0330 C   0  0  0  0  0  2  0  0  0  0  0  0
  -31.0660  -13.2230   19.3070 N   0  0  0  0  0  0  0  0  0  0  0  0
  -32.7920  -14.3860   18.3750 O   0  0  0  0  0  0  0  0  0  0  0  0
  -32.2730  -17.0210   21.4440 C   0  0  0  0  0  2  0  0  0  0  0  0
  -31.8450  -15.5650   21.2690 C   0  0  0  0  0  2  0  0  0  0  0  0
  -31.4830  -17.7760   20.3810 C   0  0  0  0  0  3  0  0  0  0  0  0
  -31.3730  -16.7460   19.2400 C   0  0  0  0  0  3  0  0  0  0  0  0
  -30.1640  -16.8820   18.2920 C   0  0  0  0  0  1  0  0  0  0  0  0
  -31.4490  -15.4160   19.8650 N   0  0  0  0  0  0  0  0  0  0  0  0
  -26.5280  -14.1850   20.1430 C   0  0  0  0  0  0  0  0  0  0  0  0
  -25.3820  -13.5890   20.5970 C   0  0  0  0  0  0  0  0  0  0  0  0
  -25.5410  -12.1910   20.3550 C   0  0  0  0  0  0  0  0  0  0  0  0
  -27.3250  -13.1560   19.6610 N   0  0  0  0  0  0  0  0  0  0  0  0
  -26.7390  -11.9450   19.8420 N   0  0  0  0  0  0  0  0  0  0  0  0
  -24.5990  -11.0760   20.5300 C   0  0  0  0  0  0  0  0  0  0  0  0
  -24.8870   -9.9960   21.3910 C   0  0  0  0  0  3  0  0  0  0  0  0
  -23.9580   -8.9450   21.5570 C   0  0  0  0  0  3  0  0  0  0  0  0
  -22.7260   -8.9710   20.8610 C   0  0  0  0  0  0  0  0  0  0  0  0
  -22.4550  -10.0390   19.9880 C   0  0  0  0  0  3  0  0  0  0  0  0
  -23.3830  -11.0800   19.8200 C   0  0  0  0  0  3  0  0  0  0  0  0
  -21.7740   -7.9830   20.9400 O   0  0  0  0  0  0  0  0  0  0  0  0
  -21.5430   -7.2970   22.1050 C   0  0  0  0  0  0  0  0  0  0  0  0
  -21.1460   -7.9540   23.2910 C   0  0  0  0  0  3  0  0  0  0  0  0
  -20.8520   -7.2040   24.4470 C   0  0  0  0  0  3  0  0  0  0  0  0
  -20.9460   -5.7990   24.4190 C   0  0  0  0  0  0  0  0  0  0  0  0
  -21.3340   -5.1430   23.2370 C   0  0  0  0  0  3  0  0  0  0  0  0
  -21.6300   -5.8900   22.0840 C   0  0  0  0  0  0  0  0  0  0  0  0
  -21.9850   -5.2530   20.9420 F   0  0  0  0  0  0  0  0  0  0  0  0
  -20.6560   -5.0770   25.5260 F   0  0  0  0  0  0  0  0  0  0  0  0
  -24.1660  -14.2860   21.1380 C   0  0  0  0  0  0  0  0  0  0  0  0
  -23.4690  -13.6580   22.0790 N   0  0  0  0  0  0  0  0  0  0  0  0
  -23.8550  -15.4140   20.7620 O   0  0  0  0  0  0  0  0  0  0  0  0
  -23.7380  -12.7410   22.4040 H   0  0  0  0  0  0  0  0  0  0  0  0
  -22.6550  -14.1010   22.4800 H   0  0  0  0  0  0  0  0  0  0  0  0
  -26.9500  -15.5090   20.0820 N   0  0  0  0  0  0  0  0  0  0  0  0
  -26.3660  -16.2770   20.3900 H   0  0  0  0  0  0  0  0  0  0  0  0
  -27.8390  -15.8110   19.7030 H   0  0  0  0  0  0  0  0  0  0  0  0
  -30.5090  -22.5360   18.8810 C   0  0  0  0  0  2  0  0  0  0  0  0
  -30.8700  -23.8100   19.5180 N   0  0  0  0  0  4  0  0  0  0  0  0
  -31.8060  -23.7100   19.8760 H   0  0  0  0  0  0  0  0  0  0  0  0
  -30.2450  -23.8250   20.3150 H   0  0  0  0  0  0  0  0  0  0  0  0
  -30.7270  -25.0130   18.6610 C   0  0  0  0  0  2  0  0  0  0  0  0
  -31.0440  -26.3070   19.4250 C   0  0  0  0  0  2  0  0  0  0  0  0
  -30.4990  -27.4290   18.7330 O   0  0  0  0  0  0  0  0  0  0  0  0
  -26.5890  -29.3970   24.3230 C   0  0  0  0  0  0  0  0  0  0  0  0
  -29.2740  -27.8320   19.1940 C   0  0  0  0  0  0  0  0  0  0  0  0
  -25.3390  -28.9640   22.2310 C   0  0  0  0  0  3  0  0  0  0  0  0
  -26.7590  -28.6870   20.1320 C   0  0  0  0  0  0  0  0  0  0  0  0
  -27.7700  -29.7470   22.1610 C   0  0  0  0  0  2  0  0  0  0  0  0
  -27.9160  -28.9760   20.8670 C   0  0  0  0  0  0  0  0  0  0  0  0
  -29.1780  -28.5540   20.4010 C   0  0  0  0  0  3  0  0  0  0  0  0
  -28.1050  -27.5450   18.4590 C   0  0  0  0  0  3  0  0  0  0  0  0
  -26.8460  -27.9680   18.9260 C   0  0  0  0  0  3  0  0  0  0  0  0
  -25.4490  -29.1860   20.6990 C   0  0  0  0  0  2  0  0  0  0  0  0
  -26.5900  -29.3510   22.9610 N   0  0  0  0  0  0  0  0  0  0  0  0
  -25.5580  -29.1680   24.9710 O   0  0  0  0  0  0  0  0  0  0  0  0
  -24.9080  -27.5020   22.4860 C   0  0  0  0  0  0  0  0  0  0  0  0
  -23.6880  -27.1550   22.0480 N   0  0  0  0  0  0  0  0  0  0  0  0
  -25.6720  -26.7040   23.0370 O   0  0  0  0  0  0  0  0  0  0  0  0
  -23.1210  -27.8700   21.6120 H   0  0  0  0  0  0  0  0  0  0  0  0
  -20.8560  -25.1670   21.0130 C   0  0  0  0  0  0  0  0  0  0  0  0
  -23.0850  -25.8270   22.1420 C   0  0  0  0  0  3  0  0  0  0  0  0
  -23.7570  -24.8400   21.1600 C   0  0  0  0  0  2  0  0  0  0  0  0
  -23.0420  -24.7540   19.8090 C   0  0  0  0  0  2  0  0  0  0  0  0
  -21.5900  -24.3080   19.9980 C   0  0  0  0  0  2  0  0  0  0  0  0
  -21.5590  -25.8930   22.0100 C   0  0  0  0  0  0  0  0  0  0  0  0
  -20.8330  -26.7050   22.9080 C   0  0  0  0  0  3  0  0  0  0  0  0
  -19.4310  -26.7940   22.8250 C   0  0  0  0  0  3  0  0  0  0  0  0
  -18.7380  -26.0600   21.8460 C   0  0  0  0  0  3  0  0  0  0  0  0
  -19.4500  -25.2470   20.9460 C   0  0  0  0  0  3  0  0  0  0  0  0
  -27.8730  -29.7630   25.1310 C   0  0  0  0  0  3  0  0  0  0  0  0
  -28.3960  -28.5810   26.0370 C   0  0  1  0  0  0  0  0  0  0  0  0
  -27.3020  -27.9570   26.9350 C   0  0  0  0  0  1  0  0  0  0  0  0
  -28.9990  -27.4520   25.1680 C   0  0  0  0  0  1  0  0  0  0  0  0
  -29.5350  -29.0880   26.9540 C   0  0  0  0  0  1  0  0  0  0  0  0
  -27.5630  -30.9460   25.9440 N   0  0  0  0  0  0  0  0  0  0  0  0
  -27.9870  -32.1870   25.6730 C   0  0  0  0  0  0  0  0  0  0  0  0
  -28.7510  -32.4450   24.7390 O   0  0  0  0  0  0  0  0  0  0  0  0
  -26.8960  -30.8190   26.6920 H   0  0  0  0  0  0  0  0  0  0  0  0
  -26.3920  -34.1230   25.8520 C   0  0  0  0  0  1  0  0  0  0  0  0
  -27.4840  -33.3240   26.5820 C   0  0  0  0  0  3  0  0  0  0  0  0
  -29.4930  -33.6190   27.9610 C   0  0  0  0  0  1  0  0  0  0  0  0
  -28.5560  -34.2390   27.0290 N   0  0  0  0  0  0  0  0  0  0  0  0
  -28.1640  -35.0630   27.4760 H   0  0  0  0  0  0  0  0  0  0  0  0
  2  1  2  0
  3  7  1  0
  3  1  1  0
  4  6  1  0
  4  5  2  0
  5  2  1  0
  6  3  2  0
  7  8  1  0
  9 15  1  0
  9 22  1  0
 10 15  1  0
 11 12  1  0
 11 10  1  0
 13 12  1  0
 13 26  1  0
 13 14  1  0
 15 14  1  0
 16  9  2  0
 18 17  1  0
 19  7  1  0
 19 17  1  0
 20 21  1  0
 20 22  1  0
 20 19  1  0
 22 18  1  0
 23 24  2  0
 24 43  1  0
 25 28  1  0
 25 24  1  0
 26 27  1  0
 26 23  1  0
 27 25  2  0
 28 29  1  0
 29 30  2  0
 31 34  1  0
 31 30  1  0
 32 31  2  0
 33 32  1  0
 33 28  2  0
 34 35  1  0
 35 36  1  0
 36 37  2  0
 38 37  1  0
 38 42  1  0
 39 38  2  0
 40 35  2  0
 40 39  1  0
 41 40  1  0
 43 44  1  0
 44 46  1  0
 44 47  1  0
 45 43  2  0
 48 23  1  0
 48 49  1  0
 50 48  1  0
 51 52  1  0
 51  4  1  0
 52 53  1  0
 52 54  1  0
 55 56  1  0
 55 52  1  0
 57 59  1  0
 57 56  1  0
 58 69  2  0
 59 64  1  0
 60 70  1  0
 60 68  1  0
 61 67  1  0
 61 63  1  0
 62 68  1  0
 63 62  1  0
 64 63  2  0
 65 66  1  0
 65 59  2  0
 66 61  2  0
 67 60  1  0
 68 58  1  0
 70 72  2  0
 71 70  1  0
 73 71  1  0
 74 79  1  0
 75 71  1  0
 76 75  1  0
 77 78  1  0
 77 76  1  0
 78 74  1  0
 79 75  1  0
 79 80  2  0
 81 80  1  0
 82 81  2  0
 83 74  2  0
 83 82  1  0
 84 58  1  0
 84 89  1  0
 84 85  1  0
 85 86  1  1
 85 88  1  0
 87 85  1  0
 89 92  1  0
 90 89  1  0
 90 94  1  0
 91 90  2  0
 94 93  1  0
 94 96  1  0
 96 97  1  0
 96 95  1  0
M  ISO  4   9 100  22 100  56 101  57 101
M  END
>  <TORSDO>  (58) 
F 20

>  <SCORE>  (58) 
-5.841

>  <name>  (58) 
57

>  <ligand_id>  (58) 
57

>  <original_smiles>  (58) 
[H]c1nc(C([H])([H])[N+]([H])([H])C([H])([H])C([H])([H])Oc2c([H])c([H])c3c(c2[H])C([H])([H])N(C(=O)C([H])(N([H])C(=O)C([H])(N([H])C([H])([H])[H])C([H])([H])[H])C(C([H])([H])[H])(C([H])([H])[H])C([H])([H])[H])C([H])(C(=O)N([H])C2([H])c4c([H])c([H])c([H])c([H])c4C([H])([H])C([H])([H])C2([H])[H])C3([H])[H])nc(N([H])C2([H])C([H])([H])C([H])([H])N(C(=O)N3C([H])([H])C([H])([H])C([H])([H])C([H])(n4nc(-c5c([H])c([H])c(Oc6c([H])c([H])c(F)c([H])c6F)c([H])c5[H])c(C(=O)N([H])[H])c4N([H])[H])C3([H])[H])C2([H])C([H])([H])[H])c1[H]

>  <smiles>  (58) 
[H]c1nc(C([H])([H])[N+]([H])([H])C([H])([H])C([H])([H])Oc2c([H])c([H])c3c(c2[H])C([H])([H])N(C(=O)C([H])(N([H])C(=O)C([H])(N([H])C([H])([H])[H])C([H])([H])[H])C(C([H])([H])[H])(C([H])([H])[H])C([H])([H])[H])C([H])(C(=O)N([H])C2([H])c4c([H])c([H])c([H])c([H])c4C([H])([H])C([H])([H])C2([H])[H])C3([H])[H])nc(N([H])C2([H])C([H])([H])C([H])([H])N(C(=O)N3C([H])([H])C([H])([H])C([H])([H])C([H])(n4nc(-c5c([H])c([H])c(Oc6c([H])c([H])c(F)c([H])c6F)c([H])c5[H])c(C(=O)N([H])[H])c4N([H])[H])C3([H])[H])C2([H])C([H])([H])[H])c1[H]

$$$$
58:0:0
     RDKit          3D

 95104  0  0  1  0  0  0  0  0999 V2000
  -28.8670  -23.7990   20.3590 C   0  0  0  0  0  0  0  0  0  0  0  0
  -30.0090  -23.8560   21.1290 C   0  0  0  0  0  0  0  0  0  0  0  0
  -29.6340  -21.7120   20.6430 C   0  0  0  0  0  0  0  0  0  0  0  0
  -28.6420  -22.4160   20.0640 N   0  0  0  0  0  0  0  0  0  0  0  0
  -30.4960  -22.5430   21.2780 N   0  0  0  0  0  0  0  0  0  0  0  0
  -29.8810  -20.2990   20.7040 N   0  0  0  0  0  0  0  0  0  0  0  0
  -30.7190  -20.1730   21.2590 H   0  0  0  0  0  0  0  0  0  0  0  0
  -30.6050  -14.6610   19.9850 C   0  0  0  0  0  0  0  0  0  0  0  0
  -30.3010  -12.4250   18.9390 C   0  0  0  0  0  2  0  0  0  0  0  0
  -29.2920  -12.5390   17.7760 C   0  0  0  0  0  2  0  0  0  0  0  0
  -27.8510  -12.3620   18.2920 C   0  0  0  0  0  2  0  0  0  0  0  0
  -27.5560  -13.2210   19.5520 C   0  0  0  0  0  3  0  0  0  0  0  0
  -28.6820  -13.1040   20.6010 C   0  0  0  0  0  2  0  0  0  0  0  0
  -29.9390  -13.4600   19.9320 N   0  0  0  0  0  0  0  0  0  0  0  0
  -31.7670  -14.7300   19.5720 O   0  0  0  0  0  0  0  0  0  0  0  0
  -29.4730  -17.9160   21.4990 C   0  0  0  0  0  2  0  0  0  0  0  0
  -30.2450  -18.2750   19.2070 C   0  0  0  0  0  2  0  0  0  0  0  0
  -29.1400  -16.4070   21.1710 C   0  0  0  0  0  2  0  0  0  0  0  0
  -29.8630  -16.7910   18.8700 C   0  0  0  0  0  2  0  0  0  0  0  0
  -29.3900  -18.9370   20.3180 C   0  0  0  0  0  3  0  0  0  0  0  0
  -29.8510  -15.8280   20.0060 N   0  0  0  0  0  0  0  0  0  0  0  0
  -25.2160  -13.7830   20.4440 C   0  0  0  0  0  0  0  0  0  0  0  0
  -24.1770  -12.9950   20.8580 C   0  0  0  0  0  0  0  0  0  0  0  0
  -24.6400  -11.6470   20.7590 C   0  0  0  0  0  0  0  0  0  0  0  0
  -26.2450  -12.9150   20.1180 N   0  0  0  0  0  0  0  0  0  0  0  0
  -25.9090  -11.6230   20.3690 N   0  0  0  0  0  0  0  0  0  0  0  0
  -23.9300  -10.3770   20.9580 C   0  0  0  0  0  0  0  0  0  0  0  0
  -24.3890   -9.4100   21.8800 C   0  0  0  0  0  3  0  0  0  0  0  0
  -23.6780   -8.2050   22.0670 C   0  0  0  0  0  3  0  0  0  0  0  0
  -22.4930   -7.9590   21.3330 C   0  0  0  0  0  0  0  0  0  0  0  0
  -22.0530   -8.9140   20.4010 C   0  0  0  0  0  3  0  0  0  0  0  0
  -22.7650  -10.1100   20.2110 C   0  0  0  0  0  3  0  0  0  0  0  0
  -21.7500   -6.8070   21.4310 O   0  0  0  0  0  0  0  0  0  0  0  0
  -21.6800   -6.0910   22.6000 C   0  0  0  0  0  0  0  0  0  0  0  0
  -21.2030   -6.6680   23.7970 C   0  0  0  0  0  3  0  0  0  0  0  0
  -21.0830   -5.8780   24.9580 C   0  0  0  0  0  3  0  0  0  0  0  0
  -21.4300   -4.5140   24.9220 C   0  0  0  0  0  0  0  0  0  0  0  0
  -21.8990   -3.9370   23.7290 C   0  0  0  0  0  3  0  0  0  0  0  0
  -22.0210   -4.7240   22.5700 C   0  0  0  0  0  0  0  0  0  0  0  0
  -22.4540   -4.1590   21.4180 F   0  0  0  0  0  0  0  0  0  0  0  0
  -21.3060   -3.7540   26.0360 F   0  0  0  0  0  0  0  0  0  0  0  0
  -22.8000  -13.4590   21.2310 C   0  0  0  0  0  0  0  0  0  0  0  0
  -22.1300  -12.7390   22.1250 N   0  0  0  0  0  0  0  0  0  0  0  0
  -22.3260  -14.4940   20.7650 O   0  0  0  0  0  0  0  0  0  0  0  0
  -22.5280  -11.9010   22.5240 H   0  0  0  0  0  0  0  0  0  0  0  0
  -21.2090  -13.0310   22.4160 H   0  0  0  0  0  0  0  0  0  0  0  0
  -25.3650  -15.1580   20.2940 N   0  0  0  0  0  0  0  0  0  0  0  0
  -24.6040  -15.8060   20.4670 H   0  0  0  0  0  0  0  0  0  0  0  0
  -26.1890  -15.6060   19.9140 H   0  0  0  0  0  0  0  0  0  0  0  0
  -31.6590  -25.7500   20.8050 C   0  0  0  0  0  1  0  0  0  0  0  0
  -30.6660  -25.0570   21.7440 C   0  0  0  0  0  2  0  0  0  0  0  0
  -31.3800  -21.7140   23.4450 C   0  0  0  0  0  1  0  0  0  0  0  0
  -31.7000  -22.1580   22.0110 C   0  0  0  0  0  2  0  0  0  0  0  0
  -27.8910  -24.9390   19.9240 C   0  0  0  0  0  2  0  0  0  0  0  0
  -28.1840  -26.3800   20.1850 O   0  0  0  0  0  0  0  0  0  0  0  0
  -24.5670  -31.8540   23.2220 C   0  0  0  0  0  0  0  0  0  0  0  0
  -27.1000  -27.2800   20.1090 C   0  0  0  0  0  0  0  0  0  0  0  0
  -23.3360  -30.4800   21.5840 C   0  0  0  0  0  3  0  0  0  0  0  0
  -24.7590  -28.9350   20.1280 C   0  0  0  0  0  0  0  0  0  0  0  0
  -25.8790  -30.7710   21.3840 C   0  0  0  0  0  2  0  0  0  0  0  0
  -25.9390  -29.3970   20.7240 C   0  0  0  0  0  0  0  0  0  0  0  0
  -27.1130  -28.5800   20.7100 C   0  0  0  0  0  3  0  0  0  0  0  0
  -25.8990  -26.8930   19.4670 C   0  0  0  0  0  3  0  0  0  0  0  0
  -24.7420  -27.6890   19.4890 C   0  0  0  0  0  3  0  0  0  0  0  0
  -23.5320  -29.8200   20.1950 C   0  0  0  0  0  2  0  0  0  0  0  0
  -24.6140  -31.0520   22.1190 N   0  0  0  0  0  0  0  0  0  0  0  0
  -23.4910  -32.1380   23.7670 O   0  0  0  0  0  0  0  0  0  0  0  0
  -22.6740  -29.4590   22.5410 C   0  0  0  0  0  0  0  0  0  0  0  0
  -21.3480  -29.2810   22.4120 N   0  0  0  0  0  0  0  0  0  0  0  0
  -23.3510  -28.8350   23.3600 O   0  0  0  0  0  0  0  0  0  0  0  0
  -20.8600  -29.8370   21.7230 H   0  0  0  0  0  0  0  0  0  0  0  0
  -17.9720  -28.0740   22.8980 C   0  0  0  0  0  0  0  0  0  0  0  0
  -20.5270  -28.3430   23.1810 C   0  0  0  0  0  3  0  0  0  0  0  0
  -20.6380  -26.9090   22.6140 C   0  0  0  0  0  2  0  0  0  0  0  0
  -19.5420  -26.5780   21.5940 C   0  0  0  0  0  2  0  0  0  0  0  0
  -18.1570  -26.7220   22.2300 C   0  0  0  0  0  2  0  0  0  0  0  0
  -19.0850  -28.8410   23.3310 C   0  0  0  0  0  0  0  0  0  0  0  0
  -18.8590  -30.1070   23.9160 C   0  0  0  0  0  3  0  0  0  0  0  0
  -17.5520  -30.6040   24.0730 C   0  0  0  0  0  3  0  0  0  0  0  0
  -16.4520  -29.8340   23.6560 C   0  0  0  0  0  3  0  0  0  0  0  0
  -16.6630  -28.5700   23.0750 C   0  0  0  0  0  3  0  0  0  0  0  0
  -25.8620  -32.4710   23.8350 C   0  0  0  0  0  3  0  0  0  0  0  0
  -26.3790  -31.6910   25.1050 C   0  0  1  0  0  0  0  0  0  0  0  0
  -25.2900  -31.4600   26.1790 C   0  0  0  0  0  1  0  0  0  0  0  0
  -26.9470  -30.3080   24.7070 C   0  0  0  0  0  1  0  0  0  0  0  0
  -27.5410  -32.4720   25.7630 C   0  0  0  0  0  1  0  0  0  0  0  0
  -25.5680  -33.8720   24.1730 N   0  0  0  0  0  0  0  0  0  0  0  0
  -25.8810  -34.9230   23.4040 C   0  0  0  0  0  0  0  0  0  0  0  0
  -26.5200  -34.8160   22.3530 O   0  0  0  0  0  0  0  0  0  0  0  0
  -24.9990  -34.0290   24.9920 H   0  0  0  0  0  0  0  0  0  0  0  0
  -24.1410  -36.7160   23.1160 C   0  0  0  0  0  1  0  0  0  0  0  0
  -25.4160  -36.3140   23.8760 C   0  0  0  0  0  3  0  0  0  0  0  0
  -27.5810  -37.2040   24.6150 C   0  0  0  0  0  1  0  0  0  0  0  0
  -26.4430  -37.3660   23.7140 N   0  0  0  0  0  0  0  0  0  0  0  0
  -26.0430  -38.2870   23.8700 H   0  0  0  0  0  0  0  0  0  0  0  0
  1  2  2  0
  2  5  1  0
  2 51  1  0
  3  6  1  0
  3  5  1  0
  4  1  1  0
  4  3  2  0
  5 53  1  0
  6  7  1  0
  8 21  1  0
  9 14  1  0
 10 11  1  0
 10  9  1  0
 12 11  1  0
 12 25  1  0
 12 13  1  0
 14  8  1  0
 14 13  1  0
 15  8  2  0
 17 20  1  0
 18 16  1  0
 19 17  1  0
 19 21  1  0
 20  6  1  0
 20 16  1  0
 21 18  1  0
 22 23  2  0
 23 42  1  0
 24 23  1  0
 24 27  1  0
 25 26  1  0
 25 22  1  0
 26 24  2  0
 27 28  1  0
 28 29  2  0
 30 33  1  0
 30 29  1  0
 31 30  2  0
 32 31  1  0
 32 27  2  0
 33 34  1  0
 34 35  1  0
 35 36  2  0
 37 36  1  0
 37 41  1  0
 38 37  2  0
 39 34  2  0
 39 38  1  0
 40 39  1  0
 42 43  1  0
 43 46  1  0
 43 45  1  0
 44 42  2  0
 47 22  1  0
 47 48  1  0
 49 47  1  0
 50 51  1  0
 53 52  1  0
 54 55  1  0
 54  1  1  0
 56 67  2  0
 57 55  1  0
 57 62  1  0
 58 66  1  0
 58 68  1  0
 59 65  1  0
 59 61  1  0
 60 66  1  0
 61 60  1  0
 62 61  2  0
 63 64  1  0
 63 57  2  0
 64 59  2  0
 65 58  1  0
 66 56  1  0
 68 70  2  0
 69 68  1  0
 71 69  1  0
 72 81  2  0
 72 77  1  0
 73 69  1  0
 73 77  1  0
 74 73  1  0
 75 76  1  0
 75 74  1  0
 76 72  1  0
 77 78  2  0
 78 79  1  0
 80 79  2  0
 81 80  1  0
 82 56  1  0
 82 87  1  0
 82 83  1  0
 83 86  1  1
 83 84  1  0
 85 83  1  0
 87 90  1  0
 88 92  1  0
 88 87  1  0
 89 88  2  0
 92 91  1  0
 94 95  1  0
 94 92  1  0
 94 93  1  0
M  ISO  4   8 100  21 100  54 101  55 101
M  END
>  <TORSDO>  (59) 
F 19

>  <SCORE>  (59) 
-13.597

>  <name>  (59) 
58

>  <ligand_id>  (59) 
58

>  <original_smiles>  (59) 
[H]c1c([H])c([H])c2c(c1[H])C([H])([H])C([H])([H])C([H])([H])C2([H])N([H])C(=O)C1([H])N(C(=O)C([H])(N([H])C(=O)C([H])(N([H])C([H])([H])[H])C([H])([H])[H])C(C([H])([H])[H])(C([H])([H])[H])C([H])([H])[H])C([H])([H])c2c([H])c(OC([H])([H])c3nc(N([H])C4([H])C([H])([H])C([H])([H])N(C(=O)N5C([H])([H])C([H])([H])C([H])([H])C([H])(n6nc(-c7c([H])c([H])c(Oc8c([H])c([H])c(F)c([H])c8F)c([H])c7[H])c(C(=O)N([H])[H])c6N([H])[H])C5([H])[H])C([H])([H])C4([H])[H])n(C([H])([H])C([H])([H])[H])c3C([H])([H])C([H])([H])[H])c([H])c([H])c2C1([H])[H]

>  <smiles>  (59) 
[H]c1c([H])c([H])c2c(c1[H])C([H])([H])C([H])([H])C([H])([H])C2([H])N([H])C(=O)C1([H])N(C(=O)C([H])(N([H])C(=O)C([H])(N([H])C([H])([H])[H])C([H])([H])[H])C(C([H])([H])[H])(C([H])([H])[H])C([H])([H])[H])C([H])([H])c2c([H])c(OC([H])([H])c3nc(N([H])C4([H])C([H])([H])C([H])([H])N(C(=O)N5C([H])([H])C([H])([H])C([H])([H])C([H])(n6nc(-c7c([H])c([H])c(Oc8c([H])c([H])c(F)c([H])c8F)c([H])c7[H])c(C(=O)N([H])[H])c6N([H])[H])C5([H])[H])C([H])([H])C4([H])[H])n(C([H])([H])C([H])([H])[H])c3C([H])([H])C([H])([H])[H])c([H])c([H])c2C1([H])[H]

$$$$
59:0:0
     RDKit          3D

 91100  0  0  1  0  0  0  0  0999 V2000
  -30.6720  -22.2020   18.3390 C   0  0  0  0  0  3  0  0  0  0  0  0
  -28.8210  -21.7990   20.1640 C   0  0  0  0  0  0  0  0  0  0  0  0
  -29.5990  -20.5970   19.6520 C   0  0  0  0  0  0  0  0  0  0  0  0
  -29.0250  -23.2090   19.6400 C   0  0  0  0  0  0  0  0  0  0  0  0
  -30.5210  -20.9290   18.7240 N   0  0  0  0  0  0  0  0  0  0  0  0
  -30.0080  -23.2990   18.7190 N   0  0  0  0  0  0  0  0  0  0  0  0
  -30.7750  -15.3580   19.7350 C   0  0  0  0  0  0  0  0  0  0  0  0
  -30.5800  -12.9600   18.8430 C   0  0  0  0  0  2  0  0  0  0  0  0
  -29.5590  -12.8560   17.6860 C   0  0  0  0  0  2  0  0  0  0  0  0
  -28.1400  -12.6330   18.2380 C   0  0  0  0  0  2  0  0  0  0  0  0
  -27.8190  -13.5670   19.4330 C   0  0  0  0  0  3  0  0  0  0  0  0
  -28.9640  -13.6500   20.4650 C   0  0  0  0  0  2  0  0  0  0  0  0
  -30.1590  -14.0900   19.7360 N   0  0  0  0  0  0  0  0  0  0  0  0
  -31.9630  -15.3460   19.3870 O   0  0  0  0  0  0  0  0  0  0  0  0
  -30.7540  -17.9230   20.5160 C   0  0  0  0  0  2  0  0  0  0  0  0
  -29.4870  -17.6420   19.0090 C   0  0  0  0  0  2  0  0  0  0  0  0
  -29.6060  -18.9160   19.9920 C   0  0  0  0  0  3  0  0  0  0  0  0
  -30.0990  -16.6270   19.9940 N   0  0  0  0  0  0  0  0  0  0  0  0
  -25.5390  -14.1300   20.4290 C   0  0  0  0  0  0  0  0  0  0  0  0
  -24.4980  -13.3540   20.8550 C   0  0  0  0  0  0  0  0  0  0  0  0
  -24.9340  -11.9980   20.7220 C   0  0  0  0  0  0  0  0  0  0  0  0
  -26.5370  -13.2510   20.0480 N   0  0  0  0  0  0  0  0  0  0  0  0
  -26.1920  -11.9600   20.2920 N   0  0  0  0  0  0  0  0  0  0  0  0
  -24.2030  -10.7400   20.9170 C   0  0  0  0  0  0  0  0  0  0  0  0
  -24.6410   -9.7670   21.8430 C   0  0  0  0  0  3  0  0  0  0  0  0
  -23.9060   -8.5750   22.0310 C   0  0  0  0  0  3  0  0  0  0  0  0
  -22.7200   -8.3490   21.2940 C   0  0  0  0  0  0  0  0  0  0  0  0
  -22.3020   -9.3100   20.3560 C   0  0  0  0  0  3  0  0  0  0  0  0
  -23.0370  -10.4920   20.1660 C   0  0  0  0  0  3  0  0  0  0  0  0
  -21.9570   -7.2100   21.3920 O   0  0  0  0  0  0  0  0  0  0  0  0
  -21.8510   -6.5120   22.5690 C   0  0  0  0  0  0  0  0  0  0  0  0
  -21.3180   -7.0990   23.7370 C   0  0  0  0  0  3  0  0  0  0  0  0
  -21.1640   -6.3260   24.9060 C   0  0  0  0  0  3  0  0  0  0  0  0
  -21.5310   -4.9670   24.9040 C   0  0  0  0  0  0  0  0  0  0  0  0
  -22.0560   -4.3800   23.7400 C   0  0  0  0  0  3  0  0  0  0  0  0
  -22.2120   -5.1500   22.5750 C   0  0  0  0  0  0  0  0  0  0  0  0
  -22.6990   -4.5740   21.4490 F   0  0  0  0  0  0  0  0  0  0  0  0
  -21.3760   -4.2220   26.0250 F   0  0  0  0  0  0  0  0  0  0  0  0
  -23.1410  -13.8370   21.2720 C   0  0  0  0  0  0  0  0  0  0  0  0
  -22.4850  -13.1150   22.1730 N   0  0  0  0  0  0  0  0  0  0  0  0
  -22.6760  -14.8880   20.8340 O   0  0  0  0  0  0  0  0  0  0  0  0
  -22.8770  -12.2630   22.5450 H   0  0  0  0  0  0  0  0  0  0  0  0
  -21.5770  -13.4170   22.4980 H   0  0  0  0  0  0  0  0  0  0  0  0
  -25.7160  -15.5060   20.3050 N   0  0  0  0  0  0  0  0  0  0  0  0
  -24.9950  -16.1750   20.5480 H   0  0  0  0  0  0  0  0  0  0  0  0
  -26.5580  -15.9420   19.9510 H   0  0  0  0  0  0  0  0  0  0  0  0
  -26.7640  -20.7850   21.0730 C   0  0  0  0  0  1  0  0  0  0  0  0
  -27.9060  -21.6770   21.2210 N   0  0  0  0  0  0  0  0  0  0  0  0
  -27.6890  -22.5430   21.7120 H   0  0  0  0  0  0  0  0  0  0  0  0
  -28.1700  -24.6690   19.9370 C   0  0  0  0  0  2  0  0  0  0  0  0
  -28.3870  -26.2490   19.7400 O   0  0  0  0  0  0  0  0  0  0  0  0
  -24.7070  -31.8410   23.0560 C   0  0  0  0  0  0  0  0  0  0  0  0
  -27.3170  -27.2480   19.7830 C   0  0  0  0  0  0  0  0  0  0  0  0
  -23.5070  -30.4850   21.3900 C   0  0  0  0  0  3  0  0  0  0  0  0
  -24.9550  -28.9920   19.8710 C   0  0  0  0  0  0  0  0  0  0  0  0
  -26.0540  -30.7970   21.1820 C   0  0  0  0  0  2  0  0  0  0  0  0
  -26.1440  -29.4260   20.4710 C   0  0  0  0  0  0  0  0  0  0  0  0
  -27.3220  -28.5770   20.4020 C   0  0  0  0  0  3  0  0  0  0  0  0
  -26.0930  -26.9320   19.1540 C   0  0  0  0  0  3  0  0  0  0  0  0
  -24.9470  -27.7590   19.1980 C   0  0  0  0  0  3  0  0  0  0  0  0
  -23.7110  -29.8660   19.9810 C   0  0  0  0  0  2  0  0  0  0  0  0
  -24.7780  -31.0650   21.9300 N   0  0  0  0  0  0  0  0  0  0  0  0
  -23.6250  -32.0770   23.6150 O   0  0  0  0  0  0  0  0  0  0  0  0
  -22.8700  -29.4260   22.3270 C   0  0  0  0  0  0  0  0  0  0  0  0
  -21.5440  -29.2280   22.2260 N   0  0  0  0  0  0  0  0  0  0  0  0
  -23.5750  -28.7870   23.1120 O   0  0  0  0  0  0  0  0  0  0  0  0
  -21.0270  -29.8000   21.5720 H   0  0  0  0  0  0  0  0  0  0  0  0
  -18.2000  -27.9500   22.7890 C   0  0  0  0  0  0  0  0  0  0  0  0
  -20.7640  -28.2380   22.9750 C   0  0  0  0  0  3  0  0  0  0  0  0
  -20.8610  -26.8410   22.3200 C   0  0  0  0  0  2  0  0  0  0  0  0
  -19.7250  -26.5570   21.3320 C   0  0  0  0  0  2  0  0  0  0  0  0
  -18.3680  -26.6450   22.0330 C   0  0  0  0  0  2  0  0  0  0  0  0
  -19.3240  -28.7070   23.2180 C   0  0  0  0  0  0  0  0  0  0  0  0
  -19.1060  -29.9320   23.8880 C   0  0  0  0  0  3  0  0  0  0  0  0
  -17.8010  -30.3980   24.1310 C   0  0  0  0  0  3  0  0  0  0  0  0
  -16.6930  -29.6380   23.7150 C   0  0  0  0  0  3  0  0  0  0  0  0
  -16.8950  -28.4160   23.0500 C   0  0  0  0  0  3  0  0  0  0  0  0
  -25.9810  -32.4860   23.6860 C   0  0  0  0  0  3  0  0  0  0  0  0
  -25.6410  -33.8640   24.0740 N   0  0  0  0  0  0  0  0  0  0  0  0
  -25.9140  -34.9550   23.3460 C   0  0  0  0  0  0  0  0  0  0  0  0
  -26.5430  -34.9080   22.2860 O   0  0  0  0  0  0  0  0  0  0  0  0
  -25.0720  -33.9710   24.9010 H   0  0  0  0  0  0  0  0  0  0  0  0
  -24.1150  -36.7040   23.1580 C   0  0  0  0  0  1  0  0  0  0  0  0
  -25.4140  -36.3130   23.8810 C   0  0  0  0  0  3  0  0  0  0  0  0
  -27.5600  -37.2480   24.6230 C   0  0  0  0  0  1  0  0  0  0  0  0
  -26.4060  -37.4010   23.7420 N   0  0  0  0  0  0  0  0  0  0  0  0
  -25.9790  -38.3040   23.9320 H   0  0  0  0  0  0  0  0  0  0  0  0
  -26.5250  -31.6860   24.9350 C   0  0  1  0  0  0  0  0  0  0  0  0
  -25.4480  -31.4010   26.0080 C   0  0  0  0  0  1  0  0  0  0  0  0
  -27.1270  -30.3310   24.5000 C   0  0  0  0  0  1  0  0  0  0  0  0
  -27.6690  -32.4810   25.6080 C   0  0  0  0  0  1  0  0  0  0  0  0
  1  6  2  0
  1  5  1  0
  2 48  1  0
  3  2  1  0
  4 50  1  0
  4  2  2  0
  5  3  2  0
  6  4  1  0
  7 13  1  0
  7 18  1  0
  8 13  1  0
  9 10  1  0
  9  8  1  0
 11 10  1  0
 11 22  1  0
 11 12  1  0
 13 12  1  0
 14  7  2  0
 16 17  1  0
 16 18  1  0
 17  3  1  0
 17 15  1  0
 18 15  1  0
 19 20  2  0
 20 39  1  0
 21 20  1  0
 21 24  1  0
 22 23  1  0
 22 19  1  0
 23 21  2  0
 24 25  1  0
 25 26  2  0
 27 30  1  0
 27 26  1  0
 28 27  2  0
 29 28  1  0
 29 24  2  0
 30 31  1  0
 31 36  2  0
 31 32  1  0
 32 33  2  0
 34 33  1  0
 34 38  1  0
 35 34  2  0
 36 35  1  0
 37 36  1  0
 39 40  1  0
 40 43  1  0
 40 42  1  0
 41 39  2  0
 44 19  1  0
 44 45  1  0
 46 44  1  0
 47 48  1  0
 48 49  1  0
 51 53  1  0
 51 50  1  0
 52 63  2  0
 53 58  1  0
 54 62  1  0
 54 64  1  0
 55 61  1  0
 55 57  1  0
 56 62  1  0
 57 56  1  0
 58 57  2  0
 59 60  1  0
 59 53  2  0
 60 55  2  0
 61 54  1  0
 62 52  1  0
 64 66  2  0
 65 64  1  0
 67 65  1  0
 68 77  2  0
 68 73  1  0
 69 65  1  0
 69 73  1  0
 70 69  1  0
 71 72  1  0
 71 70  1  0
 72 68  1  0
 73 74  2  0
 74 75  1  0
 76 75  2  0
 77 76  1  0
 78 52  1  0
 78 79  1  0
 78 88  1  0
 79 82  1  0
 80 84  1  0
 80 79  1  0
 81 80  2  0
 84 83  1  0
 86 84  1  0
 86 87  1  0
 86 85  1  0
 88 91  1  1
 88 89  1  0
 90 88  1  0
M  ISO  4   7 100  18 100  50 101  51 101
M  END
>  <TORSDO>  (60) 
F 18

>  <SCORE>  (60) 
-12.673

>  <name>  (60) 
59

>  <ligand_id>  (60) 
59

>  <original_smiles>  (60) 
[H]c1nc(C([H])([H])Oc2c([H])c([H])c3c(c2[H])C([H])([H])N(C(=O)C([H])(N([H])C(=O)C([H])(N([H])C([H])([H])[H])C([H])([H])[H])C(C([H])([H])[H])(C([H])([H])[H])C([H])([H])[H])C([H])(C(=O)N([H])C2([H])c4c([H])c([H])c([H])c([H])c4C([H])([H])C([H])([H])C2([H])[H])C3([H])[H])c(N([H])C([H])([H])[H])c(C2([H])C([H])([H])N(C(=O)N3C([H])([H])C([H])([H])C([H])([H])C([H])(n4nc(-c5c([H])c([H])c(Oc6c([H])c([H])c(F)c([H])c6F)c([H])c5[H])c(C(=O)N([H])[H])c4N([H])[H])C3([H])[H])C2([H])[H])n1

>  <smiles>  (60) 
[H]c1nc(C([H])([H])Oc2c([H])c([H])c3c(c2[H])C([H])([H])N(C(=O)C([H])(N([H])C(=O)C([H])(N([H])C([H])([H])[H])C([H])([H])[H])C(C([H])([H])[H])(C([H])([H])[H])C([H])([H])[H])C([H])(C(=O)N([H])C2([H])c4c([H])c([H])c([H])c([H])c4C([H])([H])C([H])([H])C2([H])[H])C3([H])[H])c(N([H])C([H])([H])[H])c(C2([H])C([H])([H])N(C(=O)N3C([H])([H])C([H])([H])C([H])([H])C([H])(n4nc(-c5c([H])c([H])c(Oc6c([H])c([H])c(F)c([H])c6F)c([H])c5[H])c(C(=O)N([H])[H])c4N([H])[H])C3([H])[H])C2([H])[H])n1

$$$$
60:0:0
     RDKit          3D

100104  0  0  1  0  0  0  0  0999 V2000
  -27.3580  -18.9730   17.5210 C   0  0  0  0  0  2  0  0  0  0  0  0
  -27.2530  -17.4220   17.0860 C   0  0  0  0  0  2  0  0  0  0  0  0
  -27.2650  -17.5500   19.2920 C   0  0  0  0  0  2  0  0  0  0  0  0
  -27.8120  -19.1880   18.9920 C   0  0  0  0  0  3  0  0  0  0  0  0
  -27.3780  -16.3940   18.1630 N   0  0  0  0  0  0  0  0  0  0  0  0
  -27.4170  -20.6690   19.7300 N   0  0  0  0  0  4  0  0  0  0  0  0
  -27.2340  -20.3880   20.6810 H   0  0  0  0  0  0  0  0  0  0  0  0
  -26.5120  -20.9160   19.3640 H   0  0  0  0  0  0  0  0  0  0  0  0
  -28.2470  -22.1410   19.9470 C   0  0  0  0  0  3  0  0  0  0  0  0
  -27.6750  -23.8620   20.3020 C   0  0  0  0  0  3  0  0  0  0  0  0
  -28.2720  -25.4200   20.6940 O   0  0  0  0  0  0  0  0  0  0  0  0
  -24.8360  -31.8300   23.2970 C   0  0  0  0  0  0  0  0  0  0  0  0
  -27.4700  -26.6880   20.6410 C   0  0  0  0  0  0  0  0  0  0  0  0
  -23.7870  -30.3290   21.6820 C   0  0  0  0  0  3  0  0  0  0  0  0
  -25.3120  -28.6840   20.4350 C   0  0  0  0  0  0  0  0  0  0  0  0
  -26.3710  -30.5060   21.7300 C   0  0  0  0  0  2  0  0  0  0  0  0
  -26.4710  -29.0610   21.1280 C   0  0  0  0  0  0  0  0  0  0  0  0
  -27.5660  -28.0690   21.2250 C   0  0  0  0  0  3  0  0  0  0  0  0
  -26.3010  -26.5230   19.8960 C   0  0  0  0  0  3  0  0  0  0  0  0
  -25.2570  -27.4440   19.8150 C   0  0  0  0  0  3  0  0  0  0  0  0
  -24.1180  -29.6160   20.3560 C   0  0  0  0  0  2  0  0  0  0  0  0
  -25.0230  -30.9170   22.2890 N   0  0  0  0  0  0  0  0  0  0  0  0
  -23.7020  -32.1380   23.7020 O   0  0  0  0  0  0  0  0  0  0  0  0
  -23.0400  -29.3570   22.6370 C   0  0  0  0  0  0  0  0  0  0  0  0
  -21.7120  -29.2130   22.4700 N   0  0  0  0  0  0  0  0  0  0  0  0
  -23.6620  -28.7450   23.5080 O   0  0  0  0  0  0  0  0  0  0  0  0
  -21.2620  -29.7560   21.7470 H   0  0  0  0  0  0  0  0  0  0  0  0
  -18.2780  -28.1470   22.9610 C   0  0  0  0  0  0  0  0  0  0  0  0
  -20.8440  -28.3170   23.2430 C   0  0  0  0  0  3  0  0  0  0  0  0
  -20.8940  -26.8740   22.6890 C   0  0  0  0  0  2  0  0  0  0  0  0
  -19.7910  -26.5780   21.6710 C   0  0  0  0  0  2  0  0  0  0  0  0
  -18.4100  -26.7840   22.3010 C   0  0  0  0  0  2  0  0  0  0  0  0
  -19.4210  -28.8720   23.3890 C   0  0  0  0  0  0  0  0  0  0  0  0
  -19.2440  -30.1460   23.9700 C   0  0  0  0  0  3  0  0  0  0  0  0
  -17.9580  -30.6970   24.1220 C   0  0  0  0  0  3  0  0  0  0  0  0
  -16.8280  -29.9700   23.7080 C   0  0  0  0  0  3  0  0  0  0  0  0
  -16.9890  -28.6960   23.1360 C   0  0  0  0  0  3  0  0  0  0  0  0
  -26.0380  -32.5440   23.9790 C   0  0  0  0  0  3  0  0  0  0  0  0
  -25.6680  -33.9580   24.1810 N   0  0  0  0  0  0  0  0  0  0  0  0
  -26.0550  -34.9750   23.3990 C   0  0  0  0  0  0  0  0  0  0  0  0
  -26.8240  -34.8260   22.4480 O   0  0  0  0  0  0  0  0  0  0  0  0
  -24.9950  -34.1480   24.9090 H   0  0  0  0  0  0  0  0  0  0  0  0
  -24.3400  -36.7120   22.7750 C   0  0  0  0  0  1  0  0  0  0  0  0
  -25.5040  -36.3810   23.7230 C   0  0  0  0  0  3  0  0  0  0  0  0
  -27.5360  -37.3560   24.6970 C   0  0  0  0  0  1  0  0  0  0  0  0
  -26.5270  -37.4470   23.6460 N   0  0  0  0  0  0  0  0  0  0  0  0
  -26.0930  -38.3660   23.7010 H   0  0  0  0  0  0  0  0  0  0  0  0
  -26.4420  -31.8900   25.3580 C   0  0  1  0  0  0  0  0  0  0  0  0
  -25.2520  -31.6980   26.3280 C   0  0  0  0  0  1  0  0  0  0  0  0
  -27.0990  -30.5080   25.1500 C   0  0  0  0  0  1  0  0  0  0  0  0
  -27.4970  -32.7730   26.0650 C   0  0  0  0  0  1  0  0  0  0  0  0
  -26.7220  -14.9260   17.6310 C   0  0  0  0  0  2  0  0  0  0  0  0
  -27.9660  -12.1830   18.3950 C   0  0  0  0  0  2  0  0  0  0  0  0
  -25.2950  -13.0070   18.9440 C   0  0  0  0  0  1  0  0  0  0  0  0
  -26.6130  -13.1840   18.0050 C   0  0  0  0  0  3  0  0  0  0  0  0
  -26.0790  -11.8700   21.6070 C   0  0  0  0  0  3  0  0  0  0  0  0
  -28.4800  -11.5260   19.9700 C   0  0  0  0  0  3  0  0  0  0  0  0
  -23.3760  -12.4630   18.8690 C   0  0  0  0  0 15  0  0  0  0  0  0
  -24.2610  -11.2220   22.2340 C   0  0  0  0  0  1  0  0  0  0  0  0
  -22.7270  -11.4200   20.6760 C   0  0  0  0  0 15  0  0  0  0  0  0
  -27.6160  -11.3000   21.4050 N   0  0  0  0  0  0  0  0  0  0  0  0
  -29.8540  -11.9320   20.3990 C   0  0  0  0  0  1  0  0  0  0  0  0
  -31.5000  -14.3470   21.6420 C   0  0  0  0  0  3  0  0  0  0  0  0
  -32.1200  -12.4870   19.9960 C   0  0  0  0  0  1  0  0  0  0  0  0
  -30.9620  -13.0810   18.5340 C   0  0  0  0  0  2  0  0  0  0  0  0
  -29.3300  -13.9970   18.9160 C   0  0  0  0  0  1  0  0  0  0  0  0
  -28.3780  -13.9560   20.6600 C   0  0  0  0  0  2  0  0  0  0  0  0
  -29.3680  -13.3940   22.2550 C   0  0  0  0  0  1  0  0  0  0  0  0
  -31.2180  -13.1320   21.6460 N   0  0  0  0  0  2  0  0  0  0  0  0
  -32.4120  -15.0460   21.2020 O   0  0  0  0  0  1  0  0  0  0  0  0
  -30.7370  -13.9000   20.7340 N   0  0  0  0  0  0  0  0  0  0  0  0
  -30.7060  -14.4720   19.9080 H   0  0  0  0  0  0  0  0  0  0  0  0
  -25.7230  -14.1080   21.3460 C   0  0  0  0  0  0  0  0  0  0  0  0
  -24.4570  -13.1590   21.5170 C   0  0  0  0  0  2  0  0  0  0  0  0
  -24.9000  -11.0270   20.7130 C   0  0  1  0  0  0  0  0  0  0  0  0
  -26.9770  -13.3170   20.7010 N   0  0  0  0  0  2  0  0  0  0  0  0
  -26.2160  -11.0590   20.1950 N   0  0  0  0  0  0  0  0  0  0  0  0
  -24.6620   -9.6430   20.9450 C   0  0  0  0  0  0  0  0  0  0  0  0
  -25.0950   -8.9200   22.0870 C   0  0  0  0  0  3  0  0  0  0  0  0
  -24.3850   -7.7680   22.4080 C   0  0  0  0  0  3  0  0  0  0  0  0
  -23.3380   -7.3840   21.5370 C   0  0  0  0  0  0  0  0  0  0  0  0
  -23.0410   -8.0700   20.3680 C   0  0  0  0  0  3  0  0  0  0  0  0
  -23.7920   -9.1490   20.0080 C   0  0  0  0  0  3  0  0  0  0  0  0
  -22.5960   -6.2690   21.6360 O   0  0  0  0  0  0  0  0  0  0  0  0
  -22.3140   -5.7540   22.8450 C   0  0  0  0  0  0  0  0  0  0  0  0
  -21.5160   -6.4610   23.7610 C   0  0  0  0  0  3  0  0  0  0  0  0
  -21.1200   -5.8220   24.9470 C   0  0  0  0  0  3  0  0  0  0  0  0
  -21.5220   -4.4960   25.1930 C   0  0  0  0  0  0  0  0  0  0  0  0
  -22.3430   -3.8100   24.2780 C   0  0  0  0  0  3  0  0  0  0  0  0
  -22.7430   -4.4450   23.0960 C   0  0  0  0  0  0  0  0  0  0  0  0
  -23.5080   -3.7970   22.1840 F   0  0  0  0  0  0  0  0  0  0  0  0
  -21.1130   -3.8710   26.3180 F   0  0  0  0  0  0  0  0  0  0  0  0
  -23.1950  -13.9540   21.7500 C   0  0  0  0  0  0  0  0  0  0  0  0
  -22.3760  -13.5360   22.6940 N   0  0  0  0  0  0  0  0  0  0  0  0
  -22.8740  -14.8240   20.9570 O   0  0  0  0  0  0  0  0  0  0  0  0
  -22.6180  -12.7700   23.2990 H   0  0  0  0  0  0  0  0  0  0  0  0
  -21.4890  -14.0010   22.8210 H   0  0  0  0  0  0  0  0  0  0  0  0
  -25.8380  -15.4610   21.3080 N   0  0  0  0  0  4  0  0  0  0  0  0
  -24.9440  -15.9350   21.2760 H   0  0  0  0  0  0  0  0  0  0  0  0
  -26.4150  -15.7380   20.5210 H   0  0  0  0  0  0  0  0  0  0  0  0
  1  4  1  0
  2  1  1  0
  2  5  1  0
  4  3  1  0
  4  6  1  0
  5  3  1  0
  6  9  1  0
  6  7  1  0
  8  6  1  0
  9 10  2  0
 10 11  1  0
 12 23  2  0
 13 11  1  0
 13 18  1  0
 14 22  1  0
 14 24  1  0
 15 17  1  0
 16 22  1  0
 17 18  2  0
 17 16  1  0
 19 13  2  0
 20 19  1  0
 20 15  2  0
 21 15  1  0
 21 14  1  0
 22 12  1  0
 24 26  2  0
 25 24  1  0
 27 25  1  0
 28 37  2  0
 28 33  1  0
 29 25  1  0
 29 33  1  0
 30 29  1  0
 31 32  1  0
 31 30  1  0
 32 28  1  0
 33 34  2  0
 34 35  1  0
 36 35  2  0
 37 36  1  0
 38 12  1  0
 38 39  1  0
 38 48  1  0
 39 42  1  0
 40 44  1  0
 40 39  1  0
 41 40  2  0
 44 43  1  0
 46 47  1  0
 46 44  1  0
 46 45  1  0
 48 51  1  1
 48 49  1  0
 50 48  1  0
 52 55  1  0
 52  5  1  0
 53 57  1  0
 55 53  1  0
 55 54  1  0
 56 61  1  0
 57 62  1  0
 57 61  1  0
 63 70  1  0
 63 69  1  0
 65 66  1  0
 65 64  1  0
 67 76  1  0
 67 68  1  0
 71 63  1  0
 71 69  1  0
 72 71  1  0
 73 74  1  0
 74 93  1  0
 75 78  1  0
 75 56  1  0
 75 59  1  6
 76 73  1  0
 77 75  1  0
 77 61  1  0
 77 56  1  0
 78 79  1  0
 79 80  2  0
 81 84  1  0
 81 80  1  0
 82 81  2  0
 83 82  1  0
 83 78  2  0
 84 85  1  0
 85 90  2  0
 85 86  1  0
 86 87  2  0
 87 88  1  0
 88 92  1  0
 89 88  2  0
 90 89  1  0
 91 90  1  0
 93 94  1  0
 94 97  1  0
 94 96  1  0
 95 93  2  0
 98 73  2  0
 99 98  1  0
100 98  1  0
M  ISO  4  10 101  11 101  63 100  71 100
M  END
>  <TORSDO>  (61) 
F 22

>  <SCORE>  (61) 
2.305

>  <name>  (61) 
60

>  <ligand_id>  (61) 
60

>  <original_smiles>  (61) 
[H]c1c([H])c([H])c2c(c1[H])C([H])([H])C([H])([H])C([H])([H])C2([H])N([H])C(=O)C1([H])N(C(=O)C([H])(N([H])C(=O)C([H])(N([H])C([H])([H])[H])C([H])([H])[H])C(C([H])([H])[H])(C([H])([H])[H])C([H])([H])[H])C([H])([H])c2c([H])c(OC([H])([H])C([H])([H])[N+]([H])([H])C3([H])C([H])([H])N(C([H])([H])c4c([H])c(C([H])([H])N([H])C(=O)N5C([H])([H])C([H])([H])C([H])([H])C([H])(n6nc(-c7c([H])c([H])c(Oc8c([H])c([H])c(F)c([H])c8F)c([H])c7[H])c(C(=O)N([H])[H])c6N([H])[H])C5([H])[H])nc5c4C([H])([H])C([H])([H])C5([H])[H])C([H])([H])C3([H])[H])c([H])c([H])c2C1([H])[H]

>  <smiles>  (61) 
[H]c1c([H])c([H])c2c(c1[H])C([H])([H])C([H])([H])C([H])([H])C2([H])N([H])C(=O)C1([H])N(C(=O)C([H])(N([H])C(=O)C([H])(N([H])C([H])([H])[H])C([H])([H])[H])C(C([H])([H])[H])(C([H])([H])[H])C([H])([H])[H])C([H])([H])c2c([H])c(OC([H])([H])C([H])([H])[N+]([H])([H])C3([H])C([H])([H])N(C([H])([H])c4c([H])c(C([H])([H])N([H])C(=O)N5C([H])([H])C([H])([H])C([H])([H])C([H])(n6nc(-c7c([H])c([H])c(Oc8c([H])c([H])c(F)c([H])c8F)c([H])c7[H])c(C(=O)N([H])[H])c6N([H])[H])C5([H])[H])nc5c4C([H])([H])C([H])([H])C5([H])[H])C([H])([H])C3([H])[H])c([H])c([H])c2C1([H])[H]

$$$$
61:0:0
     RDKit          3D

100110  0  0  1  0  0  0  0  0999 V2000
  -30.7530  -21.1850   21.2330 C   0  0  0  0  0  3  0  0  0  0  0  0
  -30.1910  -20.7990   19.9960 C   0  0  0  0  0  0  0  0  0  0  0  0
  -29.6280  -21.8730   19.2510 C   0  0  0  0  0  0  0  0  0  0  0  0
  -30.2650  -23.3740   20.8540 C   0  0  0  0  0  0  0  0  0  0  0  0
  -30.7680  -22.4620   21.6560 N   0  0  0  0  0  0  0  0  0  0  0  0
  -29.6800  -23.1520   19.6910 N   0  0  0  0  0  0  0  0  0  0  0  0
  -30.4040  -24.6560   21.3100 N   0  0  0  0  0  0  0  0  0  0  0  0
  -30.8230  -24.7020   22.2290 H   0  0  0  0  0  0  0  0  0  0  0  0
  -29.8940  -21.8700   16.6670 C   0  0  0  0  0  2  0  0  0  0  0  0
  -28.7400  -22.8120   16.8750 C   0  0  0  0  0  2  0  0  0  0  0  0
  -29.0110  -21.7050   17.8830 C   0  0  0  0  0  3  0  0  0  0  0  0
  -31.6670  -19.3320   18.5540 C   0  0  0  0  0  1  0  0  0  0  0  0
  -30.3630  -19.3820   19.3660 C   0  0  0  0  0  3  0  0  0  0  0  0
  -30.7230  -14.5900   20.2090 C   0  0  0  0  0  0  0  0  0  0  0  0
  -30.3530  -12.4820   18.9560 C   0  0  0  0  0  2  0  0  0  0  0  0
  -29.3690  -12.6660   17.7800 C   0  0  0  0  0  2  0  0  0  0  0  0
  -27.9230  -12.4660   18.2700 C   0  0  0  0  0  2  0  0  0  0  0  0
  -27.6100  -13.3120   19.5300 C   0  0  0  0  0  3  0  0  0  0  0  0
  -28.7000  -13.0950   20.6120 C   0  0  0  0  0  2  0  0  0  0  0  0
  -29.9990  -13.4430   20.0220 N   0  0  0  0  0  0  0  0  0  0  0  0
  -31.8060  -14.7550   19.6380 O   0  0  0  0  0  0  0  0  0  0  0  0
  -28.9460  -16.1940   21.1520 C   0  0  0  0  0  2  0  0  0  0  0  0
  -31.2390  -16.4400   21.7860 C   0  0  0  0  0  2  0  0  0  0  0  0
  -28.8880  -17.5910   20.4640 C   0  0  0  0  0  2  0  0  0  0  0  0
  -31.1800  -17.9200   21.3200 C   0  0  0  0  0  2  0  0  0  0  0  0
  -30.2830  -15.5490   21.0880 N   0  0  0  0  0  0  0  0  0  0  0  0
  -30.2470  -18.1270   20.1850 N   0  0  2  0  0  4  0  0  0  0  0  0
  -30.5780  -17.4580   19.5030 H   0  0  0  0  0  0  0  0  0  0  0  0
  -25.2490  -13.9330   20.3530 C   0  0  0  0  0  0  0  0  0  0  0  0
  -24.2010  -13.1650   20.7700 C   0  0  0  0  0  0  0  0  0  0  0  0
  -24.6580  -11.8090   20.7070 C   0  0  0  0  0  0  0  0  0  0  0  0
  -26.2780  -13.0490   20.0600 N   0  0  0  0  0  0  0  0  0  0  0  0
  -25.9310  -11.7710   20.3440 N   0  0  0  0  0  0  0  0  0  0  0  0
  -23.9400  -10.5480   20.9100 C   0  0  0  0  0  0  0  0  0  0  0  0
  -24.3870   -9.5890   21.8450 C   0  0  0  0  0  3  0  0  0  0  0  0
  -23.6710   -8.3900   22.0410 C   0  0  0  0  0  3  0  0  0  0  0  0
  -22.4920   -8.1400   21.3010 C   0  0  0  0  0  0  0  0  0  0  0  0
  -22.0610   -9.0870   20.3530 C   0  0  0  0  0  3  0  0  0  0  0  0
  -22.7790  -10.2780   20.1570 C   0  0  0  0  0  3  0  0  0  0  0  0
  -21.7530   -6.9870   21.4000 O   0  0  0  0  0  0  0  0  0  0  0  0
  -21.7020   -6.2650   22.5650 C   0  0  0  0  0  0  0  0  0  0  0  0
  -21.2730   -6.8430   23.7790 C   0  0  0  0  0  3  0  0  0  0  0  0
  -21.1760   -6.0510   24.9390 C   0  0  0  0  0  3  0  0  0  0  0  0
  -21.4890   -4.6810   24.8850 C   0  0  0  0  0  0  0  0  0  0  0  0
  -21.9130   -4.1010   23.6780 C   0  0  0  0  0  3  0  0  0  0  0  0
  -22.0200   -4.8920   22.5180 C   0  0  0  0  0  0  0  0  0  0  0  0
  -22.4070   -4.3240   21.3500 F   0  0  0  0  0  0  0  0  0  0  0  0
  -21.3820   -3.9190   25.9980 F   0  0  0  0  0  0  0  0  0  0  0  0
  -22.8150  -13.6420   21.0990 C   0  0  0  0  0  0  0  0  0  0  0  0
  -22.1140  -12.9440   21.9800 N   0  0  0  0  0  0  0  0  0  0  0  0
  -22.3650  -14.6760   20.6040 O   0  0  0  0  0  0  0  0  0  0  0  0
  -22.5000  -12.1200   22.4200 H   0  0  0  0  0  0  0  0  0  0  0  0
  -21.1850  -13.2470   22.2390 H   0  0  0  0  0  0  0  0  0  0  0  0
  -25.4010  -15.3050   20.1630 N   0  0  0  0  0  0  0  0  0  0  0  0
  -24.5950  -15.9180   20.2350 H   0  0  0  0  0  0  0  0  0  0  0  0
  -26.1300  -15.6770   19.5730 H   0  0  0  0  0  0  0  0  0  0  0  0
  -30.6410  -25.8450   20.4910 C   0  0  0  0  0  2  0  0  0  0  0  0
  -29.6080  -27.1670   22.4250 C   0  0  0  0  0  1  0  0  0  0  0  0
  -29.7000  -27.0080   20.8900 C   0  0  0  0  0  3  0  0  0  0  0  0
  -28.4730  -26.6640   20.2610 O   0  0  0  0  0  0  0  0  0  0  0  0
  -24.6050  -31.8970   23.2560 C   0  0  0  0  0  0  0  0  0  0  0  0
  -27.3620  -27.4750   20.2890 C   0  0  0  0  0  0  0  0  0  0  0  0
  -23.4350  -30.4500   21.6190 C   0  0  0  0  0  3  0  0  0  0  0  0
  -24.9280  -28.9030   20.2560 C   0  0  0  0  0  0  0  0  0  0  0  0
  -25.9490  -30.8630   21.4270 C   0  0  0  0  0  2  0  0  0  0  0  0
  -26.0710  -29.4810   20.8250 C   0  0  0  0  0  0  0  0  0  0  0  0
  -27.2960  -28.7860   20.8170 C   0  0  0  0  0  3  0  0  0  0  0  0
  -26.2000  -26.9020   19.7380 C   0  0  0  0  0  3  0  0  0  0  0  0
  -24.9890  -27.6130   19.7030 C   0  0  0  0  0  3  0  0  0  0  0  0
  -23.6690  -29.7320   20.2620 C   0  0  0  0  0  2  0  0  0  0  0  0
  -24.6810  -31.0850   22.1640 N   0  0  0  0  0  0  0  0  0  0  0  0
  -23.5150  -32.1640   23.7810 O   0  0  0  0  0  0  0  0  0  0  0  0
  -22.7790  -29.4460   22.5920 C   0  0  0  0  0  0  0  0  0  0  0  0
  -21.4570  -29.2590   22.4530 N   0  0  0  0  0  0  0  0  0  0  0  0
  -23.4570  -28.8350   23.4240 O   0  0  0  0  0  0  0  0  0  0  0  0
  -20.9740  -29.8020   21.7500 H   0  0  0  0  0  0  0  0  0  0  0  0
  -18.0820  -28.0680   22.9380 C   0  0  0  0  0  0  0  0  0  0  0  0
  -20.6370  -28.3260   23.2250 C   0  0  0  0  0  3  0  0  0  0  0  0
  -20.7410  -26.8890   22.6640 C   0  0  0  0  0  2  0  0  0  0  0  0
  -19.6480  -26.5600   21.6410 C   0  0  0  0  0  2  0  0  0  0  0  0
  -18.2630  -26.7110   22.2780 C   0  0  0  0  0  2  0  0  0  0  0  0
  -19.1970  -28.8320   23.3700 C   0  0  0  0  0  0  0  0  0  0  0  0
  -18.9790  -30.1010   23.9460 C   0  0  0  0  0  3  0  0  0  0  0  0
  -17.6740  -30.6080   24.0970 C   0  0  0  0  0  3  0  0  0  0  0  0
  -16.5720  -29.8400   23.6840 C   0  0  0  0  0  3  0  0  0  0  0  0
  -16.7750  -28.5710   23.1120 C   0  0  0  0  0  3  0  0  0  0  0  0
  -25.8760  -32.5470   23.8850 C   0  0  0  0  0  3  0  0  0  0  0  0
  -26.3960  -31.7860   25.1670 C   0  0  1  0  0  0  0  0  0  0  0  0
  -25.3020  -31.5340   26.2310 C   0  0  0  0  0  1  0  0  0  0  0  0
  -26.9960  -30.4160   24.7720 C   0  0  0  0  0  1  0  0  0  0  0  0
  -27.5320  -32.5960   25.8320 C   0  0  0  0  0  1  0  0  0  0  0  0
  -25.5510  -33.9460   24.1990 N   0  0  0  0  0  0  0  0  0  0  0  0
  -25.8940  -34.9930   23.4370 C   0  0  0  0  0  0  0  0  0  0  0  0
  -26.5900  -34.8870   22.4230 O   0  0  0  0  0  0  0  0  0  0  0  0
  -24.9290  -34.1030   24.9770 H   0  0  0  0  0  0  0  0  0  0  0  0
  -24.1660  -36.7740   23.0150 C   0  0  0  0  0  1  0  0  0  0  0  0
  -25.3850  -36.3820   23.8670 C   0  0  0  0  0  3  0  0  0  0  0  0
  -27.4860  -37.2860   24.7570 C   0  0  0  0  0  1  0  0  0  0  0  0
  -26.4150  -37.4400   23.7770 N   0  0  0  0  0  0  0  0  0  0  0  0
  -25.9990  -38.3580   23.9120 H   0  0  0  0  0  0  0  0  0  0  0  0
  1  5  1  0
  2  1  2  0
  3  6  2  0
  3  2  1  0
  4  7  1  0
  4  5  2  0
  6  4  1  0
  7  8  1  0
  9 10  1  0
  9 11  1  0
 10 11  1  0
 11  3  1  0
 13 12  1  0
 13  2  1  0
 13 27  1  0
 14 26  1  0
 15 20  1  0
 16 17  1  0
 16 15  1  0
 18 17  1  0
 18 32  1  0
 18 19  1  0
 20 14  1  0
 20 19  1  0
 21 14  2  0
 24 22  1  0
 25 23  1  0
 26 22  1  0
 26 23  1  0
 27 24  1  0
 27 25  1  0
 27 28  1  6
 29 30  2  0
 30 49  1  0
 31 30  1  0
 31 34  1  0
 32 33  1  0
 32 29  1  0
 33 31  2  0
 34 35  1  0
 35 36  2  0
 37 40  1  0
 37 36  1  0
 38 37  2  0
 39 38  1  0
 39 34  2  0
 40 41  1  0
 41 42  1  0
 42 43  2  0
 44 43  1  0
 44 48  1  0
 45 44  2  0
 46 41  2  0
 46 45  1  0
 47 46  1  0
 49 50  1  0
 50 53  1  0
 50 52  1  0
 51 49  2  0
 54 55  1  0
 54 29  1  0
 56 54  1  0
 57 59  1  0
 57  7  1  0
 59 58  1  0
 60 62  1  0
 60 59  1  0
 61 72  2  0
 62 67  1  0
 63 71  1  0
 63 73  1  0
 64 70  1  0
 64 66  1  0
 65 71  1  0
 66 65  1  0
 67 66  2  0
 68 62  2  0
 69 68  1  0
 69 64  2  0
 70 63  1  0
 71 61  1  0
 73 75  2  0
 74 73  1  0
 76 74  1  0
 77 86  2  0
 77 82  1  0
 78 74  1  0
 78 82  1  0
 79 78  1  0
 80 81  1  0
 80 79  1  0
 81 77  1  0
 82 83  2  0
 83 84  1  0
 85 84  2  0
 86 85  1  0
 87 61  1  0
 87 92  1  0
 87 88  1  0
 88 91  1  1
 88 89  1  0
 90 88  1  0
 92 95  1  0
 93 97  1  0
 93 92  1  0
 94 93  2  0
 97 96  1  0
 99 97  1  0
 99100  1  0
 99 98  1  0
M  ISO  4  14 100  26 100  59 101  60 101
M  END
>  <TORSDO>  (62) 
F 20

>  <SCORE>  (62) 
-14.092

>  <name>  (62) 
61

>  <ligand_id>  (62) 
61

>  <original_smiles>  (62) 
[H]c1nc(N([H])C([H])([H])C([H])(Oc2c([H])c([H])c3c(c2[H])C([H])([H])N(C(=O)C([H])(N([H])C(=O)C([H])(N([H])C([H])([H])[H])C([H])([H])[H])C(C([H])([H])[H])(C([H])([H])[H])C([H])([H])[H])C([H])(C(=O)N([H])C2([H])c4c([H])c([H])c([H])c([H])c4C([H])([H])C([H])([H])C2([H])[H])C3([H])[H])C([H])([H])[H])nc(C2([H])C([H])([H])C2([H])[H])c1C([H])(C([H])([H])[H])[N+]1([H])C([H])([H])C([H])([H])N(C(=O)N2C([H])([H])C([H])([H])C([H])([H])C([H])(n3nc(-c4c([H])c([H])c(Oc5c([H])c([H])c(F)c([H])c5F)c([H])c4[H])c(C(=O)N([H])[H])c3N([H])[H])C2([H])[H])C([H])([H])C1([H])[H]

>  <smiles>  (62) 
[H]c1nc(N([H])C([H])([H])C([H])(Oc2c([H])c([H])c3c(c2[H])C([H])([H])N(C(=O)C([H])(N([H])C(=O)C([H])(N([H])C([H])([H])[H])C([H])([H])[H])C(C([H])([H])[H])(C([H])([H])[H])C([H])([H])[H])C([H])(C(=O)N([H])C2([H])c4c([H])c([H])c([H])c([H])c4C([H])([H])C([H])([H])C2([H])[H])C3([H])[H])C([H])([H])[H])nc(C2([H])C([H])([H])C2([H])[H])c1C([H])(C([H])([H])[H])[N+]1([H])C([H])([H])C([H])([H])N(C(=O)N2C([H])([H])C([H])([H])C([H])([H])C([H])(n3nc(-c4c([H])c([H])c(Oc5c([H])c([H])c(F)c([H])c5F)c([H])c4[H])c(C(=O)N([H])[H])c3N([H])[H])C2([H])[H])C([H])([H])C1([H])[H]

$$$$
62:0:0
     RDKit          3D

 96105  0  0  1  0  0  0  0  0999 V2000
  -30.6320  -14.7060   20.4580 C   0  0  0  0  0  0  0  0  0  0  0  0
  -30.4070  -12.4440   19.4260 C   0  0  0  0  0  2  0  0  0  0  0  0
  -29.4820  -12.5250   18.1950 C   0  0  0  0  0  2  0  0  0  0  0  0
  -28.0070  -12.3600   18.6130 C   0  0  0  0  0  2  0  0  0  0  0  0
  -27.6240  -13.2490   19.8270 C   0  0  0  0  0  3  0  0  0  0  0  0
  -28.6730  -13.1620   20.9550 C   0  0  0  0  0  2  0  0  0  0  0  0
  -29.9770  -13.4990   20.3690 N   0  0  0  0  0  0  0  0  0  0  0  0
  -31.8160  -14.7950   20.1200 O   0  0  0  0  0  0  0  0  0  0  0  0
  -31.7530  -21.9610   21.0150 C   0  0  0  0  0  3  0  0  0  0  0  0
  -30.9070  -23.0030   20.6030 C   0  0  0  0  0  0  0  0  0  0  0  0
  -29.5680  -22.6560   20.3050 C   0  0  0  0  0  0  0  0  0  0  0  0
  -30.1190  -20.3700   20.7390 C   0  0  0  0  0  0  0  0  0  0  0  0
  -29.5140  -18.1720   19.6280 C   0  0  0  0  0  2  0  0  0  0  0  0
  -30.7410  -18.1270   21.6650 C   0  0  0  0  0  2  0  0  0  0  0  0
  -29.1010  -16.6550   19.8630 C   0  0  0  0  0  2  0  0  0  0  0  0
  -30.2640  -16.6700   21.9810 C   0  0  0  0  0  2  0  0  0  0  0  0
  -31.3610  -20.6810   21.0720 N   0  0  0  0  0  0  0  0  0  0  0  0
  -29.2040  -21.3090   20.3600 N   0  0  0  0  0  0  0  0  0  0  0  0
  -29.8310  -18.9580   20.8370 N   0  0  0  0  0  0  0  0  0  0  0  0
  -29.9200  -15.8420   20.8080 N   0  0  0  0  0  0  0  0  0  0  0  0
  -25.2290  -13.8450   20.5270 C   0  0  0  0  0  0  0  0  0  0  0  0
  -24.1600  -13.0720   20.8910 C   0  0  0  0  0  0  0  0  0  0  0  0
  -24.6250  -11.7210   20.8720 C   0  0  0  0  0  0  0  0  0  0  0  0
  -26.2760  -12.9650   20.3070 N   0  0  0  0  0  0  0  0  0  0  0  0
  -25.9180  -11.6830   20.5770 N   0  0  0  0  0  0  0  0  0  0  0  0
  -23.8980  -10.4580   21.0620 C   0  0  0  0  0  0  0  0  0  0  0  0
  -24.3340   -9.4870   21.9900 C   0  0  0  0  0  3  0  0  0  0  0  0
  -23.6060   -8.2910   22.1700 C   0  0  0  0  0  3  0  0  0  0  0  0
  -22.4290   -8.0570   21.4190 C   0  0  0  0  0  0  0  0  0  0  0  0
  -22.0120   -9.0170   20.4810 C   0  0  0  0  0  3  0  0  0  0  0  0
  -22.7400  -10.2060   20.3010 C   0  0  0  0  0  3  0  0  0  0  0  0
  -21.6730   -6.9130   21.5070 O   0  0  0  0  0  0  0  0  0  0  0  0
  -21.6380   -6.1600   22.6530 C   0  0  0  0  0  0  0  0  0  0  0  0
  -21.2430   -6.7090   23.8930 C   0  0  0  0  0  3  0  0  0  0  0  0
  -21.1550   -5.8840   25.0320 C   0  0  0  0  0  3  0  0  0  0  0  0
  -21.4510   -4.5110   24.9330 C   0  0  0  0  0  0  0  0  0  0  0  0
  -21.8380   -3.9620   23.6980 C   0  0  0  0  0  3  0  0  0  0  0  0
  -21.9280   -4.7840   22.5610 C   0  0  0  0  0  0  0  0  0  0  0  0
  -22.2820   -4.2460   21.3690 F   0  0  0  0  0  0  0  0  0  0  0  0
  -21.3590   -3.7160   26.0240 F   0  0  0  0  0  0  0  0  0  0  0  0
  -22.7600  -13.5490   21.1450 C   0  0  0  0  0  0  0  0  0  0  0  0
  -22.0240  -12.8600   22.0100 N   0  0  0  0  0  0  0  0  0  0  0  0
  -22.3260  -14.5690   20.6110 O   0  0  0  0  0  0  0  0  0  0  0  0
  -22.3870  -12.0330   22.4620 H   0  0  0  0  0  0  0  0  0  0  0  0
  -21.0850  -13.1630   22.2250 H   0  0  0  0  0  0  0  0  0  0  0  0
  -25.3940  -15.2140   20.3420 N   0  0  0  0  0  0  0  0  0  0  0  0
  -24.6290  -15.8720   20.4460 H   0  0  0  0  0  0  0  0  0  0  0  0
  -26.2530  -15.6490   20.0320 H   0  0  0  0  0  0  0  0  0  0  0  0
  -31.4860  -24.4270   20.5330 C   0  0  0  0  0  2  0  0  0  0  0  0
  -31.8780  -24.8680   19.1780 N   0  0  0  0  0  4  0  0  0  0  0  0
  -32.5560  -24.2560   18.7630 H   0  0  0  0  0  0  0  0  0  0  0  0
  -32.3060  -25.7760   19.2420 H   0  0  0  0  0  0  0  0  0  0  0  0
  -31.0960  -24.9610   18.5580 H   0  0  0  0  0  0  0  0  0  0  0  0
  -28.5790  -23.7740   19.7600 C   0  0  0  0  0  2  0  0  0  0  0  0
  -28.1520  -25.0540   20.6400 C   0  0  0  0  0  2  0  0  0  0  0  0
  -28.3200  -26.4510   20.1340 O   0  0  0  0  0  0  0  0  0  0  0  0
  -24.5940  -31.8610   23.1820 C   0  0  0  0  0  0  0  0  0  0  0  0
  -27.2030  -27.3020   20.1230 C   0  0  0  0  0  0  0  0  0  0  0  0
  -23.3880  -30.4630   21.5410 C   0  0  0  0  0  3  0  0  0  0  0  0
  -24.8370  -28.9110   20.1130 C   0  0  0  0  0  0  0  0  0  0  0  0
  -25.9260  -30.7880   21.3480 C   0  0  0  0  0  2  0  0  0  0  0  0
  -26.0080  -29.4060   20.7040 C   0  0  0  0  0  0  0  0  0  0  0  0
  -27.1960  -28.6160   20.6920 C   0  0  0  0  0  3  0  0  0  0  0  0
  -26.0130  -26.8600   19.5090 C   0  0  0  0  0  3  0  0  0  0  0  0
  -24.8430  -27.6440   19.5060 C   0  0  0  0  0  3  0  0  0  0  0  0
  -23.6000  -29.7860   20.1610 C   0  0  0  0  0  2  0  0  0  0  0  0
  -24.6550  -31.0540   22.0810 N   0  0  0  0  0  0  0  0  0  0  0  0
  -23.5110  -32.1340   23.7200 O   0  0  0  0  0  0  0  0  0  0  0  0
  -22.7310  -29.4450   22.5030 C   0  0  0  0  0  0  0  0  0  0  0  0
  -21.4010  -29.2800   22.3930 N   0  0  0  0  0  0  0  0  0  0  0  0
  -23.4150  -28.8060   23.3060 O   0  0  0  0  0  0  0  0  0  0  0  0
  -20.9070  -29.8470   21.7170 H   0  0  0  0  0  0  0  0  0  0  0  0
  -18.0200  -28.1110   22.9310 C   0  0  0  0  0  0  0  0  0  0  0  0
  -20.5850  -28.3440   23.1670 C   0  0  0  0  0  3  0  0  0  0  0  0
  -20.6650  -26.9170   22.5790 C   0  0  0  0  0  2  0  0  0  0  0  0
  -19.5470  -26.6120   21.5780 C   0  0  0  0  0  2  0  0  0  0  0  0
  -18.1750  -26.7670   22.2410 C   0  0  0  0  0  2  0  0  0  0  0  0
  -19.1520  -28.8600   23.3520 C   0  0  0  0  0  0  0  0  0  0  0  0
  -18.9520  -30.1190   23.9560 C   0  0  0  0  0  3  0  0  0  0  0  0
  -17.6560  -30.6310   24.1450 C   0  0  0  0  0  3  0  0  0  0  0  0
  -16.5390  -29.8800   23.7390 C   0  0  0  0  0  3  0  0  0  0  0  0
  -16.7220  -28.6230   23.1370 C   0  0  0  0  0  3  0  0  0  0  0  0
  -25.8770  -32.4960   23.8000 C   0  0  0  0  0  3  0  0  0  0  0  0
  -26.4070  -31.7150   25.0660 C   0  0  1  0  0  0  0  0  0  0  0  0
  -25.3220  -31.4660   26.1400 C   0  0  0  0  0  1  0  0  0  0  0  0
  -26.9900  -30.3420   24.6550 C   0  0  0  0  0  1  0  0  0  0  0  0
  -27.5600  -32.5060   25.7260 C   0  0  0  0  0  1  0  0  0  0  0  0
  -25.5620  -33.8890   24.1490 N   0  0  0  0  0  0  0  0  0  0  0  0
  -25.8810  -34.9520   23.3990 C   0  0  0  0  0  0  0  0  0  0  0  0
  -26.5410  -34.8640   22.3600 O   0  0  0  0  0  0  0  0  0  0  0  0
  -24.9770  -34.0300   24.9600 H   0  0  0  0  0  0  0  0  0  0  0  0
  -24.1380  -36.7370   23.0830 C   0  0  0  0  0  1  0  0  0  0  0  0
  -25.3920  -36.3340   23.8760 C   0  0  0  0  0  3  0  0  0  0  0  0
  -27.5330  -37.2220   24.6880 C   0  0  0  0  0  1  0  0  0  0  0  0
  -26.4160  -37.3940   23.7610 N   0  0  0  0  0  0  0  0  0  0  0  0
  -26.0070  -38.3090   23.9240 H   0  0  0  0  0  0  0  0  0  0  0  0
  1 20  1  0
  2  7  1  0
  3  4  1  0
  3  2  1  0
  5  4  1  0
  5 24  1  0
  5  6  1  0
  7  1  1  0
  7  6  1  0
  8  1  2  0
  9 17  1  0
 10  9  2  0
 11 18  2  0
 11 10  1  0
 12 19  1  0
 12 17  2  0
 13 15  1  0
 13 19  1  0
 14 16  1  0
 15 20  1  0
 18 12  1  0
 19 14  1  0
 20 16  1  0
 21 22  2  0
 22 41  1  0
 23 22  1  0
 23 26  1  0
 24 21  1  0
 24 25  1  0
 25 23  2  0
 26 27  1  0
 27 28  2  0
 29 32  1  0
 29 28  1  0
 30 29  2  0
 31 30  1  0
 31 26  2  0
 32 33  1  0
 33 34  1  0
 34 35  2  0
 36 35  1  0
 36 40  1  0
 37 36  2  0
 38 33  2  0
 38 37  1  0
 39 38  1  0
 41 42  1  0
 42 45  1  0
 42 44  1  0
 43 41  2  0
 46 47  1  0
 46 21  1  0
 48 46  1  0
 49 10  1  0
 50 52  1  0
 50 49  1  0
 51 50  1  0
 53 50  1  0
 54 11  1  0
 54 55  1  0
 56 55  1  0
 57 68  2  0
 58 56  1  0
 58 63  1  0
 59 67  1  0
 59 69  1  0
 60 66  1  0
 60 62  1  0
 61 67  1  0
 62 61  1  0
 63 62  2  0
 64 58  2  0
 65 64  1  0
 65 60  2  0
 66 59  1  0
 67 57  1  0
 69 71  2  0
 70 69  1  0
 72 70  1  0
 73 82  2  0
 73 78  1  0
 74 70  1  0
 74 78  1  0
 75 74  1  0
 76 77  1  0
 76 75  1  0
 77 73  1  0
 78 79  2  0
 79 80  1  0
 81 80  2  0
 82 81  1  0
 83 57  1  0
 83 88  1  0
 83 84  1  0
 84 87  1  1
 84 85  1  0
 86 84  1  0
 88 91  1  0
 89 93  1  0
 89 88  1  0
 90 89  2  0
 93 92  1  0
 95 93  1  0
 95 96  1  0
 95 94  1  0
M  ISO  4   1 100  20 100  55 101  56 101
M  END
>  <TORSDO>  (63) 
F 19

>  <SCORE>  (63) 
-14.741

>  <name>  (63) 
62

>  <ligand_id>  (63) 
62

>  <original_smiles>  (63) 
[H]c1nc(N2C([H])([H])C([H])([H])N(C(=O)N3C([H])([H])C([H])([H])C([H])([H])C([H])(n4nc(-c5c([H])c([H])c(Oc6c([H])c([H])c(F)c([H])c6F)c([H])c5[H])c(C(=O)N([H])[H])c4N([H])[H])C3([H])[H])C([H])([H])C2([H])[H])nc(C([H])([H])C([H])([H])Oc2c([H])c([H])c3c(c2[H])C([H])([H])N(C(=O)C([H])(N([H])C(=O)C([H])(N([H])C([H])([H])[H])C([H])([H])[H])C(C([H])([H])[H])(C([H])([H])[H])C([H])([H])[H])C([H])(C(=O)N([H])C2([H])c4c([H])c([H])c([H])c([H])c4C([H])([H])C([H])([H])C2([H])[H])C3([H])[H])c1C([H])([H])[N+]([H])([H])[H]

>  <smiles>  (63) 
[H]c1nc(N2C([H])([H])C([H])([H])N(C(=O)N3C([H])([H])C([H])([H])C([H])([H])C([H])(n4nc(-c5c([H])c([H])c(Oc6c([H])c([H])c(F)c([H])c6F)c([H])c5[H])c(C(=O)N([H])[H])c4N([H])[H])C3([H])[H])C([H])([H])C2([H])[H])nc(C([H])([H])C([H])([H])Oc2c([H])c([H])c3c(c2[H])C([H])([H])N(C(=O)C([H])(N([H])C(=O)C([H])(N([H])C([H])([H])[H])C([H])([H])[H])C(C([H])([H])[H])(C([H])([H])[H])C([H])([H])[H])C([H])(C(=O)N([H])C2([H])c4c([H])c([H])c([H])c([H])c4C([H])([H])C([H])([H])C2([H])[H])C3([H])[H])c1C([H])([H])[N+]([H])([H])[H]

$$$$
63:0:0
     RDKit          3D

 96105  0  0  1  0  0  0  0  0999 V2000
  -26.7530  -24.0170   20.7460 C   0  0  0  0  0  2  0  0  0  0  0  0
  -27.8070  -24.8240   18.8450 C   0  0  0  0  0  2  0  0  0  0  0  0
  -27.2830  -25.3820   20.1850 C   0  0  0  0  0  3  0  0  0  0  0  0
  -25.9430  -23.5040   19.4750 C   0  0  0  0  0  3  0  0  0  0  0  0
  -26.6960  -24.0050   18.3080 N   0  0  0  0  0  4  0  0  0  0  0  0
  -27.0760  -23.1580   17.8890 H   0  0  0  0  0  0  0  0  0  0  0  0
  -26.0650  -24.4920   17.6640 H   0  0  0  0  0  0  0  0  0  0  0  0
  -28.1030  -26.4800   20.8430 O   0  0  0  0  0  0  0  0  0  0  0  0
  -24.7360  -32.0770   23.5660 C   0  0  0  0  0  0  0  0  0  0  0  0
  -27.4900  -27.6720   20.4910 C   0  0  0  0  0  0  0  0  0  0  0  0
  -23.6060  -30.6990   21.8570 C   0  0  0  0  0  3  0  0  0  0  0  0
  -25.1370  -29.2120   20.4660 C   0  0  0  0  0  0  0  0  0  0  0  0
  -26.1360  -31.0200   21.8210 C   0  0  0  0  0  2  0  0  0  0  0  0
  -26.2480  -29.6500   21.1950 C   0  0  0  0  0  0  0  0  0  0  0  0
  -27.3810  -28.8090   21.3370 C   0  0  0  0  0  3  0  0  0  0  0  0
  -26.5380  -27.5770   19.4590 C   0  0  0  0  0  3  0  0  0  0  0  0
  -25.2780  -28.1560   19.5850 C   0  0  0  0  0  3  0  0  0  0  0  0
  -23.8730  -30.0400   20.4880 C   0  0  0  0  0  2  0  0  0  0  0  0
  -24.8420  -31.2840   22.4690 N   0  0  0  0  0  0  0  0  0  0  0  0
  -23.6310  -32.3400   24.0660 O   0  0  0  0  0  0  0  0  0  0  0  0
  -22.9360  -29.6730   22.7930 C   0  0  0  0  0  0  0  0  0  0  0  0
  -21.6130  -29.4600   22.6440 N   0  0  0  0  0  0  0  0  0  0  0  0
  -23.5860  -29.0580   23.6290 O   0  0  0  0  0  0  0  0  0  0  0  0
  -21.1190  -29.9560   21.9100 H   0  0  0  0  0  0  0  0  0  0  0  0
  -18.3250  -28.1250   22.8720 C   0  0  0  0  0  0  0  0  0  0  0  0
  -20.8200  -28.4780   23.3830 C   0  0  0  0  0  3  0  0  0  0  0  0
  -21.0620  -27.0950   22.7340 C   0  0  0  0  0  2  0  0  0  0  0  0
  -20.0530  -26.7880   21.6250 C   0  0  0  0  0  2  0  0  0  0  0  0
  -18.6570  -26.7950   22.1940 C   0  0  0  0  0  2  0  0  0  0  0  0
  -19.3500  -28.9150   23.4380 C   0  0  0  0  0  0  0  0  0  0  0  0
  -19.0060  -30.1240   24.0840 C   0  0  0  0  0  3  0  0  0  0  0  0
  -17.6720  -30.5700   24.1350 C   0  0  0  0  0  3  0  0  0  0  0  0
  -16.6450  -29.7820   23.5630 C   0  0  0  0  0  3  0  0  0  0  0  0
  -16.9770  -28.5560   22.9520 C   0  0  0  0  0  3  0  0  0  0  0  0
  -25.9940  -32.7120   24.2340 C   0  0  0  0  0  3  0  0  0  0  0  0
  -25.6870  -34.1240   24.4660 N   0  0  0  0  0  0  0  0  0  0  0  0
  -26.0240  -35.1180   23.6360 C   0  0  0  0  0  0  0  0  0  0  0  0
  -26.6970  -34.9420   22.6180 O   0  0  0  0  0  0  0  0  0  0  0  0
  -25.0850  -34.3310   25.2490 H   0  0  0  0  0  0  0  0  0  0  0  0
  -24.2790  -36.8720   23.1510 C   0  0  0  0  0  1  0  0  0  0  0  0
  -25.5230  -36.5300   23.9890 C   0  0  0  0  0  3  0  0  0  0  0  0
  -27.6580  -37.4790   24.7540 C   0  0  0  0  0  1  0  0  0  0  0  0
  -26.5530  -37.5790   23.8030 N   0  0  0  0  0  0  0  0  0  0  0  0
  -26.1390  -38.5030   23.8910 H   0  0  0  0  0  0  0  0  0  0  0  0
  -26.4130  -31.9960   25.5750 C   0  0  1  0  0  0  0  0  0  0  0  0
  -25.2400  -31.7690   26.5560 C   0  0  0  0  0  1  0  0  0  0  0  0
  -27.0620  -30.6230   25.2780 C   0  0  0  0  0  1  0  0  0  0  0  0
  -27.4730  -32.8500   26.3050 C   0  0  0  0  0  1  0  0  0  0  0  0
  -25.8480  -21.9930   19.2820 C   0  0  0  0  0  2  0  0  0  0  0  0
  -27.2070  -21.5720   19.2350 N   0  0  0  0  0  0  0  0  0  0  0  0
  -27.7750  -22.2180   19.7650 H   0  0  0  0  0  0  0  0  0  0  0  0
  -27.0110  -19.0320   18.8160 C   0  0  0  0  0  3  0  0  0  0  0  0
  -28.7730  -19.8660   19.8560 C   0  0  0  0  0  3  0  0  0  0  0  0
  -27.5790  -20.2290   19.3110 C   0  0  0  0  0  0  0  0  0  0  0  0
  -27.8340  -18.0230   19.0040 N   0  0  0  0  0  0  0  0  0  0  0  0
  -28.9480  -18.5440   19.5680 N   0  0  0  0  0  0  0  0  0  0  0  0
  -30.2240  -17.8430   19.5660 C   0  0  0  0  0  2  0  0  0  0  0  0
  -30.3260  -16.5970   20.4600 C   0  0  0  0  0  2  0  0  0  0  0  0
  -32.2200  -14.7500   20.3180 C   0  0  0  0  0  0  0  0  0  0  0  0
  -31.9060  -12.4090   19.6230 C   0  0  0  0  0  2  0  0  0  0  0  0
  -31.0400  -12.3810   18.3460 C   0  0  0  0  0  2  0  0  0  0  0  0
  -29.5390  -12.3600   18.7110 C   0  0  0  0  0  2  0  0  0  0  0  0
  -29.1720  -13.4380   19.7650 C   0  0  0  0  0  3  0  0  0  0  0  0
  -30.1630  -13.4210   20.9520 C   0  0  0  0  0  2  0  0  0  0  0  0
  -31.4940  -13.6070   20.3780 N   0  0  0  0  0  0  0  0  0  0  0  0
  -33.4160  -14.7430   20.0270 O   0  0  0  0  0  0  0  0  0  0  0  0
  -31.6120  -15.9390   20.1670 N   0  0  0  0  0  0  0  0  0  0  0  0
  -32.2820  -16.6160   19.8480 H   0  0  0  0  0  0  0  0  0  0  0  0
  -26.8430  -14.3040   20.4220 C   0  0  0  0  0  0  0  0  0  0  0  0
  -25.6970  -13.6730   20.7850 C   0  0  0  0  0  0  0  0  0  0  0  0
  -26.0040  -12.2790   20.7490 C   0  0  0  0  0  0  0  0  0  0  0  0
  -27.7920  -13.3200   20.2140 N   0  0  0  0  0  0  0  0  0  0  0  0
  -27.2850  -12.0870   20.4700 N   0  0  0  0  0  0  0  0  0  0  0  0
  -25.1400  -11.1110   20.9080 C   0  0  0  0  0  0  0  0  0  0  0  0
  -25.4250  -10.1060   21.8570 C   0  0  0  0  0  3  0  0  0  0  0  0
  -24.5740   -8.9890   21.9920 C   0  0  0  0  0  3  0  0  0  0  0  0
  -23.4180   -8.8750   21.1810 C   0  0  0  0  0  0  0  0  0  0  0  0
  -23.1540   -9.8690   20.2210 C   0  0  0  0  0  3  0  0  0  0  0  0
  -24.0070  -10.9760   20.0860 C   0  0  0  0  0  3  0  0  0  0  0  0
  -22.5410   -7.8210   21.2320 O   0  0  0  0  0  0  0  0  0  0  0  0
  -22.3090   -7.1400   22.3990 C   0  0  0  0  0  0  0  0  0  0  0  0
  -21.8350   -7.7910   23.5600 C   0  0  0  0  0  3  0  0  0  0  0  0
  -21.5410   -7.0420   24.7150 C   0  0  0  0  0  3  0  0  0  0  0  0
  -21.7110   -5.6450   24.7130 C   0  0  0  0  0  0  0  0  0  0  0  0
  -22.1810   -4.9940   23.5590 C   0  0  0  0  0  3  0  0  0  0  0  0
  -22.4780   -5.7400   22.4040 C   0  0  0  0  0  0  0  0  0  0  0  0
  -22.9090   -5.1070   21.2870 F   0  0  0  0  0  0  0  0  0  0  0  0
  -21.4210   -4.9240   25.8230 F   0  0  0  0  0  0  0  0  0  0  0  0
  -24.3540  -14.3060   21.0260 C   0  0  0  0  0  0  0  0  0  0  0  0
  -23.5500  -13.7120   21.8930 N   0  0  0  0  0  0  0  0  0  0  0  0
  -24.0340  -15.3690   20.4870 O   0  0  0  0  0  0  0  0  0  0  0  0
  -23.8190  -12.8610   22.3630 H   0  0  0  0  0  0  0  0  0  0  0  0
  -22.6510  -14.1150   22.1080 H   0  0  0  0  0  0  0  0  0  0  0  0
  -27.1630  -15.6400   20.2140 N   0  0  0  0  0  0  0  0  0  0  0  0
  -26.5630  -16.4180   20.4640 H   0  0  0  0  0  0  0  0  0  0  0  0
  -28.0810  -15.9670   19.9230 H   0  0  0  0  0  0  0  0  0  0  0  0
  2  3  1  0
  3  1  1  0
  3  8  1  0
  4 49  1  0
  4  1  1  0
  5  2  1  0
  5  4  1  0
  6  5  1  0
  7  5  1  0
  9 20  2  0
 10  8  1  0
 10 15  1  0
 11 19  1  0
 11 21  1  0
 12 18  1  0
 12 14  1  0
 13 19  1  0
 14 15  2  0
 14 13  1  0
 16 17  1  0
 16 10  2  0
 17 12  2  0
 18 11  1  0
 19  9  1  0
 21 23  2  0
 22 21  1  0
 24 22  1  0
 25 34  2  0
 25 30  1  0
 26 22  1  0
 26 30  1  0
 27 26  1  0
 28 29  1  0
 28 27  1  0
 29 25  1  0
 30 31  2  0
 31 32  1  0
 33 32  2  0
 34 33  1  0
 35  9  1  0
 35 36  1  0
 35 45  1  0
 36 39  1  0
 37 41  1  0
 37 36  1  0
 38 37  2  0
 41 40  1  0
 43 44  1  0
 43 41  1  0
 43 42  1  0
 45 48  1  1
 45 46  1  0
 47 45  1  0
 50 49  1  0
 50 54  1  0
 50 51  1  0
 52 55  2  0
 52 54  1  0
 54 53  2  0
 55 56  1  0
 56 53  1  0
 57 56  1  0
 57 58  1  0
 59 65  1  0
 60 65  1  0
 61 62  1  0
 61 60  1  0
 63 62  1  0
 63 72  1  0
 63 64  1  0
 65 64  1  0
 66 59  2  0
 67 59  1  0
 67 58  1  0
 68 67  1  0
 69 70  2  0
 70 89  1  0
 71 70  1  0
 71 74  1  0
 72 69  1  0
 72 73  1  0
 73 71  2  0
 74 75  1  0
 75 76  2  0
 77 80  1  0
 77 76  1  0
 78 77  2  0
 79 78  1  0
 79 74  2  0
 80 81  1  0
 81 86  2  0
 81 82  1  0
 82 83  2  0
 84 83  1  0
 84 88  1  0
 85 84  2  0
 86 85  1  0
 87 86  1  0
 89 90  1  0
 90 93  1  0
 90 92  1  0
 91 89  2  0
 94 69  1  0
 94 95  1  0
 96 94  1  0
M  ISO  4   3 101   8 101  59 100  67 100
M  END
>  <TORSDO>  (64) 
F 21

>  <SCORE>  (64) 
-11.622

>  <name>  (64) 
63

>  <ligand_id>  (64) 
63

>  <original_smiles>  (64) 
[H]c1nn(C([H])([H])C([H])([H])N([H])C(=O)N2C([H])([H])C([H])([H])C([H])([H])C([H])(n3nc(-c4c([H])c([H])c(Oc5c([H])c([H])c(F)c([H])c5F)c([H])c4[H])c(C(=O)N([H])[H])c3N([H])[H])C2([H])[H])c([H])c1N([H])C([H])([H])C1([H])C([H])([H])C([H])(Oc2c([H])c([H])c3c(c2[H])C([H])([H])N(C(=O)C([H])(N([H])C(=O)C([H])(N([H])C([H])([H])[H])C([H])([H])[H])C(C([H])([H])[H])(C([H])([H])[H])C([H])([H])[H])C([H])(C(=O)N([H])C2([H])c4c([H])c([H])c([H])c([H])c4C([H])([H])C([H])([H])C2([H])[H])C3([H])[H])C([H])([H])[N+]1([H])[H]

>  <smiles>  (64) 
[H]c1nn(C([H])([H])C([H])([H])N([H])C(=O)N2C([H])([H])C([H])([H])C([H])([H])C([H])(n3nc(-c4c([H])c([H])c(Oc5c([H])c([H])c(F)c([H])c5F)c([H])c4[H])c(C(=O)N([H])[H])c3N([H])[H])C2([H])[H])c([H])c1N([H])C([H])([H])C1([H])C([H])([H])C([H])(Oc2c([H])c([H])c3c(c2[H])C([H])([H])N(C(=O)C([H])(N([H])C(=O)C([H])(N([H])C([H])([H])[H])C([H])([H])[H])C(C([H])([H])[H])(C([H])([H])[H])C([H])([H])[H])C([H])(C(=O)N([H])C2([H])c4c([H])c([H])c([H])c([H])c4C([H])([H])C([H])([H])C2([H])[H])C3([H])[H])C([H])([H])[N+]1([H])[H]

$$$$
64:0:0
     RDKit          3D

 93102  0  0  1  0  0  0  0  0999 V2000
  -27.4430  -23.6040   19.6200 C   0  0  0  0  0  3  0  0  0  0  0  0
  -28.4340  -24.2380   20.4220 C   0  0  0  0  0  0  0  0  0  0  0  0
  -29.4100  -23.2750   20.5360 C   0  0  0  0  0  0  0  0  0  0  0  0
  -30.6990  -23.2840   21.2960 C   0  0  0  0  0  1  0  0  0  0  0  0
  -27.7860  -22.3850   19.2420 N   0  0  0  0  0  0  0  0  0  0  0  0
  -28.9980  -22.1730   19.7980 N   0  0  0  0  0  0  0  0  0  0  0  0
  -28.3600  -25.6180   21.0580 C   0  0  0  0  0  2  0  0  0  0  0  0
  -28.4180  -26.7070   20.1180 O   0  0  0  0  0  0  0  0  0  0  0  0
  -24.5990  -31.8750   23.1920 C   0  0  0  0  0  0  0  0  0  0  0  0
  -27.2780  -27.4770   20.0940 C   0  0  0  0  0  0  0  0  0  0  0  0
  -23.4110  -30.4860   21.5260 C   0  0  0  0  0  3  0  0  0  0  0  0
  -24.8840  -28.9710   20.0970 C   0  0  0  0  0  0  0  0  0  0  0  0
  -25.9370  -30.8560   21.3540 C   0  0  0  0  0  2  0  0  0  0  0  0
  -26.0340  -29.4920   20.7040 C   0  0  0  0  0  0  0  0  0  0  0  0
  -27.2380  -28.7500   20.7070 C   0  0  0  0  0  3  0  0  0  0  0  0
  -26.1220  -26.9820   19.4610 C   0  0  0  0  0  3  0  0  0  0  0  0
  -24.9220  -27.7160   19.4700 C   0  0  0  0  0  3  0  0  0  0  0  0
  -23.6350  -29.8220   20.1410 C   0  0  0  0  0  2  0  0  0  0  0  0
  -24.6670  -31.0870   22.0820 N   0  0  0  0  0  0  0  0  0  0  0  0
  -23.5120  -32.1380   23.7250 O   0  0  0  0  0  0  0  0  0  0  0  0
  -22.7580  -29.4510   22.4700 C   0  0  0  0  0  0  0  0  0  0  0  0
  -21.4370  -29.2590   22.3250 N   0  0  0  0  0  0  0  0  0  0  0  0
  -23.4370  -28.8240   23.2880 O   0  0  0  0  0  0  0  0  0  0  0  0
  -20.9530  -29.8170   21.6370 H   0  0  0  0  0  0  0  0  0  0  0  0
  -18.0720  -28.0120   22.7440 C   0  0  0  0  0  0  0  0  0  0  0  0
  -20.6170  -28.3100   23.0770 C   0  0  0  0  0  3  0  0  0  0  0  0
  -20.7560  -26.8800   22.5060 C   0  0  0  0  0  2  0  0  0  0  0  0
  -19.6840  -26.5370   21.4670 C   0  0  0  0  0  2  0  0  0  0  0  0
  -18.2850  -26.6630   22.0770 C   0  0  0  0  0  2  0  0  0  0  0  0
  -19.1680  -28.7920   23.1980 C   0  0  0  0  0  0  0  0  0  0  0  0
  -18.9150  -30.0540   23.7790 C   0  0  0  0  0  3  0  0  0  0  0  0
  -17.6000  -30.5360   23.9110 C   0  0  0  0  0  3  0  0  0  0  0  0
  -16.5180  -29.7530   23.4740 C   0  0  0  0  0  3  0  0  0  0  0  0
  -16.7540  -28.4930   22.8960 C   0  0  0  0  0  3  0  0  0  0  0  0
  -25.8790  -32.5040   23.8270 C   0  0  0  0  0  3  0  0  0  0  0  0
  -26.3910  -31.7220   25.0990 C   0  0  1  0  0  0  0  0  0  0  0  0
  -25.2920  -31.4710   26.1570 C   0  0  0  0  0  1  0  0  0  0  0  0
  -26.9800  -30.3500   24.6940 C   0  0  0  0  0  1  0  0  0  0  0  0
  -27.5360  -32.5130   25.7740 C   0  0  0  0  0  1  0  0  0  0  0  0
  -25.5650  -33.8990   24.1650 N   0  0  0  0  0  0  0  0  0  0  0  0
  -25.8990  -34.9560   23.4130 C   0  0  0  0  0  0  0  0  0  0  0  0
  -26.5770  -34.8620   22.3850 O   0  0  0  0  0  0  0  0  0  0  0  0
  -24.9670  -34.0480   24.9650 H   0  0  0  0  0  0  0  0  0  0  0  0
  -24.1680  -36.7440   23.0560 C   0  0  0  0  0  1  0  0  0  0  0  0
  -25.4040  -36.3410   23.8760 C   0  0  0  0  0  3  0  0  0  0  0  0
  -27.5310  -37.2260   24.7260 C   0  0  0  0  0  1  0  0  0  0  0  0
  -26.4340  -37.3980   23.7760 N   0  0  0  0  0  0  0  0  0  0  0  0
  -26.0240  -38.3150   23.9290 H   0  0  0  0  0  0  0  0  0  0  0  0
  -29.6700  -20.9070   19.5040 C   0  0  0  0  0  2  0  0  0  0  0  0
  -29.8710  -19.9740   20.7290 C   0  0  0  0  0  2  0  0  0  0  0  0
  -30.9450  -14.5650   20.0560 C   0  0  0  0  0  0  0  0  0  0  0  0
  -30.5890  -12.4110   18.9240 C   0  0  0  0  0  2  0  0  0  0  0  0
  -29.5880  -12.6420   17.7730 C   0  0  0  0  0  2  0  0  0  0  0  0
  -28.1310  -12.5240   18.2710 C   0  0  0  0  0  2  0  0  0  0  0  0
  -27.8680  -13.3330   19.5690 C   0  0  0  0  0  3  0  0  0  0  0  0
  -28.9800  -13.0720   20.6120 C   0  0  0  0  0  2  0  0  0  0  0  0
  -30.2720  -13.3840   19.9790 N   0  0  0  0  0  0  0  0  0  0  0  0
  -32.0900  -14.7040   19.6130 O   0  0  0  0  0  0  0  0  0  0  0  0
  -29.5160  -16.1630   21.3450 C   0  0  0  0  0  2  0  0  0  0  0  0
  -30.0850  -16.5710   18.9590 C   0  0  0  0  0  2  0  0  0  0  0  0
  -29.8330  -17.6540   21.6330 C   0  0  0  0  0  2  0  0  0  0  0  0
  -30.5440  -17.9910   19.3270 C   0  0  0  0  0  2  0  0  0  0  0  0
  -30.1360  -15.6530   20.1080 N   0  0  0  0  0  0  0  0  0  0  0  0
  -29.7020  -18.5180   20.4300 N   0  0  2  0  0  4  0  0  0  0  0  0
  -28.7450  -18.4210   20.1220 H   0  0  0  0  0  0  0  0  0  0  0  0
  -25.5200  -13.9590   20.4170 C   0  0  0  0  0  0  0  0  0  0  0  0
  -24.4640  -13.1920   20.8310 C   0  0  0  0  0  0  0  0  0  0  0  0
  -24.9050  -11.8360   20.7480 C   0  0  0  0  0  0  0  0  0  0  0  0
  -26.5400  -13.0680   20.1140 N   0  0  0  0  0  0  0  0  0  0  0  0
  -26.1760  -11.7870   20.3680 N   0  0  0  0  0  0  0  0  0  0  0  0
  -24.1740  -10.5790   20.9510 C   0  0  0  0  0  0  0  0  0  0  0  0
  -24.6120   -9.6150   21.8860 C   0  0  0  0  0  3  0  0  0  0  0  0
  -23.8840   -8.4210   22.0760 C   0  0  0  0  0  3  0  0  0  0  0  0
  -22.7030   -8.1840   21.3300 C   0  0  0  0  0  0  0  0  0  0  0  0
  -22.2860   -9.1370   20.3840 C   0  0  0  0  0  3  0  0  0  0  0  0
  -23.0150  -10.3220   20.1920 C   0  0  0  0  0  3  0  0  0  0  0  0
  -21.9440   -7.0430   21.4300 O   0  0  0  0  0  0  0  0  0  0  0  0
  -21.8480   -6.3430   22.6060 C   0  0  0  0  0  0  0  0  0  0  0  0
  -21.3790   -6.9440   23.7950 C   0  0  0  0  0  3  0  0  0  0  0  0
  -21.2310   -6.1710   24.9630 C   0  0  0  0  0  3  0  0  0  0  0  0
  -21.5410   -4.7980   24.9430 C   0  0  0  0  0  0  0  0  0  0  0  0
  -22.0030   -4.1960   23.7590 C   0  0  0  0  0  3  0  0  0  0  0  0
  -22.1530   -4.9670   22.5930 C   0  0  0  0  0  0  0  0  0  0  0  0
  -22.5790   -4.3780   21.4490 F   0  0  0  0  0  0  0  0  0  0  0  0
  -21.3920   -4.0530   26.0640 F   0  0  0  0  0  0  0  0  0  0  0  0
  -23.0900  -13.6810   21.1890 C   0  0  0  0  0  0  0  0  0  0  0  0
  -22.4000  -12.9800   22.0820 N   0  0  0  0  0  0  0  0  0  0  0  0
  -22.6370  -14.7200   20.7100 O   0  0  0  0  0  0  0  0  0  0  0  0
  -22.7800  -12.1390   22.4920 H   0  0  0  0  0  0  0  0  0  0  0  0
  -21.4800  -13.2910   22.3610 H   0  0  0  0  0  0  0  0  0  0  0  0
  -25.6910  -15.3300   20.2500 N   0  0  0  0  0  0  0  0  0  0  0  0
  -24.9230  -15.9800   20.3790 H   0  0  0  0  0  0  0  0  0  0  0  0
  -26.4960  -15.7500   19.8070 H   0  0  0  0  0  0  0  0  0  0  0  0
  1  2  1  0
  2  3  2  0
  2  7  1  0
  3  4  1  0
  5  1  2  0
  5  6  1  0
  6  3  1  0
  8  7  1  0
  9 20  2  0
 10  8  1  0
 10 15  1  0
 11 19  1  0
 11 21  1  0
 12 18  1  0
 12 14  1  0
 13 19  1  0
 14 15  2  0
 14 13  1  0
 16 17  1  0
 16 10  2  0
 17 12  2  0
 18 11  1  0
 19  9  1  0
 21 23  2  0
 22 21  1  0
 24 22  1  0
 25 34  2  0
 25 30  1  0
 26 22  1  0
 26 30  1  0
 27 26  1  0
 28 29  1  0
 28 27  1  0
 29 25  1  0
 30 31  2  0
 31 32  1  0
 33 32  2  0
 34 33  1  0
 35  9  1  0
 35 40  1  0
 35 36  1  0
 36 39  1  1
 36 37  1  0
 38 36  1  0
 40 43  1  0
 41 45  1  0
 41 40  1  0
 42 41  2  0
 45 44  1  0
 47 45  1  0
 47 48  1  0
 47 46  1  0
 49  6  1  0
 49 50  1  0
 51 63  1  0
 52 57  1  0
 53 54  1  0
 53 52  1  0
 55 54  1  0
 55 69  1  0
 55 56  1  0
 57 51  1  0
 57 56  1  0
 58 51  2  0
 59 61  1  0
 60 62  1  0
 60 63  1  0
 62 64  1  0
 63 59  1  0
 64 50  1  0
 64 61  1  0
 64 65  1  6
 66 67  2  0
 67 86  1  0
 68 67  1  0
 68 71  1  0
 69 70  1  0
 69 66  1  0
 70 68  2  0
 71 72  1  0
 72 73  2  0
 74 77  1  0
 74 73  1  0
 75 74  2  0
 76 75  1  0
 76 71  2  0
 77 78  1  0
 78 79  1  0
 79 80  2  0
 81 80  1  0
 81 85  1  0
 82 81  2  0
 83 78  2  0
 83 82  1  0
 84 83  1  0
 86 87  1  0
 87 90  1  0
 87 89  1  0
 88 86  2  0
 91 92  1  0
 91 66  1  0
 93 91  1  0
M  ISO  4   7 101   8 101  51 100  63 100
M  END
>  <TORSDO>  (65) 
F 19

>  <SCORE>  (65) 
-13.999

>  <name>  (65) 
64

>  <ligand_id>  (65) 
64

>  <original_smiles>  (65) 
[H]c1nn(C([H])([H])C([H])([H])[N+]2([H])C([H])([H])C([H])([H])N(C(=O)N3C([H])([H])C([H])([H])C([H])([H])C([H])(n4nc(-c5c([H])c([H])c(Oc6c([H])c([H])c(F)c([H])c6F)c([H])c5[H])c(C(=O)N([H])[H])c4N([H])[H])C3([H])[H])C([H])([H])C2([H])[H])c(C([H])([H])[H])c1C([H])([H])Oc1c([H])c([H])c2c(c1[H])C([H])([H])N(C(=O)C([H])(N([H])C(=O)C([H])(N([H])C([H])([H])[H])C([H])([H])[H])C(C([H])([H])[H])(C([H])([H])[H])C([H])([H])[H])C([H])(C(=O)N([H])C1([H])c3c([H])c([H])c([H])c([H])c3C([H])([H])C([H])([H])C1([H])[H])C2([H])[H]

>  <smiles>  (65) 
[H]c1nn(C([H])([H])C([H])([H])[N+]2([H])C([H])([H])C([H])([H])N(C(=O)N3C([H])([H])C([H])([H])C([H])([H])C([H])(n4nc(-c5c([H])c([H])c(Oc6c([H])c([H])c(F)c([H])c6F)c([H])c5[H])c(C(=O)N([H])[H])c4N([H])[H])C3([H])[H])C([H])([H])C2([H])[H])c(C([H])([H])[H])c1C([H])([H])Oc1c([H])c([H])c2c(c1[H])C([H])([H])N(C(=O)C([H])(N([H])C(=O)C([H])(N([H])C([H])([H])[H])C([H])([H])[H])C(C([H])([H])[H])(C([H])([H])[H])C([H])([H])[H])C([H])(C(=O)N([H])C1([H])c3c([H])c([H])c([H])c([H])c3C([H])([H])C([H])([H])C1([H])[H])C2([H])[H]

$$$$
65:0:0
     RDKit          3D

 90 99  0  0  1  0  0  0  0  0999 V2000
  -30.0710  -20.6060   19.2990 C   0  0  0  0  0  2  0  0  0  0  0  0
  -29.5770  -22.0460   18.9880 C   0  0  0  0  0  2  0  0  0  0  0  0
  -28.9550  -21.4430   21.1950 C   0  0  0  0  0  2  0  0  0  0  0  0
  -29.1700  -20.0960   20.4240 C   0  0  0  0  0  3  0  0  0  0  0  0
  -28.8120  -22.5320   20.1690 N   0  0  1  0  0  4  0  0  0  0  0  0
  -27.8400  -22.4900   19.8910 H   0  0  0  0  0  0  0  0  0  0  0  0
  -29.0710  -23.9740   20.5950 C   0  0  0  0  0  3  0  0  0  0  0  0
  -28.1210  -25.0500   19.9290 C   0  0  0  0  0  3  0  0  0  0  0  0
  -28.3090  -26.4850   20.2280 O   0  0  0  0  0  0  0  0  0  0  0  0
  -24.6030  -31.8680   23.2420 C   0  0  0  0  0  0  0  0  0  0  0  0
  -27.1900  -27.3290   20.1570 C   0  0  0  0  0  0  0  0  0  0  0  0
  -23.3870  -30.4750   21.6060 C   0  0  0  0  0  3  0  0  0  0  0  0
  -24.8270  -28.9350   20.1640 C   0  0  0  0  0  0  0  0  0  0  0  0
  -25.9250  -30.7950   21.4110 C   0  0  0  0  0  2  0  0  0  0  0  0
  -25.9980  -29.4200   20.7600 C   0  0  0  0  0  0  0  0  0  0  0  0
  -27.1820  -28.6270   20.7530 C   0  0  0  0  0  3  0  0  0  0  0  0
  -26.0000  -26.9070   19.5170 C   0  0  0  0  0  3  0  0  0  0  0  0
  -24.8290  -27.6840   19.5340 C   0  0  0  0  0  3  0  0  0  0  0  0
  -23.5910  -29.8060   20.2230 C   0  0  0  0  0  2  0  0  0  0  0  0
  -24.6560  -31.0620   22.1430 N   0  0  0  0  0  0  0  0  0  0  0  0
  -23.5230  -32.1480   23.7820 O   0  0  0  0  0  0  0  0  0  0  0  0
  -22.7320  -29.4550   22.5670 C   0  0  0  0  0  0  0  0  0  0  0  0
  -21.4050  -29.2750   22.4420 N   0  0  0  0  0  0  0  0  0  0  0  0
  -23.4130  -28.8280   23.3820 O   0  0  0  0  0  0  0  0  0  0  0  0
  -20.9160  -29.8350   21.7580 H   0  0  0  0  0  0  0  0  0  0  0  0
  -18.0310  -28.0690   22.9320 C   0  0  0  0  0  0  0  0  0  0  0  0
  -20.5870  -28.3380   23.2130 C   0  0  0  0  0  3  0  0  0  0  0  0
  -20.6960  -26.9050   22.6430 C   0  0  0  0  0  2  0  0  0  0  0  0
  -19.6000  -26.5730   21.6270 C   0  0  0  0  0  2  0  0  0  0  0  0
  -18.2140  -26.7170   22.2650 C   0  0  0  0  0  2  0  0  0  0  0  0
  -19.1450  -28.8380   23.3630 C   0  0  0  0  0  0  0  0  0  0  0  0
  -18.9210  -30.1030   23.9460 C   0  0  0  0  0  3  0  0  0  0  0  0
  -17.6140  -30.6010   24.1050 C   0  0  0  0  0  3  0  0  0  0  0  0
  -16.5130  -29.8300   23.6920 C   0  0  0  0  0  3  0  0  0  0  0  0
  -16.7230  -28.5660   23.1110 C   0  0  0  0  0  3  0  0  0  0  0  0
  -25.8910  -32.4970   23.8580 C   0  0  0  0  0  3  0  0  0  0  0  0
  -26.4110  -31.7230   25.1320 C   0  0  1  0  0  0  0  0  0  0  0  0
  -25.3220  -31.4890   26.2050 C   0  0  0  0  0  1  0  0  0  0  0  0
  -26.9870  -30.3440   24.7370 C   0  0  0  0  0  1  0  0  0  0  0  0
  -27.5680  -32.5140   25.7880 C   0  0  0  0  0  1  0  0  0  0  0  0
  -25.5860  -33.8950   24.1910 N   0  0  0  0  0  0  0  0  0  0  0  0
  -25.9130  -34.9480   23.4300 C   0  0  0  0  0  0  0  0  0  0  0  0
  -26.5760  -34.8440   22.3930 O   0  0  0  0  0  0  0  0  0  0  0  0
  -24.9960  -34.0510   24.9950 H   0  0  0  0  0  0  0  0  0  0  0  0
  -24.1810  -36.7410   23.0940 C   0  0  0  0  0  1  0  0  0  0  0  0
  -25.4310  -36.3360   23.8910 C   0  0  0  0  0  3  0  0  0  0  0  0
  -27.5760  -37.2170   24.7000 C   0  0  0  0  0  1  0  0  0  0  0  0
  -26.4630  -37.3890   23.7690 N   0  0  0  0  0  0  0  0  0  0  0  0
  -26.0590  -38.3080   23.9240 H   0  0  0  0  0  0  0  0  0  0  0  0
  -29.7050  -19.0070   21.2360 O   0  0  0  0  0  0  0  0  0  0  0  0
  -30.6470  -14.5810   20.4740 C   0  0  0  0  0  0  0  0  0  0  0  0
  -30.3610  -12.3750   19.3710 C   0  0  0  0  0  2  0  0  0  0  0  0
  -29.4330  -12.5300   18.1480 C   0  0  0  0  0  2  0  0  0  0  0  0
  -27.9570  -12.3860   18.5670 C   0  0  0  0  0  2  0  0  0  0  0  0
  -27.6030  -13.2490   19.8070 C   0  0  0  0  0  3  0  0  0  0  0  0
  -28.6500  -13.0870   20.9320 C   0  0  0  0  0  2  0  0  0  0  0  0
  -29.9690  -13.3960   20.3620 N   0  0  0  0  0  0  0  0  0  0  0  0
  -31.7910  -14.7050   20.0260 O   0  0  0  0  0  0  0  0  0  0  0  0
  -30.7360  -16.7920   21.6730 C   0  0  0  0  0  2  0  0  0  0  0  0
  -29.0810  -16.6020   20.4330 C   0  0  0  0  0  2  0  0  0  0  0  0
  -30.1060  -17.7360   20.6340 C   0  0  0  0  0  3  0  0  0  0  0  0
  -30.0210  -15.6420   21.0720 N   0  0  0  0  0  0  0  0  0  0  0  0
  -25.2060  -13.8650   20.4920 C   0  0  0  0  0  0  0  0  0  0  0  0
  -24.1320  -13.1000   20.8570 C   0  0  0  0  0  0  0  0  0  0  0  0
  -24.5880  -11.7470   20.8450 C   0  0  0  0  0  0  0  0  0  0  0  0
  -26.2490  -12.9780   20.2800 N   0  0  0  0  0  0  0  0  0  0  0  0
  -25.8820  -11.6990   20.5520 N   0  0  0  0  0  0  0  0  0  0  0  0
  -23.8540  -10.4890   21.0390 C   0  0  0  0  0  0  0  0  0  0  0  0
  -24.2860   -9.5180   21.9700 C   0  0  0  0  0  3  0  0  0  0  0  0
  -23.5530   -8.3270   22.1530 C   0  0  0  0  0  3  0  0  0  0  0  0
  -22.3750   -8.0950   21.4030 C   0  0  0  0  0  0  0  0  0  0  0  0
  -21.9640   -9.0550   20.4610 C   0  0  0  0  0  3  0  0  0  0  0  0
  -22.6970  -10.2380   20.2770 C   0  0  0  0  0  3  0  0  0  0  0  0
  -21.6140   -6.9560   21.4950 O   0  0  0  0  0  0  0  0  0  0  0  0
  -21.5770   -6.2050   22.6420 C   0  0  0  0  0  0  0  0  0  0  0  0
  -21.1870   -6.7580   23.8820 C   0  0  0  0  0  3  0  0  0  0  0  0
  -21.0960   -5.9340   25.0210 C   0  0  0  0  0  3  0  0  0  0  0  0
  -21.3860   -4.5590   24.9240 C   0  0  0  0  0  0  0  0  0  0  0  0
  -21.7680   -4.0080   23.6890 C   0  0  0  0  0  3  0  0  0  0  0  0
  -21.8610   -4.8280   22.5510 C   0  0  0  0  0  0  0  0  0  0  0  0
  -22.2100   -4.2870   21.3590 F   0  0  0  0  0  0  0  0  0  0  0  0
  -21.2910   -3.7670   26.0160 F   0  0  0  0  0  0  0  0  0  0  0  0
  -22.7340  -13.5850   21.1100 C   0  0  0  0  0  0  0  0  0  0  0  0
  -21.9950  -12.9020   21.9760 N   0  0  0  0  0  0  0  0  0  0  0  0
  -22.3060  -14.6070   20.5750 O   0  0  0  0  0  0  0  0  0  0  0  0
  -22.3550  -12.0740   22.4290 H   0  0  0  0  0  0  0  0  0  0  0  0
  -21.0570  -13.2090   22.1900 H   0  0  0  0  0  0  0  0  0  0  0  0
  -25.3780  -15.2330   20.3020 N   0  0  0  0  0  0  0  0  0  0  0  0
  -24.6120  -15.8910   20.3940 H   0  0  0  0  0  0  0  0  0  0  0  0
  -26.2340  -15.6620   19.9780 H   0  0  0  0  0  0  0  0  0  0  0  0
  1  4  1  0
  2  1  1  0
  2  5  1  0
  4  3  1  0
  4 50  1  0
  5  7  1  0
  5  3  1  0
  5  6  1  6
  8  9  1  0
  8  7  2  0
 10 21  2  0
 11  9  1  0
 11 16  1  0
 12 20  1  0
 12 22  1  0
 13 19  1  0
 13 15  1  0
 14 20  1  0
 15 14  1  0
 16 15  2  0
 17 18  1  0
 17 11  2  0
 18 13  2  0
 19 12  1  0
 20 10  1  0
 22 24  2  0
 23 22  1  0
 25 23  1  0
 26 35  2  0
 26 31  1  0
 27 23  1  0
 27 31  1  0
 28 27  1  0
 29 30  1  0
 29 28  1  0
 30 26  1  0
 31 32  2  0
 32 33  1  0
 34 33  2  0
 35 34  1  0
 36 10  1  0
 36 41  1  0
 36 37  1  0
 37 40  1  1
 37 38  1  0
 39 37  1  0
 41 44  1  0
 42 46  1  0
 42 41  1  0
 43 42  2  0
 46 45  1  0
 48 46  1  0
 48 49  1  0
 48 47  1  0
 51 62  1  0
 52 57  1  0
 53 54  1  0
 53 52  1  0
 55 54  1  0
 55 66  1  0
 55 56  1  0
 57 51  1  0
 57 56  1  0
 58 51  2  0
 60 61  1  0
 60 62  1  0
 61 50  1  0
 61 59  1  0
 62 59  1  0
 63 64  2  0
 64 83  1  0
 65 64  1  0
 65 68  1  0
 66 63  1  0
 66 67  1  0
 67 65  2  0
 68 69  1  0
 69 70  2  0
 71 74  1  0
 71 70  1  0
 72 71  2  0
 73 72  1  0
 73 68  2  0
 74 75  1  0
 75 76  1  0
 76 77  2  0
 78 77  1  0
 78 82  1  0
 79 78  2  0
 80 75  2  0
 80 79  1  0
 81 80  1  0
 83 84  1  0
 84 87  1  0
 84 86  1  0
 85 83  2  0
 88 89  1  0
 88 63  1  0
 90 88  1  0
M  ISO  4   8 101   9 101  51 100  62 100
M  END
>  <TORSDO>  (66) 
F 19

>  <SCORE>  (66) 
-14.344

>  <name>  (66) 
65

>  <ligand_id>  (66) 
65

>  <original_smiles>  (66) 
[H]c1c([H])c([H])c2c(c1[H])C([H])([H])C([H])([H])C([H])([H])C2([H])N([H])C(=O)C1([H])N(C(=O)C([H])(N([H])C(=O)C([H])(N([H])C([H])([H])[H])C([H])([H])[H])C(C([H])([H])[H])(C([H])([H])[H])C([H])([H])[H])C([H])([H])c2c([H])c(OC([H])([H])C([H])([H])[N+]3([H])C([H])([H])C([H])([H])C([H])(OC4([H])C([H])([H])N(C(=O)N5C([H])([H])C([H])([H])C([H])([H])C([H])(n6nc(-c7c([H])c([H])c(Oc8c([H])c([H])c(F)c([H])c8F)c([H])c7[H])c(C(=O)N([H])[H])c6N([H])[H])C5([H])[H])C4([H])[H])C3([H])[H])c([H])c([H])c2C1([H])[H]

>  <smiles>  (66) 
[H]c1c([H])c([H])c2c(c1[H])C([H])([H])C([H])([H])C([H])([H])C2([H])N([H])C(=O)C1([H])N(C(=O)C([H])(N([H])C(=O)C([H])(N([H])C([H])([H])[H])C([H])([H])[H])C(C([H])([H])[H])(C([H])([H])[H])C([H])([H])[H])C([H])([H])c2c([H])c(OC([H])([H])C([H])([H])[N+]3([H])C([H])([H])C([H])([H])C([H])(OC4([H])C([H])([H])N(C(=O)N5C([H])([H])C([H])([H])C([H])([H])C([H])(n6nc(-c7c([H])c([H])c(Oc8c([H])c([H])c(F)c([H])c8F)c([H])c7[H])c(C(=O)N([H])[H])c6N([H])[H])C5([H])[H])C4([H])[H])C3([H])[H])c([H])c([H])c2C1([H])[H]

$$$$
66:0:0
     RDKit          3D

 95104  0  0  1  0  0  0  0  0999 V2000
  -30.2550  -24.5970   20.3270 N   0  0  0  0  0  4  0  0  0  0  0  0
  -30.8750  -24.7660   21.1010 H   0  0  0  0  0  0  0  0  0  0  0  0
  -29.3630  -25.0180   20.5470 H   0  0  0  0  0  0  0  0  0  0  0  0
  -30.0750  -23.1400   20.1420 C   0  0  0  0  0  2  0  0  0  0  0  0
  -29.9090  -22.3620   21.4640 C   0  0  0  0  0  2  0  0  0  0  0  0
  -30.3810  -19.8420   21.3350 C   0  0  0  0  0  3  0  0  0  0  0  0
  -28.4040  -20.5210   20.7230 C   0  0  0  0  0  3  0  0  0  0  0  0
  -29.6510  -18.7730   20.8600 C   0  0  0  0  0  0  0  0  0  0  0  0
  -28.3850  -19.2180   20.4730 N   0  0  0  0  0  0  0  0  0  0  0  0
  -29.5740  -20.9700   21.1970 N   0  0  0  0  0  0  0  0  0  0  0  0
  -30.7490  -14.4490   20.1850 C   0  0  0  0  0  0  0  0  0  0  0  0
  -30.3500  -12.3400   18.9550 C   0  0  0  0  0  2  0  0  0  0  0  0
  -29.3610  -12.5600   17.7960 C   0  0  0  0  0  2  0  0  0  0  0  0
  -27.9070  -12.4040   18.2800 C   0  0  0  0  0  2  0  0  0  0  0  0
  -27.6210  -13.2220   19.5640 C   0  0  0  0  0  3  0  0  0  0  0  0
  -28.7200  -13.0010   20.6300 C   0  0  0  0  0  2  0  0  0  0  0  0
  -30.0290  -13.3020   20.0250 N   0  0  0  0  0  0  0  0  0  0  0  0
  -31.8000  -14.6620   19.5730 O   0  0  0  0  0  0  0  0  0  0  0  0
  -31.0070  -16.5650   21.5210 C   0  0  0  0  0  2  0  0  0  0  0  0
  -29.1090  -16.2020   20.8610 C   0  0  0  0  0  2  0  0  0  0  0  0
  -30.0760  -17.3540   20.6000 C   0  0  0  0  0  3  0  0  0  0  0  0
  -30.2860  -15.3480   21.0860 N   0  0  0  0  0  0  0  0  0  0  0  0
  -25.2510  -13.8380   20.3520 C   0  0  0  0  0  0  0  0  0  0  0  0
  -24.1990  -13.0660   20.7630 C   0  0  0  0  0  0  0  0  0  0  0  0
  -24.6600  -11.7150   20.7220 C   0  0  0  0  0  0  0  0  0  0  0  0
  -26.2880  -12.9530   20.0920 N   0  0  0  0  0  0  0  0  0  0  0  0
  -25.9380  -11.6740   20.3710 N   0  0  0  0  0  0  0  0  0  0  0  0
  -23.9450  -10.4530   20.9410 C   0  0  0  0  0  0  0  0  0  0  0  0
  -24.3970   -9.5040   21.8840 C   0  0  0  0  0  3  0  0  0  0  0  0
  -23.6840   -8.3040   22.0900 C   0  0  0  0  0  3  0  0  0  0  0  0
  -22.5040   -8.0450   21.3550 C   0  0  0  0  0  0  0  0  0  0  0  0
  -22.0710   -8.9820   20.4010 C   0  0  0  0  0  3  0  0  0  0  0  0
  -22.7850  -10.1730   20.1910 C   0  0  0  0  0  3  0  0  0  0  0  0
  -21.7590   -6.8960   21.4690 O   0  0  0  0  0  0  0  0  0  0  0  0
  -21.7080   -6.1890   22.6440 C   0  0  0  0  0  0  0  0  0  0  0  0
  -21.2790   -6.7780   23.8530 C   0  0  0  0  0  3  0  0  0  0  0  0
  -21.1770   -5.9940   25.0190 C   0  0  0  0  0  3  0  0  0  0  0  0
  -21.4920   -4.6230   24.9780 C   0  0  0  0  0  0  0  0  0  0  0  0
  -21.9140   -4.0350   23.7740 C   0  0  0  0  0  3  0  0  0  0  0  0
  -22.0190   -4.8150   22.6090 C   0  0  0  0  0  0  0  0  0  0  0  0
  -22.4060   -4.2370   21.4460 F   0  0  0  0  0  0  0  0  0  0  0  0
  -21.3870   -3.8670   26.0980 F   0  0  0  0  0  0  0  0  0  0  0  0
  -22.8100  -13.5410   21.0820 C   0  0  0  0  0  0  0  0  0  0  0  0
  -22.1170  -12.8450   21.9760 N   0  0  0  0  0  0  0  0  0  0  0  0
  -22.3470  -14.5610   20.5700 O   0  0  0  0  0  0  0  0  0  0  0  0
  -22.5060  -12.0210   22.4090 H   0  0  0  0  0  0  0  0  0  0  0  0
  -21.1870  -13.1430   22.2320 H   0  0  0  0  0  0  0  0  0  0  0  0
  -25.4090  -15.2080   20.1620 N   0  0  0  0  0  0  0  0  0  0  0  0
  -24.6480  -15.8650   20.3010 H   0  0  0  0  0  0  0  0  0  0  0  0
  -26.2480  -15.6480   19.8060 H   0  0  0  0  0  0  0  0  0  0  0  0
  -30.7880  -25.2760   19.1250 C   0  0  0  0  0  2  0  0  0  0  0  0
  -31.7000  -27.4380   18.1880 C   0  0  0  0  0  1  0  0  0  0  0  0
  -30.7710  -26.8160   19.2450 C   0  0  0  0  0  3  0  0  0  0  0  0
  -29.3580  -27.4100   19.0900 C   0  0  0  0  0  2  0  0  0  0  0  0
  -28.4680  -26.8660   20.0590 O   0  0  0  0  0  0  0  0  0  0  0  0
  -24.5930  -31.9220   23.2310 C   0  0  0  0  0  0  0  0  0  0  0  0
  -27.2860  -27.5540   20.1260 C   0  0  0  0  0  0  0  0  0  0  0  0
  -23.3960  -30.5150   21.5840 C   0  0  0  0  0  3  0  0  0  0  0  0
  -24.8630  -28.9890   20.1630 C   0  0  0  0  0  0  0  0  0  0  0  0
  -25.9120  -30.9080   21.3810 C   0  0  0  0  0  2  0  0  0  0  0  0
  -26.0110  -29.5380   20.7500 C   0  0  0  0  0  0  0  0  0  0  0  0
  -27.2250  -28.8220   20.7410 C   0  0  0  0  0  3  0  0  0  0  0  0
  -26.1250  -26.9970   19.5580 C   0  0  0  0  0  3  0  0  0  0  0  0
  -24.9100  -27.7110   19.5730 C   0  0  0  0  0  3  0  0  0  0  0  0
  -23.6100  -29.8330   20.2040 C   0  0  0  0  0  2  0  0  0  0  0  0
  -24.6520  -31.1300   22.1240 N   0  0  0  0  0  0  0  0  0  0  0  0
  -23.5120  -32.1820   23.7750 O   0  0  0  0  0  0  0  0  0  0  0  0
  -22.7570  -29.4870   22.5420 C   0  0  0  0  0  0  0  0  0  0  0  0
  -21.4320  -29.3020   22.4190 N   0  0  0  0  0  0  0  0  0  0  0  0
  -23.4470  -28.8580   23.3480 O   0  0  0  0  0  0  0  0  0  0  0  0
  -20.9380  -29.8590   21.7370 H   0  0  0  0  0  0  0  0  0  0  0  0
  -18.0640  -28.1060   22.9280 C   0  0  0  0  0  0  0  0  0  0  0  0
  -20.6230  -28.3580   23.1870 C   0  0  0  0  0  3  0  0  0  0  0  0
  -20.7220  -26.9330   22.5980 C   0  0  0  0  0  2  0  0  0  0  0  0
  -19.6130  -26.6200   21.5880 C   0  0  0  0  0  2  0  0  0  0  0  0
  -18.2360  -26.7620   22.2410 C   0  0  0  0  0  2  0  0  0  0  0  0
  -19.1860  -28.8620   23.3580 C   0  0  0  0  0  0  0  0  0  0  0  0
  -18.9730  -30.1210   23.9600 C   0  0  0  0  0  3  0  0  0  0  0  0
  -17.6710  -30.6230   24.1380 C   0  0  0  0  0  3  0  0  0  0  0  0
  -16.5630  -29.8640   23.7250 C   0  0  0  0  0  3  0  0  0  0  0  0
  -16.7600  -28.6080   23.1250 C   0  0  0  0  0  3  0  0  0  0  0  0
  -25.8770  -32.5600   23.8520 C   0  0  0  0  0  3  0  0  0  0  0  0
  -25.5620  -33.9550   24.1820 N   0  0  0  0  0  0  0  0  0  0  0  0
  -25.8950  -35.0090   23.4260 C   0  0  0  0  0  0  0  0  0  0  0  0
  -26.5740  -34.9070   22.3990 O   0  0  0  0  0  0  0  0  0  0  0  0
  -24.9610  -34.1070   24.9800 H   0  0  0  0  0  0  0  0  0  0  0  0
  -24.1640  -36.7930   23.0550 C   0  0  0  0  0  1  0  0  0  0  0  0
  -25.3990  -36.3940   23.8800 C   0  0  0  0  0  3  0  0  0  0  0  0
  -27.5240  -37.2820   24.7280 C   0  0  0  0  0  1  0  0  0  0  0  0
  -26.4280  -37.4500   23.7770 N   0  0  0  0  0  0  0  0  0  0  0  0
  -26.0180  -38.3690   23.9260 H   0  0  0  0  0  0  0  0  0  0  0  0
  -26.4030  -31.7880   25.1240 C   0  0  1  0  0  0  0  0  0  0  0  0
  -25.3170  -31.5380   26.1970 C   0  0  0  0  0  1  0  0  0  0  0  0
  -26.9920  -30.4150   24.7220 C   0  0  0  0  0  1  0  0  0  0  0  0
  -27.5490  -32.5880   25.7850 C   0  0  0  0  0  1  0  0  0  0  0  0
  1  3  1  0
  1  2  1  0
  4  1  1  0
  4  5  1  0
  7 10  1  0
  8  6  2  0
  9  7  2  0
  9  8  1  0
 10  6  1  0
 10  5  1  0
 11 22  1  0
 12 17  1  0
 13 14  1  0
 13 12  1  0
 15 14  1  0
 15 26  1  0
 15 16  1  0
 17 11  1  0
 17 16  1  0
 18 11  2  0
 20 22  1  0
 21  8  1  0
 21 20  1  0
 21 19  1  0
 22 19  1  0
 23 24  2  0
 24 43  1  0
 25 24  1  0
 25 28  1  0
 26 23  1  0
 26 27  1  0
 27 25  2  0
 28 29  1  0
 29 30  2  0
 31 34  1  0
 31 30  1  0
 32 31  2  0
 33 32  1  0
 33 28  2  0
 34 35  1  0
 35 36  1  0
 36 37  2  0
 38 37  1  0
 38 42  1  0
 39 38  2  0
 40 35  2  0
 40 39  1  0
 41 40  1  0
 43 44  1  0
 44 47  1  0
 44 46  1  0
 45 43  2  0
 48 49  1  0
 48 23  1  0
 50 48  1  0
 51 53  1  0
 51  1  1  0
 53 52  1  0
 54 53  1  0
 54 55  1  0
 55 57  1  0
 56 67  2  0
 57 62  1  0
 58 66  1  0
 58 68  1  0
 59 65  1  0
 59 61  1  0
 60 66  1  0
 61 60  1  0
 62 61  2  0
 63 64  1  0
 63 57  2  0
 64 59  2  0
 65 58  1  0
 66 56  1  0
 68 70  2  0
 69 68  1  0
 71 69  1  0
 72 81  2  0
 72 77  1  0
 73 69  1  0
 73 77  1  0
 74 73  1  0
 75 76  1  0
 75 74  1  0
 76 72  1  0
 77 78  2  0
 78 79  1  0
 80 79  2  0
 81 80  1  0
 82 56  1  0
 82 83  1  0
 82 92  1  0
 83 86  1  0
 84 88  1  0
 84 83  1  0
 85 84  2  0
 88 87  1  0
 90 88  1  0
 90 91  1  0
 90 89  1  0
 92 95  1  1
 92 93  1  0
 94 92  1  0
M  ISO  4  11 100  22 100  54 101  55 101
M  END
>  <TORSDO>  (67) 
F 22

>  <SCORE>  (67) 
-13.369

>  <name>  (67) 
66

>  <ligand_id>  (67) 
66

>  <original_smiles>  (67) 
[H]c1c([H])c([H])c2c(c1[H])C([H])([H])C([H])([H])C([H])([H])C2([H])N([H])C(=O)C1([H])N(C(=O)C([H])(N([H])C(=O)C([H])(N([H])C([H])([H])[H])C([H])([H])[H])C(C([H])([H])[H])(C([H])([H])[H])C([H])([H])[H])C([H])([H])c2c([H])c(OC([H])([H])C([H])(C([H])([H])[H])C([H])([H])[N+]([H])([H])C([H])([H])C([H])([H])n3c([H])nc(C4([H])C([H])([H])N(C(=O)N5C([H])([H])C([H])([H])C([H])([H])C([H])(n6nc(-c7c([H])c([H])c(Oc8c([H])c([H])c(F)c([H])c8F)c([H])c7[H])c(C(=O)N([H])[H])c6N([H])[H])C5([H])[H])C4([H])[H])c3[H])c([H])c([H])c2C1([H])[H]

>  <smiles>  (67) 
[H]c1c([H])c([H])c2c(c1[H])C([H])([H])C([H])([H])C([H])([H])C2([H])N([H])C(=O)C1([H])N(C(=O)C([H])(N([H])C(=O)C([H])(N([H])C([H])([H])[H])C([H])([H])[H])C(C([H])([H])[H])(C([H])([H])[H])C([H])([H])[H])C([H])([H])c2c([H])c(OC([H])([H])C([H])(C([H])([H])[H])C([H])([H])[N+]([H])([H])C([H])([H])C([H])([H])n3c([H])nc(C4([H])C([H])([H])N(C(=O)N5C([H])([H])C([H])([H])C([H])([H])C([H])(n6nc(-c7c([H])c([H])c(Oc8c([H])c([H])c(F)c([H])c8F)c([H])c7[H])c(C(=O)N([H])[H])c6N([H])[H])C5([H])[H])C4([H])[H])c3[H])c([H])c([H])c2C1([H])[H]

$$$$
67:0:0
     RDKit          3D

100106  0  0  1  0  0  0  0  0999 V2000
  -30.7590  -23.6280   18.6030 C   0  0  0  0  0  2  0  0  0  0  0  0
  -29.7820  -24.7230   18.4090 C   0  0  0  0  0  0  0  0  0  0  0  0
  -30.2480  -26.1420   17.8270 C   0  0  0  0  0  0  0  0  0  0  0  0
  -32.2220  -25.2600   17.9910 C   0  0  0  0  0  3  0  0  0  0  0  0
  -29.7840  -27.6850   17.3120 C   0  0  0  0  0  1  0  0  0  0  0  0
  -31.9770  -24.0180   18.2340 N   0  0  0  0  0  2  0  0  0  0  0  0
  -31.4950  -26.1950   17.4910 N   0  0  0  0  0  2  0  0  0  0  0  0
  -32.7900  -25.5590   19.1790 N   0  0  0  0  0  0  0  0  0  0  0  0
  -32.8400  -24.7000   19.7140 H   0  0  0  0  0  0  0  0  0  0  0  0
  -28.3940  -23.5040   18.8330 C   0  0  0  0  0  2  0  0  0  0  0  0
  -29.1890  -17.8040   19.8900 C   0  0  0  0  0  2  0  0  0  0  0  0
  -29.9480  -14.7880   18.9280 C   0  0  0  0  0  2  0  0  0  0  0  0
  -29.4450  -13.5630   17.8440 C   0  0  0  0  0  2  0  0  0  0  0  0
  -28.3740  -12.7000   18.5480 C   0  0  0  0  0  2  0  0  0  0  0  0
  -27.5890  -13.6090   19.5430 C   0  0  0  0  0  3  0  0  0  0  0  0
  -28.4030  -14.6820   20.4970 C   0  0  0  0  0  2  0  0  0  0  0  0
  -29.0120  -16.0310   19.7450 N   0  0  0  0  0  0  0  0  0  0  0  0
  -30.4170  -17.4160   19.6940 O   0  0  0  0  0  1  0  0  0  0  0  0
  -27.0980  -20.9070   20.3160 C   0  0  0  0  0  3  0  0  0  0  0  0
  -26.7310  -22.3610   21.2130 C   0  0  0  0  0  2  0  0  0  0  0  0
  -27.7180  -24.1640   19.4450 C   0  0  0  0  0  2  0  0  0  0  0  0
  -28.7260  -21.8430   19.9680 C   0  0  0  0  0  2  0  0  0  0  0  0
  -28.4650  -19.7610   20.0340 N   0  0  0  0  0  1  0  0  0  0  0  0
  -27.2000  -23.6940   20.5880 N   0  0  0  0  0  0  0  0  0  0  0  0
  -26.7770  -24.0950   21.1240 H   0  0  0  0  0  0  0  0  0  0  0  0
  -25.3730  -13.7610   20.5510 C   0  0  0  0  0  0  0  0  0  0  0  0
  -24.3850  -12.9270   20.8860 C   0  0  0  0  0  0  0  0  0  0  0  0
  -24.8890  -11.5940   20.7760 C   0  0  0  0  0  0  0  0  0  0  0  0
  -26.4510  -12.9820   20.2140 N   0  0  0  0  0  0  0  0  0  0  0  0
  -26.1810  -11.6360   20.3790 N   0  0  0  0  0  0  0  0  0  0  0  0
  -24.1530  -10.3280   20.9960 C   0  0  0  0  0  0  0  0  0  0  0  0
  -24.5460   -9.4040   21.9850 C   0  0  0  0  0  3  0  0  0  0  0  0
  -23.7790   -8.2440   22.2340 C   0  0  0  0  0  3  0  0  0  0  0  0
  -22.6040   -7.9860   21.4910 C   0  0  0  0  0  0  0  0  0  0  0  0
  -22.2150   -8.9030   20.5040 C   0  0  0  0  0  3  0  0  0  0  0  0
  -22.9860  -10.0520   20.2520 C   0  0  0  0  0  3  0  0  0  0  0  0
  -21.8430   -6.8480   21.6110 O   0  0  0  0  0  0  0  0  0  0  0  0
  -21.7240   -6.1940   22.8070 C   0  0  0  0  0  0  0  0  0  0  0  0
  -21.1970   -6.8310   23.9510 C   0  0  0  0  0  3  0  0  0  0  0  0
  -21.0080   -6.0950   25.1370 C   0  0  0  0  0  3  0  0  0  0  0  0
  -21.3680   -4.7330   25.1870 C   0  0  0  0  0  0  0  0  0  0  0  0
  -21.9120   -4.1070   24.0510 C   0  0  0  0  0  3  0  0  0  0  0  0
  -22.0790   -4.8330   22.8600 C   0  0  0  0  0  0  0  0  0  0  0  0
  -22.5770   -4.2210   21.7590 F   0  0  0  0  0  0  0  0  0  0  0  0
  -21.1850   -4.0210   26.3230 F   0  0  0  0  0  0  0  0  0  0  0  0
  -23.0110  -13.4140   21.1530 C   0  0  0  0  0  0  0  0  0  0  0  0
  -22.3830  -12.7550   22.0910 N   0  0  0  0  0  0  0  0  0  0  0  0
  -22.5440  -14.4150   20.6010 O   0  0  0  0  0  0  0  0  0  0  0  0
  -22.8810  -11.9930   22.5210 H   0  0  0  0  0  0  0  0  0  0  0  0
  -21.4660  -13.0400   22.3750 H   0  0  0  0  0  0  0  0  0  0  0  0
  -25.3330  -15.1420   20.4040 N   0  0  0  0  0  0  0  0  0  0  0  0
  -24.3990  -15.5670   20.4140 H   0  0  0  0  0  0  0  0  0  0  0  0
  -26.0420  -15.6500   19.9060 H   0  0  0  0  0  0  0  0  0  0  0  0
  -29.1530  -22.8910   23.0070 C   0  0  0  0  0  1  0  0  0  0  0  0
  -29.5880  -22.2160   21.4220 C   0  0  0  0  0  3  0  0  0  0  0  0
  -29.9000  -21.0430   21.8890 O   0  0  0  0  0  0  0  0  0  0  0  0
  -29.0920  -20.5850   21.9020 H   0  0  0  0  0  0  0  0  0  0  0  0
  -32.3370  -26.3880   20.2580 C   0  0  0  0  0  2  0  0  0  0  0  0
  -30.4160  -26.2560   20.5810 C   0  0  0  0  0  1  0  0  0  0  0  0
  -28.5000  -27.0750   20.3370 O   0  0  0  0  0  1  0  0  0  0  0  0
  -24.7220  -31.7690   23.1170 C   0  0  0  0  0  0  0  0  0  0  0  0
  -27.0650  -27.3780   20.1750 C   0  0  0  0  0  0  0  0  0  0  0  0
  -23.5470  -30.3650   21.4330 C   0  0  0  0  0  3  0  0  0  0  0  0
  -24.6330  -28.5560   20.3320 C   0  0  0  0  0  0  0  0  0  0  0  0
  -26.0500  -30.1030   21.5170 C   0  0  0  0  0  2  0  0  0  0  0  0
  -25.7790  -28.9250   21.0530 C   0  0  0  0  0  0  0  0  0  0  0  0
  -26.9940  -28.3520   20.8880 C   0  0  0  0  0  3  0  0  0  0  0  0
  -25.6380  -26.8180   19.4630 C   0  0  0  0  0  3  0  0  0  0  0  0
  -24.4440  -27.6330   19.4400 C   0  0  0  0  0  3  0  0  0  0  0  0
  -23.7580  -29.4830   20.1870 C   0  0  0  0  0  2  0  0  0  0  0  0
  -24.8410  -30.7890   22.0970 N   0  0  0  0  0  0  0  0  0  0  0  0
  -23.6130  -32.1190   23.5770 O   0  0  0  0  0  0  0  0  0  0  0  0
  -22.6900  -29.5800   22.4440 C   0  0  0  0  0  0  0  0  0  0  0  0
  -21.3610  -29.4040   22.2800 N   0  0  0  0  0  0  0  0  0  0  0  0
  -23.2930  -29.0620   23.3820 O   0  0  0  0  0  0  0  0  0  0  0  0
  -20.8760  -29.8620   21.5170 H   0  0  0  0  0  0  0  0  0  0  0  0
  -18.0610  -27.9160   22.7740 C   0  0  0  0  0  0  0  0  0  0  0  0
  -20.6060  -28.3770   23.0220 C   0  0  0  0  0  3  0  0  0  0  0  0
  -20.8090  -26.9970   22.3750 C   0  0  0  0  0  2  0  0  0  0  0  0
  -19.7390  -26.6680   21.3190 C   0  0  0  0  0  2  0  0  0  0  0  0
  -18.3360  -26.6350   21.9620 C   0  0  0  0  0  2  0  0  0  0  0  0
  -19.1440  -28.7250   23.2240 C   0  0  0  0  0  0  0  0  0  0  0  0
  -18.9060  -29.9040   23.9410 C   0  0  0  0  0  3  0  0  0  0  0  0
  -17.6040  -30.3430   24.1870 C   0  0  0  0  0  3  0  0  0  0  0  0
  -16.5150  -29.5560   23.7680 C   0  0  0  0  0  3  0  0  0  0  0  0
  -16.7350  -28.3330   23.0840 C   0  0  0  0  0  3  0  0  0  0  0  0
  -25.9030  -32.5420   23.8350 C   0  0  0  0  0  3  0  0  0  0  0  0
  -25.5310  -33.9660   24.0900 N   0  0  0  0  0  0  0  0  0  0  0  0
  -25.9660  -35.0600   23.4380 C   0  0  0  0  0  0  0  0  0  0  0  0
  -26.7170  -34.9750   22.4640 O   0  0  0  0  0  0  0  0  0  0  0  0
  -24.7760  -34.0690   24.7480 H   0  0  0  0  0  0  0  0  0  0  0  0
  -24.2800  -36.9400   23.1350 C   0  0  0  0  0  1  0  0  0  0  0  0
  -25.5130  -36.4680   23.9260 C   0  0  0  0  0  3  0  0  0  0  0  0
  -27.6600  -37.3380   24.7570 C   0  0  0  0  0  1  0  0  0  0  0  0
  -26.5680  -37.5040   23.8040 N   0  0  0  0  0  0  0  0  0  0  0  0
  -26.1870  -38.4400   23.9060 H   0  0  0  0  0  0  0  0  0  0  0  0
  -26.2640  -31.9290   25.2300 C   0  0  1  0  0  0  0  0  0  0  0  0
  -24.9980  -31.6420   26.1230 C   0  0  0  0  0  1  0  0  0  0  0  0
  -26.8250  -30.5420   24.9700 C   0  0  0  0  0  1  0  0  0  0  0  0
  -27.4380  -32.7300   25.9270 C   0  0  0  0  0  1  0  0  0  0  0  0
  2  1  1  0
  2 10  1  0
  3  2  2  0
  4  6  1  0
  4  8  1  0
  5  3  1  0
  6  1  1  0
  7  3  1  0
  7  4  1  0
  8  9  1  0
  8 58  1  0
 10 21  1  0
 12 17  1  0
 13 14  1  0
 13 12  1  0
 15 14  1  0
 15 29  1  0
 15 16  1  0
 17 11  1  0
 17 16  1  0
 18 11  1  0
 19 23  1  0
 19 20  1  0
 21 24  1  0
 22 19  1  0
 22 55  1  0
 24 25  1  0
 24 20  1  0
 26 27  2  0
 27 46  1  0
 28 27  1  0
 28 31  1  0
 29 30  1  0
 29 26  1  0
 30 28  2  0
 31 32  1  0
 32 33  2  0
 34 37  1  0
 34 33  1  0
 35 34  2  0
 36 35  1  0
 36 31  2  0
 37 38  1  0
 38 43  2  0
 38 39  1  0
 39 40  2  0
 40 41  1  0
 41 45  1  0
 42 41  2  0
 43 42  1  0
 44 43  1  0
 46 47  1  0
 47 50  1  0
 47 49  1  0
 48 46  2  0
 51 52  1  0
 51 26  1  0
 53 51  1  0
 55 56  1  0
 55 54  1  0
 56 57  1  0
 58 59  1  0
 61 72  2  0
 62 60  1  0
 62 67  1  0
 63 71  1  0
 63 73  1  0
 64 66  1  0
 65 71  1  0
 66 65  1  0
 67 66  2  0
 68 62  2  0
 69 68  1  0
 69 64  2  0
 70 64  1  0
 70 63  1  0
 71 61  1  0
 73 75  2  0
 74 73  1  0
 76 74  1  0
 77 86  2  0
 77 82  1  0
 78 74  1  0
 78 82  1  0
 79 78  1  0
 80 81  1  0
 80 79  1  0
 81 77  1  0
 82 83  2  0
 83 84  1  0
 85 84  2  0
 86 85  1  0
 87 61  1  0
 87 88  1  0
 87 97  1  0
 88 91  1  0
 89 93  1  0
 89 88  1  0
 90 89  2  0
 93 92  1  0
 95 96  1  0
 95 93  1  0
 95 94  1  0
 97100  1  1
 97 98  1  0
 99 97  1  0
M  ISO  4  11 100  23 100  59 101  60 101
M  END
>  <TORSDO>  (68) 
F 21

>  <SCORE>  (68) 
-13.913

>  <name>  (68) 
67

>  <ligand_id>  (68) 
67

>  <original_smiles>  (68) 
[H]OC([H])(C([H])([H])[H])C1([H])N(C(=O)N2C([H])([H])C([H])([H])C([H])([H])C([H])(n3nc(-c4c([H])c([H])c(Oc5c([H])c([H])c(F)c([H])c5F)c([H])c4[H])c(C(=O)N([H])[H])c3N([H])[H])C2([H])[H])C([H])([H])C([H])([H])[N+]([H])(C([H])([H])c2c([H])nc(N([H])C([H])([H])C([H])([H])Oc3c([H])c([H])c4c(c3[H])C([H])([H])N(C(=O)C([H])(N([H])C(=O)C([H])(N([H])C([H])([H])[H])C([H])([H])[H])C(C([H])([H])[H])(C([H])([H])[H])C([H])([H])[H])C([H])(C(=O)N([H])C3([H])c5c([H])c([H])c([H])c([H])c5C([H])([H])C([H])([H])C3([H])[H])C4([H])[H])nc2C([H])([H])[H])C1([H])[H]

>  <smiles>  (68) 
[H]OC([H])(C([H])([H])[H])C1([H])N(C(=O)N2C([H])([H])C([H])([H])C([H])([H])C([H])(n3nc(-c4c([H])c([H])c(Oc5c([H])c([H])c(F)c([H])c5F)c([H])c4[H])c(C(=O)N([H])[H])c3N([H])[H])C2([H])[H])C([H])([H])C([H])([H])[N+]([H])(C([H])([H])c2c([H])nc(N([H])C([H])([H])C([H])([H])Oc3c([H])c([H])c4c(c3[H])C([H])([H])N(C(=O)C([H])(N([H])C(=O)C([H])(N([H])C([H])([H])[H])C([H])([H])[H])C(C([H])([H])[H])(C([H])([H])[H])C([H])([H])[H])C([H])(C(=O)N([H])C3([H])c5c([H])c([H])c([H])c([H])c5C([H])([H])C([H])([H])C3([H])[H])C4([H])[H])nc2C([H])([H])[H])C1([H])[H]

$$$$
68:0:0
     RDKit          3D

 97107  0  0  1  0  0  0  0  0999 V2000
  -30.7630  -14.7840   20.2450 C   0  0  0  0  0  0  0  0  0  0  0  0
  -30.7670  -12.3380   19.6580 C   0  0  0  0  0  2  0  0  0  0  0  0
  -29.9260  -12.0990   18.3790 C   0  0  0  0  0  2  0  0  0  0  0  0
  -28.4380  -11.9050   18.7290 C   0  0  0  0  0  2  0  0  0  0  0  0
  -27.9360  -12.9660   19.7340 C   0  0  0  0  0  3  0  0  0  0  0  0
  -28.9000  -13.1330   20.9340 C   0  0  0  0  0  2  0  0  0  0  0  0
  -30.1970  -13.5200   20.3620 N   0  0  0  0  0  0  0  0  0  0  0  0
  -31.9870  -14.8380   20.0680 O   0  0  0  0  0  0  0  0  0  0  0  0
  -28.3750  -20.0910   20.6140 C   0  0  0  0  0  2  0  0  0  0  0  0
  -30.4090  -17.1940   19.2450 C   0  0  0  0  0  2  0  0  0  0  0  0
  -28.6890  -16.3950   20.4960 C   0  0  0  0  0  2  0  0  0  0  0  0
  -27.8740  -19.8700   18.1950 C   0  0  0  0  0  2  0  0  0  0  0  0
  -27.5680  -19.2470   19.6130 C   0  0  0  0  0  3  0  0  0  0  0  0
  -29.4560  -18.3090   19.8360 C   0  0  0  0  0  3  0  0  0  0  0  0
  -29.5670  -19.9540   19.7150 C   0  0  0  0  0  3  0  0  0  0  0  0
  -27.9520  -17.6740   19.7550 C   0  0  1  0  0  0  0  0  0  0  0  0
  -29.9810  -15.9300   19.9240 N   0  0  0  0  0  0  0  0  0  0  0  0
  -28.9790  -20.7510   18.5770 N   0  0  1  0  0  4  0  0  0  0  0  0
  -28.3340  -20.9580   19.3220 H   0  0  0  0  0  0  0  0  0  0  0  0
  -25.4940  -13.5900   20.1680 C   0  0  0  0  0  0  0  0  0  0  0  0
  -24.4040  -12.8860   20.5830 C   0  0  0  0  0  0  0  0  0  0  0  0
  -24.8600  -11.5390   20.7110 C   0  0  0  0  0  0  0  0  0  0  0  0
  -26.5640  -12.7140   20.1580 N   0  0  0  0  0  0  0  0  0  0  0  0
  -26.1770  -11.4700   20.5270 N   0  0  0  0  0  0  0  0  0  0  0  0
  -24.1130  -10.3040   20.9200 C   0  0  0  0  0  0  0  0  0  0  0  0
  -24.5100   -9.3540   21.8860 C   0  0  0  0  0  3  0  0  0  0  0  0
  -23.7550   -8.1780   22.0740 C   0  0  0  0  0  3  0  0  0  0  0  0
  -22.5990   -7.9440   21.2980 C   0  0  0  0  0  0  0  0  0  0  0  0
  -22.2270   -8.8760   20.3160 C   0  0  0  0  0  3  0  0  0  0  0  0
  -22.9800  -10.0430   20.1210 C   0  0  0  0  0  3  0  0  0  0  0  0
  -21.8200   -6.8190   21.4070 O   0  0  0  0  0  0  0  0  0  0  0  0
  -21.7480   -6.1130   22.5790 C   0  0  0  0  0  0  0  0  0  0  0  0
  -21.3260   -6.7090   23.7890 C   0  0  0  0  0  3  0  0  0  0  0  0
  -21.2050   -5.9250   24.9550 C   0  0  0  0  0  3  0  0  0  0  0  0
  -21.4900   -4.5490   24.9110 C   0  0  0  0  0  0  0  0  0  0  0  0
  -21.9020   -3.9520   23.7090 C   0  0  0  0  0  3  0  0  0  0  0  0
  -22.0270   -4.7320   22.5440 C   0  0  0  0  0  0  0  0  0  0  0  0
  -22.4100   -4.1470   21.3840 F   0  0  0  0  0  0  0  0  0  0  0  0
  -21.3610   -3.7950   26.0300 F   0  0  0  0  0  0  0  0  0  0  0  0
  -23.0020  -13.4110   20.7180 C   0  0  0  0  0  0  0  0  0  0  0  0
  -22.2120  -12.8110   21.6050 N   0  0  0  0  0  0  0  0  0  0  0  0
  -22.6170  -14.3860   20.0690 O   0  0  0  0  0  0  0  0  0  0  0  0
  -22.5370  -12.0220   22.1490 H   0  0  0  0  0  0  0  0  0  0  0  0
  -21.2640  -13.1270   21.7450 H   0  0  0  0  0  0  0  0  0  0  0  0
  -25.6520  -14.8750   19.6980 N   0  0  0  0  0  0  0  0  0  0  0  0
  -24.7990  -15.0780   19.1800 H   0  0  0  0  0  0  0  0  0  0  0  0
  -26.4020  -14.7760   19.0210 H   0  0  0  0  0  0  0  0  0  0  0  0
  -26.7010  -17.5380   20.7780 C   0  0  0  0  0  2  0  0  0  0  0  0
  -24.1750  -17.3710   20.7260 C   0  0  0  0  0  1  0  0  0  0  0  0
  -25.4680  -17.1730   20.0350 N   0  0  0  0  0  4  0  0  0  0  0  0
  -25.4390  -17.6470   19.1520 H   0  0  0  0  0  0  0  0  0  0  0  0
  -25.5890  -16.1670   19.8570 H   0  0  0  0  0  0  0  0  0  0  0  0
  -28.8090  -22.3020   18.6570 C   0  0  0  0  0  2  0  0  0  0  0  0
  -29.0140  -23.3290   17.4360 C   0  0  0  0  0  2  0  0  0  0  0  0
  -28.3240  -25.2300   15.8920 C   0  0  0  0  0  1  0  0  0  0  0  0
  -28.2640  -24.7750   17.3830 C   0  0  0  0  0  3  0  0  0  0  0  0
  -28.5630  -26.0330   18.1790 O   0  0  0  0  0  0  0  0  0  0  0  0
  -25.1900  -30.8230   22.6050 C   0  0  0  0  0  0  0  0  0  0  0  0
  -27.4940  -26.9330   18.4610 C   0  0  0  0  0  0  0  0  0  0  0  0
  -23.8650  -29.8250   20.7790 C   0  0  0  0  0  3  0  0  0  0  0  0
  -25.2000  -28.5770   19.0000 C   0  0  0  0  0  0  0  0  0  0  0  0
  -26.4200  -30.0710   20.5660 C   0  0  0  0  0  2  0  0  0  0  0  0
  -26.4210  -28.8730   19.6250 C   0  0  0  0  0  0  0  0  0  0  0  0
  -27.5670  -28.0540   19.3630 C   0  0  0  0  0  3  0  0  0  0  0  0
  -26.2470  -26.7450   17.8240 C   0  0  0  0  0  3  0  0  0  0  0  0
  -25.1230  -27.5260   18.0910 C   0  0  0  0  0  3  0  0  0  0  0  0
  -24.0030  -29.4480   19.2840 C   0  0  0  0  0  2  0  0  0  0  0  0
  -25.1740  -30.2460   21.3730 N   0  0  0  0  0  0  0  0  0  0  0  0
  -24.1350  -31.0340   23.2340 O   0  0  0  0  0  0  0  0  0  0  0  0
  -23.2030  -28.6520   21.5420 C   0  0  0  0  0  0  0  0  0  0  0  0
  -21.8640  -28.5760   21.5140 N   0  0  0  0  0  0  0  0  0  0  0  0
  -23.9010  -27.8260   22.1400 O   0  0  0  0  0  0  0  0  0  0  0  0
  -21.3510  -29.3310   21.0870 H   0  0  0  0  0  0  0  0  0  0  0  0
  -18.4580  -27.4500   22.0230 C   0  0  0  0  0  0  0  0  0  0  0  0
  -21.0460  -27.5180   22.1100 C   0  0  0  0  0  3  0  0  0  0  0  0
  -21.0000  -26.2500   21.2360 C   0  0  0  0  0  2  0  0  0  0  0  0
  -19.8060  -26.2270   20.2710 C   0  0  0  0  0  2  0  0  0  0  0  0
  -18.4750  -26.2780   21.0580 C   0  0  0  0  0  2  0  0  0  0  0  0
  -19.6600  -28.0400   22.5000 C   0  0  0  0  0  0  0  0  0  0  0  0
  -19.5830  -29.1540   23.3650 C   0  0  0  0  0  3  0  0  0  0  0  0
  -18.3390  -29.6740   23.7690 C   0  0  0  0  0  3  0  0  0  0  0  0
  -17.1530  -29.0770   23.3140 C   0  0  0  0  0  3  0  0  0  0  0  0
  -17.2130  -27.9790   22.4440 C   0  0  0  0  0  3  0  0  0  0  0  0
  -26.5190  -31.2790   23.2770 C   0  0  0  0  0  3  0  0  0  0  0  0
  -27.1350  -30.1930   24.2380 C   0  0  1  0  0  0  0  0  0  0  0  0
  -26.1270  -29.6500   25.2780 C   0  0  0  0  0  1  0  0  0  0  0  0
  -27.6820  -28.9800   23.4450 C   0  0  0  0  0  1  0  0  0  0  0  0
  -28.3380  -30.8010   25.0000 C   0  0  0  0  0  1  0  0  0  0  0  0
  -26.2470  -32.5220   24.0090 N   0  0  0  0  0  0  0  0  0  0  0  0
  -26.5710  -33.7540   23.5780 C   0  0  0  0  0  0  0  0  0  0  0  0
  -27.2030  -33.9520   22.5360 O   0  0  0  0  0  0  0  0  0  0  0  0
  -25.6760  -32.4360   24.8370 H   0  0  0  0  0  0  0  0  0  0  0  0
  -24.8780  -35.6040   23.8080 C   0  0  0  0  0  1  0  0  0  0  0  0
  -26.1180  -34.9470   24.4390 C   0  0  0  0  0  3  0  0  0  0  0  0
  -28.2770  -35.5010   25.4680 C   0  0  0  0  0  1  0  0  0  0  0  0
  -27.1730  -35.9650   24.6340 N   0  0  0  0  0  0  0  0  0  0  0  0
  -26.7880  -36.8060   25.0550 H   0  0  0  0  0  0  0  0  0  0  0  0
  1  7  1  0
  2  7  1  0
  3  4  1  0
  3  2  1  0
  5  4  1  0
  5 23  1  0
  5  6  1  0
  7  6  1  0
  8  1  2  0
 10 17  1  0
 12 18  1  0
 13 12  1  0
 13 16  1  0
 13  9  1  0
 14 10  1  0
 15 14  1  0
 15  9  1  0
 16 14  1  0
 16 11  1  0
 16 48  1  6
 17  1  1  0
 17 11  1  0
 18 53  1  0
 18 19  1  1
 18 15  1  0
 20 21  2  0
 21 22  1  0
 21 40  1  0
 22 25  1  0
 23 20  1  0
 23 24  1  0
 24 22  2  0
 25 26  1  0
 26 27  2  0
 28 31  1  0
 28 27  1  0
 29 28  2  0
 30 29  1  0
 30 25  2  0
 31 32  1  0
 32 33  1  0
 33 34  2  0
 35 34  1  0
 35 39  1  0
 36 35  2  0
 37 32  2  0
 37 36  1  0
 38 37  1  0
 40 41  1  0
 41 44  1  0
 41 43  1  0
 42 40  2  0
 45 20  1  0
 46 45  1  0
 47 45  1  0
 50 49  1  0
 50 48  1  0
 51 50  1  0
 52 50  1  0
 54 53  1  0
 56 55  1  0
 56 54  1  0
 56 57  1  0
 57 59  1  0
 58 69  2  0
 59 64  1  0
 60 68  1  0
 60 70  1  0
 61 67  1  0
 61 63  1  0
 62 68  1  0
 63 62  1  0
 64 63  2  0
 65 66  1  0
 65 59  2  0
 66 61  2  0
 67 60  1  0
 68 58  1  0
 70 72  2  0
 71 70  1  0
 73 71  1  0
 74 83  2  0
 74 79  1  0
 75 71  1  0
 75 79  1  0
 76 75  1  0
 77 78  1  0
 77 76  1  0
 78 74  1  0
 79 80  2  0
 80 81  1  0
 82 81  2  0
 83 82  1  0
 84 58  1  0
 84 89  1  0
 84 85  1  0
 85 88  1  1
 85 86  1  0
 87 85  1  0
 89 92  1  0
 90 89  1  0
 90 94  1  0
 91 90  2  0
 94 93  1  0
 94 96  1  0
 96 97  1  0
 96 95  1  0
M  ISO  4   1 100  17 100  56 101  57 101
M  END
>  <TORSDO>  (69) 
F 20

>  <SCORE>  (69) 
-8.442

>  <name>  (69) 
68

>  <ligand_id>  (69) 
68

>  <original_smiles>  (69) 
[H]c1c([H])c([H])c2c(c1[H])C([H])([H])C([H])([H])C([H])([H])C2([H])N([H])C(=O)C1([H])N(C(=O)C([H])(N([H])C(=O)C([H])(N([H])C([H])([H])[H])C([H])([H])[H])C(C([H])([H])[H])(C([H])([H])[H])C([H])([H])[H])C([H])([H])c2c([H])c(OC([H])(C([H])([H])[H])C([H])([H])C([H])([H])[N+]3([H])C([H])([H])C4([H])C([H])([H])C3([H])C3([H])C([H])([H])N(C(=O)N5C([H])([H])C([H])([H])C([H])([H])C([H])(n6nc(-c7c([H])c([H])c(Oc8c([H])c([H])c(F)c([H])c8F)c([H])c7[H])c(C(=O)N([H])[H])c6N([H])[H])C5([H])[H])C([H])([H])C43C([H])([H])[N+]([H])([H])C([H])([H])[H])c([H])c([H])c2C1([H])[H]

>  <smiles>  (69) 
[H]c1c([H])c([H])c2c(c1[H])C([H])([H])C([H])([H])C([H])([H])C2([H])N([H])C(=O)C1([H])N(C(=O)C([H])(N([H])C(=O)C([H])(N([H])C([H])([H])[H])C([H])([H])[H])C(C([H])([H])[H])(C([H])([H])[H])C([H])([H])[H])C([H])([H])c2c([H])c(OC([H])(C([H])([H])[H])C([H])([H])C([H])([H])[N+]3([H])C([H])([H])C4([H])C([H])([H])C3([H])C3([H])C([H])([H])N(C(=O)N5C([H])([H])C([H])([H])C([H])([H])C([H])(n6nc(-c7c([H])c([H])c(Oc8c([H])c([H])c(F)c([H])c8F)c([H])c7[H])c(C(=O)N([H])[H])c6N([H])[H])C5([H])[H])C([H])([H])C43C([H])([H])[N+]([H])([H])C([H])([H])[H])c([H])c([H])c2C1([H])[H]

$$$$
69:0:0
     RDKit          3D

 97107  0  0  1  0  0  0  0  0999 V2000
  -29.9710  -20.9100   19.9810 C   0  0  0  0  0  3  0  0  0  0  0  0
  -29.3550  -21.7190   19.0110 C   0  0  0  0  0  0  0  0  0  0  0  0
  -29.4150  -19.6430   20.1890 C   0  0  0  0  0  0  0  0  0  0  0  0
  -27.7630  -20.1080   18.6850 C   0  0  0  0  0  0  0  0  0  0  0  0
  -28.2210  -21.3240   18.3970 N   0  0  0  0  0  0  0  0  0  0  0  0
  -28.3190  -19.2440   19.5250 N   0  0  0  0  0  0  0  0  0  0  0  0
  -25.2560  -20.4000   17.9420 C   0  0  0  0  0  2  0  0  0  0  0  0
  -25.3550  -19.0870   18.6740 C   0  0  0  0  0  2  0  0  0  0  0  0
  -26.5610  -19.6280   17.9320 C   0  0  0  0  0  3  0  0  0  0  0  0
  -29.9310  -23.0570   18.5670 C   0  0  0  0  0  2  0  0  0  0  0  0
  -29.2140  -24.1860   19.1920 N   0  0  0  0  0  4  0  0  0  0  0  0
  -29.6500  -24.3840   20.0790 H   0  0  0  0  0  0  0  0  0  0  0  0
  -28.2880  -23.8340   19.3830 H   0  0  0  0  0  0  0  0  0  0  0  0
  -29.1110  -25.4140   18.3570 C   0  0  0  0  0  2  0  0  0  0  0  0
  -29.4080  -26.7250   19.1190 C   0  0  0  0  0  2  0  0  0  0  0  0
  -28.6970  -26.8730   20.3510 O   0  0  0  0  0  0  0  0  0  0  0  0
  -24.6700  -31.9560   23.2980 C   0  0  0  0  0  0  0  0  0  0  0  0
  -27.5160  -27.5770   20.3040 C   0  0  0  0  0  0  0  0  0  0  0  0
  -23.5440  -30.5130   21.6350 C   0  0  0  0  0  3  0  0  0  0  0  0
  -25.0760  -29.0020   20.2620 C   0  0  0  0  0  0  0  0  0  0  0  0
  -26.0630  -30.9340   21.5060 C   0  0  0  0  0  2  0  0  0  0  0  0
  -26.2020  -29.5600   20.8820 C   0  0  0  0  0  0  0  0  0  0  0  0
  -27.4210  -28.8470   20.9150 C   0  0  0  0  0  3  0  0  0  0  0  0
  -26.3700  -27.0210   19.6970 C   0  0  0  0  0  3  0  0  0  0  0  0
  -25.1530  -27.7260   19.6760 C   0  0  0  0  0  3  0  0  0  0  0  0
  -23.8090  -29.8260   20.2680 C   0  0  0  0  0  2  0  0  0  0  0  0
  -24.7750  -31.1490   22.2050 N   0  0  0  0  0  0  0  0  0  0  0  0
  -23.5680  -32.2040   23.8080 O   0  0  0  0  0  0  0  0  0  0  0  0
  -22.8920  -29.4830   22.5850 C   0  0  0  0  0  0  0  0  0  0  0  0
  -21.5730  -29.2790   22.4320 N   0  0  0  0  0  0  0  0  0  0  0  0
  -23.5700  -28.8720   23.4150 O   0  0  0  0  0  0  0  0  0  0  0  0
  -21.0870  -29.8280   21.7370 H   0  0  0  0  0  0  0  0  0  0  0  0
  -18.2050  -28.0630   22.8920 C   0  0  0  0  0  0  0  0  0  0  0  0
  -20.7580  -28.3300   23.1880 C   0  0  0  0  0  3  0  0  0  0  0  0
  -20.8710  -26.9060   22.6000 C   0  0  0  0  0  2  0  0  0  0  0  0
  -19.7780  -26.5870   21.5740 C   0  0  0  0  0  2  0  0  0  0  0  0
  -18.3910  -26.7200   22.2070 C   0  0  0  0  0  2  0  0  0  0  0  0
  -19.3160  -28.8270   23.3390 C   0  0  0  0  0  0  0  0  0  0  0  0
  -19.0870  -30.0840   23.9420 C   0  0  0  0  0  3  0  0  0  0  0  0
  -17.7790  -30.5780   24.1010 C   0  0  0  0  0  3  0  0  0  0  0  0
  -16.6810  -29.8130   23.6690 C   0  0  0  0  0  3  0  0  0  0  0  0
  -16.8940  -28.5570   23.0730 C   0  0  0  0  0  3  0  0  0  0  0  0
  -25.9220  -32.6210   23.9490 C   0  0  0  0  0  3  0  0  0  0  0  0
  -25.5730  -34.0150   24.2540 N   0  0  0  0  0  0  0  0  0  0  0  0
  -25.9140  -35.0680   23.4990 C   0  0  0  0  0  0  0  0  0  0  0  0
  -26.6280  -34.9690   22.4960 O   0  0  0  0  0  0  0  0  0  0  0  0
  -24.9400  -34.1650   25.0260 H   0  0  0  0  0  0  0  0  0  0  0  0
  -24.1790  -36.8290   23.0430 C   0  0  0  0  0  1  0  0  0  0  0  0
  -25.3820  -36.4510   23.9220 C   0  0  0  0  0  3  0  0  0  0  0  0
  -27.4530  -37.3740   24.8630 C   0  0  0  0  0  1  0  0  0  0  0  0
  -26.4030  -37.5190   23.8580 N   0  0  0  0  0  0  0  0  0  0  0  0
  -25.9750  -38.4320   23.9790 H   0  0  0  0  0  0  0  0  0  0  0  0
  -26.4220  -31.8730   25.2450 C   0  0  1  0  0  0  0  0  0  0  0  0
  -25.3050  -31.6110   26.2800 C   0  0  0  0  0  1  0  0  0  0  0  0
  -27.0510  -30.5090   24.8770 C   0  0  0  0  0  1  0  0  0  0  0  0
  -27.5320  -32.6990   25.9360 C   0  0  0  0  0  1  0  0  0  0  0  0
  -29.9710  -18.7530   21.0800 O   0  0  0  0  0  0  0  0  0  0  0  0
  -30.6430  -14.4960   20.1640 C   0  0  0  0  0  0  0  0  0  0  0  0
  -30.2290  -12.4060   18.9220 C   0  0  0  0  0  2  0  0  0  0  0  0
  -29.2190  -12.6600   17.7870 C   0  0  0  0  0  2  0  0  0  0  0  0
  -27.7760  -12.4920   18.3000 C   0  0  0  0  0  2  0  0  0  0  0  0
  -27.5170  -13.2850   19.6080 C   0  0  0  0  0  3  0  0  0  0  0  0
  -28.6370  -13.0350   20.6450 C   0  0  0  0  0  2  0  0  0  0  0  0
  -29.9300  -13.3450   20.0130 N   0  0  0  0  0  0  0  0  0  0  0  0
  -31.6940  -14.7100   19.5510 O   0  0  0  0  0  0  0  0  0  0  0  0
  -30.9590  -16.5370   21.5590 C   0  0  0  0  0  2  0  0  0  0  0  0
  -29.1120  -16.3950   20.6590 C   0  0  0  0  0  2  0  0  0  0  0  0
  -30.2220  -17.4410   20.5720 C   0  0  0  0  0  3  0  0  0  0  0  0
  -30.1530  -15.4150   21.0310 N   0  0  0  0  0  0  0  0  0  0  0  0
  -25.1720  -13.8800   20.4760 C   0  0  0  0  0  0  0  0  0  0  0  0
  -24.1230  -13.0960   20.8810 C   0  0  0  0  0  0  0  0  0  0  0  0
  -24.5760  -11.7470   20.7760 C   0  0  0  0  0  0  0  0  0  0  0  0
  -26.1960  -13.0020   20.1560 N   0  0  0  0  0  0  0  0  0  0  0  0
  -25.8450  -11.7120   20.3940 N   0  0  0  0  0  0  0  0  0  0  0  0
  -23.8570  -10.4800   20.9670 C   0  0  0  0  0  0  0  0  0  0  0  0
  -24.3210   -9.4970   21.8690 C   0  0  0  0  0  3  0  0  0  0  0  0
  -23.6040   -8.2930   22.0480 C   0  0  0  0  0  3  0  0  0  0  0  0
  -22.4080   -8.0660   21.3250 C   0  0  0  0  0  0  0  0  0  0  0  0
  -21.9620   -9.0390   20.4140 C   0  0  0  0  0  3  0  0  0  0  0  0
  -22.6800  -10.2330   20.2340 C   0  0  0  0  0  3  0  0  0  0  0  0
  -21.6590   -6.9180   21.4170 O   0  0  0  0  0  0  0  0  0  0  0  0
  -21.6330   -6.1650   22.5630 C   0  0  0  0  0  0  0  0  0  0  0  0
  -21.1840   -6.6950   23.7910 C   0  0  0  0  0  3  0  0  0  0  0  0
  -21.1080   -5.8670   24.9280 C   0  0  0  0  0  3  0  0  0  0  0  0
  -21.4690   -4.5090   24.8370 C   0  0  0  0  0  0  0  0  0  0  0  0
  -21.9080   -3.9770   23.6120 C   0  0  0  0  0  3  0  0  0  0  0  0
  -21.9870   -4.8040   22.4770 C   0  0  0  0  0  0  0  0  0  0  0  0
  -22.3930   -4.2830   21.2940 F   0  0  0  0  0  0  0  0  0  0  0  0
  -21.3870   -3.7100   25.9280 F   0  0  0  0  0  0  0  0  0  0  0  0
  -22.7470  -13.5680   21.2520 C   0  0  0  0  0  0  0  0  0  0  0  0
  -22.0700  -12.8390   22.1330 N   0  0  0  0  0  0  0  0  0  0  0  0
  -22.2850  -14.6130   20.7990 O   0  0  0  0  0  0  0  0  0  0  0  0
  -22.4570  -11.9920   22.5210 H   0  0  0  0  0  0  0  0  0  0  0  0
  -21.1490  -13.1340   22.4250 H   0  0  0  0  0  0  0  0  0  0  0  0
  -25.3310  -15.2540   20.3350 N   0  0  0  0  0  0  0  0  0  0  0  0
  -24.5740  -15.9040   20.5110 H   0  0  0  0  0  0  0  0  0  0  0  0
  -26.1610  -15.7050   19.9710 H   0  0  0  0  0  0  0  0  0  0  0  0
  1  3  1  0
  2  1  2  0
  3 57  1  0
  4  6  1  0
  5  4  2  0
  5  2  1  0
  6  3  2  0
  7  8  1  0
  9  7  1  0
  9  8  1  0
  9  4  1  0
 10  2  1  0
 10 11  1  0
 11 13  1  0
 11 12  1  0
 14 15  1  0
 14 11  1  0
 15 16  1  0
 17 28  2  0
 18 16  1  0
 18 23  1  0
 19 27  1  0
 19 29  1  0
 20 26  1  0
 20 22  1  0
 21 27  1  0
 22 23  2  0
 22 21  1  0
 24 18  2  0
 25 24  1  0
 25 20  2  0
 26 19  1  0
 27 17  1  0
 29 31  2  0
 30 29  1  0
 32 30  1  0
 33 42  2  0
 33 38  1  0
 34 30  1  0
 34 38  1  0
 35 34  1  0
 36 37  1  0
 36 35  1  0
 37 33  1  0
 38 39  2  0
 39 40  1  0
 41 40  2  0
 42 41  1  0
 43 17  1  0
 43 44  1  0
 43 53  1  0
 44 47  1  0
 45 49  1  0
 45 44  1  0
 46 45  2  0
 49 48  1  0
 51 49  1  0
 51 52  1  0
 51 50  1  0
 53 56  1  1
 53 54  1  0
 55 53  1  0
 58 69  1  0
 59 64  1  0
 60 61  1  0
 60 59  1  0
 62 61  1  0
 62 73  1  0
 62 63  1  0
 64 58  1  0
 64 63  1  0
 65 58  2  0
 67 69  1  0
 68 67  1  0
 68 57  1  0
 68 66  1  0
 69 66  1  0
 70 71  2  0
 71 90  1  0
 72 71  1  0
 72 75  1  0
 73 74  1  0
 73 70  1  0
 74 72  2  0
 75 76  1  0
 76 77  2  0
 78 81  1  0
 78 77  1  0
 79 78  2  0
 80 79  1  0
 80 75  2  0
 81 82  1  0
 82 83  1  0
 83 84  2  0
 85 84  1  0
 85 89  1  0
 86 85  2  0
 87 82  2  0
 87 86  1  0
 88 87  1  0
 90 91  1  0
 91 94  1  0
 91 93  1  0
 92 90  2  0
 95 70  1  0
 95 96  1  0
 97 95  1  0
M  ISO  4  15 101  16 101  58 100  69 100
M  END
>  <TORSDO>  (70) 
F 22

>  <SCORE>  (70) 
-12.665

>  <name>  (70) 
69

>  <ligand_id>  (70) 
69

>  <original_smiles>  (70) 
[H]c1c(OC2([H])C([H])([H])N(C(=O)N3C([H])([H])C([H])([H])C([H])([H])C([H])(n4nc(-c5c([H])c([H])c(Oc6c([H])c([H])c(F)c([H])c6F)c([H])c5[H])c(C(=O)N([H])[H])c4N([H])[H])C3([H])[H])C2([H])[H])nc(C2([H])C([H])([H])C2([H])[H])nc1C([H])([H])[N+]([H])([H])C([H])([H])C([H])([H])Oc1c([H])c([H])c2c(c1[H])C([H])([H])N(C(=O)C([H])(N([H])C(=O)C([H])(N([H])C([H])([H])[H])C([H])([H])[H])C(C([H])([H])[H])(C([H])([H])[H])C([H])([H])[H])C([H])(C(=O)N([H])C1([H])c3c([H])c([H])c([H])c([H])c3C([H])([H])C([H])([H])C1([H])[H])C2([H])[H]

>  <smiles>  (70) 
[H]c1c(OC2([H])C([H])([H])N(C(=O)N3C([H])([H])C([H])([H])C([H])([H])C([H])(n4nc(-c5c([H])c([H])c(Oc6c([H])c([H])c(F)c([H])c6F)c([H])c5[H])c(C(=O)N([H])[H])c4N([H])[H])C3([H])[H])C2([H])[H])nc(C2([H])C([H])([H])C2([H])[H])nc1C([H])([H])[N+]([H])([H])C([H])([H])C([H])([H])Oc1c([H])c([H])c2c(c1[H])C([H])([H])N(C(=O)C([H])(N([H])C(=O)C([H])(N([H])C([H])([H])[H])C([H])([H])[H])C(C([H])([H])[H])(C([H])([H])[H])C([H])([H])[H])C([H])(C(=O)N([H])C1([H])c3c([H])c([H])c([H])c([H])c3C([H])([H])C([H])([H])C1([H])[H])C2([H])[H]

$$$$
70:0:0
     RDKit          3D

 93102  0  0  1  0  0  0  0  0999 V2000
  -31.0160  -23.0570   21.5780 C   0  0  0  0  0  2  0  0  0  0  0  0
  -30.4260  -20.4750   21.5800 C   0  0  0  0  0  2  0  0  0  0  0  0
  -28.6940  -20.9540   20.0840 C   0  0  0  0  0  2  0  0  0  0  0  0
  -29.9830  -21.9520   21.8560 C   0  0  0  0  0  3  0  0  0  0  0  0
  -28.7880  -22.2910   20.9430 C   0  0  0  0  0  3  0  0  0  0  0  0
  -29.0820  -23.7780   20.3660 C   0  0  0  0  0  3  0  0  0  0  0  0
  -30.2310  -24.2420   21.1740 N   0  0  0  0  0  4  0  0  0  0  0  0
  -29.2820  -19.8200   20.9040 N   0  0  1  0  0  4  0  0  0  0  0  0
  -30.7980  -24.9100   20.6750 H   0  0  0  0  0  0  0  0  0  0  0  0
  -29.8880  -24.7010   22.0060 H   0  0  0  0  0  0  0  0  0  0  0  0
  -28.6020  -19.6530   21.6320 H   0  0  0  0  0  0  0  0  0  0  0  0
  -27.9320  -24.9080   20.3540 C   0  0  0  0  0  2  0  0  0  0  0  0
  -28.2470  -26.3770   20.2350 O   0  0  0  0  0  0  0  0  0  0  0  0
  -24.6110  -31.8980   23.2400 C   0  0  0  0  0  0  0  0  0  0  0  0
  -27.1580  -27.2790   20.1890 C   0  0  0  0  0  0  0  0  0  0  0  0
  -23.3880  -30.5070   21.6130 C   0  0  0  0  0  3  0  0  0  0  0  0
  -24.8180  -28.9470   20.1830 C   0  0  0  0  0  0  0  0  0  0  0  0
  -25.9340  -30.7990   21.4140 C   0  0  0  0  0  2  0  0  0  0  0  0
  -26.0000  -29.4160   20.7720 C   0  0  0  0  0  0  0  0  0  0  0  0
  -27.1740  -28.5960   20.7620 C   0  0  0  0  0  3  0  0  0  0  0  0
  -25.9490  -26.8840   19.5690 C   0  0  0  0  0  3  0  0  0  0  0  0
  -24.7990  -27.6910   19.5710 C   0  0  0  0  0  3  0  0  0  0  0  0
  -23.5900  -29.8310   20.2330 C   0  0  0  0  0  2  0  0  0  0  0  0
  -24.6650  -31.0840   22.1460 N   0  0  0  0  0  0  0  0  0  0  0  0
  -23.5300  -32.1840   23.7790 O   0  0  0  0  0  0  0  0  0  0  0  0
  -22.7270  -29.4890   22.5770 C   0  0  0  0  0  0  0  0  0  0  0  0
  -21.3980  -29.3210   22.4630 N   0  0  0  0  0  0  0  0  0  0  0  0
  -23.4070  -28.8600   23.3920 O   0  0  0  0  0  0  0  0  0  0  0  0
  -20.9050  -29.8850   21.7850 H   0  0  0  0  0  0  0  0  0  0  0  0
  -18.0200  -28.1230   22.9700 C   0  0  0  0  0  0  0  0  0  0  0  0
  -20.5800  -28.3870   23.2390 C   0  0  0  0  0  3  0  0  0  0  0  0
  -20.6820  -26.9500   22.6770 C   0  0  0  0  0  2  0  0  0  0  0  0
  -19.5810  -26.6170   21.6660 C   0  0  0  0  0  2  0  0  0  0  0  0
  -18.1980  -26.7660   22.3060 C   0  0  0  0  0  2  0  0  0  0  0  0
  -19.1390  -28.8890   23.3930 C   0  0  0  0  0  0  0  0  0  0  0  0
  -18.9190  -30.1570   23.9750 C   0  0  0  0  0  3  0  0  0  0  0  0
  -17.6150  -30.6590   24.1380 C   0  0  0  0  0  3  0  0  0  0  0  0
  -16.5100  -29.8890   23.7310 C   0  0  0  0  0  3  0  0  0  0  0  0
  -16.7150  -28.6220   23.1510 C   0  0  0  0  0  3  0  0  0  0  0  0
  -25.8990  -32.5260   23.8530 C   0  0  0  0  0  3  0  0  0  0  0  0
  -26.4260  -31.7500   25.1240 C   0  0  1  0  0  0  0  0  0  0  0  0
  -25.3400  -31.5140   26.1990 C   0  0  0  0  0  1  0  0  0  0  0  0
  -27.0030  -30.3720   24.7210 C   0  0  0  0  0  1  0  0  0  0  0  0
  -27.5800  -32.5430   25.7780 C   0  0  0  0  0  1  0  0  0  0  0  0
  -25.5920  -33.9230   24.1940 N   0  0  0  0  0  0  0  0  0  0  0  0
  -25.9090  -34.9800   23.4350 C   0  0  0  0  0  0  0  0  0  0  0  0
  -26.5600  -34.8830   22.3910 O   0  0  0  0  0  0  0  0  0  0  0  0
  -25.0200  -34.0760   25.0130 H   0  0  0  0  0  0  0  0  0  0  0  0
  -24.1660  -36.7680   23.1300 C   0  0  0  0  0  1  0  0  0  0  0  0
  -25.4270  -36.3650   23.9090 C   0  0  0  0  0  3  0  0  0  0  0  0
  -27.5820  -37.2520   24.6830 C   0  0  0  0  0  1  0  0  0  0  0  0
  -26.4520  -37.4230   23.7750 N   0  0  0  0  0  0  0  0  0  0  0  0
  -26.0450  -38.3390   23.9440 H   0  0  0  0  0  0  0  0  0  0  0  0
  -29.4970  -18.4360   20.2580 C   0  0  0  0  0  2  0  0  0  0  0  0
  -30.0200  -17.2180   21.1800 C   0  0  0  0  0  2  0  0  0  0  0  0
  -30.5580  -14.7080   20.4300 C   0  0  0  0  0  0  0  0  0  0  0  0
  -30.3610  -12.4580   19.3470 C   0  0  0  0  0  2  0  0  0  0  0  0
  -29.3920  -12.5400   18.1440 C   0  0  0  0  0  2  0  0  0  0  0  0
  -27.9280  -12.3660   18.5980 C   0  0  0  0  0  2  0  0  0  0  0  0
  -27.5780  -13.2520   19.8230 C   0  0  0  0  0  3  0  0  0  0  0  0
  -28.6510  -13.1170   20.9260 C   0  0  0  0  0  2  0  0  0  0  0  0
  -29.9420  -13.4830   20.3260 N   0  0  0  0  0  0  0  0  0  0  0  0
  -31.7290  -14.8640   20.0740 O   0  0  0  0  0  0  0  0  0  0  0  0
  -29.7540  -15.7700   20.7860 N   0  0  0  0  0  0  0  0  0  0  0  0
  -28.8090  -15.4690   20.9770 H   0  0  0  0  0  0  0  0  0  0  0  0
  -25.1950  -13.8570   20.5680 C   0  0  0  0  0  0  0  0  0  0  0  0
  -24.1310  -13.0860   20.9500 C   0  0  0  0  0  0  0  0  0  0  0  0
  -24.5910  -11.7340   20.9140 C   0  0  0  0  0  0  0  0  0  0  0  0
  -26.2360  -12.9740   20.3240 N   0  0  0  0  0  0  0  0  0  0  0  0
  -25.8770  -11.6930   20.5930 N   0  0  0  0  0  0  0  0  0  0  0  0
  -23.8640  -10.4720   21.1070 C   0  0  0  0  0  0  0  0  0  0  0  0
  -24.3230   -9.4840   22.0060 C   0  0  0  0  0  3  0  0  0  0  0  0
  -23.5930   -8.2890   22.1890 C   0  0  0  0  0  3  0  0  0  0  0  0
  -22.3940   -8.0740   21.4710 C   0  0  0  0  0  0  0  0  0  0  0  0
  -21.9550   -9.0480   20.5580 C   0  0  0  0  0  3  0  0  0  0  0  0
  -22.6830  -10.2350   20.3740 C   0  0  0  0  0  3  0  0  0  0  0  0
  -21.6330   -6.9330   21.5680 O   0  0  0  0  0  0  0  0  0  0  0  0
  -21.6430   -6.1550   22.6970 C   0  0  0  0  0  0  0  0  0  0  0  0
  -21.3140   -6.6800   23.9660 C   0  0  0  0  0  3  0  0  0  0  0  0
  -21.2690   -5.8300   25.0880 C   0  0  0  0  0  3  0  0  0  0  0  0
  -21.5420   -4.4570   24.9460 C   0  0  0  0  0  0  0  0  0  0  0  0
  -21.8630   -3.9310   23.6820 C   0  0  0  0  0  3  0  0  0  0  0  0
  -21.9090   -4.7770   22.5600 C   0  0  0  0  0  0  0  0  0  0  0  0
  -22.1990   -4.2640   21.3410 F   0  0  0  0  0  0  0  0  0  0  0  0
  -21.4920   -3.6390   26.0230 F   0  0  0  0  0  0  0  0  0  0  0  0
  -22.7370  -13.5660   21.2370 C   0  0  0  0  0  0  0  0  0  0  0  0
  -22.0200  -12.8670   22.1100 N   0  0  0  0  0  0  0  0  0  0  0  0
  -22.2920  -14.5920   20.7220 O   0  0  0  0  0  0  0  0  0  0  0  0
  -22.3910  -12.0340   22.5470 H   0  0  0  0  0  0  0  0  0  0  0  0
  -21.0830  -13.1620   22.3480 H   0  0  0  0  0  0  0  0  0  0  0  0
  -25.3590  -15.2260   20.3790 N   0  0  0  0  0  0  0  0  0  0  0  0
  -24.5880  -15.8800   20.4660 H   0  0  0  0  0  0  0  0  0  0  0  0
  -26.1810  -15.6480   19.9680 H   0  0  0  0  0  0  0  0  0  0  0  0
  2  4  1  0
  3  8  1  0
  4  1  1  0
  5  3  1  0
  5  4  1  0
  6 12  1  0
  6  5  1  0
  6  7  1  0
  7  1  1  0
  7 10  1  0
  8  2  1  0
  8 11  1  1
  9  7  1  0
 13 12  1  0
 14 25  2  0
 15 13  1  0
 15 20  1  0
 16 24  1  0
 16 26  1  0
 17 23  1  0
 17 19  1  0
 18 24  1  0
 19 18  1  0
 20 19  2  0
 21 22  1  0
 21 15  2  0
 22 17  2  0
 23 16  1  0
 24 14  1  0
 26 28  2  0
 27 26  1  0
 29 27  1  0
 30 39  2  0
 30 35  1  0
 31 27  1  0
 31 35  1  0
 32 31  1  0
 33 34  1  0
 33 32  1  0
 34 30  1  0
 35 36  2  0
 36 37  1  0
 38 37  2  0
 39 38  1  0
 40 14  1  0
 40 45  1  0
 40 41  1  0
 41 44  1  1
 41 42  1  0
 43 41  1  0
 45 48  1  0
 46 50  1  0
 46 45  1  0
 47 46  2  0
 50 49  1  0
 52 50  1  0
 52 53  1  0
 52 51  1  0
 54  8  1  0
 54 55  1  0
 56 64  1  0
 57 62  1  0
 58 59  1  0
 58 57  1  0
 60 59  1  0
 60 69  1  0
 60 61  1  0
 62 56  1  0
 62 61  1  0
 63 56  2  0
 64 65  1  0
 64 55  1  0
 66 67  2  0
 67 86  1  0
 68 67  1  0
 68 71  1  0
 69 66  1  0
 69 70  1  0
 70 68  2  0
 71 72  1  0
 72 73  2  0
 74 77  1  0
 74 73  1  0
 75 74  2  0
 76 75  1  0
 76 71  2  0
 77 78  1  0
 78 79  1  0
 79 80  2  0
 81 80  1  0
 81 85  1  0
 82 81  2  0
 83 78  2  0
 83 82  1  0
 84 83  1  0
 86 87  1  0
 87 90  1  0
 87 89  1  0
 88 86  2  0
 91 92  1  0
 91 66  1  0
 93 91  1  0
M  ISO  4  12 101  13 101  56 100  64 100
M  END
>  <TORSDO>  (71) 
F 19

>  <SCORE>  (71) 
-14.400

>  <name>  (71) 
70

>  <ligand_id>  (71) 
70

>  <original_smiles>  (71) 
[H]c1c([H])c([H])c2c(c1[H])C([H])([H])C([H])([H])C([H])([H])C2([H])N([H])C(=O)C1([H])N(C(=O)C([H])(N([H])C(=O)C([H])(N([H])C([H])([H])[H])C([H])([H])[H])C(C([H])([H])[H])(C([H])([H])[H])C([H])([H])[H])C([H])([H])c2c([H])c(OC([H])([H])C3([H])C4([H])C([H])(C([H])([H])[N+]3([H])[H])C([H])([H])[N+]([H])(C([H])([H])C([H])([H])N([H])C(=O)N3C([H])([H])C([H])([H])C([H])([H])C([H])(n5nc(-c6c([H])c([H])c(Oc7c([H])c([H])c(F)c([H])c7F)c([H])c6[H])c(C(=O)N([H])[H])c5N([H])[H])C3([H])[H])C4([H])[H])c([H])c([H])c2C1([H])[H]

>  <smiles>  (71) 
[H]c1c([H])c([H])c2c(c1[H])C([H])([H])C([H])([H])C([H])([H])C2([H])N([H])C(=O)C1([H])N(C(=O)C([H])(N([H])C(=O)C([H])(N([H])C([H])([H])[H])C([H])([H])[H])C(C([H])([H])[H])(C([H])([H])[H])C([H])([H])[H])C([H])([H])c2c([H])c(OC([H])([H])C3([H])C4([H])C([H])(C([H])([H])[N+]3([H])[H])C([H])([H])[N+]([H])(C([H])([H])C([H])([H])N([H])C(=O)N3C([H])([H])C([H])([H])C([H])([H])C([H])(n5nc(-c6c([H])c([H])c(Oc7c([H])c([H])c(F)c([H])c7F)c([H])c6[H])c(C(=O)N([H])[H])c5N([H])[H])C3([H])[H])C4([H])[H])c([H])c([H])c2C1([H])[H]

$$$$
71:0:0
     RDKit          3D

 90 99  0  0  1  0  0  0  0  0999 V2000
  -29.9230  -21.6790   19.4620 C   0  0  0  0  0  2  0  0  0  0  0  0
  -29.4820  -20.6940   20.2690 C   0  0  0  0  0  3  0  0  0  0  0  0
  -28.6880  -21.7910   22.3770 C   0  0  0  0  0  1  0  0  0  0  0  0
  -29.3830  -22.7170   20.2320 N   0  0  0  0  0  0  0  0  0  0  0  0
  -28.7030  -21.6550   20.9290 N   0  0  0  0  0  0  0  0  0  0  0  0
  -29.3250  -18.2360   21.2580 C   0  0  0  0  0  2  0  0  0  0  0  0
  -30.3190  -18.3190   19.3810 C   0  0  0  0  0  2  0  0  0  0  0  0
  -30.3850  -17.3030   20.5740 C   0  0  0  0  0  3  0  0  0  0  0  0
  -29.8080  -19.2890   20.3620 N   0  0  0  0  0  0  0  0  0  0  0  0
  -30.7410  -14.7680   20.0160 C   0  0  0  0  0  0  0  0  0  0  0  0
  -30.4590  -12.5390   18.9370 C   0  0  0  0  0  2  0  0  0  0  0  0
  -29.4450  -12.6650   17.7780 C   0  0  0  0  0  2  0  0  0  0  0  0
  -28.0000  -12.5040   18.2920 C   0  0  0  0  0  2  0  0  0  0  0  0
  -27.7140  -13.3610   19.5540 C   0  0  0  0  0  3  0  0  0  0  0  0
  -28.8360  -13.2080   20.6050 C   0  0  0  0  0  2  0  0  0  0  0  0
  -30.1020  -13.5550   19.9460 N   0  0  0  0  0  0  0  0  0  0  0  0
  -31.9000  -14.9000   19.6140 O   0  0  0  0  0  0  0  0  0  0  0  0
  -29.9810  -15.8570   20.3690 N   0  0  0  0  0  0  0  0  0  0  0  0
  -29.0270  -15.6400   20.6070 H   0  0  0  0  0  0  0  0  0  0  0  0
  -25.3790  -13.9660   20.4310 C   0  0  0  0  0  0  0  0  0  0  0  0
  -24.3270  -13.1950   20.8470 C   0  0  0  0  0  0  0  0  0  0  0  0
  -24.7720  -11.8410   20.7610 C   0  0  0  0  0  0  0  0  0  0  0  0
  -26.3970  -13.0810   20.1160 N   0  0  0  0  0  0  0  0  0  0  0  0
  -26.0420  -11.7960   20.3750 N   0  0  0  0  0  0  0  0  0  0  0  0
  -24.0440  -10.5820   20.9650 C   0  0  0  0  0  0  0  0  0  0  0  0
  -24.4960   -9.6070   21.8810 C   0  0  0  0  0  3  0  0  0  0  0  0
  -23.7680   -8.4130   22.0730 C   0  0  0  0  0  3  0  0  0  0  0  0
  -22.5740   -8.1850   21.3490 C   0  0  0  0  0  0  0  0  0  0  0  0
  -22.1410   -9.1480   20.4220 C   0  0  0  0  0  3  0  0  0  0  0  0
  -22.8680  -10.3340   20.2280 C   0  0  0  0  0  3  0  0  0  0  0  0
  -21.8160   -7.0440   21.4530 O   0  0  0  0  0  0  0  0  0  0  0  0
  -21.7680   -6.3130   22.6130 C   0  0  0  0  0  0  0  0  0  0  0  0
  -21.3110   -6.8720   23.8270 C   0  0  0  0  0  3  0  0  0  0  0  0
  -21.2130   -6.0660   24.9790 C   0  0  0  0  0  3  0  0  0  0  0  0
  -21.5630   -4.7030   24.9180 C   0  0  0  0  0  0  0  0  0  0  0  0
  -22.0130   -4.1450   23.7100 C   0  0  0  0  0  3  0  0  0  0  0  0
  -22.1130   -4.9480   22.5590 C   0  0  0  0  0  0  0  0  0  0  0  0
  -22.5270   -4.3990   21.3920 F   0  0  0  0  0  0  0  0  0  0  0  0
  -21.4620   -3.9280   26.0230 F   0  0  0  0  0  0  0  0  0  0  0  0
  -22.9530  -13.6810   21.2090 C   0  0  0  0  0  0  0  0  0  0  0  0
  -22.2680  -12.9720   22.1000 N   0  0  0  0  0  0  0  0  0  0  0  0
  -22.4980  -14.7210   20.7380 O   0  0  0  0  0  0  0  0  0  0  0  0
  -22.6510  -12.1290   22.5030 H   0  0  0  0  0  0  0  0  0  0  0  0
  -21.3490  -13.2770   22.3840 H   0  0  0  0  0  0  0  0  0  0  0  0
  -25.5460  -15.3390   20.2710 N   0  0  0  0  0  0  0  0  0  0  0  0
  -24.7860  -15.9920   20.4260 H   0  0  0  0  0  0  0  0  0  0  0  0
  -26.3570  -15.7720   19.8510 H   0  0  0  0  0  0  0  0  0  0  0  0
  -28.6250  -23.9340   19.7520 C   0  0  0  0  0  2  0  0  0  0  0  0
  -28.5680  -25.2190   20.7090 C   0  0  0  0  0  2  0  0  0  0  0  0
  -28.5910  -26.6040   20.1710 O   0  0  0  0  0  0  0  0  0  0  0  0
  -24.6130  -31.8300   23.2130 C   0  0  0  0  0  0  0  0  0  0  0  0
  -27.4300  -27.3850   20.1820 C   0  0  0  0  0  0  0  0  0  0  0  0
  -23.4920  -30.4250   21.5170 C   0  0  0  0  0  3  0  0  0  0  0  0
  -25.0210  -28.9220   20.1200 C   0  0  0  0  0  0  0  0  0  0  0  0
  -26.0240  -30.8130   21.4080 C   0  0  0  0  0  2  0  0  0  0  0  0
  -26.1590  -29.4430   20.7510 C   0  0  0  0  0  0  0  0  0  0  0  0
  -27.3690  -28.6880   20.7650 C   0  0  0  0  0  3  0  0  0  0  0  0
  -26.2700  -26.9030   19.5420 C   0  0  0  0  0  3  0  0  0  0  0  0
  -25.0790  -27.6590   19.5070 C   0  0  0  0  0  3  0  0  0  0  0  0
  -23.7620  -29.7680   20.1360 C   0  0  0  0  0  2  0  0  0  0  0  0
  -24.7260  -31.0400   22.1030 N   0  0  0  0  0  0  0  0  0  0  0  0
  -23.5080  -32.0720   23.7200 O   0  0  0  0  0  0  0  0  0  0  0  0
  -22.8250  -29.3820   22.4450 C   0  0  0  0  0  0  0  0  0  0  0  0
  -21.5070  -29.1810   22.2810 N   0  0  0  0  0  0  0  0  0  0  0  0
  -23.4950  -28.7550   23.2690 O   0  0  0  0  0  0  0  0  0  0  0  0
  -21.0270  -29.7390   21.5880 H   0  0  0  0  0  0  0  0  0  0  0  0
  -18.1390  -27.9270   22.6850 C   0  0  0  0  0  0  0  0  0  0  0  0
  -20.6870  -28.2160   23.0130 C   0  0  0  0  0  3  0  0  0  0  0  0
  -20.8210  -26.7990   22.4070 C   0  0  0  0  0  2  0  0  0  0  0  0
  -19.7450  -26.4840   21.3640 C   0  0  0  0  0  2  0  0  0  0  0  0
  -18.3490  -26.5960   21.9820 C   0  0  0  0  0  2  0  0  0  0  0  0
  -19.2380  -28.6940   23.1550 C   0  0  0  0  0  0  0  0  0  0  0  0
  -18.9890  -29.9410   23.7700 C   0  0  0  0  0  3  0  0  0  0  0  0
  -17.6740  -30.4190   23.9210 C   0  0  0  0  0  3  0  0  0  0  0  0
  -16.5890  -29.6480   23.4690 C   0  0  0  0  0  3  0  0  0  0  0  0
  -16.8220  -28.4040   22.8560 C   0  0  0  0  0  3  0  0  0  0  0  0
  -25.8620  -32.4820   23.8830 C   0  0  0  0  0  3  0  0  0  0  0  0
  -26.3310  -31.7290   25.1880 C   0  0  1  0  0  0  0  0  0  0  0  0
  -25.1950  -31.4870   26.2090 C   0  0  0  0  0  1  0  0  0  0  0  0
  -26.9480  -30.3560   24.8350 C   0  0  0  0  0  1  0  0  0  0  0  0
  -27.4420  -32.5440   25.8910 C   0  0  0  0  0  1  0  0  0  0  0  0
  -25.5230  -33.8800   24.1850 N   0  0  0  0  0  0  0  0  0  0  0  0
  -25.8700  -34.9300   23.4280 C   0  0  0  0  0  0  0  0  0  0  0  0
  -26.5760  -34.8240   22.4220 O   0  0  0  0  0  0  0  0  0  0  0  0
  -24.8990  -34.0350   24.9640 H   0  0  0  0  0  0  0  0  0  0  0  0
  -24.1380  -36.7010   22.9910 C   0  0  0  0  0  1  0  0  0  0  0  0
  -25.3500  -36.3170   23.8540 C   0  0  0  0  0  3  0  0  0  0  0  0
  -27.4370  -37.2380   24.7650 C   0  0  0  0  0  1  0  0  0  0  0  0
  -26.3760  -37.3790   23.7710 N   0  0  0  0  0  0  0  0  0  0  0  0
  -25.9540  -38.2970   23.8860 H   0  0  0  0  0  0  0  0  0  0  0  0
  1  4  1  0
  2  1  1  0
  2  9  1  0
  2  5  1  0
  4  5  1  0
  5  3  1  0
  7  8  1  0
  8 18  1  0
  8  6  1  0
  9  7  1  0
  9  6  1  0
 10 18  1  0
 11 16  1  0
 12 13  1  0
 12 11  1  0
 14 13  1  0
 14 23  1  0
 14 15  1  0
 16 10  1  0
 16 15  1  0
 17 10  2  0
 18 19  1  0
 20 21  2  0
 21 40  1  0
 22 21  1  0
 22 25  1  0
 23 24  1  0
 23 20  1  0
 24 22  2  0
 25 26  1  0
 26 27  2  0
 28 31  1  0
 28 27  1  0
 29 28  2  0
 30 29  1  0
 30 25  2  0
 31 32  1  0
 32 33  1  0
 33 34  2  0
 35 34  1  0
 35 39  1  0
 36 35  2  0
 37 32  2  0
 37 36  1  0
 38 37  1  0
 40 41  1  0
 41 44  1  0
 41 43  1  0
 42 40  2  0
 45 46  1  0
 45 20  1  0
 47 45  1  0
 48  4  1  0
 48 49  1  0
 50 52  1  0
 50 49  1  0
 51 62  2  0
 52 57  1  0
 53 61  1  0
 53 63  1  0
 54 60  1  0
 54 56  1  0
 55 61  1  0
 56 57  2  0
 56 55  1  0
 58 52  2  0
 59 58  1  0
 59 54  2  0
 60 53  1  0
 61 51  1  0
 63 65  2  0
 64 63  1  0
 66 64  1  0
 67 76  2  0
 67 72  1  0
 68 64  1  0
 68 72  1  0
 69 68  1  0
 70 71  1  0
 70 69  1  0
 71 67  1  0
 72 73  2  0
 73 74  1  0
 75 74  2  0
 76 75  1  0
 77 51  1  0
 77 82  1  0
 77 78  1  0
 78 81  1  1
 78 79  1  0
 80 78  1  0
 82 85  1  0
 83 87  1  0
 83 82  1  0
 84 83  2  0
 87 86  1  0
 89 87  1  0
 89 90  1  0
 89 88  1  0
M  ISO  4  10 100  18 100  49 101  50 101
M  END
>  <TORSDO>  (72) 
F 19

>  <SCORE>  (72) 
-13.639

>  <name>  (72) 
71

>  <ligand_id>  (72) 
71

>  <original_smiles>  (72) 
[H]c1c([H])c([H])c2c(c1[H])C([H])([H])C([H])([H])C([H])([H])C2([H])N([H])C(=O)C1([H])N(C(=O)C([H])(N([H])C(=O)C([H])(N([H])C([H])([H])[H])C([H])([H])[H])C(C([H])([H])[H])(C([H])([H])[H])C([H])([H])[H])C([H])([H])c2c([H])c(OC([H])([H])C([H])([H])n3c([H])c(N4C([H])([H])C([H])(N([H])C(=O)N5C([H])([H])C([H])([H])C([H])([H])C([H])(n6nc(-c7c([H])c([H])c(Oc8c([H])c([H])c(F)c([H])c8F)c([H])c7[H])c(C(=O)N([H])[H])c6N([H])[H])C5([H])[H])C4([H])[H])n3C([H])([H])[H])c([H])c([H])c2C1([H])[H]

>  <smiles>  (72) 
[H]c1c([H])c([H])c2c(c1[H])C([H])([H])C([H])([H])C([H])([H])C2([H])N([H])C(=O)C1([H])N(C(=O)C([H])(N([H])C(=O)C([H])(N([H])C([H])([H])[H])C([H])([H])[H])C(C([H])([H])[H])(C([H])([H])[H])C([H])([H])[H])C([H])([H])c2c([H])c(OC([H])([H])C([H])([H])n3c([H])c(N4C([H])([H])C([H])(N([H])C(=O)N5C([H])([H])C([H])([H])C([H])([H])C([H])(n6nc(-c7c([H])c([H])c(Oc8c([H])c([H])c(F)c([H])c8F)c([H])c7[H])c(C(=O)N([H])[H])c6N([H])[H])C5([H])[H])C4([H])[H])n3C([H])([H])[H])c([H])c([H])c2C1([H])[H]

$$$$
72:0:0
     RDKit          3D

 98107  0  0  1  0  0  0  0  0999 V2000
  -28.9940  -20.8410   18.9200 C   0  0  0  0  0  2  0  0  0  0  0  0
  -28.3650  -20.9700   21.3720 C   0  0  0  0  0  2  0  0  0  0  0  0
  -29.6540  -22.2350   19.0870 C   0  0  0  0  0  2  0  0  0  0  0  0
  -29.0520  -22.3530   21.4320 C   0  0  0  0  0  2  0  0  0  0  0  0
  -28.8410  -20.0290   20.2320 C   0  0  0  0  0  3  0  0  0  0  0  0
  -28.9900  -23.0680   20.1280 N   0  0  1  0  0  4  0  0  0  0  0  0
  -28.0160  -23.1220   19.8630 H   0  0  0  0  0  0  0  0  0  0  0  0
  -29.9390  -17.8880   19.7810 C   0  0  0  0  0  2  0  0  0  0  0  0
  -30.1500  -18.7120   21.8960 C   0  0  0  0  0  2  0  0  0  0  0  0
  -30.9720  -16.9530   20.4440 C   0  0  0  0  0  3  0  0  0  0  0  0
  -31.1850  -17.5720   21.8420 C   0  0  0  0  0  3  0  0  0  0  0  0
  -30.0150  -19.1660   20.5090 N   0  0  0  0  0  0  0  0  0  0  0  0
  -31.1040  -14.5230   19.7800 C   0  0  0  0  0  0  0  0  0  0  0  0
  -30.6670  -12.2920   18.8060 C   0  0  0  0  0  2  0  0  0  0  0  0
  -29.6700  -12.4250   17.6360 C   0  0  0  0  0  2  0  0  0  0  0  0
  -28.2130  -12.3880   18.1410 C   0  0  0  0  0  2  0  0  0  0  0  0
  -27.9720  -13.3490   19.3360 C   0  0  0  0  0  3  0  0  0  0  0  0
  -29.0700  -13.1680   20.4090 C   0  0  0  0  0  2  0  0  0  0  0  0
  -30.3800  -13.3720   19.7640 N   0  0  0  0  0  0  0  0  0  0  0  0
  -32.1710  -14.6600   19.1770 O   0  0  0  0  0  0  0  0  0  0  0  0
  -30.5220  -15.5460   20.4300 N   0  0  0  0  0  0  0  0  0  0  0  0
  -29.6120  -15.3270   20.8000 H   0  0  0  0  0  0  0  0  0  0  0  0
  -25.6890  -14.1440   20.2220 C   0  0  0  0  0  0  0  0  0  0  0  0
  -24.5820  -13.4580   20.6440 C   0  0  0  0  0  0  0  0  0  0  0  0
  -24.9130  -12.0730   20.5400 C   0  0  0  0  0  0  0  0  0  0  0  0
  -26.6320  -13.1810   19.8950 N   0  0  0  0  0  0  0  0  0  0  0  0
  -26.1710  -11.9300   20.1430 N   0  0  0  0  0  0  0  0  0  0  0  0
  -24.0890  -10.8750   20.7430 C   0  0  0  0  0  0  0  0  0  0  0  0
  -24.4850   -9.8480   21.6300 C   0  0  0  0  0  3  0  0  0  0  0  0
  -23.6680   -8.7130   21.8230 C   0  0  0  0  0  3  0  0  0  0  0  0
  -22.4410   -8.5980   21.1300 C   0  0  0  0  0  0  0  0  0  0  0  0
  -22.0610   -9.6110   20.2310 C   0  0  0  0  0  3  0  0  0  0  0  0
  -22.8780  -10.7370   20.0360 C   0  0  0  0  0  3  0  0  0  0  0  0
  -21.5940   -7.5200   21.2340 O   0  0  0  0  0  0  0  0  0  0  0  0
  -21.5050   -6.7830   22.3880 C   0  0  0  0  0  0  0  0  0  0  0  0
  -21.1500   -7.3710   23.6220 C   0  0  0  0  0  3  0  0  0  0  0  0
  -21.0050   -6.5640   24.7690 C   0  0  0  0  0  3  0  0  0  0  0  0
  -21.2020   -5.1730   24.6810 C   0  0  0  0  0  0  0  0  0  0  0  0
  -21.5510   -4.5850   23.4510 C   0  0  0  0  0  3  0  0  0  0  0  0
  -21.6980   -5.3890   22.3070 C   0  0  0  0  0  0  0  0  0  0  0  0
  -22.0120   -4.8150   21.1200 F   0  0  0  0  0  0  0  0  0  0  0  0
  -21.0540   -4.3970   25.7810 F   0  0  0  0  0  0  0  0  0  0  0  0
  -23.2540  -14.0480   21.0250 C   0  0  0  0  0  0  0  0  0  0  0  0
  -22.5330  -13.4040   21.9340 N   0  0  0  0  0  0  0  0  0  0  0  0
  -22.8690  -15.1150   20.5480 O   0  0  0  0  0  0  0  0  0  0  0  0
  -22.8600  -12.5390   22.3420 H   0  0  0  0  0  0  0  0  0  0  0  0
  -21.6440  -13.7810   22.2290 H   0  0  0  0  0  0  0  0  0  0  0  0
  -25.9630  -15.4980   20.0710 N   0  0  0  0  0  0  0  0  0  0  0  0
  -25.2480  -16.2020   20.2200 H   0  0  0  0  0  0  0  0  0  0  0  0
  -26.7930  -15.8660   19.6240 H   0  0  0  0  0  0  0  0  0  0  0  0
  -31.3380  -17.1700   24.2990 C   0  0  0  0  0  1  0  0  0  0  0  0
  -31.0590  -16.6090   22.9610 N   0  0  0  0  0  4  0  0  0  0  0  0
  -31.7190  -15.8650   22.8020 H   0  0  0  0  0  0  0  0  0  0  0  0
  -30.1360  -16.2110   22.9700 H   0  0  0  0  0  0  0  0  0  0  0  0
  -29.4890  -24.4900   20.1470 C   0  0  0  0  0  2  0  0  0  0  0  0
  -28.7450  -25.8570   22.2040 C   0  0  0  0  0  1  0  0  0  0  0  0
  -28.4930  -25.5540   20.7130 C   0  0  0  0  0  3  0  0  0  0  0  0
  -28.5960  -26.8280   20.0210 O   0  0  0  0  0  0  0  0  0  0  0  0
  -24.5330  -31.7880   23.1490 C   0  0  0  0  0  0  0  0  0  0  0  0
  -27.4230  -27.5600   19.9880 C   0  0  0  0  0  0  0  0  0  0  0  0
  -23.4160  -30.3600   21.4700 C   0  0  0  0  0  3  0  0  0  0  0  0
  -24.9590  -28.9470   20.0120 C   0  0  0  0  0  0  0  0  0  0  0  0
  -25.9180  -30.8690   21.2870 C   0  0  0  0  0  2  0  0  0  0  0  0
  -26.0860  -29.5180   20.6150 C   0  0  0  0  0  0  0  0  0  0  0  0
  -27.3270  -28.8360   20.5980 C   0  0  0  0  0  3  0  0  0  0  0  0
  -26.2810  -27.0170   19.3600 C   0  0  0  0  0  3  0  0  0  0  0  0
  -25.0510  -27.6970   19.3770 C   0  0  0  0  0  3  0  0  0  0  0  0
  -23.6680  -29.7320   20.0740 C   0  0  0  0  0  2  0  0  0  0  0  0
  -24.6410  -31.0190   22.0280 N   0  0  0  0  0  0  0  0  0  0  0  0
  -23.4370  -31.9830   23.6930 O   0  0  0  0  0  0  0  0  0  0  0  0
  -22.8240  -29.2770   22.4030 C   0  0  0  0  0  0  0  0  0  0  0  0
  -21.5090  -29.0360   22.2870 N   0  0  0  0  0  0  0  0  0  0  0  0
  -23.5460  -28.6580   23.1910 O   0  0  0  0  0  0  0  0  0  0  0  0
  -20.9840  -29.5920   21.6250 H   0  0  0  0  0  0  0  0  0  0  0  0
  -18.2010  -27.6700   22.7800 C   0  0  0  0  0  0  0  0  0  0  0  0
  -20.7480  -28.0380   23.0360 C   0  0  0  0  0  3  0  0  0  0  0  0
  -20.9110  -26.6320   22.4140 C   0  0  0  0  0  2  0  0  0  0  0  0
  -19.8130  -26.2900   21.4020 C   0  0  0  0  0  2  0  0  0  0  0  0
  -18.4330  -26.3520   22.0610 C   0  0  0  0  0  2  0  0  0  0  0  0
  -19.2880  -28.4690   23.2240 C   0  0  0  0  0  0  0  0  0  0  0  0
  -19.0170  -29.7030   23.8540 C   0  0  0  0  0  3  0  0  0  0  0  0
  -17.6920  -30.1390   24.0460 C   0  0  0  0  0  3  0  0  0  0  0  0
  -16.6190  -29.3380   23.6170 C   0  0  0  0  0  3  0  0  0  0  0  0
  -16.8760  -28.1050   22.9900 C   0  0  0  0  0  3  0  0  0  0  0  0
  -25.7760  -32.4800   23.7890 C   0  0  0  0  0  3  0  0  0  0  0  0
  -26.2920  -31.7510   25.0900 C   0  0  1  0  0  0  0  0  0  0  0  0
  -25.1860  -31.5030   26.1420 C   0  0  0  0  0  1  0  0  0  0  0  0
  -26.9280  -30.3870   24.7330 C   0  0  0  0  0  1  0  0  0  0  0  0
  -27.4010  -32.5980   25.7600 C   0  0  0  0  0  1  0  0  0  0  0  0
  -25.4060  -33.8680   24.0850 N   0  0  0  0  0  0  0  0  0  0  0  0
  -25.7180  -34.9200   23.3150 C   0  0  0  0  0  0  0  0  0  0  0  0
  -26.4190  -34.8240   22.3040 O   0  0  0  0  0  0  0  0  0  0  0  0
  -24.7800  -34.0130   24.8640 H   0  0  0  0  0  0  0  0  0  0  0  0
  -23.9260  -36.6310   22.8890 C   0  0  0  0  0  1  0  0  0  0  0  0
  -25.1650  -36.2950   23.7350 C   0  0  0  0  0  3  0  0  0  0  0  0
  -27.2470  -37.2800   24.5870 C   0  0  0  0  0  1  0  0  0  0  0  0
  -26.1540  -37.3880   23.6220 N   0  0  0  0  0  0  0  0  0  0  0  0
  -25.7080  -38.2920   23.7490 H   0  0  0  0  0  0  0  0  0  0  0  0
  1  3  1  0
  2  4  1  0
  3  6  1  0
  5  1  1  0
  5 12  1  0
  5  2  1  0
  6 55  1  0
  6  4  1  0
  6  7  1  6
  8 10  1  0
 10 21  1  0
 10 11  1  0
 11  9  1  0
 11 52  1  0
 12  8  1  0
 12  9  1  0
 13 21  1  0
 14 19  1  0
 15 16  1  0
 15 14  1  0
 17 16  1  0
 17 26  1  0
 17 18  1  0
 19 13  1  0
 19 18  1  0
 20 13  2  0
 21 22  1  0
 23 24  2  0
 24 43  1  0
 25 24  1  0
 25 28  1  0
 26 27  1  0
 26 23  1  0
 27 25  2  0
 28 29  1  0
 29 30  2  0
 31 34  1  0
 31 30  1  0
 32 31  2  0
 33 32  1  0
 33 28  2  0
 34 35  1  0
 35 36  1  0
 36 37  2  0
 38 37  1  0
 38 42  1  0
 39 38  2  0
 40 35  2  0
 40 39  1  0
 41 40  1  0
 43 44  1  0
 44 47  1  0
 44 46  1  0
 45 43  2  0
 48 49  1  0
 48 23  1  0
 50 48  1  0
 52 54  1  0
 52 51  1  0
 53 52  1  0
 55 57  1  0
 57 56  1  0
 58 57  1  0
 59 70  2  0
 60 58  1  0
 60 65  1  0
 61 69  1  0
 61 71  1  0
 62 68  1  0
 62 64  1  0
 63 69  1  0
 64 63  1  0
 65 64  2  0
 66 67  1  0
 66 60  2  0
 67 62  2  0
 68 61  1  0
 69 59  1  0
 71 73  2  0
 72 71  1  0
 74 72  1  0
 75 84  2  0
 75 80  1  0
 76 72  1  0
 76 80  1  0
 77 76  1  0
 78 79  1  0
 78 77  1  0
 79 75  1  0
 80 81  2  0
 81 82  1  0
 83 82  2  0
 84 83  1  0
 85 59  1  0
 85 90  1  0
 85 86  1  0
 86 89  1  1
 86 87  1  0
 88 86  1  0
 90 93  1  0
 91 95  1  0
 91 90  1  0
 92 91  2  0
 95 94  1  0
 97 95  1  0
 97 98  1  0
 97 96  1  0
M  ISO  4  13 100  21 100  57 101  58 101
M  END
>  <TORSDO>  (73) 
F 20

>  <SCORE>  (73) 
-10.359

>  <name>  (73) 
72

>  <ligand_id>  (73) 
72

>  <original_smiles>  (73) 
[H]c1c([H])c([H])c2c(c1[H])C([H])([H])C([H])([H])C([H])([H])C2([H])N([H])C(=O)C1([H])N(C(=O)C([H])(N([H])C(=O)C([H])(N([H])C([H])([H])[H])C([H])([H])[H])C(C([H])([H])[H])(C([H])([H])[H])C([H])([H])[H])C([H])([H])c2c([H])c(OC([H])(C([H])([H])[H])C([H])([H])[N+]3([H])C([H])([H])C([H])([H])C([H])(N4C([H])([H])C([H])(N([H])C(=O)N5C([H])([H])C([H])([H])C([H])([H])C([H])(n6nc(-c7c([H])c([H])c(Oc8c([H])c([H])c(F)c([H])c8F)c([H])c7[H])c(C(=O)N([H])[H])c6N([H])[H])C5([H])[H])C([H])([N+]([H])([H])C([H])([H])[H])C4([H])[H])C([H])([H])C3([H])[H])c([H])c([H])c2C1([H])[H]

>  <smiles>  (73) 
[H]c1c([H])c([H])c2c(c1[H])C([H])([H])C([H])([H])C([H])([H])C2([H])N([H])C(=O)C1([H])N(C(=O)C([H])(N([H])C(=O)C([H])(N([H])C([H])([H])[H])C([H])([H])[H])C(C([H])([H])[H])(C([H])([H])[H])C([H])([H])[H])C([H])([H])c2c([H])c(OC([H])(C([H])([H])[H])C([H])([H])[N+]3([H])C([H])([H])C([H])([H])C([H])(N4C([H])([H])C([H])(N([H])C(=O)N5C([H])([H])C([H])([H])C([H])([H])C([H])(n6nc(-c7c([H])c([H])c(Oc8c([H])c([H])c(F)c([H])c8F)c([H])c7[H])c(C(=O)N([H])[H])c6N([H])[H])C5([H])[H])C([H])([N+]([H])([H])C([H])([H])[H])C4([H])[H])C([H])([H])C3([H])[H])c([H])c([H])c2C1([H])[H]

$$$$
73:0:0
     RDKit          3D

 94103  0  0  1  0  0  0  0  0999 V2000
  -29.7170  -22.2690   20.9220 N   0  0  0  0  0  4  0  0  0  0  0  0
  -29.9210  -22.8380   21.7370 H   0  0  0  0  0  0  0  0  0  0  0  0
  -28.7630  -21.9640   21.0050 H   0  0  0  0  0  0  0  0  0  0  0  0
  -30.1930  -19.9470   19.9950 C   0  0  0  0  0  2  0  0  0  0  0  0
  -30.5490  -20.1460   22.0300 C   0  0  0  0  0  2  0  0  0  0  0  0
  -30.6690  -21.1320   20.8540 C   0  0  0  0  0  3  0  0  0  0  0  0
  -30.7670  -19.0990   21.0370 N   0  0  0  0  0  0  0  0  0  0  0  0
  -30.8220  -14.4790   20.1380 C   0  0  0  0  0  0  0  0  0  0  0  0
  -30.4140  -12.3740   18.9240 C   0  0  0  0  0  2  0  0  0  0  0  0
  -29.4200  -12.6250   17.7730 C   0  0  0  0  0  2  0  0  0  0  0  0
  -27.9660  -12.4910   18.2680 C   0  0  0  0  0  2  0  0  0  0  0  0
  -27.7010  -13.2930   19.5710 C   0  0  0  0  0  3  0  0  0  0  0  0
  -28.8040  -13.0250   20.6170 C   0  0  0  0  0  2  0  0  0  0  0  0
  -30.1060  -13.3300   19.9990 N   0  0  0  0  0  0  0  0  0  0  0  0
  -31.8870  -14.6690   19.5390 O   0  0  0  0  0  0  0  0  0  0  0  0
  -30.5800  -17.1030   22.5010 C   0  0  0  0  0  2  0  0  0  0  0  0
  -30.2160  -15.6450   22.2120 C   0  0  0  0  0  2  0  0  0  0  0  0
  -30.2300  -16.8520   20.1550 C   0  0  0  0  0  2  0  0  0  0  0  0
  -30.0350  -17.8580   21.2940 C   0  0  0  0  0  3  0  0  0  0  0  0
  -30.1890  -15.5050   20.7500 N   0  0  0  0  0  0  0  0  0  0  0  0
  -25.3410  -13.8970   20.4030 C   0  0  0  0  0  0  0  0  0  0  0  0
  -24.2880  -13.1220   20.8070 C   0  0  0  0  0  0  0  0  0  0  0  0
  -24.7420  -11.7690   20.7280 C   0  0  0  0  0  0  0  0  0  0  0  0
  -26.3710  -13.0170   20.1070 N   0  0  0  0  0  0  0  0  0  0  0  0
  -26.0140  -11.7320   20.3560 N   0  0  0  0  0  0  0  0  0  0  0  0
  -24.0200  -10.5060   20.9280 C   0  0  0  0  0  0  0  0  0  0  0  0
  -24.4480   -9.5560   21.8810 C   0  0  0  0  0  3  0  0  0  0  0  0
  -23.7280   -8.3560   22.0700 C   0  0  0  0  0  3  0  0  0  0  0  0
  -22.5670   -8.0980   21.3030 C   0  0  0  0  0  0  0  0  0  0  0  0
  -22.1590   -9.0350   20.3380 C   0  0  0  0  0  3  0  0  0  0  0  0
  -22.8790  -10.2280   20.1490 C   0  0  0  0  0  3  0  0  0  0  0  0
  -21.8200   -6.9490   21.3970 O   0  0  0  0  0  0  0  0  0  0  0  0
  -21.7090   -6.2570   22.5770 C   0  0  0  0  0  0  0  0  0  0  0  0
  -21.1920   -6.8580   23.7460 C   0  0  0  0  0  3  0  0  0  0  0  0
  -21.0280   -6.0920   24.9170 C   0  0  0  0  0  3  0  0  0  0  0  0
  -21.3730   -4.7270   24.9220 C   0  0  0  0  0  0  0  0  0  0  0  0
  -21.8830   -4.1260   23.7570 C   0  0  0  0  0  3  0  0  0  0  0  0
  -22.0470   -4.8890   22.5870 C   0  0  0  0  0  0  0  0  0  0  0  0
  -22.5190   -4.3000   21.4620 F   0  0  0  0  0  0  0  0  0  0  0  0
  -21.2100   -3.9900   26.0440 F   0  0  0  0  0  0  0  0  0  0  0  0
  -22.9080  -13.5970   21.1580 C   0  0  0  0  0  0  0  0  0  0  0  0
  -22.2390  -12.9110   22.0790 N   0  0  0  0  0  0  0  0  0  0  0  0
  -22.4320  -14.6120   20.6500 O   0  0  0  0  0  0  0  0  0  0  0  0
  -22.6380  -12.0920   22.5110 H   0  0  0  0  0  0  0  0  0  0  0  0
  -21.3140  -13.2110   22.3550 H   0  0  0  0  0  0  0  0  0  0  0  0
  -25.5050  -15.2700   20.2450 N   0  0  0  0  0  0  0  0  0  0  0  0
  -24.7530  -15.9310   20.4080 H   0  0  0  0  0  0  0  0  0  0  0  0
  -26.3480  -15.7110   19.9010 H   0  0  0  0  0  0  0  0  0  0  0  0
  -29.8520  -23.2750   19.8450 C   0  0  0  0  0  2  0  0  0  0  0  0
  -29.6610  -24.7130   20.3970 C   0  0  0  0  0  3  0  0  0  0  0  0
  -29.6970  -24.6840   21.8240 O   0  0  0  0  0  0  0  0  0  0  0  0
  -29.5720  -25.5830   22.1200 H   0  0  0  0  0  0  0  0  0  0  0  0
  -28.3470  -25.3870   19.9510 C   0  0  0  0  0  2  0  0  0  0  0  0
  -28.4160  -26.8010   20.1820 O   0  0  0  0  0  0  0  0  0  0  0  0
  -24.5720  -31.9150   23.2700 C   0  0  0  0  0  0  0  0  0  0  0  0
  -27.2320  -27.5090   20.1570 C   0  0  0  0  0  0  0  0  0  0  0  0
  -23.3720  -30.5270   21.6130 C   0  0  0  0  0  3  0  0  0  0  0  0
  -24.8310  -29.0090   20.1780 C   0  0  0  0  0  0  0  0  0  0  0  0
  -25.8970  -30.8950   21.4230 C   0  0  0  0  0  2  0  0  0  0  0  0
  -25.9870  -29.5300   20.7720 C   0  0  0  0  0  0  0  0  0  0  0  0
  -27.1890  -28.7880   20.7580 C   0  0  0  0  0  3  0  0  0  0  0  0
  -26.0570  -27.0050   19.5520 C   0  0  0  0  0  3  0  0  0  0  0  0
  -24.8620  -27.7440   19.5650 C   0  0  0  0  0  3  0  0  0  0  0  0
  -23.5850  -29.8620   20.2270 C   0  0  0  0  0  2  0  0  0  0  0  0
  -24.6310  -31.1260   22.1600 N   0  0  0  0  0  0  0  0  0  0  0  0
  -23.4900  -32.1800   23.8110 O   0  0  0  0  0  0  0  0  0  0  0  0
  -22.7240  -29.4940   22.5620 C   0  0  0  0  0  0  0  0  0  0  0  0
  -21.4010  -29.3040   22.4270 N   0  0  0  0  0  0  0  0  0  0  0  0
  -23.4070  -28.8650   23.3750 O   0  0  0  0  0  0  0  0  0  0  0  0
  -20.9110  -29.8640   21.7420 H   0  0  0  0  0  0  0  0  0  0  0  0
  -18.0260  -28.1160   22.9160 C   0  0  0  0  0  0  0  0  0  0  0  0
  -20.5860  -28.3580   23.1850 C   0  0  0  0  0  3  0  0  0  0  0  0
  -20.6810  -26.9360   22.5860 C   0  0  0  0  0  2  0  0  0  0  0  0
  -19.5740  -26.6330   21.5700 C   0  0  0  0  0  2  0  0  0  0  0  0
  -18.1940  -26.7750   22.2210 C   0  0  0  0  0  2  0  0  0  0  0  0
  -19.1490  -28.8650   23.3550 C   0  0  0  0  0  0  0  0  0  0  0  0
  -18.9380  -30.1200   23.9670 C   0  0  0  0  0  3  0  0  0  0  0  0
  -17.6370  -30.6260   24.1430 C   0  0  0  0  0  3  0  0  0  0  0  0
  -16.5280  -29.8730   23.7220 C   0  0  0  0  0  3  0  0  0  0  0  0
  -16.7230  -28.6190   23.1130 C   0  0  0  0  0  3  0  0  0  0  0  0
  -25.8570  -32.5430   23.8980 C   0  0  0  0  0  3  0  0  0  0  0  0
  -25.5530  -33.9420   24.2220 N   0  0  0  0  0  0  0  0  0  0  0  0
  -25.9090  -34.9910   23.4680 C   0  0  0  0  0  0  0  0  0  0  0  0
  -26.5990  -34.8810   22.4510 O   0  0  0  0  0  0  0  0  0  0  0  0
  -24.9450  -34.1020   25.0110 H   0  0  0  0  0  0  0  0  0  0  0  0
  -24.2130  -36.8020   23.0590 C   0  0  0  0  0  1  0  0  0  0  0  0
  -25.4210  -36.3820   23.9120 C   0  0  0  0  0  3  0  0  0  0  0  0
  -27.5330  -37.2430   24.8220 C   0  0  0  0  0  1  0  0  0  0  0  0
  -26.4680  -37.4240   23.8400 N   0  0  0  0  0  0  0  0  0  0  0  0
  -26.0670  -38.3470   23.9740 H   0  0  0  0  0  0  0  0  0  0  0  0
  -26.3640  -31.7700   25.1780 C   0  0  1  0  0  0  0  0  0  0  0  0
  -25.2620  -31.5340   26.2370 C   0  0  0  0  0  1  0  0  0  0  0  0
  -26.9500  -30.3930   24.7860 C   0  0  0  0  0  1  0  0  0  0  0  0
  -27.5080  -32.5650   25.8520 C   0  0  0  0  0  1  0  0  0  0  0  0
  1  3  1  0
  1  2  1  0
  4  6  1  0
  6  1  1  0
  6  5  1  0
  7  4  1  0
  7 19  1  0
  7  5  1  0
  8 20  1  0
  9 14  1  0
 10 11  1  0
 10  9  1  0
 12 11  1  0
 12 24  1  0
 12 13  1  0
 14  8  1  0
 14 13  1  0
 15  8  2  0
 17 16  1  0
 18 20  1  0
 19 18  1  0
 19 16  1  0
 20 17  1  0
 21 22  2  0
 22 41  1  0
 23 22  1  0
 23 26  1  0
 24 25  1  0
 24 21  1  0
 25 23  2  0
 26 27  1  0
 27 28  2  0
 29 32  1  0
 29 28  1  0
 30 29  2  0
 31 30  1  0
 31 26  2  0
 32 33  1  0
 33 38  2  0
 33 34  1  0
 34 35  2  0
 35 36  1  0
 36 40  1  0
 37 36  2  0
 38 37  1  0
 39 38  1  0
 41 42  1  0
 42 45  1  0
 42 44  1  0
 43 41  2  0
 46 21  1  0
 46 47  1  0
 48 46  1  0
 49  1  1  0
 50 49  1  0
 50 51  1  0
 51 52  1  0
 53 54  1  0
 53 50  1  0
 55 66  2  0
 56 54  1  0
 56 61  1  0
 57 65  1  0
 57 67  1  0
 58 64  1  0
 58 60  1  0
 59 65  1  0
 60 59  1  0
 61 60  2  0
 62 63  1  0
 62 56  2  0
 63 58  2  0
 64 57  1  0
 65 55  1  0
 67 69  2  0
 68 67  1  0
 70 68  1  0
 71 80  2  0
 71 76  1  0
 72 68  1  0
 72 76  1  0
 73 72  1  0
 74 75  1  0
 74 73  1  0
 75 71  1  0
 76 77  2  0
 77 78  1  0
 79 78  2  0
 80 79  1  0
 81 55  1  0
 81 82  1  0
 81 91  1  0
 82 85  1  0
 83 87  1  0
 83 82  1  0
 84 83  2  0
 87 86  1  0
 89 87  1  0
 89 90  1  0
 89 88  1  0
 91 94  1  1
 91 92  1  0
 93 91  1  0
M  ISO  4   8 100  20 100  53 101  54 101
M  END
>  <TORSDO>  (74) 
F 21

>  <SCORE>  (74) 
-12.976

>  <name>  (74) 
73

>  <ligand_id>  (74) 
73

>  <original_smiles>  (74) 
[H]OC([H])(C([H])([H])Oc1c([H])c([H])c2c(c1[H])C([H])([H])N(C(=O)C([H])(N([H])C(=O)C([H])(N([H])C([H])([H])[H])C([H])([H])[H])C(C([H])([H])[H])(C([H])([H])[H])C([H])([H])[H])C([H])(C(=O)N([H])C1([H])c3c([H])c([H])c([H])c([H])c3C([H])([H])C([H])([H])C1([H])[H])C2([H])[H])C([H])([H])[N+]([H])([H])C1([H])C([H])([H])N(C2([H])C([H])([H])N(C(=O)N3C([H])([H])C([H])([H])C([H])([H])C([H])(n4nc(-c5c([H])c([H])c(Oc6c([H])c([H])c(F)c([H])c6F)c([H])c5[H])c(C(=O)N([H])[H])c4N([H])[H])C3([H])[H])C([H])([H])C2([H])[H])C1([H])[H]

>  <smiles>  (74) 
[H]OC([H])(C([H])([H])Oc1c([H])c([H])c2c(c1[H])C([H])([H])N(C(=O)C([H])(N([H])C(=O)C([H])(N([H])C([H])([H])[H])C([H])([H])[H])C(C([H])([H])[H])(C([H])([H])[H])C([H])([H])[H])C([H])(C(=O)N([H])C1([H])c3c([H])c([H])c([H])c([H])c3C([H])([H])C([H])([H])C1([H])[H])C2([H])[H])C([H])([H])[N+]([H])([H])C1([H])C([H])([H])N(C2([H])C([H])([H])N(C(=O)N3C([H])([H])C([H])([H])C([H])([H])C([H])(n4nc(-c5c([H])c([H])c(Oc6c([H])c([H])c(F)c([H])c6F)c([H])c5[H])c(C(=O)N([H])[H])c4N([H])[H])C3([H])[H])C([H])([H])C2([H])[H])C1([H])[H]

$$$$
74:0:0
     RDKit          3D

 91100  0  0  1  0  0  0  0  0999 V2000
  -27.8040  -19.5900   21.0130 C   0  0  0  0  0  3  0  0  0  0  0  0
  -27.4470  -20.9350   20.7940 C   0  0  0  0  0  3  0  0  0  0  0  0
  -29.1320  -19.1960   20.7450 C   0  0  0  0  0  0  0  0  0  0  0  0
  -28.4310  -21.8210   20.3210 C   0  0  0  0  0  0  0  0  0  0  0  0
  -30.0340  -20.0890   20.2410 N   0  0  0  0  0  0  0  0  0  0  0  0
  -29.6930  -21.3830   20.0390 N   0  0  0  0  0  0  0  0  0  0  0  0
  -31.0370  -14.5690   19.8910 C   0  0  0  0  0  0  0  0  0  0  0  0
  -30.6530  -12.3900   18.7820 C   0  0  0  0  0  2  0  0  0  0  0  0
  -29.6260  -12.5530   17.6420 C   0  0  0  0  0  2  0  0  0  0  0  0
  -28.1900  -12.4070   18.1800 C   0  0  0  0  0  2  0  0  0  0  0  0
  -27.9340  -13.2770   19.4390 C   0  0  0  0  0  3  0  0  0  0  0  0
  -29.0650  -13.1000   20.4770 C   0  0  0  0  0  2  0  0  0  0  0  0
  -30.3450  -13.3970   19.8120 N   0  0  0  0  0  0  0  0  0  0  0  0
  -32.1000  -14.7530   19.2880 O   0  0  0  0  0  0  0  0  0  0  0  0
  -30.8240  -17.5840   21.9320 C   0  0  0  0  0  2  0  0  0  0  0  0
  -31.1210  -16.0750   21.8260 C   0  0  0  0  0  2  0  0  0  0  0  0
  -29.8030  -16.7270   19.9570 C   0  0  0  0  0  2  0  0  0  0  0  0
  -29.5730  -17.7520   21.0830 C   0  0  0  0  0  3  0  0  0  0  0  0
  -30.4640  -15.5710   20.6080 N   0  0  0  0  0  0  0  0  0  0  0  0
  -25.6200  -13.9040   20.3710 C   0  0  0  0  0  0  0  0  0  0  0  0
  -24.5650  -13.1390   20.7910 C   0  0  0  0  0  0  0  0  0  0  0  0
  -24.9870  -11.7800   20.6610 C   0  0  0  0  0  0  0  0  0  0  0  0
  -26.6190  -13.0120   20.0150 N   0  0  0  0  0  0  0  0  0  0  0  0
  -26.2460  -11.7270   20.2460 N   0  0  0  0  0  0  0  0  0  0  0  0
  -24.2460  -10.5260   20.8510 C   0  0  0  0  0  0  0  0  0  0  0  0
  -24.6520   -9.5660   21.8030 C   0  0  0  0  0  3  0  0  0  0  0  0
  -23.9130   -8.3770   21.9810 C   0  0  0  0  0  3  0  0  0  0  0  0
  -22.7520   -8.1400   21.2060 C   0  0  0  0  0  0  0  0  0  0  0  0
  -22.3660   -9.0890   20.2430 C   0  0  0  0  0  3  0  0  0  0  0  0
  -23.1060  -10.2700   20.0640 C   0  0  0  0  0  3  0  0  0  0  0  0
  -21.9870   -7.0030   21.2910 O   0  0  0  0  0  0  0  0  0  0  0  0
  -21.8060   -6.3460   22.4810 C   0  0  0  0  0  0  0  0  0  0  0  0
  -21.2360   -6.9840   23.6060 C   0  0  0  0  0  3  0  0  0  0  0  0
  -21.0030   -6.2520   24.7870 C   0  0  0  0  0  3  0  0  0  0  0  0
  -21.3290   -4.8830   24.8430 C   0  0  0  0  0  0  0  0  0  0  0  0
  -21.8910   -4.2450   23.7240 C   0  0  0  0  0  3  0  0  0  0  0  0
  -22.1250   -4.9750   22.5440 C   0  0  0  0  0  0  0  0  0  0  0  0
  -22.6470   -4.3510   21.4610 F   0  0  0  0  0  0  0  0  0  0  0  0
  -21.0990   -4.1770   25.9760 F   0  0  0  0  0  0  0  0  0  0  0  0
  -23.2070  -13.6340   21.1990 C   0  0  0  0  0  0  0  0  0  0  0  0
  -22.5390  -12.9170   22.0960 N   0  0  0  0  0  0  0  0  0  0  0  0
  -22.7520  -14.6890   20.7580 O   0  0  0  0  0  0  0  0  0  0  0  0
  -22.9210  -12.0620   22.4710 H   0  0  0  0  0  0  0  0  0  0  0  0
  -21.6310  -13.2290   22.4120 H   0  0  0  0  0  0  0  0  0  0  0  0
  -25.8050  -15.2780   20.2420 N   0  0  0  0  0  0  0  0  0  0  0  0
  -25.0620  -15.9410   20.4330 H   0  0  0  0  0  0  0  0  0  0  0  0
  -26.6360  -15.7100   19.8620 H   0  0  0  0  0  0  0  0  0  0  0  0
  -28.0800  -23.1560   20.1690 O   0  0  0  0  0  0  0  0  0  0  0  0
  -29.0360  -24.1830   19.8610 C   0  0  0  0  0  2  0  0  0  0  0  0
  -28.5740  -25.5170   20.5240 C   0  0  0  0  0  2  0  0  0  0  0  0
  -28.6300  -26.7070   19.7000 O   0  0  0  0  0  0  0  0  0  0  0  0
  -24.6820  -31.5840   23.1050 C   0  0  0  0  0  0  0  0  0  0  0  0
  -27.4690  -27.4550   19.7260 C   0  0  0  0  0  0  0  0  0  0  0  0
  -23.5210  -30.2490   21.3770 C   0  0  0  0  0  3  0  0  0  0  0  0
  -25.0260  -28.8750   19.8380 C   0  0  0  0  0  0  0  0  0  0  0  0
  -26.0310  -30.7210   21.1910 C   0  0  0  0  0  2  0  0  0  0  0  0
  -26.1670  -29.4010   20.4570 C   0  0  0  0  0  0  0  0  0  0  0  0
  -27.3960  -28.6980   20.3990 C   0  0  0  0  0  3  0  0  0  0  0  0
  -26.3160  -26.9520   19.0910 C   0  0  0  0  0  3  0  0  0  0  0  0
  -25.0950  -27.6530   19.1490 C   0  0  0  0  0  3  0  0  0  0  0  0
  -23.7470  -29.6750   19.9510 C   0  0  0  0  0  2  0  0  0  0  0  0
  -24.7620  -30.8630   21.9500 N   0  0  0  0  0  0  0  0  0  0  0  0
  -23.5950  -31.7730   23.6680 O   0  0  0  0  0  0  0  0  0  0  0  0
  -22.9180  -29.1400   22.2680 C   0  0  0  0  0  0  0  0  0  0  0  0
  -21.5980  -28.9250   22.1480 N   0  0  0  0  0  0  0  0  0  0  0  0
  -23.6350  -28.4770   23.0230 O   0  0  0  0  0  0  0  0  0  0  0  0
  -21.0790  -29.5130   21.5100 H   0  0  0  0  0  0  0  0  0  0  0  0
  -18.2670  -27.6050   22.6240 C   0  0  0  0  0  0  0  0  0  0  0  0
  -20.8240  -27.9080   22.8600 C   0  0  0  0  0  3  0  0  0  0  0  0
  -20.9480  -26.5300   22.1690 C   0  0  0  0  0  2  0  0  0  0  0  0
  -19.8300  -26.2610   21.1570 C   0  0  0  0  0  2  0  0  0  0  0  0
  -18.4600  -26.3200   21.8390 C   0  0  0  0  0  2  0  0  0  0  0  0
  -19.3760  -28.3610   23.0890 C   0  0  0  0  0  0  0  0  0  0  0  0
  -19.1390  -29.5680   23.7810 C   0  0  0  0  0  3  0  0  0  0  0  0
  -17.8260  -30.0190   24.0150 C   0  0  0  0  0  3  0  0  0  0  0  0
  -16.7320  -29.2590   23.5640 C   0  0  0  0  0  3  0  0  0  0  0  0
  -16.9540  -28.0540   22.8740 C   0  0  0  0  0  3  0  0  0  0  0  0
  -25.9470  -32.2230   23.7610 C   0  0  0  0  0  3  0  0  0  0  0  0
  -26.4990  -31.3940   24.9840 C   0  0  1  0  0  0  0  0  0  0  0  0
  -25.4230  -31.0510   26.0400 C   0  0  0  0  0  1  0  0  0  0  0  0
  -27.1270  -30.0660   24.5020 C   0  0  0  0  0  1  0  0  0  0  0  0
  -27.6280  -32.1870   25.6850 C   0  0  0  0  0  1  0  0  0  0  0  0
  -25.5880  -33.5860   24.1760 N   0  0  0  0  0  0  0  0  0  0  0  0
  -25.8770  -34.6940   23.4790 C   0  0  0  0  0  0  0  0  0  0  0  0
  -26.5460  -34.6770   22.4410 O   0  0  0  0  0  0  0  0  0  0  0  0
  -24.9920  -33.6700   24.9850 H   0  0  0  0  0  0  0  0  0  0  0  0
  -24.0790  -36.4350   23.2380 C   0  0  0  0  0  1  0  0  0  0  0  0
  -25.3400  -36.0330   24.0190 C   0  0  0  0  0  3  0  0  0  0  0  0
  -27.4420  -36.9480   24.8950 C   0  0  0  0  0  1  0  0  0  0  0  0
  -26.3300  -37.1300   23.9650 N   0  0  0  0  0  0  0  0  0  0  0  0
  -25.8900  -38.0220   24.1710 H   0  0  0  0  0  0  0  0  0  0  0  0
  2  1  2  0
  3  1  1  0
  4  2  1  0
  5  3  2  0
  6  5  1  0
  6  4  2  0
  7 19  1  0
  8 13  1  0
  9 10  1  0
  9  8  1  0
 11 10  1  0
 11 23  1  0
 11 12  1  0
 13  7  1  0
 13 12  1  0
 14  7  2  0
 16 15  1  0
 17 19  1  0
 17 18  1  0
 18  3  1  0
 18 15  1  0
 19 16  1  0
 20 21  2  0
 21 40  1  0
 22 21  1  0
 22 25  1  0
 23 24  1  0
 23 20  1  0
 24 22  2  0
 25 26  1  0
 26 27  2  0
 28 31  1  0
 28 27  1  0
 29 28  2  0
 30 29  1  0
 30 25  2  0
 31 32  1  0
 32 37  2  0
 32 33  1  0
 33 34  2  0
 34 35  1  0
 35 39  1  0
 36 35  2  0
 37 36  1  0
 38 37  1  0
 40 41  1  0
 41 44  1  0
 41 43  1  0
 42 40  2  0
 45 20  1  0
 45 46  1  0
 47 45  1  0
 48  4  1  0
 49 48  1  0
 49 50  1  0
 51 53  1  0
 51 50  1  0
 52 63  2  0
 53 58  1  0
 54 62  1  0
 54 64  1  0
 55 61  1  0
 55 57  1  0
 56 62  1  0
 57 56  1  0
 58 57  2  0
 59 60  1  0
 59 53  2  0
 60 55  2  0
 61 54  1  0
 62 52  1  0
 64 66  2  0
 65 64  1  0
 67 65  1  0
 68 77  2  0
 68 73  1  0
 69 65  1  0
 69 73  1  0
 70 69  1  0
 71 72  1  0
 71 70  1  0
 72 68  1  0
 73 74  2  0
 74 75  1  0
 76 75  2  0
 77 76  1  0
 78 52  1  0
 78 83  1  0
 78 79  1  0
 79 82  1  1
 79 80  1  0
 81 79  1  0
 83 86  1  0
 84 88  1  0
 84 83  1  0
 85 84  2  0
 88 87  1  0
 90 88  1  0
 90 91  1  0
 90 89  1  0
M  ISO  4   7 100  19 100  50 101  51 101
M  END
>  <TORSDO>  (75) 
F 19

>  <SCORE>  (75) 
-11.801

>  <name>  (75) 
74

>  <ligand_id>  (75) 
74

>  <original_smiles>  (75) 
[H]c1c(OC([H])([H])C([H])([H])Oc2c([H])c([H])c3c(c2[H])C([H])([H])N(C(=O)C([H])(N([H])C(=O)C([H])(N([H])C([H])([H])[H])C([H])([H])[H])C(C([H])([H])[H])(C([H])([H])[H])C([H])([H])[H])C([H])(C(=O)N([H])C2([H])c4c([H])c([H])c([H])c([H])c4C([H])([H])C([H])([H])C2([H])[H])C3([H])[H])nnc(C2([H])C([H])([H])N(C(=O)N3C([H])([H])C([H])([H])C([H])([H])C([H])(n4nc(-c5c([H])c([H])c(Oc6c([H])c([H])c(F)c([H])c6F)c([H])c5[H])c(C(=O)N([H])[H])c4N([H])[H])C3([H])[H])C([H])([H])C2([H])[H])c1[H]

>  <smiles>  (75) 
[H]c1c(OC([H])([H])C([H])([H])Oc2c([H])c([H])c3c(c2[H])C([H])([H])N(C(=O)C([H])(N([H])C(=O)C([H])(N([H])C([H])([H])[H])C([H])([H])[H])C(C([H])([H])[H])(C([H])([H])[H])C([H])([H])[H])C([H])(C(=O)N([H])C2([H])c4c([H])c([H])c([H])c([H])c4C([H])([H])C([H])([H])C2([H])[H])C3([H])[H])nnc(C2([H])C([H])([H])N(C(=O)N3C([H])([H])C([H])([H])C([H])([H])C([H])(n4nc(-c5c([H])c([H])c(Oc6c([H])c([H])c(F)c([H])c6F)c([H])c5[H])c(C(=O)N([H])[H])c4N([H])[H])C3([H])[H])C([H])([H])C2([H])[H])c1[H]

$$$$
75:0:0
     RDKit          3D

103111  0  0  1  0  0  0  0  0999 V2000
  -31.8700  -20.6530   17.0680 C   0  0  0  0  0  1  0  0  0  0  0  0
  -30.3680  -20.2960   17.0290 C   0  0  0  0  0  3  0  0  0  0  0  0
  -29.6510  -20.8470   18.1770 N   0  0  0  0  0  0  0  0  0  0  0  0
  -28.6750  -20.5580   18.1170 H   0  0  0  0  0  0  0  0  0  0  0  0
  -29.5950  -22.3080   18.1320 C   0  0  0  0  0  2  0  0  0  0  0  0
  -27.4720  -22.1270   19.5580 C   0  0  0  0  0  1  0  0  0  0  0  0
  -28.8070  -22.8660   19.3370 C   0  0  0  0  0  3  0  0  0  0  0  0
  -28.5230  -24.3050   19.1780 N   0  0  0  0  0  4  0  0  0  0  0  0
  -27.8990  -24.4390   18.3980 H   0  0  0  0  0  0  0  0  0  0  0  0
  -28.0390  -24.6060   20.0120 H   0  0  0  0  0  0  0  0  0  0  0  0
  -29.6850  -25.2080   19.0340 C   0  0  0  0  0  2  0  0  0  0  0  0
  -29.2060  -26.6600   19.0580 C   0  0  0  0  0  2  0  0  0  0  0  0
  -28.5390  -26.8430   20.3000 O   0  0  0  0  0  0  0  0  0  0  0  0
  -24.6030  -31.9100   23.2730 C   0  0  0  0  0  0  0  0  0  0  0  0
  -27.3550  -27.5290   20.2500 C   0  0  0  0  0  0  0  0  0  0  0  0
  -23.4310  -30.4880   21.6140 C   0  0  0  0  0  3  0  0  0  0  0  0
  -24.9260  -28.9560   20.2250 C   0  0  0  0  0  0  0  0  0  0  0  0
  -25.9480  -30.8820   21.4530 C   0  0  0  0  0  2  0  0  0  0  0  0
  -26.0600  -29.5090   20.8320 C   0  0  0  0  0  0  0  0  0  0  0  0
  -27.2720  -28.7940   20.8610 C   0  0  0  0  0  3  0  0  0  0  0  0
  -26.2070  -26.9720   19.6460 C   0  0  0  0  0  3  0  0  0  0  0  0
  -24.9900  -27.6800   19.6360 C   0  0  0  0  0  3  0  0  0  0  0  0
  -23.6700  -29.7960   20.2430 C   0  0  0  0  0  2  0  0  0  0  0  0
  -24.6770  -31.1080   22.1720 N   0  0  0  0  0  0  0  0  0  0  0  0
  -23.5130  -32.1750   23.7990 O   0  0  0  0  0  0  0  0  0  0  0  0
  -22.7770  -29.4680   22.5720 C   0  0  0  0  0  0  0  0  0  0  0  0
  -21.4540  -29.2810   22.4330 N   0  0  0  0  0  0  0  0  0  0  0  0
  -23.4560  -28.8460   23.3940 O   0  0  0  0  0  0  0  0  0  0  0  0
  -20.9680  -29.8360   21.7430 H   0  0  0  0  0  0  0  0  0  0  0  0
  -18.0820  -28.0760   22.8940 C   0  0  0  0  0  0  0  0  0  0  0  0
  -20.6350  -28.3400   23.1960 C   0  0  0  0  0  3  0  0  0  0  0  0
  -20.7490  -26.9090   22.6240 C   0  0  0  0  0  2  0  0  0  0  0  0
  -19.6600  -26.5820   21.5970 C   0  0  0  0  0  2  0  0  0  0  0  0
  -18.2700  -26.7250   22.2230 C   0  0  0  0  0  2  0  0  0  0  0  0
  -19.1940  -28.8410   23.3370 C   0  0  0  0  0  0  0  0  0  0  0  0
  -18.9670  -30.1050   23.9210 C   0  0  0  0  0  3  0  0  0  0  0  0
  -17.6600  -30.6060   24.0690 C   0  0  0  0  0  3  0  0  0  0  0  0
  -16.5620  -29.8380   23.6430 C   0  0  0  0  0  3  0  0  0  0  0  0
  -16.7740  -28.5760   23.0620 C   0  0  0  0  0  3  0  0  0  0  0  0
  -25.8780  -32.5490   23.9090 C   0  0  0  0  0  3  0  0  0  0  0  0
  -26.3800  -31.7940   25.1990 C   0  0  1  0  0  0  0  0  0  0  0  0
  -25.2710  -31.5660   26.2520 C   0  0  0  0  0  1  0  0  0  0  0  0
  -26.9740  -30.4140   24.8300 C   0  0  0  0  0  1  0  0  0  0  0  0
  -27.5190  -32.5970   25.8710 C   0  0  0  0  0  1  0  0  0  0  0  0
  -25.5620  -33.9510   24.2150 N   0  0  0  0  0  0  0  0  0  0  0  0
  -25.9050  -34.9920   23.4450 C   0  0  0  0  0  0  0  0  0  0  0  0
  -26.5930  -34.8760   22.4260 O   0  0  0  0  0  0  0  0  0  0  0  0
  -24.9560  -34.1140   25.0050 H   0  0  0  0  0  0  0  0  0  0  0  0
  -24.1820  -36.7750   23.0290 C   0  0  0  0  0  1  0  0  0  0  0  0
  -25.4050  -36.3850   23.8730 C   0  0  0  0  0  3  0  0  0  0  0  0
  -27.5190  -37.2850   24.7410 C   0  0  0  0  0  1  0  0  0  0  0  0
  -26.4380  -37.4390   23.7700 N   0  0  0  0  0  0  0  0  0  0  0  0
  -26.0280  -38.3610   23.8940 H   0  0  0  0  0  0  0  0  0  0  0  0
  -30.0760  -18.7800   16.9650 C   0  0  0  0  0  2  0  0  0  0  0  0
  -30.7830  -14.6280   20.5330 C   0  0  0  0  0  0  0  0  0  0  0  0
  -30.4120  -12.4060   19.5830 C   0  0  0  0  0  2  0  0  0  0  0  0
  -29.5030  -12.4610   18.3450 C   0  0  0  0  0  2  0  0  0  0  0  0
  -28.0390  -12.2710   18.7780 C   0  0  0  0  0  2  0  0  0  0  0  0
  -27.6170  -13.2200   19.9260 C   0  0  0  0  0  3  0  0  0  0  0  0
  -28.6720  -13.2970   21.0630 C   0  0  0  0  0  2  0  0  0  0  0  0
  -29.9940  -13.5180   20.4530 N   0  0  0  0  0  0  0  0  0  0  0  0
  -32.0050  -14.5220   20.4770 O   0  0  0  0  0  0  0  0  0  0  0  0
  -29.0190  -16.1690   19.5590 C   0  0  0  0  0  2  0  0  0  0  0  0
  -31.2010  -17.0290   20.2160 C   0  0  0  0  0  2  0  0  0  0  0  0
  -28.8840  -17.5680   18.8720 C   0  0  0  0  0  2  0  0  0  0  0  0
  -31.3870  -17.4640   18.7350 C   0  0  0  0  0  3  0  0  0  0  0  0
  -30.2670  -15.8800   20.3020 N   0  0  0  0  0  0  0  0  0  0  0  0
  -30.1410  -18.1640   18.3280 N   0  0  1  0  0  4  0  0  0  0  0  0
  -30.1730  -19.0410   18.8420 H   0  0  0  0  0  0  0  0  0  0  0  0
  -25.2230  -13.8200   20.6090 C   0  0  0  0  0  0  0  0  0  0  0  0
  -24.1550  -13.0420   20.9470 C   0  0  0  0  0  0  0  0  0  0  0  0
  -24.6340  -11.6960   20.9470 C   0  0  0  0  0  0  0  0  0  0  0  0
  -26.2800  -12.9440   20.4140 N   0  0  0  0  0  0  0  0  0  0  0  0
  -25.9330  -11.6650   20.6880 N   0  0  0  0  0  0  0  0  0  0  0  0
  -23.9180  -10.4310   21.1170 C   0  0  0  0  0  0  0  0  0  0  0  0
  -24.3380   -9.4720   22.0640 C   0  0  0  0  0  3  0  0  0  0  0  0
  -23.6240   -8.2670   22.2220 C   0  0  0  0  0  3  0  0  0  0  0  0
  -22.4800   -8.0120   21.4320 C   0  0  0  0  0  0  0  0  0  0  0  0
  -22.0780   -8.9630   20.4770 C   0  0  0  0  0  3  0  0  0  0  0  0
  -22.7920  -10.1620   20.3160 C   0  0  0  0  0  3  0  0  0  0  0  0
  -21.7370   -6.8590   21.5070 O   0  0  0  0  0  0  0  0  0  0  0  0
  -21.6760   -6.1150   22.6590 C   0  0  0  0  0  0  0  0  0  0  0  0
  -21.2010   -6.6610   23.8710 C   0  0  0  0  0  3  0  0  0  0  0  0
  -21.0840   -5.8450   25.0140 C   0  0  0  0  0  3  0  0  0  0  0  0
  -21.4320   -4.4830   24.9450 C   0  0  0  0  0  0  0  0  0  0  0  0
  -21.8990   -3.9350   23.7380 C   0  0  0  0  0  3  0  0  0  0  0  0
  -22.0150   -4.7480   22.5970 C   0  0  0  0  0  0  0  0  0  0  0  0
  -22.4460   -4.2100   21.4300 F   0  0  0  0  0  0  0  0  0  0  0  0
  -21.3140   -3.6950   26.0400 F   0  0  0  0  0  0  0  0  0  0  0  0
  -22.7410  -13.5040   21.1620 C   0  0  0  0  0  0  0  0  0  0  0  0
  -21.9890  -12.8110   22.0090 N   0  0  0  0  0  0  0  0  0  0  0  0
  -22.3100  -14.5210   20.6170 O   0  0  0  0  0  0  0  0  0  0  0  0
  -22.3450  -11.9890   22.4740 H   0  0  0  0  0  0  0  0  0  0  0  0
  -21.0410  -13.1060   22.1950 H   0  0  0  0  0  0  0  0  0  0  0  0
  -25.3690  -15.1930   20.4220 N   0  0  0  0  0  0  0  0  0  0  0  0
  -24.5830  -15.8220   20.5400 H   0  0  0  0  0  0  0  0  0  0  0  0
  -26.2170  -15.6630   20.1360 H   0  0  0  0  0  0  0  0  0  0  0  0
  -31.7970  -16.3030   17.7630 C   0  0  0  0  0  2  0  0  0  0  0  0
  -33.3150  -16.0410   17.7300 C   0  0  0  0  0  2  0  0  0  0  0  0
  -35.1410  -14.9280   16.4830 C   0  0  0  0  0  1  0  0  0  0  0  0
  -33.6900  -15.0150   16.7320 N   0  0  0  0  0  4  0  0  0  0  0  0
  -33.3710  -14.1120   17.0470 H   0  0  0  0  0  0  0  0  0  0  0  0
  -33.2360  -15.2140   15.8540 H   0  0  0  0  0  0  0  0  0  0  0  0
  2  1  1  0
  2  3  1  0
  4  3  1  0
  5  3  1  0
  5  7  1  0
  7  6  1  0
  8  7  1  0
  8 10  1  0
  9  8  1  0
 11 12  1  0
 11  8  1  0
 12 13  1  0
 14 25  2  0
 15 13  1  0
 15 20  1  0
 16 24  1  0
 16 26  1  0
 17 23  1  0
 17 19  1  0
 18 24  1  0
 19 20  2  0
 19 18  1  0
 21 15  2  0
 22 21  1  0
 22 17  2  0
 23 16  1  0
 24 14  1  0
 26 28  2  0
 27 26  1  0
 29 27  1  0
 30 39  2  0
 30 35  1  0
 31 27  1  0
 31 35  1  0
 32 31  1  0
 33 34  1  0
 33 32  1  0
 34 30  1  0
 35 36  2  0
 36 37  1  0
 38 37  2  0
 39 38  1  0
 40 14  1  0
 40 45  1  0
 40 41  1  0
 41 44  1  1
 41 42  1  0
 43 41  1  0
 45 48  1  0
 46 50  1  0
 46 45  1  0
 47 46  2  0
 50 49  1  0
 52 50  1  0
 52 53  1  0
 52 51  1  0
 54  2  1  0
 54 68  1  0
 56 61  1  0
 57 58  1  0
 57 56  1  0
 59 58  1  0
 59 73  1  0
 59 60  1  0
 61 55  1  0
 61 60  1  0
 62 55  2  0
 63 67  1  0
 64 67  1  0
 65 63  1  0
 66 98  1  0
 66 64  1  0
 67 55  1  0
 68 66  1  0
 68 69  1  1
 68 65  1  0
 70 71  2  0
 71 90  1  0
 72 71  1  0
 72 75  1  0
 73 70  1  0
 73 74  1  0
 74 72  2  0
 75 76  1  0
 76 77  2  0
 78 81  1  0
 78 77  1  0
 79 78  2  0
 80 79  1  0
 80 75  2  0
 81 82  1  0
 82 83  1  0
 83 84  2  0
 85 84  1  0
 85 89  1  0
 86 85  2  0
 87 82  2  0
 87 86  1  0
 88 87  1  0
 90 91  1  0
 91 94  1  0
 91 93  1  0
 92 90  2  0
 95 96  1  0
 95 70  1  0
 97 95  1  0
 99 98  1  0
100101  1  0
101102  1  0
101 99  1  0
103101  1  0
M  ISO  4  12 101  13 101  55 100  67 100
M  END
>  <TORSDO>  (76) 
F 26

>  <SCORE>  (76) 
-12.060

>  <name>  (76) 
75

>  <ligand_id>  (76) 
75

>  <original_smiles>  (76) 
[H]c1c([H])c([H])c2c(c1[H])C([H])([H])C([H])([H])C([H])([H])C2([H])N([H])C(=O)C1([H])N(C(=O)C([H])(N([H])C(=O)C([H])(N([H])C([H])([H])[H])C([H])([H])[H])C(C([H])([H])[H])(C([H])([H])[H])C([H])([H])[H])C([H])([H])c2c([H])c(OC([H])([H])C([H])([H])[N+]([H])([H])C([H])(C([H])([H])[H])C([H])([H])N([H])C([H])(C([H])([H])[H])C([H])([H])[N+]3([H])C([H])([H])C([H])([H])N(C(=O)N4C([H])([H])C([H])([H])C([H])([H])C([H])(n5nc(-c6c([H])c([H])c(Oc7c([H])c([H])c(F)c([H])c7F)c([H])c6[H])c(C(=O)N([H])[H])c5N([H])[H])C4([H])[H])C([H])([H])C3([H])C([H])([H])C([H])([H])[N+]([H])([H])C([H])([H])[H])c([H])c([H])c2C1([H])[H]

>  <smiles>  (76) 
[H]c1c([H])c([H])c2c(c1[H])C([H])([H])C([H])([H])C([H])([H])C2([H])N([H])C(=O)C1([H])N(C(=O)C([H])(N([H])C(=O)C([H])(N([H])C([H])([H])[H])C([H])([H])[H])C(C([H])([H])[H])(C([H])([H])[H])C([H])([H])[H])C([H])([H])c2c([H])c(OC([H])([H])C([H])([H])[N+]([H])([H])C([H])(C([H])([H])[H])C([H])([H])N([H])C([H])(C([H])([H])[H])C([H])([H])[N+]3([H])C([H])([H])C([H])([H])N(C(=O)N4C([H])([H])C([H])([H])C([H])([H])C([H])(n5nc(-c6c([H])c([H])c(Oc7c([H])c([H])c(F)c([H])c7F)c([H])c6[H])c(C(=O)N([H])[H])c5N([H])[H])C4([H])[H])C([H])([H])C3([H])C([H])([H])C([H])([H])[N+]([H])([H])C([H])([H])[H])c([H])c([H])c2C1([H])[H]

$$$$
76:0:0
     RDKit          3D

100110  0  0  1  0  0  0  0  0999 V2000
  -30.9140  -20.7740   21.3560 C   0  0  0  0  0  3  0  0  0  0  0  0
  -29.6440  -18.9370   20.7690 C   0  0  0  0  0  0  0  0  0  0  0  0
  -30.1960  -21.5750   20.4400 C   0  0  0  0  0  0  0  0  0  0  0  0
  -28.9030  -19.7390   19.8510 C   0  0  0  0  0  0  0  0  0  0  0  0
  -30.6400  -19.4610   21.5230 N   0  0  0  0  0  0  0  0  0  0  0  0
  -29.1770  -21.0660   19.6960 N   0  0  0  0  0  0  0  0  0  0  0  0
  -30.7710  -14.4250   20.3280 C   0  0  0  0  0  0  0  0  0  0  0  0
  -30.4470  -12.2830   19.1710 C   0  0  0  0  0  2  0  0  0  0  0  0
  -29.4820  -12.5210   17.9910 C   0  0  0  0  0  2  0  0  0  0  0  0
  -28.0130  -12.3990   18.4470 C   0  0  0  0  0  2  0  0  0  0  0  0
  -27.7090  -13.2240   19.7270 C   0  0  0  0  0  3  0  0  0  0  0  0
  -28.7820  -12.9670   20.8100 C   0  0  0  0  0  2  0  0  0  0  0  0
  -30.1010  -13.2510   20.2170 N   0  0  0  0  0  0  0  0  0  0  0  0
  -31.9120  -14.6110   19.8920 O   0  0  0  0  0  0  0  0  0  0  0  0
  -29.7340  -16.5210   19.7180 C   0  0  0  0  0  2  0  0  0  0  0  0
  -30.4250  -16.5110   21.6340 C   0  0  0  0  0  2  0  0  0  0  0  0
  -29.4460  -17.4310   20.9000 C   0  0  0  0  0  3  0  0  0  0  0  0
  -29.9930  -15.4560   20.7010 N   0  0  0  0  0  0  0  0  0  0  0  0
  -25.3290  -13.8580   20.4770 C   0  0  0  0  0  0  0  0  0  0  0  0
  -24.2580  -13.0940   20.8590 C   0  0  0  0  0  0  0  0  0  0  0  0
  -24.7050  -11.7380   20.8110 C   0  0  0  0  0  0  0  0  0  0  0  0
  -26.3610  -12.9660   20.2250 N   0  0  0  0  0  0  0  0  0  0  0  0
  -25.9880  -11.6870   20.4800 N   0  0  0  0  0  0  0  0  0  0  0  0
  -23.9710  -10.4810   21.0020 C   0  0  0  0  0  0  0  0  0  0  0  0
  -24.4100   -9.5040   21.9230 C   0  0  0  0  0  3  0  0  0  0  0  0
  -23.6760   -8.3120   22.1040 C   0  0  0  0  0  3  0  0  0  0  0  0
  -22.4910   -8.0890   21.3630 C   0  0  0  0  0  0  0  0  0  0  0  0
  -22.0730   -9.0550   20.4310 C   0  0  0  0  0  3  0  0  0  0  0  0
  -22.8060  -10.2390   20.2490 C   0  0  0  0  0  3  0  0  0  0  0  0
  -21.7280   -6.9500   21.4530 O   0  0  0  0  0  0  0  0  0  0  0  0
  -21.6820   -6.2040   22.6060 C   0  0  0  0  0  0  0  0  0  0  0  0
  -21.2670   -6.7600   23.8360 C   0  0  0  0  0  3  0  0  0  0  0  0
  -21.1670   -5.9420   24.9790 C   0  0  0  0  0  3  0  0  0  0  0  0
  -21.4700   -4.5710   24.8930 C   0  0  0  0  0  0  0  0  0  0  0  0
  -21.8780   -4.0150   23.6670 C   0  0  0  0  0  3  0  0  0  0  0  0
  -21.9800   -4.8290   22.5250 C   0  0  0  0  0  0  0  0  0  0  0  0
  -22.3530   -4.2850   21.3420 F   0  0  0  0  0  0  0  0  0  0  0  0
  -21.3670   -3.7830   25.9880 F   0  0  0  0  0  0  0  0  0  0  0  0
  -22.8710  -13.5830   21.1590 C   0  0  0  0  0  0  0  0  0  0  0  0
  -22.1540  -12.8910   22.0380 N   0  0  0  0  0  0  0  0  0  0  0  0
  -22.4300  -14.6130   20.6490 O   0  0  0  0  0  0  0  0  0  0  0  0
  -22.5260  -12.0580   22.4710 H   0  0  0  0  0  0  0  0  0  0  0  0
  -21.2240  -13.1980   22.2840 H   0  0  0  0  0  0  0  0  0  0  0  0
  -25.5070  -15.2270   20.3060 N   0  0  0  0  0  0  0  0  0  0  0  0
  -24.7480  -15.8890   20.4250 H   0  0  0  0  0  0  0  0  0  0  0  0
  -26.3620  -15.6450   19.9680 H   0  0  0  0  0  0  0  0  0  0  0  0
  -27.8300  -19.1580   18.9200 C   0  0  0  0  0  3  0  0  0  0  0  0
  -28.3180  -19.0680   17.6790 F   0  0  0  0  0  0  0  0  0  0  0  0
  -26.5130  -19.9520   18.8870 C   0  0  0  0  0  2  0  0  0  0  0  0
  -25.4730  -22.0850   18.1470 C   0  0  0  0  0  1  0  0  0  0  0  0
  -26.6760  -21.2300   18.1680 N   0  0  0  0  0  4  0  0  0  0  0  0
  -27.4450  -21.7180   18.6010 H   0  0  0  0  0  0  0  0  0  0  0  0
  -26.9560  -21.0160   17.2230 H   0  0  0  0  0  0  0  0  0  0  0  0
  -30.5890  -23.0310   20.2190 C   0  0  0  0  0  2  0  0  0  0  0  0
  -30.1970  -25.3720   20.9590 C   0  0  0  0  0  2  0  0  0  0  0  0
  -28.4660  -24.3520   20.4300 C   0  0  0  0  0  2  0  0  0  0  0  0
  -28.7310  -25.7830   20.8930 C   0  0  0  0  0  3  0  0  0  0  0  0
  -29.7620  -23.9770   21.0030 N   0  0  1  0  0  4  0  0  0  0  0  0
  -29.6660  -23.6760   21.9620 H   0  0  0  0  0  0  0  0  0  0  0  0
  -28.5320  -26.7620   19.8830 O   0  0  0  0  0  0  0  0  0  0  0  0
  -24.5950  -31.7250   23.1020 C   0  0  0  0  0  0  0  0  0  0  0  0
  -27.3350  -27.4210   19.9530 C   0  0  0  0  0  0  0  0  0  0  0  0
  -23.4190  -30.3350   21.4240 C   0  0  0  0  0  3  0  0  0  0  0  0
  -24.9070  -28.8460   19.9850 C   0  0  0  0  0  0  0  0  0  0  0  0
  -25.9330  -30.7510   21.2430 C   0  0  0  0  0  2  0  0  0  0  0  0
  -26.0470  -29.3920   20.5870 C   0  0  0  0  0  0  0  0  0  0  0  0
  -27.2660  -28.6850   20.5720 C   0  0  0  0  0  3  0  0  0  0  0  0
  -26.1840  -26.8710   19.3550 C   0  0  0  0  0  3  0  0  0  0  0  0
  -24.9670  -27.5810   19.3700 C   0  0  0  0  0  3  0  0  0  0  0  0
  -23.6460  -29.6800   20.0350 C   0  0  0  0  0  2  0  0  0  0  0  0
  -24.6670  -30.9510   21.9820 N   0  0  0  0  0  0  0  0  0  0  0  0
  -23.5080  -31.9680   23.6430 O   0  0  0  0  0  0  0  0  0  0  0  0
  -22.7810  -29.2850   22.3620 C   0  0  0  0  0  0  0  0  0  0  0  0
  -21.4590  -29.0970   22.2340 N   0  0  0  0  0  0  0  0  0  0  0  0
  -23.4740  -28.6450   23.1580 O   0  0  0  0  0  0  0  0  0  0  0  0
  -20.9610  -29.6680   21.5650 H   0  0  0  0  0  0  0  0  0  0  0  0
  -18.0940  -27.8760   22.7110 C   0  0  0  0  0  0  0  0  0  0  0  0
  -20.6510  -28.1340   22.9800 C   0  0  0  0  0  3  0  0  0  0  0  0
  -20.7570  -26.7200   22.3620 C   0  0  0  0  0  2  0  0  0  0  0  0
  -19.6510  -26.4240   21.3440 C   0  0  0  0  0  2  0  0  0  0  0  0
  -18.2720  -26.5460   21.9980 C   0  0  0  0  0  2  0  0  0  0  0  0
  -19.2110  -28.6290   23.1590 C   0  0  0  0  0  0  0  0  0  0  0  0
  -18.9920  -29.8760   23.7840 C   0  0  0  0  0  3  0  0  0  0  0  0
  -17.6870  -30.3680   23.9680 C   0  0  0  0  0  3  0  0  0  0  0  0
  -16.5830  -29.6110   23.5380 C   0  0  0  0  0  3  0  0  0  0  0  0
  -16.7870  -28.3670   22.9160 C   0  0  0  0  0  3  0  0  0  0  0  0
  -25.8700  -32.3610   23.7410 C   0  0  0  0  0  3  0  0  0  0  0  0
  -25.5380  -33.7450   24.1050 N   0  0  0  0  0  0  0  0  0  0  0  0
  -25.8560  -34.8200   23.3710 C   0  0  0  0  0  0  0  0  0  0  0  0
  -26.5300  -34.7530   22.3390 O   0  0  0  0  0  0  0  0  0  0  0  0
  -24.9410  -33.8720   24.9080 H   0  0  0  0  0  0  0  0  0  0  0  0
  -24.0960  -36.5860   23.0530 C   0  0  0  0  0  1  0  0  0  0  0  0
  -25.3430  -36.1890   23.8580 C   0  0  0  0  0  3  0  0  0  0  0  0
  -27.4580  -37.0930   24.7130 C   0  0  0  0  0  1  0  0  0  0  0  0
  -26.3560  -37.2610   23.7710 N   0  0  0  0  0  0  0  0  0  0  0  0
  -25.9330  -38.1700   23.9380 H   0  0  0  0  0  0  0  0  0  0  0  0
  -26.4010  -31.5650   24.9950 C   0  0  1  0  0  0  0  0  0  0  0  0
  -25.3150  -31.2840   26.0590 C   0  0  0  0  0  1  0  0  0  0  0  0
  -27.0020  -30.2080   24.5630 C   0  0  0  0  0  1  0  0  0  0  0  0
  -27.5420  -32.3580   25.6760 C   0  0  0  0  0  1  0  0  0  0  0  0
  1  5  1  0
  2  5  2  0
  3  1  2  0
  4  2  1  0
  6  4  2  0
  6  3  1  0
  7 18  1  0
  8 13  1  0
  9 10  1  0
  9  8  1  0
 11 10  1  0
 11 22  1  0
 11 12  1  0
 13  7  1  0
 13 12  1  0
 14  7  2  0
 15 18  1  0
 15 17  1  0
 17  2  1  0
 17 16  1  0
 18 16  1  0
 19 20  2  0
 20 39  1  0
 21 20  1  0
 21 24  1  0
 22 19  1  0
 22 23  1  0
 23 21  2  0
 24 25  1  0
 25 26  2  0
 27 30  1  0
 27 26  1  0
 28 27  2  0
 29 28  1  0
 29 24  2  0
 30 31  1  0
 31 32  1  0
 32 33  2  0
 34 33  1  0
 34 38  1  0
 35 34  2  0
 36 31  2  0
 36 35  1  0
 37 36  1  0
 39 40  1  0
 40 43  1  0
 40 42  1  0
 41 39  2  0
 44 45  1  0
 44 19  1  0
 46 44  1  0
 47 48  1  0
 47  4  1  0
 49 47  1  0
 50 51  1  0
 51 52  1  0
 51 49  1  0
 53 51  1  0
 54  3  1  0
 54 58  1  0
 55 58  1  0
 56 57  1  0
 56 58  1  0
 57 60  1  0
 57 55  1  0
 58 59  1  1
 60 62  1  0
 61 72  2  0
 62 67  1  0
 63 71  1  0
 63 73  1  0
 64 70  1  0
 64 66  1  0
 65 71  1  0
 66 65  1  0
 67 66  2  0
 68 69  1  0
 68 62  2  0
 69 64  2  0
 70 63  1  0
 71 61  1  0
 73 75  2  0
 74 73  1  0
 76 74  1  0
 77 86  2  0
 77 82  1  0
 78 74  1  0
 78 82  1  0
 79 78  1  0
 80 81  1  0
 80 79  1  0
 81 77  1  0
 82 83  2  0
 83 84  1  0
 85 84  2  0
 86 85  1  0
 87 61  1  0
 87 88  1  0
 87 97  1  0
 88 91  1  0
 89 93  1  0
 89 88  1  0
 90 89  2  0
 93 92  1  0
 95 93  1  0
 95 96  1  0
 95 94  1  0
 97100  1  1
 97 98  1  0
 99 97  1  0
M  ISO  4   7 100  18 100  57 101  60 101
M  END
>  <TORSDO>  (77) 
F 21

>  <SCORE>  (77) 
-13.977

>  <name>  (77) 
76

>  <ligand_id>  (77) 
76

>  <original_smiles>  (77) 
[H]c1nc(C2([H])C([H])([H])N(C(=O)N3C([H])([H])C([H])([H])C([H])([H])C([H])(n4nc(-c5c([H])c([H])c(Oc6c([H])c([H])c(F)c([H])c6F)c([H])c5[H])c(C(=O)N([H])[H])c4N([H])[H])C3([H])[H])C2([H])[H])c(C([H])(F)C([H])([H])[N+]([H])([H])C([H])([H])[H])nc1C([H])([H])[N+]1([H])C([H])([H])C([H])(Oc2c([H])c([H])c3c(c2[H])C([H])([H])N(C(=O)C([H])(N([H])C(=O)C([H])(N([H])C([H])([H])[H])C([H])([H])[H])C(C([H])([H])[H])(C([H])([H])[H])C([H])([H])[H])C([H])(C(=O)N([H])C2([H])c4c([H])c([H])c([H])c([H])c4C([H])([H])C([H])([H])C2([H])[H])C3([H])[H])C1([H])[H]

>  <smiles>  (77) 
[H]c1nc(C2([H])C([H])([H])N(C(=O)N3C([H])([H])C([H])([H])C([H])([H])C([H])(n4nc(-c5c([H])c([H])c(Oc6c([H])c([H])c(F)c([H])c6F)c([H])c5[H])c(C(=O)N([H])[H])c4N([H])[H])C3([H])[H])C2([H])[H])c(C([H])(F)C([H])([H])[N+]([H])([H])C([H])([H])[H])nc1C([H])([H])[N+]1([H])C([H])([H])C([H])(Oc2c([H])c([H])c3c(c2[H])C([H])([H])N(C(=O)C([H])(N([H])C(=O)C([H])(N([H])C([H])([H])[H])C([H])([H])[H])C(C([H])([H])[H])(C([H])([H])[H])C([H])([H])[H])C([H])(C(=O)N([H])C2([H])c4c([H])c([H])c([H])c([H])c4C([H])([H])C([H])([H])C2([H])[H])C3([H])[H])C1([H])[H]

$$$$
78:0:0
     RDKit          3D

 98108  0  0  1  0  0  0  0  0999 V2000
  -26.3930  -21.6130   19.9990 C   0  0  0  0  0  3  0  0  0  0  0  0
  -27.3580  -22.0990   20.8590 C   0  0  0  0  0  0  0  0  0  0  0  0
  -27.9730  -20.0630   20.2560 C   0  0  0  0  0  3  0  0  0  0  0  0
  -29.2370  -18.0290   19.1590 C   0  0  0  0  0  2  0  0  0  0  0  0
  -29.4730  -18.1930   21.2430 C   0  0  0  0  0  2  0  0  0  0  0  0
  -29.2640  -16.9550   20.3030 C   0  0  0  0  0  3  0  0  0  0  0  0
  -26.1260  -19.5590   18.5840 C   0  0  0  0  0  1  0  0  0  0  0  0
  -26.8430  -20.3770   19.5720 N   0  0  0  0  0  0  0  0  0  0  0  0
  -28.2470  -21.0750   21.0720 N   0  0  0  0  0  0  0  0  0  0  0  0
  -28.6290  -18.7970   20.2360 N   0  0  0  0  0  0  0  0  0  0  0  0
  -29.0640  -21.1060   21.6920 H   0  0  0  0  0  0  0  0  0  0  0  0
  -31.1440  -15.0200   19.8700 C   0  0  0  0  0  0  0  0  0  0  0  0
  -31.1320  -12.7530   18.9540 C   0  0  0  0  0  2  0  0  0  0  0  0
  -30.1460  -12.8180   17.7660 C   0  0  0  0  0  2  0  0  0  0  0  0
  -28.6730  -12.6710   18.2170 C   0  0  0  0  0  2  0  0  0  0  0  0
  -28.3330  -13.5790   19.4290 C   0  0  0  0  0  3  0  0  0  0  0  0
  -29.4000  -13.4070   20.5290 C   0  0  0  0  0  2  0  0  0  0  0  0
  -30.7000  -13.7440   19.9350 N   0  0  0  0  0  0  0  0  0  0  0  0
  -32.2620  -15.3190   19.3870 O   0  0  0  0  0  0  0  0  0  0  0  0
  -30.3980  -15.9780   20.5140 N   0  0  0  0  0  0  0  0  0  0  0  0
  -31.0010  -16.5960   20.1150 H   0  0  0  0  0  0  0  0  0  0  0  0
  -25.9630  -14.2210   20.2140 C   0  0  0  0  0  0  0  0  0  0  0  0
  -24.9050  -13.4630   20.6290 C   0  0  0  0  0  0  0  0  0  0  0  0
  -25.3450  -12.1070   20.5680 C   0  0  0  0  0  0  0  0  0  0  0  0
  -26.9870  -13.3250   19.9450 N   0  0  0  0  0  0  0  0  0  0  0  0
  -26.6200  -12.0500   20.2100 N   0  0  0  0  0  0  0  0  0  0  0  0
  -24.6120  -10.8550   20.7760 C   0  0  0  0  0  0  0  0  0  0  0  0
  -24.9450   -9.9780   21.8290 C   0  0  0  0  0  3  0  0  0  0  0  0
  -24.2140   -8.7830   22.0160 C   0  0  0  0  0  3  0  0  0  0  0  0
  -23.1390   -8.4650   21.1500 C   0  0  0  0  0  0  0  0  0  0  0  0
  -22.8270   -9.3410   20.0960 C   0  0  0  0  0  3  0  0  0  0  0  0
  -23.5570  -10.5260   19.9080 C   0  0  0  0  0  3  0  0  0  0  0  0
  -22.3870   -7.3240   21.2430 O   0  0  0  0  0  0  0  0  0  0  0  0
  -22.0190   -6.7980   22.4580 C   0  0  0  0  0  0  0  0  0  0  0  0
  -21.3000   -7.5520   23.4120 C   0  0  0  0  0  3  0  0  0  0  0  0
  -20.8830   -6.9490   24.6140 C   0  0  0  0  0  3  0  0  0  0  0  0
  -21.1750   -5.5960   24.8640 C   0  0  0  0  0  0  0  0  0  0  0  0
  -21.8860   -4.8430   23.9140 C   0  0  0  0  0  3  0  0  0  0  0  0
  -22.3040   -5.4410   22.7140 C   0  0  0  0  0  0  0  0  0  0  0  0
  -22.9700   -4.7040   21.7910 F   0  0  0  0  0  0  0  0  0  0  0  0
  -20.7690   -5.0140   26.0190 F   0  0  0  0  0  0  0  0  0  0  0  0
  -23.5260  -13.9580   20.9710 C   0  0  0  0  0  0  0  0  0  0  0  0
  -22.8530  -13.3060   21.9170 N   0  0  0  0  0  0  0  0  0  0  0  0
  -23.0570  -14.9650   20.4430 O   0  0  0  0  0  0  0  0  0  0  0  0
  -23.2480  -12.4950   22.3730 H   0  0  0  0  0  0  0  0  0  0  0  0
  -21.9310  -13.6190   22.1840 H   0  0  0  0  0  0  0  0  0  0  0  0
  -26.1110  -15.5880   20.0070 N   0  0  0  0  0  0  0  0  0  0  0  0
  -25.3440  -16.2390   20.1260 H   0  0  0  0  0  0  0  0  0  0  0  0
  -26.9260  -15.9930   19.5660 H   0  0  0  0  0  0  0  0  0  0  0  0
  -26.3830  -24.3450   21.6900 C   0  0  0  0  0  2  0  0  0  0  0  0
  -26.8680  -25.7460   21.3330 C   0  0  0  0  0  2  0  0  0  0  0  0
  -28.3300  -24.2670   20.2920 C   0  0  0  0  0  2  0  0  0  0  0  0
  -27.5930  -23.4750   21.3790 C   0  0  0  0  0  3  0  0  0  0  0  0
  -27.5380  -25.4940   20.0610 N   0  0  2  0  0  4  0  0  0  0  0  0
  -26.7820  -25.2710   19.4360 H   0  0  0  0  0  0  0  0  0  0  0  0
  -28.3340  -26.5860   19.4480 C   0  0  0  0  0  2  0  0  0  0  0  0
  -28.3320  -26.4330   17.8960 C   0  0  0  0  0  2  0  0  0  0  0  0
  -27.7180  -27.4610   17.1160 O   0  0  0  0  0  0  0  0  0  0  0  0
  -24.9260  -30.7650   22.7070 C   0  0  0  0  0  0  0  0  0  0  0  0
  -26.5910  -28.0350   17.6350 C   0  0  0  0  0  0  0  0  0  0  0  0
  -23.3150  -30.1230   20.9270 C   0  0  0  0  0  3  0  0  0  0  0  0
  -24.3340  -29.3000   18.7520 C   0  0  0  0  0  0  0  0  0  0  0  0
  -25.7530  -30.5990   20.3600 C   0  0  0  0  0  2  0  0  0  0  0  0
  -25.6110  -29.6050   19.2240 C   0  0  0  0  0  0  0  0  0  0  0  0
  -26.7400  -28.9790   18.6590 C   0  0  0  0  0  3  0  0  0  0  0  0
  -25.3010  -27.7190   17.1650 C   0  0  0  0  0  3  0  0  0  0  0  0
  -24.1690  -28.3530   17.7060 C   0  0  0  0  0  3  0  0  0  0  0  0
  -23.1790  -30.0370   19.3800 C   0  0  0  0  0  2  0  0  0  0  0  0
  -24.6890  -30.4940   21.3890 N   0  0  0  0  0  0  0  0  0  0  0  0
  -24.0120  -30.7850   23.5300 O   0  0  0  0  0  0  0  0  0  0  0  0
  -22.7970  -28.8030   21.5240 C   0  0  0  0  0  0  0  0  0  0  0  0
  -21.4740  -28.6130   21.4790 N   0  0  0  0  0  0  0  0  0  0  0  0
  -23.5830  -27.9610   21.9760 O   0  0  0  0  0  0  0  0  0  0  0  0
  -20.8900  -29.3000   21.0310 H   0  0  0  0  0  0  0  0  0  0  0  0
  -18.2230  -27.0920   21.7440 C   0  0  0  0  0  0  0  0  0  0  0  0
  -20.7780  -27.4340   22.0030 C   0  0  0  0  0  3  0  0  0  0  0  0
  -20.8900  -26.2590   21.0050 C   0  0  0  0  0  2  0  0  0  0  0  0
  -19.7830  -26.2810   19.9310 C   0  0  0  0  0  2  0  0  0  0  0  0
  -18.4300  -26.0380   20.6470 C   0  0  0  0  0  2  0  0  0  0  0  0
  -19.3240  -27.7580   22.3620 C   0  0  0  0  0  0  0  0  0  0  0  0
  -19.0730  -28.7370   23.3510 C   0  0  0  0  0  3  0  0  0  0  0  0
  -17.7470  -29.0460   23.7390 C   0  0  0  0  0  3  0  0  0  0  0  0
  -16.6560  -28.3820   23.1270 C   0  0  0  0  0  3  0  0  0  0  0  0
  -16.9010  -27.4180   22.1190 C   0  0  0  0  0  3  0  0  0  0  0  0
  -26.3780  -31.0770   23.2290 C   0  0  0  0  0  3  0  0  0  0  0  0
  -27.0870  -29.8670   23.9310 C   0  0  1  0  0  0  0  0  0  0  0  0
  -26.2110  -29.1810   25.0100 C   0  0  0  0  0  1  0  0  0  0  0  0
  -27.4720  -28.7890   22.8870 C   0  0  0  0  0  1  0  0  0  0  0  0
  -28.4010  -30.3390   24.6140 C   0  0  0  0  0  1  0  0  0  0  0  0
  -26.2540  -32.2130   24.1450 N   0  0  0  0  0  0  0  0  0  0  0  0
  -26.6360  -33.4700   23.8710 C   0  0  0  0  0  0  0  0  0  0  0  0
  -27.1960  -33.7760   22.8210 O   0  0  0  0  0  0  0  0  0  0  0  0
  -25.7590  -32.0590   25.0100 H   0  0  0  0  0  0  0  0  0  0  0  0
  -25.1620  -35.4140   24.4430 C   0  0  0  0  0  1  0  0  0  0  0  0
  -26.3480  -34.5640   24.9070 C   0  0  0  0  0  3  0  0  0  0  0  0
  -28.5850  -34.7480   25.9010 C   0  0  0  0  0  1  0  0  0  0  0  0
  -27.5030  -35.4320   25.1970 N   0  0  0  0  0  0  0  0  0  0  0  0
  -27.2200  -36.2380   25.7600 H   0  0  0  0  0  0  0  0  0  0  0  0
  1  2  2  0
  2  9  1  0
  3  8  1  0
  3  9  1  0
  4  6  1  0
  6 20  1  0
  6  5  1  0
  7  8  1  0
  8  1  1  0
  9 11  1  0
 10  4  1  0
 10  3  1  0
 10  5  1  0
 12 18  1  0
 12 20  1  0
 13 18  1  0
 14 15  1  0
 14 13  1  0
 16 15  1  0
 16 25  1  0
 16 17  1  0
 18 17  1  0
 19 12  2  0
 21 20  1  0
 22 23  2  0
 23 42  1  0
 24 23  1  0
 24 27  1  0
 25 26  1  0
 25 22  1  0
 26 24  2  0
 27 28  1  0
 28 29  2  0
 30 33  1  0
 30 29  1  0
 31 30  2  0
 32 31  1  0
 32 27  2  0
 33 34  1  0
 34 39  2  0
 34 35  1  0
 35 36  2  0
 36 37  1  0
 37 41  1  0
 38 37  2  0
 39 38  1  0
 40 39  1  0
 42 43  1  0
 43 46  1  0
 43 45  1  0
 44 42  2  0
 47 48  1  0
 47 22  1  0
 49 47  1  0
 51 50  1  0
 52 53  1  0
 53  2  1  0
 53 50  1  0
 54 52  1  0
 54 51  1  0
 54 55  1  6
 56 54  1  0
 57 56  1  0
 58 60  1  0
 58 57  1  0
 59 70  2  0
 60 65  1  0
 61 69  1  0
 61 71  1  0
 62 64  1  0
 62 68  1  0
 63 69  1  0
 64 63  1  0
 65 64  2  0
 66 60  2  0
 66 67  1  0
 67 62  2  0
 68 61  1  0
 69 59  1  0
 71 73  2  0
 72 71  1  0
 74 72  1  0
 75 84  2  0
 75 80  1  0
 76 72  1  0
 76 80  1  0
 77 76  1  0
 78 79  1  0
 78 77  1  0
 79 75  1  0
 80 81  2  0
 81 82  1  0
 83 82  2  0
 84 83  1  0
 85 59  1  0
 85 86  1  0
 85 90  1  0
 86 89  1  1
 86 87  1  0
 88 86  1  0
 90 93  1  0
 91 90  1  0
 91 95  1  0
 92 91  2  0
 95 94  1  0
 95 97  1  0
 97 98  1  0
 97 96  1  0
M  ISO  4  12 100  20 100  57 101  58 101
M  END
>  <TORSDO>  (78) 
F 19

>  <SCORE>  (78) 
-7.798

>  <name>  (78) 
78

>  <ligand_id>  (78) 
78

>  <original_smiles>  (78) 
[H]c1c([H])c([H])c2c(c1[H])C([H])([H])C([H])([H])C([H])([H])C2([H])N([H])C(=O)C1([H])N(C(=O)C([H])(N([H])C(=O)C([H])(N([H])C([H])([H])[H])C([H])([H])[H])C(C([H])([H])[H])(C([H])([H])[H])C([H])([H])[H])C([H])([H])c2c([H])c(OC([H])([H])C([H])([H])[N+]3([H])C([H])([H])C([H])([H])C([H])(c4c([H])n(C([H])([H])[H])c(N5C([H])([H])C([H])(N([H])C(=O)N6C([H])([H])C([H])([H])C([H])([H])C([H])(n7nc(-c8c([H])c([H])c(Oc9c([H])c([H])c(F)c([H])c9F)c([H])c8[H])c(C(=O)N([H])[H])c7N([H])[H])C6([H])[H])C5([H])[H])[n+]4[H])C3([H])[H])c([H])c([H])c2C1([H])[H]

>  <smiles>  (78) 
[H]c1c([H])c([H])c2c(c1[H])C([H])([H])C([H])([H])C([H])([H])C2([H])N([H])C(=O)C1([H])N(C(=O)C([H])(N([H])C(=O)C([H])(N([H])C([H])([H])[H])C([H])([H])[H])C(C([H])([H])[H])(C([H])([H])[H])C([H])([H])[H])C([H])([H])c2c([H])c(OC([H])([H])C([H])([H])[N+]3([H])C([H])([H])C([H])([H])C([H])(c4c([H])n(C([H])([H])[H])c(N5C([H])([H])C([H])(N([H])C(=O)N6C([H])([H])C([H])([H])C([H])([H])C([H])(n7nc(-c8c([H])c([H])c(Oc9c([H])c([H])c(F)c([H])c9F)c([H])c8[H])c(C(=O)N([H])[H])c7N([H])[H])C6([H])[H])C5([H])[H])[n+]4[H])C3([H])[H])c([H])c([H])c2C1([H])[H]

$$$$
79:0:0
     RDKit          3D

 95 95  0  0  1  0  0  0  0  0999 V2000
  -21.4910  -27.5250   24.5550 C   0  0  0  0  0 15  0  0  0  0  0  0
  -21.3700  -29.2460   23.0500 C   0  0  0  0  0  1  0  0  0  0  0  0
  -20.1680  -27.5310   21.2370 C   0  0  0  0  0  1  0  0  0  0  0  0
  -20.7700  -25.7000   23.5290 C   0  0  0  0  0 15  0  0  0  0  0  0
  -21.1910  -28.8320   21.2270 N   0  0  2  0  0  4  0  0  0  0  0  0
  -20.7190  -29.5910   20.7530 H   0  0  0  0  0  0  0  0  0  0  0  0
  -22.2290  -23.6670   23.2900 C   0  0  0  0  0 15  0  0  0  0  0  0
  -23.8200  -22.4340   22.5240 N   0  0  0  0  0  2  0  0  0  0  0  0
  -23.7400  -22.6410   21.5430 H   0  0  0  0  0  0  0  0  0  0  0  0
  -24.5840  -23.0090   22.8420 H   0  0  0  0  0  0  0  0  0  0  0  0
  -28.7560  -16.4330   20.9560 C   0  0  0  0  0  0  0  0  0  0  0  0
  -29.9970  -13.9520   19.8230 C   0  0  0  0  0  2  0  0  0  0  0  0
  -29.5000  -13.0330   18.6020 C   0  0  0  0  0  2  0  0  0  0  0  0
  -28.1900  -12.3160   18.9260 C   0  0  0  0  0  2  0  0  0  0  0  0
  -27.4330  -13.2670   19.8500 C   0  0  0  0  0  3  0  0  0  0  0  0
  -28.1760  -13.7360   21.1060 C   0  0  0  0  0  2  0  0  0  0  0  0
  -28.9100  -14.8930   20.6130 N   0  0  0  0  0  0  0  0  0  0  0  0
  -30.0430  -16.5460   20.7770 O   0  0  0  0  0  0  0  0  0  0  0  0
  -24.8100  -19.3040   21.3070 C   0  0  0  0  0  2  0  0  0  0  0  0
  -25.8680  -17.8690   21.2230 C   0  0  0  0  0  3  0  0  0  0  0  0
  -26.8000  -19.5110   21.9190 C   0  0  0  0  0 15  0  0  0  0  0  0
  -24.9400  -20.5970   22.3660 C   0  0  0  0  0  1  0  0  0  0  0  0
  -27.4590  -17.7180   21.3690 N   0  0  0  0  0  0  0  0  0  0  0  0
  -25.1310  -13.7580   20.5280 C   0  0  0  0  0  0  0  0  0  0  0  0
  -24.0960  -12.9930   20.9280 C   0  0  0  0  0  0  0  0  0  0  0  0
  -24.5790  -11.6500   20.8850 C   0  0  0  0  0  0  0  0  0  0  0  0
  -26.1480  -12.8810   20.2650 N   0  0  0  0  0  0  0  0  0  0  0  0
  -25.8600  -11.6030   20.5560 N   0  0  0  0  0  0  0  0  0  0  0  0
  -23.8680  -10.3970   21.0530 C   0  0  0  0  0  0  0  0  0  0  0  0
  -24.3400   -9.3970   21.9270 C   0  0  0  0  0  3  0  0  0  0  0  0
  -23.6140   -8.2000   22.0770 C   0  0  0  0  0  3  0  0  0  0  0  0
  -22.4130   -8.0070   21.3540 C   0  0  0  0  0  0  0  0  0  0  0  0
  -21.9700   -8.9990   20.4640 C   0  0  0  0  0  3  0  0  0  0  0  0
  -22.6940  -10.1870   20.3090 C   0  0  0  0  0  3  0  0  0  0  0  0
  -21.6510   -6.8700   21.4240 O   0  0  0  0  0  0  0  0  0  0  0  0
  -21.6770   -6.0630   22.5300 C   0  0  0  0  0  0  0  0  0  0  0  0
  -21.3950   -6.5570   23.8220 C   0  0  0  0  0  3  0  0  0  0  0  0
  -21.3640   -5.6750   24.9200 C   0  0  0  0  0  3  0  0  0  0  0  0
  -21.6050   -4.3010   24.7260 C   0  0  0  0  0  0  0  0  0  0  0  0
  -21.8830   -3.8080   23.4390 C   0  0  0  0  0  3  0  0  0  0  0  0
  -21.9170   -4.6880   22.3440 C   0  0  0  0  0  0  0  0  0  0  0  0
  -22.1650   -4.2080   21.1010 F   0  0  0  0  0  0  0  0  0  0  0  0
  -21.5640   -3.4510   25.7780 F   0  0  0  0  0  0  0  0  0  0  0  0
  -22.7150  -13.4890   21.2050 C   0  0  0  0  0  0  0  0  0  0  0  0
  -21.9880  -12.7990   22.0720 N   0  0  0  0  0  0  0  0  0  0  0  0
  -22.2980  -14.5270   20.6920 O   0  0  0  0  0  0  0  0  0  0  0  0
  -22.3480  -11.9600   22.5040 H   0  0  0  0  0  0  0  0  0  0  0  0
  -21.0570  -13.1110   22.3060 H   0  0  0  0  0  0  0  0  0  0  0  0
  -25.2850  -15.1140   20.3300 N   0  0  0  0  0  0  0  0  0  0  0  0
  -24.4710  -15.7160   20.3660 H   0  0  0  0  0  0  0  0  0  0  0  0
  -26.0420  -15.4960   19.7820 H   0  0  0  0  0  0  0  0  0  0  0  0
  -22.4410  -28.1340   20.1180 C   0  0  0  0  0  2  0  0  0  0  0  0
  -23.8800  -25.9020   19.0150 C   0  0  0  0  0  1  0  0  0  0  0  0
  -23.9530  -26.8980   20.2260 C   0  0  0  0  0  3  0  0  0  0  0  0
  -25.6060  -26.8600   20.6460 O   0  0  0  0  0  0  0  0  0  0  0  0
  -24.6990  -31.9570   23.2260 C   0  0  0  0  0  0  0  0  0  0  0  0
  -26.7230  -27.4180   20.0490 C   0  0  0  0  0  3  0  0  0  0  0  0
  -23.7000  -30.4100   21.6220 C   0  0  0  0  0  3  0  0  0  0  0  0
  -25.0980  -29.4910   19.7610 C   0  0  0  0  0  3  0  0  0  0  0  0
  -26.1600  -30.8760   21.5120 C   0  0  0  0  0  2  0  0  0  0  0  0
  -26.1610  -29.6310   20.6490 C   0  0  0  0  0  3  0  0  0  0  0  0
  -27.1020  -28.5940   20.7380 C   0  0  0  0  0  2  0  0  0  0  0  0
  -26.2340  -27.5760   18.7830 C   0  0  0  0  0  2  0  0  0  0  0  0
  -25.2260  -28.5640   18.7000 C   0  0  0  0  0  2  0  0  0  0  0  0
  -23.9390  -30.3960   20.0810 C   0  0  0  0  0  2  0  0  0  0  0  0
  -24.8390  -31.1850   22.1240 N   0  0  0  0  0  0  0  0  0  0  0  0
  -23.5890  -32.1930   23.7310 O   0  0  0  0  0  0  0  0  0  0  0  0
  -23.8660  -29.0810   22.5210 C   0  0  0  0  0  0  0  0  0  0  0  0
  -23.2950  -27.8610   22.5370 N   0  0  0  0  0  0  0  0  0  0  0  0
  -24.2570  -29.1460   23.6570 O   0  0  0  0  0  0  0  0  0  0  0  0
  -23.8620  -27.3670   23.2130 H   0  0  0  0  0  0  0  0  0  0  0  0
  -18.2590  -27.3020   22.9050 C   0  0  0  0  0  0  0  0  0  0  0  0
  -21.9840  -27.0690   22.4090 C   0  0  0  0  0  3  0  0  0  0  0  0
  -21.5110  -25.6400   21.3100 C   0  0  0  0  0  3  0  0  0  0  0  0
  -19.7470  -25.1640   21.3310 C   0  0  0  0  0  3  0  0  0  0  0  0
  -18.3400  -25.9440   22.0430 C   0  0  0  0  0  3  0  0  0  0  0  0
  -19.5480  -27.8210   23.3790 C   0  0  0  0  0  3  0  0  0  0  0  0
  -19.1080  -29.0620   24.1930 C   0  0  0  0  0  3  0  0  0  0  0  0
  -17.9270  -29.8800   24.1310 C   0  0  0  0  0  3  0  0  0  0  0  0
  -16.8240  -29.3600   23.4730 C   0  0  0  0  0  3  0  0  0  0  0  0
  -17.0020  -28.0580   22.9370 C   0  0  0  0  0  3  0  0  0  0  0  0
  -25.9680  -32.5340   23.8910 C   0  0  0  0  0  3  0  0  0  0  0  0
  -26.4770  -31.6920   25.1240 C   0  0  1  0  0  0  0  0  0  0  0  0
  -25.3760  -31.3810   26.1630 C   0  0  0  0  0  1  0  0  0  0  0  0
  -27.1350  -30.3540   24.7030 C   0  0  0  0  0  1  0  0  0  0  0  0
  -27.6050  -32.4770   25.8270 C   0  0  0  0  0  1  0  0  0  0  0  0
  -25.6340  -33.9030   24.2770 N   0  0  0  0  0  0  0  0  0  0  0  0
  -25.9090  -34.9740   23.5250 C   0  0  0  0  0  0  0  0  0  0  0  0
  -26.5430  -34.9060   22.4680 O   0  0  0  0  0  0  0  0  0  0  0  0
  -25.0690  -34.0210   25.1050 H   0  0  0  0  0  0  0  0  0  0  0  0
  -24.1500  -36.7460   23.2570 C   0  0  0  0  0  1  0  0  0  0  0  0
  -25.4100  -36.3350   24.0350 C   0  0  0  0  0  3  0  0  0  0  0  0
  -27.5610  -37.1930   24.8450 C   0  0  0  0  0  1  0  0  0  0  0  0
  -26.4300  -37.4010   23.9430 N   0  0  0  0  0  0  0  0  0  0  0  0
  -26.0240  -38.3100   24.1480 H   0  0  0  0  0  0  0  0  0  0  0  0
  5  3  1  0
  5  2  1  0
  5  6  1  6
  8 10  1  0
  9  8  1  0
 11 23  1  0
 12 17  1  0
 13 14  1  0
 13 12  1  0
 15 14  1  0
 15 27  1  0
 15 16  1  0
 17 11  1  0
 17 16  1  0
 18 11  2  0
 19 22  1  0
 20 19  1  0
 20 23  2  0
 24 25  2  0
 25 44  1  0
 26 25  1  0
 26 29  1  0
 27 24  1  0
 27 28  1  0
 28 26  2  0
 29 30  1  0
 30 31  2  0
 32 35  1  0
 32 31  1  0
 33 32  2  0
 34 33  1  0
 34 29  2  0
 35 36  1  0
 36 37  1  0
 37 38  2  0
 39 38  1  0
 39 43  1  0
 40 39  2  0
 41 36  2  0
 41 40  1  0
 42 41  1  0
 44 45  1  0
 45 48  1  0
 45 47  1  0
 46 44  2  0
 49 50  1  0
 49 24  1  0
 51 49  1  0
 52 54  1  0
 52  5  1  0
 54 53  1  0
 54 55  1  0
 56 67  2  0
 57 55  1  0
 57 62  1  0
 58 66  1  0
 58 68  1  0
 59 64  1  0
 59 65  1  0
 59 61  1  0
 60 66  1  0
 61 62  1  0
 61 60  1  0
 63 57  1  0
 64 63  1  0
 65 58  1  0
 66 56  1  0
 68 69  1  0
 68 70  2  0
 69 71  1  0
 72 81  2  0
 72 77  1  0
 73 69  1  0
 74 75  1  0
 74 73  2  0
 75 76  2  0
 76 72  1  0
 77 78  2  0
 79 78  1  0
 80 79  2  0
 81 80  1  0
 82 56  1  0
 82 87  1  0
 82 83  1  0
 83 86  1  1
 83 84  1  0
 85 83  1  0
 87 90  1  0
 88 92  1  0
 88 87  1  0
 89 88  2  0
 92 91  1  0
 94 92  1  0
 94 95  1  0
 94 93  1  0
M  ISO  4  11 100  23 100  54 101  55 101
M  END
>  <TORSDO>  (79) 
F 20

>  <SCORE>  (79) 
26.091

>  <name>  (79) 
79

>  <ligand_id>  (79) 
79

>  <original_smiles>  (79) 
[H]c1c([H])c([H])c2c(c1[H])C([H])([H])C([H])([H])C([H])([H])C2([H])N([H])C(=O)C1([H])N(C(=O)C([H])(N([H])C(=O)C([H])(N([H])C([H])([H])[H])C([H])([H])[H])C(C([H])([H])[H])(C([H])([H])[H])C([H])([H])[H])C([H])([H])c2c([H])c(OC([H])(C([H])([H])[H])C([H])([H])[N+]3([H])C([H])([H])C([H])([H])C([H])(C([H])([H])[N+]([H])([H])C4([H])C([H])([H])N(C(=O)N5C([H])([H])C([H])([H])C([H])([H])C([H])(n6nc(-c7c([H])c([H])c(Oc8c([H])c([H])c(F)c([H])c8F)c([H])c7[H])c(C(=O)N([H])[H])c6N([H])[H])C5([H])[H])C([H])([H])C4([H])[H])C3([H])[H])c([H])c([H])c2C1([H])[H]

>  <smiles>  (79) 
[H]c1c([H])c([H])c2c(c1[H])C([H])([H])C([H])([H])C([H])([H])C2([H])N([H])C(=O)C1([H])N(C(=O)C([H])(N([H])C(=O)C([H])(N([H])C([H])([H])[H])C([H])([H])[H])C(C([H])([H])[H])(C([H])([H])[H])C([H])([H])[H])C([H])([H])c2c([H])c(OC([H])(C([H])([H])[H])C([H])([H])[N+]3([H])C([H])([H])C([H])([H])C([H])(C([H])([H])[N+]([H])([H])C4([H])C([H])([H])N(C(=O)N5C([H])([H])C([H])([H])C([H])([H])C([H])(n6nc(-c7c([H])c([H])c(Oc8c([H])c([H])c(F)c([H])c8F)c([H])c7[H])c(C(=O)N([H])[H])c6N([H])[H])C5([H])[H])C([H])([H])C4([H])[H])C3([H])[H])c([H])c([H])c2C1([H])[H]

$$$$
80:0:0
     RDKit          3D

 98108  0  0  1  0  0  0  0  0999 V2000
  -30.6050  -14.4540   20.4810 C   0  0  0  0  0  0  0  0  0  0  0  0
  -30.4140  -12.2100   19.5120 C   0  0  0  0  0  2  0  0  0  0  0  0
  -29.4790  -12.3100   18.2900 C   0  0  0  0  0  2  0  0  0  0  0  0
  -28.0080  -12.1300   18.7090 C   0  0  0  0  0  2  0  0  0  0  0  0
  -27.6170  -13.0280   19.9130 C   0  0  0  0  0  3  0  0  0  0  0  0
  -28.6690  -12.9520   21.0450 C   0  0  0  0  0  2  0  0  0  0  0  0
  -29.9880  -13.2440   20.4630 N   0  0  0  0  0  0  0  0  0  0  0  0
  -31.7680  -14.6270   20.1090 O   0  0  0  0  0  0  0  0  0  0  0  0
  -30.5600  -21.8470   20.6600 C   0  0  0  0  0  0  0  0  0  0  0  0
  -30.0760  -21.7820   19.3730 C   0  0  0  0  0  0  0  0  0  0  0  0
  -30.1320  -19.7760   20.2560 C   0  0  0  0  0  0  0  0  0  0  0  0
  -30.4850  -17.4810   19.2370 C   0  0  0  0  0  2  0  0  0  0  0  0
  -30.3550  -17.6360   21.5980 C   0  0  0  0  0  2  0  0  0  0  0  0
  -29.5580  -16.2620   19.2390 C   0  0  0  0  0  2  0  0  0  0  0  0
  -29.5370  -16.3210   21.6680 C   0  0  0  0  0  2  0  0  0  0  0  0
  -28.8640  -19.9840   18.0580 C   0  0  0  0  0  1  0  0  0  0  0  0
  -30.6260  -20.5670   21.1980 N   0  0  0  0  0  0  0  0  0  0  0  0
  -29.6530  -20.4620   19.1870 N   0  0  0  0  0  0  0  0  0  0  0  0
  -30.1630  -18.3800   20.3440 N   0  0  0  0  0  0  0  0  0  0  0  0
  -29.7420  -15.4920   20.4770 N   0  0  0  0  0  0  0  0  0  0  0  0
  -25.2070  -13.5800   20.6180 C   0  0  0  0  0  0  0  0  0  0  0  0
  -24.1570  -12.7820   20.9810 C   0  0  0  0  0  0  0  0  0  0  0  0
  -24.6500  -11.4420   20.9440 C   0  0  0  0  0  0  0  0  0  0  0  0
  -26.2740  -12.7230   20.3910 N   0  0  0  0  0  0  0  0  0  0  0  0
  -25.9420  -11.4330   20.6430 N   0  0  0  0  0  0  0  0  0  0  0  0
  -23.9520  -10.1620   21.1200 C   0  0  0  0  0  0  0  0  0  0  0  0
  -24.4000   -9.2020   22.0550 C   0  0  0  0  0  3  0  0  0  0  0  0
  -23.7040   -7.9840   22.2180 C   0  0  0  0  0  3  0  0  0  0  0  0
  -22.5470   -7.7210   21.4470 C   0  0  0  0  0  0  0  0  0  0  0  0
  -22.1210   -8.6700   20.5010 C   0  0  0  0  0  3  0  0  0  0  0  0
  -22.8160   -9.8790   20.3340 C   0  0  0  0  0  3  0  0  0  0  0  0
  -21.8190   -6.5590   21.5250 O   0  0  0  0  0  0  0  0  0  0  0  0
  -21.7430   -5.8290   22.6850 C   0  0  0  0  0  0  0  0  0  0  0  0
  -21.2640   -6.3900   23.8890 C   0  0  0  0  0  3  0  0  0  0  0  0
  -21.1450   -5.5880   25.0410 C   0  0  0  0  0  3  0  0  0  0  0  0
  -21.4900   -4.2220   24.9880 C   0  0  0  0  0  0  0  0  0  0  0  0
  -21.9590   -3.6610   23.7880 C   0  0  0  0  0  3  0  0  0  0  0  0
  -22.0830   -4.4620   22.6400 C   0  0  0  0  0  0  0  0  0  0  0  0
  -22.5160   -3.9110   21.4790 F   0  0  0  0  0  0  0  0  0  0  0  0
  -21.3670   -3.4490   26.0900 F   0  0  0  0  0  0  0  0  0  0  0  0
  -22.7500  -13.2250   21.2570 C   0  0  0  0  0  0  0  0  0  0  0  0
  -22.0350  -12.5000   22.1130 N   0  0  0  0  0  0  0  0  0  0  0  0
  -22.2910  -14.2470   20.7480 O   0  0  0  0  0  0  0  0  0  0  0  0
  -22.4140  -11.6690   22.5450 H   0  0  0  0  0  0  0  0  0  0  0  0
  -21.0930  -12.7780   22.3420 H   0  0  0  0  0  0  0  0  0  0  0  0
  -25.3420  -14.9540   20.4430 N   0  0  0  0  0  0  0  0  0  0  0  0
  -24.5710  -15.6030   20.5570 H   0  0  0  0  0  0  0  0  0  0  0  0
  -26.2010  -15.4100   20.1610 H   0  0  0  0  0  0  0  0  0  0  0  0
  -30.5290  -23.2480   22.8570 C   0  0  0  0  0  2  0  0  0  0  0  0
  -30.0070  -24.1410   21.7660 C   0  0  0  0  0  2  0  0  0  0  0  0
  -31.0050  -23.0480   21.4360 C   0  0  0  0  0  3  0  0  0  0  0  0
  -30.0410  -22.8590   18.3240 C   0  0  0  0  0  2  0  0  0  0  0  0
  -29.0650  -23.9280   18.6030 N   0  0  0  0  0  4  0  0  0  0  0  0
  -28.9270  -23.9900   19.6000 H   0  0  0  0  0  0  0  0  0  0  0  0
  -28.1830  -23.6640   18.1890 H   0  0  0  0  0  0  0  0  0  0  0  0
  -29.4930  -25.2580   18.1000 C   0  0  0  0  0  2  0  0  0  0  0  0
  -28.3630  -26.2950   18.1300 C   0  0  0  0  0  2  0  0  0  0  0  0
  -28.0500  -26.6510   19.4830 O   0  0  0  0  0  0  0  0  0  0  0  0
  -24.5020  -31.7060   23.0630 C   0  0  0  0  0  0  0  0  0  0  0  0
  -26.8900  -27.3740   19.6310 C   0  0  0  0  0  0  0  0  0  0  0  0
  -23.1800  -30.4000   21.4280 C   0  0  0  0  0  3  0  0  0  0  0  0
  -24.5240  -28.8950   19.8700 C   0  0  0  0  0  0  0  0  0  0  0  0
  -25.7000  -30.7140   21.1170 C   0  0  0  0  0  2  0  0  0  0  0  0
  -25.7200  -29.3720   20.4190 C   0  0  0  0  0  0  0  0  0  0  0  0
  -26.9050  -28.6110   20.3120 C   0  0  0  0  0  3  0  0  0  0  0  0
  -25.6690  -26.8920   19.1110 C   0  0  0  0  0  3  0  0  0  0  0  0
  -24.4890  -27.6490   19.2220 C   0  0  0  0  0  3  0  0  0  0  0  0
  -23.3000  -29.7700   20.0140 C   0  0  0  0  0  2  0  0  0  0  0  0
  -24.4820  -30.9540   21.9250 N   0  0  0  0  0  0  0  0  0  0  0  0
  -23.4570  -31.9790   23.6680 O   0  0  0  0  0  0  0  0  0  0  0  0
  -22.5570  -29.3530   22.3780 C   0  0  0  0  0  0  0  0  0  0  0  0
  -21.2250  -29.1970   22.3020 N   0  0  0  0  0  0  0  0  0  0  0  0
  -23.2650  -28.6880   23.1380 O   0  0  0  0  0  0  0  0  0  0  0  0
  -20.7170  -29.7880   21.6580 H   0  0  0  0  0  0  0  0  0  0  0  0
  -17.8580  -28.0140   22.8650 C   0  0  0  0  0  0  0  0  0  0  0  0
  -20.4260  -28.2420   23.0680 C   0  0  0  0  0  3  0  0  0  0  0  0
  -20.4970  -26.8280   22.4480 C   0  0  0  0  0  2  0  0  0  0  0  0
  -19.3610  -26.5430   21.4600 C   0  0  0  0  0  2  0  0  0  0  0  0
  -18.0020  -26.6820   22.1500 C   0  0  0  0  0  2  0  0  0  0  0  0
  -18.9960  -28.7550   23.2820 C   0  0  0  0  0  0  0  0  0  0  0  0
  -18.8070  -30.0040   23.9120 C   0  0  0  0  0  3  0  0  0  0  0  0
  -17.5120  -30.5090   24.1330 C   0  0  0  0  0  3  0  0  0  0  0  0
  -16.3890  -29.7650   23.7320 C   0  0  0  0  0  3  0  0  0  0  0  0
  -16.5640  -28.5200   23.1040 C   0  0  0  0  0  3  0  0  0  0  0  0
  -25.8350  -32.2800   23.6400 C   0  0  0  0  0  3  0  0  0  0  0  0
  -26.4140  -31.4260   24.8340 C   0  0  1  0  0  0  0  0  0  0  0  0
  -25.3850  -31.1470   25.9540 C   0  0  0  0  0  1  0  0  0  0  0  0
  -26.9410  -30.0630   24.3270 C   0  0  0  0  0  1  0  0  0  0  0  0
  -27.6210  -32.1610   25.4660 C   0  0  0  0  0  1  0  0  0  0  0  0
  -25.5700  -33.6610   24.0660 N   0  0  0  0  0  0  0  0  0  0  0  0
  -25.8820  -34.7490   23.3510 C   0  0  0  0  0  0  0  0  0  0  0  0
  -26.4930  -34.6960   22.2790 O   0  0  0  0  0  0  0  0  0  0  0  0
  -25.0200  -33.7770   24.9050 H   0  0  0  0  0  0  0  0  0  0  0  0
  -24.1630  -36.5790   23.2030 C   0  0  0  0  0  1  0  0  0  0  0  0
  -25.4450  -36.1150   23.9130 C   0  0  0  0  0  3  0  0  0  0  0  0
  -27.6410  -36.9190   24.6600 C   0  0  0  0  0  1  0  0  0  0  0  0
  -26.4850  -37.1600   23.7990 N   0  0  0  0  0  0  0  0  0  0  0  0
  -26.1050  -38.0730   24.0310 H   0  0  0  0  0  0  0  0  0  0  0  0
  2  7  1  0
  3  4  1  0
  3  2  1  0
  5  4  1  0
  5 24  1  0
  5  6  1  0
  7  1  1  0
  7  6  1  0
  8  1  2  0
  9 17  1  0
  9 51  1  0
 10  9  2  0
 11 19  1  0
 11 17  2  0
 12 14  1  0
 12 19  1  0
 13 15  1  0
 14 20  1  0
 16 18  1  0
 18 10  1  0
 18 11  1  0
 19 13  1  0
 20  1  1  0
 20 15  1  0
 21 22  2  0
 22 41  1  0
 23 22  1  0
 23 26  1  0
 24 21  1  0
 24 25  1  0
 25 23  2  0
 26 27  1  0
 27 28  2  0
 29 32  1  0
 29 28  1  0
 30 29  2  0
 31 30  1  0
 31 26  2  0
 32 33  1  0
 33 34  1  0
 34 35  2  0
 36 35  1  0
 36 40  1  0
 37 36  2  0
 38 33  2  0
 38 37  1  0
 39 38  1  0
 41 42  1  0
 42 45  1  0
 42 44  1  0
 43 41  2  0
 46 47  1  0
 46 21  1  0
 48 46  1  0
 50 49  1  0
 51 50  1  0
 51 49  1  0
 52 53  1  0
 52 10  1  0
 53 54  1  0
 55 53  1  0
 56 57  1  0
 56 53  1  0
 57 58  1  0
 58 60  1  0
 59 70  2  0
 60 65  1  0
 61 69  1  0
 61 71  1  0
 62 68  1  0
 62 64  1  0
 63 69  1  0
 64 63  1  0
 65 64  2  0
 66 67  1  0
 66 60  2  0
 67 62  2  0
 68 61  1  0
 69 59  1  0
 71 73  2  0
 72 71  1  0
 74 72  1  0
 75 84  2  0
 75 80  1  0
 76 72  1  0
 76 80  1  0
 77 76  1  0
 78 79  1  0
 78 77  1  0
 79 75  1  0
 80 81  2  0
 81 82  1  0
 83 82  2  0
 84 83  1  0
 85 59  1  0
 85 90  1  0
 85 86  1  0
 86 89  1  1
 86 87  1  0
 88 86  1  0
 90 93  1  0
 91 95  1  0
 91 90  1  0
 92 91  2  0
 95 94  1  0
 97 95  1  0
 97 98  1  0
 97 96  1  0
M  ISO  4   1 100  20 100  57 101  58 101
M  END
>  <TORSDO>  (80) 
F 20

>  <SCORE>  (80) 
-12.979

>  <name>  (80) 
80

>  <ligand_id>  (80) 
80

>  <original_smiles>  (80) 
[H]c1c([H])c([H])c2c(c1[H])C([H])([H])C([H])([H])C([H])([H])C2([H])N([H])C(=O)C1([H])N(C(=O)C([H])(N([H])C(=O)C([H])(N([H])C([H])([H])[H])C([H])([H])[H])C(C([H])([H])[H])(C([H])([H])[H])C([H])([H])[H])C([H])([H])c2c([H])c(OC([H])([H])C([H])([H])[N+]([H])([H])C([H])([H])c3c(C4([H])C([H])([H])C4([H])[H])nc(N4C([H])([H])C([H])([H])N(C(=O)N5C([H])([H])C([H])([H])C([H])([H])C([H])(n6nc(-c7c([H])c([H])c(Oc8c([H])c([H])c(F)c([H])c8F)c([H])c7[H])c(C(=O)N([H])[H])c6N([H])[H])C5([H])[H])C([H])([H])C4([H])[H])n3C([H])([H])[H])c([H])c([H])c2C1([H])[H]

>  <smiles>  (80) 
[H]c1c([H])c([H])c2c(c1[H])C([H])([H])C([H])([H])C([H])([H])C2([H])N([H])C(=O)C1([H])N(C(=O)C([H])(N([H])C(=O)C([H])(N([H])C([H])([H])[H])C([H])([H])[H])C(C([H])([H])[H])(C([H])([H])[H])C([H])([H])[H])C([H])([H])c2c([H])c(OC([H])([H])C([H])([H])[N+]([H])([H])C([H])([H])c3c(C4([H])C([H])([H])C4([H])[H])nc(N4C([H])([H])C([H])([H])N(C(=O)N5C([H])([H])C([H])([H])C([H])([H])C([H])(n6nc(-c7c([H])c([H])c(Oc8c([H])c([H])c(F)c([H])c8F)c([H])c7[H])c(C(=O)N([H])[H])c6N([H])[H])C5([H])[H])C([H])([H])C4([H])[H])n3C([H])([H])[H])c([H])c([H])c2C1([H])[H]

$$$$
81:0:0
     RDKit          3D

 96105  0  0  1  0  0  0  0  0999 V2000
  -29.1410  -21.9450   18.5870 C   0  0  0  0  0  2  0  0  0  0  0  0
  -29.3510  -20.4880   18.9890 C   0  0  0  0  0  2  0  0  0  0  0  0
  -30.4200  -21.7720   20.6360 C   0  0  0  0  0  2  0  0  0  0  0  0
  -29.6420  -22.7810   19.7750 C   0  0  0  0  0  3  0  0  0  0  0  0
  -29.7330  -20.4830   20.4160 N   0  0  2  0  0  4  0  0  0  0  0  0
  -28.8700  -20.5220   20.9430 H   0  0  0  0  0  0  0  0  0  0  0  0
  -31.0740  -24.7700   20.5260 C   0  0  0  0  0  1  0  0  0  0  0  0
  -30.3800  -24.0690   19.3380 C   0  0  0  0  0  3  0  0  0  0  0  0
  -29.3840  -24.9350   18.6530 N   0  0  0  0  0  4  0  0  0  0  0  0
  -29.0720  -24.4540   17.8230 H   0  0  0  0  0  0  0  0  0  0  0  0
  -28.5810  -25.0460   19.2550 H   0  0  0  0  0  0  0  0  0  0  0  0
  -29.7730  -26.3090   18.2590 C   0  0  0  0  0  2  0  0  0  0  0  0
  -29.4250  -27.3310   19.3570 C   0  0  0  0  0  2  0  0  0  0  0  0
  -28.3810  -26.7680   20.1510 O   0  0  0  0  0  0  0  0  0  0  0  0
  -24.5640  -31.8930   23.2620 C   0  0  0  0  0  0  0  0  0  0  0  0
  -27.2240  -27.4960   20.1870 C   0  0  0  0  0  0  0  0  0  0  0  0
  -23.3620  -30.4870   21.6190 C   0  0  0  0  0  3  0  0  0  0  0  0
  -24.8240  -28.9570   20.1990 C   0  0  0  0  0  0  0  0  0  0  0  0
  -25.8830  -30.8650   21.4220 C   0  0  0  0  0  2  0  0  0  0  0  0
  -25.9750  -29.4960   20.7880 C   0  0  0  0  0  0  0  0  0  0  0  0
  -27.1840  -28.7700   20.7850 C   0  0  0  0  0  3  0  0  0  0  0  0
  -26.0570  -26.9440   19.6240 C   0  0  0  0  0  3  0  0  0  0  0  0
  -24.8570  -27.6770   19.6180 C   0  0  0  0  0  3  0  0  0  0  0  0
  -23.5760  -29.8110   20.2390 C   0  0  0  0  0  2  0  0  0  0  0  0
  -24.6220  -31.0940   22.1620 N   0  0  0  0  0  0  0  0  0  0  0  0
  -23.4830  -32.1640   23.8010 O   0  0  0  0  0  0  0  0  0  0  0  0
  -22.7200  -29.4580   22.5750 C   0  0  0  0  0  0  0  0  0  0  0  0
  -21.3950  -29.2740   22.4470 N   0  0  0  0  0  0  0  0  0  0  0  0
  -23.4060  -28.8340   23.3870 O   0  0  0  0  0  0  0  0  0  0  0  0
  -20.9040  -29.8330   21.7650 H   0  0  0  0  0  0  0  0  0  0  0  0
  -18.0190  -28.0980   22.9420 C   0  0  0  0  0  0  0  0  0  0  0  0
  -20.5770  -28.3360   23.2140 C   0  0  0  0  0  3  0  0  0  0  0  0
  -20.6710  -26.9070   22.6290 C   0  0  0  0  0  2  0  0  0  0  0  0
  -19.5670  -26.5960   21.6150 C   0  0  0  0  0  2  0  0  0  0  0  0
  -18.1860  -26.7490   22.2610 C   0  0  0  0  0  2  0  0  0  0  0  0
  -19.1430  -28.8500   23.3740 C   0  0  0  0  0  0  0  0  0  0  0  0
  -18.9340  -30.1140   23.9670 C   0  0  0  0  0  3  0  0  0  0  0  0
  -17.6320  -30.6240   24.1310 C   0  0  0  0  0  3  0  0  0  0  0  0
  -16.5230  -29.8680   23.7180 C   0  0  0  0  0  3  0  0  0  0  0  0
  -16.7170  -28.6050   23.1290 C   0  0  0  0  0  3  0  0  0  0  0  0
  -25.8510  -32.5250   23.8820 C   0  0  0  0  0  3  0  0  0  0  0  0
  -25.5460  -33.9240   24.2020 N   0  0  0  0  0  0  0  0  0  0  0  0
  -25.8940  -34.9690   23.4380 C   0  0  0  0  0  0  0  0  0  0  0  0
  -26.5770  -34.8550   22.4170 O   0  0  0  0  0  0  0  0  0  0  0  0
  -24.9360  -34.0870   24.9910 H   0  0  0  0  0  0  0  0  0  0  0  0
  -24.1800  -36.7630   23.0370 C   0  0  0  0  0  1  0  0  0  0  0  0
  -25.4040  -36.3620   23.8760 C   0  0  0  0  0  3  0  0  0  0  0  0
  -27.5280  -37.2390   24.7440 C   0  0  0  0  0  1  0  0  0  0  0  0
  -26.4450  -37.4090   23.7780 N   0  0  0  0  0  0  0  0  0  0  0  0
  -26.0430  -38.3320   23.9130 H   0  0  0  0  0  0  0  0  0  0  0  0
  -26.3680  -31.7560   25.1600 C   0  0  1  0  0  0  0  0  0  0  0  0
  -25.2680  -31.5170   26.2200 C   0  0  0  0  0  1  0  0  0  0  0  0
  -26.9560  -30.3800   24.7680 C   0  0  0  0  0  1  0  0  0  0  0  0
  -27.5110  -32.5550   25.8270 C   0  0  0  0  0  1  0  0  0  0  0  0
  -30.4810  -19.2900   20.9040 C   0  0  0  0  0  2  0  0  0  0  0  0
  -30.6730  -14.4410   20.4940 C   0  0  0  0  0  0  0  0  0  0  0  0
  -30.3880  -12.2850   19.3620 C   0  0  0  0  0  2  0  0  0  0  0  0
  -29.4420  -12.4250   18.1500 C   0  0  0  0  0  2  0  0  0  0  0  0
  -27.9590  -12.3080   18.5650 C   0  0  0  0  0  2  0  0  0  0  0  0
  -27.6050  -13.1700   19.8020 C   0  0  0  0  0  3  0  0  0  0  0  0
  -28.6550  -13.0050   20.9280 C   0  0  0  0  0  2  0  0  0  0  0  0
  -29.9870  -13.2790   20.3660 N   0  0  0  0  0  0  0  0  0  0  0  0
  -31.8670  -14.5680   20.2140 O   0  0  0  0  0  0  0  0  0  0  0  0
  -29.8600  -17.4490   19.1910 C   0  0  0  0  0  2  0  0  0  0  0  0
  -29.3530  -16.0400   19.3420 C   0  0  0  0  0  2  0  0  0  0  0  0
  -30.2930  -16.7270   21.3900 C   0  0  0  0  0  2  0  0  0  0  0  0
  -29.7560  -17.9520   20.6220 C   0  0  0  0  0  3  0  0  0  0  0  0
  -29.8900  -15.5390   20.6120 N   0  0  0  0  0  0  0  0  0  0  0  0
  -25.2050  -13.8300   20.4680 C   0  0  0  0  0  0  0  0  0  0  0  0
  -24.1240  -13.0720   20.8330 C   0  0  0  0  0  0  0  0  0  0  0  0
  -24.5790  -11.7190   20.8330 C   0  0  0  0  0  0  0  0  0  0  0  0
  -26.2460  -12.9330   20.2720 N   0  0  0  0  0  0  0  0  0  0  0  0
  -25.8720  -11.6630   20.5520 N   0  0  0  0  0  0  0  0  0  0  0  0
  -23.8480  -10.4630   21.0270 C   0  0  0  0  0  0  0  0  0  0  0  0
  -24.2690   -9.5080   21.9780 C   0  0  0  0  0  3  0  0  0  0  0  0
  -23.5430   -8.3120   22.1600 C   0  0  0  0  0  3  0  0  0  0  0  0
  -22.3810   -8.0650   21.3920 C   0  0  0  0  0  0  0  0  0  0  0  0
  -21.9790   -9.0080   20.4310 C   0  0  0  0  0  3  0  0  0  0  0  0
  -22.7060  -10.1950   20.2460 C   0  0  0  0  0  3  0  0  0  0  0  0
  -21.6250   -6.9220   21.4830 O   0  0  0  0  0  0  0  0  0  0  0  0
  -21.5620   -6.1920   22.6420 C   0  0  0  0  0  0  0  0  0  0  0  0
  -21.1220   -6.7590   23.8600 C   0  0  0  0  0  3  0  0  0  0  0  0
  -21.0100   -5.9550   25.0110 C   0  0  0  0  0  3  0  0  0  0  0  0
  -21.3270   -4.5850   24.9450 C   0  0  0  0  0  0  0  0  0  0  0  0
  -21.7580   -4.0170   23.7340 C   0  0  0  0  0  3  0  0  0  0  0  0
  -21.8730   -4.8190   22.5850 C   0  0  0  0  0  0  0  0  0  0  0  0
  -22.2690   -4.2630   21.4150 F   0  0  0  0  0  0  0  0  0  0  0  0
  -21.2120   -3.8090   26.0480 F   0  0  0  0  0  0  0  0  0  0  0  0
  -22.7240  -13.5600   21.0720 C   0  0  0  0  0  0  0  0  0  0  0  0
  -21.9760  -12.8780   21.9330 N   0  0  0  0  0  0  0  0  0  0  0  0
  -22.2990  -14.5770   20.5260 O   0  0  0  0  0  0  0  0  0  0  0  0
  -22.3260  -12.0520   22.3940 H   0  0  0  0  0  0  0  0  0  0  0  0
  -21.0320  -13.1830   22.1280 H   0  0  0  0  0  0  0  0  0  0  0  0
  -25.3870  -15.1960   20.2690 N   0  0  0  0  0  0  0  0  0  0  0  0
  -24.6310  -15.8670   20.3620 H   0  0  0  0  0  0  0  0  0  0  0  0
  -26.2640  -15.6210   19.9980 H   0  0  0  0  0  0  0  0  0  0  0  0
  1  2  1  0
  1  4  1  0
  2  5  1  0
  4  8  1  0
  4  3  1  0
  5  3  1  0
  5 55  1  0
  5  6  1  1
  8  7  1  0
  9 11  1  0
  9  8  1  0
 10  9  1  0
 12  9  1  0
 12 13  1  0
 13 14  1  0
 14 16  1  0
 15 26  2  0
 16 21  1  0
 17 25  1  0
 17 27  1  0
 18 24  1  0
 18 20  1  0
 19 25  1  0
 20 19  1  0
 21 20  2  0
 22 16  2  0
 23 22  1  0
 23 18  2  0
 24 17  1  0
 25 15  1  0
 27 29  2  0
 28 27  1  0
 30 28  1  0
 31 40  2  0
 31 36  1  0
 32 28  1  0
 32 36  1  0
 33 32  1  0
 34 35  1  0
 34 33  1  0
 35 31  1  0
 36 37  2  0
 37 38  1  0
 39 38  2  0
 40 39  1  0
 41 15  1  0
 41 42  1  0
 41 51  1  0
 42 45  1  0
 43 47  1  0
 43 42  1  0
 44 43  2  0
 47 46  1  0
 49 47  1  0
 49 50  1  0
 49 48  1  0
 51 54  1  1
 51 52  1  0
 53 51  1  0
 56 68  1  0
 57 62  1  0
 58 59  1  0
 58 57  1  0
 60 59  1  0
 60 72  1  0
 60 61  1  0
 62 56  1  0
 62 61  1  0
 63 56  2  0
 64 65  1  0
 64 67  1  0
 65 68  1  0
 67 55  1  0
 67 66  1  0
 68 66  1  0
 69 70  2  0
 70 71  1  0
 70 89  1  0
 71 74  1  0
 72 69  1  0
 72 73  1  0
 73 71  2  0
 74 75  1  0
 75 76  2  0
 77 80  1  0
 77 76  1  0
 78 77  2  0
 79 78  1  0
 79 74  2  0
 80 81  1  0
 81 82  1  0
 82 83  2  0
 84 83  1  0
 84 88  1  0
 85 84  2  0
 86 81  2  0
 86 85  1  0
 87 86  1  0
 89 90  1  0
 90 93  1  0
 90 92  1  0
 91 89  2  0
 94 95  1  0
 94 69  1  0
 96 94  1  0
M  ISO  4  13 101  14 101  56 100  68 100
M  END
>  <TORSDO>  (81) 
F 21

>  <SCORE>  (81) 
-13.654

>  <name>  (81) 
81

>  <ligand_id>  (81) 
81

>  <original_smiles>  (81) 
[H]c1c([H])c([H])c2c(c1[H])C([H])([H])C([H])([H])C([H])([H])C2([H])N([H])C(=O)C1([H])N(C(=O)C([H])(N([H])C(=O)C([H])(N([H])C([H])([H])[H])C([H])([H])[H])C(C([H])([H])[H])(C([H])([H])[H])C([H])([H])[H])C([H])([H])c2c([H])c(OC([H])([H])C([H])([H])[N+]([H])([H])C([H])(C([H])([H])[H])C3([H])C([H])([H])C([H])([H])[N+]([H])(C([H])([H])C4([H])C([H])([H])N(C(=O)N5C([H])([H])C([H])([H])C([H])([H])C([H])(n6nc(-c7c([H])c([H])c(Oc8c([H])c([H])c(F)c([H])c8F)c([H])c7[H])c(C(=O)N([H])[H])c6N([H])[H])C5([H])[H])C([H])([H])C4([H])[H])C3([H])[H])c([H])c([H])c2C1([H])[H]

>  <smiles>  (81) 
[H]c1c([H])c([H])c2c(c1[H])C([H])([H])C([H])([H])C([H])([H])C2([H])N([H])C(=O)C1([H])N(C(=O)C([H])(N([H])C(=O)C([H])(N([H])C([H])([H])[H])C([H])([H])[H])C(C([H])([H])[H])(C([H])([H])[H])C([H])([H])[H])C([H])([H])c2c([H])c(OC([H])([H])C([H])([H])[N+]([H])([H])C([H])(C([H])([H])[H])C3([H])C([H])([H])C([H])([H])[N+]([H])(C([H])([H])C4([H])C([H])([H])N(C(=O)N5C([H])([H])C([H])([H])C([H])([H])C([H])(n6nc(-c7c([H])c([H])c(Oc8c([H])c([H])c(F)c([H])c8F)c([H])c7[H])c(C(=O)N([H])[H])c6N([H])[H])C5([H])[H])C([H])([H])C4([H])[H])C3([H])[H])c([H])c([H])c2C1([H])[H]

$$$$
82:0:0
     RDKit          3D

 96100  0  0  1  0  0  0  0  0999 V2000
  -22.9970  -24.0320   18.5040 C   0  0  0  0  0  3  0  0  0  0  0  0
  -22.6130  -25.3500   18.9540 C   0  0  0  0  0  0  0  0  0  0  0  0
  -23.2540  -26.0320   20.0440 C   0  0  0  0  0  3  0  0  0  0  0  0
  -24.8910  -23.3780   19.8680 C   0  0  0  0  0  3  0  0  0  0  0  0
  -27.0820  -20.8530   20.7750 C   0  0  0  0  0  3  0  0  0  0  0  0
  -26.3210  -20.4290   19.0940 C   0  0  0  0  0  3  0  0  0  0  0  0
  -27.8000  -19.5500   19.6960 C   0  0  0  0  0  2  0  0  0  0  0  0
  -24.0030  -23.1730   18.8930 N   0  0  0  0  0  0  0  0  0  0  0  0
  -24.4090  -24.8600   20.4050 N   0  0  0  0  0  0  0  0  0  0  0  0
  -26.1140  -21.8750   19.8900 N   0  0  0  0  0  2  0  0  0  0  0  0
  -29.6620  -16.4170   19.6120 C   0  0  0  0  0  0  0  0  0  0  0  0
  -30.4550  -13.8140   18.8590 C   0  0  0  0  0  2  0  0  0  0  0  0
  -29.6390  -13.0400   17.7660 C   0  0  0  0  0  2  0  0  0  0  0  0
  -28.3210  -12.5030   18.3380 C   0  0  0  0  0  2  0  0  0  0  0  0
  -27.7520  -13.5250   19.3370 C   0  0  0  0  0  3  0  0  0  0  0  0
  -28.7450  -14.0120   20.3890 C   0  0  0  0  0  2  0  0  0  0  0  0
  -29.6050  -14.9030   19.6190 N   0  0  0  0  0  0  0  0  0  0  0  0
  -30.8970  -16.5280   19.3100 O   0  0  0  0  0  0  0  0  0  0  0  0
  -28.4890  -17.6610   19.7850 N   0  0  0  0  0  2  0  0  0  0  0  0
  -27.6810  -17.1300   20.0830 H   0  0  0  0  0  0  0  0  0  0  0  0
  -25.5880  -14.0490   20.4490 C   0  0  0  0  0  0  0  0  0  0  0  0
  -24.5680  -13.2690   20.8930 C   0  0  0  0  0  0  0  0  0  0  0  0
  -24.9780  -11.9160   20.6740 C   0  0  0  0  0  0  0  0  0  0  0  0
  -26.5270  -13.1640   19.9680 N   0  0  0  0  0  0  0  0  0  0  0  0
  -26.2060  -11.8700   20.1770 N   0  0  0  0  0  0  0  0  0  0  0  0
  -24.2390  -10.6640   20.8340 C   0  0  0  0  0  0  0  0  0  0  0  0
  -24.6860   -9.6500   21.7080 C   0  0  0  0  0  3  0  0  0  0  0  0
  -23.9390   -8.4630   21.8580 C   0  0  0  0  0  3  0  0  0  0  0  0
  -22.7350   -8.2880   21.1360 C   0  0  0  0  0  0  0  0  0  0  0  0
  -22.3110   -9.2910   20.2470 C   0  0  0  0  0  3  0  0  0  0  0  0
  -23.0580  -10.4690   20.0940 C   0  0  0  0  0  3  0  0  0  0  0  0
  -21.9540   -7.1600   21.2030 O   0  0  0  0  0  0  0  0  0  0  0  0
  -21.8210   -6.4490   22.3670 C   0  0  0  0  0  0  0  0  0  0  0  0
  -21.3430   -7.0450   23.5550 C   0  0  0  0  0  3  0  0  0  0  0  0
  -21.1580   -6.2600   24.7110 C   0  0  0  0  0  3  0  0  0  0  0  0
  -21.4380   -4.8800   24.6770 C   0  0  0  0  0  0  0  0  0  0  0  0
  -21.9110   -4.2850   23.4930 C   0  0  0  0  0  3  0  0  0  0  0  0
  -22.0990   -5.0680   22.3410 C   0  0  0  0  0  0  0  0  0  0  0  0
  -22.5340   -4.4870   21.1970 F   0  0  0  0  0  0  0  0  0  0  0  0
  -21.2520   -4.1230   25.7830 F   0  0  0  0  0  0  0  0  0  0  0  0
  -23.2430  -13.7620   21.3790 C   0  0  0  0  0  0  0  0  0  0  0  0
  -22.6080  -13.0210   22.2780 N   0  0  0  0  0  0  0  0  0  0  0  0
  -22.7870  -14.8400   20.9950 O   0  0  0  0  0  0  0  0  0  0  0  0
  -23.0000  -12.1530   22.6110 H   0  0  0  0  0  0  0  0  0  0  0  0
  -21.7180  -13.3290   22.6460 H   0  0  0  0  0  0  0  0  0  0  0  0
  -25.7840  -15.4280   20.3690 N   0  0  0  0  0  0  0  0  0  0  0  0
  -24.9820  -16.0300   20.5270 H   0  0  0  0  0  0  0  0  0  0  0  0
  -26.4160  -15.7980   19.6720 H   0  0  0  0  0  0  0  0  0  0  0  0
  -21.4070  -25.9510   18.2060 C   0  0  0  0  0  2  0  0  0  0  0  0
  -21.7510  -26.6700   16.9590 N   0  0  0  0  0  4  0  0  0  0  0  0
  -22.1830  -26.0640   16.2830 H   0  0  0  0  0  0  0  0  0  0  0  0
  -22.3520  -27.4610   17.1040 H   0  0  0  0  0  0  0  0  0  0  0  0
  -20.9010  -27.0130   16.5390 H   0  0  0  0  0  0  0  0  0  0  0  0
  -22.4430  -28.0080   20.5130 C   0  0  0  0  0 15  0  0  0  0  0  0
  -23.0160  -29.5180   22.5940 C   0  0  0  0  0 15  0  0  0  0  0  0
  -25.3210  -28.9600   22.8210 O   0  0  0  0  0  1  0  0  0  0  0  0
  -24.5770  -31.6020   22.8360 C   0  0  0  0  0  0  0  0  0  0  0  0
  -26.4320  -28.1610   21.9680 C   0  0  0  0  0  3  0  0  0  0  0  0
  -24.2300  -29.1050   20.9460 C   0  0  0  0  0  2  0  0  0  0  0  0
  -25.7400  -28.8460   19.6110 C   0  0  0  0  0  3  0  0  0  0  0  0
  -26.0040  -31.0300   20.9300 C   0  0  0  0  0  2  0  0  0  0  0  0
  -26.5570  -29.7040   20.4370 C   0  0  0  0  0  3  0  0  0  0  0  0
  -27.3310  -29.0430   21.3820 C   0  0  0  0  0  2  0  0  0  0  0  0
  -26.2830  -27.0900   20.9740 C   0  0  0  0  0  2  0  0  0  0  0  0
  -25.8460  -27.4540   19.6990 C   0  0  0  0  0  2  0  0  0  0  0  0
  -24.3700  -29.1950   19.4700 C   0  0  0  0  0  2  0  0  0  0  0  0
  -24.7240  -30.7770   21.5710 N   0  0  0  0  0  0  0  0  0  0  0  0
  -23.4770  -31.8680   23.3730 O   0  0  0  0  0  0  0  0  0  0  0  0
  -23.8260  -27.2430   22.6100 C   0  0  0  0  0  2  0  0  0  0  0  0
  -22.4020  -27.1360   23.2330 N   0  0  0  0  0  0  0  0  0  0  0  0
  -24.2790  -27.1640   23.7420 O   0  0  0  0  0  1  0  0  0  0  0  0
  -22.6040  -26.7290   24.1360 H   0  0  0  0  0  0  0  0  0  0  0  0
  -18.1770  -27.7390   22.6740 C   0  0  0  0  0  0  0  0  0  0  0  0
  -20.7850  -27.3190   23.1610 C   0  0  0  0  0  3  0  0  0  0  0  0
  -20.4610  -26.0050   22.5110 C   0  0  0  0  0  2  0  0  0  0  0  0
  -19.4300  -26.0360   21.3970 C   0  0  0  0  0  2  0  0  0  0  0  0
  -18.1260  -26.3770   22.0320 C   0  0  0  0  0  2  0  0  0  0  0  0
  -19.4290  -28.3250   23.1390 C   0  0  0  0  0  0  0  0  0  0  0  0
  -19.2010  -29.6210   23.7270 C   0  0  0  0  0  3  0  0  0  0  0  0
  -17.8980  -30.2220   23.8460 C   0  0  0  0  0  3  0  0  0  0  0  0
  -16.7320  -29.5760   23.3970 C   0  0  0  0  0  3  0  0  0  0  0  0
  -16.8920  -28.3280   22.7990 C   0  0  0  0  0  3  0  0  0  0  0  0
  -25.6940  -32.3550   23.7640 C   0  0  0  0  0  3  0  0  0  0  0  0
  -26.0750  -31.7030   25.1950 C   0  0  1  0  0  0  0  0  0  0  0  0
  -24.8810  -31.4550   26.1560 C   0  0  0  0  0  1  0  0  0  0  0  0
  -26.8050  -30.3580   25.0300 C   0  0  0  0  0  1  0  0  0  0  0  0
  -27.0800  -32.6080   25.9750 C   0  0  0  0  0  1  0  0  0  0  0  0
  -25.2490  -33.7460   24.0880 N   0  0  0  0  0  0  0  0  0  0  0  0
  -25.6450  -34.8640   23.4590 C   0  0  0  0  0  0  0  0  0  0  0  0
  -26.4200  -34.8240   22.5040 O   0  0  0  0  0  0  0  0  0  0  0  0
  -24.5480  -33.8280   24.8100 H   0  0  0  0  0  0  0  0  0  0  0  0
  -23.8500  -36.6080   23.0900 C   0  0  0  0  0  1  0  0  0  0  0  0
  -25.0880  -36.2350   23.9250 C   0  0  0  0  0  3  0  0  0  0  0  0
  -27.1460  -37.2490   24.8180 C   0  0  0  0  0  1  0  0  0  0  0  0
  -26.0690  -37.3430   23.8360 N   0  0  0  0  0  0  0  0  0  0  0  0
  -25.6060  -38.2410   23.9470 H   0  0  0  0  0  0  0  0  0  0  0  0
  1  8  2  0
  1  2  1  0
  2  3  2  0
  3  9  1  0
  4  9  2  0
  5  7  1  0
  6  7  1  0
  6 10  1  0
  6  5  1  0
  8  4  1  0
 10  5  1  0
 11 17  1  0
 11 19  1  0
 12 17  1  0
 13 14  1  0
 13 12  1  0
 15 14  1  0
 15 24  1  0
 15 16  1  0
 17 16  1  0
 18 11  2  0
 19 20  1  0
 21 22  2  0
 22 41  1  0
 23 26  1  0
 23 22  1  0
 24 25  1  0
 24 21  1  0
 25 23  2  0
 26 27  1  0
 27 28  2  0
 29 32  1  0
 29 28  1  0
 30 29  2  0
 31 30  1  0
 31 26  2  0
 32 33  1  0
 33 34  1  0
 34 35  2  0
 36 35  1  0
 36 40  1  0
 37 36  2  0
 38 33  2  0
 38 37  1  0
 39 38  1  0
 41 42  1  0
 42 44  1  0
 42 45  1  0
 43 41  2  0
 46 21  1  0
 46 47  1  0
 48 46  1  0
 49  2  1  0
 50 52  1  0
 50 49  1  0
 51 50  1  0
 53 50  1  0
 57 68  2  0
 58 56  1  0
 59 67  1  0
 60 66  1  0
 60 65  1  0
 60 62  1  0
 61 67  1  0
 62 61  1  0
 62 63  1  0
 63 58  1  0
 64 58  1  0
 65 64  1  0
 66 59  1  0
 67 57  1  0
 69 70  1  0
 69 71  1  0
 70 72  1  0
 73 82  2  0
 73 78  1  0
 74 70  1  0
 75 74  1  0
 76 77  1  0
 76 75  1  0
 77 73  1  0
 78 74  1  0
 78 79  2  0
 79 80  1  0
 81 80  2  0
 82 81  1  0
 83 57  1  0
 83 88  1  0
 83 84  1  0
 84 87  1  1
 84 85  1  0
 86 84  1  0
 88 91  1  0
 89 93  1  0
 89 88  1  0
 90 89  2  0
 93 92  1  0
 95 93  1  0
 95 96  1  0
 95 94  1  0
M  ISO  4  11 100  19 100  55 101  56 101
M  END
>  <TORSDO>  (82) 
F 20

>  <SCORE>  (82) 
-12.723

>  <name>  (82) 
82

>  <ligand_id>  (82) 
82

>  <original_smiles>  (82) 
[H]c1nc(N2C([H])([H])C([H])(N([H])C(=O)N3C([H])([H])C([H])([H])C([H])([H])C([H])(n4nc(-c5c([H])c([H])c(Oc6c([H])c([H])c(F)c([H])c6F)c([H])c5[H])c(C(=O)N([H])[H])c4N([H])[H])C3([H])[H])C2([H])[H])nc(C([H])([H])C([H])([H])Oc2c([H])c([H])c3c(c2[H])C([H])([H])N(C(=O)C([H])(N([H])C(=O)C([H])(N([H])C([H])([H])[H])C([H])([H])[H])C(C([H])([H])[H])(C([H])([H])[H])C([H])([H])[H])C([H])(C(=O)N([H])C2([H])c4c([H])c([H])c([H])c([H])c4C([H])([H])C([H])([H])C2([H])[H])C3([H])[H])c1C([H])([H])[N+]([H])([H])[H]

>  <smiles>  (82) 
[H]c1nc(N2C([H])([H])C([H])(N([H])C(=O)N3C([H])([H])C([H])([H])C([H])([H])C([H])(n4nc(-c5c([H])c([H])c(Oc6c([H])c([H])c(F)c([H])c6F)c([H])c5[H])c(C(=O)N([H])[H])c4N([H])[H])C3([H])[H])C2([H])[H])nc(C([H])([H])C([H])([H])Oc2c([H])c([H])c3c(c2[H])C([H])([H])N(C(=O)C([H])(N([H])C(=O)C([H])(N([H])C([H])([H])[H])C([H])([H])[H])C(C([H])([H])[H])(C([H])([H])[H])C([H])([H])[H])C([H])(C(=O)N([H])C2([H])c4c([H])c([H])c([H])c([H])c4C([H])([H])C([H])([H])C2([H])[H])C3([H])[H])c1C([H])([H])[N+]([H])([H])[H]

$$$$
83:0:0
     RDKit          3D

101110  0  0  1  0  0  0  0  0999 V2000
  -27.7310  -22.3630   18.1350 C   0  0  0  0  0  3  0  0  0  0  0  0
  -27.8200  -22.7310   19.4880 C   0  0  0  0  0  0  0  0  0  0  0  0
  -29.0670  -22.4900   20.1090 C   0  0  0  0  0  0  0  0  0  0  0  0
  -29.9450  -21.7770   18.1090 C   0  0  0  0  0  0  0  0  0  0  0  0
  -28.7930  -21.9000   17.4610 N   0  0  0  0  0  0  0  0  0  0  0  0
  -30.1130  -22.0040   19.4100 N   0  0  0  0  0  0  0  0  0  0  0  0
  -26.5980  -23.3010   20.2090 C   0  0  0  0  0  2  0  0  0  0  0  0
  -26.6710  -24.8240   20.4370 C   0  0  0  0  0  2  0  0  0  0  0  0
  -26.2490  -25.6050   19.2530 N   0  0  0  0  0  4  0  0  0  0  0  0
  -25.3880  -25.2140   18.8980 H   0  0  0  0  0  0  0  0  0  0  0  0
  -26.9410  -25.5150   18.5240 H   0  0  0  0  0  0  0  0  0  0  0  0
  -26.0630  -27.0460   19.5400 C   0  0  0  0  0  2  0  0  0  0  0  0
  -24.7330  -27.6000   18.9950 C   0  0  0  0  0  2  0  0  0  0  0  0
  -24.5470  -28.9420   19.4470 O   0  0  0  0  0  0  0  0  0  0  0  0
  -26.9680  -32.2520   25.2420 C   0  0  0  0  0  0  0  0  0  0  0  0
  -24.3520  -29.1660   20.7930 C   0  0  0  0  0  0  0  0  0  0  0  0
  -25.1350  -30.6350   25.6270 C   0  0  0  0  0  3  0  0  0  0  0  0
  -23.9850  -29.7530   23.5340 C   0  0  0  0  0  0  0  0  0  0  0  0
  -25.3790  -31.8230   23.3750 C   0  0  0  0  0  2  0  0  0  0  0  0
  -24.7590  -30.6010   22.7330 C   0  0  0  0  0  0  0  0  0  0  0  0
  -24.9390  -30.3140   21.3650 C   0  0  0  0  0  3  0  0  0  0  0  0
  -23.5780  -28.3130   21.6180 C   0  0  0  0  0  3  0  0  0  0  0  0
  -23.3960  -28.6040   22.9820 C   0  0  0  0  0  3  0  0  0  0  0  0
  -23.8120  -30.1480   24.9810 C   0  0  0  0  0  2  0  0  0  0  0  0
  -25.8870  -31.5860   24.7470 N   0  0  0  0  0  0  0  0  0  0  0  0
  -27.3110  -32.1190   26.4250 O   0  0  0  0  0  0  0  0  0  0  0  0
  -25.9620  -29.3960   26.0410 C   0  0  0  0  0  0  0  0  0  0  0  0
  -25.9800  -29.0990   27.3500 N   0  0  0  0  0  0  0  0  0  0  0  0
  -26.5410  -28.7110   25.1940 O   0  0  0  0  0  0  0  0  0  0  0  0
  -25.4930  -29.7190   27.9830 H   0  0  0  0  0  0  0  0  0  0  0  0
  -26.9110  -27.6310   30.5160 C   0  0  0  0  0  0  0  0  0  0  0  0
  -26.6600  -27.9590   27.9640 C   0  0  0  0  0  3  0  0  0  0  0  0
  -25.7430  -26.7150   27.9970 C   0  0  0  0  0  2  0  0  0  0  0  0
  -24.9530  -26.5800   29.3020 C   0  0  0  0  0  2  0  0  0  0  0  0
  -25.9050  -26.4930   30.4990 C   0  0  0  0  0  2  0  0  0  0  0  0
  -27.2540  -28.3300   29.3280 C   0  0  0  0  0  0  0  0  0  0  0  0
  -28.1650  -29.4050   29.4060 C   0  0  0  0  0  3  0  0  0  0  0  0
  -28.7310  -29.7840   30.6370 C   0  0  0  0  0  3  0  0  0  0  0  0
  -28.4000  -29.0790   31.8080 C   0  0  0  0  0  3  0  0  0  0  0  0
  -27.4970  -28.0030   31.7430 C   0  0  0  0  0  3  0  0  0  0  0  0
  -27.8060  -33.2290   24.3600 C   0  0  0  0  0  3  0  0  0  0  0  0
  -27.3530  -34.5940   24.6570 N   0  0  0  0  0  0  0  0  0  0  0  0
  -26.6260  -35.3510   23.8240 C   0  0  0  0  0  0  0  0  0  0  0  0
  -26.3220  -34.9920   22.6820 O   0  0  0  0  0  0  0  0  0  0  0  0
  -27.5180  -34.9350   25.5930 H   0  0  0  0  0  0  0  0  0  0  0  0
  -24.6360  -36.8570   24.1320 C   0  0  0  0  0  1  0  0  0  0  0  0
  -26.1530  -36.7220   24.3420 C   0  0  0  0  0  3  0  0  0  0  0  0
  -28.3010  -37.8090   23.8610 C   0  0  0  0  0  1  0  0  0  0  0  0
  -26.8500  -37.8620   23.7090 N   0  0  0  0  0  0  0  0  0  0  0  0
  -26.5200  -38.7430   24.0910 H   0  0  0  0  0  0  0  0  0  0  0  0
  -29.3630  -33.0950   24.5860 C   0  0  1  0  0  0  0  0  0  0  0  0
  -29.8590  -33.7580   25.8920 C   0  0  0  0  0  1  0  0  0  0  0  0
  -29.7800  -31.6050   24.6230 C   0  0  0  0  0  1  0  0  0  0  0  0
  -30.1230  -33.7400   23.4020 C   0  0  0  0  0  1  0  0  0  0  0  0
  -29.3220  -22.6480   21.6000 C   0  0  0  0  0  2  0  0  0  0  0  0
  -29.4550  -21.3120   22.1820 N   0  0  0  0  0  4  0  0  0  0  0  0
  -30.1060  -20.8170   21.5990 H   0  0  0  0  0  0  0  0  0  0  0  0
  -28.5680  -20.8420   22.1540 H   0  0  0  0  0  0  0  0  0  0  0  0
  -29.7870  -21.3610   23.1260 H   0  0  0  0  0  0  0  0  0  0  0  0
  -31.1740  -21.3110   17.3240 C   0  0  0  0  0  2  0  0  0  0  0  0
  -33.5330  -23.4180   13.3560 C   0  0  0  0  0  0  0  0  0  0  0  0
  -33.1690  -25.0540   11.5350 C   0  0  0  0  0  2  0  0  0  0  0  0
  -32.9650  -26.4580   12.1470 C   0  0  0  0  0  2  0  0  0  0  0  0
  -31.4910  -26.6870   12.5530 C   0  0  0  0  0  2  0  0  0  0  0  0
  -30.8970  -25.4990   13.3540 C   0  0  0  0  0  3  0  0  0  0  0  0
  -31.2150  -24.1770   12.6290 C   0  0  0  0  0  2  0  0  0  0  0  0
  -32.6780  -24.0680   12.5140 N   0  0  0  0  0  0  0  0  0  0  0  0
  -34.7510  -23.3840   13.1380 O   0  0  0  0  0  0  0  0  0  0  0  0
  -33.3410  -22.7630   16.9790 C   0  0  0  0  0  2  0  0  0  0  0  0
  -33.8760  -23.5750   15.7950 C   0  0  0  0  0  2  0  0  0  0  0  0
  -32.1550  -22.1280   15.0490 C   0  0  0  0  0  2  0  0  0  0  0  0
  -31.9260  -22.4110   16.5340 C   0  0  0  0  0  3  0  0  0  0  0  0
  -33.0760  -23.1920   14.6160 N   0  0  0  0  0  0  0  0  0  0  0  0
  -28.7470  -25.6330   14.7660 C   0  0  0  0  0  0  0  0  0  0  0  0
  -27.4500  -25.9050   14.4290 C   0  0  0  0  0  0  0  0  0  0  0  0
  -27.4430  -26.1020   13.0130 C   0  0  0  0  0  0  0  0  0  0  0  0
  -29.4640  -25.6640   13.5780 N   0  0  0  0  0  0  0  0  0  0  0  0
  -28.6540  -25.8980   12.5140 N   0  0  0  0  0  0  0  0  0  0  0  0
  -26.3630  -26.5280   12.1130 C   0  0  0  0  0  0  0  0  0  0  0  0
  -25.4400  -25.6030   11.5790 C   0  0  0  0  0  3  0  0  0  0  0  0
  -24.4020  -26.0380   10.7280 C   0  0  0  0  0  3  0  0  0  0  0  0
  -24.2780  -27.4100   10.4050 C   0  0  0  0  0  0  0  0  0  0  0  0
  -25.2130  -28.3250   10.9240 C   0  0  0  0  0  3  0  0  0  0  0  0
  -26.2480  -27.8890   11.7670 C   0  0  0  0  0  3  0  0  0  0  0  0
  -23.3180  -27.9210    9.5660 O   0  0  0  0  0  0  0  0  0  0  0  0
  -22.0100  -28.0510    9.9630 C   0  0  0  0  0  0  0  0  0  0  0  0
  -21.5910  -29.0930   10.8190 C   0  0  0  0  0  3  0  0  0  0  0  0
  -20.2270  -29.2320   11.1450 C   0  0  0  0  0  3  0  0  0  0  0  0
  -19.2810  -28.3370   10.6110 C   0  0  0  0  0  0  0  0  0  0  0  0
  -19.6950  -27.3010    9.7570 C   0  0  0  0  0  3  0  0  0  0  0  0
  -21.0550  -27.1610    9.4320 C   0  0  0  0  0  0  0  0  0  0  0  0
  -21.4460  -26.1740    8.5890 F   0  0  0  0  0  0  0  0  0  0  0  0
  -17.9690  -28.4740   10.9180 F   0  0  0  0  0  0  0  0  0  0  0  0
  -26.2920  -26.0700   15.3740 C   0  0  0  0  0  0  0  0  0  0  0  0
  -25.1400  -25.4980   15.0430 N   0  0  0  0  0  0  0  0  0  0  0  0
  -26.4210  -26.6650   16.4430 O   0  0  0  0  0  0  0  0  0  0  0  0
  -25.0380  -24.9960   14.1730 H   0  0  0  0  0  0  0  0  0  0  0  0
  -24.3500  -25.5660   15.6700 H   0  0  0  0  0  0  0  0  0  0  0  0
  -29.3850  -25.3800   15.9780 N   0  0  0  0  0  0  0  0  0  0  0  0
  -28.8940  -25.3890   16.8650 H   0  0  0  0  0  0  0  0  0  0  0  0
  -30.3830  -25.2450   16.0770 H   0  0  0  0  0  0  0  0  0  0  0  0
  1  2  2  0
  2  3  1  0
  2  7  1  0
  3 55  1  0
  4  6  1  0
  5  4  2  0
  5  1  1  0
  6  3  2  0
  7  8  1  0
  9 12  1  0
  9  8  1  0
 10  9  1  0
 11  9  1  0
 13 14  1  0
 13 12  1  0
 14 16  1  0
 15 26  2  0
 16 21  2  0
 16 22  1  0
 17 27  1  0
 18 24  1  0
 19 25  1  0
 20 19  1  0
 20 18  2  0
 21 20  1  0
 22 23  2  0
 23 18  1  0
 24 17  1  0
 25 15  1  0
 25 17  1  0
 27 28  1  0
 28 30  1  0
 29 27  2  0
 31 40  1  0
 32 28  1  0
 32 33  1  0
 32 36  1  0
 33 34  1  0
 34 35  1  0
 35 31  1  0
 36 37  1  0
 36 31  2  0
 37 38  2  0
 38 39  1  0
 40 39  2  0
 41 51  1  0
 41 42  1  0
 41 15  1  0
 42 45  1  0
 43 47  1  0
 43 42  1  0
 44 43  2  0
 47 46  1  0
 49 48  1  0
 49 50  1  0
 49 47  1  0
 51 53  1  1
 51 52  1  0
 54 51  1  0
 55 56  1  0
 56 59  1  0
 57 56  1  0
 58 56  1  0
 60  4  1  0
 61 73  1  0
 62 63  1  0
 62 67  1  0
 63 64  1  0
 65 64  1  0
 65 77  1  0
 66 65  1  0
 67 66  1  0
 67 61  1  0
 68 61  2  0
 70 69  1  0
 71 72  1  0
 72 69  1  0
 72 60  1  0
 73 71  1  0
 73 70  1  0
 74 99  1  0
 75 74  2  0
 75 94  1  0
 76 75  1  0
 77 74  1  0
 78 76  2  0
 78 77  1  0
 79 76  1  0
 80 79  2  0
 81 80  1  0
 82 81  2  0
 82 83  1  0
 83 84  2  0
 84 79  1  0
 85 86  1  0
 85 82  1  0
 86 87  1  0
 87 88  2  0
 89 93  1  0
 89 88  1  0
 90 89  2  0
 91 90  1  0
 91 86  2  0
 92 91  1  0
 94 96  2  0
 95 94  1  0
 95 98  1  0
 97 95  1  0
 99101  1  0
 99100  1  0
M  ISO  4  13 101  14 101  61 100  73 100
M  END
>  <TORSDO>  (83) 
F 24

>  <SCORE>  (83) 
-7.011

>  <name>  (83) 
83

>  <ligand_id>  (83) 
83

>  <original_smiles>  (83) 
[H]c1nc(C([H])([H])C2([H])C([H])([H])N(C(=O)N3C([H])([H])C([H])([H])C([H])([H])C([H])(n4nc(-c5c([H])c([H])c(Oc6c([H])c([H])c(F)c([H])c6F)c([H])c5[H])c(C(=O)N([H])[H])c4N([H])[H])C3([H])[H])C([H])([H])C2([H])[H])nc(C([H])([H])[N+]([H])([H])[H])c1C([H])([H])C([H])([H])[N+]([H])([H])C([H])([H])C([H])([H])Oc1c([H])c([H])c2c(c1[H])C([H])([H])N(C(=O)C([H])(N([H])C(=O)C([H])(N([H])C([H])([H])[H])C([H])([H])[H])C(C([H])([H])[H])(C([H])([H])[H])C([H])([H])[H])C([H])(C(=O)N([H])C1([H])c3c([H])c([H])c([H])c([H])c3C([H])([H])C([H])([H])C1([H])[H])C2([H])[H]

>  <smiles>  (83) 
[H]c1nc(C([H])([H])C2([H])C([H])([H])N(C(=O)N3C([H])([H])C([H])([H])C([H])([H])C([H])(n4nc(-c5c([H])c([H])c(Oc6c([H])c([H])c(F)c([H])c6F)c([H])c5[H])c(C(=O)N([H])[H])c4N([H])[H])C3([H])[H])C([H])([H])C2([H])[H])nc(C([H])([H])[N+]([H])([H])[H])c1C([H])([H])C([H])([H])[N+]([H])([H])C([H])([H])C([H])([H])Oc1c([H])c([H])c2c(c1[H])C([H])([H])N(C(=O)C([H])(N([H])C(=O)C([H])(N([H])C([H])([H])[H])C([H])([H])[H])C(C([H])([H])[H])(C([H])([H])[H])C([H])([H])[H])C([H])(C(=O)N([H])C1([H])c3c([H])c([H])c([H])c([H])c3C([H])([H])C([H])([H])C1([H])[H])C2([H])[H]

$$$$
84:0:0
     RDKit          3D

102112  0  0  1  0  0  0  0  0999 V2000
  -31.4470  -23.8950   18.6220 C   0  0  0  0  0  2  0  0  0  0  0  0
  -32.5060  -24.1750   20.7360 C   0  0  0  0  0  2  0  0  0  0  0  0
  -32.9530  -23.7390   18.3870 C   0  0  0  0  0  3  0  0  0  0  0  0
  -33.5180  -23.4350   19.8040 C   0  0  2  0  0  0  0  0  0  0  0  0
  -33.5400  -24.9810   17.6800 C   0  0  0  0  0  1  0  0  0  0  0  0
  -31.3210  -24.5600   19.9300 N   0  0  2  0  0  4  0  0  0  0  0  0
  -31.4220  -25.5480   19.7430 H   0  0  0  0  0  0  0  0  0  0  0  0
  -34.7120  -21.1470   19.6880 C   0  0  0  0  0  3  0  0  0  0  0  0
  -33.7110  -19.2170   20.4350 C   0  0  0  0  0  3  0  0  0  0  0  0
  -33.5490  -21.8980   20.0040 C   0  0  0  0  0  0  0  0  0  0  0  0
  -32.5140  -19.9300   20.6930 C   0  0  0  0  0  0  0  0  0  0  0  0
  -34.7990  -19.8140   19.9010 N   0  0  0  0  0  0  0  0  0  0  0  0
  -32.4300  -21.2680   20.4560 N   0  0  0  0  0  0  0  0  0  0  0  0
  -31.3070  -19.2810   21.3770 C   0  0  0  0  0  2  0  0  0  0  0  0
  -31.4220  -13.9910   19.8800 C   0  0  0  0  0  0  0  0  0  0  0  0
  -30.9190  -11.7940   18.8810 C   0  0  0  0  0  2  0  0  0  0  0  0
  -29.9400  -12.0040   17.7070 C   0  0  0  0  0  2  0  0  0  0  0  0
  -28.4750  -12.0290   18.1950 C   0  0  0  0  0  2  0  0  0  0  0  0
  -28.2670  -12.9580   19.4200 C   0  0  0  0  0  3  0  0  0  0  0  0
  -29.3440  -12.6850   20.4920 C   0  0  0  0  0  2  0  0  0  0  0  0
  -30.6650  -12.8580   19.8640 N   0  0  0  0  0  0  0  0  0  0  0  0
  -32.5240  -14.0680   19.3230 O   0  0  0  0  0  0  0  0  0  0  0  0
  -30.4630  -15.5300   21.5670 C   0  0  0  0  0  2  0  0  0  0  0  0
  -30.5750  -16.1900   19.1800 C   0  0  0  0  0  2  0  0  0  0  0  0
  -31.1980  -16.8320   21.9470 C   0  0  0  0  0  2  0  0  0  0  0  0
  -31.2810  -17.5050   19.5750 C   0  0  0  0  0  2  0  0  0  0  0  0
  -30.7390  -15.1210   20.1820 N   0  0  0  0  0  0  0  0  0  0  0  0
  -30.9200  -17.9030   20.9570 N   0  0  2  0  0  4  0  0  0  0  0  0
  -29.9130  -17.9670   20.9470 H   0  0  0  0  0  0  0  0  0  0  0  0
  -26.0000  -13.8330   20.2750 C   0  0  0  0  0  0  0  0  0  0  0  0
  -24.8700  -13.1830   20.6930 C   0  0  0  0  0  0  0  0  0  0  0  0
  -25.1630  -11.7880   20.6110 C   0  0  0  0  0  0  0  0  0  0  0  0
  -26.9170  -12.8390   19.9690 N   0  0  0  0  0  0  0  0  0  0  0  0
  -26.4190  -11.6040   20.2260 N   0  0  0  0  0  0  0  0  0  0  0  0
  -24.3050  -10.6160   20.8200 C   0  0  0  0  0  0  0  0  0  0  0  0
  -24.6530   -9.6000   21.7380 C   0  0  0  0  0  3  0  0  0  0  0  0
  -23.8010   -8.4920   21.9360 C   0  0  0  0  0  3  0  0  0  0  0  0
  -22.5870   -8.3930   21.2150 C   0  0  0  0  0  0  0  0  0  0  0  0
  -22.2570   -9.3950   20.2860 C   0  0  0  0  0  3  0  0  0  0  0  0
  -23.1080  -10.4940   20.0860 C   0  0  0  0  0  3  0  0  0  0  0  0
  -21.7100   -7.3420   21.3240 O   0  0  0  0  0  0  0  0  0  0  0  0
  -21.5890   -6.6220   22.4850 C   0  0  0  0  0  0  0  0  0  0  0  0
  -21.2460   -7.2350   23.7110 C   0  0  0  0  0  3  0  0  0  0  0  0
  -21.0660   -6.4480   24.8650 C   0  0  0  0  0  3  0  0  0  0  0  0
  -21.2170   -5.0500   24.7960 C   0  0  0  0  0  0  0  0  0  0  0  0
  -21.5520   -4.4380   23.5760 C   0  0  0  0  0  3  0  0  0  0  0  0
  -21.7340   -5.2220   22.4230 C   0  0  0  0  0  0  0  0  0  0  0  0
  -22.0370   -4.6240   21.2450 F   0  0  0  0  0  0  0  0  0  0  0  0
  -21.0340   -4.2920   25.9030 F   0  0  0  0  0  0  0  0  0  0  0  0
  -23.5560  -13.8150   21.0570 C   0  0  0  0  0  0  0  0  0  0  0  0
  -22.8150  -13.2010   21.9730 N   0  0  0  0  0  0  0  0  0  0  0  0
  -23.2020  -14.8830   20.5620 O   0  0  0  0  0  0  0  0  0  0  0  0
  -23.1140  -12.3350   22.3950 H   0  0  0  0  0  0  0  0  0  0  0  0
  -21.9330  -13.6050   22.2600 H   0  0  0  0  0  0  0  0  0  0  0  0
  -26.3180  -15.1780   20.1130 N   0  0  0  0  0  0  0  0  0  0  0  0
  -25.6380  -15.9150   20.2670 H   0  0  0  0  0  0  0  0  0  0  0  0
  -27.1880  -15.5160   19.7210 H   0  0  0  0  0  0  0  0  0  0  0  0
  -35.5730  -23.6560   21.4160 C   0  0  0  0  0  1  0  0  0  0  0  0
  -34.9400  -24.0310   20.0610 C   0  0  0  0  0  2  0  0  0  0  0  0
  -30.0020  -24.3870   20.5860 C   0  0  0  0  0  2  0  0  0  0  0  0
  -29.5560  -25.6440   21.3500 C   0  0  0  0  0  2  0  0  0  0  0  0
  -29.5150  -26.7650   20.4590 O   0  0  0  0  0  0  0  0  0  0  0  0
  -25.0360  -31.4950   23.2850 C   0  0  0  0  0  0  0  0  0  0  0  0
  -28.2860  -27.3730   20.3800 C   0  0  0  0  0  0  0  0  0  0  0  0
  -24.0720  -29.9820   21.5790 C   0  0  0  0  0  3  0  0  0  0  0  0
  -25.7540  -28.6080   20.2420 C   0  0  0  0  0  0  0  0  0  0  0  0
  -26.5520  -30.6030   21.5220 C   0  0  0  0  0  2  0  0  0  0  0  0
  -26.8140  -29.2520   20.8940 C   0  0  0  0  0  0  0  0  0  0  0  0
  -28.0860  -28.6430   20.9590 C   0  0  0  0  0  3  0  0  0  0  0  0
  -27.2150  -26.7380   19.7160 C   0  0  0  0  0  3  0  0  0  0  0  0
  -25.9490  -27.3480   19.6480 C   0  0  0  0  0  3  0  0  0  0  0  0
  -24.4260  -29.3300   20.2160 C   0  0  0  0  0  2  0  0  0  0  0  0
  -25.2330  -30.7080   22.1890 N   0  0  0  0  0  0  0  0  0  0  0  0
  -23.9060  -31.6540   23.7640 O   0  0  0  0  0  0  0  0  0  0  0  0
  -23.4750  -28.8980   22.5060 C   0  0  0  0  0  0  0  0  0  0  0  0
  -22.2070  -28.5310   22.2560 N   0  0  0  0  0  0  0  0  0  0  0  0
  -24.1550  -28.3870   23.4000 O   0  0  0  0  0  0  0  0  0  0  0  0
  -21.7170  -29.0010   21.5090 H   0  0  0  0  0  0  0  0  0  0  0  0
  -19.0290  -26.8210   22.3960 C   0  0  0  0  0  0  0  0  0  0  0  0
  -21.4540  -27.5030   22.9730 C   0  0  0  0  0  3  0  0  0  0  0  0
  -21.8590  -26.0870   22.5000 C   0  0  0  0  0  2  0  0  0  0  0  0
  -20.9670  -25.5500   21.3760 C   0  0  0  0  0  2  0  0  0  0  0  0
  -19.5050  -25.4930   21.8300 C   0  0  0  0  0  2  0  0  0  0  0  0
  -19.9460  -27.7710   22.9180 C   0  0  0  0  0  0  0  0  0  0  0  0
  -19.4560  -29.0040   23.4000 C   0  0  0  0  0  3  0  0  0  0  0  0
  -18.0800  -29.2930   23.3680 C   0  0  0  0  0  3  0  0  0  0  0  0
  -17.1740  -28.3430   22.8650 C   0  0  0  0  0  3  0  0  0  0  0  0
  -17.6480  -27.1090   22.3860 C   0  0  0  0  0  3  0  0  0  0  0  0
  -26.2170  -32.2480   23.9750 C   0  0  0  0  0  3  0  0  0  0  0  0
  -25.7470  -33.6020   24.3000 N   0  0  0  0  0  0  0  0  0  0  0  0
  -26.0000  -34.6920   23.5640 C   0  0  0  0  0  0  0  0  0  0  0  0
  -26.7250  -34.6720   22.5640 O   0  0  0  0  0  0  0  0  0  0  0  0
  -25.1020  -33.6840   25.0720 H   0  0  0  0  0  0  0  0  0  0  0  0
  -24.0990  -36.2850   23.1470 C   0  0  0  0  0  1  0  0  0  0  0  0
  -25.3450  -36.0140   24.0050 C   0  0  0  0  0  3  0  0  0  0  0  0
  -27.3380  -37.1190   24.9180 C   0  0  0  0  0  1  0  0  0  0  0  0
  -26.2580  -37.1760   23.9380 N   0  0  0  0  0  0  0  0  0  0  0  0
  -25.7460  -38.0440   24.0790 H   0  0  0  0  0  0  0  0  0  0  0  0
  -26.7540  -31.5170   25.2650 C   0  0  1  0  0  0  0  0  0  0  0  0
  -25.6450  -31.1470   26.2760 C   0  0  0  0  0  1  0  0  0  0  0  0
  -27.4990  -30.2160   24.8850 C   0  0  0  0  0  1  0  0  0  0  0  0
  -27.7820  -32.4180   25.9890 C   0  0  0  0  0  1  0  0  0  0  0  0
  1  6  1  0
  3  5  1  0
  3  1  1  0
  3  4  1  0
  4 10  1  0
  4 59  1  6
  4  2  1  0
  6 60  1  0
  6  2  1  0
  6  7  1  6
  8 12  2  0
  8 10  1  0
  9 11  2  0
 10 13  2  0
 11 14  1  0
 12  9  1  0
 13 11  1  0
 15 27  1  0
 16 21  1  0
 17 18  1  0
 17 16  1  0
 19 18  1  0
 19 33  1  0
 19 20  1  0
 21 15  1  0
 21 20  1  0
 22 15  2  0
 23 25  1  0
 24 26  1  0
 24 27  1  0
 26 28  1  0
 27 23  1  0
 28 14  1  0
 28 25  1  0
 28 29  1  6
 30 31  2  0
 31 50  1  0
 32 31  1  0
 32 35  1  0
 33 34  1  0
 33 30  1  0
 34 32  2  0
 35 36  1  0
 36 37  2  0
 38 41  1  0
 38 37  1  0
 39 38  2  0
 40 39  1  0
 40 35  2  0
 41 42  1  0
 42 43  1  0
 43 44  2  0
 45 44  1  0
 45 49  1  0
 46 45  2  0
 47 42  2  0
 47 46  1  0
 48 47  1  0
 50 51  1  0
 51 54  1  0
 51 53  1  0
 52 50  2  0
 55 56  1  0
 55 30  1  0
 57 55  1  0
 59 58  1  0
 60 61  1  0
 62 61  1  0
 63 74  2  0
 64 62  1  0
 64 69  1  0
 65 73  1  0
 65 75  1  0
 66 68  1  0
 67 73  1  0
 68 69  2  0
 68 67  1  0
 70 64  2  0
 71 70  1  0
 71 66  2  0
 72 66  1  0
 72 65  1  0
 73 63  1  0
 75 77  2  0
 76 75  1  0
 78 76  1  0
 79 84  1  0
 80 76  1  0
 81 80  1  0
 82 83  1  0
 82 81  1  0
 83 79  1  0
 84 80  1  0
 84 85  2  0
 86 85  1  0
 87 86  2  0
 88 79  2  0
 88 87  1  0
 89 63  1  0
 89 90  1  0
 89 99  1  0
 90 93  1  0
 91 95  1  0
 91 90  1  0
 92 91  2  0
 95 94  1  0
 97 95  1  0
 97 98  1  0
 97 96  1  0
 99102  1  1
 99100  1  0
101 99  1  0
M  ISO  4  15 100  27 100  61 101  62 101
M  END
>  <TORSDO>  (84) 
F 21

>  <SCORE>  (84) 
-10.917

>  <name>  (84) 
84

>  <ligand_id>  (84) 
84

>  <original_smiles>  (84) 
[H]c1nc([H])c(C([H])([H])[N+]2([H])C([H])([H])C([H])([H])N(C(=O)N3C([H])([H])C([H])([H])C([H])([H])C([H])(n4nc(-c5c([H])c([H])c(Oc6c([H])c([H])c(F)c([H])c6F)c([H])c5[H])c(C(=O)N([H])[H])c4N([H])[H])C3([H])[H])C([H])([H])C2([H])[H])nc1C1(C([H])([H])C([H])([H])[H])C([H])(C([H])([H])[H])C([H])([H])[N+]([H])(C([H])([H])C([H])([H])Oc2c([H])c([H])c3c(c2[H])C([H])([H])N(C(=O)C([H])(N([H])C(=O)C([H])(N([H])C([H])([H])[H])C([H])([H])[H])C(C([H])([H])[H])(C([H])([H])[H])C([H])([H])[H])C([H])(C(=O)N([H])C2([H])c4c([H])c([H])c([H])c([H])c4C([H])([H])C([H])([H])C2([H])[H])C3([H])[H])C1([H])[H]

>  <smiles>  (84) 
[H]c1nc([H])c(C([H])([H])[N+]2([H])C([H])([H])C([H])([H])N(C(=O)N3C([H])([H])C([H])([H])C([H])([H])C([H])(n4nc(-c5c([H])c([H])c(Oc6c([H])c([H])c(F)c([H])c6F)c([H])c5[H])c(C(=O)N([H])[H])c4N([H])[H])C3([H])[H])C([H])([H])C2([H])[H])nc1C1(C([H])([H])C([H])([H])[H])C([H])(C([H])([H])[H])C([H])([H])[N+]([H])(C([H])([H])C([H])([H])Oc2c([H])c([H])c3c(c2[H])C([H])([H])N(C(=O)C([H])(N([H])C(=O)C([H])(N([H])C([H])([H])[H])C([H])([H])[H])C(C([H])([H])[H])(C([H])([H])[H])C([H])([H])[H])C([H])(C(=O)N([H])C2([H])c4c([H])c([H])c([H])c([H])c4C([H])([H])C([H])([H])C2([H])[H])C3([H])[H])C1([H])[H]

$$$$
85:0:0
     RDKit          3D

 94103  0  0  1  0  0  0  0  0999 V2000
  -30.1860  -22.4760   19.4540 C   0  0  0  0  0  3  0  0  0  0  0  0
  -28.0390  -22.4190   19.6890 C   0  0  0  0  0  3  0  0  0  0  0  0
  -29.0810  -21.5710   19.3390 C   0  0  0  0  0  0  0  0  0  0  0  0
  -29.8530  -23.7170   19.8370 N   0  0  0  0  0  0  0  0  0  0  0  0
  -28.5060  -23.7180   19.9660 N   0  0  0  0  0  0  0  0  0  0  0  0
  -29.0210  -20.0830   18.8060 C   0  0  0  0  0  2  0  0  0  0  0  0
  -31.1170  -14.5890   19.4930 C   0  0  0  0  0  0  0  0  0  0  0  0
  -30.6520  -12.3220   18.5820 C   0  0  0  0  0  2  0  0  0  0  0  0
  -29.6240  -12.3600   17.4360 C   0  0  0  0  0  2  0  0  0  0  0  0
  -28.1940  -12.2520   17.9990 C   0  0  0  0  0  2  0  0  0  0  0  0
  -27.9460  -13.2100   19.1970 C   0  0  0  0  0  3  0  0  0  0  0  0
  -29.1000  -13.1600   20.2210 C   0  0  0  0  0  2  0  0  0  0  0  0
  -30.3320  -13.4560   19.4830 N   0  0  0  0  0  0  0  0  0  0  0  0
  -32.3010  -14.4640   19.1700 O   0  0  0  0  0  0  0  0  0  0  0  0
  -29.3810  -16.4760   20.0550 C   0  0  0  0  0  2  0  0  0  0  0  0
  -31.4460  -16.9610   18.8500 C   0  0  0  0  0  2  0  0  0  0  0  0
  -29.4390  -18.0240   20.4230 C   0  0  0  0  0  3  0  0  0  0  0  0
  -30.7130  -18.2360   18.3020 C   0  0  0  0  0  3  0  0  0  0  0  0
  -28.1470  -18.4580   21.1460 C   0  0  0  0  0  1  0  0  0  0  0  0
  -30.5890  -15.8840   19.4270 N   0  0  0  0  0  0  0  0  0  0  0  0
  -29.9500  -18.9860   19.3590 N   0  0  1  0  0  4  0  0  0  0  0  0
  -30.6460  -19.5110   19.8660 H   0  0  0  0  0  0  0  0  0  0  0  0
  -25.6760  -13.9080   20.1630 C   0  0  0  0  0  0  0  0  0  0  0  0
  -24.6090  -13.1810   20.6170 C   0  0  0  0  0  0  0  0  0  0  0  0
  -24.9940  -11.8090   20.5150 C   0  0  0  0  0  0  0  0  0  0  0  0
  -26.6450  -12.9800   19.8150 N   0  0  0  0  0  0  0  0  0  0  0  0
  -26.2470  -11.7120   20.0890 N   0  0  0  0  0  0  0  0  0  0  0  0
  -24.2200  -10.5800   20.7460 C   0  0  0  0  0  0  0  0  0  0  0  0
  -24.6140   -9.6310   21.7150 C   0  0  0  0  0  3  0  0  0  0  0  0
  -23.8420   -8.4690   21.9320 C   0  0  0  0  0  3  0  0  0  0  0  0
  -22.6630   -8.2490   21.1820 C   0  0  0  0  0  0  0  0  0  0  0  0
  -22.2890   -9.1850   20.2030 C   0  0  0  0  0  3  0  0  0  0  0  0
  -23.0600  -10.3390   19.9830 C   0  0  0  0  0  3  0  0  0  0  0  0
  -21.8650   -7.1360   21.3070 O   0  0  0  0  0  0  0  0  0  0  0  0
  -21.6960   -6.5040   22.5120 C   0  0  0  0  0  0  0  0  0  0  0  0
  -21.1710   -7.1740   23.6390 C   0  0  0  0  0  3  0  0  0  0  0  0
  -20.9500   -6.4680   24.8380 C   0  0  0  0  0  3  0  0  0  0  0  0
  -21.2420   -5.0920   24.9100 C   0  0  0  0  0  0  0  0  0  0  0  0
  -21.7600   -4.4220   23.7890 C   0  0  0  0  0  3  0  0  0  0  0  0
  -21.9840   -5.1260   22.5910 C   0  0  0  0  0  0  0  0  0  0  0  0
  -22.4620   -4.4700   21.5060 F   0  0  0  0  0  0  0  0  0  0  0  0
  -21.0220   -4.4120   26.0600 F   0  0  0  0  0  0  0  0  0  0  0  0
  -23.2700  -13.7240   21.0250 C   0  0  0  0  0  0  0  0  0  0  0  0
  -22.5910  -13.0520   21.9490 N   0  0  0  0  0  0  0  0  0  0  0  0
  -22.8380  -14.7760   20.5560 O   0  0  0  0  0  0  0  0  0  0  0  0
  -22.9560  -12.2030   22.3560 H   0  0  0  0  0  0  0  0  0  0  0  0
  -21.6950  -13.3980   22.2600 H   0  0  0  0  0  0  0  0  0  0  0  0
  -25.8900  -15.2730   19.9920 N   0  0  0  0  0  0  0  0  0  0  0  0
  -25.1600  -15.9540   20.1750 H   0  0  0  0  0  0  0  0  0  0  0  0
  -26.7080  -15.6730   19.5540 H   0  0  0  0  0  0  0  0  0  0  0  0
  -32.5650  -18.5660   16.4590 C   0  0  0  0  0  1  0  0  0  0  0  0
  -31.6970  -19.1890   17.5670 C   0  0  0  0  0  2  0  0  0  0  0  0
  -27.7560  -24.9030   20.5180 C   0  0  0  0  0  2  0  0  0  0  0  0
  -28.0570  -26.2020   19.9470 O   0  0  0  0  0  0  0  0  0  0  0  0
  -24.2580  -31.5150   23.0140 C   0  0  0  0  0  0  0  0  0  0  0  0
  -26.9680  -27.0760   19.9000 C   0  0  0  0  0  0  0  0  0  0  0  0
  -23.0950  -30.1320   21.3320 C   0  0  0  0  0  3  0  0  0  0  0  0
  -24.5860  -28.6410   19.8850 C   0  0  0  0  0  0  0  0  0  0  0  0
  -25.6280  -30.5010   21.1810 C   0  0  0  0  0  2  0  0  0  0  0  0
  -25.7390  -29.1400   20.5040 C   0  0  0  0  0  0  0  0  0  0  0  0
  -26.9390  -28.3700   20.5020 C   0  0  0  0  0  3  0  0  0  0  0  0
  -25.8000  -26.6270   19.2520 C   0  0  0  0  0  3  0  0  0  0  0  0
  -24.6180  -27.3910   19.2450 C   0  0  0  0  0  3  0  0  0  0  0  0
  -23.3320  -29.4900   19.9390 C   0  0  0  0  0  2  0  0  0  0  0  0
  -24.3460  -30.7310   21.9000 N   0  0  0  0  0  0  0  0  0  0  0  0
  -23.1660  -31.7640   23.5430 O   0  0  0  0  0  0  0  0  0  0  0  0
  -22.4400  -29.0840   22.2640 C   0  0  0  0  0  0  0  0  0  0  0  0
  -21.1130  -28.9130   22.1410 N   0  0  0  0  0  0  0  0  0  0  0  0
  -23.1250  -28.4300   23.0550 O   0  0  0  0  0  0  0  0  0  0  0  0
  -20.6200  -29.4910   21.4760 H   0  0  0  0  0  0  0  0  0  0  0  0
  -17.7340  -27.7270   22.6520 C   0  0  0  0  0  0  0  0  0  0  0  0
  -20.2990  -27.9520   22.8900 C   0  0  0  0  0  3  0  0  0  0  0  0
  -20.3770  -26.5430   22.2570 C   0  0  0  0  0  2  0  0  0  0  0  0
  -19.2560  -26.2710   21.2490 C   0  0  0  0  0  2  0  0  0  0  0  0
  -17.8870  -26.4040   21.9220 C   0  0  0  0  0  2  0  0  0  0  0  0
  -18.8670  -28.4620   23.0930 C   0  0  0  0  0  0  0  0  0  0  0  0
  -18.6700  -29.7030   23.7380 C   0  0  0  0  0  3  0  0  0  0  0  0
  -17.3730  -30.2080   23.9450 C   0  0  0  0  0  3  0  0  0  0  0  0
  -16.2550  -29.4700   23.5200 C   0  0  0  0  0  3  0  0  0  0  0  0
  -16.4370  -28.2320   22.8790 C   0  0  0  0  0  3  0  0  0  0  0  0
  -25.5260  -32.1540   23.6620 C   0  0  0  0  0  3  0  0  0  0  0  0
  -26.0260  -31.3790   24.9420 C   0  0  1  0  0  0  0  0  0  0  0  0
  -24.9130  -31.1190   25.9860 C   0  0  0  0  0  1  0  0  0  0  0  0
  -26.6330  -30.0120   24.5540 C   0  0  0  0  0  1  0  0  0  0  0  0
  -27.1530  -32.1810   25.6330 C   0  0  0  0  0  1  0  0  0  0  0  0
  -25.1990  -33.5480   23.9960 N   0  0  0  0  0  0  0  0  0  0  0  0
  -25.5320  -34.6080   23.2480 C   0  0  0  0  0  0  0  0  0  0  0  0
  -26.2180  -34.5170   22.2260 O   0  0  0  0  0  0  0  0  0  0  0  0
  -24.5910  -33.6920   24.7890 H   0  0  0  0  0  0  0  0  0  0  0  0
  -23.7940  -36.3880   22.8780 C   0  0  0  0  0  1  0  0  0  0  0  0
  -25.0250  -35.9900   23.7060 C   0  0  0  0  0  3  0  0  0  0  0  0
  -27.1340  -36.8920   24.5830 C   0  0  0  0  0  1  0  0  0  0  0  0
  -26.0500  -37.0520   23.6170 N   0  0  0  0  0  0  0  0  0  0  0  0
  -25.6320  -37.9680   23.7580 H   0  0  0  0  0  0  0  0  0  0  0  0
  1  4  2  0
  2  5  1  0
  3  1  1  0
  3  2  2  0
  4  5  1  0
  5 53  1  0
  6  3  1  0
  6 21  1  0
  8 13  1  0
  9 10  1  0
  9  8  1  0
 11 10  1  0
 11 26  1  0
 11 12  1  0
 13  7  1  0
 13 12  1  0
 14  7  2  0
 15 17  1  0
 16 20  1  0
 17 19  1  0
 18 52  1  0
 18 16  1  0
 18 21  1  0
 20  7  1  0
 20 15  1  0
 21 22  1  1
 21 17  1  0
 23 24  2  0
 24 43  1  0
 25 24  1  0
 25 28  1  0
 26 27  1  0
 26 23  1  0
 27 25  2  0
 28 29  1  0
 29 30  2  0
 31 34  1  0
 31 30  1  0
 32 31  2  0
 33 32  1  0
 33 28  2  0
 34 35  1  0
 35 40  2  0
 35 36  1  0
 36 37  2  0
 37 38  1  0
 38 42  1  0
 39 38  2  0
 40 39  1  0
 41 40  1  0
 43 44  1  0
 44 47  1  0
 44 46  1  0
 45 43  2  0
 48 23  1  0
 48 49  1  0
 50 48  1  0
 51 52  1  0
 54 53  1  0
 55 66  2  0
 56 54  1  0
 56 61  1  0
 57 65  1  0
 57 67  1  0
 58 64  1  0
 58 60  1  0
 59 65  1  0
 60 59  1  0
 61 60  2  0
 62 56  2  0
 63 62  1  0
 63 58  2  0
 64 57  1  0
 65 55  1  0
 67 69  2  0
 68 67  1  0
 70 68  1  0
 71 80  2  0
 71 76  1  0
 72 68  1  0
 72 76  1  0
 73 72  1  0
 74 75  1  0
 74 73  1  0
 75 71  1  0
 76 77  2  0
 77 78  1  0
 79 78  2  0
 80 79  1  0
 81 55  1  0
 81 86  1  0
 81 82  1  0
 82 85  1  1
 82 83  1  0
 84 82  1  0
 86 89  1  0
 87 91  1  0
 87 86  1  0
 88 87  2  0
 91 90  1  0
 93 91  1  0
 93 94  1  0
 93 92  1  0
M  ISO  4   7 100  20 100  53 101  54 101
M  END
>  <TORSDO>  (85) 
F 19

>  <SCORE>  (85) 
-12.116

>  <name>  (85) 
85

>  <ligand_id>  (85) 
85

>  <original_smiles>  (85) 
[H]c1nn(C([H])([H])Oc2c([H])c([H])c3c(c2[H])C([H])([H])N(C(=O)C([H])(N([H])C(=O)C([H])(N([H])C([H])([H])[H])C([H])([H])[H])C(C([H])([H])[H])(C([H])([H])[H])C([H])([H])[H])C([H])(C(=O)N([H])C2([H])c4c([H])c([H])c([H])c([H])c4C([H])([H])C([H])([H])C2([H])[H])C3([H])[H])c([H])c1C([H])([H])[N+]1([H])C([H])(C([H])([H])[H])C([H])([H])N(C(=O)N2C([H])([H])C([H])([H])C([H])([H])C([H])(n3nc(-c4c([H])c([H])c(Oc5c([H])c([H])c(F)c([H])c5F)c([H])c4[H])c(C(=O)N([H])[H])c3N([H])[H])C2([H])[H])C([H])([H])C1([H])C([H])([H])C([H])([H])[H]

>  <smiles>  (85) 
[H]c1nn(C([H])([H])Oc2c([H])c([H])c3c(c2[H])C([H])([H])N(C(=O)C([H])(N([H])C(=O)C([H])(N([H])C([H])([H])[H])C([H])([H])[H])C(C([H])([H])[H])(C([H])([H])[H])C([H])([H])[H])C([H])(C(=O)N([H])C2([H])c4c([H])c([H])c([H])c([H])c4C([H])([H])C([H])([H])C2([H])[H])C3([H])[H])c([H])c1C([H])([H])[N+]1([H])C([H])(C([H])([H])[H])C([H])([H])N(C(=O)N2C([H])([H])C([H])([H])C([H])([H])C([H])(n3nc(-c4c([H])c([H])c(Oc5c([H])c([H])c(F)c([H])c5F)c([H])c4[H])c(C(=O)N([H])[H])c3N([H])[H])C2([H])[H])C([H])([H])C1([H])C([H])([H])C([H])([H])[H]

$$$$
86:0:0
     RDKit          3D

 96105  0  0  1  0  0  0  0  0999 V2000
  -30.4270  -20.2270   20.6530 C   0  0  0  0  0  3  0  0  0  0  0  0
  -29.5290  -19.2970   20.1960 C   0  0  0  0  0  0  0  0  0  0  0  0
  -30.0020  -21.4750   20.1010 C   0  0  0  0  0  0  0  0  0  0  0  0
  -28.9230  -21.3210   19.3500 N   0  0  0  0  0  0  0  0  0  0  0  0
  -28.6290  -19.9980   19.4020 N   0  0  0  0  0  0  0  0  0  0  0  0
  -30.9970  -14.4790   19.9920 C   0  0  0  0  0  0  0  0  0  0  0  0
  -30.6750  -12.2950   18.8750 C   0  0  0  0  0  2  0  0  0  0  0  0
  -29.6650  -12.4690   17.7190 C   0  0  0  0  0  2  0  0  0  0  0  0
  -28.2090  -12.3520   18.2200 C   0  0  0  0  0  2  0  0  0  0  0  0
  -27.9430  -13.1970   19.4950 C   0  0  0  0  0  3  0  0  0  0  0  0
  -29.0530  -12.9370   20.5370 C   0  0  0  0  0  2  0  0  0  0  0  0
  -30.3370  -13.2860   19.9130 N   0  0  0  0  0  0  0  0  0  0  0  0
  -32.0900  -14.6510   19.4370 O   0  0  0  0  0  0  0  0  0  0  0  0
  -29.7560  -17.3760   21.8850 C   0  0  0  0  0  2  0  0  0  0  0  0
  -29.8630  -15.8500   21.7640 C   0  0  0  0  0  2  0  0  0  0  0  0
  -30.2780  -16.8410   19.6470 C   0  0  0  0  0  2  0  0  0  0  0  0
  -29.4060  -17.8080   20.4700 C   0  0  0  0  0  3  0  0  0  0  0  0
  -30.2510  -15.5550   20.3750 N   0  0  0  0  0  0  0  0  0  0  0  0
  -25.6080  -13.8520   20.3580 C   0  0  0  0  0  0  0  0  0  0  0  0
  -24.5420  -13.0980   20.7710 C   0  0  0  0  0  0  0  0  0  0  0  0
  -24.9620  -11.7360   20.6760 C   0  0  0  0  0  0  0  0  0  0  0  0
  -26.6130  -12.9490   20.0440 N   0  0  0  0  0  0  0  0  0  0  0  0
  -26.2290  -11.6700   20.2890 N   0  0  0  0  0  0  0  0  0  0  0  0
  -24.2150  -10.4890   20.8780 C   0  0  0  0  0  0  0  0  0  0  0  0
  -24.6310   -9.5240   21.8210 C   0  0  0  0  0  3  0  0  0  0  0  0
  -23.8870   -8.3390   22.0090 C   0  0  0  0  0  3  0  0  0  0  0  0
  -22.7130   -8.1110   21.2550 C   0  0  0  0  0  0  0  0  0  0  0  0
  -22.3150   -9.0650   20.3020 C   0  0  0  0  0  3  0  0  0  0  0  0
  -23.0590  -10.2400   20.1100 C   0  0  0  0  0  3  0  0  0  0  0  0
  -21.9390   -6.9790   21.3520 O   0  0  0  0  0  0  0  0  0  0  0  0
  -21.8060   -6.2990   22.5350 C   0  0  0  0  0  0  0  0  0  0  0  0
  -21.3020   -6.9190   23.7000 C   0  0  0  0  0  3  0  0  0  0  0  0
  -21.1180   -6.1640   24.8760 C   0  0  0  0  0  3  0  0  0  0  0  0
  -21.4270   -4.7900   24.8870 C   0  0  0  0  0  0  0  0  0  0  0  0
  -21.9230   -4.1700   23.7270 C   0  0  0  0  0  3  0  0  0  0  0  0
  -22.1100   -4.9230   22.5540 C   0  0  0  0  0  0  0  0  0  0  0  0
  -22.5690   -4.3170   21.4330 F   0  0  0  0  0  0  0  0  0  0  0  0
  -21.2420   -4.0620   26.0130 F   0  0  0  0  0  0  0  0  0  0  0  0
  -23.1790  -13.6040   21.1390 C   0  0  0  0  0  0  0  0  0  0  0  0
  -22.4930  -12.9190   22.0490 N   0  0  0  0  0  0  0  0  0  0  0  0
  -22.7310  -14.6430   20.6550 O   0  0  0  0  0  0  0  0  0  0  0  0
  -22.8700  -12.0800   22.4650 H   0  0  0  0  0  0  0  0  0  0  0  0
  -21.5780  -13.2400   22.3330 H   0  0  0  0  0  0  0  0  0  0  0  0
  -25.8020  -15.2210   20.2050 N   0  0  0  0  0  0  0  0  0  0  0  0
  -25.0640  -15.8940   20.3730 H   0  0  0  0  0  0  0  0  0  0  0  0
  -26.6480  -15.6400   19.8410 H   0  0  0  0  0  0  0  0  0  0  0  0
  -26.7410  -20.5200   17.8020 C   0  0  0  0  0  1  0  0  0  0  0  0
  -27.4660  -19.4840   18.6810 C   0  0  0  0  0  2  0  0  0  0  0  0
  -30.6000  -22.8570   20.2880 C   0  0  0  0  0  2  0  0  0  0  0  0
  -29.5570  -23.9080   20.4260 N   0  0  0  0  0  4  0  0  0  0  0  0
  -29.0110  -23.6750   21.2400 H   0  0  0  0  0  0  0  0  0  0  0  0
  -28.9500  -23.7840   19.6300 H   0  0  0  0  0  0  0  0  0  0  0  0
  -31.1420  -25.5040   21.5590 C   0  0  0  0  0  1  0  0  0  0  0  0
  -30.0440  -25.3240   20.4860 C   0  0  0  0  0  3  0  0  0  0  0  0
  -28.8950  -26.3430   20.7390 C   0  0  0  0  0  2  0  0  0  0  0  0
  -28.1490  -26.5780   19.5460 O   0  0  0  0  0  0  0  0  0  0  0  0
  -24.5510  -31.7170   23.0170 C   0  0  0  0  0  0  0  0  0  0  0  0
  -27.0280  -27.3700   19.6780 C   0  0  0  0  0  0  0  0  0  0  0  0
  -23.2660  -30.3870   21.3720 C   0  0  0  0  0  3  0  0  0  0  0  0
  -24.6490  -28.8890   19.8380 C   0  0  0  0  0  0  0  0  0  0  0  0
  -25.7850  -30.7300   21.0900 C   0  0  0  0  0  2  0  0  0  0  0  0
  -25.8320  -29.3800   20.4040 C   0  0  0  0  0  0  0  0  0  0  0  0
  -27.0250  -28.6250   20.3320 C   0  0  0  0  0  3  0  0  0  0  0  0
  -25.8340  -26.8990   19.0980 C   0  0  0  0  0  3  0  0  0  0  0  0
  -24.6430  -27.6450   19.1830 C   0  0  0  0  0  3  0  0  0  0  0  0
  -23.4150  -29.7540   19.9630 C   0  0  0  0  0  2  0  0  0  0  0  0
  -24.5550  -30.9580   21.8840 N   0  0  0  0  0  0  0  0  0  0  0  0
  -23.4970  -31.9790   23.6100 O   0  0  0  0  0  0  0  0  0  0  0  0
  -22.6430  -29.3380   22.3220 C   0  0  0  0  0  0  0  0  0  0  0  0
  -21.3110  -29.1810   22.2470 N   0  0  0  0  0  0  0  0  0  0  0  0
  -23.3530  -28.6710   23.0790 O   0  0  0  0  0  0  0  0  0  0  0  0
  -20.8010  -29.7710   21.6040 H   0  0  0  0  0  0  0  0  0  0  0  0
  -17.9410  -28.0290   22.8530 C   0  0  0  0  0  0  0  0  0  0  0  0
  -20.5130  -28.2260   23.0150 C   0  0  0  0  0  3  0  0  0  0  0  0
  -20.5600  -26.8200   22.3740 C   0  0  0  0  0  2  0  0  0  0  0  0
  -19.4060  -26.5620   21.4020 C   0  0  0  0  0  2  0  0  0  0  0  0
  -18.0580  -26.7070   22.1150 C   0  0  0  0  0  2  0  0  0  0  0  0
  -19.0940  -28.7500   23.2620 C   0  0  0  0  0  0  0  0  0  0  0  0
  -18.9280  -29.9920   23.9140 C   0  0  0  0  0  3  0  0  0  0  0  0
  -17.6440  -30.5100   24.1600 C   0  0  0  0  0  3  0  0  0  0  0  0
  -16.5060  -29.7830   23.7680 C   0  0  0  0  0  3  0  0  0  0  0  0
  -16.6560  -28.5450   23.1200 C   0  0  0  0  0  3  0  0  0  0  0  0
  -25.8680  -32.3110   23.6060 C   0  0  0  0  0  3  0  0  0  0  0  0
  -25.5790  -33.6860   24.0330 N   0  0  0  0  0  0  0  0  0  0  0  0
  -25.9110  -34.7830   23.3380 C   0  0  0  0  0  0  0  0  0  0  0  0
  -26.5630  -34.7410   22.2910 O   0  0  0  0  0  0  0  0  0  0  0  0
  -24.9940  -33.7930   24.8480 H   0  0  0  0  0  0  0  0  0  0  0  0
  -24.2030  -36.6170   23.1230 C   0  0  0  0  0  1  0  0  0  0  0  0
  -25.4460  -36.1430   23.8930 C   0  0  0  0  0  3  0  0  0  0  0  0
  -27.6010  -36.9430   24.7580 C   0  0  0  0  0  1  0  0  0  0  0  0
  -26.4920  -37.1890   23.8400 N   0  0  0  0  0  0  0  0  0  0  0  0
  -26.1000  -38.1010   24.0540 H   0  0  0  0  0  0  0  0  0  0  0  0
  -26.4510  -31.4640   24.8040 C   0  0  1  0  0  0  0  0  0  0  0  0
  -25.4150  -31.1640   25.9120 C   0  0  0  0  0  1  0  0  0  0  0  0
  -27.0070  -30.1130   24.2970 C   0  0  0  0  0  1  0  0  0  0  0  0
  -27.6380  -32.2180   25.4490 C   0  0  0  0  0  1  0  0  0  0  0  0
  2  1  2  0
  3 49  1  0
  3  1  1  0
  4  5  1  0
  4  3  2  0
  5  2  1  0
  6 18  1  0
  7 12  1  0
  8  9  1  0
  8  7  1  0
 10  9  1  0
 10 22  1  0
 10 11  1  0
 12  6  1  0
 12 11  1  0
 13  6  2  0
 15 14  1  0
 16 18  1  0
 16 17  1  0
 17  2  1  0
 17 14  1  0
 18 15  1  0
 19 20  2  0
 20 39  1  0
 21 20  1  0
 21 24  1  0
 22 23  1  0
 22 19  1  0
 23 21  2  0
 24 25  1  0
 25 26  2  0
 27 30  1  0
 27 26  1  0
 28 27  2  0
 29 28  1  0
 29 24  2  0
 30 31  1  0
 31 36  2  0
 31 32  1  0
 32 33  2  0
 33 34  1  0
 34 38  1  0
 35 34  2  0
 36 35  1  0
 37 36  1  0
 39 40  1  0
 40 43  1  0
 40 42  1  0
 41 39  2  0
 44 19  1  0
 44 45  1  0
 46 44  1  0
 47 48  1  0
 48  5  1  0
 49 50  1  0
 50 54  1  0
 50 51  1  0
 52 50  1  0
 54 55  1  0
 54 53  1  0
 56 58  1  0
 56 55  1  0
 57 68  2  0
 58 63  1  0
 59 67  1  0
 59 69  1  0
 60 66  1  0
 60 62  1  0
 61 67  1  0
 62 61  1  0
 63 62  2  0
 64 65  1  0
 64 58  2  0
 65 60  2  0
 66 59  1  0
 67 57  1  0
 69 71  2  0
 70 69  1  0
 72 70  1  0
 73 82  2  0
 73 78  1  0
 74 70  1  0
 74 78  1  0
 75 74  1  0
 76 77  1  0
 76 75  1  0
 77 73  1  0
 78 79  2  0
 79 80  1  0
 81 80  2  0
 82 81  1  0
 83 57  1  0
 83 84  1  0
 83 93  1  0
 84 87  1  0
 85 89  1  0
 85 84  1  0
 86 85  2  0
 89 88  1  0
 91 89  1  0
 91 92  1  0
 91 90  1  0
 93 96  1  1
 93 94  1  0
 95 93  1  0
M  ISO  4   6 100  18 100  55 101  56 101
M  END
>  <TORSDO>  (86) 
F 21

>  <SCORE>  (86) 
-12.851

>  <name>  (86) 
86

>  <ligand_id>  (86) 
86

>  <original_smiles>  (86) 
[H]c1c([H])c([H])c2c(c1[H])C([H])([H])C([H])([H])C([H])([H])C2([H])N([H])C(=O)C1([H])N(C(=O)C([H])(N([H])C(=O)C([H])(N([H])C([H])([H])[H])C([H])([H])[H])C(C([H])([H])[H])(C([H])([H])[H])C([H])([H])[H])C([H])([H])c2c([H])c(OC([H])([H])C([H])(C([H])([H])[H])[N+]([H])([H])C([H])([H])c3nn(C([H])([H])C([H])([H])[H])c(C4([H])C([H])([H])N(C(=O)N5C([H])([H])C([H])([H])C([H])([H])C([H])(n6nc(-c7c([H])c([H])c(Oc8c([H])c([H])c(F)c([H])c8F)c([H])c7[H])c(C(=O)N([H])[H])c6N([H])[H])C5([H])[H])C([H])([H])C4([H])[H])c3[H])c([H])c([H])c2C1([H])[H]

>  <smiles>  (86) 
[H]c1c([H])c([H])c2c(c1[H])C([H])([H])C([H])([H])C([H])([H])C2([H])N([H])C(=O)C1([H])N(C(=O)C([H])(N([H])C(=O)C([H])(N([H])C([H])([H])[H])C([H])([H])[H])C(C([H])([H])[H])(C([H])([H])[H])C([H])([H])[H])C([H])([H])c2c([H])c(OC([H])([H])C([H])(C([H])([H])[H])[N+]([H])([H])C([H])([H])c3nn(C([H])([H])C([H])([H])[H])c(C4([H])C([H])([H])N(C(=O)N5C([H])([H])C([H])([H])C([H])([H])C([H])(n6nc(-c7c([H])c([H])c(Oc8c([H])c([H])c(F)c([H])c8F)c([H])c7[H])c(C(=O)N([H])[H])c6N([H])[H])C5([H])[H])C([H])([H])C4([H])[H])c3[H])c([H])c([H])c2C1([H])[H]

$$$$
87:0:0
     RDKit          3D

100110  0  0  1  0  0  0  0  0999 V2000
  -29.0300  -20.6870   18.9600 C   0  0  0  0  0  1  0  0  0  0  0  0
  -30.3790  -20.3870   19.5320 N   0  0  1  0  0  4  0  0  0  0  0  0
  -30.7910  -19.7190   18.8970 H   0  0  0  0  0  0  0  0  0  0  0  0
  -31.3400  -21.5360   19.4740 C   0  0  0  0  0  2  0  0  0  0  0  0
  -31.1480  -24.0820   18.8940 C   0  0  0  0  0  3  0  0  0  0  0  0
  -29.7290  -23.4110   20.4210 C   0  0  0  0  0  3  0  0  0  0  0  0
  -30.7420  -22.9320   19.6290 C   0  0  0  0  0  0  0  0  0  0  0  0
  -30.4280  -25.1560   19.1720 N   0  0  0  0  0  0  0  0  0  0  0  0
  -29.5280  -24.7450   20.0950 N   0  0  0  0  0  0  0  0  0  0  0  0
  -28.5250  -25.6700   20.6200 C   0  0  0  0  0  2  0  0  0  0  0  0
  -28.4820  -26.8340   19.8300 O   0  0  0  0  0  0  0  0  0  0  0  0
  -24.5370  -31.7670   23.1120 C   0  0  0  0  0  0  0  0  0  0  0  0
  -27.2950  -27.5240   19.8790 C   0  0  0  0  0  0  0  0  0  0  0  0
  -23.3610  -30.3790   21.4340 C   0  0  0  0  0  3  0  0  0  0  0  0
  -24.8510  -28.9350   19.9500 C   0  0  0  0  0  0  0  0  0  0  0  0
  -25.8680  -30.8310   21.2250 C   0  0  0  0  0  2  0  0  0  0  0  0
  -25.9950  -29.4850   20.5440 C   0  0  0  0  0  0  0  0  0  0  0  0
  -27.2210  -28.7860   20.5080 C   0  0  0  0  0  3  0  0  0  0  0  0
  -26.1400  -26.9840   19.2780 C   0  0  0  0  0  3  0  0  0  0  0  0
  -24.9180  -27.6820   19.3120 C   0  0  0  0  0  3  0  0  0  0  0  0
  -23.5790  -29.7480   20.0320 C   0  0  0  0  0  2  0  0  0  0  0  0
  -24.6090  -31.0030   21.9840 N   0  0  0  0  0  0  0  0  0  0  0  0
  -23.4540  -31.9870   23.6690 O   0  0  0  0  0  0  0  0  0  0  0  0
  -22.7510  -29.3070   22.3660 C   0  0  0  0  0  0  0  0  0  0  0  0
  -21.4280  -29.1020   22.2550 N   0  0  0  0  0  0  0  0  0  0  0  0
  -23.4640  -28.6650   23.1410 O   0  0  0  0  0  0  0  0  0  0  0  0
  -20.9120  -29.6780   21.6050 H   0  0  0  0  0  0  0  0  0  0  0  0
  -18.0900  -27.8190   22.7650 C   0  0  0  0  0  0  0  0  0  0  0  0
  -20.6470  -28.1150   23.0020 C   0  0  0  0  0  3  0  0  0  0  0  0
  -20.7640  -26.7110   22.3620 C   0  0  0  0  0  2  0  0  0  0  0  0
  -19.6480  -26.4100   21.3560 C   0  0  0  0  0  2  0  0  0  0  0  0
  -18.2780  -26.5020   22.0330 C   0  0  0  0  0  2  0  0  0  0  0  0
  -19.2020  -28.5840   23.2060 C   0  0  0  0  0  0  0  0  0  0  0  0
  -18.9720  -29.8200   23.8500 C   0  0  0  0  0  3  0  0  0  0  0  0
  -17.6630  -30.2900   24.0600 C   0  0  0  0  0  3  0  0  0  0  0  0
  -16.5640  -29.5220   23.6350 C   0  0  0  0  0  3  0  0  0  0  0  0
  -16.7790  -28.2890   22.9960 C   0  0  0  0  0  3  0  0  0  0  0  0
  -25.8110  -32.4140   23.7430 C   0  0  0  0  0  3  0  0  0  0  0  0
  -26.3610  -31.6190   24.9890 C   0  0  1  0  0  0  0  0  0  0  0  0
  -25.2850  -31.3240   26.0600 C   0  0  0  0  0  1  0  0  0  0  0  0
  -26.9740  -30.2710   24.5450 C   0  0  0  0  0  1  0  0  0  0  0  0
  -27.4990  -32.4230   25.6620 C   0  0  0  0  0  1  0  0  0  0  0  0
  -25.4660  -33.7930   24.1130 N   0  0  0  0  0  0  0  0  0  0  0  0
  -25.7660  -34.8750   23.3810 C   0  0  0  0  0  0  0  0  0  0  0  0
  -26.4340  -34.8180   22.3460 O   0  0  0  0  0  0  0  0  0  0  0  0
  -24.8660  -33.9060   24.9170 H   0  0  0  0  0  0  0  0  0  0  0  0
  -23.9850  -36.6260   23.0850 C   0  0  0  0  0  1  0  0  0  0  0  0
  -25.2420  -36.2360   23.8790 C   0  0  0  0  0  3  0  0  0  0  0  0
  -27.3540  -37.1590   24.7220 C   0  0  0  0  0  1  0  0  0  0  0  0
  -26.2420  -37.3210   23.7880 N   0  0  0  0  0  0  0  0  0  0  0  0
  -25.8130  -38.2250   23.9620 H   0  0  0  0  0  0  0  0  0  0  0  0
  -30.3860  -19.6630   20.8460 C   0  0  0  0  0  2  0  0  0  0  0  0
  -30.9950  -14.7190   19.8900 C   0  0  0  0  0  0  0  0  0  0  0  0
  -30.6020  -12.5260   18.8300 C   0  0  0  0  0  2  0  0  0  0  0  0
  -29.5740  -12.6600   17.6870 C   0  0  0  0  0  2  0  0  0  0  0  0
  -28.1260  -12.6040   18.2240 C   0  0  0  0  0  2  0  0  0  0  0  0
  -27.8840  -13.4630   19.4950 C   0  0  0  0  0  3  0  0  0  0  0  0
  -29.0190  -13.2570   20.5150 C   0  0  0  0  0  2  0  0  0  0  0  0
  -30.2920  -13.5510   19.8400 N   0  0  0  0  0  0  0  0  0  0  0  0
  -32.1900  -14.7690   19.6010 O   0  0  0  0  0  0  0  0  0  0  0  0
  -29.0640  -17.4310   18.3150 C   0  0  0  0  0  2  0  0  0  0  0  0
  -28.6430  -17.5140   19.7750 C   0  0  0  0  0  2  0  0  0  0  0  0
  -29.9260  -16.1900   18.2850 C   0  0  0  0  0  2  0  0  0  0  0  0
  -29.4450  -16.5170   22.0030 C   0  0  0  0  0  2  0  0  0  0  0  0
  -31.3120  -17.8690   22.3090 C   0  0  0  0  0  2  0  0  0  0  0  0
  -29.8540  -16.9980   20.5750 C   0  0  2  0  0  0  0  0  0  0  0  0
  -30.9310  -18.1620   20.8360 C   0  0  1  0  0  0  0  0  0  0  0  0
  -32.2030  -18.0810   19.9630 C   0  0  0  0  0  1  0  0  0  0  0  0
  -30.2330  -15.8390   19.6840 N   0  0  0  0  0  0  0  0  0  0  0  0
  -30.0650  -17.4420   22.9550 N   0  0  0  0  0  4  0  0  0  0  0  0
  -30.2370  -16.9980   23.8450 H   0  0  0  0  0  0  0  0  0  0  0  0
  -29.4560  -18.2250   23.1200 H   0  0  0  0  0  0  0  0  0  0  0  0
  -25.5630  -14.0940   20.4190 C   0  0  0  0  0  0  0  0  0  0  0  0
  -24.5140  -13.3330   20.8450 C   0  0  0  0  0  0  0  0  0  0  0  0
  -24.9420  -11.9750   20.7380 C   0  0  0  0  0  0  0  0  0  0  0  0
  -26.5720  -13.2040   20.0830 N   0  0  0  0  0  0  0  0  0  0  0  0
  -26.2070  -11.9230   20.3420 N   0  0  0  0  0  0  0  0  0  0  0  0
  -24.2040  -10.7240   20.9330 C   0  0  0  0  0  0  0  0  0  0  0  0
  -24.6350   -9.7520   21.8630 C   0  0  0  0  0  3  0  0  0  0  0  0
  -23.9010   -8.5610   22.0430 C   0  0  0  0  0  3  0  0  0  0  0  0
  -22.7210   -8.3340   21.2990 C   0  0  0  0  0  0  0  0  0  0  0  0
  -22.3100   -9.2920   20.3560 C   0  0  0  0  0  3  0  0  0  0  0  0
  -23.0430  -10.4760   20.1720 C   0  0  0  0  0  3  0  0  0  0  0  0
  -21.9530   -7.1980   21.3960 O   0  0  0  0  0  0  0  0  0  0  0  0
  -21.8490   -6.4990   22.5720 C   0  0  0  0  0  0  0  0  0  0  0  0
  -21.3720   -7.1020   23.7570 C   0  0  0  0  0  3  0  0  0  0  0  0
  -21.2130   -6.3300   24.9250 C   0  0  0  0  0  3  0  0  0  0  0  0
  -21.5220   -4.9560   24.9080 C   0  0  0  0  0  0  0  0  0  0  0  0
  -21.9940   -4.3540   23.7290 C   0  0  0  0  0  3  0  0  0  0  0  0
  -22.1550   -5.1240   22.5630 C   0  0  0  0  0  0  0  0  0  0  0  0
  -22.5880   -4.5350   21.4230 F   0  0  0  0  0  0  0  0  0  0  0  0
  -21.3630   -4.2130   26.0290 F   0  0  0  0  0  0  0  0  0  0  0  0
  -23.1470  -13.8220   21.2280 C   0  0  0  0  0  0  0  0  0  0  0  0
  -22.4820  -13.1280   22.1430 N   0  0  0  0  0  0  0  0  0  0  0  0
  -22.6820  -14.8580   20.7510 O   0  0  0  0  0  0  0  0  0  0  0  0
  -22.8660  -12.2850   22.5470 H   0  0  0  0  0  0  0  0  0  0  0  0
  -21.5690  -13.4400   22.4450 H   0  0  0  0  0  0  0  0  0  0  0  0
  -25.7280  -15.4640   20.2670 N   0  0  0  0  0  0  0  0  0  0  0  0
  -24.9570  -16.1020   20.4200 H   0  0  0  0  0  0  0  0  0  0  0  0
  -26.5130  -15.8840   19.7900 H   0  0  0  0  0  0  0  0  0  0  0  0
  1  2  1  0
  2 52  1  0
  2  3  1  6
  4  2  1  0
  4  7  1  0
  5  8  2  0
  5  7  1  0
  7  6  2  0
  8  9  1  0
  9  6  1  0
  9 10  1  0
 11 13  1  0
 11 10  1  0
 12 23  2  0
 13 18  1  0
 14 22  1  0
 14 24  1  0
 15 21  1  0
 15 17  1  0
 16 22  1  0
 17 16  1  0
 18 17  2  0
 19 20  1  0
 19 13  2  0
 20 15  2  0
 21 14  1  0
 22 12  1  0
 24 26  2  0
 25 24  1  0
 27 25  1  0
 28 37  2  0
 28 33  1  0
 29 25  1  0
 29 33  1  0
 30 29  1  0
 31 32  1  0
 31 30  1  0
 32 28  1  0
 33 34  2  0
 34 35  1  0
 36 35  2  0
 37 36  1  0
 38 12  1  0
 38 43  1  0
 38 39  1  0
 39 42  1  1
 39 40  1  0
 41 39  1  0
 43 46  1  0
 44 48  1  0
 44 43  1  0
 45 44  2  0
 48 47  1  0
 50 48  1  0
 50 51  1  0
 50 49  1  0
 54 59  1  0
 55 56  1  0
 55 54  1  0
 57 56  1  0
 57 76  1  0
 57 58  1  0
 59 53  1  0
 59 58  1  0
 60 53  2  0
 61 62  1  0
 63 61  1  0
 63 69  1  0
 64 70  1  0
 65 70  1  0
 66 62  1  6
 66 67  1  0
 66 64  1  0
 67 68  1  6
 67 52  1  0
 67 65  1  0
 69 53  1  0
 69 66  1  0
 70 72  1  0
 70 71  1  0
 73 74  2  0
 74 93  1  0
 75 74  1  0
 75 78  1  0
 76 77  1  0
 76 73  1  0
 77 75  2  0
 78 79  1  0
 79 80  2  0
 81 84  1  0
 81 80  1  0
 82 81  2  0
 83 82  1  0
 83 78  2  0
 84 85  1  0
 85 86  1  0
 86 87  2  0
 88 87  1  0
 88 92  1  0
 89 88  2  0
 90 85  2  0
 90 89  1  0
 91 90  1  0
 93 94  1  0
 94 97  1  0
 94 96  1  0
 95 93  2  0
 98 73  1  0
 98 99  1  0
100 98  1  0
M  ISO  4  10 101  11 101  53 100  69 100
M  END
>  <TORSDO>  (87) 
F 20

>  <SCORE>  (87) 
-12.114

>  <name>  (87) 
87

>  <ligand_id>  (87) 
87

>  <original_smiles>  (87) 
[H]c1nn(C([H])([H])Oc2c([H])c([H])c3c(c2[H])C([H])([H])N(C(=O)C([H])(N([H])C(=O)C([H])(N([H])C([H])([H])[H])C([H])([H])[H])C(C([H])([H])[H])(C([H])([H])[H])C([H])([H])[H])C([H])(C(=O)N([H])C2([H])c4c([H])c([H])c([H])c([H])c4C([H])([H])C([H])([H])C2([H])[H])C3([H])[H])c([H])c1C([H])([H])[N+]([H])(C([H])([H])[H])C([H])([H])C1(C([H])([H])[H])C2(N(C(=O)N3C([H])([H])C([H])([H])C([H])([H])C([H])(n4nc(-c5c([H])c([H])c(Oc6c([H])c([H])c(F)c([H])c6F)c([H])c5[H])c(C(=O)N([H])[H])c4N([H])[H])C3([H])[H])C([H])([H])C([H])([H])C2([H])[H])C([H])([H])[N+]([H])([H])C1([H])[H]

>  <smiles>  (87) 
[H]c1nn(C([H])([H])Oc2c([H])c([H])c3c(c2[H])C([H])([H])N(C(=O)C([H])(N([H])C(=O)C([H])(N([H])C([H])([H])[H])C([H])([H])[H])C(C([H])([H])[H])(C([H])([H])[H])C([H])([H])[H])C([H])(C(=O)N([H])C2([H])c4c([H])c([H])c([H])c([H])c4C([H])([H])C([H])([H])C2([H])[H])C3([H])[H])c([H])c1C([H])([H])[N+]([H])(C([H])([H])[H])C([H])([H])C1(C([H])([H])[H])C2(N(C(=O)N3C([H])([H])C([H])([H])C([H])([H])C([H])(n4nc(-c5c([H])c([H])c(Oc6c([H])c([H])c(F)c([H])c6F)c([H])c5[H])c(C(=O)N([H])[H])c4N([H])[H])C3([H])[H])C([H])([H])C([H])([H])C2([H])[H])C([H])([H])[N+]([H])([H])C1([H])[H]

$$$$
88:0:0
     RDKit          3D

100111  0  0  1  0  0  0  0  0999 V2000
  -28.6290  -22.0180   19.0830 C   0  0  0  0  0  2  0  0  0  0  0  0
  -31.1070  -22.1850   19.0670 C   0  0  0  0  0  2  0  0  0  0  0  0
  -28.5250  -23.4420   18.4940 C   0  0  0  0  0  2  0  0  0  0  0  0
  -31.0100  -23.6190   18.4970 C   0  0  0  0  0  2  0  0  0  0  0  0
  -29.9160  -21.3380   18.6020 C   0  0  0  0  0  3  0  0  0  0  0  0
  -29.7100  -24.2980   18.7980 N   0  0  1  0  0  4  0  0  0  0  0  0
  -29.6760  -24.4760   19.7920 H   0  0  0  0  0  0  0  0  0  0  0  0
  -29.9780  -17.6710   18.8970 C   0  0  0  0  0  3  0  0  0  0  0  0
  -29.8760  -18.7620   18.0850 C   0  0  0  0  0  0  0  0  0  0  0  0
  -29.9930  -19.8710   18.9750 C   0  0  0  0  0  0  0  0  0  0  0  0
  -30.1220  -19.4780   20.2420 N   0  0  0  0  0  0  0  0  0  0  0  0
  -30.0880  -18.1220   20.1940 N   0  0  0  0  0  0  0  0  0  0  0  0
  -30.8260  -14.4560   20.2540 C   0  0  0  0  0  0  0  0  0  0  0  0
  -30.3790  -12.4180   18.9380 C   0  0  0  0  0  2  0  0  0  0  0  0
  -29.4120  -12.7240   17.7790 C   0  0  0  0  0  2  0  0  0  0  0  0
  -27.9500  -12.5870   18.2420 C   0  0  0  0  0  2  0  0  0  0  0  0
  -27.6720  -13.3560   19.5600 C   0  0  0  0  0  3  0  0  0  0  0  0
  -28.7500  -13.0380   20.6240 C   0  0  0  0  0  2  0  0  0  0  0  0
  -30.0750  -13.3370   20.0510 N   0  0  0  0  0  0  0  0  0  0  0  0
  -31.8440  -14.6880   19.5940 O   0  0  0  0  0  0  0  0  0  0  0  0
  -31.3210  -16.4160   21.7190 C   0  0  0  0  0  2  0  0  0  0  0  0
  -29.2760  -16.0540   21.4770 C   0  0  0  0  0  2  0  0  0  0  0  0
  -30.1300  -17.3190   21.3950 C   0  0  0  0  0  3  0  0  0  0  0  0
  -30.5050  -15.2640   21.2920 N   0  0  0  0  0  0  0  0  0  0  0  0
  -25.2880  -13.9800   20.3100 C   0  0  0  0  0  0  0  0  0  0  0  0
  -24.2230  -13.2150   20.7030 C   0  0  0  0  0  0  0  0  0  0  0  0
  -24.6770  -11.8600   20.6690 C   0  0  0  0  0  0  0  0  0  0  0  0
  -26.3240  -13.0920   20.0610 N   0  0  0  0  0  0  0  0  0  0  0  0
  -25.9600  -11.8120   20.3320 N   0  0  0  0  0  0  0  0  0  0  0  0
  -23.9490  -10.6020   20.8800 C   0  0  0  0  0  0  0  0  0  0  0  0
  -24.3700   -9.6580   21.8410 C   0  0  0  0  0  3  0  0  0  0  0  0
  -23.6460   -8.4620   22.0360 C   0  0  0  0  0  3  0  0  0  0  0  0
  -22.4840   -8.2030   21.2710 C   0  0  0  0  0  0  0  0  0  0  0  0
  -22.0820   -9.1360   20.2990 C   0  0  0  0  0  3  0  0  0  0  0  0
  -22.8080  -10.3230   20.1020 C   0  0  0  0  0  3  0  0  0  0  0  0
  -21.7310   -7.0590   21.3740 O   0  0  0  0  0  0  0  0  0  0  0  0
  -21.6380   -6.3640   22.5530 C   0  0  0  0  0  0  0  0  0  0  0  0
  -21.1700   -6.9690   23.7410 C   0  0  0  0  0  3  0  0  0  0  0  0
  -21.0230   -6.1980   24.9120 C   0  0  0  0  0  3  0  0  0  0  0  0
  -21.3340   -4.8250   24.8970 C   0  0  0  0  0  0  0  0  0  0  0  0
  -21.7960   -4.2200   23.7130 C   0  0  0  0  0  3  0  0  0  0  0  0
  -21.9450   -4.9880   22.5450 C   0  0  0  0  0  0  0  0  0  0  0  0
  -22.3690   -4.3960   21.4030 F   0  0  0  0  0  0  0  0  0  0  0  0
  -21.1860   -4.0830   26.0200 F   0  0  0  0  0  0  0  0  0  0  0  0
  -22.8340  -13.7000   21.0030 C   0  0  0  0  0  0  0  0  0  0  0  0
  -22.1180  -13.0150   21.8880 N   0  0  0  0  0  0  0  0  0  0  0  0
  -22.3910  -14.7240   20.4840 O   0  0  0  0  0  0  0  0  0  0  0  0
  -22.4880  -12.1870   22.3320 H   0  0  0  0  0  0  0  0  0  0  0  0
  -21.1860  -13.3240   22.1230 H   0  0  0  0  0  0  0  0  0  0  0  0
  -25.4550  -15.3490   20.1250 N   0  0  0  0  0  0  0  0  0  0  0  0
  -24.6940  -16.0070   20.2510 H   0  0  0  0  0  0  0  0  0  0  0  0
  -26.2940  -15.7820   19.7600 H   0  0  0  0  0  0  0  0  0  0  0  0
  -28.3650  -19.3180   16.0330 C   0  0  0  0  0  2  0  0  0  0  0  0
  -28.6620  -17.8380   15.9580 C   0  0  0  0  0  2  0  0  0  0  0  0
  -29.6570  -18.7790   16.5980 C   0  0  0  0  0  3  0  0  0  0  0  0
  -29.5960  -25.6230   18.1160 C   0  0  0  0  0  2  0  0  0  0  0  0
  -30.4450  -28.0010   17.8610 C   0  0  0  0  0  1  0  0  0  0  0  0
  -30.3350  -26.8010   18.8180 C   0  0  0  0  0  3  0  0  0  0  0  0
  -29.7070  -27.2510   20.1660 C   0  0  0  0  0  2  0  0  0  0  0  0
  -28.3980  -26.7100   20.2920 O   0  0  0  0  0  0  0  0  0  0  0  0
  -24.5340  -31.9500   23.2710 C   0  0  0  0  0  0  0  0  0  0  0  0
  -27.2860  -27.5200   20.2860 C   0  0  0  0  0  0  0  0  0  0  0  0
  -23.3640  -30.5040   21.6400 C   0  0  0  0  0  3  0  0  0  0  0  0
  -24.8580  -28.9660   20.2570 C   0  0  0  0  0  0  0  0  0  0  0  0
  -25.8840  -30.9040   21.4580 C   0  0  0  0  0  2  0  0  0  0  0  0
  -26.0020  -29.5260   20.8440 C   0  0  0  0  0  0  0  0  0  0  0  0
  -27.2210  -28.8130   20.8600 C   0  0  0  0  0  3  0  0  0  0  0  0
  -26.1220  -26.9630   19.7200 C   0  0  0  0  0  3  0  0  0  0  0  0
  -24.9110  -27.6800   19.6950 C   0  0  0  0  0  3  0  0  0  0  0  0
  -23.5970  -29.8000   20.2750 C   0  0  0  0  0  2  0  0  0  0  0  0
  -24.6110  -31.1340   22.1820 N   0  0  0  0  0  0  0  0  0  0  0  0
  -23.4440  -32.2160   23.7960 O   0  0  0  0  0  0  0  0  0  0  0  0
  -22.7170  -29.4900   22.6110 C   0  0  0  0  0  0  0  0  0  0  0  0
  -21.3990  -29.2780   22.4640 N   0  0  0  0  0  0  0  0  0  0  0  0
  -23.3980  -28.8970   23.4520 O   0  0  0  0  0  0  0  0  0  0  0  0
  -20.9120  -29.8100   21.7560 H   0  0  0  0  0  0  0  0  0  0  0  0
  -18.0400  -28.0280   22.9170 C   0  0  0  0  0  0  0  0  0  0  0  0
  -20.5860  -28.3420   23.2380 C   0  0  0  0  0  3  0  0  0  0  0  0
  -20.7280  -26.9010   22.6980 C   0  0  0  0  0  2  0  0  0  0  0  0
  -19.6560  -26.5330   21.6680 C   0  0  0  0  0  2  0  0  0  0  0  0
  -18.2580  -26.6670   22.2790 C   0  0  0  0  0  2  0  0  0  0  0  0
  -19.1340  -28.8220   23.3530 C   0  0  0  0  0  0  0  0  0  0  0  0
  -18.8790  -30.0950   23.9070 C   0  0  0  0  0  3  0  0  0  0  0  0
  -17.5610  -30.5750   24.0320 C   0  0  0  0  0  3  0  0  0  0  0  0
  -16.4810  -29.7780   23.6150 C   0  0  0  0  0  3  0  0  0  0  0  0
  -16.7210  -28.5070   23.0630 C   0  0  0  0  0  3  0  0  0  0  0  0
  -25.8060  -32.6070   23.8930 C   0  0  0  0  0  3  0  0  0  0  0  0
  -25.4770  -34.0040   24.2030 N   0  0  0  0  0  0  0  0  0  0  0  0
  -25.8190  -35.0510   23.4410 C   0  0  0  0  0  0  0  0  0  0  0  0
  -26.5170  -34.9450   22.4280 O   0  0  0  0  0  0  0  0  0  0  0  0
  -24.8610  -34.1610   24.9860 H   0  0  0  0  0  0  0  0  0  0  0  0
  -24.0940  -36.8290   23.0080 C   0  0  0  0  0  1  0  0  0  0  0  0
  -25.3060  -36.4390   23.8700 C   0  0  0  0  0  3  0  0  0  0  0  0
  -27.4020  -37.3400   24.7750 C   0  0  0  0  0  1  0  0  0  0  0  0
  -26.3350  -37.4980   23.7900 N   0  0  0  0  0  0  0  0  0  0  0  0
  -25.9190  -38.4160   23.9180 H   0  0  0  0  0  0  0  0  0  0  0  0
  -26.3300  -31.8580   25.1800 C   0  0  1  0  0  0  0  0  0  0  0  0
  -25.2330  -31.6030   26.2390 C   0  0  0  0  0  1  0  0  0  0  0  0
  -26.9460  -30.4900   24.8010 C   0  0  0  0  0  1  0  0  0  0  0  0
  -27.4560  -32.6810   25.8460 C   0  0  0  0  0  1  0  0  0  0  0  0
  3  6  1  0
  3  1  1  0
  4  6  1  0
  4  2  1  0
  5 10  1  0
  5  2  1  0
  5  1  1  0
  6  7  1  1
  8 12  1  0
  9  8  2  0
  9 10  1  0
 10 11  2  0
 12 11  1  0
 13 24  1  0
 14 19  1  0
 15 16  1  0
 15 14  1  0
 17 16  1  0
 17 28  1  0
 17 18  1  0
 19 13  1  0
 19 18  1  0
 20 13  2  0
 23 12  1  0
 23 22  1  0
 23 21  1  0
 24 22  1  0
 24 21  1  0
 25 26  2  0
 26 45  1  0
 27 26  1  0
 27 30  1  0
 28 25  1  0
 28 29  1  0
 29 27  2  0
 30 31  1  0
 31 32  2  0
 33 36  1  0
 33 32  1  0
 34 33  2  0
 35 34  1  0
 35 30  2  0
 36 37  1  0
 37 38  1  0
 38 39  2  0
 40 39  1  0
 40 44  1  0
 41 40  2  0
 42 37  2  0
 42 41  1  0
 43 42  1  0
 45 46  1  0
 46 49  1  0
 46 48  1  0
 47 45  2  0
 50 51  1  0
 50 25  1  0
 52 50  1  0
 53 55  1  0
 54 53  1  0
 54 55  1  0
 55  9  1  0
 56  6  1  0
 56 58  1  0
 58 57  1  0
 58 59  1  0
 59 60  1  0
 61 72  2  0
 62 60  1  0
 62 67  1  0
 63 71  1  0
 63 73  1  0
 64 70  1  0
 64 66  1  0
 65 71  1  0
 66 67  2  0
 66 65  1  0
 68 62  2  0
 69 68  1  0
 69 64  2  0
 70 63  1  0
 71 61  1  0
 73 75  2  0
 74 73  1  0
 76 74  1  0
 77 86  2  0
 77 82  1  0
 78 74  1  0
 78 82  1  0
 79 78  1  0
 80 81  1  0
 80 79  1  0
 81 77  1  0
 82 83  2  0
 83 84  1  0
 85 84  2  0
 86 85  1  0
 87 61  1  0
 87 88  1  0
 87 97  1  0
 88 91  1  0
 89 93  1  0
 89 88  1  0
 90 89  2  0
 93 92  1  0
 95 93  1  0
 95 96  1  0
 95 94  1  0
 97100  1  1
 97 98  1  0
 99 97  1  0
M  ISO  4  13 100  24 100  59 101  60 101
M  END
>  <TORSDO>  (88) 
F 21

>  <SCORE>  (88) 
-12.538

>  <name>  (88) 
88

>  <ligand_id>  (88) 
88

>  <original_smiles>  (88) 
[H]c1c([H])c([H])c2c(c1[H])C([H])([H])C([H])([H])C([H])([H])C2([H])N([H])C(=O)C1([H])N(C(=O)C([H])(N([H])C(=O)C([H])(N([H])C([H])([H])[H])C([H])([H])[H])C(C([H])([H])[H])(C([H])([H])[H])C([H])([H])[H])C([H])([H])c2c([H])c(OC([H])([H])C([H])(C([H])([H])[H])C([H])([H])[N+]3([H])C([H])([H])C([H])([H])C([H])(c4nn(C5([H])C([H])([H])N(C(=O)N6C([H])([H])C([H])([H])C([H])([H])C([H])(n7nc(-c8c([H])c([H])c(Oc9c([H])c([H])c(F)c([H])c9F)c([H])c8[H])c(C(=O)N([H])[H])c7N([H])[H])C6([H])[H])C5([H])[H])c([H])c4C4([H])C([H])([H])C4([H])[H])C([H])([H])C3([H])[H])c([H])c([H])c2C1([H])[H]

>  <smiles>  (88) 
[H]c1c([H])c([H])c2c(c1[H])C([H])([H])C([H])([H])C([H])([H])C2([H])N([H])C(=O)C1([H])N(C(=O)C([H])(N([H])C(=O)C([H])(N([H])C([H])([H])[H])C([H])([H])[H])C(C([H])([H])[H])(C([H])([H])[H])C([H])([H])[H])C([H])([H])c2c([H])c(OC([H])([H])C([H])(C([H])([H])[H])C([H])([H])[N+]3([H])C([H])([H])C([H])([H])C([H])(c4nn(C5([H])C([H])([H])N(C(=O)N6C([H])([H])C([H])([H])C([H])([H])C([H])(n7nc(-c8c([H])c([H])c(Oc9c([H])c([H])c(F)c([H])c9F)c([H])c8[H])c(C(=O)N([H])[H])c7N([H])[H])C6([H])[H])C5([H])[H])c([H])c4C4([H])C([H])([H])C4([H])[H])C([H])([H])C3([H])[H])c([H])c([H])c2C1([H])[H]

$$$$
89:0:0
     RDKit          3D

 95 92  0  0  1  0  0  0  0  0999 V2000
  -20.1560  -28.1750   21.1660 C   0  0  0  0  0  2  0  0  0  0  0  0
  -21.3560  -28.1180   21.5700 C   0  0  0  0  0  3  0  0  0  0  0  0
  -18.8830  -28.8300   21.6380 C   0  0  0  0  0 15  0  0  0  0  0  0
  -20.5390  -27.7110   19.8780 N   0  0  0  0  0  1  0  0  0  0  0  0
  -20.9630  -27.6120   20.2070 N   0  0  0  0  0  0  0  0  0  0  0  0
  -21.7800  -26.4800   18.9520 N   0  0  0  0  0 15  0  0  0  0  0  0
  -23.1050  -25.0660   16.5100 C   0  0  0  0  0  1  0  0  0  0  0  0
  -23.0550  -26.5860   16.6700 C   0  0  0  0  0  1  0  0  0  0  0  0
  -26.7310  -27.8710    8.9220 C   0  0  0  0  0  2  0  0  0  0  0  0
  -27.4300  -28.1640    5.8230 C   0  0  0  0  0  2  0  0  0  0  0  0
  -26.7070  -27.8410    4.3830 C   0  0  0  0  0  2  0  0  0  0  0  0
  -26.4300  -26.3560    4.1740 C   0  0  0  0  0  2  0  0  0  0  0  0
  -26.3420  -25.8490    5.6040 C   0  0  0  0  0  3  0  0  0  0  0  0
  -27.4930  -26.1640    6.5970 C   0  0  0  0  0  2  0  0  0  0  0  0
  -27.0290  -27.4150    7.3060 N   0  0  0  0  0  0  0  0  0  0  0  0
  -27.4690  -28.8900    8.4700 O   0  0  0  0  0  1  0  0  0  0  0  0
  -24.7900  -26.5020   12.0630 C   0  0  0  0  0  1  0  0  0  0  0  0
  -25.3280  -28.0700   12.5560 C   0  0  0  0  0  1  0  0  0  0  0  0
  -24.0270  -27.1230   13.9750 C   0  0  0  0  0 15  0  0  0  0  0  0
  -25.7600  -27.5370   10.7340 N   0  0  0  0  0 15  0  0  0  0  0  0
  -24.9800  -24.2090    6.7410 C   0  0  0  0  0  0  0  0  0  0  0  0
  -24.9030  -22.8650    6.6710 C   0  0  0  0  0  0  0  0  0  0  0  0
  -25.8670  -22.4590    5.6940 C   0  0  0  0  0  0  0  0  0  0  0  0
  -25.9530  -24.5330    5.8300 N   0  0  0  0  0  0  0  0  0  0  0  0
  -26.5580  -23.4920    5.2360 N   0  0  0  0  0  0  0  0  0  0  0  0
  -26.1070  -21.1510    5.1110 C   0  0  0  0  0  0  0  0  0  0  0  0
  -27.3750  -20.5380    5.1670 C   0  0  0  0  0  3  0  0  0  0  0  0
  -27.5610  -19.2560    4.6120 C   0  0  0  0  0  3  0  0  0  0  0  0
  -26.4740  -18.5860    4.0030 C   0  0  0  0  0  0  0  0  0  0  0  0
  -25.2220  -19.2200    3.9250 C   0  0  0  0  0  3  0  0  0  0  0  0
  -25.0390  -20.4980    4.4700 C   0  0  0  0  0  3  0  0  0  0  0  0
  -26.5620  -17.3450    3.4250 O   0  0  0  0  0  0  0  0  0  0  0  0
  -27.4130  -16.3900    3.9130 C   0  0  0  0  0  0  0  0  0  0  0  0
  -27.3430  -15.9400    5.2500 C   0  0  0  0  0  3  0  0  0  0  0  0
  -28.1910  -14.9040    5.6870 C   0  0  0  0  0  3  0  0  0  0  0  0
  -29.1020  -14.3140    4.7910 C   0  0  0  0  0  0  0  0  0  0  0  0
  -29.1700  -14.7590    3.4590 C   0  0  0  0  0  3  0  0  0  0  0  0
  -28.3250  -15.7940    3.0210 C   0  0  0  0  0  0  0  0  0  0  0  0
  -28.3780  -16.2070    1.7320 F   0  0  0  0  0  0  0  0  0  0  0  0
  -29.9110  -13.3120    5.2080 F   0  0  0  0  0  0  0  0  0  0  0  0
  -23.8950  -22.0440    7.3970 C   0  0  0  0  0  0  0  0  0  0  0  0
  -24.2430  -20.8080    7.7200 N   0  0  0  0  0  0  0  0  0  0  0  0
  -22.8120  -22.5250    7.7300 O   0  0  0  0  0  0  0  0  0  0  0  0
  -25.1460  -20.4390    7.4610 H   0  0  0  0  0  0  0  0  0  0  0  0
  -23.6010  -20.2230    8.2360 H   0  0  0  0  0  0  0  0  0  0  0  0
  -24.2920  -25.1770    7.4770 N   0  0  0  0  0  0  0  0  0  0  0  0
  -23.4560  -24.8910    7.9760 H   0  0  0  0  0  0  0  0  0  0  0  0
  -24.2380  -26.1250    7.1320 H   0  0  0  0  0  0  0  0  0  0  0  0
  -22.9670  -28.2690   22.5570 C   0  0  0  0  0  2  0  0  0  0  0  0
  -24.3760  -27.1890   22.6080 N   0  0  0  0  0  4  0  0  0  0  0  0
  -24.3290  -26.7770   23.5270 H   0  0  0  0  0  0  0  0  0  0  0  0
  -25.1170  -27.8670   22.6890 H   0  0  0  0  0  0  0  0  0  0  0  0
  -25.1710  -25.9330   21.6100 C   0  0  0  0  0  2  0  0  0  0  0  0
  -25.0820  -25.3460   19.7840 C   0  0  0  0  0  2  0  0  0  0  0  0
  -25.8880  -24.7360   18.4190 O   0  0  0  0  0  0  0  0  0  0  0  0
  -31.2260  -23.3650   18.8700 C   0  0  0  0  0  0  0  0  0  0  0  0
  -26.4110  -25.4840   17.3610 C   0  0  0  0  0  3  0  0  0  0  0  0
  -30.5830  -25.8390   18.9390 C   0  0  0  0  0  3  0  0  0  0  0  0
  -28.8400  -26.6530   17.3530 C   0  0  0  0  0  3  0  0  0  0  0  0
  -29.9260  -24.3820   16.9710 C   0  0  0  0  0  2  0  0  0  0  0  0
  -28.7130  -25.3190   16.9090 C   0  0  0  0  0  3  0  0  0  0  0  0
  -27.4350  -24.7820   16.7260 C   0  0  0  0  0  2  0  0  0  0  0  0
  -26.4380  -26.8940   17.4370 C   0  0  0  0  0  3  0  0  0  0  0  0
  -27.7090  -27.4840   17.5040 C   0  0  0  0  0  3  0  0  0  0  0  0
  -30.1720  -26.9900   18.0000 C   0  0  0  0  0  2  0  0  0  0  0  0
  -30.7450  -24.4940   18.2120 N   0  0  0  0  0  0  0  0  0  0  0  0
  -31.8090  -23.4550   19.9610 O   0  0  0  0  0  0  0  0  0  0  0  0
  -29.3280  -25.6560   19.7860 C   0  0  0  0  0  0  0  0  0  0  0  0
  -28.5030  -26.5200   20.4140 N   0  0  0  0  0  0  0  0  0  0  0  0
  -29.1070  -24.5210   19.9330 O   0  0  0  0  0  0  0  0  0  0  0  0
  -28.6790  -27.4700   20.0970 H   0  0  0  0  0  0  0  0  0  0  0  0
  -28.9200  -29.5590   23.9980 C   0  0  0  0  0  0  0  0  0  0  0  0
  -27.7840  -26.7500   21.8820 C   0  0  0  0  0  1  0  0  0  0  0  0
  -26.7140  -28.1830   20.3800 C   0  0  0  0  0 15  0  0  0  0  0  0
  -26.5930  -30.4450   21.1500 C   0  0  0  0  0 15  0  0  0  0  0  0
  -27.7670  -30.8440   23.0500 C   0  0  0  0  0  1  0  0  0  0  0  0
  -28.8530  -27.8460   23.8300 C   0  0  0  0  0  3  0  0  0  0  0  0
  -30.2710  -27.5290   24.3950 C   0  0  0  0  0  3  0  0  0  0  0  0
  -31.5220  -28.2790   24.6060 C   0  0  0  0  0  3  0  0  0  0  0  0
  -31.4940  -29.6710   24.6470 C   0  0  0  0  0  3  0  0  0  0  0  0
  -30.2010  -30.2350   24.4110 C   0  0  0  0  0  3  0  0  0  0  0  0
  -31.0110  -21.9040   18.3230 C   0  0  0  0  0  3  0  0  0  0  0  0
  -32.3530  -21.3880   18.0570 N   0  0  0  0  0  0  0  0  0  0  0  0
  -32.9310  -21.4350   16.8530 C   0  0  0  0  0  0  0  0  0  0  0  0
  -32.3460  -21.8560   15.8500 O   0  0  0  0  0  0  0  0  0  0  0  0
  -32.9080  -21.1170   18.8560 H   0  0  0  0  0  0  0  0  0  0  0  0
  -35.3420  -22.1390   16.8680 C   0  0  0  0  0  1  0  0  0  0  0  0
  -34.3830  -20.9450   16.7440 C   0  0  0  0  0  3  0  0  0  0  0  0
  -33.9210  -18.9520   15.3890 C   0  0  0  0  0  1  0  0  0  0  0  0
  -34.6560  -20.2100   15.4900 N   0  0  0  0  0  0  0  0  0  0  0  0
  -35.6470  -20.0030   15.4030 H   0  0  0  0  0  0  0  0  0  0  0  0
  -30.2240  -20.8810   19.2550 C   0  0  1  0  0  0  0  0  0  0  0  0
  -30.7690  -20.7930   20.6980 C   0  0  0  0  0  1  0  0  0  0  0  0
  -28.7150  -21.2140   19.3090 C   0  0  0  0  0  1  0  0  0  0  0  0
  -30.2860  -19.4560   18.6440 C   0  0  0  0  0  1  0  0  0  0  0  0
  1  2  1  0
  2 49  1  0
  4  5  1  0
  5  1  1  0
  5  2  1  0
  7  8  1  0
 10 15  1  0
 11 10  1  0
 12 11  1  0
 13 12  1  0
 13 24  1  0
 13 14  1  0
 14 15  1  0
 15  9  1  0
 16  9  1  0
 17 18  1  0
 21 46  1  0
 22 21  2  0
 22 41  1  0
 23 22  1  0
 24 21  1  0
 25 23  2  0
 25 24  1  0
 26 27  1  0
 26 23  1  0
 28 27  2  0
 29 28  1  0
 30 29  2  0
 30 31  1  0
 31 26  2  0
 32 33  1  0
 32 29  1  0
 33 34  1  0
 34 35  2  0
 36 40  1  0
 36 35  1  0
 37 36  2  0
 38 37  1  0
 38 33  2  0
 39 38  1  0
 41 42  1  0
 41 43  2  0
 42 45  1  0
 44 42  1  0
 46 47  1  0
 48 46  1  0
 49 50  1  0
 50 52  1  0
 50 51  1  0
 53 50  1  0
 54 53  1  0
 55 54  1  0
 56 67  2  0
 57 63  1  0
 57 55  1  0
 58 68  1  0
 59 64  1  0
 59 65  1  0
 60 66  1  0
 61 62  1  0
 61 60  1  0
 61 59  1  0
 62 57  1  0
 63 64  2  0
 65 58  1  0
 66 56  1  0
 66 58  1  0
 68 70  2  0
 68 69  1  0
 69 73  1  0
 71 69  1  0
 72 81  1  0
 76 72  1  0
 77 72  2  0
 77 78  1  0
 78 79  2  0
 79 80  1  0
 81 80  2  0
 82 56  1  0
 82 92  1  0
 83 82  1  0
 83 86  1  0
 84 83  1  0
 85 84  2  0
 88 84  1  0
 88 87  1  0
 89 90  1  0
 90 88  1  0
 91 90  1  0
 92 94  1  1
 92 93  1  0
 95 92  1  0
M  ISO  4   9 100  20 100  54 101  55 101
M  END
>  <TORSDO>  (89) 
F 21

>  <SCORE>  (89) 
-4.098

>  <name>  (89) 
89

>  <ligand_id>  (89) 
89

>  <original_smiles>  (89) 
[H]c1c([H])c([H])c2c(c1[H])C([H])([H])C([H])([H])C([H])([H])C2([H])N([H])C(=O)C1([H])N(C(=O)C([H])(N([H])C(=O)C([H])(N([H])C([H])([H])[H])C([H])([H])[H])C(C([H])([H])[H])(C([H])([H])[H])C([H])([H])[H])C([H])([H])c2c([H])c(OC([H])([H])C([H])([H])[N+]([H])([H])C([H])([H])c3nn(C([H])(C([H])([H])[H])C4([H])C([H])([H])N(C(=O)N5C([H])([H])C([H])([H])C([H])([H])C([H])(n6nc(-c7c([H])c([H])c(Oc8c([H])c([H])c(F)c([H])c8F)c([H])c7[H])c(C(=O)N([H])[H])c6N([H])[H])C5([H])[H])C4([H])[H])nc3C([H])([H])[H])c([H])c([H])c2C1([H])[H]

>  <smiles>  (89) 
[H]c1c([H])c([H])c2c(c1[H])C([H])([H])C([H])([H])C([H])([H])C2([H])N([H])C(=O)C1([H])N(C(=O)C([H])(N([H])C(=O)C([H])(N([H])C([H])([H])[H])C([H])([H])[H])C(C([H])([H])[H])(C([H])([H])[H])C([H])([H])[H])C([H])([H])c2c([H])c(OC([H])([H])C([H])([H])[N+]([H])([H])C([H])([H])c3nn(C([H])(C([H])([H])[H])C4([H])C([H])([H])N(C(=O)N5C([H])([H])C([H])([H])C([H])([H])C([H])(n6nc(-c7c([H])c([H])c(Oc8c([H])c([H])c(F)c([H])c8F)c([H])c7[H])c(C(=O)N([H])[H])c6N([H])[H])C5([H])[H])C4([H])[H])nc3C([H])([H])[H])c([H])c([H])c2C1([H])[H]

$$$$
90:0:0
     RDKit          3D

 92101  0  0  1  0  0  0  0  0999 V2000
  -28.7150  -20.4780   18.4000 C   0  0  0  0  0  3  0  0  0  0  0  0
  -28.2230  -21.6230   17.7430 C   0  0  0  0  0  0  0  0  0  0  0  0
  -29.2000  -20.8930   19.6160 C   0  0  0  0  0  0  0  0  0  0  0  0
  -27.5980  -21.7230   16.3830 C   0  0  0  0  0  1  0  0  0  0  0  0
  -28.3710  -22.6930   18.4810 N   0  0  0  0  0  0  0  0  0  0  0  0
  -28.9420  -22.3360   19.6630 N   0  0  0  0  0  0  0  0  0  0  0  0
  -29.8120  -19.9590   20.5420 N   0  0  0  0  0  0  0  0  0  0  0  0
  -30.1450  -20.2660   21.4530 H   0  0  0  0  0  0  0  0  0  0  0  0
  -30.8220  -14.7480   20.5210 C   0  0  0  0  0  0  0  0  0  0  0  0
  -30.5920  -12.4870   19.4480 C   0  0  0  0  0  2  0  0  0  0  0  0
  -29.6550  -12.5320   18.2220 C   0  0  0  0  0  2  0  0  0  0  0  0
  -28.1910  -12.3040   18.6480 C   0  0  0  0  0  2  0  0  0  0  0  0
  -27.7930  -13.1760   19.8620 C   0  0  0  0  0  3  0  0  0  0  0  0
  -28.8600  -13.1300   20.9860 C   0  0  0  0  0  2  0  0  0  0  0  0
  -30.1410  -13.5440   20.3910 N   0  0  0  0  0  0  0  0  0  0  0  0
  -32.0340  -14.7530   20.2850 O   0  0  0  0  0  0  0  0  0  0  0  0
  -28.4860  -17.7910   20.6040 C   0  0  0  0  0  2  0  0  0  0  0  0
  -28.7560  -16.2800   20.4560 C   0  0  0  0  0  2  0  0  0  0  0  0
  -30.7900  -17.3720   20.8490 C   0  0  0  0  0  2  0  0  0  0  0  0
  -29.7950  -18.4600   20.2380 C   0  0  0  0  0  3  0  0  0  0  0  0
  -30.1690  -15.9820   20.7280 N   0  0  0  0  0  0  0  0  0  0  0  0
  -25.3960  -13.7770   20.5520 C   0  0  0  0  0  0  0  0  0  0  0  0
  -24.3310  -13.0020   20.9180 C   0  0  0  0  0  0  0  0  0  0  0  0
  -24.8070  -11.6550   20.9130 C   0  0  0  0  0  0  0  0  0  0  0  0
  -26.4500  -12.8980   20.3470 N   0  0  0  0  0  0  0  0  0  0  0  0
  -26.1020  -11.6200   20.6280 N   0  0  0  0  0  0  0  0  0  0  0  0
  -24.0920  -10.3910   21.1030 C   0  0  0  0  0  0  0  0  0  0  0  0
  -24.4920   -9.4580   22.0840 C   0  0  0  0  0  3  0  0  0  0  0  0
  -23.7750   -8.2550   22.2590 C   0  0  0  0  0  3  0  0  0  0  0  0
  -22.6460   -7.9780   21.4530 C   0  0  0  0  0  0  0  0  0  0  0  0
  -22.2670   -8.9010   20.4610 C   0  0  0  0  0  3  0  0  0  0  0  0
  -22.9840  -10.0940   20.2840 C   0  0  0  0  0  3  0  0  0  0  0  0
  -21.9060   -6.8240   21.5360 O   0  0  0  0  0  0  0  0  0  0  0  0
  -21.7850   -6.1310   22.7130 C   0  0  0  0  0  0  0  0  0  0  0  0
  -21.1860   -6.7040   23.8570 C   0  0  0  0  0  3  0  0  0  0  0  0
  -21.0190   -5.9330   25.0240 C   0  0  0  0  0  3  0  0  0  0  0  0
  -21.4410   -4.5910   25.0480 C   0  0  0  0  0  0  0  0  0  0  0  0
  -22.0310   -4.0180   23.9080 C   0  0  0  0  0  3  0  0  0  0  0  0
  -22.2000   -4.7860   22.7430 C   0  0  0  0  0  0  0  0  0  0  0  0
  -22.7520   -4.2230   21.6400 F   0  0  0  0  0  0  0  0  0  0  0  0
  -21.2720   -3.8460   26.1650 F   0  0  0  0  0  0  0  0  0  0  0  0
  -22.9260  -13.4730   21.1580 C   0  0  0  0  0  0  0  0  0  0  0  0
  -22.1900  -12.7850   22.0230 N   0  0  0  0  0  0  0  0  0  0  0  0
  -22.4900  -14.4870   20.6140 O   0  0  0  0  0  0  0  0  0  0  0  0
  -22.5570  -11.9660   22.4850 H   0  0  0  0  0  0  0  0  0  0  0  0
  -21.2460  -13.0820   22.2260 H   0  0  0  0  0  0  0  0  0  0  0  0
  -25.5380  -15.1460   20.3500 N   0  0  0  0  0  0  0  0  0  0  0  0
  -24.7560  -15.7840   20.4430 H   0  0  0  0  0  0  0  0  0  0  0  0
  -26.3780  -15.5960   20.0120 H   0  0  0  0  0  0  0  0  0  0  0  0
  -29.0770  -23.5360   20.6100 C   0  0  0  0  0  3  0  0  0  0  0  0
  -28.6980  -25.0130   19.9840 C   0  0  0  0  0  3  0  0  0  0  0  0
  -28.5290  -26.3170   20.7300 O   0  0  0  0  0  0  0  0  0  0  0  0
  -24.6670  -31.8550   23.4220 C   0  0  0  0  0  0  0  0  0  0  0  0
  -27.4150  -27.1890   20.5750 C   0  0  0  0  0  0  0  0  0  0  0  0
  -23.5490  -30.4420   21.7390 C   0  0  0  0  0  3  0  0  0  0  0  0
  -25.0660  -28.8630   20.4160 C   0  0  0  0  0  0  0  0  0  0  0  0
  -26.1020  -30.7250   21.7000 C   0  0  0  0  0  2  0  0  0  0  0  0
  -26.2070  -29.3340   21.0740 C   0  0  0  0  0  0  0  0  0  0  0  0
  -27.3780  -28.5100   21.1450 C   0  0  0  0  0  3  0  0  0  0  0  0
  -26.2350  -26.7860   19.9000 C   0  0  0  0  0  3  0  0  0  0  0  0
  -25.0860  -27.5950   19.8230 C   0  0  0  0  0  3  0  0  0  0  0  0
  -23.8370  -29.7490   20.3820 C   0  0  0  0  0  2  0  0  0  0  0  0
  -24.7890  -31.0260   22.3430 N   0  0  0  0  0  0  0  0  0  0  0  0
  -23.5570  -32.1470   23.8890 O   0  0  0  0  0  0  0  0  0  0  0  0
  -22.8230  -29.4420   22.6740 C   0  0  0  0  0  0  0  0  0  0  0  0
  -21.5110  -29.2480   22.4560 N   0  0  0  0  0  0  0  0  0  0  0  0
  -23.4450  -28.8450   23.5570 O   0  0  0  0  0  0  0  0  0  0  0  0
  -21.0690  -29.7820   21.7200 H   0  0  0  0  0  0  0  0  0  0  0  0
  -18.1130  -28.0400   22.7530 C   0  0  0  0  0  0  0  0  0  0  0  0
  -20.6450  -28.3240   23.1910 C   0  0  0  0  0  3  0  0  0  0  0  0
  -20.7950  -26.8800   22.6580 C   0  0  0  0  0  2  0  0  0  0  0  0
  -19.7660  -26.5260   21.5790 C   0  0  0  0  0  2  0  0  0  0  0  0
  -18.3420  -26.6770   22.1230 C   0  0  0  0  0  2  0  0  0  0  0  0
  -19.1950  -28.8190   23.2410 C   0  0  0  0  0  0  0  0  0  0  0  0
  -18.9280  -30.0920   23.7880 C   0  0  0  0  0  3  0  0  0  0  0  0
  -17.6130  -30.5880   23.8530 C   0  0  0  0  0  3  0  0  0  0  0  0
  -16.5440  -29.8060   23.3820 C   0  0  0  0  0  3  0  0  0  0  0  0
  -16.7940  -28.5340   22.8380 C   0  0  0  0  0  3  0  0  0  0  0  0
  -25.9140  -32.4920   24.1070 C   0  0  0  0  0  3  0  0  0  0  0  0
  -26.3160  -31.7730   25.4540 C   0  0  1  0  0  0  0  0  0  0  0  0
  -25.1380  -31.6000   26.4410 C   0  0  0  0  0  1  0  0  0  0  0  0
  -26.9060  -30.3700   25.1740 C   0  0  0  0  0  1  0  0  0  0  0  0
  -27.4240  -32.5830   26.1670 C   0  0  0  0  0  1  0  0  0  0  0  0
  -25.6130  -33.9100   24.3490 N   0  0  0  0  0  0  0  0  0  0  0  0
  -26.0050  -34.9180   23.5590 C   0  0  0  0  0  0  0  0  0  0  0  0
  -26.7270  -34.7520   22.5710 O   0  0  0  0  0  0  0  0  0  0  0  0
  -24.9800  -34.1120   25.1080 H   0  0  0  0  0  0  0  0  0  0  0  0
  -24.3330  -36.7210   23.0290 C   0  0  0  0  0  1  0  0  0  0  0  0
  -25.5230  -36.3360   23.9230 C   0  0  0  0  0  3  0  0  0  0  0  0
  -27.6190  -37.2380   24.8310 C   0  0  0  0  0  1  0  0  0  0  0  0
  -26.5810  -37.3650   23.8120 N   0  0  0  0  0  0  0  0  0  0  0  0
  -26.1840  -38.2990   23.8760 H   0  0  0  0  0  0  0  0  0  0  0  0
  1  3  2  0
  2  1  1  0
  2  5  2  0
  3  6  1  0
  3  7  1  0
  4  2  1  0
  5  6  1  0
  6 50  1  0
  7  8  1  0
  9 21  1  0
 10 15  1  0
 11 12  1  0
 11 10  1  0
 13 12  1  0
 13 25  1  0
 13 14  1  0
 15  9  1  0
 15 14  1  0
 16  9  2  0
 18 17  1  0
 18 21  1  0
 20  7  1  0
 20 17  1  0
 20 19  1  0
 21 19  1  0
 22 23  2  0
 23 42  1  0
 24 23  1  0
 24 27  1  0
 25 22  1  0
 25 26  1  0
 26 24  2  0
 27 28  1  0
 28 29  2  0
 30 33  1  0
 30 29  1  0
 31 30  2  0
 32 31  1  0
 32 27  2  0
 33 34  1  0
 34 39  2  0
 34 35  1  0
 35 36  2  0
 36 37  1  0
 37 41  1  0
 38 37  2  0
 39 38  1  0
 40 39  1  0
 42 43  1  0
 43 46  1  0
 43 45  1  0
 44 42  2  0
 47 48  1  0
 47 22  1  0
 49 47  1  0
 51 50  2  0
 51 52  1  0
 53 64  2  0
 54 52  1  0
 54 59  1  0
 55 63  1  0
 55 65  1  0
 56 58  1  0
 57 63  1  0
 58 59  2  0
 58 57  1  0
 60 54  2  0
 61 60  1  0
 61 56  2  0
 62 56  1  0
 62 55  1  0
 63 53  1  0
 65 67  2  0
 66 65  1  0
 68 66  1  0
 69 78  2  0
 69 74  1  0
 70 66  1  0
 70 74  1  0
 71 70  1  0
 72 73  1  0
 72 71  1  0
 73 69  1  0
 74 75  2  0
 75 76  1  0
 77 76  2  0
 78 77  1  0
 79 53  1  0
 79 84  1  0
 79 80  1  0
 80 83  1  1
 80 81  1  0
 82 80  1  0
 84 87  1  0
 85 89  1  0
 85 84  1  0
 86 85  2  0
 89 88  1  0
 91 92  1  0
 91 89  1  0
 91 90  1  0
M  ISO  4   9 100  21 100  51 101  52 101
M  END
>  <TORSDO>  (90) 
F 19

>  <SCORE>  (90) 
-12.431

>  <name>  (90) 
90

>  <ligand_id>  (90) 
90

>  <original_smiles>  (90) 
[H]c1c([H])c([H])c2c(c1[H])C([H])([H])C([H])([H])C([H])([H])C2([H])N([H])C(=O)C1([H])N(C(=O)C([H])(N([H])C(=O)C([H])(N([H])C([H])([H])[H])C([H])([H])[H])C(C([H])([H])[H])(C([H])([H])[H])C([H])([H])[H])C([H])([H])c2c([H])c(OC([H])([H])C([H])([H])n3nc(C([H])([H])[H])c([H])c3N([H])C3([H])C([H])([H])N(C(=O)N4C([H])([H])C([H])([H])C([H])([H])C([H])(n5nc(-c6c([H])c([H])c(Oc7c([H])c([H])c(F)c([H])c7F)c([H])c6[H])c(C(=O)N([H])[H])c5N([H])[H])C4([H])[H])C([H])([H])C3([H])[H])c([H])c([H])c2C1([H])[H]

>  <smiles>  (90) 
[H]c1c([H])c([H])c2c(c1[H])C([H])([H])C([H])([H])C([H])([H])C2([H])N([H])C(=O)C1([H])N(C(=O)C([H])(N([H])C(=O)C([H])(N([H])C([H])([H])[H])C([H])([H])[H])C(C([H])([H])[H])(C([H])([H])[H])C([H])([H])[H])C([H])([H])c2c([H])c(OC([H])([H])C([H])([H])n3nc(C([H])([H])[H])c([H])c3N([H])C3([H])C([H])([H])N(C(=O)N4C([H])([H])C([H])([H])C([H])([H])C([H])(n5nc(-c6c([H])c([H])c(Oc7c([H])c([H])c(F)c([H])c7F)c([H])c6[H])c(C(=O)N([H])[H])c5N([H])[H])C4([H])[H])C([H])([H])C3([H])[H])c([H])c([H])c2C1([H])[H]

$$$$
91:0:0
     RDKit          3D

 92101  0  0  1  0  0  0  0  0999 V2000
  -31.2340  -20.5640   18.5450 C   0  0  0  0  0  3  0  0  0  0  0  0
  -30.9120  -19.3070   19.0950 C   0  0  0  0  0  3  0  0  0  0  0  0
  -30.4670  -21.7350   18.8060 C   0  0  0  0  0  0  0  0  0  0  0  0
  -29.8120  -19.1810   19.9460 C   0  0  0  0  0  0  0  0  0  0  0  0
  -29.3560  -21.6930   19.6920 C   0  0  0  0  0  0  0  0  0  0  0  0
  -29.0740  -20.3900   20.2350 N   0  0  0  0  0  0  0  0  0  0  0  0
  -30.5610  -14.9870   19.9260 C   0  0  0  0  0  0  0  0  0  0  0  0
  -30.3990  -12.6740   18.8180 C   0  0  0  0  0  2  0  0  0  0  0  0
  -29.3450  -12.6600   17.6810 C   0  0  0  0  0  2  0  0  0  0  0  0
  -27.9250  -12.4260   18.2330 C   0  0  0  0  0  2  0  0  0  0  0  0
  -27.6400  -13.2780   19.4940 C   0  0  0  0  0  3  0  0  0  0  0  0
  -28.7940  -13.1710   20.5090 C   0  0  0  0  0  2  0  0  0  0  0  0
  -29.9980  -13.6980   19.8360 N   0  0  0  0  0  0  0  0  0  0  0  0
  -31.6850  -15.1160   19.4200 O   0  0  0  0  0  0  0  0  0  0  0  0
  -29.8160  -17.4880   21.9960 C   0  0  0  0  0  2  0  0  0  0  0  0
  -29.4030  -16.0300   21.8340 C   0  0  0  0  0  2  0  0  0  0  0  0
  -29.4150  -17.6900   20.5540 C   0  0  0  0  0  3  0  0  0  0  0  0
  -29.7830  -16.1030   20.4080 N   0  0  0  0  0  0  0  0  0  0  0  0
  -25.3240  -13.8500   20.4250 C   0  0  0  0  0  0  0  0  0  0  0  0
  -24.2860  -13.0700   20.8520 C   0  0  0  0  0  0  0  0  0  0  0  0
  -24.7380  -11.7200   20.7520 C   0  0  0  0  0  0  0  0  0  0  0  0
  -26.3420  -12.9730   20.0850 N   0  0  0  0  0  0  0  0  0  0  0  0
  -26.0030  -11.6850   20.3470 N   0  0  0  0  0  0  0  0  0  0  0  0
  -24.0210  -10.4560   20.9660 C   0  0  0  0  0  0  0  0  0  0  0  0
  -24.4760   -9.4960   21.8960 C   0  0  0  0  0  3  0  0  0  0  0  0
  -23.7560   -8.2980   22.1000 C   0  0  0  0  0  3  0  0  0  0  0  0
  -22.5700   -8.0500   21.3680 C   0  0  0  0  0  0  0  0  0  0  0  0
  -22.1330   -8.9990   20.4260 C   0  0  0  0  0  3  0  0  0  0  0  0
  -22.8530  -10.1880   20.2220 C   0  0  0  0  0  3  0  0  0  0  0  0
  -21.8220   -6.9020   21.4790 O   0  0  0  0  0  0  0  0  0  0  0  0
  -21.7470   -6.2030   22.6580 C   0  0  0  0  0  0  0  0  0  0  0  0
  -21.2800   -6.8000   23.8490 C   0  0  0  0  0  3  0  0  0  0  0  0
  -21.1490   -6.0270   25.0190 C   0  0  0  0  0  3  0  0  0  0  0  0
  -21.4800   -4.6580   25.0010 C   0  0  0  0  0  0  0  0  0  0  0  0
  -21.9420   -4.0610   23.8150 C   0  0  0  0  0  3  0  0  0  0  0  0
  -22.0710   -4.8310   22.6460 C   0  0  0  0  0  0  0  0  0  0  0  0
  -22.4950   -4.2470   21.5000 F   0  0  0  0  0  0  0  0  0  0  0  0
  -21.3500   -3.9140   26.1240 F   0  0  0  0  0  0  0  0  0  0  0  0
  -22.9170  -13.5450   21.2440 C   0  0  0  0  0  0  0  0  0  0  0  0
  -22.2680  -12.8460   22.1670 N   0  0  0  0  0  0  0  0  0  0  0  0
  -22.4370  -14.5740   20.7670 O   0  0  0  0  0  0  0  0  0  0  0  0
  -22.6720  -12.0140   22.5710 H   0  0  0  0  0  0  0  0  0  0  0  0
  -21.3550  -13.1480   22.4760 H   0  0  0  0  0  0  0  0  0  0  0  0
  -25.4840  -15.2240   20.2740 N   0  0  0  0  0  0  0  0  0  0  0  0
  -24.7320  -15.8800   20.4540 H   0  0  0  0  0  0  0  0  0  0  0  0
  -26.3100  -15.6660   19.8910 H   0  0  0  0  0  0  0  0  0  0  0  0
  -26.9100  -22.5940   19.6870 C   0  0  0  0  0  1  0  0  0  0  0  0
  -28.3720  -23.0720   19.7120 C   0  0  0  0  0  3  0  0  0  0  0  0
  -28.4850  -24.5510   20.5790 C   0  0  0  0  0  2  0  0  0  0  0  0
  -28.4280  -26.0810   20.1550 O   0  0  0  0  0  0  0  0  0  0  0  0
  -24.6480  -31.7680   23.1430 C   0  0  0  0  0  0  0  0  0  0  0  0
  -27.3180  -27.0140   20.1980 C   0  0  0  0  0  0  0  0  0  0  0  0
  -23.4900  -30.3510   21.4930 C   0  0  0  0  0  3  0  0  0  0  0  0
  -24.9740  -28.7590   20.1180 C   0  0  0  0  0  0  0  0  0  0  0  0
  -26.0460  -30.6230   21.3730 C   0  0  0  0  0  2  0  0  0  0  0  0
  -26.1420  -29.2180   20.7390 C   0  0  0  0  0  0  0  0  0  0  0  0
  -27.3130  -28.3660   20.7530 C   0  0  0  0  0  3  0  0  0  0  0  0
  -26.1180  -26.6530   19.5550 C   0  0  0  0  0  3  0  0  0  0  0  0
  -24.9780  -27.4920   19.5100 C   0  0  0  0  0  3  0  0  0  0  0  0
  -23.7460  -29.6570   20.1280 C   0  0  0  0  0  2  0  0  0  0  0  0
  -24.7490  -30.9370   22.0600 N   0  0  0  0  0  0  0  0  0  0  0  0
  -23.5500  -32.0520   23.6450 O   0  0  0  0  0  0  0  0  0  0  0  0
  -22.7970  -29.3500   22.4530 C   0  0  0  0  0  0  0  0  0  0  0  0
  -21.4710  -29.1790   22.3080 N   0  0  0  0  0  0  0  0  0  0  0  0
  -23.4570  -28.7280   23.2900 O   0  0  0  0  0  0  0  0  0  0  0  0
  -20.9990  -29.7330   21.6080 H   0  0  0  0  0  0  0  0  0  0  0  0
  -18.0840  -27.9690   22.7530 C   0  0  0  0  0  0  0  0  0  0  0  0
  -20.6370  -28.2410   23.0670 C   0  0  0  0  0  3  0  0  0  0  0  0
  -20.7560  -26.8080   22.4980 C   0  0  0  0  0  2  0  0  0  0  0  0
  -19.6720  -26.4740   21.4680 C   0  0  0  0  0  2  0  0  0  0  0  0
  -18.2780  -26.6160   22.0870 C   0  0  0  0  0  2  0  0  0  0  0  0
  -19.1920  -28.7380   23.1990 C   0  0  0  0  0  0  0  0  0  0  0  0
  -18.9580  -30.0000   23.7850 C   0  0  0  0  0  3  0  0  0  0  0  0
  -17.6480  -30.4940   23.9310 C   0  0  0  0  0  3  0  0  0  0  0  0
  -16.5540  -29.7210   23.5050 C   0  0  0  0  0  3  0  0  0  0  0  0
  -16.7720  -28.4610   22.9190 C   0  0  0  0  0  3  0  0  0  0  0  0
  -25.9080  -32.4200   23.7890 C   0  0  0  0  0  3  0  0  0  0  0  0
  -26.4170  -31.6480   25.0690 C   0  0  1  0  0  0  0  0  0  0  0  0
  -25.3110  -31.3890   26.1200 C   0  0  0  0  0  1  0  0  0  0  0  0
  -27.0230  -30.2800   24.6780 C   0  0  0  0  0  1  0  0  0  0  0  0
  -27.5440  -32.4550   25.7530 C   0  0  0  0  0  1  0  0  0  0  0  0
  -25.5700  -33.8120   24.1320 N   0  0  0  0  0  0  0  0  0  0  0  0
  -25.8960  -34.8830   23.3960 C   0  0  0  0  0  0  0  0  0  0  0  0
  -26.5770  -34.8050   22.3700 O   0  0  0  0  0  0  0  0  0  0  0  0
  -24.9750  -33.9490   24.9370 H   0  0  0  0  0  0  0  0  0  0  0  0
  -24.1500  -36.6610   23.0560 C   0  0  0  0  0  1  0  0  0  0  0  0
  -25.3860  -36.2580   23.8740 C   0  0  0  0  0  3  0  0  0  0  0  0
  -27.4990  -37.1590   24.7390 C   0  0  0  0  0  1  0  0  0  0  0  0
  -26.4050  -37.3260   23.7870 N   0  0  0  0  0  0  0  0  0  0  0  0
  -25.9830  -38.2380   23.9460 H   0  0  0  0  0  0  0  0  0  0  0  0
  -31.0360  -22.8060   16.7650 C   0  0  0  0  0  1  0  0  0  0  0  0
  -30.7550  -22.9160   18.1580 O   0  0  0  0  0  0  0  0  0  0  0  0
  1  3  2  0
  1  2  1  0
  2  4  2  0
  3  5  1  0
  4  6  1  0
  5 48  1  0
  5  6  2  0
  7 18  1  0
  8 13  1  0
  9 10  1  0
  9  8  1  0
 11 10  1  0
 11 22  1  0
 11 12  1  0
 13  7  1  0
 13 12  1  0
 14  7  2  0
 16 15  1  0
 17  4  1  0
 17 15  1  0
 18 17  1  0
 18 16  1  0
 19 20  2  0
 20 39  1  0
 21 20  1  0
 21 24  1  0
 22 23  1  0
 22 19  1  0
 23 21  2  0
 24 25  1  0
 25 26  2  0
 27 30  1  0
 27 26  1  0
 28 27  2  0
 29 28  1  0
 29 24  2  0
 30 31  1  0
 31 32  1  0
 32 33  2  0
 34 33  1  0
 34 38  1  0
 35 34  2  0
 36 31  2  0
 36 35  1  0
 37 36  1  0
 39 40  1  0
 40 43  1  0
 40 42  1  0
 41 39  2  0
 44 19  1  0
 44 45  1  0
 46 44  1  0
 48 47  1  0
 48 49  1  0
 50 52  1  0
 50 49  1  0
 51 62  2  0
 52 57  1  0
 53 61  1  0
 53 63  1  0
 54 60  1  0
 54 56  1  0
 55 61  1  0
 56 57  2  0
 56 55  1  0
 58 52  2  0
 59 58  1  0
 59 54  2  0
 60 53  1  0
 61 51  1  0
 63 65  2  0
 64 63  1  0
 66 64  1  0
 67 76  2  0
 67 72  1  0
 68 64  1  0
 68 72  1  0
 69 68  1  0
 70 71  1  0
 70 69  1  0
 71 67  1  0
 72 73  2  0
 73 74  1  0
 75 74  2  0
 76 75  1  0
 77 51  1  0
 77 82  1  0
 77 78  1  0
 78 81  1  1
 78 79  1  0
 80 78  1  0
 82 85  1  0
 83 87  1  0
 83 82  1  0
 84 83  2  0
 87 86  1  0
 89 87  1  0
 89 90  1  0
 89 88  1  0
 91 92  1  0
 92  3  1  0
M  ISO  4   7 100  18 100  49 101  50 101
M  END
>  <TORSDO>  (91) 
F 19

>  <SCORE>  (91) 
-13.778

>  <name>  (91) 
91

>  <ligand_id>  (91) 
91

>  <original_smiles>  (91) 
[H]c1c(C2([H])N(C(=O)N3C([H])([H])C([H])([H])C([H])([H])C([H])(n4nc(-c5c([H])c([H])c(Oc6c([H])c([H])c(F)c([H])c6F)c([H])c5[H])c(C(=O)N([H])[H])c4N([H])[H])C3([H])[H])C([H])([H])C2([H])[H])nc(C([H])(C([H])([H])[H])C([H])([H])Oc2c([H])c([H])c3c(c2[H])C([H])([H])N(C(=O)C([H])(N([H])C(=O)C([H])(N([H])C([H])([H])[H])C([H])([H])[H])C(C([H])([H])[H])(C([H])([H])[H])C([H])([H])[H])C([H])(C(=O)N([H])C2([H])c4c([H])c([H])c([H])c([H])c4C([H])([H])C([H])([H])C2([H])[H])C3([H])[H])c(OC([H])([H])[H])c1[H]

>  <smiles>  (91) 
[H]c1c(C2([H])N(C(=O)N3C([H])([H])C([H])([H])C([H])([H])C([H])(n4nc(-c5c([H])c([H])c(Oc6c([H])c([H])c(F)c([H])c6F)c([H])c5[H])c(C(=O)N([H])[H])c4N([H])[H])C3([H])[H])C([H])([H])C2([H])[H])nc(C([H])(C([H])([H])[H])C([H])([H])Oc2c([H])c([H])c3c(c2[H])C([H])([H])N(C(=O)C([H])(N([H])C(=O)C([H])(N([H])C([H])([H])[H])C([H])([H])[H])C(C([H])([H])[H])(C([H])([H])[H])C([H])([H])[H])C([H])(C(=O)N([H])C2([H])c4c([H])c([H])c([H])c([H])c4C([H])([H])C([H])([H])C2([H])[H])C3([H])[H])c(OC([H])([H])[H])c1[H]

$$$$
92:0:0
     RDKit          3D

 97106  0  0  1  0  0  0  0  0999 V2000
  -28.6530  -24.2120   18.4410 C   0  0  0  0  0  3  0  0  0  0  0  0
  -29.0520  -24.3140   19.7830 C   0  0  0  0  0  0  0  0  0  0  0  0
  -29.2150  -23.1860   17.6890 C   0  0  0  0  0  0  0  0  0  0  0  0
  -30.4350  -22.4950   19.4960 C   0  0  0  0  0  0  0  0  0  0  0  0
  -29.7500  -22.2710   15.4680 C   0  0  0  0  0  1  0  0  0  0  0  0
  -29.9410  -23.4340   20.3070 N   0  0  0  0  0  0  0  0  0  0  0  0
  -30.1020  -22.3310   18.2200 N   0  0  0  0  0  0  0  0  0  0  0  0
  -28.8690  -23.0300   16.3480 N   0  0  0  0  0  0  0  0  0  0  0  0
  -28.2840  -23.7470   15.9310 H   0  0  0  0  0  0  0  0  0  0  0  0
  -28.4860  -25.4090   20.6880 C   0  0  0  0  0  2  0  0  0  0  0  0
  -28.5750  -26.7390   20.1370 O   0  0  0  0  0  0  0  0  0  0  0  0
  -24.7200  -31.8350   23.2960 C   0  0  0  0  0  0  0  0  0  0  0  0
  -27.4060  -27.4670   20.1520 C   0  0  0  0  0  0  0  0  0  0  0  0
  -23.5310  -30.4600   21.6170 C   0  0  0  0  0  3  0  0  0  0  0  0
  -25.0020  -28.9580   20.1730 C   0  0  0  0  0  0  0  0  0  0  0  0
  -26.0560  -30.8380   21.4410 C   0  0  0  0  0  2  0  0  0  0  0  0
  -26.1550  -29.4810   20.7750 C   0  0  0  0  0  0  0  0  0  0  0  0
  -27.3630  -28.7450   20.7550 C   0  0  0  0  0  3  0  0  0  0  0  0
  -26.2370  -26.9570   19.5450 C   0  0  0  0  0  3  0  0  0  0  0  0
  -25.0380  -27.6960   19.5540 C   0  0  0  0  0  3  0  0  0  0  0  0
  -23.7530  -29.8080   20.2260 C   0  0  0  0  0  2  0  0  0  0  0  0
  -24.7870  -31.0580   22.1770 N   0  0  0  0  0  0  0  0  0  0  0  0
  -23.6330  -32.0900   23.8340 O   0  0  0  0  0  0  0  0  0  0  0  0
  -22.8790  -29.4170   22.5520 C   0  0  0  0  0  0  0  0  0  0  0  0
  -21.5540  -29.2420   22.4220 N   0  0  0  0  0  0  0  0  0  0  0  0
  -23.5610  -28.7680   23.3490 O   0  0  0  0  0  0  0  0  0  0  0  0
  -21.0650  -29.8190   21.7520 H   0  0  0  0  0  0  0  0  0  0  0  0
  -18.1760  -28.0450   22.8880 C   0  0  0  0  0  0  0  0  0  0  0  0
  -20.7340  -28.2880   23.1690 C   0  0  0  0  0  3  0  0  0  0  0  0
  -20.8330  -26.8720   22.5570 C   0  0  0  0  0  2  0  0  0  0  0  0
  -19.7310  -26.5770   21.5340 C   0  0  0  0  0  2  0  0  0  0  0  0
  -18.3490  -26.7110   22.1800 C   0  0  0  0  0  2  0  0  0  0  0  0
  -19.2970  -28.7930   23.3380 C   0  0  0  0  0  0  0  0  0  0  0  0
  -19.0820  -30.0420   23.9580 C   0  0  0  0  0  3  0  0  0  0  0  0
  -17.7780  -30.5440   24.1340 C   0  0  0  0  0  3  0  0  0  0  0  0
  -16.6720  -29.7930   23.7020 C   0  0  0  0  0  3  0  0  0  0  0  0
  -16.8720  -28.5450   23.0840 C   0  0  0  0  0  3  0  0  0  0  0  0
  -25.9980  -32.4580   23.9360 C   0  0  0  0  0  3  0  0  0  0  0  0
  -26.5120  -31.6630   25.1990 C   0  0  1  0  0  0  0  0  0  0  0  0
  -25.4150  -31.3990   26.2570 C   0  0  0  0  0  1  0  0  0  0  0  0
  -27.1030  -30.2960   24.7790 C   0  0  0  0  0  1  0  0  0  0  0  0
  -27.6570  -32.4470   25.8830 C   0  0  0  0  0  1  0  0  0  0  0  0
  -25.6830  -33.8480   24.2910 N   0  0  0  0  0  0  0  0  0  0  0  0
  -26.0220  -34.9160   23.5560 C   0  0  0  0  0  0  0  0  0  0  0  0
  -26.7050  -34.8340   22.5310 O   0  0  0  0  0  0  0  0  0  0  0  0
  -25.0770  -33.9860   25.0870 H   0  0  0  0  0  0  0  0  0  0  0  0
  -24.2950  -36.7110   23.2110 C   0  0  0  0  0  1  0  0  0  0  0  0
  -25.5250  -36.2930   24.0330 C   0  0  0  0  0  3  0  0  0  0  0  0
  -27.6460  -37.1640   24.9110 C   0  0  0  0  0  1  0  0  0  0  0  0
  -26.5560  -37.3510   23.9560 N   0  0  0  0  0  0  0  0  0  0  0  0
  -26.1470  -38.2670   24.1170 H   0  0  0  0  0  0  0  0  0  0  0  0
  -31.6180  -21.6640   19.9920 C   0  0  0  0  0  2  0  0  0  0  0  0
  -31.4500  -20.1120   20.0840 C   0  0  0  0  0  2  0  0  0  0  0  0
  -30.7390  -20.2880   22.4800 C   0  0  0  0  0  1  0  0  0  0  0  0
  -30.6560  -19.5150   21.2120 N   0  0  2  0  0  4  0  0  0  0  0  0
  -29.6850  -19.5690   20.9400 H   0  0  0  0  0  0  0  0  0  0  0  0
  -31.1720  -14.7140   20.2100 C   0  0  0  0  0  0  0  0  0  0  0  0
  -30.7580  -12.6440   18.9230 C   0  0  0  0  0  2  0  0  0  0  0  0
  -29.7760  -12.9360   17.7690 C   0  0  0  0  0  2  0  0  0  0  0  0
  -28.3140  -12.8120   18.2450 C   0  0  0  0  0  2  0  0  0  0  0  0
  -28.0500  -13.5840   19.5650 C   0  0  0  0  0  3  0  0  0  0  0  0
  -29.1350  -13.2580   20.6110 C   0  0  0  0  0  2  0  0  0  0  0  0
  -30.4480  -13.5730   20.0240 N   0  0  0  0  0  0  0  0  0  0  0  0
  -32.2520  -14.9090   19.6420 O   0  0  0  0  0  0  0  0  0  0  0  0
  -30.3350  -17.3580   22.6090 C   0  0  0  0  0  2  0  0  0  0  0  0
  -30.5250  -15.8680   22.2910 C   0  0  0  0  0  2  0  0  0  0  0  0
  -30.5460  -17.1120   20.2650 C   0  0  0  0  0  2  0  0  0  0  0  0
  -30.9740  -18.0540   21.4090 C   0  0  0  0  0  3  0  0  0  0  0  0
  -30.5290  -15.7420   20.8250 N   0  0  0  0  0  0  0  0  0  0  0  0
  -25.6980  -14.2200   20.3980 C   0  0  0  0  0  0  0  0  0  0  0  0
  -24.6230  -13.4600   20.7710 C   0  0  0  0  0  0  0  0  0  0  0  0
  -25.0440  -12.0990   20.6560 C   0  0  0  0  0  0  0  0  0  0  0  0
  -26.7070  -13.3230   20.0820 N   0  0  0  0  0  0  0  0  0  0  0  0
  -26.3190  -12.0410   20.2930 N   0  0  0  0  0  0  0  0  0  0  0  0
  -24.2900  -10.8480   20.8140 C   0  0  0  0  0  0  0  0  0  0  0  0
  -24.6900   -9.8560   21.7340 C   0  0  0  0  0  3  0  0  0  0  0  0
  -23.9400   -8.6700   21.8810 C   0  0  0  0  0  3  0  0  0  0  0  0
  -22.7750   -8.4680   21.1040 C   0  0  0  0  0  0  0  0  0  0  0  0
  -22.3930   -9.4490   20.1730 C   0  0  0  0  0  3  0  0  0  0  0  0
  -23.1440  -10.6260   20.0240 C   0  0  0  0  0  3  0  0  0  0  0  0
  -21.9980   -7.3350   21.1600 O   0  0  0  0  0  0  0  0  0  0  0  0
  -21.8550   -6.6160   22.3200 C   0  0  0  0  0  0  0  0  0  0  0  0
  -21.3740   -7.2070   23.5080 C   0  0  0  0  0  3  0  0  0  0  0  0
  -21.1770   -6.4160   24.6570 C   0  0  0  0  0  3  0  0  0  0  0  0
  -21.4520   -5.0350   24.6180 C   0  0  0  0  0  0  0  0  0  0  0  0
  -21.9260   -4.4440   23.4340 C   0  0  0  0  0  3  0  0  0  0  0  0
  -22.1240   -5.2330   22.2870 C   0  0  0  0  0  0  0  0  0  0  0  0
  -22.5610   -4.6560   21.1420 F   0  0  0  0  0  0  0  0  0  0  0  0
  -21.2550   -4.2740   25.7200 F   0  0  0  0  0  0  0  0  0  0  0  0
  -23.2520  -13.9600   21.1250 C   0  0  0  0  0  0  0  0  0  0  0  0
  -22.5530  -13.2590   22.0110 N   0  0  0  0  0  0  0  0  0  0  0  0
  -22.8100  -15.0050   20.6480 O   0  0  0  0  0  0  0  0  0  0  0  0
  -22.9220  -12.4130   22.4170 H   0  0  0  0  0  0  0  0  0  0  0  0
  -21.6340  -13.5750   22.2880 H   0  0  0  0  0  0  0  0  0  0  0  0
  -25.8960  -15.5930   20.2830 N   0  0  0  0  0  0  0  0  0  0  0  0
  -25.1570  -16.2640   20.4580 H   0  0  0  0  0  0  0  0  0  0  0  0
  -26.7530  -16.0220   19.9580 H   0  0  0  0  0  0  0  0  0  0  0  0
  1  2  2  0
  2  6  1  0
  2 10  1  0
  3  7  2  0
  3  1  1  0
  4 52  1  0
  4  6  2  0
  5  8  1  0
  7  4  1  0
  8  3  1  0
  9  8  1  0
 11 13  1  0
 11 10  1  0
 12 23  2  0
 13 18  1  0
 14 22  1  0
 14 24  1  0
 15 21  1  0
 15 17  1  0
 16 22  1  0
 17 16  1  0
 18 17  2  0
 19 20  1  0
 19 13  2  0
 20 15  2  0
 21 14  1  0
 22 12  1  0
 24 26  2  0
 25 24  1  0
 27 25  1  0
 28 37  2  0
 28 33  1  0
 29 25  1  0
 29 33  1  0
 30 29  1  0
 31 32  1  0
 31 30  1  0
 32 28  1  0
 33 34  2  0
 34 35  1  0
 36 35  2  0
 37 36  1  0
 38 12  1  0
 38 43  1  0
 38 39  1  0
 39 42  1  1
 39 40  1  0
 41 39  1  0
 43 46  1  0
 44 48  1  0
 44 43  1  0
 45 44  2  0
 48 47  1  0
 50 48  1  0
 50 51  1  0
 50 49  1  0
 52 53  1  0
 53 55  1  0
 55 54  1  0
 55 56  1  6
 57 69  1  0
 58 63  1  0
 59 60  1  0
 59 58  1  0
 61 60  1  0
 61 73  1  0
 61 62  1  0
 63 57  1  0
 63 62  1  0
 64 57  2  0
 66 65  1  0
 67 69  1  0
 67 68  1  0
 68 55  1  0
 68 65  1  0
 69 66  1  0
 70 71  2  0
 71 90  1  0
 72 71  1  0
 72 75  1  0
 73 74  1  0
 73 70  1  0
 74 72  2  0
 75 76  1  0
 76 77  2  0
 78 81  1  0
 78 77  1  0
 79 78  2  0
 80 79  1  0
 80 75  2  0
 81 82  1  0
 82 83  1  0
 83 84  2  0
 85 84  1  0
 85 89  1  0
 86 85  2  0
 87 82  2  0
 87 86  1  0
 88 87  1  0
 90 91  1  0
 91 94  1  0
 91 93  1  0
 92 90  2  0
 95 70  1  0
 95 96  1  0
 97 95  1  0
M  ISO  4  10 101  11 101  57 100  69 100
M  END
>  <TORSDO>  (92) 
F 20

>  <SCORE>  (92) 
-12.427

>  <name>  (92) 
92

>  <ligand_id>  (92) 
92

>  <original_smiles>  (92) 
[H]c1c(N([H])C([H])([H])[H])nc(C([H])([H])C([H])([H])[N+]([H])(C([H])([H])[H])C2([H])C([H])([H])N(C(=O)N3C([H])([H])C([H])([H])C([H])([H])C([H])(n4nc(-c5c([H])c([H])c(Oc6c([H])c([H])c(F)c([H])c6F)c([H])c5[H])c(C(=O)N([H])[H])c4N([H])[H])C3([H])[H])C([H])([H])C2([H])[H])nc1C([H])([H])Oc1c([H])c([H])c2c(c1[H])C([H])([H])N(C(=O)C([H])(N([H])C(=O)C([H])(N([H])C([H])([H])[H])C([H])([H])[H])C(C([H])([H])[H])(C([H])([H])[H])C([H])([H])[H])C([H])(C(=O)N([H])C1([H])c3c([H])c([H])c([H])c([H])c3C([H])([H])C([H])([H])C1([H])[H])C2([H])[H]

>  <smiles>  (92) 
[H]c1c(N([H])C([H])([H])[H])nc(C([H])([H])C([H])([H])[N+]([H])(C([H])([H])[H])C2([H])C([H])([H])N(C(=O)N3C([H])([H])C([H])([H])C([H])([H])C([H])(n4nc(-c5c([H])c([H])c(Oc6c([H])c([H])c(F)c([H])c6F)c([H])c5[H])c(C(=O)N([H])[H])c4N([H])[H])C3([H])[H])C([H])([H])C2([H])[H])nc1C([H])([H])Oc1c([H])c([H])c2c(c1[H])C([H])([H])N(C(=O)C([H])(N([H])C(=O)C([H])(N([H])C([H])([H])[H])C([H])([H])[H])C(C([H])([H])[H])(C([H])([H])[H])C([H])([H])[H])C([H])(C(=O)N([H])C1([H])c3c([H])c([H])c([H])c([H])c3C([H])([H])C([H])([H])C1([H])[H])C2([H])[H]

$$$$
93:0:0
     RDKit          3D

 97106  0  0  1  0  0  0  0  0999 V2000
  -30.3500  -22.5640   21.7850 C   0  0  0  0  0  2  0  0  0  0  0  0
  -29.7040  -23.6640   22.6420 C   0  0  0  0  0  2  0  0  0  0  0  0
  -27.9850  -22.6270   21.3310 C   0  0  0  0  0  2  0  0  0  0  0  0
  -29.3260  -22.2930   20.6800 C   0  0  0  0  0  3  0  0  0  0  0  0
  -28.2750  -23.7560   22.2450 N   0  0  2  0  0  4  0  0  0  0  0  0
  -27.7340  -23.5850   23.0830 H   0  0  0  0  0  0  0  0  0  0  0  0
  -29.6310  -19.5110   18.0760 C   0  0  0  0  0  3  0  0  0  0  0  0
  -29.5010  -20.7970   18.6300 C   0  0  0  0  0  3  0  0  0  0  0  0
  -29.6880  -18.4100   18.9490 C   0  0  0  0  0  3  0  0  0  0  0  0
  -29.4090  -20.9240   20.0280 C   0  0  0  0  0  0  0  0  0  0  0  0
  -29.5800  -18.6390   20.3300 C   0  0  0  0  0  0  0  0  0  0  0  0
  -29.4170  -19.8600   20.8620 N   0  0  0  0  0  0  0  0  0  0  0  0
  -29.7020  -17.5970   21.2390 N   0  0  0  0  0  0  0  0  0  0  0  0
  -29.2590  -17.8340   22.1180 H   0  0  0  0  0  0  0  0  0  0  0  0
  -31.1110  -17.2880   21.4560 C   0  0  0  0  0  2  0  0  0  0  0  0
  -31.3130  -15.9260   22.1290 C   0  0  0  0  0  2  0  0  0  0  0  0
  -30.7660  -14.3280   20.2920 C   0  0  0  0  0  0  0  0  0  0  0  0
  -30.2760  -12.3370   18.9210 C   0  0  0  0  0  2  0  0  0  0  0  0
  -29.2770  -12.6120   17.7850 C   0  0  0  0  0  2  0  0  0  0  0  0
  -27.8290  -12.4760   18.2890 C   0  0  0  0  0  2  0  0  0  0  0  0
  -27.5760  -13.2910   19.5820 C   0  0  0  0  0  3  0  0  0  0  0  0
  -28.6640  -12.9900   20.6340 C   0  0  0  0  0  2  0  0  0  0  0  0
  -29.9870  -13.2520   20.0330 N   0  0  0  0  0  0  0  0  0  0  0  0
  -31.7040  -14.6920   19.5720 O   0  0  0  0  0  0  0  0  0  0  0  0
  -30.5320  -14.8790   21.4860 N   0  0  0  0  0  0  0  0  0  0  0  0
  -29.7560  -14.5010   22.0080 H   0  0  0  0  0  0  0  0  0  0  0  0
  -25.2170  -13.9400   20.3950 C   0  0  0  0  0  0  0  0  0  0  0  0
  -24.1540  -13.1830   20.8080 C   0  0  0  0  0  0  0  0  0  0  0  0
  -24.5920  -11.8240   20.7530 C   0  0  0  0  0  0  0  0  0  0  0  0
  -26.2380  -13.0430   20.1170 N   0  0  0  0  0  0  0  0  0  0  0  0
  -25.8650  -11.7640   20.3860 N   0  0  0  0  0  0  0  0  0  0  0  0
  -23.8570  -10.5720   20.9710 C   0  0  0  0  0  0  0  0  0  0  0  0
  -24.3120   -9.5960   21.8850 C   0  0  0  0  0  3  0  0  0  0  0  0
  -23.5780   -8.4070   22.0890 C   0  0  0  0  0  3  0  0  0  0  0  0
  -22.3750   -8.1860   21.3780 C   0  0  0  0  0  0  0  0  0  0  0  0
  -21.9400   -9.1500   20.4510 C   0  0  0  0  0  3  0  0  0  0  0  0
  -22.6740  -10.3290   20.2460 C   0  0  0  0  0  3  0  0  0  0  0  0
  -21.6090   -7.0510   21.4920 O   0  0  0  0  0  0  0  0  0  0  0  0
  -21.5920   -6.3080   22.6440 C   0  0  0  0  0  0  0  0  0  0  0  0
  -21.2350   -6.8710   23.8890 C   0  0  0  0  0  3  0  0  0  0  0  0
  -21.1630   -6.0550   25.0360 C   0  0  0  0  0  3  0  0  0  0  0  0
  -21.4370   -4.6770   24.9400 C   0  0  0  0  0  0  0  0  0  0  0  0
  -21.7880   -4.1140   23.7000 C   0  0  0  0  0  3  0  0  0  0  0  0
  -21.8620   -4.9280   22.5560 C   0  0  0  0  0  0  0  0  0  0  0  0
  -22.1790   -4.3750   21.3600 F   0  0  0  0  0  0  0  0  0  0  0  0
  -21.3600   -3.8920   26.0390 F   0  0  0  0  0  0  0  0  0  0  0  0
  -22.7780  -13.6780   21.1450 C   0  0  0  0  0  0  0  0  0  0  0  0
  -22.0790  -12.9880   22.0400 N   0  0  0  0  0  0  0  0  0  0  0  0
  -22.3320  -14.7130   20.6510 O   0  0  0  0  0  0  0  0  0  0  0  0
  -22.4520  -12.1500   22.4610 H   0  0  0  0  0  0  0  0  0  0  0  0
  -21.1580  -13.3030   22.3080 H   0  0  0  0  0  0  0  0  0  0  0  0
  -25.3970  -15.3080   20.2160 N   0  0  0  0  0  0  0  0  0  0  0  0
  -24.6530  -15.9790   20.3710 H   0  0  0  0  0  0  0  0  0  0  0  0
  -26.2530  -15.7350   19.8830 H   0  0  0  0  0  0  0  0  0  0  0  0
  -27.8570  -25.1030   21.7640 C   0  0  0  0  0  2  0  0  0  0  0  0
  -28.4350  -25.5070   20.3830 C   0  0  0  0  0  2  0  0  0  0  0  0
  -28.4530  -26.9190   20.2110 O   0  0  0  0  0  0  0  0  0  0  0  0
  -24.5450  -31.9610   23.2630 C   0  0  0  0  0  0  0  0  0  0  0  0
  -27.2480  -27.5730   20.1960 C   0  0  0  0  0  0  0  0  0  0  0  0
  -23.3610  -30.5470   21.6150 C   0  0  0  0  0  3  0  0  0  0  0  0
  -24.8340  -29.0230   20.2030 C   0  0  0  0  0  0  0  0  0  0  0  0
  -25.8790  -30.9390   21.4260 C   0  0  0  0  0  2  0  0  0  0  0  0
  -25.9800  -29.5700   20.7910 C   0  0  0  0  0  0  0  0  0  0  0  0
  -27.1910  -28.8530   20.7790 C   0  0  0  0  0  3  0  0  0  0  0  0
  -26.0840  -27.0250   19.6080 C   0  0  0  0  0  3  0  0  0  0  0  0
  -24.8780  -27.7500   19.6090 C   0  0  0  0  0  3  0  0  0  0  0  0
  -23.5840  -29.8700   20.2360 C   0  0  0  0  0  2  0  0  0  0  0  0
  -24.6140  -31.1630   22.1600 N   0  0  0  0  0  0  0  0  0  0  0  0
  -23.4590  -32.2230   23.7990 O   0  0  0  0  0  0  0  0  0  0  0  0
  -22.7170  -29.5190   22.5700 C   0  0  0  0  0  0  0  0  0  0  0  0
  -21.3970  -29.3160   22.4270 N   0  0  0  0  0  0  0  0  0  0  0  0
  -23.4010  -28.9030   23.3920 O   0  0  0  0  0  0  0  0  0  0  0  0
  -20.9090  -29.8690   21.7350 H   0  0  0  0  0  0  0  0  0  0  0  0
  -18.0360  -28.0720   22.8790 C   0  0  0  0  0  0  0  0  0  0  0  0
  -20.5840  -28.3710   23.1890 C   0  0  0  0  0  3  0  0  0  0  0  0
  -20.7180  -26.9390   22.6230 C   0  0  0  0  0  2  0  0  0  0  0  0
  -19.6380  -26.5920   21.5920 C   0  0  0  0  0  2  0  0  0  0  0  0
  -18.2440  -26.7220   22.2140 C   0  0  0  0  0  2  0  0  0  0  0  0
  -19.1360  -28.8540   23.3220 C   0  0  0  0  0  0  0  0  0  0  0  0
  -18.8930  -30.1180   23.9010 C   0  0  0  0  0  3  0  0  0  0  0  0
  -17.5780  -30.6030   24.0420 C   0  0  0  0  0  3  0  0  0  0  0  0
  -16.4920  -29.8190   23.6170 C   0  0  0  0  0  3  0  0  0  0  0  0
  -16.7210  -28.5550   23.0420 C   0  0  0  0  0  3  0  0  0  0  0  0
  -25.8220  -32.6030   23.8900 C   0  0  0  0  0  3  0  0  0  0  0  0
  -25.5030  -34.0010   24.2070 N   0  0  0  0  0  0  0  0  0  0  0  0
  -25.8330  -35.0490   23.4400 C   0  0  0  0  0  0  0  0  0  0  0  0
  -26.5120  -34.9420   22.4150 O   0  0  0  0  0  0  0  0  0  0  0  0
  -24.9040  -34.1600   25.0040 H   0  0  0  0  0  0  0  0  0  0  0  0
  -24.0890  -36.8200   23.0600 C   0  0  0  0  0  1  0  0  0  0  0  0
  -25.3300  -36.4370   23.8810 C   0  0  0  0  0  3  0  0  0  0  0  0
  -27.4550  -37.3470   24.7100 C   0  0  0  0  0  1  0  0  0  0  0  0
  -26.3550  -37.4980   23.7610 N   0  0  0  0  0  0  0  0  0  0  0  0
  -25.9390  -38.4160   23.9010 H   0  0  0  0  0  0  0  0  0  0  0  0
  -26.3380  -31.8400   25.1710 C   0  0  1  0  0  0  0  0  0  0  0  0
  -25.2370  -31.5940   26.2310 C   0  0  0  0  0  1  0  0  0  0  0  0
  -26.9370  -30.4680   24.7830 C   0  0  0  0  0  1  0  0  0  0  0  0
  -27.4760  -32.6470   25.8380 C   0  0  0  0  0  1  0  0  0  0  0  0
  1  2  1  0
  3  5  1  0
  4 10  1  0
  4  3  1  0
  4  1  1  0
  5  2  1  0
  5  6  1  1
  7  8  2  0
  7  9  1  0
  8 10  1  0
  9 11  2  0
 10 12  2  0
 11 12  1  0
 11 13  1  0
 13 15  1  0
 13 14  1  0
 15 16  1  0
 17 25  1  0
 18 23  1  0
 19 20  1  0
 19 18  1  0
 21 20  1  0
 21 30  1  0
 21 22  1  0
 23 17  1  0
 23 22  1  0
 24 17  2  0
 25 26  1  0
 25 16  1  0
 27 28  2  0
 28 47  1  0
 29 28  1  0
 29 32  1  0
 30 31  1  0
 30 27  1  0
 31 29  2  0
 32 33  1  0
 33 34  2  0
 35 38  1  0
 35 34  1  0
 36 35  2  0
 37 36  1  0
 37 32  2  0
 38 39  1  0
 39 40  1  0
 40 41  2  0
 42 41  1  0
 42 46  1  0
 43 42  2  0
 44 39  2  0
 44 43  1  0
 45 44  1  0
 47 48  1  0
 48 51  1  0
 48 50  1  0
 49 47  2  0
 52 53  1  0
 52 27  1  0
 54 52  1  0
 55  5  1  0
 56 55  1  0
 57 56  1  0
 58 69  2  0
 59 57  1  0
 59 64  1  0
 60 68  1  0
 60 70  1  0
 61 67  1  0
 61 63  1  0
 62 68  1  0
 63 62  1  0
 64 63  2  0
 65 66  1  0
 65 59  2  0
 66 61  2  0
 67 60  1  0
 68 58  1  0
 70 72  2  0
 71 70  1  0
 73 71  1  0
 74 83  2  0
 74 79  1  0
 75 71  1  0
 75 79  1  0
 76 75  1  0
 77 78  1  0
 77 76  1  0
 78 74  1  0
 79 80  2  0
 80 81  1  0
 82 81  2  0
 83 82  1  0
 84 58  1  0
 84 85  1  0
 84 94  1  0
 85 88  1  0
 86 90  1  0
 86 85  1  0
 87 86  2  0
 90 89  1  0
 92 90  1  0
 92 93  1  0
 92 91  1  0
 94 97  1  1
 94 95  1  0
 96 94  1  0
M  ISO  4  17 100  25 100  56 101  57 101
M  END
>  <TORSDO>  (93) 
F 22

>  <SCORE>  (93) 
-13.492

>  <name>  (93) 
93

>  <ligand_id>  (93) 
93

>  <original_smiles>  (93) 
[H]c1c(N([H])C([H])([H])C([H])([H])N([H])C(=O)N2C([H])([H])C([H])([H])C([H])([H])C([H])(n3nc(-c4c([H])c([H])c(Oc5c([H])c([H])c(F)c([H])c5F)c([H])c4[H])c(C(=O)N([H])[H])c3N([H])[H])C2([H])[H])nc(C2([H])C([H])([H])C([H])([H])[N+]([H])(C([H])([H])C([H])([H])Oc3c([H])c([H])c4c(c3[H])C([H])([H])N(C(=O)C([H])(N([H])C(=O)C([H])(N([H])C([H])([H])[H])C([H])([H])[H])C(C([H])([H])[H])(C([H])([H])[H])C([H])([H])[H])C([H])(C(=O)N([H])C3([H])c5c([H])c([H])c([H])c([H])c5C([H])([H])C([H])([H])C3([H])[H])C4([H])[H])C2([H])[H])c([H])c1[H]

>  <smiles>  (93) 
[H]c1c(N([H])C([H])([H])C([H])([H])N([H])C(=O)N2C([H])([H])C([H])([H])C([H])([H])C([H])(n3nc(-c4c([H])c([H])c(Oc5c([H])c([H])c(F)c([H])c5F)c([H])c4[H])c(C(=O)N([H])[H])c3N([H])[H])C2([H])[H])nc(C2([H])C([H])([H])C([H])([H])[N+]([H])(C([H])([H])C([H])([H])Oc3c([H])c([H])c4c(c3[H])C([H])([H])N(C(=O)C([H])(N([H])C(=O)C([H])(N([H])C([H])([H])[H])C([H])([H])[H])C(C([H])([H])[H])(C([H])([H])[H])C([H])([H])[H])C([H])(C(=O)N([H])C3([H])c5c([H])c([H])c([H])c([H])c5C([H])([H])C([H])([H])C3([H])[H])C4([H])[H])C2([H])[H])c([H])c1[H]

$$$$
94:0:0
     RDKit          3D

 92101  0  0  1  0  0  0  0  0999 V2000
  -30.4790  -22.1310   21.0430 C   0  0  0  0  0  2  0  0  0  0  0  0
  -28.6110  -21.9440   19.6200 C   0  0  0  0  0  2  0  0  0  0  0  0
  -30.2670  -20.6760   21.5870 C   0  0  0  0  0  2  0  0  0  0  0  0
  -28.3680  -20.4770   20.1190 C   0  0  0  0  0  2  0  0  0  0  0  0
  -29.2090  -22.7920   20.6680 N   0  0  0  0  0  0  0  0  0  0  0  0
  -29.6150  -19.7920   20.5840 N   0  0  2  0  0  4  0  0  0  0  0  0
  -30.2250  -19.7640   19.7780 H   0  0  0  0  0  0  0  0  0  0  0  0
  -29.4080  -18.3390   20.9960 C   0  0  0  0  0  2  0  0  0  0  0  0
  -30.6620  -14.7140   20.4630 C   0  0  0  0  0  0  0  0  0  0  0  0
  -30.4050  -12.4190   19.5320 C   0  0  0  0  0  2  0  0  0  0  0  0
  -29.5160  -12.4590   18.2680 C   0  0  0  0  0  2  0  0  0  0  0  0
  -28.0190  -12.3800   18.6490 C   0  0  0  0  0  2  0  0  0  0  0  0
  -27.6200  -13.2790   19.8540 C   0  0  0  0  0  3  0  0  0  0  0  0
  -28.6600  -13.2380   20.9960 C   0  0  0  0  0  2  0  0  0  0  0  0
  -29.9760  -13.5240   20.4130 N   0  0  0  0  0  0  0  0  0  0  0  0
  -31.8910  -14.7330   20.3890 O   0  0  0  0  0  0  0  0  0  0  0  0
  -29.9780  -17.2840   18.2200 C   0  0  0  0  0  2  0  0  0  0  0  0
  -31.0860  -17.7020   19.1540 C   0  0  0  0  0  2  0  0  0  0  0  0
  -29.3410  -16.0750   18.9260 C   0  0  0  0  0  2  0  0  0  0  0  0
  -30.5000  -17.2860   20.5080 C   0  0  0  0  0  3  0  0  0  0  0  0
  -29.9540  -15.8960   20.2660 N   0  0  0  0  0  0  0  0  0  0  0  0
  -25.2180  -13.9090   20.5060 C   0  0  0  0  0  0  0  0  0  0  0  0
  -24.1370  -13.1410   20.8490 C   0  0  0  0  0  0  0  0  0  0  0  0
  -24.6020  -11.7920   20.8650 C   0  0  0  0  0  0  0  0  0  0  0  0
  -26.2660  -13.0170   20.3230 N   0  0  0  0  0  0  0  0  0  0  0  0
  -25.9010  -11.7450   20.6090 N   0  0  0  0  0  0  0  0  0  0  0  0
  -23.8730  -10.5330   21.0490 C   0  0  0  0  0  0  0  0  0  0  0  0
  -24.2850   -9.5770   22.0020 C   0  0  0  0  0  3  0  0  0  0  0  0
  -23.5520   -8.3820   22.1760 C   0  0  0  0  0  3  0  0  0  0  0  0
  -22.4000   -8.1350   21.3910 C   0  0  0  0  0  0  0  0  0  0  0  0
  -22.0140   -9.0810   20.4240 C   0  0  0  0  0  3  0  0  0  0  0  0
  -22.7470  -10.2660   20.2470 C   0  0  0  0  0  3  0  0  0  0  0  0
  -21.6460   -6.9890   21.4690 O   0  0  0  0  0  0  0  0  0  0  0  0
  -21.5730   -6.2510   22.6240 C   0  0  0  0  0  0  0  0  0  0  0  0
  -21.1230   -6.8130   23.8400 C   0  0  0  0  0  3  0  0  0  0  0  0
  -20.9980   -6.0040   24.9860 C   0  0  0  0  0  3  0  0  0  0  0  0
  -21.3130   -4.6330   24.9180 C   0  0  0  0  0  0  0  0  0  0  0  0
  -21.7550   -4.0710   23.7080 C   0  0  0  0  0  3  0  0  0  0  0  0
  -21.8830   -4.8780   22.5640 C   0  0  0  0  0  0  0  0  0  0  0  0
  -22.2880   -4.3270   21.3940 F   0  0  0  0  0  0  0  0  0  0  0  0
  -21.1880   -3.8540   26.0160 F   0  0  0  0  0  0  0  0  0  0  0  0
  -22.7300  -13.6260   21.0540 C   0  0  0  0  0  0  0  0  0  0  0  0
  -21.9740  -12.9400   21.9040 N   0  0  0  0  0  0  0  0  0  0  0  0
  -22.3110  -14.6400   20.5000 O   0  0  0  0  0  0  0  0  0  0  0  0
  -22.3310  -12.1190   22.3660 H   0  0  0  0  0  0  0  0  0  0  0  0
  -21.0260  -13.2370   22.0890 H   0  0  0  0  0  0  0  0  0  0  0  0
  -25.3860  -15.2770   20.3100 N   0  0  0  0  0  0  0  0  0  0  0  0
  -24.6110  -15.9260   20.3970 H   0  0  0  0  0  0  0  0  0  0  0  0
  -26.2490  -15.7260   20.0290 H   0  0  0  0  0  0  0  0  0  0  0  0
  -29.4240  -24.2190   20.2740 C   0  0  0  0  0  2  0  0  0  0  0  0
  -28.1350  -25.1040   20.0820 C   0  0  0  0  0  2  0  0  0  0  0  0
  -28.3160  -26.5600   20.1490 O   0  0  0  0  0  0  0  0  0  0  0  0
  -24.5610  -31.8850   23.2290 C   0  0  0  0  0  0  0  0  0  0  0  0
  -27.1660  -27.3580   20.1380 C   0  0  0  0  0  0  0  0  0  0  0  0
  -23.3460  -30.4790   21.6030 C   0  0  0  0  0  3  0  0  0  0  0  0
  -24.7850  -28.9300   20.1730 C   0  0  0  0  0  0  0  0  0  0  0  0
  -25.8810  -30.8090   21.3960 C   0  0  0  0  0  2  0  0  0  0  0  0
  -25.9590  -29.4320   20.7520 C   0  0  0  0  0  0  0  0  0  0  0  0
  -27.1500  -28.6540   20.7320 C   0  0  0  0  0  3  0  0  0  0  0  0
  -25.9660  -26.8980   19.5470 C   0  0  0  0  0  3  0  0  0  0  0  0
  -24.7890  -27.6650   19.5700 C   0  0  0  0  0  3  0  0  0  0  0  0
  -23.5480  -29.8000   20.2240 C   0  0  0  0  0  2  0  0  0  0  0  0
  -24.6160  -31.0740   22.1320 N   0  0  0  0  0  0  0  0  0  0  0  0
  -23.4830  -32.1610   23.7730 O   0  0  0  0  0  0  0  0  0  0  0  0
  -22.6980  -29.4610   22.5710 C   0  0  0  0  0  0  0  0  0  0  0  0
  -21.3710  -29.2800   22.4540 N   0  0  0  0  0  0  0  0  0  0  0  0
  -23.3850  -28.8400   23.3860 O   0  0  0  0  0  0  0  0  0  0  0  0
  -20.8770  -29.8300   21.7660 H   0  0  0  0  0  0  0  0  0  0  0  0
  -18.0020  -28.0720   22.9730 C   0  0  0  0  0  0  0  0  0  0  0  0
  -20.5610  -28.3420   23.2330 C   0  0  0  0  0  3  0  0  0  0  0  0
  -20.6670  -26.9080   22.6660 C   0  0  0  0  0  2  0  0  0  0  0  0
  -19.5640  -26.5740   21.6590 C   0  0  0  0  0  2  0  0  0  0  0  0
  -18.1810  -26.7210   22.3020 C   0  0  0  0  0  2  0  0  0  0  0  0
  -19.1190  -28.8410   23.3950 C   0  0  0  0  0  0  0  0  0  0  0  0
  -18.8980  -30.1060   23.9810 C   0  0  0  0  0  3  0  0  0  0  0  0
  -17.5930  -30.6040   24.1480 C   0  0  0  0  0  3  0  0  0  0  0  0
  -16.4890  -29.8320   23.7440 C   0  0  0  0  0  3  0  0  0  0  0  0
  -16.6950  -28.5690   23.1620 C   0  0  0  0  0  3  0  0  0  0  0  0
  -25.8500  -32.5210   23.8380 C   0  0  0  0  0  3  0  0  0  0  0  0
  -26.3860  -31.7460   25.1030 C   0  0  1  0  0  0  0  0  0  0  0  0
  -25.3070  -31.5020   26.1840 C   0  0  0  0  0  1  0  0  0  0  0  0
  -26.9690  -30.3730   24.6990 C   0  0  0  0  0  1  0  0  0  0  0  0
  -27.5410  -32.5450   25.7530 C   0  0  0  0  0  1  0  0  0  0  0  0
  -25.5350  -33.9150   24.1790 N   0  0  0  0  0  0  0  0  0  0  0  0
  -25.8450  -34.9730   23.4200 C   0  0  0  0  0  0  0  0  0  0  0  0
  -26.5000  -34.8820   22.3770 O   0  0  0  0  0  0  0  0  0  0  0  0
  -24.9510  -34.0600   24.9890 H   0  0  0  0  0  0  0  0  0  0  0  0
  -24.0990  -36.7550   23.1040 C   0  0  0  0  0  1  0  0  0  0  0  0
  -25.3540  -36.3560   23.8950 C   0  0  0  0  0  3  0  0  0  0  0  0
  -27.4990  -37.2470   24.6920 C   0  0  0  0  0  1  0  0  0  0  0  0
  -26.3750  -37.4200   23.7740 N   0  0  0  0  0  0  0  0  0  0  0  0
  -25.9650  -38.3340   23.9450 H   0  0  0  0  0  0  0  0  0  0  0  0
  1  3  1  0
  2  4  1  0
  2  5  1  0
  4  6  1  0
  5  1  1  0
  6  8  1  0
  6  3  1  0
  6  7  1  6
 10 15  1  0
 11 12  1  0
 11 10  1  0
 13 12  1  0
 13 25  1  0
 13 14  1  0
 15  9  1  0
 15 14  1  0
 16  9  2  0
 17 19  1  0
 17 18  1  0
 18 20  1  0
 19 21  1  0
 20  8  1  0
 21  9  1  0
 21 20  1  0
 22 23  2  0
 23 24  1  0
 23 42  1  0
 24 27  1  0
 25 22  1  0
 25 26  1  0
 26 24  2  0
 27 28  1  0
 28 29  2  0
 30 33  1  0
 30 29  1  0
 31 30  2  0
 32 31  1  0
 32 27  2  0
 33 34  1  0
 34 35  1  0
 35 36  2  0
 37 36  1  0
 37 41  1  0
 38 37  2  0
 39 34  2  0
 39 38  1  0
 40 39  1  0
 42 43  1  0
 43 46  1  0
 43 45  1  0
 44 42  2  0
 47 48  1  0
 47 22  1  0
 49 47  1  0
 50  5  1  0
 51 52  1  0
 51 50  1  0
 53 64  2  0
 54 52  1  0
 54 59  1  0
 55 63  1  0
 55 65  1  0
 56 62  1  0
 56 58  1  0
 57 63  1  0
 58 57  1  0
 59 58  2  0
 60 61  1  0
 60 54  2  0
 61 56  2  0
 62 55  1  0
 63 53  1  0
 65 67  2  0
 66 65  1  0
 68 66  1  0
 69 78  2  0
 69 74  1  0
 70 66  1  0
 70 74  1  0
 71 70  1  0
 72 73  1  0
 72 71  1  0
 73 69  1  0
 74 75  2  0
 75 76  1  0
 77 76  2  0
 78 77  1  0
 79 53  1  0
 79 84  1  0
 79 80  1  0
 80 83  1  1
 80 81  1  0
 82 80  1  0
 84 87  1  0
 85 89  1  0
 85 84  1  0
 86 85  2  0
 89 88  1  0
 91 89  1  0
 91 92  1  0
 91 90  1  0
M  ISO  4   9 100  21 100  51 101  52 101
M  END
>  <TORSDO>  (94) 
F 19

>  <SCORE>  (94) 
-13.884

>  <name>  (94) 
94

>  <ligand_id>  (94) 
94

>  <original_smiles>  (94) 
[H]c1c([H])c([H])c2c(c1[H])C([H])([H])C([H])([H])C([H])([H])C2([H])N([H])C(=O)C1([H])N(C(=O)C([H])(N([H])C(=O)C([H])(N([H])C([H])([H])[H])C([H])([H])[H])C(C([H])([H])[H])(C([H])([H])[H])C([H])([H])[H])C([H])([H])c2c([H])c(OC([H])([H])C([H])([H])N3C([H])([H])C([H])([H])[N+]([H])(C([H])([H])C4([H])N(C(=O)N5C([H])([H])C([H])([H])C([H])([H])C([H])(n6nc(-c7c([H])c([H])c(Oc8c([H])c([H])c(F)c([H])c8F)c([H])c7[H])c(C(=O)N([H])[H])c6N([H])[H])C5([H])[H])C([H])([H])C([H])([H])C4([H])[H])C([H])([H])C3([H])[H])c([H])c([H])c2C1([H])[H]

>  <smiles>  (94) 
[H]c1c([H])c([H])c2c(c1[H])C([H])([H])C([H])([H])C([H])([H])C2([H])N([H])C(=O)C1([H])N(C(=O)C([H])(N([H])C(=O)C([H])(N([H])C([H])([H])[H])C([H])([H])[H])C(C([H])([H])[H])(C([H])([H])[H])C([H])([H])[H])C([H])([H])c2c([H])c(OC([H])([H])C([H])([H])N3C([H])([H])C([H])([H])[N+]([H])(C([H])([H])C4([H])N(C(=O)N5C([H])([H])C([H])([H])C([H])([H])C([H])(n6nc(-c7c([H])c([H])c(Oc8c([H])c([H])c(F)c([H])c8F)c([H])c7[H])c(C(=O)N([H])[H])c6N([H])[H])C5([H])[H])C([H])([H])C([H])([H])C4([H])[H])C([H])([H])C3([H])[H])c([H])c([H])c2C1([H])[H]

$$$$
95:0:0
     RDKit          3D

101112  0  0  1  0  0  0  0  0999 V2000
  -30.3560  -23.2940   17.1960 C   0  0  0  0  0  2  0  0  0  0  0  0
  -28.1420  -22.6590   15.9340 C   0  0  0  0  0  2  0  0  0  0  0  0
  -30.8090  -24.5320   17.9870 C   0  0  0  0  0  2  0  0  0  0  0  0
  -28.5560  -24.8810   17.3010 C   0  0  0  0  0  2  0  0  0  0  0  0
  -27.8470  -22.3270   17.3760 C   0  0  0  0  0  3  0  0  0  0  0  0
  -28.8550  -23.4230   17.0230 C   0  0  2  0  0  0  0  0  0  0  0  0
  -29.5880  -25.3270   18.2580 N   0  0  2  0  0  4  0  0  0  0  0  0
  -29.2570  -25.0440   19.1700 H   0  0  0  0  0  0  0  0  0  0  0  0
  -28.2240  -20.9830   17.9360 C   0  0  0  0  0  0  0  0  0  0  0  0
  -28.9720  -19.4780   19.1710 C   0  0  0  0  0  0  0  0  0  0  0  0
  -27.8590  -19.8260   17.3630 N   0  0  0  0  0  0  0  0  0  0  0  0
  -28.3580  -18.8340   18.1770 N   0  0  0  0  0  0  0  0  0  0  0  0
  -28.9000  -20.8210   19.0960 N   0  0  0  0  0  0  0  0  0  0  0  0
  -29.6340  -18.8700   20.2260 N   0  0  0  0  0  0  0  0  0  0  0  0
  -30.0320  -19.5440   20.8700 H   0  0  0  0  0  0  0  0  0  0  0  0
  -31.5250  -14.3950   20.2130 C   0  0  0  0  0  0  0  0  0  0  0  0
  -31.0960  -12.3210   18.9600 C   0  0  0  0  0  2  0  0  0  0  0  0
  -30.0960  -12.6370   17.8280 C   0  0  0  0  0  2  0  0  0  0  0  0
  -28.6390  -12.5370   18.3300 C   0  0  0  0  0  2  0  0  0  0  0  0
  -28.4060  -13.3030   19.6600 C   0  0  0  0  0  3  0  0  0  0  0  0
  -29.5090  -12.9610   20.6860 C   0  0  0  0  0  2  0  0  0  0  0  0
  -30.8140  -13.2460   20.0650 N   0  0  0  0  0  0  0  0  0  0  0  0
  -32.6290  -14.5850   19.6930 O   0  0  0  0  0  0  0  0  0  0  0  0
  -30.4690  -17.3830   22.0280 C   0  0  0  0  0  2  0  0  0  0  0  0
  -30.9020  -15.9120   22.0610 C   0  0  0  0  0  2  0  0  0  0  0  0
  -30.4090  -16.5280   19.8060 C   0  0  0  0  0  2  0  0  0  0  0  0
  -29.6890  -17.5080   20.7240 C   0  0  0  0  0  3  0  0  0  0  0  0
  -30.8000  -15.4260   20.6840 N   0  0  0  0  0  0  0  0  0  0  0  0
  -26.0720  -13.9700   20.5180 C   0  0  0  0  0  0  0  0  0  0  0  0
  -24.9950  -13.2190   20.9090 C   0  0  0  0  0  0  0  0  0  0  0  0
  -25.4010  -11.8560   20.7890 C   0  0  0  0  0  0  0  0  0  0  0  0
  -27.0700  -13.0620   20.1960 N   0  0  0  0  0  0  0  0  0  0  0  0
  -26.6720  -11.7840   20.4140 N   0  0  0  0  0  0  0  0  0  0  0  0
  -24.6390  -10.6140   20.9570 C   0  0  0  0  0  0  0  0  0  0  0  0
  -24.9640   -9.6780   21.9630 C   0  0  0  0  0  3  0  0  0  0  0  0
  -24.2070   -8.4960   22.1140 C   0  0  0  0  0  3  0  0  0  0  0  0
  -23.1080   -8.2440   21.2580 C   0  0  0  0  0  0  0  0  0  0  0  0
  -22.8020   -9.1680   20.2430 C   0  0  0  0  0  3  0  0  0  0  0  0
  -23.5620  -10.3400   20.0900 C   0  0  0  0  0  3  0  0  0  0  0  0
  -22.3310   -7.1130   21.3180 O   0  0  0  0  0  0  0  0  0  0  0  0
  -21.9960   -6.5310   22.5140 C   0  0  0  0  0  0  0  0  0  0  0  0
  -21.2640   -7.2250   23.5020 C   0  0  0  0  0  3  0  0  0  0  0  0
  -20.8820   -6.5650   24.6880 C   0  0  0  0  0  3  0  0  0  0  0  0
  -21.2230   -5.2140   24.8820 C   0  0  0  0  0  0  0  0  0  0  0  0
  -21.9480   -4.5190   23.8980 C   0  0  0  0  0  3  0  0  0  0  0  0
  -22.3310   -5.1760   22.7150 C   0  0  0  0  0  0  0  0  0  0  0  0
  -23.0100   -4.4980   21.7590 F   0  0  0  0  0  0  0  0  0  0  0  0
  -20.8500   -4.5770   26.0170 F   0  0  0  0  0  0  0  0  0  0  0  0
  -23.6330  -13.7330   21.2770 C   0  0  0  0  0  0  0  0  0  0  0  0
  -22.9460  -13.0460   22.1840 N   0  0  0  0  0  0  0  0  0  0  0  0
  -23.1900  -14.7750   20.7980 O   0  0  0  0  0  0  0  0  0  0  0  0
  -23.3150  -12.2000   22.5920 H   0  0  0  0  0  0  0  0  0  0  0  0
  -22.0330  -13.3720   22.4700 H   0  0  0  0  0  0  0  0  0  0  0  0
  -26.2760  -15.3410   20.3880 N   0  0  0  0  0  0  0  0  0  0  0  0
  -25.5330  -16.0090   20.5520 H   0  0  0  0  0  0  0  0  0  0  0  0
  -27.1090  -15.7590   19.9930 H   0  0  0  0  0  0  0  0  0  0  0  0
  -28.4780  -22.0320   21.2230 C   0  0  0  0  0  1  0  0  0  0  0  0
  -29.4150  -21.8210   20.0260 C   0  0  0  0  0  2  0  0  0  0  0  0
  -29.7790  -26.7980   18.3240 C   0  0  0  0  0  2  0  0  0  0  0  0
  -30.1820  -27.2560   19.7390 C   0  0  0  0  0  2  0  0  0  0  0  0
  -29.2090  -26.8220   20.6920 O   0  0  0  0  0  0  0  0  0  0  0  0
  -24.9590  -31.8870   23.3610 C   0  0  0  0  0  0  0  0  0  0  0  0
  -28.0170  -27.4960   20.6350 C   0  0  0  0  0  0  0  0  0  0  0  0
  -23.9370  -30.3710   21.6920 C   0  0  0  0  0  3  0  0  0  0  0  0
  -25.5550  -28.8500   20.4430 C   0  0  0  0  0  0  0  0  0  0  0  0
  -26.4490  -30.8480   21.6600 C   0  0  0  0  0  2  0  0  0  0  0  0
  -26.6430  -29.4630   21.0810 C   0  0  0  0  0  0  0  0  0  0  0  0
  -27.8800  -28.7910   21.1790 C   0  0  0  0  0  3  0  0  0  0  0  0
  -26.9080  -26.8740   20.0290 C   0  0  0  0  0  3  0  0  0  0  0  0
  -25.6790  -27.5500   19.9220 C   0  0  0  0  0  3  0  0  0  0  0  0
  -24.2740  -29.6480   20.3610 C   0  0  0  0  0  2  0  0  0  0  0  0
  -25.1270  -31.0520   22.2970 N   0  0  0  0  0  0  0  0  0  0  0  0
  -23.8320  -32.1280   23.8140 O   0  0  0  0  0  0  0  0  0  0  0  0
  -23.2630  -29.3570   22.6450 C   0  0  0  0  0  0  0  0  0  0  0  0
  -21.9620  -29.1090   22.4270 N   0  0  0  0  0  0  0  0  0  0  0  0
  -23.9120  -28.7940   23.5300 O   0  0  0  0  0  0  0  0  0  0  0  0
  -21.5020  -29.6140   21.6820 H   0  0  0  0  0  0  0  0  0  0  0  0
  -18.6040  -27.8210   22.7550 C   0  0  0  0  0  0  0  0  0  0  0  0
  -21.1320  -28.1650   23.1720 C   0  0  0  0  0  3  0  0  0  0  0  0
  -21.3130  -26.7240   22.6390 C   0  0  0  0  0  2  0  0  0  0  0  0
  -20.2840  -26.3440   21.5710 C   0  0  0  0  0  2  0  0  0  0  0  0
  -18.8630  -26.4620   22.1270 C   0  0  0  0  0  2  0  0  0  0  0  0
  -19.6720  -28.6280   23.2310 C   0  0  0  0  0  0  0  0  0  0  0  0
  -19.3810  -29.8990   23.7720 C   0  0  0  0  0  3  0  0  0  0  0  0
  -18.0540  -30.3630   23.8470 C   0  0  0  0  0  3  0  0  0  0  0  0
  -17.0000  -29.5540   23.3890 C   0  0  0  0  0  3  0  0  0  0  0  0
  -17.2760  -28.2850   22.8490 C   0  0  0  0  0  3  0  0  0  0  0  0
  -26.1720  -32.5950   24.0440 C   0  0  0  0  0  3  0  0  0  0  0  0
  -26.6650  -31.8620   25.3520 C   0  0  1  0  0  0  0  0  0  0  0  0
  -25.5290  -31.5460   26.3530 C   0  0  0  0  0  1  0  0  0  0  0  0
  -27.3660  -30.5290   24.9990 C   0  0  0  0  0  1  0  0  0  0  0  0
  -27.7140  -32.7350   26.0790 C   0  0  0  0  0  1  0  0  0  0  0  0
  -25.7660  -33.9730   24.3440 N   0  0  0  0  0  0  0  0  0  0  0  0
  -26.0630  -35.0350   23.5820 C   0  0  0  0  0  0  0  0  0  0  0  0
  -26.7780  -34.9610   22.5790 O   0  0  0  0  0  0  0  0  0  0  0  0
  -25.1350  -34.1010   25.1210 H   0  0  0  0  0  0  0  0  0  0  0  0
  -24.2360  -36.7020   23.1380 C   0  0  0  0  0  1  0  0  0  0  0  0
  -25.4710  -36.3950   23.9980 C   0  0  0  0  0  3  0  0  0  0  0  0
  -27.5070  -37.4350   24.8920 C   0  0  0  0  0  1  0  0  0  0  0  0
  -26.4380  -37.5100   23.9010 N   0  0  0  0  0  0  0  0  0  0  0  0
  -25.9660  -38.4050   24.0120 H   0  0  0  0  0  0  0  0  0  0  0  0
  1  3  1  0
  2  5  1  0
  3  7  1  0
  4  7  1  0
  5  9  1  0
  6  2  1  6
  6  1  1  0
  6  4  1  0
  6  5  1  0
  7 59  1  0
  7  8  1  1
  9 13  1  0
 10 14  1  0
 11  9  2  0
 11 12  1  0
 12 10  2  0
 13 10  1  0
 13 58  1  0
 14 15  1  0
 16 28  1  0
 17 22  1  0
 18 19  1  0
 18 17  1  0
 20 19  1  0
 20 32  1  0
 20 21  1  0
 22 16  1  0
 22 21  1  0
 23 16  2  0
 24 25  1  0
 26 28  1  0
 26 27  1  0
 27 14  1  0
 27 24  1  0
 28 25  1  0
 29 30  2  0
 30 49  1  0
 31 30  1  0
 31 34  1  0
 32 33  1  0
 32 29  1  0
 33 31  2  0
 34 35  1  0
 35 36  2  0
 37 40  1  0
 37 36  1  0
 38 37  2  0
 39 38  1  0
 39 34  2  0
 40 41  1  0
 41 46  2  0
 41 42  1  0
 42 43  2  0
 43 44  1  0
 44 48  1  0
 45 44  2  0
 46 45  1  0
 47 46  1  0
 49 50  1  0
 50 53  1  0
 50 52  1  0
 51 49  2  0
 54 29  1  0
 54 55  1  0
 56 54  1  0
 58 57  1  0
 59 60  1  0
 60 61  1  0
 62 73  2  0
 63 61  1  0
 63 68  1  0
 64 72  1  0
 64 74  1  0
 65 67  1  0
 66 72  1  0
 67 68  2  0
 67 66  1  0
 69 63  2  0
 70 69  1  0
 70 65  2  0
 71 65  1  0
 71 64  1  0
 72 62  1  0
 74 76  2  0
 75 74  1  0
 77 75  1  0
 78 87  2  0
 78 83  1  0
 79 75  1  0
 79 83  1  0
 80 79  1  0
 81 82  1  0
 81 80  1  0
 82 78  1  0
 83 84  2  0
 84 85  1  0
 86 85  2  0
 87 86  1  0
 88 62  1  0
 88 93  1  0
 88 89  1  0
 89 92  1  1
 89 90  1  0
 91 89  1  0
 93 96  1  0
 94 98  1  0
 94 93  1  0
 95 94  2  0
 98 97  1  0
100 98  1  0
100101  1  0
100 99  1  0
M  ISO  4  16 100  28 100  60 101  61 101
M  END
>  <TORSDO>  (95) 
F 20

>  <SCORE>  (95) 
-11.021

>  <name>  (95) 
95

>  <ligand_id>  (95) 
95

>  <original_smiles>  (95) 
[H]c1c([H])c([H])c2c(c1[H])C([H])([H])C([H])([H])C([H])([H])C2([H])N([H])C(=O)C1([H])N(C(=O)C([H])(N([H])C(=O)C([H])(N([H])C([H])([H])[H])C([H])([H])[H])C(C([H])([H])[H])(C([H])([H])[H])C([H])([H])[H])C([H])([H])c2c([H])c(OC([H])([H])C([H])([H])[N+]3([H])C([H])([H])C([H])([H])C4(C([H])([H])C4([H])c4nnc(N([H])C5([H])C([H])([H])N(C(=O)N6C([H])([H])C([H])([H])C([H])([H])C([H])(n7nc(-c8c([H])c([H])c(Oc9c([H])c([H])c(F)c([H])c9F)c([H])c8[H])c(C(=O)N([H])[H])c7N([H])[H])C6([H])[H])C([H])([H])C5([H])[H])n4C([H])([H])C([H])([H])[H])C3([H])[H])c([H])c([H])c2C1([H])[H]

>  <smiles>  (95) 
[H]c1c([H])c([H])c2c(c1[H])C([H])([H])C([H])([H])C([H])([H])C2([H])N([H])C(=O)C1([H])N(C(=O)C([H])(N([H])C(=O)C([H])(N([H])C([H])([H])[H])C([H])([H])[H])C(C([H])([H])[H])(C([H])([H])[H])C([H])([H])[H])C([H])([H])c2c([H])c(OC([H])([H])C([H])([H])[N+]3([H])C([H])([H])C([H])([H])C4(C([H])([H])C4([H])c4nnc(N([H])C5([H])C([H])([H])N(C(=O)N6C([H])([H])C([H])([H])C([H])([H])C([H])(n7nc(-c8c([H])c([H])c(Oc9c([H])c([H])c(F)c([H])c9F)c([H])c8[H])c(C(=O)N([H])[H])c7N([H])[H])C6([H])[H])C([H])([H])C5([H])[H])n4C([H])([H])C([H])([H])[H])C3([H])[H])c([H])c([H])c2C1([H])[H]

$$$$
96:0:0
     RDKit          3D

 92101  0  0  1  0  0  0  0  0999 V2000
  -30.9710  -14.8580   20.1810 C   0  0  0  0  0  0  0  0  0  0  0  0
  -30.7300  -12.5170   19.3070 C   0  0  0  0  0  2  0  0  0  0  0  0
  -29.8260  -12.5010   18.0560 C   0  0  0  0  0  2  0  0  0  0  0  0
  -28.3490  -12.3620   18.4650 C   0  0  0  0  0  2  0  0  0  0  0  0
  -27.9530  -13.3310   19.6130 C   0  0  0  0  0  3  0  0  0  0  0  0
  -28.9890  -13.3410   20.7580 C   0  0  0  0  0  2  0  0  0  0  0  0
  -30.2880  -13.6550   20.1570 N   0  0  0  0  0  0  0  0  0  0  0  0
  -32.1690  -14.8400   19.8800 O   0  0  0  0  0  0  0  0  0  0  0  0
  -28.0060  -19.5080   20.5530 C   0  0  0  0  0  0  0  0  0  0  0  0
  -28.2480  -20.7930   21.3880 C   0  0  0  0  0  2  0  0  0  0  0  0
  -30.0350  -18.3490   21.4550 C   0  0  0  0  0  2  0  0  0  0  0  0
  -29.8840  -18.5400   19.0130 C   0  0  0  0  0  2  0  0  0  0  0  0
  -29.7010  -16.7920   21.2970 C   0  0  0  0  0  2  0  0  0  0  0  0
  -30.7010  -17.1530   19.1300 C   0  0  0  0  0  2  0  0  0  0  0  0
  -29.5510  -20.9980   20.5750 C   0  0  0  0  0  3  0  0  0  0  0  0
  -29.5320  -19.3370   20.3270 C   0  0  1  0  0  0  0  0  0  0  0  0
  -30.2830  -16.0930   20.1170 N   0  0  0  0  0  0  0  0  0  0  0  0
  -27.0000  -18.9220   20.1500 O   0  0  0  0  0  0  0  0  0  0  0  0
  -25.5940  -13.9870   20.3550 C   0  0  0  0  0  0  0  0  0  0  0  0
  -24.4960  -13.2460   20.6960 C   0  0  0  0  0  0  0  0  0  0  0  0
  -24.9050  -11.8780   20.6280 C   0  0  0  0  0  0  0  0  0  0  0  0
  -26.6010  -13.0760   20.0950 N   0  0  0  0  0  0  0  0  0  0  0  0
  -26.1960  -11.7990   20.3240 N   0  0  0  0  0  0  0  0  0  0  0  0
  -24.1270  -10.6410   20.7770 C   0  0  0  0  0  0  0  0  0  0  0  0
  -24.5400   -9.6080   21.6480 C   0  0  0  0  0  3  0  0  0  0  0  0
  -23.7620   -8.4380   21.7890 C   0  0  0  0  0  3  0  0  0  0  0  0
  -22.5580   -8.2920   21.0580 C   0  0  0  0  0  0  0  0  0  0  0  0
  -22.1650   -9.3130   20.1750 C   0  0  0  0  0  3  0  0  0  0  0  0
  -22.9420  -10.4750   20.0320 C   0  0  0  0  0  3  0  0  0  0  0  0
  -21.7540   -7.1800   21.1120 O   0  0  0  0  0  0  0  0  0  0  0  0
  -21.7500   -6.3460   22.2010 C   0  0  0  0  0  0  0  0  0  0  0  0
  -21.4400   -6.8130   23.4970 C   0  0  0  0  0  3  0  0  0  0  0  0
  -21.3810   -5.9080   24.5760 C   0  0  0  0  0  3  0  0  0  0  0  0
  -21.6200   -4.5380   24.3610 C   0  0  0  0  0  0  0  0  0  0  0  0
  -21.9220   -4.0700   23.0700 C   0  0  0  0  0  3  0  0  0  0  0  0
  -21.9830   -4.9720   21.9930 C   0  0  0  0  0  0  0  0  0  0  0  0
  -22.2540   -4.5120   20.7470 F   0  0  0  0  0  0  0  0  0  0  0  0
  -21.5550   -3.6680   25.3960 F   0  0  0  0  0  0  0  0  0  0  0  0
  -23.1170  -13.7700   20.9720 C   0  0  0  0  0  0  0  0  0  0  0  0
  -22.3730  -13.1070   21.8510 N   0  0  0  0  0  0  0  0  0  0  0  0
  -22.7090  -14.8050   20.4440 O   0  0  0  0  0  0  0  0  0  0  0  0
  -22.7170  -12.2720   22.3010 H   0  0  0  0  0  0  0  0  0  0  0  0
  -21.4460  -13.4390   22.0760 H   0  0  0  0  0  0  0  0  0  0  0  0
  -25.8140  -15.3550   20.2210 N   0  0  0  0  0  0  0  0  0  0  0  0
  -25.0800  -16.0400   20.3590 H   0  0  0  0  0  0  0  0  0  0  0  0
  -26.6890  -15.7730   19.9320 H   0  0  0  0  0  0  0  0  0  0  0  0
  -29.3000  -22.1470   19.5450 N   0  0  0  0  0  4  0  0  0  0  0  0
  -28.3990  -22.0110   19.1150 H   0  0  0  0  0  0  0  0  0  0  0  0
  -29.9730  -22.0480   18.8000 H   0  0  0  0  0  0  0  0  0  0  0  0
  -29.3930  -23.6360   20.0250 C   0  0  0  0  0  3  0  0  0  0  0  0
  -28.4850  -24.8250   19.3410 C   0  0  0  0  0  3  0  0  0  0  0  0
  -28.6190  -26.3190   19.6540 O   0  0  0  0  0  0  0  0  0  0  0  0
  -24.6730  -31.5350   22.8900 C   0  0  0  0  0  0  0  0  0  0  0  0
  -27.5000  -27.2040   19.6020 C   0  0  0  0  0  0  0  0  0  0  0  0
  -23.5510  -30.1860   21.1580 C   0  0  0  0  0  3  0  0  0  0  0  0
  -25.0820  -28.7850   19.6520 C   0  0  0  0  0  0  0  0  0  0  0  0
  -26.0840  -30.6000   21.0310 C   0  0  0  0  0  2  0  0  0  0  0  0
  -26.2280  -29.2620   20.3000 C   0  0  0  0  0  0  0  0  0  0  0  0
  -27.4370  -28.4830   20.2670 C   0  0  0  0  0  3  0  0  0  0  0  0
  -26.3310  -26.8250   18.9030 C   0  0  0  0  0  3  0  0  0  0  0  0
  -25.1420  -27.5790   18.9410 C   0  0  0  0  0  3  0  0  0  0  0  0
  -23.8100  -29.6080   19.7420 C   0  0  0  0  0  2  0  0  0  0  0  0
  -24.7880  -30.7910   21.7490 N   0  0  0  0  0  0  0  0  0  0  0  0
  -23.5710  -31.7340   23.4250 O   0  0  0  0  0  0  0  0  0  0  0  0
  -22.9220  -29.0860   22.0480 C   0  0  0  0  0  0  0  0  0  0  0  0
  -21.5870  -28.9390   21.9820 N   0  0  0  0  0  0  0  0  0  0  0  0
  -23.6330  -28.3740   22.7610 O   0  0  0  0  0  0  0  0  0  0  0  0
  -21.0700  -29.5670   21.3830 H   0  0  0  0  0  0  0  0  0  0  0  0
  -18.2180  -27.7640   22.6020 C   0  0  0  0  0  0  0  0  0  0  0  0
  -20.7970  -27.9370   22.7020 C   0  0  0  0  0  3  0  0  0  0  0  0
  -20.8130  -26.5790   21.9640 C   0  0  0  0  0  2  0  0  0  0  0  0
  -19.6310  -26.3990   21.0060 C   0  0  0  0  0  2  0  0  0  0  0  0
  -18.3050  -26.4980   21.7660 C   0  0  0  0  0  2  0  0  0  0  0  0
  -19.3880  -28.4480   23.0290 C   0  0  0  0  0  0  0  0  0  0  0  0
  -19.2510  -29.6370   23.7760 C   0  0  0  0  0  3  0  0  0  0  0  0
  -17.9780  -30.1430   24.0990 C   0  0  0  0  0  3  0  0  0  0  0  0
  -16.8230  -29.4550   23.6860 C   0  0  0  0  0  3  0  0  0  0  0  0
  -16.9450  -28.2660   22.9440 C   0  0  0  0  0  3  0  0  0  0  0  0
  -25.9170  -32.1900   23.5630 C   0  0  0  0  0  3  0  0  0  0  0  0
  -25.5450  -33.5590   23.9520 N   0  0  0  0  0  0  0  0  0  0  0  0
  -25.8700  -34.6620   23.2640 C   0  0  0  0  0  0  0  0  0  0  0  0
  -26.5810  -34.6350   22.2560 O   0  0  0  0  0  0  0  0  0  0  0  0
  -24.9140  -33.6510   24.7350 H   0  0  0  0  0  0  0  0  0  0  0  0
  -24.0900  -36.4120   22.9460 C   0  0  0  0  0  1  0  0  0  0  0  0
  -25.3190  -36.0090   23.7750 C   0  0  0  0  0  3  0  0  0  0  0  0
  -27.3910  -36.9260   24.7240 C   0  0  0  0  0  1  0  0  0  0  0  0
  -26.3170  -37.1000   23.7490 N   0  0  0  0  0  0  0  0  0  0  0  0
  -25.8740  -37.9980   23.9230 H   0  0  0  0  0  0  0  0  0  0  0  0
  -26.4390  -31.3840   24.8170 C   0  0  1  0  0  0  0  0  0  0  0  0
  -25.3410  -31.0780   25.8620 C   0  0  0  0  0  1  0  0  0  0  0  0
  -27.0620  -30.0360   24.3820 C   0  0  0  0  0  1  0  0  0  0  0  0
  -27.5620  -32.1810   25.5200 C   0  0  0  0  0  1  0  0  0  0  0  0
  2  7  1  0
  3  4  1  0
  3  2  1  0
  5  4  1  0
  5 22  1  0
  5  6  1  0
  7  1  1  0
  7  6  1  0
  8  1  2  0
  9 10  1  0
 12 14  1  0
 13 11  1  0
 14 17  1  0
 15 47  1  0
 15 10  1  0
 16 12  1  6
 16  9  1  0
 16 15  1  0
 16 11  1  0
 17  1  1  0
 17 13  1  0
 18  9  2  0
 19 20  2  0
 20 39  1  0
 21 20  1  0
 21 24  1  0
 22 23  1  0
 22 19  1  0
 23 21  2  0
 24 25  1  0
 25 26  2  0
 27 30  1  0
 27 26  1  0
 28 27  2  0
 29 28  1  0
 29 24  2  0
 30 31  1  0
 31 32  1  0
 32 33  2  0
 34 33  1  0
 34 38  1  0
 35 34  2  0
 36 31  2  0
 36 35  1  0
 37 36  1  0
 39 40  1  0
 40 43  1  0
 40 42  1  0
 41 39  2  0
 44 19  1  0
 44 45  1  0
 46 44  1  0
 47 50  1  0
 48 47  1  0
 49 47  1  0
 51 52  1  0
 51 50  2  0
 53 64  2  0
 54 52  1  0
 54 59  1  0
 55 63  1  0
 55 65  1  0
 56 62  1  0
 56 58  1  0
 57 63  1  0
 58 57  1  0
 59 58  2  0
 60 61  1  0
 60 54  2  0
 61 56  2  0
 62 55  1  0
 63 53  1  0
 65 67  2  0
 66 65  1  0
 68 66  1  0
 69 78  2  0
 69 74  1  0
 70 66  1  0
 70 74  1  0
 71 70  1  0
 72 73  1  0
 72 71  1  0
 73 69  1  0
 74 75  2  0
 75 76  1  0
 77 76  2  0
 78 77  1  0
 79 53  1  0
 79 80  1  0
 79 89  1  0
 80 83  1  0
 81 85  1  0
 81 80  1  0
 82 81  2  0
 85 84  1  0
 87 85  1  0
 87 88  1  0
 87 86  1  0
 89 92  1  1
 89 90  1  0
 91 89  1  0
M  ISO  4   1 100  17 100  51 101  52 101
M  END
>  <TORSDO>  (96) 
F 18

>  <SCORE>  (96) 
-12.789

>  <name>  (96) 
96

>  <ligand_id>  (96) 
96

>  <original_smiles>  (96) 
[H]c1c([H])c([H])c2c(c1[H])C([H])([H])C([H])([H])C([H])([H])C2([H])N([H])C(=O)C1([H])N(C(=O)C([H])(N([H])C(=O)C([H])(N([H])C([H])([H])[H])C([H])([H])[H])C(C([H])([H])[H])(C([H])([H])[H])C([H])([H])[H])C([H])([H])c2c([H])c(OC([H])([H])C([H])([H])[N+]([H])([H])C3([H])C([H])([H])C(=O)C34C([H])([H])C([H])([H])N(C(=O)N3C([H])([H])C([H])([H])C([H])([H])C([H])(n5nc(-c6c([H])c([H])c(Oc7c([H])c([H])c(F)c([H])c7F)c([H])c6[H])c(C(=O)N([H])[H])c5N([H])[H])C3([H])[H])C([H])([H])C4([H])[H])c([H])c([H])c2C1([H])[H]

>  <smiles>  (96) 
[H]c1c([H])c([H])c2c(c1[H])C([H])([H])C([H])([H])C([H])([H])C2([H])N([H])C(=O)C1([H])N(C(=O)C([H])(N([H])C(=O)C([H])(N([H])C([H])([H])[H])C([H])([H])[H])C(C([H])([H])[H])(C([H])([H])[H])C([H])([H])[H])C([H])([H])c2c([H])c(OC([H])([H])C([H])([H])[N+]([H])([H])C3([H])C([H])([H])C(=O)C34C([H])([H])C([H])([H])N(C(=O)N3C([H])([H])C([H])([H])C([H])([H])C([H])(n5nc(-c6c([H])c([H])c(Oc7c([H])c([H])c(F)c([H])c7F)c([H])c6[H])c(C(=O)N([H])[H])c5N([H])[H])C3([H])[H])C([H])([H])C4([H])[H])c([H])c([H])c2C1([H])[H]

$$$$
97:0:0
     RDKit          3D

 99109  0  0  1  0  0  0  0  0999 V2000
  -30.3730  -20.6870   19.2840 N   0  0  0  0  0  4  0  0  0  0  0  0
  -30.6640  -21.2090   18.4730 H   0  0  0  0  0  0  0  0  0  0  0  0
  -29.5000  -20.2420   19.0510 H   0  0  0  0  0  0  0  0  0  0  0  0
  -32.8250  -20.2000   19.4010 C   0  0  0  0  0  2  0  0  0  0  0  0
  -33.1790  -19.9610   17.9380 C   0  0  0  0  0  2  0  0  0  0  0  0
  -31.2930  -18.6180   18.3920 C   0  0  0  0  0  3  0  0  0  0  0  0
  -31.3970  -19.6510   19.5330 C   0  0  0  0  0  3  0  0  0  0  0  0
  -32.4490  -18.3510   16.2730 C   0  0  0  0  0  1  0  0  0  0  0  0
  -32.5850  -18.6500   17.6970 N   0  0  0  0  0  0  0  0  0  0  0  0
  -29.5110  -16.7700   18.5180 C   0  0  0  0  0  2  0  0  0  0  0  0
  -30.9260  -17.2040   18.8310 C   0  0  0  0  0  3  0  0  0  0  0  0
  -29.9330  -16.8780   19.9650 C   0  0  0  0  0  3  0  0  0  0  0  0
  -30.7280  -14.6070   20.6720 C   0  0  0  0  0  0  0  0  0  0  0  0
  -30.5340  -12.4020   19.6480 C   0  0  0  0  0  2  0  0  0  0  0  0
  -29.6420  -12.5400   18.3990 C   0  0  0  0  0  2  0  0  0  0  0  0
  -28.1480  -12.4260   18.7710 C   0  0  0  0  0  2  0  0  0  0  0  0
  -27.7400  -13.2990   19.9870 C   0  0  0  0  0  3  0  0  0  0  0  0
  -28.7490  -13.1330   21.1490 C   0  0  0  0  0  2  0  0  0  0  0  0
  -30.1000  -13.4070   20.6280 N   0  0  0  0  0  0  0  0  0  0  0  0
  -31.9130  -14.7670   20.3810 O   0  0  0  0  0  0  0  0  0  0  0  0
  -29.8680  -15.6370   20.6960 N   0  0  0  0  0  0  0  0  0  0  0  0
  -28.9490  -15.3890   21.0280 H   0  0  0  0  0  0  0  0  0  0  0  0
  -25.3090  -13.8890   20.6080 C   0  0  0  0  0  0  0  0  0  0  0  0
  -24.2370  -13.1050   20.9450 C   0  0  0  0  0  0  0  0  0  0  0  0
  -24.7170  -11.7600   20.9350 C   0  0  0  0  0  0  0  0  0  0  0  0
  -26.3720  -13.0170   20.4170 N   0  0  0  0  0  0  0  0  0  0  0  0
  -26.0160  -11.7340   20.6720 N   0  0  0  0  0  0  0  0  0  0  0  0
  -24.0000  -10.4890   21.0990 C   0  0  0  0  0  0  0  0  0  0  0  0
  -24.3910   -9.5400   22.0680 C   0  0  0  0  0  3  0  0  0  0  0  0
  -23.6770   -8.3300   22.2150 C   0  0  0  0  0  3  0  0  0  0  0  0
  -22.5570   -8.0650   21.3930 C   0  0  0  0  0  0  0  0  0  0  0  0
  -22.1860   -9.0030   20.4140 C   0  0  0  0  0  3  0  0  0  0  0  0
  -22.9010  -10.2030   20.2660 C   0  0  0  0  0  3  0  0  0  0  0  0
  -21.8170   -6.9080   21.4490 O   0  0  0  0  0  0  0  0  0  0  0  0
  -21.6910   -6.1920   22.6130 C   0  0  0  0  0  0  0  0  0  0  0  0
  -21.1110   -6.7500   23.7720 C   0  0  0  0  0  3  0  0  0  0  0  0
  -20.9390   -5.9570   24.9240 C   0  0  0  0  0  3  0  0  0  0  0  0
  -21.3310   -4.6050   24.9170 C   0  0  0  0  0  0  0  0  0  0  0  0
  -21.9010   -4.0470   23.7590 C   0  0  0  0  0  3  0  0  0  0  0  0
  -22.0780   -4.8370   22.6100 C   0  0  0  0  0  0  0  0  0  0  0  0
  -22.6090   -4.2860   21.4930 F   0  0  0  0  0  0  0  0  0  0  0  0
  -21.1580   -3.8420   26.0200 F   0  0  0  0  0  0  0  0  0  0  0  0
  -22.8260  -13.5670   21.1650 C   0  0  0  0  0  0  0  0  0  0  0  0
  -22.0650  -12.8520   21.9860 N   0  0  0  0  0  0  0  0  0  0  0  0
  -22.4030  -14.5990   20.6460 O   0  0  0  0  0  0  0  0  0  0  0  0
  -22.4150  -12.0170   22.4310 H   0  0  0  0  0  0  0  0  0  0  0  0
  -21.1170  -13.1500   22.1750 H   0  0  0  0  0  0  0  0  0  0  0  0
  -25.4590  -15.2610   20.4340 N   0  0  0  0  0  0  0  0  0  0  0  0
  -24.6650  -15.8880   20.5080 H   0  0  0  0  0  0  0  0  0  0  0  0
  -26.2920  -15.7210   20.0930 H   0  0  0  0  0  0  0  0  0  0  0  0
  -29.2280  -21.1280   21.4960 C   0  0  0  0  0  2  0  0  0  0  0  0
  -28.5360  -22.3990   22.0210 C   0  0  0  0  0  2  0  0  0  0  0  0
  -29.3270  -22.8370   19.8850 C   0  0  0  0  0  2  0  0  0  0  0  0
  -30.1260  -21.6430   20.3730 C   0  0  0  0  0  3  0  0  0  0  0  0
  -29.0250  -23.4850   21.1560 N   0  0  0  0  0  0  0  0  0  0  0  0
  -28.1980  -25.3900   22.4460 C   0  0  0  0  0  1  0  0  0  0  0  0
  -28.1800  -24.6880   21.0700 C   0  0  0  0  0  3  0  0  0  0  0  0
  -28.6990  -25.6200   19.9330 C   0  0  0  0  0  2  0  0  0  0  0  0
  -28.5360  -27.0050   20.1580 O   0  0  0  0  0  0  0  0  0  0  0  0
  -24.5390  -31.9160   23.2390 C   0  0  0  0  0  0  0  0  0  0  0  0
  -27.2990  -27.6000   20.1230 C   0  0  0  0  0  0  0  0  0  0  0  0
  -23.3750  -30.5220   21.5580 C   0  0  0  0  0  3  0  0  0  0  0  0
  -24.8660  -29.0270   20.1270 C   0  0  0  0  0  0  0  0  0  0  0  0
  -25.8910  -30.9280   21.3970 C   0  0  0  0  0  2  0  0  0  0  0  0
  -25.9980  -29.5700   20.7420 C   0  0  0  0  0  0  0  0  0  0  0  0
  -27.2120  -28.8600   20.7430 C   0  0  0  0  0  3  0  0  0  0  0  0
  -26.1530  -27.0480   19.5060 C   0  0  0  0  0  3  0  0  0  0  0  0
  -24.9350  -27.7620   19.5060 C   0  0  0  0  0  3  0  0  0  0  0  0
  -23.6060  -29.8620   20.1700 C   0  0  0  0  0  2  0  0  0  0  0  0
  -24.6190  -31.1380   22.1210 N   0  0  0  0  0  0  0  0  0  0  0  0
  -23.4470  -32.1650   23.7690 O   0  0  0  0  0  0  0  0  0  0  0  0
  -22.7250  -29.4810   22.4970 C   0  0  0  0  0  0  0  0  0  0  0  0
  -21.4050  -29.2960   22.3580 N   0  0  0  0  0  0  0  0  0  0  0  0
  -23.4090  -28.8450   23.3020 O   0  0  0  0  0  0  0  0  0  0  0  0
  -20.9160  -29.8630   21.6800 H   0  0  0  0  0  0  0  0  0  0  0  0
  -18.0280  -28.1030   22.8390 C   0  0  0  0  0  0  0  0  0  0  0  0
  -20.5890  -28.3390   23.1050 C   0  0  0  0  0  3  0  0  0  0  0  0
  -20.6820  -26.9280   22.4800 C   0  0  0  0  0  2  0  0  0  0  0  0
  -19.5710  -26.6440   21.4640 C   0  0  0  0  0  2  0  0  0  0  0  0
  -18.1930  -26.7730   22.1210 C   0  0  0  0  0  2  0  0  0  0  0  0
  -19.1530  -28.8450   23.2860 C   0  0  0  0  0  0  0  0  0  0  0  0
  -18.9450  -30.0890   23.9180 C   0  0  0  0  0  3  0  0  0  0  0  0
  -17.6450  -30.5960   24.1030 C   0  0  0  0  0  3  0  0  0  0  0  0
  -16.5340  -29.8530   23.6710 C   0  0  0  0  0  3  0  0  0  0  0  0
  -16.7260  -28.6070   23.0470 C   0  0  0  0  0  3  0  0  0  0  0  0
  -25.8080  -32.5540   23.8860 C   0  0  0  0  0  3  0  0  0  0  0  0
  -25.4930  -33.9570   24.1840 N   0  0  0  0  0  0  0  0  0  0  0  0
  -25.8680  -35.0000   23.4270 C   0  0  0  0  0  0  0  0  0  0  0  0
  -26.5800  -34.8760   22.4250 O   0  0  0  0  0  0  0  0  0  0  0  0
  -24.8550  -34.1230   24.9480 H   0  0  0  0  0  0  0  0  0  0  0  0
  -24.1850  -36.8100   22.9630 C   0  0  0  0  0  1  0  0  0  0  0  0
  -25.3760  -36.3990   23.8430 C   0  0  0  0  0  3  0  0  0  0  0  0
  -27.4760  -37.2650   24.7870 C   0  0  0  0  0  1  0  0  0  0  0  0
  -26.4320  -37.4350   23.7790 N   0  0  0  0  0  0  0  0  0  0  0  0
  -26.0370  -38.3660   23.8790 H   0  0  0  0  0  0  0  0  0  0  0  0
  -26.2890  -31.7980   25.1850 C   0  0  1  0  0  0  0  0  0  0  0  0
  -25.1690  -31.5770   26.2290 C   0  0  0  0  0  1  0  0  0  0  0  0
  -26.8780  -30.4140   24.8220 C   0  0  0  0  0  1  0  0  0  0  0  0
  -27.4190  -32.6040   25.8620 C   0  0  0  0  0  1  0  0  0  0  0  0
  2  1  1  0
  3  1  1  0
  4  7  1  0
  5  4  1  0
  6  9  1  0
  6 11  1  0
  6  7  1  0
  7  1  1  0
  8  9  1  0
  9  5  1  0
 10 12  1  0
 11 10  1  0
 11 12  1  0
 12 21  1  0
 13 21  1  0
 14 19  1  0
 15 16  1  0
 15 14  1  0
 17 16  1  0
 17 26  1  0
 17 18  1  0
 19 13  1  0
 19 18  1  0
 20 13  2  0
 21 22  1  0
 23 24  2  0
 24 43  1  0
 25 24  1  0
 25 28  1  0
 26 23  1  0
 26 27  1  0
 27 25  2  0
 28 29  1  0
 29 30  2  0
 31 34  1  0
 31 30  1  0
 32 31  2  0
 33 32  1  0
 33 28  2  0
 34 35  1  0
 35 36  1  0
 36 37  2  0
 38 37  1  0
 38 42  1  0
 39 38  2  0
 40 35  2  0
 40 39  1  0
 41 40  1  0
 43 44  1  0
 44 47  1  0
 44 46  1  0
 45 43  2  0
 48 49  1  0
 48 23  1  0
 50 48  1  0
 51 52  1  0
 53 54  1  0
 53 55  1  0
 54  1  1  0
 54 51  1  0
 55 52  1  0
 57 55  1  0
 57 56  1  0
 58 59  1  0
 58 57  1  0
 60 71  2  0
 61 59  1  0
 61 66  1  0
 62 70  1  0
 62 72  1  0
 63 69  1  0
 63 65  1  0
 64 70  1  0
 65 66  2  0
 65 64  1  0
 67 61  2  0
 68 67  1  0
 68 63  2  0
 69 62  1  0
 70 60  1  0
 72 74  2  0
 73 72  1  0
 75 73  1  0
 76 85  2  0
 76 81  1  0
 77 73  1  0
 77 81  1  0
 78 77  1  0
 79 80  1  0
 79 78  1  0
 80 76  1  0
 81 82  2  0
 82 83  1  0
 84 83  2  0
 85 84  1  0
 86 60  1  0
 86 87  1  0
 86 96  1  0
 87 90  1  0
 88 92  1  0
 88 87  1  0
 89 88  2  0
 92 91  1  0
 94 92  1  0
 94 95  1  0
 94 93  1  0
 96 99  1  1
 96 97  1  0
 98 96  1  0
M  ISO  4  13 100  21 100  58 101  59 101
M  END
>  <TORSDO>  (97) 
F 21

>  <SCORE>  (97) 
-13.457

>  <name>  (97) 
97

>  <ligand_id>  (97) 
97

>  <original_smiles>  (97) 
[H]c1c([H])c([H])c2c(c1[H])C([H])([H])C([H])([H])C([H])([H])C2([H])N([H])C(=O)C1([H])N(C(=O)C([H])(N([H])C(=O)C([H])(N([H])C([H])([H])[H])C([H])([H])[H])C(C([H])([H])[H])(C([H])([H])[H])C([H])([H])[H])C([H])([H])c2c([H])c(OC([H])([H])C([H])(N3C([H])([H])C([H])([H])C([H])([N+]([H])([H])C4([H])C([H])([H])C([H])([H])N(C([H])([H])[H])C4([H])C4([H])C([H])([H])C4([H])N([H])C(=O)N4C([H])([H])C([H])([H])C([H])([H])C([H])(n5nc(-c6c([H])c([H])c(Oc7c([H])c([H])c(F)c([H])c7F)c([H])c6[H])c(C(=O)N([H])[H])c5N([H])[H])C4([H])[H])C3([H])[H])C([H])([H])[H])c([H])c([H])c2C1([H])[H]

>  <smiles>  (97) 
[H]c1c([H])c([H])c2c(c1[H])C([H])([H])C([H])([H])C([H])([H])C2([H])N([H])C(=O)C1([H])N(C(=O)C([H])(N([H])C(=O)C([H])(N([H])C([H])([H])[H])C([H])([H])[H])C(C([H])([H])[H])(C([H])([H])[H])C([H])([H])[H])C([H])([H])c2c([H])c(OC([H])([H])C([H])(N3C([H])([H])C([H])([H])C([H])([N+]([H])([H])C4([H])C([H])([H])C([H])([H])N(C([H])([H])[H])C4([H])C4([H])C([H])([H])C4([H])N([H])C(=O)N4C([H])([H])C([H])([H])C([H])([H])C([H])(n5nc(-c6c([H])c([H])c(Oc7c([H])c([H])c(F)c([H])c7F)c([H])c6[H])c(C(=O)N([H])[H])c5N([H])[H])C4([H])[H])C3([H])[H])C([H])([H])[H])c([H])c([H])c2C1([H])[H]

$$$$
