0:0:0
     RDKit          3D

 89 91  0  0  1  0  0  0  0  0999 V2000
  -31.8050  -16.8420   21.1830 C   0  0  0  0  0  1  0  0  0  0  0  0
  -31.9710  -18.3300   20.0040 C   0  0  0  0  0  2  0  0  0  0  0  0
  -29.8350  -16.6000   21.5690 C   0  0  0  0  0  1  0  0  0  0  0  0
  -29.2020  -15.8870   22.7290 C   0  0  0  0  0  1  0  0  0  0  0  0
  -28.8100  -17.9000   20.3930 N   0  0  0  0  0 15  0  0  0  0  0  0
  -30.0950  -19.1170   19.3810 N   0  0  0  0  0 15  0  0  0  0  0  0
  -30.4920  -16.6260   19.3550 C   0  0  0  0  0  2  0  0  0  0  0  0
  -30.6100  -13.8420   18.4790 C   0  0  0  0  0  2  0  0  0  0  0  0
  -29.6390  -13.2040   17.3980 C   0  0  0  0  0  2  0  0  0  0  0  0
  -28.3180  -12.7150   18.0020 C   0  0  0  0  0  2  0  0  0  0  0  0
  -27.8660  -13.7430   19.0400 C   0  0  0  0  0  3  0  0  0  0  0  0
  -28.9830  -14.2270   20.0120 C   0  0  0  0  0  2  0  0  0  0  0  0
  -30.0650  -15.0800   19.3370 N   0  0  0  0  0  0  0  0  0  0  0  0
  -31.4100  -16.3960   18.4910 O   0  0  0  0  0  1  0  0  0  0  0  0
  -31.1690  -20.0620   21.3540 C   0  0  0  0  0  3  0  0  0  0  0  0
  -31.7370  -18.8220   22.5140 C   0  0  0  0  0  3  0  0  0  0  0  0
  -32.3970  -19.2530   21.1630 C   0  0  0  0  0  3  0  0  0  0  0  0
  -30.5840  -18.5900   21.4900 N   0  0  0  0  0  2  0  0  0  0  0  0
  -25.6600  -14.2720   20.1660 C   0  0  0  0  0  0  0  0  0  0  0  0
  -24.6310  -13.5160   20.6500 C   0  0  0  0  0  0  0  0  0  0  0  0
  -25.0330  -12.1540   20.4910 C   0  0  0  0  0  0  0  0  0  0  0  0
  -26.6230  -13.3850   19.7280 N   0  0  0  0  0  0  0  0  0  0  0  0
  -26.2700  -12.0920   19.9900 N   0  0  0  0  0  0  0  0  0  0  0  0
  -24.2740  -10.9140   20.7360 C   0  0  0  0  0  0  0  0  0  0  0  0
  -24.7190   -9.9400   21.6580 C   0  0  0  0  0  3  0  0  0  0  0  0
  -23.9590   -8.7730   21.8950 C   0  0  0  0  0  3  0  0  0  0  0  0
  -22.7360   -8.5690   21.2130 C   0  0  0  0  0  0  0  0  0  0  0  0
  -22.3080   -9.5300   20.2790 C   0  0  0  0  0  3  0  0  0  0  0  0
  -23.0670  -10.6880   20.0410 C   0  0  0  0  0  3  0  0  0  0  0  0
  -21.9470   -7.4530   21.3560 O   0  0  0  0  0  0  0  0  0  0  0  0
  -21.8070   -6.8200   22.5660 C   0  0  0  0  0  0  0  0  0  0  0  0
  -21.3090   -7.4910   23.7050 C   0  0  0  0  0  3  0  0  0  0  0  0
  -21.1160   -6.7850   24.9090 C   0  0  0  0  0  3  0  0  0  0  0  0
  -21.4110   -5.4100   24.9750 C   0  0  0  0  0  0  0  0  0  0  0  0
  -21.8990   -4.7390   23.8410 C   0  0  0  0  0  3  0  0  0  0  0  0
  -22.0940   -5.4430   22.6390 C   0  0  0  0  0  0  0  0  0  0  0  0
  -22.5470   -4.7870   21.5430 F   0  0  0  0  0  0  0  0  0  0  0  0
  -21.2180   -4.7300   26.1290 F   0  0  0  0  0  0  0  0  0  0  0  0
  -23.3080  -14.0340   21.1340 C   0  0  0  0  0  0  0  0  0  0  0  0
  -22.6960  -13.3560   22.0970 N   0  0  0  0  0  0  0  0  0  0  0  0
  -22.8320  -15.0790   20.6900 O   0  0  0  0  0  0  0  0  0  0  0  0
  -23.0980  -12.5110   22.4750 H   0  0  0  0  0  0  0  0  0  0  0  0
  -21.8140  -13.6840   22.4620 H   0  0  0  0  0  0  0  0  0  0  0  0
  -25.8540  -15.6440   20.0340 N   0  0  0  0  0  0  0  0  0  0  0  0
  -25.1600  -16.3260   20.3200 H   0  0  0  0  0  0  0  0  0  0  0  0
  -26.7130  -16.0710   19.7050 H   0  0  0  0  0  0  0  0  0  0  0  0
  -29.6340  -21.0960   19.0050 C   0  0  0  0  0 15  0  0  0  0  0  0
  -28.8850  -23.1260   19.5960 C   0  0  0  0  0 15  0  0  0  0  0  0
  -28.5770  -25.1050   19.3530 O   0  0  0  0  0  1  0  0  0  0  0  0
  -24.7160  -31.5450   22.8160 C   0  0  0  0  0  0  0  0  0  0  0  0
  -27.5270  -26.4280   19.5120 C   0  0  0  0  0  0  0  0  0  0  0  0
  -23.5990  -30.1370   21.1500 C   0  0  0  0  0  3  0  0  0  0  0  0
  -25.1270  -28.5760   19.6420 C   0  0  0  0  0  0  0  0  0  0  0  0
  -26.1860  -30.3390   21.0070 C   0  0  0  0  0  2  0  0  0  0  0  0
  -26.3340  -28.9030   20.2710 C   0  0  0  0  0  0  0  0  0  0  0  0
  -27.4900  -27.8770   20.1580 C   0  0  0  0  0  3  0  0  0  0  0  0
  -26.2490  -26.4330   18.8450 C   0  0  0  0  0  3  0  0  0  0  0  0
  -25.1480  -27.3770   18.9010 C   0  0  0  0  0  3  0  0  0  0  0  0
  -23.8690  -29.4860   19.7560 C   0  0  0  0  0  2  0  0  0  0  0  0
  -24.8610  -30.7170   21.7090 N   0  0  0  0  0  0  0  0  0  0  0  0
  -23.6100  -31.7590   23.3470 O   0  0  0  0  0  0  0  0  0  0  0  0
  -22.9380  -29.1020   22.1040 C   0  0  0  0  0  0  0  0  0  0  0  0
  -21.6090  -28.8910   22.0170 N   0  0  0  0  0  0  0  0  0  0  0  0
  -23.6450  -28.4810   22.9000 O   0  0  0  0  0  0  0  0  0  0  0  0
  -21.0810  -29.4380   21.3520 H   0  0  0  0  0  0  0  0  0  0  0  0
  -18.2940  -27.5510   22.7200 C   0  0  0  0  0  0  0  0  0  0  0  0
  -20.8640  -27.8680   22.7660 C   0  0  0  0  0  3  0  0  0  0  0  0
  -20.9350  -26.5010   22.0450 C   0  0  0  0  0  2  0  0  0  0  0  0
  -19.7500  -26.2520   21.1090 C   0  0  0  0  0  2  0  0  0  0  0  0
  -18.4310  -26.2880   21.8860 C   0  0  0  0  0  2  0  0  0  0  0  0
  -19.4330  -28.3030   23.1170 C   0  0  0  0  0  0  0  0  0  0  0  0
  -19.2420  -29.4830   23.8690 C   0  0  0  0  0  3  0  0  0  0  0  0
  -17.9480  -29.9120   24.2220 C   0  0  0  0  0  3  0  0  0  0  0  0
  -16.8260  -29.1590   23.8330 C   0  0  0  0  0  3  0  0  0  0  0  0
  -17.0010  -27.9790   23.0880 C   0  0  0  0  0  3  0  0  0  0  0  0
  -25.9280  -32.2710   23.4750 C   0  0  0  0  0  3  0  0  0  0  0  0
  -25.4970  -33.6200   23.9120 N   0  0  0  0  0  0  0  0  0  0  0  0
  -25.7410  -34.7660   23.2590 C   0  0  0  0  0  0  0  0  0  0  0  0
  -26.3960  -34.8030   22.2150 O   0  0  0  0  0  0  0  0  0  0  0  0
  -24.9020  -33.6580   24.7260 H   0  0  0  0  0  0  0  0  0  0  0  0
  -23.8860  -36.4670   23.1150 C   0  0  0  0  0  1  0  0  0  0  0  0
  -25.1780  -36.0770   23.8520 C   0  0  0  0  0  3  0  0  0  0  0  0
  -27.2560  -37.0570   24.7250 C   0  0  0  0  0  1  0  0  0  0  0  0
  -26.1320  -37.2090   23.8050 N   0  0  0  0  0  0  0  0  0  0  0  0
  -25.6640  -38.0860   24.0180 H   0  0  0  0  0  0  0  0  0  0  0  0
  -26.5130  -31.4870   24.7170 C   0  0  1  0  0  0  0  0  0  0  0  0
  -25.4460  -31.1210   25.7780 C   0  0  0  0  0  1  0  0  0  0  0  0
  -27.1940  -30.1720   24.2840 C   0  0  0  0  0  1  0  0  0  0  0  0
  -27.6140  -32.3340   25.3980 C   0  0  0  0  0  1  0  0  0  0  0  0
  2  1  1  0
  3  4  1  0
  8 13  1  0
  9 10  1  0
  9  8  1  0
 11 10  1  0
 11 22  1  0
 11 12  1  0
 13  7  1  0
 13 12  1  0
 14  7  1  0
 15 18  1  0
 15 16  1  0
 16 18  1  0
 17  2  1  0
 17 15  1  0
 17 16  1  0
 19 20  2  0
 20 39  1  0
 21 20  1  0
 21 24  1  0
 22 23  1  0
 22 19  1  0
 23 21  2  0
 24 25  1  0
 25 26  2  0
 27 30  1  0
 27 26  1  0
 28 27  2  0
 29 28  1  0
 29 24  2  0
 30 31  1  0
 31 36  2  0
 31 32  1  0
 32 33  2  0
 33 34  1  0
 34 38  1  0
 35 34  2  0
 36 35  1  0
 37 36  1  0
 39 40  1  0
 40 43  1  0
 40 42  1  0
 41 39  2  0
 44 19  1  0
 44 45  1  0
 46 44  1  0
 49 51  1  0
 50 61  2  0
 51 56  1  0
 52 60  1  0
 52 62  1  0
 53 59  1  0
 53 55  1  0
 54 60  1  0
 55 54  1  0
 56 55  2  0
 57 58  1  0
 57 51  2  0
 58 53  2  0
 59 52  1  0
 60 50  1  0
 62 64  2  0
 63 62  1  0
 65 63  1  0
 66 75  2  0
 66 71  1  0
 67 63  1  0
 67 71  1  0
 68 67  1  0
 69 70  1  0
 69 68  1  0
 70 66  1  0
 71 72  2  0
 72 73  1  0
 74 73  2  0
 75 74  1  0
 76 50  1  0
 76 77  1  0
 76 86  1  0
 77 80  1  0
 78 82  1  0
 78 77  1  0
 79 78  2  0
 82 81  1  0
 84 82  1  0
 84 85  1  0
 84 83  1  0
 86 89  1  1
 86 87  1  0
 88 86  1  0
M  ISO  4   7 100  18 100  48 101  49 101
M  END
>  <TORSDO>  (1) 
F 18

>  <SCORE>  (1) 
-10.213

>  <name>  (1) 
0

>  <ligand_id>  (1) 
0

>  <original_smiles>  (1) 
[H]c1c([H])c([H])c2c(c1[H])C([H])([H])C([H])([H])C([H])([H])C2([H])N([H])C(=O)C1([H])N(C(=O)C([H])(N([H])C(=O)C([H])(N([H])C([H])([H])[H])C([H])([H])[H])C(C([H])([H])[H])(C([H])([H])[H])C([H])([H])[H])C([H])([H])c2c([H])c(OC([H])([H])C([H])([H])n3nc(C([H])([H])[H])c([H])c3C3([H])C([H])([H])N(C(=O)N4C([H])([H])C([H])([H])C([H])([H])C([H])(n5nc(-c6c([H])c([H])c(Oc7c([H])c([H])c(F)c([H])c7F)c([H])c6[H])c(C(=O)N([H])[H])c5N([H])[H])C4([H])[H])C3([H])[H])c([H])c([H])c2C1([H])[H]

>  <smiles>  (1) 
[H]c1c([H])c([H])c2c(c1[H])C([H])([H])C([H])([H])C([H])([H])C2([H])N([H])C(=O)C1([H])N(C(=O)C([H])(N([H])C(=O)C([H])(N([H])C([H])([H])[H])C([H])([H])[H])C(C([H])([H])[H])(C([H])([H])[H])C([H])([H])[H])C([H])([H])c2c([H])c(OC([H])([H])C([H])([H])n3nc(C([H])([H])[H])c([H])c3C3([H])C([H])([H])N(C(=O)N4C([H])([H])C([H])([H])C([H])([H])C([H])(n5nc(-c6c([H])c([H])c(Oc7c([H])c([H])c(F)c([H])c7F)c([H])c6[H])c(C(=O)N([H])[H])c5N([H])[H])C4([H])[H])C3([H])[H])c([H])c([H])c2C1([H])[H]

$$$$
1:0:0
     RDKit          3D

 95104  0  0  1  0  0  0  0  0999 V2000
  -28.6740  -21.8280   19.2460 C   0  0  0  0  0  2  0  0  0  0  0  0
  -28.6740  -22.9410   20.2280 N   0  0  0  0  0  4  0  0  0  0  0  0
  -29.4740  -22.7810   20.8290 H   0  0  0  0  0  0  0  0  0  0  0  0
  -27.8430  -22.8590   20.7920 H   0  0  0  0  0  0  0  0  0  0  0  0
  -28.7500  -24.3180   19.6590 C   0  0  0  0  0  2  0  0  0  0  0  0
  -29.4610  -25.4590   21.8440 C   0  0  0  0  0  1  0  0  0  0  0  0
  -28.4300  -25.4050   20.7150 C   0  0  0  0  0  3  0  0  0  0  0  0
  -28.4580  -26.7180   20.1420 O   0  0  0  0  0  0  0  0  0  0  0  0
  -24.6140  -31.8690   23.2370 C   0  0  0  0  0  0  0  0  0  0  0  0
  -27.2790  -27.4280   20.1760 C   0  0  0  0  0  0  0  0  0  0  0  0
  -23.4190  -30.4650   21.5890 C   0  0  0  0  0  3  0  0  0  0  0  0
  -24.8820  -28.9250   20.1800 C   0  0  0  0  0  0  0  0  0  0  0  0
  -25.9480  -30.8270   21.4080 C   0  0  0  0  0  2  0  0  0  0  0  0
  -26.0370  -29.4570   20.7640 C   0  0  0  0  0  0  0  0  0  0  0  0
  -27.2430  -28.7190   20.7500 C   0  0  0  0  0  3  0  0  0  0  0  0
  -26.1040  -26.9000   19.5960 C   0  0  0  0  0  3  0  0  0  0  0  0
  -24.9100  -27.6470   19.5940 C   0  0  0  0  0  3  0  0  0  0  0  0
  -23.6400  -29.7880   20.2110 C   0  0  0  0  0  2  0  0  0  0  0  0
  -24.6790  -31.0690   22.1370 N   0  0  0  0  0  0  0  0  0  0  0  0
  -23.5280  -32.1390   23.7710 O   0  0  0  0  0  0  0  0  0  0  0  0
  -22.7640  -29.4420   22.5440 C   0  0  0  0  0  0  0  0  0  0  0  0
  -21.4390  -29.2640   22.4110 N   0  0  0  0  0  0  0  0  0  0  0  0
  -23.4430  -28.8140   23.3600 O   0  0  0  0  0  0  0  0  0  0  0  0
  -20.9520  -29.8180   21.7190 H   0  0  0  0  0  0  0  0  0  0  0  0
  -18.0570  -28.0890   22.9030 C   0  0  0  0  0  0  0  0  0  0  0  0
  -20.6170  -28.3290   23.1790 C   0  0  0  0  0  3  0  0  0  0  0  0
  -20.7120  -26.8990   22.6000 C   0  0  0  0  0  2  0  0  0  0  0  0
  -19.6100  -26.5850   21.5830 C   0  0  0  0  0  2  0  0  0  0  0  0
  -18.2270  -26.7390   22.2240 C   0  0  0  0  0  2  0  0  0  0  0  0
  -19.1800  -28.8420   23.3370 C   0  0  0  0  0  0  0  0  0  0  0  0
  -18.9690  -30.1040   23.9320 C   0  0  0  0  0  3  0  0  0  0  0  0
  -17.6680  -30.6150   24.0950 C   0  0  0  0  0  3  0  0  0  0  0  0
  -16.5590  -29.8590   23.6770 C   0  0  0  0  0  3  0  0  0  0  0  0
  -16.7550  -28.5980   23.0870 C   0  0  0  0  0  3  0  0  0  0  0  0
  -25.8950  -32.5010   23.8670 C   0  0  0  0  0  3  0  0  0  0  0  0
  -25.5820  -33.8980   24.1950 N   0  0  0  0  0  0  0  0  0  0  0  0
  -25.9150  -34.9490   23.4350 C   0  0  0  0  0  0  0  0  0  0  0  0
  -26.5880  -34.8460   22.4040 O   0  0  0  0  0  0  0  0  0  0  0  0
  -24.9860  -34.0540   24.9940 H   0  0  0  0  0  0  0  0  0  0  0  0
  -24.1810  -36.7320   23.0690 C   0  0  0  0  0  1  0  0  0  0  0  0
  -25.4210  -36.3370   23.8860 C   0  0  0  0  0  3  0  0  0  0  0  0
  -27.5490  -37.2270   24.7240 C   0  0  0  0  0  1  0  0  0  0  0  0
  -26.4500  -37.3920   23.7750 N   0  0  0  0  0  0  0  0  0  0  0  0
  -26.0410  -38.3110   23.9200 H   0  0  0  0  0  0  0  0  0  0  0  0
  -26.4070  -31.7310   25.1450 C   0  0  1  0  0  0  0  0  0  0  0  0
  -25.3080  -31.4900   26.2060 C   0  0  0  0  0  1  0  0  0  0  0  0
  -26.9970  -30.3550   24.7580 C   0  0  0  0  0  1  0  0  0  0  0  0
  -27.5550  -32.5270   25.8110 C   0  0  0  0  0  1  0  0  0  0  0  0
  -28.6770  -20.4260   19.9230 C   0  0  0  0  0  2  0  0  0  0  0  0
  -31.8360  -20.1940   21.5090 C   0  0  0  0  0  0  0  0  0  0  0  0
  -29.9690  -20.0730   20.6080 C   0  0  0  0  0  3  0  0  0  0  0  0
  -33.1130  -20.7360   22.0460 C   0  0  0  0  0  1  0  0  0  0  0  0
  -30.8640  -20.9880   20.9810 N   0  0  0  0  0  0  0  0  0  0  0  0
  -31.5690  -18.8910   21.5250 N   0  0  0  0  0  2  0  0  0  0  0  0
  -30.3300  -18.8220   20.9710 N   0  0  0  0  0  0  0  0  0  0  0  0
  -30.6900  -14.4160   20.1490 C   0  0  0  0  0  0  0  0  0  0  0  0
  -30.3330  -12.2780   18.9860 C   0  0  0  0  0  2  0  0  0  0  0  0
  -29.3430  -12.5230   17.8280 C   0  0  0  0  0  2  0  0  0  0  0  0
  -27.8870  -12.3900   18.3210 C   0  0  0  0  0  2  0  0  0  0  0  0
  -27.6090  -13.2070   19.6140 C   0  0  0  0  0  3  0  0  0  0  0  0
  -28.7130  -12.9590   20.6700 C   0  0  0  0  0  2  0  0  0  0  0  0
  -30.0100  -13.2470   20.0420 N   0  0  0  0  0  0  0  0  0  0  0  0
  -31.8380  -14.5700   19.7190 O   0  0  0  0  0  0  0  0  0  0  0  0
  -30.1240  -16.3090   21.6280 C   0  0  0  0  0  2  0  0  0  0  0  0
  -29.9810  -16.6940   19.5840 C   0  0  0  0  0  2  0  0  0  0  0  0
  -29.6840  -17.5380   20.8130 C   0  0  0  0  0  3  0  0  0  0  0  0
  -29.9150  -15.4860   20.4290 N   0  0  0  0  0  0  0  0  0  0  0  0
  -25.2430  -13.8270   20.4220 C   0  0  0  0  0  0  0  0  0  0  0  0
  -24.1840  -13.0570   20.8230 C   0  0  0  0  0  0  0  0  0  0  0  0
  -24.6360  -11.7030   20.7660 C   0  0  0  0  0  0  0  0  0  0  0  0
  -26.2750  -12.9410   20.1450 N   0  0  0  0  0  0  0  0  0  0  0  0
  -25.9140  -11.6590   20.4100 N   0  0  0  0  0  0  0  0  0  0  0  0
  -23.9110  -10.4430   20.9730 C   0  0  0  0  0  0  0  0  0  0  0  0
  -24.3650   -9.4750   21.8960 C   0  0  0  0  0  3  0  0  0  0  0  0
  -23.6430   -8.2780   22.0940 C   0  0  0  0  0  3  0  0  0  0  0  0
  -22.4530   -8.0390   21.3680 C   0  0  0  0  0  0  0  0  0  0  0  0
  -22.0160   -8.9970   20.4350 C   0  0  0  0  0  3  0  0  0  0  0  0
  -22.7370  -10.1850   20.2350 C   0  0  0  0  0  3  0  0  0  0  0  0
  -21.7040   -6.8920   21.4690 O   0  0  0  0  0  0  0  0  0  0  0  0
  -21.6730   -6.1540   22.6260 C   0  0  0  0  0  0  0  0  0  0  0  0
  -21.2610   -6.7150   23.8540 C   0  0  0  0  0  3  0  0  0  0  0  0
  -21.1730   -5.9050   25.0050 C   0  0  0  0  0  3  0  0  0  0  0  0
  -21.4890   -4.5360   24.9270 C   0  0  0  0  0  0  0  0  0  0  0  0
  -21.8930   -3.9740   23.7040 C   0  0  0  0  0  3  0  0  0  0  0  0
  -21.9810   -4.7810   22.5560 C   0  0  0  0  0  0  0  0  0  0  0  0
  -22.3490   -4.2300   21.3740 F   0  0  0  0  0  0  0  0  0  0  0  0
  -21.4010   -3.7570   26.0300 F   0  0  0  0  0  0  0  0  0  0  0  0
  -22.7980  -13.5370   21.1480 C   0  0  0  0  0  0  0  0  0  0  0  0
  -22.1010  -12.8430   22.0390 N   0  0  0  0  0  0  0  0  0  0  0  0
  -22.3440  -14.5650   20.6470 O   0  0  0  0  0  0  0  0  0  0  0  0
  -22.4820  -12.0120   22.4680 H   0  0  0  0  0  0  0  0  0  0  0  0
  -21.1700  -13.1430   22.2920 H   0  0  0  0  0  0  0  0  0  0  0  0
  -25.4130  -15.1980   20.2470 N   0  0  0  0  0  0  0  0  0  0  0  0
  -24.6610  -15.8630   20.3990 H   0  0  0  0  0  0  0  0  0  0  0  0
  -26.2670  -15.6340   19.9220 H   0  0  0  0  0  0  0  0  0  0  0  0
  1 49  1  0
  1  2  1  0
  2  4  1  0
  2  3  1  0
  5  2  1  0
  5  7  1  0
  7  6  1  0
  8 10  1  0
  8  7  1  0
  9 20  2  0
 10 15  1  0
 11 19  1  0
 11 21  1  0
 12 18  1  0
 12 14  1  0
 13 19  1  0
 14 13  1  0
 15 14  2  0
 16 10  2  0
 17 16  1  0
 17 12  2  0
 18 11  1  0
 19  9  1  0
 21 23  2  0
 22 21  1  0
 24 22  1  0
 25 34  2  0
 25 30  1  0
 26 22  1  0
 26 30  1  0
 27 26  1  0
 28 29  1  0
 28 27  1  0
 29 25  1  0
 30 31  2  0
 31 32  1  0
 33 32  2  0
 34 33  1  0
 35  9  1  0
 35 36  1  0
 35 45  1  0
 36 39  1  0
 37 41  1  0
 37 36  1  0
 38 37  2  0
 41 40  1  0
 43 41  1  0
 43 44  1  0
 43 42  1  0
 45 48  1  1
 45 46  1  0
 47 45  1  0
 50 54  1  0
 50 52  1  0
 51 49  1  0
 51 55  1  0
 51 53  1  0
 53 50  2  0
 55 54  1  0
 56 67  1  0
 57 62  1  0
 58 59  1  0
 58 57  1  0
 60 59  1  0
 60 71  1  0
 60 61  1  0
 62 56  1  0
 62 61  1  0
 63 56  2  0
 65 67  1  0
 66 65  1  0
 66 55  1  0
 66 64  1  0
 67 64  1  0
 68 69  2  0
 69 88  1  0
 70 69  1  0
 70 73  1  0
 71 72  1  0
 71 68  1  0
 72 70  2  0
 73 74  1  0
 74 75  2  0
 76 79  1  0
 76 75  1  0
 77 76  2  0
 78 77  1  0
 78 73  2  0
 79 80  1  0
 80 81  1  0
 81 82  2  0
 83 82  1  0
 83 87  1  0
 84 83  2  0
 85 80  2  0
 85 84  1  0
 86 85  1  0
 88 89  1  0
 89 92  1  0
 89 91  1  0
 90 88  2  0
 93 94  1  0
 93 68  1  0
 95 93  1  0
M  ISO  4   7 101   8 101  56 100  67 100
M  END
>  <TORSDO>  (2) 
F 21

>  <SCORE>  (2) 
-13.907

>  <name>  (2) 
1

>  <ligand_id>  (2) 
1

>  <original_smiles>  (2) 
[H]c1c([H])c([H])c2c(c1[H])C([H])([H])C([H])([H])C([H])([H])C2([H])N([H])C(=O)C1([H])N(C(=O)C([H])(N([H])C(=O)C([H])(N([H])C([H])([H])[H])C([H])([H])[H])C(C([H])([H])[H])(C([H])([H])[H])C([H])([H])[H])C([H])([H])c2c([H])c(OC([H])(C([H])([H])[H])C([H])([H])[N+]([H])([H])C([H])([H])C([H])([H])c3nc(C([H])([H])[H])nn3C3([H])C([H])([H])N(C(=O)N4C([H])([H])C([H])([H])C([H])([H])C([H])(n5nc(-c6c([H])c([H])c(Oc7c([H])c([H])c(F)c([H])c7F)c([H])c6[H])c(C(=O)N([H])[H])c5N([H])[H])C4([H])[H])C3([H])[H])c([H])c([H])c2C1([H])[H]

>  <smiles>  (2) 
[H]c1c([H])c([H])c2c(c1[H])C([H])([H])C([H])([H])C([H])([H])C2([H])N([H])C(=O)C1([H])N(C(=O)C([H])(N([H])C(=O)C([H])(N([H])C([H])([H])[H])C([H])([H])[H])C(C([H])([H])[H])(C([H])([H])[H])C([H])([H])[H])C([H])([H])c2c([H])c(OC([H])(C([H])([H])[H])C([H])([H])[N+]([H])([H])C([H])([H])C([H])([H])c3nc(C([H])([H])[H])nn3C3([H])C([H])([H])N(C(=O)N4C([H])([H])C([H])([H])C([H])([H])C([H])(n5nc(-c6c([H])c([H])c(Oc7c([H])c([H])c(F)c([H])c7F)c([H])c6[H])c(C(=O)N([H])[H])c5N([H])[H])C4([H])[H])C3([H])[H])c([H])c([H])c2C1([H])[H]

$$$$
2:0:0
     RDKit          3D

 94103  0  0  1  0  0  0  0  0999 V2000
  -26.9740  -21.3750   19.6100 C   0  0  0  0  0  2  0  0  0  0  0  0
  -28.3460  -21.5310   21.9290 C   0  0  0  0  0  2  0  0  0  0  0  0
  -29.5810  -20.9230   21.2830 C   0  0  0  0  0  2  0  0  0  0  0  0
  -27.5580  -20.7160   20.8970 C   0  0  0  0  0  3  0  0  0  0  0  0
  -28.7360  -19.8130   20.8470 N   0  0  1  0  0  4  0  0  0  0  0  0
  -28.6730  -19.1510   21.6060 H   0  0  0  0  0  0  0  0  0  0  0  0
  -29.1520  -19.0590   19.6320 C   0  0  0  0  0  2  0  0  0  0  0  0
  -31.5080  -14.9460   19.8230 C   0  0  0  0  0  0  0  0  0  0  0  0
  -31.1470  -12.7210   18.8580 C   0  0  0  0  0  2  0  0  0  0  0  0
  -30.1330  -12.8960   17.7090 C   0  0  0  0  0  2  0  0  0  0  0  0
  -28.6840  -12.7970   18.2330 C   0  0  0  0  0  2  0  0  0  0  0  0
  -28.4300  -13.6820   19.4830 C   0  0  0  0  0  3  0  0  0  0  0  0
  -29.5590  -13.5260   20.5290 C   0  0  0  0  0  2  0  0  0  0  0  0
  -30.8380  -13.7630   19.8450 N   0  0  0  0  0  0  0  0  0  0  0  0
  -32.6870  -15.0360   19.4720 O   0  0  0  0  0  0  0  0  0  0  0  0
  -31.0240  -17.2460   18.9010 C   0  0  0  0  0  2  0  0  0  0  0  0
  -30.0340  -16.7700   20.7280 C   0  0  0  0  0  2  0  0  0  0  0  0
  -30.3050  -18.0730   19.9690 C   0  0  0  0  0  3  0  0  0  0  0  0
  -30.7030  -16.0220   19.6630 N   0  0  0  0  0  0  0  0  0  0  0  0
  -26.1340  -14.3500   20.4340 C   0  0  0  0  0  0  0  0  0  0  0  0
  -25.0530  -13.6020   20.8220 C   0  0  0  0  0  0  0  0  0  0  0  0
  -25.4340  -12.2380   20.6400 C   0  0  0  0  0  0  0  0  0  0  0  0
  -27.1080  -13.4400   20.0530 N   0  0  0  0  0  0  0  0  0  0  0  0
  -26.6940  -12.1600   20.2330 N   0  0  0  0  0  0  0  0  0  0  0  0
  -24.6490  -11.0030   20.7710 C   0  0  0  0  0  0  0  0  0  0  0  0
  -25.0170   -9.9880   21.6800 C   0  0  0  0  0  3  0  0  0  0  0  0
  -24.2360   -8.8180   21.8040 C   0  0  0  0  0  3  0  0  0  0  0  0
  -23.0740   -8.6570   21.0140 C   0  0  0  0  0  0  0  0  0  0  0  0
  -22.7230   -9.6580   20.0930 C   0  0  0  0  0  3  0  0  0  0  0  0
  -23.5060  -10.8200   19.9680 C   0  0  0  0  0  3  0  0  0  0  0  0
  -22.2660   -7.5450   21.0530 O   0  0  0  0  0  0  0  0  0  0  0  0
  -22.0670   -6.8370   22.2100 C   0  0  0  0  0  0  0  0  0  0  0  0
  -21.5310   -7.4380   23.3710 C   0  0  0  0  0  3  0  0  0  0  0  0
  -21.2790   -6.6590   24.5160 C   0  0  0  0  0  3  0  0  0  0  0  0
  -21.5500   -5.2760   24.5030 C   0  0  0  0  0  0  0  0  0  0  0  0
  -22.0820   -4.6750   23.3470 C   0  0  0  0  0  3  0  0  0  0  0  0
  -22.3350   -5.4520   22.2050 C   0  0  0  0  0  0  0  0  0  0  0  0
  -22.8250   -4.8620   21.0870 F   0  0  0  0  0  0  0  0  0  0  0  0
  -21.3030   -4.5260   25.6010 F   0  0  0  0  0  0  0  0  0  0  0  0
  -23.7080  -14.1240   21.2390 C   0  0  0  0  0  0  0  0  0  0  0  0
  -23.0230  -13.4050   22.1270 N   0  0  0  0  0  0  0  0  0  0  0  0
  -23.2800  -15.1970   20.8230 O   0  0  0  0  0  0  0  0  0  0  0  0
  -23.3860  -12.5350   22.4870 H   0  0  0  0  0  0  0  0  0  0  0  0
  -22.1200  -13.7280   22.4490 H   0  0  0  0  0  0  0  0  0  0  0  0
  -26.3550  -15.7210   20.3420 N   0  0  0  0  0  0  0  0  0  0  0  0
  -25.5830  -16.3700   20.4510 H   0  0  0  0  0  0  0  0  0  0  0  0
  -27.1090  -16.0930   19.7800 H   0  0  0  0  0  0  0  0  0  0  0  0
  -27.8810  -22.1320   18.5890 C   0  0  0  0  0  2  0  0  0  0  0  0
  -27.4040  -23.5160   18.3360 N   0  0  0  0  0  4  0  0  0  0  0  0
  -26.6550  -23.6950   18.9940 H   0  0  0  0  0  0  0  0  0  0  0  0
  -26.9530  -23.5370   17.4340 H   0  0  0  0  0  0  0  0  0  0  0  0
  -28.4050  -24.6230   18.3600 C   0  0  0  0  0  2  0  0  0  0  0  0
  -28.0700  -25.6940   19.4150 C   0  0  0  0  0  2  0  0  0  0  0  0
  -28.0480  -27.0040   18.8340 O   0  0  0  0  0  0  0  0  0  0  0  0
  -24.2700  -31.5010   22.8180 C   0  0  0  0  0  0  0  0  0  0  0  0
  -26.8580  -27.6750   18.9970 C   0  0  0  0  0  0  0  0  0  0  0  0
  -23.0010  -30.2470   21.1140 C   0  0  0  0  0  3  0  0  0  0  0  0
  -24.3950  -29.0070   19.3890 C   0  0  0  0  0  0  0  0  0  0  0  0
  -25.4790  -30.7930   20.7590 C   0  0  0  0  0  2  0  0  0  0  0  0
  -25.5740  -29.5230   19.9460 C   0  0  0  0  0  0  0  0  0  0  0  0
  -26.8130  -28.8680   19.7520 C   0  0  0  0  0  3  0  0  0  0  0  0
  -25.6710  -27.1800   18.4250 C   0  0  0  0  0  3  0  0  0  0  0  0
  -24.4370  -27.8220   18.6370 C   0  0  0  0  0  3  0  0  0  0  0  0
  -23.1090  -29.7690   19.6420 C   0  0  0  0  0  2  0  0  0  0  0  0
  -24.2740  -30.8580   21.6180 N   0  0  0  0  0  0  0  0  0  0  0  0
  -23.2290  -31.6410   23.4720 O   0  0  0  0  0  0  0  0  0  0  0  0
  -22.4930  -29.0600   21.9690 C   0  0  0  0  0  0  0  0  0  0  0  0
  -21.1880  -28.7610   21.8580 N   0  0  0  0  0  0  0  0  0  0  0  0
  -23.2650  -28.4220   22.6890 O   0  0  0  0  0  0  0  0  0  0  0  0
  -20.6250  -29.3300   21.2430 H   0  0  0  0  0  0  0  0  0  0  0  0
  -17.9780  -27.1530   22.3020 C   0  0  0  0  0  0  0  0  0  0  0  0
  -20.4920  -27.6780   22.5570 C   0  0  0  0  0  3  0  0  0  0  0  0
  -20.7340  -26.3140   21.8600 C   0  0  0  0  0  2  0  0  0  0  0  0
  -19.6610  -25.9680   20.8310 C   0  0  0  0  0  2  0  0  0  0  0  0
  -18.2850  -25.8980   21.4990 C   0  0  0  0  0  2  0  0  0  0  0  0
  -19.0130  -28.0020   22.7680 C   0  0  0  0  0  0  0  0  0  0  0  0
  -18.6820  -29.1910   23.4470 C   0  0  0  0  0  3  0  0  0  0  0  0
  -17.3400  -29.5420   23.6770 C   0  0  0  0  0  3  0  0  0  0  0  0
  -16.3110  -28.6910   23.2350 C   0  0  0  0  0  3  0  0  0  0  0  0
  -16.6350  -27.4960   22.5550 C   0  0  0  0  0  3  0  0  0  0  0  0
  -25.5700  -32.1250   23.4120 C   0  0  0  0  0  3  0  0  0  0  0  0
  -25.2320  -33.4780   23.8810 N   0  0  0  0  0  0  0  0  0  0  0  0
  -25.4960  -34.6010   23.2030 C   0  0  0  0  0  0  0  0  0  0  0  0
  -26.1270  -34.6120   22.1420 O   0  0  0  0  0  0  0  0  0  0  0  0
  -24.6500  -33.5410   24.7040 H   0  0  0  0  0  0  0  0  0  0  0  0
  -23.6970  -36.3500   23.0760 C   0  0  0  0  0  1  0  0  0  0  0  0
  -24.9840  -35.9290   23.8040 C   0  0  0  0  0  3  0  0  0  0  0  0
  -27.1260  -36.8030   24.6200 C   0  0  0  0  0  1  0  0  0  0  0  0
  -25.9780  -37.0230   23.7420 N   0  0  0  0  0  0  0  0  0  0  0  0
  -25.5520  -37.9160   23.9830 H   0  0  0  0  0  0  0  0  0  0  0  0
  -26.1940  -31.2660   24.5740 C   0  0  1  0  0  0  0  0  0  0  0  0
  -25.1860  -30.8950   25.6900 C   0  0  0  0  0  1  0  0  0  0  0  0
  -26.7970  -29.9550   24.0220 C   0  0  0  0  0  1  0  0  0  0  0  0
  -27.3670  -32.0430   25.2120 C   0  0  0  0  0  1  0  0  0  0  0  0
  3  2  1  0
  4  1  1  0
  4  2  1  0
  5  4  1  0
  5  3  1  0
  5  6  1  1
  7  5  1  0
  8 14  1  0
  9 14  1  0
 10 11  1  0
 10  9  1  0
 12 11  1  0
 12 23  1  0
 12 13  1  0
 14 13  1  0
 15  8  2  0
 16 19  1  0
 16 18  1  0
 18  7  1  0
 18 17  1  0
 19  8  1  0
 19 17  1  0
 20 21  2  0
 21 40  1  0
 22 25  1  0
 22 21  1  0
 23 24  1  0
 23 20  1  0
 24 22  2  0
 25 26  1  0
 26 27  2  0
 28 31  1  0
 28 27  1  0
 29 28  2  0
 30 29  1  0
 30 25  2  0
 31 32  1  0
 32 33  1  0
 33 34  2  0
 35 34  1  0
 35 39  1  0
 36 35  2  0
 37 32  2  0
 37 36  1  0
 38 37  1  0
 40 41  1  0
 41 44  1  0
 41 43  1  0
 42 40  2  0
 45 20  1  0
 45 46  1  0
 47 45  1  0
 48  1  1  0
 49 52  1  0
 49 48  1  0
 49 50  1  0
 51 49  1  0
 52 53  1  0
 54 56  1  0
 54 53  1  0
 55 66  2  0
 56 61  1  0
 57 65  1  0
 57 67  1  0
 58 64  1  0
 58 60  1  0
 59 65  1  0
 60 59  1  0
 61 60  2  0
 62 63  1  0
 62 56  2  0
 63 58  2  0
 64 57  1  0
 65 55  1  0
 67 69  2  0
 68 67  1  0
 70 68  1  0
 71 80  2  0
 71 76  1  0
 72 68  1  0
 72 76  1  0
 73 72  1  0
 74 75  1  0
 74 73  1  0
 75 71  1  0
 76 77  2  0
 77 78  1  0
 79 78  2  0
 80 79  1  0
 81 55  1  0
 81 82  1  0
 81 91  1  0
 82 85  1  0
 83 87  1  0
 83 82  1  0
 84 83  2  0
 87 86  1  0
 89 87  1  0
 89 90  1  0
 89 88  1  0
 91 94  1  1
 91 92  1  0
 93 91  1  0
M  ISO  4   8 100  19 100  53 101  54 101
M  END
>  <TORSDO>  (3) 
F 22

>  <SCORE>  (3) 
-9.687

>  <name>  (3) 
2

>  <ligand_id>  (3) 
2

>  <original_smiles>  (3) 
[H]c1c([H])c([H])c2c(c1[H])C([H])([H])C([H])([H])C([H])([H])C2([H])N([H])C(=O)C1([H])N(C(=O)C([H])(N([H])C(=O)C([H])(N([H])C([H])([H])[H])C([H])([H])[H])C(C([H])([H])[H])(C([H])([H])[H])C([H])([H])[H])C([H])([H])c2c([H])c(OC([H])([H])C([H])([H])[N+]([H])([H])C([H])([H])C([H])([H])C3([H])C([H])([H])C([H])([H])[N+]3([H])C([H])([H])C3([H])C([H])([H])N(C(=O)N4C([H])([H])C([H])([H])C([H])([H])C([H])(n5nc(-c6c([H])c([H])c(Oc7c([H])c([H])c(F)c([H])c7F)c([H])c6[H])c(C(=O)N([H])[H])c5N([H])[H])C4([H])[H])C3([H])[H])c([H])c([H])c2C1([H])[H]

>  <smiles>  (3) 
[H]c1c([H])c([H])c2c(c1[H])C([H])([H])C([H])([H])C([H])([H])C2([H])N([H])C(=O)C1([H])N(C(=O)C([H])(N([H])C(=O)C([H])(N([H])C([H])([H])[H])C([H])([H])[H])C(C([H])([H])[H])(C([H])([H])[H])C([H])([H])[H])C([H])([H])c2c([H])c(OC([H])([H])C([H])([H])[N+]([H])([H])C([H])([H])C([H])([H])C3([H])C([H])([H])C([H])([H])[N+]3([H])C([H])([H])C3([H])C([H])([H])N(C(=O)N4C([H])([H])C([H])([H])C([H])([H])C([H])(n5nc(-c6c([H])c([H])c(Oc7c([H])c([H])c(F)c([H])c7F)c([H])c6[H])c(C(=O)N([H])[H])c5N([H])[H])C4([H])[H])C3([H])[H])c([H])c([H])c2C1([H])[H]

$$$$
3:0:0
     RDKit          3D

 90 99  0  0  1  0  0  0  0  0999 V2000
  -29.1260  -22.2960   21.9220 C   0  0  0  0  0  0  0  0  0  0  0  0
  -28.6430  -23.4450   20.0260 C   0  0  0  0  0  3  0  0  0  0  0  0
  -29.1540  -21.1140   20.0320 C   0  0  0  0  0  0  0  0  0  0  0  0
  -29.2400  -22.2970   23.4350 C   0  0  0  0  0  1  0  0  0  0  0  0
  -28.8240  -23.4650   21.3520 N   0  0  0  0  0  0  0  0  0  0  0  0
  -29.3000  -21.1090   21.3440 N   0  0  0  0  0  0  0  0  0  0  0  0
  -28.8210  -22.2550   19.3200 N   0  0  0  0  0  0  0  0  0  0  0  0
  -28.0780  -24.8550   19.3440 C   0  0  0  0  0  2  0  0  0  0  0  0
  -28.2170  -26.3730   19.6770 O   0  0  0  0  0  0  0  0  0  0  0  0
  -24.6700  -31.8030   23.0990 C   0  0  0  0  0  0  0  0  0  0  0  0
  -27.1370  -27.3260   19.6710 C   0  0  0  0  0  0  0  0  0  0  0  0
  -23.3940  -30.4640   21.4710 C   0  0  0  0  0  3  0  0  0  0  0  0
  -24.7760  -29.0040   19.8680 C   0  0  0  0  0  0  0  0  0  0  0  0
  -25.9240  -30.8000   21.1590 C   0  0  0  0  0  2  0  0  0  0  0  0
  -25.9810  -29.4500   20.4250 C   0  0  0  0  0  0  0  0  0  0  0  0
  -27.1580  -28.6250   20.3140 C   0  0  0  0  0  3  0  0  0  0  0  0
  -25.9080  -26.9830   19.0650 C   0  0  0  0  0  3  0  0  0  0  0  0
  -24.7520  -27.7870   19.1690 C   0  0  0  0  0  3  0  0  0  0  0  0
  -23.5350  -29.8640   20.0460 C   0  0  0  0  0  2  0  0  0  0  0  0
  -24.6840  -31.0440   21.9620 N   0  0  0  0  0  0  0  0  0  0  0  0
  -23.6160  -32.0310   23.7120 O   0  0  0  0  0  0  0  0  0  0  0  0
  -22.8050  -29.3900   22.4220 C   0  0  0  0  0  0  0  0  0  0  0  0
  -21.4920  -29.1200   22.3040 N   0  0  0  0  0  0  0  0  0  0  0  0
  -23.5330  -28.8040   23.2270 O   0  0  0  0  0  0  0  0  0  0  0  0
  -20.9590  -29.6530   21.6300 H   0  0  0  0  0  0  0  0  0  0  0  0
  -18.2370  -27.5980   22.7510 C   0  0  0  0  0  0  0  0  0  0  0  0
  -20.7520  -28.1140   23.0680 C   0  0  0  0  0  3  0  0  0  0  0  0
  -21.0060  -26.6940   22.5110 C   0  0  0  0  0  2  0  0  0  0  0  0
  -19.9630  -26.2550   21.4770 C   0  0  0  0  0  2  0  0  0  0  0  0
  -18.5600  -26.2680   22.0900 C   0  0  0  0  0  2  0  0  0  0  0  0
  -19.2650  -28.4710   23.1950 C   0  0  0  0  0  0  0  0  0  0  0  0
  -18.9080  -29.7100   23.7730 C   0  0  0  0  0  3  0  0  0  0  0  0
  -17.5560  -30.0780   23.9090 C   0  0  0  0  0  3  0  0  0  0  0  0
  -16.5420  -29.2040   23.4810 C   0  0  0  0  0  3  0  0  0  0  0  0
  -16.8830  -27.9660   22.9060 C   0  0  0  0  0  3  0  0  0  0  0  0
  -25.9730  -32.4380   23.6720 C   0  0  0  0  0  3  0  0  0  0  0  0
  -25.6590  -33.8200   24.0680 N   0  0  0  0  0  0  0  0  0  0  0  0
  -25.9540  -34.9080   23.3440 C   0  0  0  0  0  0  0  0  0  0  0  0
  -26.5830  -34.8550   22.2840 O   0  0  0  0  0  0  0  0  0  0  0  0
  -25.0920  -33.9340   24.8940 H   0  0  0  0  0  0  0  0  0  0  0  0
  -24.1920  -36.6960   23.1440 C   0  0  0  0  0  1  0  0  0  0  0  0
  -25.4750  -36.2720   23.8800 C   0  0  0  0  0  3  0  0  0  0  0  0
  -27.6270  -37.1600   24.6580 C   0  0  0  0  0  1  0  0  0  0  0  0
  -26.4890  -37.3430   23.7620 N   0  0  0  0  0  0  0  0  0  0  0  0
  -26.0760  -38.2520   23.9550 H   0  0  0  0  0  0  0  0  0  0  0  0
  -26.5650  -31.6390   24.8990 C   0  0  1  0  0  0  0  0  0  0  0  0
  -25.5310  -31.3480   26.0120 C   0  0  0  0  0  1  0  0  0  0  0  0
  -27.1540  -30.2850   24.4430 C   0  0  0  0  0  1  0  0  0  0  0  0
  -27.7330  -32.4360   25.5260 C   0  0  0  0  0  1  0  0  0  0  0  0
  -29.3740  -19.8700   19.3770 O   0  0  0  0  0  0  0  0  0  0  0  0
  -30.7350  -15.1350   19.8000 C   0  0  0  0  0  0  0  0  0  0  0  0
  -30.5550  -12.7650   18.9510 C   0  0  0  0  0  2  0  0  0  0  0  0
  -29.5510  -12.6940   17.7790 C   0  0  0  0  0  2  0  0  0  0  0  0
  -28.1170  -12.4950   18.3000 C   0  0  0  0  0  2  0  0  0  0  0  0
  -27.7790  -13.4310   19.4900 C   0  0  0  0  0  3  0  0  0  0  0  0
  -28.9060  -13.4900   20.5430 C   0  0  0  0  0  2  0  0  0  0  0  0
  -30.1330  -13.8810   19.8400 N   0  0  0  0  0  0  0  0  0  0  0  0
  -31.9040  -15.1880   19.4060 O   0  0  0  0  0  0  0  0  0  0  0  0
  -30.6710  -17.6710   20.4350 C   0  0  0  0  0  2  0  0  0  0  0  0
  -29.2070  -17.1780   19.1480 C   0  0  0  0  0  2  0  0  0  0  0  0
  -29.3730  -18.4730   20.0420 C   0  0  0  0  0  3  0  0  0  0  0  0
  -30.0310  -16.3340   20.0920 N   0  0  0  0  0  0  0  0  0  0  0  0
  -25.4820  -13.9880   20.4700 C   0  0  0  0  0  0  0  0  0  0  0  0
  -24.4430  -13.2030   20.8880 C   0  0  0  0  0  0  0  0  0  0  0  0
  -24.8830  -11.8510   20.7430 C   0  0  0  0  0  0  0  0  0  0  0  0
  -26.4870  -13.1140   20.0870 N   0  0  0  0  0  0  0  0  0  0  0  0
  -26.1400  -11.8210   20.3150 N   0  0  0  0  0  0  0  0  0  0  0  0
  -24.1580  -10.5870   20.9280 C   0  0  0  0  0  0  0  0  0  0  0  0
  -24.5670   -9.6340   21.8870 C   0  0  0  0  0  3  0  0  0  0  0  0
  -23.8420   -8.4360   22.0610 C   0  0  0  0  0  3  0  0  0  0  0  0
  -22.6930   -8.1810   21.2760 C   0  0  0  0  0  0  0  0  0  0  0  0
  -22.3020   -9.1230   20.3060 C   0  0  0  0  0  3  0  0  0  0  0  0
  -23.0290  -10.3120   20.1310 C   0  0  0  0  0  3  0  0  0  0  0  0
  -21.9420   -7.0320   21.3570 O   0  0  0  0  0  0  0  0  0  0  0  0
  -21.7640   -6.3700   22.5450 C   0  0  0  0  0  0  0  0  0  0  0  0
  -21.1270   -6.9780   23.6490 C   0  0  0  0  0  3  0  0  0  0  0  0
  -20.9030   -6.2400   24.8280 C   0  0  0  0  0  3  0  0  0  0  0  0
  -21.3040   -4.8920   24.9010 C   0  0  0  0  0  0  0  0  0  0  0  0
  -21.9330   -4.2820   23.8010 C   0  0  0  0  0  3  0  0  0  0  0  0
  -22.1590   -5.0190   22.6250 C   0  0  0  0  0  0  0  0  0  0  0  0
  -22.7470   -4.4220   21.5600 F   0  0  0  0  0  0  0  0  0  0  0  0
  -21.0830   -4.1790   26.0300 F   0  0  0  0  0  0  0  0  0  0  0  0
  -23.0810  -13.6790   21.3060 C   0  0  0  0  0  0  0  0  0  0  0  0
  -22.4240  -12.9510   22.2010 N   0  0  0  0  0  0  0  0  0  0  0  0
  -22.6120  -14.7310   20.8760 O   0  0  0  0  0  0  0  0  0  0  0  0
  -22.8190  -12.1020   22.5780 H   0  0  0  0  0  0  0  0  0  0  0  0
  -21.5150  -13.2520   22.5190 H   0  0  0  0  0  0  0  0  0  0  0  0
  -25.6480  -15.3650   20.3610 N   0  0  0  0  0  0  0  0  0  0  0  0
  -24.9050  -16.0170   20.5890 H   0  0  0  0  0  0  0  0  0  0  0  0
  -26.4770  -15.8140   19.9950 H   0  0  0  0  0  0  0  0  0  0  0  0
  1  4  1  0
  2  8  1  0
  2  5  1  0
  3  6  2  0
  5  1  2  0
  6  1  1  0
  7  2  1  0
  7  3  2  0
  8  9  1  0
 10 21  2  0
 11  9  1  0
 11 16  1  0
 12 20  1  0
 12 22  1  0
 13 19  1  0
 13 15  1  0
 14 20  1  0
 15 14  1  0
 16 15  2  0
 17 18  1  0
 17 11  2  0
 18 13  2  0
 19 12  1  0
 20 10  1  0
 22 24  2  0
 23 22  1  0
 25 23  1  0
 26 35  2  0
 26 31  1  0
 27 23  1  0
 27 31  1  0
 28 27  1  0
 29 30  1  0
 29 28  1  0
 30 26  1  0
 31 32  2  0
 32 33  1  0
 34 33  2  0
 35 34  1  0
 36 10  1  0
 36 37  1  0
 36 46  1  0
 37 40  1  0
 38 42  1  0
 38 37  1  0
 39 38  2  0
 42 41  1  0
 44 42  1  0
 44 45  1  0
 44 43  1  0
 46 49  1  1
 46 47  1  0
 48 46  1  0
 50  3  1  0
 51 57  1  0
 51 62  1  0
 52 57  1  0
 53 54  1  0
 53 52  1  0
 55 54  1  0
 55 66  1  0
 55 56  1  0
 57 56  1  0
 58 51  2  0
 60 61  1  0
 60 62  1  0
 61 50  1  0
 61 59  1  0
 62 59  1  0
 63 64  2  0
 64 83  1  0
 65 64  1  0
 65 68  1  0
 66 67  1  0
 66 63  1  0
 67 65  2  0
 68 69  1  0
 69 70  2  0
 71 74  1  0
 71 70  1  0
 72 71  2  0
 73 72  1  0
 73 68  2  0
 74 75  1  0
 75 80  2  0
 75 76  1  0
 76 77  2  0
 77 78  1  0
 78 82  1  0
 79 78  2  0
 80 79  1  0
 81 80  1  0
 83 84  1  0
 84 87  1  0
 84 86  1  0
 85 83  2  0
 88 63  1  0
 88 89  1  0
 90 88  1  0
M  ISO  4   8 101   9 101  51 100  62 100
M  END
>  <TORSDO>  (4) 
F 18

>  <SCORE>  (4) 
-13.802

>  <name>  (4) 
3

>  <ligand_id>  (4) 
3

>  <original_smiles>  (4) 
[H]c1c([H])c([H])c2c(c1[H])C([H])([H])C([H])([H])C([H])([H])C2([H])N([H])C(=O)C1([H])N(C(=O)C([H])(N([H])C(=O)C([H])(N([H])C([H])([H])[H])C([H])([H])[H])C(C([H])([H])[H])(C([H])([H])[H])C([H])([H])[H])C([H])([H])c2c([H])c(OC([H])([H])c3nc(OC4([H])C([H])([H])N(C(=O)N5C([H])([H])C([H])([H])C([H])([H])C([H])(n6nc(-c7c([H])c([H])c(Oc8c([H])c([H])c(F)c([H])c8F)c([H])c7[H])c(C(=O)N([H])[H])c6N([H])[H])C5([H])[H])C4([H])[H])nc(C([H])([H])[H])n3)c([H])c([H])c2C1([H])[H]

>  <smiles>  (4) 
[H]c1c([H])c([H])c2c(c1[H])C([H])([H])C([H])([H])C([H])([H])C2([H])N([H])C(=O)C1([H])N(C(=O)C([H])(N([H])C(=O)C([H])(N([H])C([H])([H])[H])C([H])([H])[H])C(C([H])([H])[H])(C([H])([H])[H])C([H])([H])[H])C([H])([H])c2c([H])c(OC([H])([H])c3nc(OC4([H])C([H])([H])N(C(=O)N5C([H])([H])C([H])([H])C([H])([H])C([H])(n6nc(-c7c([H])c([H])c(Oc8c([H])c([H])c(F)c([H])c8F)c([H])c7[H])c(C(=O)N([H])[H])c6N([H])[H])C5([H])[H])C4([H])[H])nc(C([H])([H])[H])n3)c([H])c([H])c2C1([H])[H]

$$$$
4:0:0
     RDKit          3D

 91100  0  0  1  0  0  0  0  0999 V2000
  -28.9750  -21.0430   21.3140 C   0  0  0  0  0  3  0  0  0  0  0  0
  -28.6280  -22.4600   21.3480 C   0  0  0  0  0  3  0  0  0  0  0  0
  -29.0510  -21.2150   18.9930 C   0  0  0  0  0  3  0  0  0  0  0  0
  -29.1790  -20.2970   20.1000 C   0  0  0  0  0  0  0  0  0  0  0  0
  -28.4890  -23.2780   20.1750 C   0  0  0  0  0  0  0  0  0  0  0  0
  -28.7310  -22.5720   19.0190 N   0  0  0  0  0  0  0  0  0  0  0  0
  -30.4410  -15.0500   20.1710 C   0  0  0  0  0  0  0  0  0  0  0  0
  -30.2860  -12.7070   19.2180 C   0  0  0  0  0  2  0  0  0  0  0  0
  -29.3230  -12.6650   18.0110 C   0  0  0  0  0  2  0  0  0  0  0  0
  -27.8730  -12.4430   18.4800 C   0  0  0  0  0  2  0  0  0  0  0  0
  -27.4870  -13.3540   19.6730 C   0  0  0  0  0  3  0  0  0  0  0  0
  -28.5730  -13.3870   20.7680 C   0  0  0  0  0  2  0  0  0  0  0  0
  -29.8220  -13.8010   20.1150 N   0  0  0  0  0  0  0  0  0  0  0  0
  -31.6610  -15.0720   19.9720 O   0  0  0  0  0  0  0  0  0  0  0  0
  -29.2070  -18.1830   18.6620 C   0  0  0  0  0  2  0  0  0  0  0  0
  -29.0260  -16.6590   18.9110 C   0  0  0  0  0  2  0  0  0  0  0  0
  -29.8010  -17.6610   20.8740 C   0  0  0  0  0  3  0  0  0  0  0  0
  -29.4400  -18.8260   19.9440 N   0  0  0  0  0  0  0  0  0  0  0  0
  -29.6750  -16.2650   20.1730 N   0  0  0  0  0  0  0  0  0  0  0  0
  -25.1230  -13.9130   20.4720 C   0  0  0  0  0  0  0  0  0  0  0  0
  -24.0720  -13.1270   20.8560 C   0  0  0  0  0  0  0  0  0  0  0  0
  -24.5490  -11.7810   20.8120 C   0  0  0  0  0  0  0  0  0  0  0  0
  -26.1680  -13.0440   20.2060 N   0  0  0  0  0  0  0  0  0  0  0  0
  -25.8340  -11.7560   20.4790 N   0  0  0  0  0  0  0  0  0  0  0  0
  -23.8380  -10.5110   21.0100 C   0  0  0  0  0  0  0  0  0  0  0  0
  -24.2900   -9.5470   21.9380 C   0  0  0  0  0  3  0  0  0  0  0  0
  -23.5770   -8.3440   22.1250 C   0  0  0  0  0  3  0  0  0  0  0  0
  -22.3980   -8.0950   21.3840 C   0  0  0  0  0  0  0  0  0  0  0  0
  -21.9650   -9.0480   20.4450 C   0  0  0  0  0  3  0  0  0  0  0  0
  -22.6790  -10.2430   20.2560 C   0  0  0  0  0  3  0  0  0  0  0  0
  -21.6550   -6.9430   21.4800 O   0  0  0  0  0  0  0  0  0  0  0  0
  -21.6300   -6.1980   22.6320 C   0  0  0  0  0  0  0  0  0  0  0  0
  -21.2020   -6.7420   23.8640 C   0  0  0  0  0  3  0  0  0  0  0  0
  -21.1260   -5.9210   25.0070 C   0  0  0  0  0  3  0  0  0  0  0  0
  -21.4670   -4.5590   24.9200 C   0  0  0  0  0  0  0  0  0  0  0  0
  -21.8870   -4.0140   23.6930 C   0  0  0  0  0  3  0  0  0  0  0  0
  -21.9650   -4.8310   22.5520 C   0  0  0  0  0  0  0  0  0  0  0  0
  -22.3500   -4.2970   21.3690 F   0  0  0  0  0  0  0  0  0  0  0  0
  -21.3860   -3.7680   26.0160 F   0  0  0  0  0  0  0  0  0  0  0  0
  -22.6770  -13.5910   21.1540 C   0  0  0  0  0  0  0  0  0  0  0  0
  -21.9680  -12.8820   22.0260 N   0  0  0  0  0  0  0  0  0  0  0  0
  -22.2230  -14.6170   20.6490 O   0  0  0  0  0  0  0  0  0  0  0  0
  -22.3480  -12.0510   22.4550 H   0  0  0  0  0  0  0  0  0  0  0  0
  -21.0330  -13.1760   22.2690 H   0  0  0  0  0  0  0  0  0  0  0  0
  -25.2710  -15.2860   20.3000 N   0  0  0  0  0  0  0  0  0  0  0  0
  -24.5030  -15.9340   20.4390 H   0  0  0  0  0  0  0  0  0  0  0  0
  -26.1230  -15.7410   19.9970 H   0  0  0  0  0  0  0  0  0  0  0  0
  -31.3010  -17.1410   22.9090 C   0  0  0  0  0  1  0  0  0  0  0  0
  -31.1530  -17.8940   21.5770 C   0  0  0  0  0  2  0  0  0  0  0  0
  -27.6640  -24.7160   20.0740 C   0  0  0  0  0  2  0  0  0  0  0  0
  -28.0850  -26.2060   20.2810 O   0  0  0  0  0  0  0  0  0  0  0  0
  -24.5660  -31.9790   23.2830 C   0  0  0  0  0  0  0  0  0  0  0  0
  -27.0630  -27.2330   20.2190 C   0  0  0  0  0  0  0  0  0  0  0  0
  -23.3370  -30.5950   21.6590 C   0  0  0  0  0  3  0  0  0  0  0  0
  -24.7550  -29.0160   20.2160 C   0  0  0  0  0  0  0  0  0  0  0  0
  -25.8950  -30.8330   21.4700 C   0  0  0  0  0  2  0  0  0  0  0  0
  -25.9480  -29.4420   20.8140 C   0  0  0  0  0  0  0  0  0  0  0  0
  -27.1030  -28.5670   20.8000 C   0  0  0  0  0  3  0  0  0  0  0  0
  -25.8410  -26.9240   19.5740 C   0  0  0  0  0  3  0  0  0  0  0  0
  -24.7150  -27.7700   19.5800 C   0  0  0  0  0  3  0  0  0  0  0  0
  -23.5370  -29.9240   20.2770 C   0  0  0  0  0  2  0  0  0  0  0  0
  -24.6200  -31.1560   22.1920 N   0  0  0  0  0  0  0  0  0  0  0  0
  -23.4870  -32.2730   23.8210 O   0  0  0  0  0  0  0  0  0  0  0  0
  -22.6590  -29.5910   22.6250 C   0  0  0  0  0  0  0  0  0  0  0  0
  -21.3330  -29.4080   22.4920 N   0  0  0  0  0  0  0  0  0  0  0  0
  -23.3290  -28.9790   23.4620 O   0  0  0  0  0  0  0  0  0  0  0  0
  -20.8470  -29.9540   21.7930 H   0  0  0  0  0  0  0  0  0  0  0  0
  -17.9610  -28.1710   22.9700 C   0  0  0  0  0  0  0  0  0  0  0  0
  -20.5120  -28.4750   23.2680 C   0  0  0  0  0  3  0  0  0  0  0  0
  -20.6410  -27.0330   22.7260 C   0  0  0  0  0  2  0  0  0  0  0  0
  -19.5590  -26.6730   21.7020 C   0  0  0  0  0  2  0  0  0  0  0  0
  -18.1670  -26.8120   22.3220 C   0  0  0  0  0  2  0  0  0  0  0  0
  -19.0630  -28.9580   23.3990 C   0  0  0  0  0  0  0  0  0  0  0  0
  -18.8150  -30.2280   23.9660 C   0  0  0  0  0  3  0  0  0  0  0  0
  -17.5010  -30.7120   24.1050 C   0  0  0  0  0  3  0  0  0  0  0  0
  -16.4140  -29.9220   23.6900 C   0  0  0  0  0  3  0  0  0  0  0  0
  -16.6450  -28.6540   23.1280 C   0  0  0  0  0  3  0  0  0  0  0  0
  -25.8560  -32.6020   23.8960 C   0  0  0  0  0  3  0  0  0  0  0  0
  -25.5620  -34.0070   24.2230 N   0  0  0  0  0  0  0  0  0  0  0  0
  -25.8920  -35.0550   23.4580 C   0  0  0  0  0  0  0  0  0  0  0  0
  -26.5450  -34.9420   22.4170 O   0  0  0  0  0  0  0  0  0  0  0  0
  -24.9820  -34.1690   25.0330 H   0  0  0  0  0  0  0  0  0  0  0  0
  -24.1770  -36.8690   23.1280 C   0  0  0  0  0  1  0  0  0  0  0  0
  -25.4280  -36.4520   23.9190 C   0  0  0  0  0  3  0  0  0  0  0  0
  -27.5820  -37.3210   24.7150 C   0  0  0  0  0  1  0  0  0  0  0  0
  -26.4690  -37.4930   23.7860 N   0  0  0  0  0  0  0  0  0  0  0  0
  -26.0740  -38.4180   23.9340 H   0  0  0  0  0  0  0  0  0  0  0  0
  -26.3670  -31.8360   25.1780 C   0  0  1  0  0  0  0  0  0  0  0  0
  -25.2740  -31.6190   26.2510 C   0  0  0  0  0  1  0  0  0  0  0  0
  -26.9350  -30.4480   24.8010 C   0  0  0  0  0  1  0  0  0  0  0  0
  -27.5270  -32.6220   25.8300 C   0  0  0  0  0  1  0  0  0  0  0  0
  1  2  1  0
  3  6  2  0
  3  4  1  0
  4  1  2  0
  5  2  2  0
  6  5  1  0
  7 19  1  0
  8 13  1  0
  9 10  1  0
  9  8  1  0
 11 10  1  0
 11 23  1  0
 11 12  1  0
 13  7  1  0
 13 12  1  0
 14  7  2  0
 15 16  1  0
 15 18  1  0
 16 19  1  0
 17 49  1  0
 18  4  1  0
 18 17  1  0
 19 17  1  0
 20 21  2  0
 21 40  1  0
 22 21  1  0
 22 25  1  0
 23 20  1  0
 23 24  1  0
 24 22  2  0
 25 26  1  0
 26 27  2  0
 28 31  1  0
 28 27  1  0
 29 28  2  0
 30 29  1  0
 30 25  2  0
 31 32  1  0
 32 33  1  0
 33 34  2  0
 35 34  1  0
 35 39  1  0
 36 35  2  0
 37 32  2  0
 37 36  1  0
 38 37  1  0
 40 41  1  0
 41 44  1  0
 41 43  1  0
 42 40  2  0
 45 46  1  0
 45 20  1  0
 47 45  1  0
 49 48  1  0
 50  5  1  0
 50 51  1  0
 52 63  2  0
 53 51  1  0
 53 58  1  0
 54 62  1  0
 54 64  1  0
 55 61  1  0
 55 57  1  0
 56 62  1  0
 57 56  1  0
 58 57  2  0
 59 60  1  0
 59 53  2  0
 60 55  2  0
 61 54  1  0
 62 52  1  0
 64 66  2  0
 65 64  1  0
 67 65  1  0
 68 77  2  0
 68 73  1  0
 69 65  1  0
 69 73  1  0
 70 69  1  0
 71 72  1  0
 71 70  1  0
 72 68  1  0
 73 74  2  0
 74 75  1  0
 76 75  2  0
 77 76  1  0
 78 52  1  0
 78 79  1  0
 78 88  1  0
 79 82  1  0
 80 84  1  0
 80 79  1  0
 81 80  2  0
 84 83  1  0
 86 84  1  0
 86 87  1  0
 86 85  1  0
 88 91  1  1
 88 89  1  0
 90 88  1  0
M  ISO  4   7 100  19 100  50 101  51 101
M  END
>  <TORSDO>  (5) 
F 18

>  <SCORE>  (5) 
-14.310

>  <name>  (5) 
4

>  <ligand_id>  (5) 
4

>  <original_smiles>  (5) 
[H]c1nc(C([H])([H])Oc2c([H])c([H])c3c(c2[H])C([H])([H])N(C(=O)C([H])(N([H])C(=O)C([H])(N([H])C([H])([H])[H])C([H])([H])[H])C(C([H])([H])[H])(C([H])([H])[H])C([H])([H])[H])C([H])(C(=O)N([H])C2([H])c4c([H])c([H])c([H])c([H])c4C([H])([H])C([H])([H])C2([H])[H])C3([H])[H])c([H])c([H])c1N1C([H])([H])C([H])([H])N(C(=O)N2C([H])([H])C([H])([H])C([H])([H])C([H])(n3nc(-c4c([H])c([H])c(Oc5c([H])c([H])c(F)c([H])c5F)c([H])c4[H])c(C(=O)N([H])[H])c3N([H])[H])C2([H])[H])C1([H])C([H])([H])C([H])([H])[H]

>  <smiles>  (5) 
[H]c1nc(C([H])([H])Oc2c([H])c([H])c3c(c2[H])C([H])([H])N(C(=O)C([H])(N([H])C(=O)C([H])(N([H])C([H])([H])[H])C([H])([H])[H])C(C([H])([H])[H])(C([H])([H])[H])C([H])([H])[H])C([H])(C(=O)N([H])C2([H])c4c([H])c([H])c([H])c([H])c4C([H])([H])C([H])([H])C2([H])[H])C3([H])[H])c([H])c([H])c1N1C([H])([H])C([H])([H])N(C(=O)N2C([H])([H])C([H])([H])C([H])([H])C([H])(n3nc(-c4c([H])c([H])c(Oc5c([H])c([H])c(F)c([H])c5F)c([H])c4[H])c(C(=O)N([H])[H])c3N([H])[H])C2([H])[H])C1([H])C([H])([H])C([H])([H])[H]

$$$$
5:0:0
     RDKit          3D

 89 98  0  0  1  0  0  0  0  0999 V2000
  -29.2250  -22.6700   21.8260 C   0  0  0  0  0  2  0  0  0  0  0  0
  -28.9150  -24.0840   20.3110 C   0  0  0  0  0  0  0  0  0  0  0  0
  -28.8530  -23.9520   21.6760 N   0  0  0  0  0  0  0  0  0  0  0  0
  -29.2640  -22.9360   19.6810 N   0  0  0  0  0  2  0  0  0  0  0  0
  -29.4790  -22.0130   20.6840 N   0  0  0  0  0  0  0  0  0  0  0  0
  -28.7170  -25.4090   19.5280 C   0  0  0  0  0  2  0  0  0  0  0  0
  -28.4490  -26.6020   20.3400 O   0  0  0  0  0  0  0  0  0  0  0  0
  -24.6070  -31.8980   23.2120 C   0  0  0  0  0  0  0  0  0  0  0  0
  -27.2890  -27.3800   20.2080 C   0  0  0  0  0  0  0  0  0  0  0  0
  -23.4150  -30.4820   21.5720 C   0  0  0  0  0  3  0  0  0  0  0  0
  -24.8830  -28.9310   20.1680 C   0  0  0  0  0  0  0  0  0  0  0  0
  -25.9400  -30.8420   21.3740 C   0  0  0  0  0  2  0  0  0  0  0  0
  -26.0390  -29.4550   20.7580 C   0  0  0  0  0  0  0  0  0  0  0  0
  -27.2350  -28.6860   20.7800 C   0  0  0  0  0  3  0  0  0  0  0  0
  -26.1080  -26.9020   19.5910 C   0  0  0  0  0  3  0  0  0  0  0  0
  -24.9170  -27.6550   19.5860 C   0  0  0  0  0  3  0  0  0  0  0  0
  -23.6400  -29.7950   20.1980 C   0  0  0  0  0  2  0  0  0  0  0  0
  -24.6720  -31.0930   22.1120 N   0  0  0  0  0  0  0  0  0  0  0  0
  -23.5220  -32.1650   23.7490 O   0  0  0  0  0  0  0  0  0  0  0  0
  -22.7600  -29.4680   22.5390 C   0  0  0  0  0  0  0  0  0  0  0  0
  -21.4360  -29.2860   22.4160 N   0  0  0  0  0  0  0  0  0  0  0  0
  -23.4440  -28.8440   23.3560 O   0  0  0  0  0  0  0  0  0  0  0  0
  -20.9410  -29.8460   21.7370 H   0  0  0  0  0  0  0  0  0  0  0  0
  -18.0660  -28.0760   22.9180 C   0  0  0  0  0  0  0  0  0  0  0  0
  -20.6240  -28.3430   23.1870 C   0  0  0  0  0  3  0  0  0  0  0  0
  -20.7280  -26.9130   22.6090 C   0  0  0  0  0  2  0  0  0  0  0  0
  -19.6260  -26.5870   21.5960 C   0  0  0  0  0  2  0  0  0  0  0  0
  -18.2450  -26.7270   22.2420 C   0  0  0  0  0  2  0  0  0  0  0  0
  -19.1840  -28.8410   23.3470 C   0  0  0  0  0  0  0  0  0  0  0  0
  -18.9630  -30.1030   23.9390 C   0  0  0  0  0  3  0  0  0  0  0  0
  -17.6580  -30.6020   24.1080 C   0  0  0  0  0  3  0  0  0  0  0  0
  -16.5550  -29.8350   23.6950 C   0  0  0  0  0  3  0  0  0  0  0  0
  -16.7600  -28.5740   23.1060 C   0  0  0  0  0  3  0  0  0  0  0  0
  -25.8870  -32.5390   23.8330 C   0  0  0  0  0  3  0  0  0  0  0  0
  -26.4100  -31.7690   25.1090 C   0  0  1  0  0  0  0  0  0  0  0  0
  -25.3210  -31.5240   26.1800 C   0  0  0  0  0  1  0  0  0  0  0  0
  -27.0000  -30.3970   24.7080 C   0  0  0  0  0  1  0  0  0  0  0  0
  -27.5530  -32.5710   25.7730 C   0  0  0  0  0  1  0  0  0  0  0  0
  -25.5660  -33.9340   24.1660 N   0  0  0  0  0  0  0  0  0  0  0  0
  -25.8960  -34.9920   23.4130 C   0  0  0  0  0  0  0  0  0  0  0  0
  -26.5700  -34.8960   22.3840 O   0  0  0  0  0  0  0  0  0  0  0  0
  -24.9610  -34.0780   24.9610 H   0  0  0  0  0  0  0  0  0  0  0  0
  -24.1580  -36.7770   23.0600 C   0  0  0  0  0  1  0  0  0  0  0  0
  -25.3980  -36.3770   23.8740 C   0  0  0  0  0  3  0  0  0  0  0  0
  -27.5290  -37.2710   24.7080 C   0  0  0  0  0  1  0  0  0  0  0  0
  -26.4240  -37.4370   23.7680 N   0  0  0  0  0  0  0  0  0  0  0  0
  -26.0100  -38.3520   23.9230 H   0  0  0  0  0  0  0  0  0  0  0  0
  -30.1190  -20.6690   20.4420 C   0  0  0  0  0  3  0  0  0  0  0  0
  -29.3990  -19.3560   20.9660 C   0  0  0  0  0  3  0  0  0  0  0  0
  -30.6590  -14.7300   20.1360 C   0  0  0  0  0  0  0  0  0  0  0  0
  -30.4020  -12.5090   19.0580 C   0  0  0  0  0  2  0  0  0  0  0  0
  -29.4200  -12.6500   17.8740 C   0  0  0  0  0  2  0  0  0  0  0  0
  -27.9570  -12.4770   18.3380 C   0  0  0  0  0  2  0  0  0  0  0  0
  -27.6320  -13.3200   19.6020 C   0  0  0  0  0  3  0  0  0  0  0  0
  -28.7320  -13.1710   20.6780 C   0  0  0  0  0  2  0  0  0  0  0  0
  -30.0150  -13.5240   20.0550 N   0  0  0  0  0  0  0  0  0  0  0  0
  -31.8290  -14.8490   19.7550 O   0  0  0  0  0  0  0  0  0  0  0  0
  -29.9600  -17.1150   19.4310 C   0  0  0  0  0  2  0  0  0  0  0  0
  -29.5340  -16.6690   21.4170 C   0  0  0  0  0  2  0  0  0  0  0  0
  -30.0910  -17.9410   20.7280 C   0  0  0  0  0  3  0  0  0  0  0  0
  -29.8650  -15.8550   20.2250 N   0  0  0  0  0  0  0  0  0  0  0  0
  -25.2610  -13.8980   20.4210 C   0  0  0  0  0  0  0  0  0  0  0  0
  -24.2100  -13.1200   20.8220 C   0  0  0  0  0  0  0  0  0  0  0  0
  -24.6740  -11.7690   20.7570 C   0  0  0  0  0  0  0  0  0  0  0  0
  -26.3010  -13.0260   20.1360 N   0  0  0  0  0  0  0  0  0  0  0  0
  -25.9520  -11.7380   20.3970 N   0  0  0  0  0  0  0  0  0  0  0  0
  -23.9590  -10.5030   20.9600 C   0  0  0  0  0  0  0  0  0  0  0  0
  -24.4080   -9.5420   21.8900 C   0  0  0  0  0  3  0  0  0  0  0  0
  -23.6920   -8.3400   22.0790 C   0  0  0  0  0  3  0  0  0  0  0  0
  -22.5130   -8.0930   21.3370 C   0  0  0  0  0  0  0  0  0  0  0  0
  -22.0820   -9.0460   20.3990 C   0  0  0  0  0  3  0  0  0  0  0  0
  -22.7980  -10.2390   20.2080 C   0  0  0  0  0  3  0  0  0  0  0  0
  -21.7670   -6.9450   21.4350 O   0  0  0  0  0  0  0  0  0  0  0  0
  -21.7080   -6.2200   22.6000 C   0  0  0  0  0  0  0  0  0  0  0  0
  -21.2650   -6.7930   23.8110 C   0  0  0  0  0  3  0  0  0  0  0  0
  -21.1520   -5.9930   24.9670 C   0  0  0  0  0  3  0  0  0  0  0  0
  -21.4740   -4.6230   24.9120 C   0  0  0  0  0  0  0  0  0  0  0  0
  -21.9120   -4.0520   23.7050 C   0  0  0  0  0  3  0  0  0  0  0  0
  -22.0240   -4.8460   22.5510 C   0  0  0  0  0  0  0  0  0  0  0  0
  -22.4250   -4.2850   21.3850 F   0  0  0  0  0  0  0  0  0  0  0  0
  -21.3620   -3.8550   26.0210 F   0  0  0  0  0  0  0  0  0  0  0  0
  -22.8220  -13.5940   21.1470 C   0  0  0  0  0  0  0  0  0  0  0  0
  -22.1160  -12.8960   22.0270 N   0  0  0  0  0  0  0  0  0  0  0  0
  -22.3680  -14.6240   20.6480 O   0  0  0  0  0  0  0  0  0  0  0  0
  -22.4920  -12.0710   22.4670 H   0  0  0  0  0  0  0  0  0  0  0  0
  -21.1830  -13.2070   22.2670 H   0  0  0  0  0  0  0  0  0  0  0  0
  -25.4140  -15.2720   20.2590 N   0  0  0  0  0  0  0  0  0  0  0  0
  -24.6480  -15.9200   20.4050 H   0  0  0  0  0  0  0  0  0  0  0  0
  -26.2570  -15.7230   19.9230 H   0  0  0  0  0  0  0  0  0  0  0  0
  2  3  2  0
  3  1  1  0
  4  2  1  0
  4  5  1  0
  5  1  1  0
  6  2  1  0
  6  7  1  0
  8 19  2  0
  9  7  1  0
  9 14  1  0
 10 18  1  0
 10 20  1  0
 11 17  1  0
 11 13  1  0
 12 18  1  0
 13 14  2  0
 13 12  1  0
 15  9  2  0
 16 15  1  0
 16 11  2  0
 17 10  1  0
 18  8  1  0
 20 22  2  0
 21 20  1  0
 23 21  1  0
 24 33  2  0
 24 29  1  0
 25 21  1  0
 25 29  1  0
 26 25  1  0
 27 28  1  0
 27 26  1  0
 28 24  1  0
 29 30  2  0
 30 31  1  0
 32 31  2  0
 33 32  1  0
 34  8  1  0
 34 39  1  0
 34 35  1  0
 35 38  1  1
 35 36  1  0
 37 35  1  0
 39 42  1  0
 40 44  1  0
 40 39  1  0
 41 40  2  0
 44 43  1  0
 46 44  1  0
 46 47  1  0
 46 45  1  0
 48  5  1  0
 48 49  2  0
 50 61  1  0
 51 56  1  0
 52 53  1  0
 52 51  1  0
 54 53  1  0
 54 65  1  0
 54 55  1  0
 56 50  1  0
 56 55  1  0
 57 50  2  0
 58 61  1  0
 58 60  1  0
 60 49  1  0
 60 59  1  0
 61 59  1  0
 62 63  2  0
 63 82  1  0
 64 63  1  0
 64 67  1  0
 65 66  1  0
 65 62  1  0
 66 64  2  0
 67 68  1  0
 68 69  2  0
 70 73  1  0
 70 69  1  0
 71 70  2  0
 72 71  1  0
 72 67  2  0
 73 74  1  0
 74 75  1  0
 75 76  2  0
 77 76  1  0
 77 81  1  0
 78 77  2  0
 79 74  2  0
 79 78  1  0
 80 79  1  0
 82 83  1  0
 83 86  1  0
 83 85  1  0
 84 82  2  0
 87 88  1  0
 87 62  1  0
 89 87  1  0
M  ISO  4   6 101   7 101  50 100  61 100
M  END
>  <TORSDO>  (6) 
F 19

>  <SCORE>  (6) 
-14.172

>  <name>  (6) 
5

>  <ligand_id>  (6) 
5

>  <original_smiles>  (6) 
[H]c1c([H])c([H])c2c(c1[H])C([H])([H])C([H])([H])C([H])([H])C2([H])N([H])C(=O)C1([H])N(C(=O)C([H])(N([H])C(=O)C([H])(N([H])C([H])([H])[H])C([H])([H])[H])C(C([H])([H])[H])(C([H])([H])[H])C([H])([H])[H])C([H])([H])c2c([H])c(OC([H])([H])c3nc([H])n(C([H])([H])C([H])([H])C4([H])C([H])([H])N(C(=O)N5C([H])([H])C([H])([H])C([H])([H])C([H])(n6nc(-c7c([H])c([H])c(Oc8c([H])c([H])c(F)c([H])c8F)c([H])c7[H])c(C(=O)N([H])[H])c6N([H])[H])C5([H])[H])C4([H])[H])n3)c([H])c([H])c2C1([H])[H]

>  <smiles>  (6) 
[H]c1c([H])c([H])c2c(c1[H])C([H])([H])C([H])([H])C([H])([H])C2([H])N([H])C(=O)C1([H])N(C(=O)C([H])(N([H])C(=O)C([H])(N([H])C([H])([H])[H])C([H])([H])[H])C(C([H])([H])[H])(C([H])([H])[H])C([H])([H])[H])C([H])([H])c2c([H])c(OC([H])([H])c3nc([H])n(C([H])([H])C([H])([H])C4([H])C([H])([H])N(C(=O)N5C([H])([H])C([H])([H])C([H])([H])C([H])(n6nc(-c7c([H])c([H])c(Oc8c([H])c([H])c(F)c([H])c8F)c([H])c7[H])c(C(=O)N([H])[H])c6N([H])[H])C5([H])[H])C4([H])[H])n3)c([H])c([H])c2C1([H])[H]

$$$$
6:0:0
     RDKit          3D

 96105  0  0  1  0  0  0  0  0999 V2000
  -29.7380  -21.1860   21.4450 C   0  0  0  0  0  2  0  0  0  0  0  0
  -29.3040  -22.6600   21.5290 C   0  0  0  0  0  2  0  0  0  0  0  0
  -29.4970  -22.1040   19.2430 C   0  0  0  0  0  2  0  0  0  0  0  0
  -29.5550  -20.7520   19.9760 C   0  0  0  0  0  3  0  0  0  0  0  0
  -28.8430  -23.0440   20.1750 N   0  0  2  0  0  4  0  0  0  0  0  0
  -27.8550  -22.8290   20.1430 H   0  0  0  0  0  0  0  0  0  0  0  0
  -29.0030  -24.4790   19.7990 C   0  0  0  0  0  2  0  0  0  0  0  0
  -28.3870  -25.4580   20.8120 C   0  0  0  0  0  2  0  0  0  0  0  0
  -28.5010  -26.7950   20.3200 O   0  0  0  0  0  0  0  0  0  0  0  0
  -24.5490  -31.8900   23.2620 C   0  0  0  0  0  0  0  0  0  0  0  0
  -27.3220  -27.4930   20.2790 C   0  0  0  0  0  0  0  0  0  0  0  0
  -23.3940  -30.4620   21.6010 C   0  0  0  0  0  3  0  0  0  0  0  0
  -24.9000  -28.9350   20.2210 C   0  0  0  0  0  0  0  0  0  0  0  0
  -25.9120  -30.8670   21.4480 C   0  0  0  0  0  2  0  0  0  0  0  0
  -26.0340  -29.4920   20.8270 C   0  0  0  0  0  0  0  0  0  0  0  0
  -27.2500  -28.7790   20.8520 C   0  0  0  0  0  3  0  0  0  0  0  0
  -26.1770  -26.9420   19.6660 C   0  0  0  0  0  3  0  0  0  0  0  0
  -24.9640  -27.6560   19.6400 C   0  0  0  0  0  3  0  0  0  0  0  0
  -23.6430  -29.7740   20.2330 C   0  0  0  0  0  2  0  0  0  0  0  0
  -24.6370  -31.0860   22.1650 N   0  0  0  0  0  0  0  0  0  0  0  0
  -23.4550  -32.1510   23.7790 O   0  0  0  0  0  0  0  0  0  0  0  0
  -22.7370  -29.4390   22.5550 C   0  0  0  0  0  0  0  0  0  0  0  0
  -21.4240  -29.2180   22.3780 N   0  0  0  0  0  0  0  0  0  0  0  0
  -23.4060  -28.8460   23.4060 O   0  0  0  0  0  0  0  0  0  0  0  0
  -20.9460  -29.7530   21.6660 H   0  0  0  0  0  0  0  0  0  0  0  0
  -18.0690  -27.9320   22.7460 C   0  0  0  0  0  0  0  0  0  0  0  0
  -20.6020  -28.2710   23.1300 C   0  0  0  0  0  3  0  0  0  0  0  0
  -20.7730  -26.8330   22.5890 C   0  0  0  0  0  2  0  0  0  0  0  0
  -19.7290  -26.4580   21.5310 C   0  0  0  0  0  2  0  0  0  0  0  0
  -18.3160  -26.5760   22.1070 C   0  0  0  0  0  2  0  0  0  0  0  0
  -19.1440  -28.7360   23.2110 C   0  0  0  0  0  0  0  0  0  0  0  0
  -18.8630  -30.0040   23.7620 C   0  0  0  0  0  3  0  0  0  0  0  0
  -17.5390  -30.4720   23.8540 C   0  0  0  0  0  3  0  0  0  0  0  0
  -16.4770  -29.6670   23.4060 C   0  0  0  0  0  3  0  0  0  0  0  0
  -16.7430  -28.3990   22.8580 C   0  0  0  0  0  3  0  0  0  0  0  0
  -25.8170  -32.5360   23.9050 C   0  0  0  0  0  3  0  0  0  0  0  0
  -26.2930  -31.7990   25.2160 C   0  0  1  0  0  0  0  0  0  0  0  0
  -25.1610  -31.5580   26.2390 C   0  0  0  0  0  1  0  0  0  0  0  0
  -26.9200  -30.4280   24.8720 C   0  0  0  0  0  1  0  0  0  0  0  0
  -27.4000  -32.6280   25.9110 C   0  0  0  0  0  1  0  0  0  0  0  0
  -25.5030  -33.9430   24.1820 N   0  0  0  0  0  0  0  0  0  0  0  0
  -25.8740  -34.9710   23.4060 C   0  0  0  0  0  0  0  0  0  0  0  0
  -26.5870  -34.8330   22.4070 O   0  0  0  0  0  0  0  0  0  0  0  0
  -24.8770  -34.1250   24.9510 H   0  0  0  0  0  0  0  0  0  0  0  0
  -24.1750  -36.7570   22.9150 C   0  0  0  0  0  1  0  0  0  0  0  0
  -25.3740  -36.3730   23.7970 C   0  0  0  0  0  3  0  0  0  0  0  0
  -27.4710  -37.2720   24.7070 C   0  0  0  0  0  1  0  0  0  0  0  0
  -26.4170  -37.4180   23.7060 N   0  0  0  0  0  0  0  0  0  0  0  0
  -26.0080  -38.3440   23.8090 H   0  0  0  0  0  0  0  0  0  0  0  0
  -30.6300  -19.7350   19.4710 C   0  0  0  0  0  3  0  0  0  0  0  0
  -31.1360  -14.6300   19.8060 C   0  0  0  0  0  0  0  0  0  0  0  0
  -30.6200  -12.5420   18.5790 C   0  0  0  0  0  2  0  0  0  0  0  0
  -29.5700  -12.8090   17.4830 C   0  0  0  0  0  2  0  0  0  0  0  0
  -28.1480  -12.6410   18.0490 C   0  0  0  0  0  2  0  0  0  0  0  0
  -27.9500  -13.4200   19.3700 C   0  0  0  0  0  3  0  0  0  0  0  0
  -29.1180  -13.1550   20.3610 C   0  0  0  0  0  2  0  0  0  0  0  0
  -30.3810  -13.4940   19.6860 N   0  0  0  0  0  0  0  0  0  0  0  0
  -32.1430  -14.7790   19.1070 O   0  0  0  0  0  0  0  0  0  0  0  0
  -31.9340  -16.4970   21.1700 C   0  0  0  0  0  2  0  0  0  0  0  0
  -31.9460  -17.7620   20.2730 C   0  0  0  0  0  2  0  0  0  0  0  0
  -29.4600  -17.6050   20.1840 C   0  0  0  0  0  2  0  0  0  0  0  0
  -29.5520  -16.2590   20.9530 C   0  0  0  0  0  3  0  0  0  0  0  0
  -29.1480  -16.3710   22.4370 C   0  0  0  0  0  1  0  0  0  0  0  0
  -30.8530  -15.5750   20.7620 N   0  0  0  0  0  0  0  0  0  0  0  0
  -30.6510  -18.4960   20.3280 N   0  0  2  0  0  4  0  0  0  0  0  0
  -30.6120  -18.8370   21.2780 H   0  0  0  0  0  0  0  0  0  0  0  0
  -25.6630  -14.0300   20.3730 C   0  0  0  0  0  0  0  0  0  0  0  0
  -24.6280  -13.2550   20.8220 C   0  0  0  0  0  0  0  0  0  0  0  0
  -25.0540  -11.9000   20.6680 C   0  0  0  0  0  0  0  0  0  0  0  0
  -26.6550  -13.1450   19.9800 N   0  0  0  0  0  0  0  0  0  0  0  0
  -26.3000  -11.8580   20.2140 N   0  0  0  0  0  0  0  0  0  0  0  0
  -24.3300  -10.6410   20.8670 C   0  0  0  0  0  0  0  0  0  0  0  0
  -24.7600   -9.6860   21.8160 C   0  0  0  0  0  3  0  0  0  0  0  0
  -24.0360   -8.4900   22.0050 C   0  0  0  0  0  3  0  0  0  0  0  0
  -22.8670   -8.2400   21.2450 C   0  0  0  0  0  0  0  0  0  0  0  0
  -22.4560   -9.1840   20.2880 C   0  0  0  0  0  3  0  0  0  0  0  0
  -23.1810  -10.3720   20.0970 C   0  0  0  0  0  3  0  0  0  0  0  0
  -22.1140   -7.0950   21.3430 O   0  0  0  0  0  0  0  0  0  0  0  0
  -21.9380   -6.4500   22.5400 C   0  0  0  0  0  0  0  0  0  0  0  0
  -21.3670   -7.0980   23.6570 C   0  0  0  0  0  3  0  0  0  0  0  0
  -21.1370   -6.3790   24.8460 C   0  0  0  0  0  3  0  0  0  0  0  0
  -21.4690   -5.0120   24.9180 C   0  0  0  0  0  0  0  0  0  0  0  0
  -22.0350   -4.3650   23.8060 C   0  0  0  0  0  3  0  0  0  0  0  0
  -22.2650   -5.0810   22.6190 C   0  0  0  0  0  0  0  0  0  0  0  0
  -22.7890   -4.4480   21.5410 F   0  0  0  0  0  0  0  0  0  0  0  0
  -21.2410   -4.3180   26.0580 F   0  0  0  0  0  0  0  0  0  0  0  0
  -23.2790  -13.7390   21.2660 C   0  0  0  0  0  0  0  0  0  0  0  0
  -22.6400  -13.0110   22.1760 N   0  0  0  0  0  0  0  0  0  0  0  0
  -22.8060  -14.7910   20.8440 O   0  0  0  0  0  0  0  0  0  0  0  0
  -23.0440  -12.1600   22.5330 H   0  0  0  0  0  0  0  0  0  0  0  0
  -21.7350  -13.3070   22.5130 H   0  0  0  0  0  0  0  0  0  0  0  0
  -25.8250  -15.4060   20.2450 N   0  0  0  0  0  0  0  0  0  0  0  0
  -25.0530  -16.0330   20.4460 H   0  0  0  0  0  0  0  0  0  0  0  0
  -26.5640  -15.8450   19.7150 H   0  0  0  0  0  0  0  0  0  0  0  0
  -31.2330  -20.3700   16.9960 C   0  0  0  0  0  1  0  0  0  0  0  0
  -30.5160  -19.4010   17.9520 C   0  0  0  0  0  2  0  0  0  0  0  0
  1  2  1  0
  3  4  1  0
  3  5  1  0
  4 50  1  0
  4  1  1  0
  5  2  1  0
  5  6  1  1
  7  5  1  0
  7  8  1  0
  9  8  1  0
 10 21  2  0
 11  9  1  0
 11 16  1  0
 12 20  1  0
 12 22  1  0
 13 19  1  0
 13 15  1  0
 14 20  1  0
 15 16  2  0
 15 14  1  0
 17 11  2  0
 18 17  1  0
 18 13  2  0
 19 12  1  0
 20 10  1  0
 22 24  2  0
 23 22  1  0
 25 23  1  0
 26 35  2  0
 26 31  1  0
 27 23  1  0
 27 31  1  0
 28 27  1  0
 29 30  1  0
 29 28  1  0
 30 26  1  0
 31 32  2  0
 32 33  1  0
 34 33  2  0
 35 34  1  0
 36 10  1  0
 36 41  1  0
 36 37  1  0
 37 40  1  1
 37 38  1  0
 39 37  1  0
 41 44  1  0
 42 46  1  0
 42 41  1  0
 43 42  2  0
 46 45  1  0
 48 46  1  0
 48 49  1  0
 48 47  1  0
 50 96  1  0
 50 65  1  0
 51 64  1  0
 52 57  1  0
 53 54  1  0
 53 52  1  0
 55 54  1  0
 55 70  1  0
 55 56  1  0
 57 51  1  0
 57 56  1  0
 58 51  2  0
 60 65  1  0
 60 59  1  0
 61 65  1  0
 61 62  1  0
 62 63  1  0
 64 62  1  0
 64 59  1  0
 65 66  1  1
 67 68  2  0
 68 87  1  0
 69 68  1  0
 69 72  1  0
 70 71  1  0
 70 67  1  0
 71 69  2  0
 72 73  1  0
 73 74  2  0
 75 78  1  0
 75 74  1  0
 76 75  2  0
 77 76  1  0
 77 72  2  0
 78 79  1  0
 79 84  2  0
 79 80  1  0
 80 81  2  0
 81 82  1  0
 82 86  1  0
 83 82  2  0
 84 83  1  0
 85 84  1  0
 87 88  1  0
 88 91  1  0
 88 90  1  0
 89 87  2  0
 92 67  1  0
 92 93  1  0
 94 92  1  0
 95 96  1  0
M  ISO  4   8 101   9 101  51 100  64 100
M  END
>  <TORSDO>  (7) 
F 20

>  <SCORE>  (7) 
-11.140

>  <name>  (7) 
6

>  <ligand_id>  (7) 
6

>  <original_smiles>  (7) 
[H]c1c([H])c([H])c2c(c1[H])C([H])([H])C([H])([H])C([H])([H])C2([H])N([H])C(=O)C1([H])N(C(=O)C([H])(N([H])C(=O)C([H])(N([H])C([H])([H])[H])C([H])([H])[H])C(C([H])([H])[H])(C([H])([H])[H])C([H])([H])[H])C([H])([H])c2c([H])c(OC([H])([H])C([H])([H])[N+]3([H])C([H])([H])C([H])([H])C([H])(C([H])(C([H])([H])C([H])([H])[H])[N+]4([H])C([H])([H])C([H])([H])N(C(=O)N5C([H])([H])C([H])([H])C([H])([H])C([H])(n6nc(-c7c([H])c([H])c(Oc8c([H])c([H])c(F)c([H])c8F)c([H])c7[H])c(C(=O)N([H])[H])c6N([H])[H])C5([H])[H])C([H])(C([H])([H])[H])C4([H])[H])C3([H])[H])c([H])c([H])c2C1([H])[H]

>  <smiles>  (7) 
[H]c1c([H])c([H])c2c(c1[H])C([H])([H])C([H])([H])C([H])([H])C2([H])N([H])C(=O)C1([H])N(C(=O)C([H])(N([H])C(=O)C([H])(N([H])C([H])([H])[H])C([H])([H])[H])C(C([H])([H])[H])(C([H])([H])[H])C([H])([H])[H])C([H])([H])c2c([H])c(OC([H])([H])C([H])([H])[N+]3([H])C([H])([H])C([H])([H])C([H])(C([H])(C([H])([H])C([H])([H])[H])[N+]4([H])C([H])([H])C([H])([H])N(C(=O)N5C([H])([H])C([H])([H])C([H])([H])C([H])(n6nc(-c7c([H])c([H])c(Oc8c([H])c([H])c(F)c([H])c8F)c([H])c7[H])c(C(=O)N([H])[H])c6N([H])[H])C5([H])[H])C([H])(C([H])([H])[H])C4([H])[H])C3([H])[H])c([H])c([H])c2C1([H])[H]

$$$$
7:0:0
     RDKit          3D

 88 96  0  0  1  0  0  0  0  0999 V2000
  -29.6890  -22.8710   21.7250 C   0  0  0  0  0  1  0  0  0  0  0  0
  -28.8960  -22.6810   20.4120 C   0  0  0  0  0  3  0  0  0  0  0  0
  -28.4750  -21.0470   20.2810 N   0  0  0  0  0  4  0  0  0  0  0  0
  -27.7640  -20.8930   20.9810 H   0  0  0  0  0  0  0  0  0  0  0  0
  -27.9690  -21.0140   19.4070 H   0  0  0  0  0  0  0  0  0  0  0  0
  -30.4410  -15.3820   20.2290 C   0  0  0  0  0  0  0  0  0  0  0  0
  -30.3550  -12.9210   19.3780 C   0  0  0  0  0  2  0  0  0  0  0  0
  -29.4480  -12.6880   18.1460 C   0  0  0  0  0  2  0  0  0  0  0  0
  -28.0060  -12.4060   18.5870 C   0  0  0  0  0  2  0  0  0  0  0  0
  -27.5540  -13.3630   19.7200 C   0  0  0  0  0  3  0  0  0  0  0  0
  -28.6020  -13.5800   20.8340 C   0  0  0  0  0  2  0  0  0  0  0  0
  -29.8130  -14.0930   20.1810 N   0  0  0  0  0  0  0  0  0  0  0  0
  -31.6470  -15.2760   19.9750 O   0  0  0  0  0  0  0  0  0  0  0  0
  -30.2590  -19.2030   21.4520 C   0  0  0  0  0  2  0  0  0  0  0  0
  -30.8330  -17.7270   21.2110 C   0  0  0  0  0  2  0  0  0  0  0  0
  -28.9460  -17.9470   19.9650 C   0  0  0  0  0  2  0  0  0  0  0  0
  -29.3920  -19.6210   20.2380 C   0  0  0  0  0  3  0  0  0  0  0  0
  -29.8940  -16.7590   20.5450 N   0  0  0  0  0  0  0  0  0  0  0  0
  -25.1950  -13.8860   20.5180 C   0  0  0  0  0  0  0  0  0  0  0  0
  -24.1470  -13.0950   20.8930 C   0  0  0  0  0  0  0  0  0  0  0  0
  -24.6210  -11.7490   20.8430 C   0  0  0  0  0  0  0  0  0  0  0  0
  -26.2400  -13.0220   20.2510 N   0  0  0  0  0  0  0  0  0  0  0  0
  -25.9090  -11.7280   20.5130 N   0  0  0  0  0  0  0  0  0  0  0  0
  -23.9040  -10.4800   21.0270 C   0  0  0  0  0  0  0  0  0  0  0  0
  -24.3390   -9.5170   21.9630 C   0  0  0  0  0  3  0  0  0  0  0  0
  -23.6190   -8.3140   22.1410 C   0  0  0  0  0  3  0  0  0  0  0  0
  -22.4490   -8.0660   21.3820 C   0  0  0  0  0  0  0  0  0  0  0  0
  -22.0370   -9.0160   20.4330 C   0  0  0  0  0  3  0  0  0  0  0  0
  -22.7570  -10.2100   20.2540 C   0  0  0  0  0  3  0  0  0  0  0  0
  -21.7060   -6.9130   21.4610 O   0  0  0  0  0  0  0  0  0  0  0  0
  -21.6320   -6.1840   22.6210 C   0  0  0  0  0  0  0  0  0  0  0  0
  -21.1690   -6.7480   23.8290 C   0  0  0  0  0  3  0  0  0  0  0  0
  -21.0450   -5.9450   24.9800 C   0  0  0  0  0  3  0  0  0  0  0  0
  -21.3740   -4.5770   24.9230 C   0  0  0  0  0  0  0  0  0  0  0  0
  -21.8330   -4.0120   23.7200 C   0  0  0  0  0  3  0  0  0  0  0  0
  -21.9600   -4.8140   22.5730 C   0  0  0  0  0  0  0  0  0  0  0  0
  -22.3780   -4.2590   21.4080 F   0  0  0  0  0  0  0  0  0  0  0  0
  -21.2500   -3.8020   26.0270 F   0  0  0  0  0  0  0  0  0  0  0  0
  -22.7490  -13.5590   21.1750 C   0  0  0  0  0  0  0  0  0  0  0  0
  -22.0350  -12.8570   22.0480 N   0  0  0  0  0  0  0  0  0  0  0  0
  -22.2950  -14.5760   20.6540 O   0  0  0  0  0  0  0  0  0  0  0  0
  -22.4090  -12.0320   22.4930 H   0  0  0  0  0  0  0  0  0  0  0  0
  -21.0930  -13.1470   22.2710 H   0  0  0  0  0  0  0  0  0  0  0  0
  -25.3440  -15.2610   20.3490 N   0  0  0  0  0  0  0  0  0  0  0  0
  -24.5730  -15.9060   20.4820 H   0  0  0  0  0  0  0  0  0  0  0  0
  -26.1860  -15.7140   20.0080 H   0  0  0  0  0  0  0  0  0  0  0  0
  -27.8710  -24.1890   20.2640 C   0  0  0  0  0  2  0  0  0  0  0  0
  -28.1440  -25.8350   20.3240 O   0  0  0  0  0  0  0  0  0  0  0  0
  -24.6600  -31.8990   23.2450 C   0  0  0  0  0  0  0  0  0  0  0  0
  -27.1520  -26.9570   20.2590 C   0  0  0  0  0  0  0  0  0  0  0  0
  -23.4530  -30.5050   21.6170 C   0  0  0  0  0  3  0  0  0  0  0  0
  -24.8830  -28.8810   20.1950 C   0  0  0  0  0  0  0  0  0  0  0  0
  -26.0210  -30.6820   21.4660 C   0  0  0  0  0  2  0  0  0  0  0  0
  -26.0760  -29.2690   20.8180 C   0  0  0  0  0  0  0  0  0  0  0  0
  -27.2060  -28.3300   20.8220 C   0  0  0  0  0  3  0  0  0  0  0  0
  -25.9330  -26.7280   19.5830 C   0  0  0  0  0  3  0  0  0  0  0  0
  -24.8410  -27.6330   19.5540 C   0  0  0  0  0  3  0  0  0  0  0  0
  -23.6740  -29.8170   20.2410 C   0  0  0  0  0  2  0  0  0  0  0  0
  -24.7350  -31.0580   22.1620 N   0  0  0  0  0  0  0  0  0  0  0  0
  -23.5720  -32.2000   23.7630 O   0  0  0  0  0  0  0  0  0  0  0  0
  -22.7490  -29.5210   22.5880 C   0  0  0  0  0  0  0  0  0  0  0  0
  -21.4180  -29.3650   22.4620 N   0  0  0  0  0  0  0  0  0  0  0  0
  -23.4080  -28.8980   23.4230 O   0  0  0  0  0  0  0  0  0  0  0  0
  -20.9380  -29.9180   21.7660 H   0  0  0  0  0  0  0  0  0  0  0  0
  -18.0260  -28.1720   22.9660 C   0  0  0  0  0  0  0  0  0  0  0  0
  -20.5880  -28.4360   23.2350 C   0  0  0  0  0  3  0  0  0  0  0  0
  -20.6870  -26.9990   22.6720 C   0  0  0  0  0  2  0  0  0  0  0  0
  -19.5880  -26.6700   21.6590 C   0  0  0  0  0  2  0  0  0  0  0  0
  -18.2050  -26.8180   22.2970 C   0  0  0  0  0  2  0  0  0  0  0  0
  -19.1450  -28.9370   23.3920 C   0  0  0  0  0  0  0  0  0  0  0  0
  -18.9250  -30.2020   23.9810 C   0  0  0  0  0  3  0  0  0  0  0  0
  -17.6190  -30.7020   24.1480 C   0  0  0  0  0  3  0  0  0  0  0  0
  -16.5150  -29.9340   23.7360 C   0  0  0  0  0  3  0  0  0  0  0  0
  -16.7190  -28.6710   23.1530 C   0  0  0  0  0  3  0  0  0  0  0  0
  -25.9350  -32.5380   23.8780 C   0  0  0  0  0  3  0  0  0  0  0  0
  -25.6240  -33.9390   24.2160 N   0  0  0  0  0  0  0  0  0  0  0  0
  -25.9370  -34.9990   23.4570 C   0  0  0  0  0  0  0  0  0  0  0  0
  -26.5800  -34.9000   22.4090 O   0  0  0  0  0  0  0  0  0  0  0  0
  -25.0530  -34.0920   25.0330 H   0  0  0  0  0  0  0  0  0  0  0  0
  -24.1850  -36.7890   23.1830 C   0  0  0  0  0  1  0  0  0  0  0  0
  -25.4660  -36.3900   23.9350 C   0  0  0  0  0  3  0  0  0  0  0  0
  -27.6300  -37.2900   24.6670 C   0  0  0  0  0  1  0  0  0  0  0  0
  -26.4870  -37.4480   23.7730 N   0  0  0  0  0  0  0  0  0  0  0  0
  -26.0830  -38.3670   23.9310 H   0  0  0  0  0  0  0  0  0  0  0  0
  -26.4360  -31.7670   25.1610 C   0  0  1  0  0  0  0  0  0  0  0  0
  -25.3400  -31.5440   26.2290 C   0  0  0  0  0  1  0  0  0  0  0  0
  -27.0080  -30.3800   24.7880 C   0  0  0  0  0  1  0  0  0  0  0  0
  -27.5900  -32.5550   25.8250 C   0  0  0  0  0  1  0  0  0  0  0  0
  2  1  1  0
  3  2  1  0
  3  4  1  0
  5  3  1  0
  6 18  1  0
  7 12  1  0
  8  9  1  0
  8  7  1  0
 10  9  1  0
 10 22  1  0
 10 11  1  0
 12  6  1  0
 12 11  1  0
 13  6  2  0
 15 14  1  0
 16 17  1  0
 16 18  1  0
 17  3  1  0
 17 14  1  0
 18 15  1  0
 19 20  2  0
 20 39  1  0
 21 20  1  0
 21 24  1  0
 22 23  1  0
 22 19  1  0
 23 21  2  0
 24 25  1  0
 25 26  2  0
 27 30  1  0
 27 26  1  0
 28 27  2  0
 29 28  1  0
 29 24  2  0
 30 31  1  0
 31 32  1  0
 32 33  2  0
 34 33  1  0
 34 38  1  0
 35 34  2  0
 36 31  2  0
 36 35  1  0
 37 36  1  0
 39 40  1  0
 40 43  1  0
 40 42  1  0
 41 39  2  0
 44 45  1  0
 44 19  1  0
 46 44  1  0
 47 48  1  0
 47  2  1  0
 49 60  2  0
 50 48  1  0
 50 55  1  0
 51 59  1  0
 51 61  1  0
 52 58  1  0
 52 54  1  0
 53 59  1  0
 54 55  2  0
 54 53  1  0
 56 50  2  0
 57 56  1  0
 57 52  2  0
 58 51  1  0
 59 49  1  0
 61 63  2  0
 62 61  1  0
 64 62  1  0
 65 74  2  0
 65 70  1  0
 66 62  1  0
 66 70  1  0
 67 66  1  0
 68 69  1  0
 68 67  1  0
 69 65  1  0
 70 71  2  0
 71 72  1  0
 73 72  2  0
 74 73  1  0
 75 49  1  0
 75 76  1  0
 75 85  1  0
 76 79  1  0
 77 81  1  0
 77 76  1  0
 78 77  2  0
 81 80  1  0
 83 84  1  0
 83 81  1  0
 83 82  1  0
 85 88  1  1
 85 86  1  0
 87 85  1  0
M  ISO  4   6 100  18 100  47 101  48 101
M  END
>  <TORSDO>  (8) 
F 18

>  <SCORE>  (8) 
-16.584

>  <name>  (8) 
7

>  <ligand_id>  (8) 
7

>  <original_smiles>  (8) 
[H]c1c([H])c([H])c2c(c1[H])C([H])([H])C([H])([H])C([H])([H])C2([H])N([H])C(=O)C1([H])N(C(=O)C([H])(N([H])C(=O)C([H])(N([H])C([H])([H])[H])C([H])([H])[H])C(C([H])([H])[H])(C([H])([H])[H])C([H])([H])[H])C([H])([H])c2c([H])c(OC([H])([H])C([H])(C([H])([H])[H])[N+]([H])([H])C3([H])C([H])([H])N(C(=O)N4C([H])([H])C([H])([H])C([H])([H])C([H])(n5nc(-c6c([H])c([H])c(Oc7c([H])c([H])c(F)c([H])c7F)c([H])c6[H])c(C(=O)N([H])[H])c5N([H])[H])C4([H])[H])C([H])([H])C3([H])[H])c([H])c([H])c2C1([H])[H]

>  <smiles>  (8) 
[H]c1c([H])c([H])c2c(c1[H])C([H])([H])C([H])([H])C([H])([H])C2([H])N([H])C(=O)C1([H])N(C(=O)C([H])(N([H])C(=O)C([H])(N([H])C([H])([H])[H])C([H])([H])[H])C(C([H])([H])[H])(C([H])([H])[H])C([H])([H])[H])C([H])([H])c2c([H])c(OC([H])([H])C([H])(C([H])([H])[H])[N+]([H])([H])C3([H])C([H])([H])N(C(=O)N4C([H])([H])C([H])([H])C([H])([H])C([H])(n5nc(-c6c([H])c([H])c(Oc7c([H])c([H])c(F)c([H])c7F)c([H])c6[H])c(C(=O)N([H])[H])c5N([H])[H])C4([H])[H])C([H])([H])C3([H])[H])c([H])c([H])c2C1([H])[H]

$$$$
8:0:0
     RDKit          3D

 90 99  0  0  1  0  0  0  0  0999 V2000
  -30.3720  -20.5300   21.1790 C   0  0  0  0  0  0  0  0  0  0  0  0
  -30.2010  -22.0640   21.1790 C   0  0  0  0  0  2  0  0  0  0  0  0
  -28.6880  -20.9740   19.6910 C   0  0  0  0  0  2  0  0  0  0  0  0
  -28.8550  -22.3430   20.4860 C   0  0  0  0  0  3  0  0  0  0  0  0
  -29.5160  -19.9060   20.3490 N   0  0  0  0  0  0  0  0  0  0  0  0
  -31.2030  -19.9720   21.8990 O   0  0  0  0  0  0  0  0  0  0  0  0
  -30.7130  -14.7810   20.0160 C   0  0  0  0  0  0  0  0  0  0  0  0
  -30.4360  -12.5480   18.9110 C   0  0  0  0  0  2  0  0  0  0  0  0
  -29.4180  -12.6560   17.7520 C   0  0  0  0  0  2  0  0  0  0  0  0
  -27.9770  -12.4590   18.2650 C   0  0  0  0  0  2  0  0  0  0  0  0
  -27.6870  -13.2930   19.5420 C   0  0  0  0  0  3  0  0  0  0  0  0
  -28.8170  -13.1290   20.5820 C   0  0  0  0  0  2  0  0  0  0  0  0
  -30.0610  -13.5630   19.9280 N   0  0  0  0  0  0  0  0  0  0  0  0
  -31.8580  -14.8640   19.5570 O   0  0  0  0  0  0  0  0  0  0  0  0
  -28.7840  -17.7230   21.5020 C   0  0  0  0  0  2  0  0  0  0  0  0
  -28.9770  -16.1970   21.3000 C   0  0  0  0  0  2  0  0  0  0  0  0
  -30.3910  -17.3590   19.8160 C   0  0  0  0  0  2  0  0  0  0  0  0
  -29.2530  -18.4000   20.2100 C   0  0  0  0  0  3  0  0  0  0  0  0
  -30.0100  -15.9670   20.2770 N   0  0  0  0  0  0  0  0  0  0  0  0
  -25.3490  -13.8650   20.4310 C   0  0  0  0  0  0  0  0  0  0  0  0
  -24.3090  -13.0820   20.8500 C   0  0  0  0  0  0  0  0  0  0  0  0
  -24.7650  -11.7310   20.7440 C   0  0  0  0  0  0  0  0  0  0  0  0
  -26.3750  -12.9920   20.1040 N   0  0  0  0  0  0  0  0  0  0  0  0
  -26.0330  -11.7020   20.3510 N   0  0  0  0  0  0  0  0  0  0  0  0
  -24.0480  -10.4660   20.9350 C   0  0  0  0  0  0  0  0  0  0  0  0
  -24.4880   -9.5020   21.8710 C   0  0  0  0  0  3  0  0  0  0  0  0
  -23.7710   -8.3000   22.0490 C   0  0  0  0  0  3  0  0  0  0  0  0
  -22.6020   -8.0520   21.2920 C   0  0  0  0  0  0  0  0  0  0  0  0
  -22.1830   -9.0040   20.3470 C   0  0  0  0  0  3  0  0  0  0  0  0
  -22.8990  -10.1980   20.1650 C   0  0  0  0  0  3  0  0  0  0  0  0
  -21.8560   -6.9020   21.3810 O   0  0  0  0  0  0  0  0  0  0  0  0
  -21.7360   -6.2120   22.5620 C   0  0  0  0  0  0  0  0  0  0  0  0
  -21.2200   -6.8130   23.7290 C   0  0  0  0  0  3  0  0  0  0  0  0
  -21.0480   -6.0480   24.9000 C   0  0  0  0  0  3  0  0  0  0  0  0
  -21.3850   -4.6800   24.9030 C   0  0  0  0  0  0  0  0  0  0  0  0
  -21.8940   -4.0790   23.7390 C   0  0  0  0  0  3  0  0  0  0  0  0
  -22.0670   -4.8420   22.5710 C   0  0  0  0  0  0  0  0  0  0  0  0
  -22.5370   -4.2510   21.4470 F   0  0  0  0  0  0  0  0  0  0  0  0
  -21.2150   -3.9420   26.0250 F   0  0  0  0  0  0  0  0  0  0  0  0
  -22.9350  -13.5530   21.2270 C   0  0  0  0  0  0  0  0  0  0  0  0
  -22.2630  -12.8340   22.1170 N   0  0  0  0  0  0  0  0  0  0  0  0
  -22.4700  -14.5960   20.7690 O   0  0  0  0  0  0  0  0  0  0  0  0
  -22.6500  -11.9870   22.5070 H   0  0  0  0  0  0  0  0  0  0  0  0
  -21.3440  -13.1340   22.4130 H   0  0  0  0  0  0  0  0  0  0  0  0
  -25.4960  -15.2390   20.2760 N   0  0  0  0  0  0  0  0  0  0  0  0
  -24.7360  -15.8880   20.4480 H   0  0  0  0  0  0  0  0  0  0  0  0
  -26.3110  -15.6810   19.8720 H   0  0  0  0  0  0  0  0  0  0  0  0
  -28.7120  -23.7850   19.7530 C   0  0  0  0  0  3  0  0  0  0  0  0
  -28.3870  -25.1050   20.6190 C   0  0  0  0  0  3  0  0  0  0  0  0
  -28.4880  -26.4840   20.0550 O   0  0  0  0  0  0  0  0  0  0  0  0
  -24.6390  -31.8080   23.1240 C   0  0  0  0  0  0  0  0  0  0  0  0
  -27.3570  -27.3160   20.0540 C   0  0  0  0  0  0  0  0  0  0  0  0
  -23.4760  -30.4090   21.4520 C   0  0  0  0  0  3  0  0  0  0  0  0
  -24.9670  -28.8910   20.0270 C   0  0  0  0  0  0  0  0  0  0  0  0
  -26.0120  -30.7660   21.3040 C   0  0  0  0  0  2  0  0  0  0  0  0
  -26.1220  -29.3970   20.6400 C   0  0  0  0  0  0  0  0  0  0  0  0
  -27.3230  -28.6240   20.6340 C   0  0  0  0  0  3  0  0  0  0  0  0
  -26.1830  -26.8610   19.4200 C   0  0  0  0  0  3  0  0  0  0  0  0
  -25.0010  -27.6290   19.4060 C   0  0  0  0  0  3  0  0  0  0  0  0
  -23.7170  -29.7470   20.0680 C   0  0  0  0  0  2  0  0  0  0  0  0
  -24.7270  -31.0130   22.0160 N   0  0  0  0  0  0  0  0  0  0  0  0
  -23.5440  -32.0640   23.6470 O   0  0  0  0  0  0  0  0  0  0  0  0
  -22.8160  -29.3740   22.3940 C   0  0  0  0  0  0  0  0  0  0  0  0
  -21.4890  -29.2030   22.2700 N   0  0  0  0  0  0  0  0  0  0  0  0
  -23.4980  -28.7270   23.1940 O   0  0  0  0  0  0  0  0  0  0  0  0
  -21.0000  -29.7790   21.5990 H   0  0  0  0  0  0  0  0  0  0  0  0
  -18.1040  -28.0360   22.7940 C   0  0  0  0  0  0  0  0  0  0  0  0
  -20.6700  -28.2480   23.0190 C   0  0  0  0  0  3  0  0  0  0  0  0
  -20.7360  -26.8380   22.3870 C   0  0  0  0  0  2  0  0  0  0  0  0
  -19.6090  -26.5720   21.3850 C   0  0  0  0  0  2  0  0  0  0  0  0
  -18.2430  -26.7120   22.0630 C   0  0  0  0  0  2  0  0  0  0  0  0
  -19.2420  -28.7660   23.2280 C   0  0  0  0  0  0  0  0  0  0  0  0
  -19.0540  -30.0090   23.8710 C   0  0  0  0  0  3  0  0  0  0  0  0
  -17.7600  -30.5210   24.0850 C   0  0  0  0  0  3  0  0  0  0  0  0
  -16.6360  -29.7870   23.6680 C   0  0  0  0  0  3  0  0  0  0  0  0
  -16.8090  -28.5460   23.0270 C   0  0  0  0  0  3  0  0  0  0  0  0
  -25.9030  -32.4500   23.7730 C   0  0  0  0  0  3  0  0  0  0  0  0
  -25.5700  -33.8390   24.1210 N   0  0  0  0  0  0  0  0  0  0  0  0
  -25.8990  -34.9100   23.3860 C   0  0  0  0  0  0  0  0  0  0  0  0
  -26.5870  -34.8330   22.3650 O   0  0  0  0  0  0  0  0  0  0  0  0
  -24.9650  -33.9740   24.9170 H   0  0  0  0  0  0  0  0  0  0  0  0
  -24.1620  -36.6910   23.0220 C   0  0  0  0  0  1  0  0  0  0  0  0
  -25.3840  -36.2830   23.8590 C   0  0  0  0  0  3  0  0  0  0  0  0
  -27.4840  -37.1700   24.7710 C   0  0  0  0  0  1  0  0  0  0  0  0
  -26.4070  -37.3500   23.7990 N   0  0  0  0  0  0  0  0  0  0  0  0
  -25.9860  -38.2610   23.9580 H   0  0  0  0  0  0  0  0  0  0  0  0
  -26.4190  -31.6690   25.0460 C   0  0  1  0  0  0  0  0  0  0  0  0
  -25.3170  -31.3900   26.0960 C   0  0  0  0  0  1  0  0  0  0  0  0
  -27.0340  -30.3110   24.6420 C   0  0  0  0  0  1  0  0  0  0  0  0
  -27.5490  -32.4730   25.7330 C   0  0  0  0  0  1  0  0  0  0  0  0
  1  6  2  0
  2  1  1  0
  3  5  1  0
  3  4  1  0
  4 48  1  0
  4  2  1  0
  5  1  1  0
  7 19  1  0
  8 13  1  0
  9 10  1  0
  9  8  1  0
 11 10  1  0
 11 23  1  0
 11 12  1  0
 13  7  1  0
 13 12  1  0
 14  7  2  0
 16 15  1  0
 17 19  1  0
 18 17  1  0
 18  5  1  0
 18 15  1  0
 19 16  1  0
 20 21  2  0
 21 40  1  0
 22 21  1  0
 22 25  1  0
 23 24  1  0
 23 20  1  0
 24 22  2  0
 25 26  1  0
 26 27  2  0
 28 31  1  0
 28 27  1  0
 29 28  2  0
 30 29  1  0
 30 25  2  0
 31 32  1  0
 32 37  2  0
 32 33  1  0
 33 34  2  0
 34 35  1  0
 35 39  1  0
 36 35  2  0
 37 36  1  0
 38 37  1  0
 40 41  1  0
 41 44  1  0
 41 43  1  0
 42 40  2  0
 45 20  1  0
 45 46  1  0
 47 45  1  0
 48 49  2  0
 50 49  1  0
 51 62  2  0
 52 50  1  0
 52 57  1  0
 53 61  1  0
 53 63  1  0
 54 60  1  0
 54 56  1  0
 55 61  1  0
 56 55  1  0
 57 56  2  0
 58 52  2  0
 59 58  1  0
 59 54  2  0
 60 53  1  0
 61 51  1  0
 63 65  2  0
 64 63  1  0
 66 64  1  0
 67 76  2  0
 67 72  1  0
 68 64  1  0
 68 72  1  0
 69 68  1  0
 70 71  1  0
 70 69  1  0
 71 67  1  0
 72 73  2  0
 73 74  1  0
 75 74  2  0
 76 75  1  0
 77 51  1  0
 77 78  1  0
 77 87  1  0
 78 81  1  0
 79 83  1  0
 79 78  1  0
 80 79  2  0
 83 82  1  0
 85 83  1  0
 85 86  1  0
 85 84  1  0
 87 90  1  1
 87 88  1  0
 89 87  1  0
M  ISO  4   7 100  19 100  49 101  50 101
M  END
>  <TORSDO>  (9) 
F 18

>  <SCORE>  (9) 
-13.445

>  <name>  (9) 
8

>  <ligand_id>  (9) 
8

>  <original_smiles>  (9) 
[H]c1c([H])c([H])c2c(c1[H])C([H])([H])C([H])([H])C([H])([H])C2([H])N([H])C(=O)C1([H])N(C(=O)C([H])(N([H])C(=O)C([H])(N([H])C([H])([H])[H])C([H])([H])[H])C(C([H])([H])[H])(C([H])([H])[H])C([H])([H])[H])C([H])([H])c2c([H])c(OC([H])([H])C([H])([H])C3([H])C([H])([H])C(=O)N(C4([H])C([H])([H])N(C(=O)N5C([H])([H])C([H])([H])C([H])([H])C([H])(n6nc(-c7c([H])c([H])c(Oc8c([H])c([H])c(F)c([H])c8F)c([H])c7[H])c(C(=O)N([H])[H])c6N([H])[H])C5([H])[H])C([H])([H])C4([H])[H])C3([H])[H])c([H])c([H])c2C1([H])[H]

>  <smiles>  (9) 
[H]c1c([H])c([H])c2c(c1[H])C([H])([H])C([H])([H])C([H])([H])C2([H])N([H])C(=O)C1([H])N(C(=O)C([H])(N([H])C(=O)C([H])(N([H])C([H])([H])[H])C([H])([H])[H])C(C([H])([H])[H])(C([H])([H])[H])C([H])([H])[H])C([H])([H])c2c([H])c(OC([H])([H])C([H])([H])C3([H])C([H])([H])C(=O)N(C4([H])C([H])([H])N(C(=O)N5C([H])([H])C([H])([H])C([H])([H])C([H])(n6nc(-c7c([H])c([H])c(Oc8c([H])c([H])c(F)c([H])c8F)c([H])c7[H])c(C(=O)N([H])[H])c6N([H])[H])C5([H])[H])C([H])([H])C4([H])[H])C3([H])[H])c([H])c([H])c2C1([H])[H]

$$$$
9:0:0
     RDKit          3D

 91100  0  0  1  0  0  0  0  0999 V2000
  -30.6900  -14.8360   20.3760 C   0  0  0  0  0  0  0  0  0  0  0  0
  -30.4380  -12.5210   19.4390 C   0  0  0  0  0  2  0  0  0  0  0  0
  -29.5420  -12.5340   18.1830 C   0  0  0  0  0  2  0  0  0  0  0  0
  -28.0600  -12.3940   18.5810 C   0  0  0  0  0  2  0  0  0  0  0  0
  -27.6640  -13.3330   19.7530 C   0  0  0  0  0  3  0  0  0  0  0  0
  -28.6950  -13.2960   20.9000 C   0  0  0  0  0  2  0  0  0  0  0  0
  -29.9900  -13.6420   20.3070 N   0  0  0  0  0  0  0  0  0  0  0  0
  -31.9030  -14.7820   20.1470 O   0  0  0  0  0  0  0  0  0  0  0  0
  -27.8260  -22.7640   20.2440 C   0  0  0  0  0  3  0  0  0  0  0  0
  -27.9910  -21.3460   20.4340 C   0  0  0  0  0  0  0  0  0  0  0  0
  -28.9040  -23.5710   19.7840 C   0  0  0  0  0  0  0  0  0  0  0  0
  -29.2450  -20.7040   20.1590 C   0  0  0  0  0  0  0  0  0  0  0  0
  -30.7580  -18.6120   19.8150 C   0  0  0  0  0  2  0  0  0  0  0  0
  -28.5490  -18.2400   20.7800 C   0  0  0  0  0  2  0  0  0  0  0  0
  -30.5870  -17.1270   19.2730 C   0  0  0  0  0  2  0  0  0  0  0  0
  -29.1260  -16.7850   21.1710 C   0  0  0  0  0  2  0  0  0  0  0  0
  -30.0860  -22.8990   19.5640 N   0  0  0  0  0  0  0  0  0  0  0  0
  -30.2500  -21.5510   19.7510 N   0  0  0  0  0  0  0  0  0  0  0  0
  -29.5070  -19.2540   20.2630 N   0  0  0  0  0  0  0  0  0  0  0  0
  -30.0460  -16.0870   20.2140 N   0  0  0  0  0  0  0  0  0  0  0  0
  -26.9170  -20.6200   20.8370 F   0  0  0  0  0  0  0  0  0  0  0  0
  -25.2710  -13.9760   20.4010 C   0  0  0  0  0  0  0  0  0  0  0  0
  -24.1840  -13.2280   20.7590 C   0  0  0  0  0  0  0  0  0  0  0  0
  -24.6250  -11.8690   20.7830 C   0  0  0  0  0  0  0  0  0  0  0  0
  -26.3060  -13.0730   20.2200 N   0  0  0  0  0  0  0  0  0  0  0  0
  -25.9250  -11.8040   20.5140 N   0  0  0  0  0  0  0  0  0  0  0  0
  -23.8720  -10.6250   20.9860 C   0  0  0  0  0  0  0  0  0  0  0  0
  -24.2780   -9.6600   21.9330 C   0  0  0  0  0  3  0  0  0  0  0  0
  -23.5250   -8.4820   22.1240 C   0  0  0  0  0  3  0  0  0  0  0  0
  -22.3500   -8.2590   21.3670 C   0  0  0  0  0  0  0  0  0  0  0  0
  -21.9630   -9.2120   20.4080 C   0  0  0  0  0  3  0  0  0  0  0  0
  -22.7170  -10.3820   20.2150 C   0  0  0  0  0  3  0  0  0  0  0  0
  -21.5690   -7.1330   21.4660 O   0  0  0  0  0  0  0  0  0  0  0  0
  -21.5190   -6.3920   22.6190 C   0  0  0  0  0  0  0  0  0  0  0  0
  -21.1520   -6.9630   23.8580 C   0  0  0  0  0  3  0  0  0  0  0  0
  -21.0460   -6.1500   25.0040 C   0  0  0  0  0  3  0  0  0  0  0  0
  -21.2980   -4.7690   24.9140 C   0  0  0  0  0  0  0  0  0  0  0  0
  -21.6580   -4.1970   23.6810 C   0  0  0  0  0  3  0  0  0  0  0  0
  -21.7660   -5.0070   22.5360 C   0  0  0  0  0  0  0  0  0  0  0  0
  -22.0930   -4.4480   21.3460 F   0  0  0  0  0  0  0  0  0  0  0  0
  -21.1880   -3.9860   26.0130 F   0  0  0  0  0  0  0  0  0  0  0  0
  -22.7870  -13.7360   20.9730 C   0  0  0  0  0  0  0  0  0  0  0  0
  -22.0240  -13.0850   21.8450 N   0  0  0  0  0  0  0  0  0  0  0  0
  -22.3810  -14.7460   20.4000 O   0  0  0  0  0  0  0  0  0  0  0  0
  -22.3650  -12.2680   22.3290 H   0  0  0  0  0  0  0  0  0  0  0  0
  -21.0860  -13.4100   22.0310 H   0  0  0  0  0  0  0  0  0  0  0  0
  -25.4640  -15.3370   20.1880 N   0  0  0  0  0  0  0  0  0  0  0  0
  -24.7050  -16.0060   20.2520 H   0  0  0  0  0  0  0  0  0  0  0  0
  -26.3270  -15.7450   19.8540 H   0  0  0  0  0  0  0  0  0  0  0  0
  -28.7230  -25.0640   19.1730 C   0  0  0  0  0  2  0  0  0  0  0  0
  -28.5800  -26.3660   19.9440 O   0  0  0  0  0  0  0  0  0  0  0  0
  -24.6350  -31.6840   22.9900 C   0  0  0  0  0  0  0  0  0  0  0  0
  -27.4480  -27.2270   19.8550 C   0  0  0  0  0  0  0  0  0  0  0  0
  -23.5040  -30.2660   21.3200 C   0  0  0  0  0  3  0  0  0  0  0  0
  -25.0250  -28.8040   19.8660 C   0  0  0  0  0  0  0  0  0  0  0  0
  -26.0360  -30.6750   21.1630 C   0  0  0  0  0  2  0  0  0  0  0  0
  -26.1750  -29.3080   20.4840 C   0  0  0  0  0  0  0  0  0  0  0  0
  -27.3840  -28.5320   20.4700 C   0  0  0  0  0  3  0  0  0  0  0  0
  -26.2580  -26.7960   19.2240 C   0  0  0  0  0  3  0  0  0  0  0  0
  -25.0740  -27.5570   19.2290 C   0  0  0  0  0  3  0  0  0  0  0  0
  -23.7540  -29.6300   19.9280 C   0  0  0  0  0  2  0  0  0  0  0  0
  -24.7430  -30.8940   21.8800 N   0  0  0  0  0  0  0  0  0  0  0  0
  -23.5360  -31.9050   23.5220 O   0  0  0  0  0  0  0  0  0  0  0  0
  -22.8770  -29.2050   22.2580 C   0  0  0  0  0  0  0  0  0  0  0  0
  -21.5520  -29.0000   22.1480 N   0  0  0  0  0  0  0  0  0  0  0  0
  -23.5830  -28.5700   23.0460 O   0  0  0  0  0  0  0  0  0  0  0  0
  -21.0400  -29.5650   21.4860 H   0  0  0  0  0  0  0  0  0  0  0  0
  -18.2080  -27.7240   22.6930 C   0  0  0  0  0  0  0  0  0  0  0  0
  -20.7690  -28.0190   22.9030 C   0  0  0  0  0  3  0  0  0  0  0  0
  -20.8780  -26.6130   22.2680 C   0  0  0  0  0  2  0  0  0  0  0  0
  -19.7540  -26.3130   21.2710 C   0  0  0  0  0  2  0  0  0  0  0  0
  -18.3890  -26.4080   21.9580 C   0  0  0  0  0  2  0  0  0  0  0  0
  -19.3270  -28.4890   23.1240 C   0  0  0  0  0  0  0  0  0  0  0  0
  -19.1030  -29.7220   23.7730 C   0  0  0  0  0  3  0  0  0  0  0  0
  -17.7950  -30.1920   23.9960 C   0  0  0  0  0  3  0  0  0  0  0  0
  -16.6930  -29.4250   23.5810 C   0  0  0  0  0  3  0  0  0  0  0  0
  -16.9000  -28.1930   22.9370 C   0  0  0  0  0  3  0  0  0  0  0  0
  -25.8830  -32.3630   23.6320 C   0  0  0  0  0  3  0  0  0  0  0  0
  -25.4930  -33.7240   24.0310 N   0  0  0  0  0  0  0  0  0  0  0  0
  -25.7510  -34.8320   23.3220 C   0  0  0  0  0  0  0  0  0  0  0  0
  -26.4100  -34.8180   22.2800 O   0  0  0  0  0  0  0  0  0  0  0  0
  -24.9010  -33.8030   24.8460 H   0  0  0  0  0  0  0  0  0  0  0  0
  -23.9090  -36.5300   23.0840 C   0  0  0  0  0  1  0  0  0  0  0  0
  -25.1880  -36.1650   23.8530 C   0  0  0  0  0  3  0  0  0  0  0  0
  -27.2840  -37.1390   24.6850 C   0  0  0  0  0  1  0  0  0  0  0  0
  -26.1530  -37.2840   23.7740 N   0  0  0  0  0  0  0  0  0  0  0  0
  -25.6950  -38.1690   23.9750 H   0  0  0  0  0  0  0  0  0  0  0  0
  -26.4550  -31.5670   24.8690 C   0  0  1  0  0  0  0  0  0  0  0  0
  -25.3890  -31.2240   25.9360 C   0  0  0  0  0  1  0  0  0  0  0  0
  -27.1080  -30.2420   24.4150 C   0  0  0  0  0  1  0  0  0  0  0  0
  -27.5680  -32.3940   25.5540 C   0  0  0  0  0  1  0  0  0  0  0  0
  2  7  1  0
  3  4  1  0
  3  2  1  0
  5  4  1  0
  5 25  1  0
  5  6  1  0
  7  1  1  0
  7  6  1  0
  8  1  2  0
  9 10  1  0
 10 21  1  0
 11  9  2  0
 12 19  1  0
 12 10  2  0
 13 19  1  0
 14 16  1  0
 15 13  1  0
 15 20  1  0
 17 18  2  0
 17 11  1  0
 18 12  1  0
 19 14  1  0
 20  1  1  0
 20 16  1  0
 22 23  2  0
 23 24  1  0
 23 42  1  0
 24 27  1  0
 25 22  1  0
 25 26  1  0
 26 24  2  0
 27 28  1  0
 28 29  2  0
 30 33  1  0
 30 29  1  0
 31 30  2  0
 32 31  1  0
 32 27  2  0
 33 34  1  0
 34 35  1  0
 35 36  2  0
 37 36  1  0
 37 41  1  0
 38 37  2  0
 39 34  2  0
 39 38  1  0
 40 39  1  0
 42 43  1  0
 43 46  1  0
 43 45  1  0
 44 42  2  0
 47 48  1  0
 47 22  1  0
 49 47  1  0
 50 11  1  0
 50 51  1  0
 52 63  2  0
 53 51  1  0
 53 58  1  0
 54 62  1  0
 54 64  1  0
 55 61  1  0
 55 57  1  0
 56 62  1  0
 57 56  1  0
 58 57  2  0
 59 60  1  0
 59 53  2  0
 60 55  2  0
 61 54  1  0
 62 52  1  0
 64 66  2  0
 65 64  1  0
 67 65  1  0
 68 77  2  0
 68 73  1  0
 69 65  1  0
 69 73  1  0
 70 69  1  0
 71 72  1  0
 71 70  1  0
 72 68  1  0
 73 74  2  0
 74 75  1  0
 76 75  2  0
 77 76  1  0
 78 52  1  0
 78 79  1  0
 78 88  1  0
 79 82  1  0
 80 84  1  0
 80 79  1  0
 81 80  2  0
 84 83  1  0
 86 84  1  0
 86 87  1  0
 86 85  1  0
 88 91  1  1
 88 89  1  0
 90 88  1  0
M  ISO  4   1 100  20 100  50 101  51 101
M  END
>  <TORSDO>  (10) 
F 16

>  <SCORE>  (10) 
-14.169

>  <name>  (10) 
9

>  <ligand_id>  (10) 
9

>  <original_smiles>  (10) 
[H]c1c([H])c([H])c2c(c1[H])C([H])([H])C([H])([H])C([H])([H])C2([H])N([H])C(=O)C1([H])N(C(=O)C([H])(N([H])C(=O)C([H])(N([H])C([H])([H])[H])C([H])([H])[H])C(C([H])([H])[H])(C([H])([H])[H])C([H])([H])[H])C([H])([H])c2c([H])c(OC([H])([H])c3nnc(N4C([H])([H])C([H])([H])N(C(=O)N5C([H])([H])C([H])([H])C([H])([H])C([H])(n6nc(-c7c([H])c([H])c(Oc8c([H])c([H])c(F)c([H])c8F)c([H])c7[H])c(C(=O)N([H])[H])c6N([H])[H])C5([H])[H])C([H])([H])C4([H])[H])c(F)c3[H])c([H])c([H])c2C1([H])[H]

>  <smiles>  (10) 
[H]c1c([H])c([H])c2c(c1[H])C([H])([H])C([H])([H])C([H])([H])C2([H])N([H])C(=O)C1([H])N(C(=O)C([H])(N([H])C(=O)C([H])(N([H])C([H])([H])[H])C([H])([H])[H])C(C([H])([H])[H])(C([H])([H])[H])C([H])([H])[H])C([H])([H])c2c([H])c(OC([H])([H])c3nnc(N4C([H])([H])C([H])([H])N(C(=O)N5C([H])([H])C([H])([H])C([H])([H])C([H])(n6nc(-c7c([H])c([H])c(Oc8c([H])c([H])c(F)c([H])c8F)c([H])c7[H])c(C(=O)N([H])[H])c6N([H])[H])C5([H])[H])C([H])([H])C4([H])[H])c(F)c3[H])c([H])c([H])c2C1([H])[H]

$$$$
10:0:0
     RDKit          3D

 92101  0  0  1  0  0  0  0  0999 V2000
  -29.4750  -21.3080   20.1220 C   0  0  0  0  0  2  0  0  0  0  0  0
  -27.8720  -20.1390   18.3470 C   0  0  0  0  0  2  0  0  0  0  0  0
  -27.2650  -19.8740   19.6960 C   0  0  0  0  0  2  0  0  0  0  0  0
  -28.7820  -20.0050   19.5760 C   0  0  2  0  0  0  0  0  0  0  0  0
  -31.0150  -14.6350   20.0570 C   0  0  0  0  0  0  0  0  0  0  0  0
  -30.6850  -12.3690   19.1320 C   0  0  0  0  0  2  0  0  0  0  0  0
  -29.7210  -12.4640   17.9320 C   0  0  0  0  0  2  0  0  0  0  0  0
  -28.2600  -12.3460   18.4120 C   0  0  0  0  0  2  0  0  0  0  0  0
  -27.9400  -13.2810   19.6110 C   0  0  0  0  0  3  0  0  0  0  0  0
  -29.0300  -13.2090   20.7040 C   0  0  0  0  0  2  0  0  0  0  0  0
  -30.3220  -13.4580   20.0560 N   0  0  0  0  0  0  0  0  0  0  0  0
  -32.2050  -14.6740   19.7250 O   0  0  0  0  0  0  0  0  0  0  0  0
  -30.3780  -16.7550   21.1350 C   0  0  0  0  0  2  0  0  0  0  0  0
  -30.4190  -16.5720   18.7670 C   0  0  0  0  0  2  0  0  0  0  0  0
  -29.4460  -18.0110   20.9950 C   0  0  0  0  0  2  0  0  0  0  0  0
  -29.4320  -17.7600   18.6590 C   0  0  0  0  0  2  0  0  0  0  0  0
  -30.2820  -15.7920   20.0160 N   0  0  0  0  0  0  0  0  0  0  0  0
  -29.6220  -18.7540   19.7290 N   0  0  0  0  0  0  0  0  0  0  0  0
  -25.6020  -13.9250   20.4570 C   0  0  0  0  0  0  0  0  0  0  0  0
  -24.5290  -13.1730   20.8520 C   0  0  0  0  0  0  0  0  0  0  0  0
  -24.9480  -11.8100   20.7630 C   0  0  0  0  0  0  0  0  0  0  0  0
  -26.6090  -13.0230   20.1520 N   0  0  0  0  0  0  0  0  0  0  0  0
  -26.2230  -11.7440   20.3970 N   0  0  0  0  0  0  0  0  0  0  0  0
  -24.1900  -10.5650   20.9490 C   0  0  0  0  0  0  0  0  0  0  0  0
  -24.5920   -9.5890   21.8880 C   0  0  0  0  0  3  0  0  0  0  0  0
  -23.8360   -8.4090   22.0620 C   0  0  0  0  0  3  0  0  0  0  0  0
  -22.6660   -8.1960   21.2970 C   0  0  0  0  0  0  0  0  0  0  0  0
  -22.2820   -9.1610   20.3480 C   0  0  0  0  0  3  0  0  0  0  0  0
  -23.0380  -10.3320   20.1710 C   0  0  0  0  0  3  0  0  0  0  0  0
  -21.8830   -7.0700   21.3810 O   0  0  0  0  0  0  0  0  0  0  0  0
  -21.7400   -6.3800   22.5580 C   0  0  0  0  0  0  0  0  0  0  0  0
  -21.1900   -6.9800   23.7110 C   0  0  0  0  0  3  0  0  0  0  0  0
  -20.9950   -6.2150   24.8780 C   0  0  0  0  0  3  0  0  0  0  0  0
  -21.3380   -4.8500   24.8920 C   0  0  0  0  0  0  0  0  0  0  0  0
  -21.8800   -4.2490   23.7420 C   0  0  0  0  0  3  0  0  0  0  0  0
  -22.0770   -5.0110   22.5780 C   0  0  0  0  0  0  0  0  0  0  0  0
  -22.5780   -4.4210   21.4650 F   0  0  0  0  0  0  0  0  0  0  0  0
  -21.1450   -4.1120   26.0100 F   0  0  0  0  0  0  0  0  0  0  0  0
  -23.1610  -13.6830   21.2000 C   0  0  0  0  0  0  0  0  0  0  0  0
  -22.4540  -12.9880   22.0840 N   0  0  0  0  0  0  0  0  0  0  0  0
  -22.7280  -14.7320   20.7230 O   0  0  0  0  0  0  0  0  0  0  0  0
  -22.8150  -12.1370   22.4890 H   0  0  0  0  0  0  0  0  0  0  0  0
  -21.5370  -13.3100   22.3610 H   0  0  0  0  0  0  0  0  0  0  0  0
  -25.8010  -15.2950   20.3100 N   0  0  0  0  0  0  0  0  0  0  0  0
  -25.0590  -15.9690   20.4700 H   0  0  0  0  0  0  0  0  0  0  0  0
  -26.6550  -15.7160   19.9700 H   0  0  0  0  0  0  0  0  0  0  0  0
  -28.6590  -22.5630   19.9320 N   0  0  0  0  0  4  0  0  0  0  0  0
  -27.8000  -22.4190   20.4410 H   0  0  0  0  0  0  0  0  0  0  0  0
  -28.4210  -22.5960   18.9530 H   0  0  0  0  0  0  0  0  0  0  0  0
  -29.2050  -23.9190   20.3240 C   0  0  0  0  0  2  0  0  0  0  0  0
  -28.1770  -25.0690   20.0050 C   0  0  0  0  0  2  0  0  0  0  0  0
  -28.4350  -26.4880   20.3120 O   0  0  0  0  0  0  0  0  0  0  0  0
  -24.6400  -31.8600   23.2610 C   0  0  0  0  0  0  0  0  0  0  0  0
  -27.3180  -27.3320   20.2400 C   0  0  0  0  0  0  0  0  0  0  0  0
  -23.4710  -30.4610   21.5980 C   0  0  0  0  0  3  0  0  0  0  0  0
  -24.9490  -28.9280   20.1970 C   0  0  0  0  0  0  0  0  0  0  0  0
  -26.0120  -30.7920   21.4620 C   0  0  0  0  0  2  0  0  0  0  0  0
  -26.1060  -29.4160   20.8180 C   0  0  0  0  0  0  0  0  0  0  0  0
  -27.2920  -28.6270   20.8370 C   0  0  0  0  0  3  0  0  0  0  0  0
  -26.1310  -26.9000   19.5920 C   0  0  0  0  0  3  0  0  0  0  0  0
  -24.9620  -27.6730   19.5790 C   0  0  0  0  0  3  0  0  0  0  0  0
  -23.7100  -29.7950   20.2200 C   0  0  0  0  0  2  0  0  0  0  0  0
  -24.7260  -31.0540   22.1630 N   0  0  0  0  0  0  0  0  0  0  0  0
  -23.5460  -32.1320   23.7760 O   0  0  0  0  0  0  0  0  0  0  0  0
  -22.7980  -29.4360   22.5430 C   0  0  0  0  0  0  0  0  0  0  0  0
  -21.4730  -29.2620   22.3990 N   0  0  0  0  0  0  0  0  0  0  0  0
  -23.4660  -28.8000   23.3620 O   0  0  0  0  0  0  0  0  0  0  0  0
  -20.9940  -29.8280   21.7110 H   0  0  0  0  0  0  0  0  0  0  0  0
  -18.0760  -28.1240   22.8970 C   0  0  0  0  0  0  0  0  0  0  0  0
  -20.6410  -28.3260   23.1570 C   0  0  0  0  0  3  0  0  0  0  0  0
  -20.7100  -26.9040   22.5520 C   0  0  0  0  0  2  0  0  0  0  0  0
  -19.5960  -26.6230   21.5390 C   0  0  0  0  0  2  0  0  0  0  0  0
  -18.2210  -26.7840   22.1950 C   0  0  0  0  0  2  0  0  0  0  0  0
  -19.2130  -28.8550   23.3340 C   0  0  0  0  0  0  0  0  0  0  0  0
  -19.0240  -30.1100   23.9530 C   0  0  0  0  0  3  0  0  0  0  0  0
  -17.7300  -30.6320   24.1380 C   0  0  0  0  0  3  0  0  0  0  0  0
  -16.6080  -29.8980   23.7170 C   0  0  0  0  0  3  0  0  0  0  0  0
  -16.7830  -28.6460   23.0990 C   0  0  0  0  0  3  0  0  0  0  0  0
  -25.9100  -32.4940   23.9060 C   0  0  0  0  0  3  0  0  0  0  0  0
  -26.3960  -31.7300   25.1990 C   0  0  1  0  0  0  0  0  0  0  0  0
  -25.2770  -31.4960   26.2400 C   0  0  0  0  0  1  0  0  0  0  0  0
  -26.9950  -30.3520   24.8320 C   0  0  0  0  0  1  0  0  0  0  0  0
  -27.5280  -32.5330   25.8850 C   0  0  0  0  0  1  0  0  0  0  0  0
  -25.5890  -33.8940   24.2170 N   0  0  0  0  0  0  0  0  0  0  0  0
  -25.9140  -34.9400   23.4460 C   0  0  0  0  0  0  0  0  0  0  0  0
  -26.5840  -34.8280   22.4160 O   0  0  0  0  0  0  0  0  0  0  0  0
  -24.9920  -34.0530   25.0150 H   0  0  0  0  0  0  0  0  0  0  0  0
  -24.1660  -36.7160   23.0830 C   0  0  0  0  0  1  0  0  0  0  0  0
  -25.4180  -36.3290   23.8890 C   0  0  0  0  0  3  0  0  0  0  0  0
  -27.5440  -37.2560   24.6970 C   0  0  0  0  0  1  0  0  0  0  0  0
  -26.4400  -37.3890   23.7510 N   0  0  0  0  0  0  0  0  0  0  0  0
  -26.0240  -38.3090   23.8770 H   0  0  0  0  0  0  0  0  0  0  0  0
  2  4  1  0
  2  3  1  0
  4  3  1  0
  4 18  1  0
  4  1  1  1
  6 11  1  0
  7  8  1  0
  7  6  1  0
  9  8  1  0
  9 22  1  0
  9 10  1  0
 11  5  1  0
 11 10  1  0
 12  5  2  0
 14 17  1  0
 15 13  1  0
 16 14  1  0
 17  5  1  0
 17 13  1  0
 18 16  1  0
 18 15  1  0
 19 20  2  0
 20 39  1  0
 21 20  1  0
 21 24  1  0
 22 23  1  0
 22 19  1  0
 23 21  2  0
 24 25  1  0
 25 26  2  0
 27 30  1  0
 27 26  1  0
 28 27  2  0
 29 28  1  0
 29 24  2  0
 30 31  1  0
 31 36  2  0
 31 32  1  0
 32 33  2  0
 33 34  1  0
 34 38  1  0
 35 34  2  0
 36 35  1  0
 37 36  1  0
 39 40  1  0
 40 43  1  0
 40 42  1  0
 41 39  2  0
 44 19  1  0
 44 45  1  0
 46 44  1  0
 47  1  1  0
 47 50  1  0
 47 48  1  0
 49 47  1  0
 51 52  1  0
 51 50  1  0
 53 64  2  0
 54 52  1  0
 54 59  1  0
 55 63  1  0
 55 65  1  0
 56 62  1  0
 56 58  1  0
 57 63  1  0
 58 59  2  0
 58 57  1  0
 60 54  2  0
 61 60  1  0
 61 56  2  0
 62 55  1  0
 63 53  1  0
 65 67  2  0
 66 65  1  0
 68 66  1  0
 69 78  2  0
 69 74  1  0
 70 66  1  0
 70 74  1  0
 71 70  1  0
 72 73  1  0
 72 71  1  0
 73 69  1  0
 74 75  2  0
 75 76  1  0
 77 76  2  0
 78 77  1  0
 79 53  1  0
 79 84  1  0
 79 80  1  0
 80 83  1  1
 80 81  1  0
 82 80  1  0
 84 87  1  0
 85 89  1  0
 85 84  1  0
 86 85  2  0
 89 88  1  0
 91 92  1  0
 91 89  1  0
 91 90  1  0
M  ISO  4   5 100  17 100  51 101  52 101
M  END
>  <TORSDO>  (11) 
F 20

>  <SCORE>  (11) 
-13.462

>  <name>  (11) 
10

>  <ligand_id>  (11) 
10

>  <original_smiles>  (11) 
[H]c1c([H])c([H])c2c(c1[H])C([H])([H])C([H])([H])C([H])([H])C2([H])N([H])C(=O)C1([H])N(C(=O)C([H])(N([H])C(=O)C([H])(N([H])C([H])([H])[H])C([H])([H])[H])C(C([H])([H])[H])(C([H])([H])[H])C([H])([H])[H])C([H])([H])c2c([H])c(OC([H])([H])C([H])([H])[N+]([H])([H])C([H])([H])C3(N4C([H])([H])C([H])([H])N(C(=O)N5C([H])([H])C([H])([H])C([H])([H])C([H])(n6nc(-c7c([H])c([H])c(Oc8c([H])c([H])c(F)c([H])c8F)c([H])c7[H])c(C(=O)N([H])[H])c6N([H])[H])C5([H])[H])C([H])([H])C4([H])[H])C([H])([H])C3([H])[H])c([H])c([H])c2C1([H])[H]

>  <smiles>  (11) 
[H]c1c([H])c([H])c2c(c1[H])C([H])([H])C([H])([H])C([H])([H])C2([H])N([H])C(=O)C1([H])N(C(=O)C([H])(N([H])C(=O)C([H])(N([H])C([H])([H])[H])C([H])([H])[H])C(C([H])([H])[H])(C([H])([H])[H])C([H])([H])[H])C([H])([H])c2c([H])c(OC([H])([H])C([H])([H])[N+]([H])([H])C([H])([H])C3(N4C([H])([H])C([H])([H])N(C(=O)N5C([H])([H])C([H])([H])C([H])([H])C([H])(n6nc(-c7c([H])c([H])c(Oc8c([H])c([H])c(F)c([H])c8F)c([H])c7[H])c(C(=O)N([H])[H])c6N([H])[H])C5([H])[H])C([H])([H])C4([H])[H])C([H])([H])C3([H])[H])c([H])c([H])c2C1([H])[H]

$$$$
11:0:0
     RDKit          3D

 93102  0  0  1  0  0  0  0  0999 V2000
  -28.3540  -21.5710   19.7360 C   0  0  0  0  0  2  0  0  0  0  0  0
  -29.0970  -18.9770   19.6970 C   0  0  0  0  0  3  0  0  0  0  0  0
  -29.9380  -18.2660   20.5200 C   0  0  0  0  0  0  0  0  0  0  0  0
  -29.0500  -20.3060   20.2730 C   0  0  0  0  0  0  0  0  0  0  0  0
  -31.3450  -17.1520   22.1100 C   0  0  0  0  0  2  0  0  0  0  0  0
  -31.1980  -18.6470   22.5020 C   0  0  0  0  0  2  0  0  0  0  0  0
  -30.7290  -16.9810   20.6870 C   0  0  0  0  0  3  0  0  0  0  0  0
  -29.7640  -20.3680   21.4020 N   0  0  0  0  0  0  0  0  0  0  0  0
  -30.2790  -19.1230   21.5090 N   0  0  0  0  0  0  0  0  0  0  0  0
  -30.7100  -14.5450   20.0640 C   0  0  0  0  0  0  0  0  0  0  0  0
  -30.3260  -12.3480   18.9910 C   0  0  0  0  0  2  0  0  0  0  0  0
  -29.3390  -12.5190   17.8170 C   0  0  0  0  0  2  0  0  0  0  0  0
  -27.8860  -12.3980   18.3180 C   0  0  0  0  0  2  0  0  0  0  0  0
  -27.6080  -13.2690   19.5740 C   0  0  0  0  0  3  0  0  0  0  0  0
  -28.7140  -13.0980   20.6370 C   0  0  0  0  0  2  0  0  0  0  0  0
  -30.0020  -13.3820   19.9920 N   0  0  0  0  0  0  0  0  0  0  0  0
  -31.8480  -14.6340   19.5970 O   0  0  0  0  0  0  0  0  0  0  0  0
  -30.0710  -15.6530   20.5250 N   0  0  0  0  0  0  0  0  0  0  0  0
  -29.1130  -15.5620   20.8220 H   0  0  0  0  0  0  0  0  0  0  0  0
  -25.2660  -13.8990   20.4260 C   0  0  0  0  0  0  0  0  0  0  0  0
  -24.2050  -13.1380   20.8360 C   0  0  0  0  0  0  0  0  0  0  0  0
  -24.6390  -11.7800   20.7590 C   0  0  0  0  0  0  0  0  0  0  0  0
  -26.2810  -13.0050   20.1230 N   0  0  0  0  0  0  0  0  0  0  0  0
  -25.9110  -11.7240   20.3850 N   0  0  0  0  0  0  0  0  0  0  0  0
  -23.8990  -10.5280   20.9630 C   0  0  0  0  0  0  0  0  0  0  0  0
  -24.3440   -9.5480   21.8790 C   0  0  0  0  0  3  0  0  0  0  0  0
  -23.6040   -8.3610   22.0720 C   0  0  0  0  0  3  0  0  0  0  0  0
  -22.4070   -8.1450   21.3470 C   0  0  0  0  0  0  0  0  0  0  0  0
  -21.9830   -9.1130   20.4190 C   0  0  0  0  0  3  0  0  0  0  0  0
  -22.7220  -10.2910   20.2250 C   0  0  0  0  0  3  0  0  0  0  0  0
  -21.6370   -7.0120   21.4500 O   0  0  0  0  0  0  0  0  0  0  0  0
  -21.5910   -6.2760   22.6070 C   0  0  0  0  0  0  0  0  0  0  0  0
  -21.1760   -6.8390   23.8340 C   0  0  0  0  0  3  0  0  0  0  0  0
  -21.0770   -6.0290   24.9830 C   0  0  0  0  0  3  0  0  0  0  0  0
  -21.3820   -4.6580   24.9070 C   0  0  0  0  0  0  0  0  0  0  0  0
  -21.7910   -4.0940   23.6850 C   0  0  0  0  0  3  0  0  0  0  0  0
  -21.8920   -4.9010   22.5390 C   0  0  0  0  0  0  0  0  0  0  0  0
  -22.2660   -4.3480   21.3600 F   0  0  0  0  0  0  0  0  0  0  0  0
  -21.2810   -3.8780   26.0080 F   0  0  0  0  0  0  0  0  0  0  0  0
  -22.8330  -13.6360   21.1880 C   0  0  0  0  0  0  0  0  0  0  0  0
  -22.1350  -12.9370   22.0750 N   0  0  0  0  0  0  0  0  0  0  0  0
  -22.3930  -14.6810   20.7100 O   0  0  0  0  0  0  0  0  0  0  0  0
  -22.5060  -12.0920   22.4870 H   0  0  0  0  0  0  0  0  0  0  0  0
  -21.2160  -13.2530   22.3520 H   0  0  0  0  0  0  0  0  0  0  0  0
  -25.4450  -15.2690   20.2630 N   0  0  0  0  0  0  0  0  0  0  0  0
  -24.6900  -15.9290   20.4220 H   0  0  0  0  0  0  0  0  0  0  0  0
  -26.2760  -15.7050   19.8850 H   0  0  0  0  0  0  0  0  0  0  0  0
  -28.6520  -22.8210   20.5030 N   0  0  0  0  0  4  0  0  0  0  0  0
  -29.6420  -22.8080   20.6870 H   0  0  0  0  0  0  0  0  0  0  0  0
  -28.1970  -22.7140   21.3950 H   0  0  0  0  0  0  0  0  0  0  0  0
  -28.2620  -24.1270   19.8620 C   0  0  0  0  0  2  0  0  0  0  0  0
  -28.3830  -25.3640   20.8150 C   0  0  0  0  0  2  0  0  0  0  0  0
  -28.4320  -26.6740   20.1930 O   0  0  0  0  0  0  0  0  0  0  0  0
  -24.5980  -31.9010   23.2330 C   0  0  0  0  0  0  0  0  0  0  0  0
  -27.2690  -27.4220   20.2070 C   0  0  0  0  0  0  0  0  0  0  0  0
  -23.4070  -30.4860   21.5910 C   0  0  0  0  0  3  0  0  0  0  0  0
  -24.8750  -28.9380   20.1890 C   0  0  0  0  0  0  0  0  0  0  0  0
  -25.9340  -30.8460   21.4060 C   0  0  0  0  0  2  0  0  0  0  0  0
  -26.0300  -29.4680   20.7780 C   0  0  0  0  0  0  0  0  0  0  0  0
  -27.2340  -28.7200   20.7770 C   0  0  0  0  0  3  0  0  0  0  0  0
  -26.0980  -26.9120   19.6110 C   0  0  0  0  0  3  0  0  0  0  0  0
  -24.9050  -27.6610   19.6010 C   0  0  0  0  0  3  0  0  0  0  0  0
  -23.6290  -29.7960   20.2200 C   0  0  0  0  0  2  0  0  0  0  0  0
  -24.6650  -31.0940   22.1360 N   0  0  0  0  0  0  0  0  0  0  0  0
  -23.5120  -32.1730   23.7630 O   0  0  0  0  0  0  0  0  0  0  0  0
  -22.7530  -29.4700   22.5540 C   0  0  0  0  0  0  0  0  0  0  0  0
  -21.4260  -29.2940   22.4310 N   0  0  0  0  0  0  0  0  0  0  0  0
  -23.4350  -28.8410   23.3690 O   0  0  0  0  0  0  0  0  0  0  0  0
  -20.9370  -29.8590   21.7500 H   0  0  0  0  0  0  0  0  0  0  0  0
  -18.0460  -28.1250   22.9440 C   0  0  0  0  0  0  0  0  0  0  0  0
  -20.6070  -28.3580   23.2000 C   0  0  0  0  0  3  0  0  0  0  0  0
  -20.6910  -26.9290   22.6140 C   0  0  0  0  0  2  0  0  0  0  0  0
  -19.5790  -26.6230   21.6050 C   0  0  0  0  0  2  0  0  0  0  0  0
  -18.2030  -26.7780   22.2610 C   0  0  0  0  0  2  0  0  0  0  0  0
  -19.1740  -28.8740   23.3710 C   0  0  0  0  0  0  0  0  0  0  0  0
  -18.9730  -30.1360   23.9700 C   0  0  0  0  0  3  0  0  0  0  0  0
  -17.6750  -30.6510   24.1470 C   0  0  0  0  0  3  0  0  0  0  0  0
  -16.5600  -29.8980   23.7380 C   0  0  0  0  0  3  0  0  0  0  0  0
  -16.7460  -28.6370   23.1420 C   0  0  0  0  0  3  0  0  0  0  0  0
  -25.8760  -32.5410   23.8590 C   0  0  0  0  0  3  0  0  0  0  0  0
  -26.3990  -31.7650   25.1300 C   0  0  1  0  0  0  0  0  0  0  0  0
  -25.3090  -31.5080   26.1970 C   0  0  0  0  0  1  0  0  0  0  0  0
  -26.9960  -30.3960   24.7250 C   0  0  0  0  0  1  0  0  0  0  0  0
  -27.5400  -32.5660   25.7990 C   0  0  0  0  0  1  0  0  0  0  0  0
  -25.5550  -33.9340   24.1950 N   0  0  0  0  0  0  0  0  0  0  0  0
  -25.8730  -34.9930   23.4370 C   0  0  0  0  0  0  0  0  0  0  0  0
  -26.5390  -34.8990   22.4020 O   0  0  0  0  0  0  0  0  0  0  0  0
  -24.9630  -34.0810   25.0000 H   0  0  0  0  0  0  0  0  0  0  0  0
  -24.1220  -36.7650   23.0960 C   0  0  0  0  0  1  0  0  0  0  0  0
  -25.3720  -36.3740   23.9000 C   0  0  0  0  0  3  0  0  0  0  0  0
  -27.5000  -37.2810   24.7240 C   0  0  0  0  0  1  0  0  0  0  0  0
  -26.3920  -37.4380   23.7840 N   0  0  0  0  0  0  0  0  0  0  0  0
  -25.9770  -38.3540   23.9330 H   0  0  0  0  0  0  0  0  0  0  0  0
  1  4  1  0
  1 48  1  0
  2  4  1  0
  2  3  2  0
  3  7  1  0
  3  9  1  0
  4  8  2  0
  5  6  1  0
  7 18  1  0
  7  5  1  0
  8  9  1  0
  9  6  1  0
 10 18  1  0
 11 16  1  0
 12 13  1  0
 12 11  1  0
 14 13  1  0
 14 23  1  0
 14 15  1  0
 16 10  1  0
 16 15  1  0
 17 10  2  0
 18 19  1  0
 20 21  2  0
 21 40  1  0
 22 21  1  0
 22 25  1  0
 23 24  1  0
 23 20  1  0
 24 22  2  0
 25 26  1  0
 26 27  2  0
 28 31  1  0
 28 27  1  0
 29 28  2  0
 30 29  1  0
 30 25  2  0
 31 32  1  0
 32 33  1  0
 33 34  2  0
 35 34  1  0
 35 39  1  0
 36 35  2  0
 37 32  2  0
 37 36  1  0
 38 37  1  0
 40 41  1  0
 41 44  1  0
 41 43  1  0
 42 40  2  0
 45 46  1  0
 45 20  1  0
 47 45  1  0
 48 49  1  0
 48 50  1  0
 51 48  1  0
 51 52  1  0
 53 55  1  0
 53 52  1  0
 54 65  2  0
 55 60  1  0
 56 64  1  0
 56 66  1  0
 57 63  1  0
 57 59  1  0
 58 64  1  0
 59 58  1  0
 60 59  2  0
 61 55  2  0
 62 61  1  0
 62 57  2  0
 63 56  1  0
 64 54  1  0
 66 68  2  0
 67 66  1  0
 69 67  1  0
 70 79  2  0
 70 75  1  0
 71 67  1  0
 71 75  1  0
 72 71  1  0
 73 74  1  0
 73 72  1  0
 74 70  1  0
 75 76  2  0
 76 77  1  0
 78 77  2  0
 79 78  1  0
 80 54  1  0
 80 85  1  0
 80 81  1  0
 81 84  1  1
 81 82  1  0
 83 81  1  0
 85 88  1  0
 86 90  1  0
 86 85  1  0
 87 86  2  0
 90 89  1  0
 92 90  1  0
 92 93  1  0
 92 91  1  0
M  ISO  4  10 100  18 100  52 101  53 101
M  END
>  <TORSDO>  (12) 
F 20

>  <SCORE>  (12) 
-13.498

>  <name>  (12) 
11

>  <ligand_id>  (12) 
11

>  <original_smiles>  (12) 
[H]c1c([H])c([H])c2c(c1[H])C([H])([H])C([H])([H])C([H])([H])C2([H])N([H])C(=O)C1([H])N(C(=O)C([H])(N([H])C(=O)C([H])(N([H])C([H])([H])[H])C([H])([H])[H])C(C([H])([H])[H])(C([H])([H])[H])C([H])([H])[H])C([H])([H])c2c([H])c(OC([H])([H])C([H])([H])[N+]([H])([H])C([H])([H])c3nn4c(c3[H])C([H])(N([H])C(=O)N3C([H])([H])C([H])([H])C([H])([H])C([H])(n5nc(-c6c([H])c([H])c(Oc7c([H])c([H])c(F)c([H])c7F)c([H])c6[H])c(C(=O)N([H])[H])c5N([H])[H])C3([H])[H])C([H])([H])C4([H])[H])c([H])c([H])c2C1([H])[H]

>  <smiles>  (12) 
[H]c1c([H])c([H])c2c(c1[H])C([H])([H])C([H])([H])C([H])([H])C2([H])N([H])C(=O)C1([H])N(C(=O)C([H])(N([H])C(=O)C([H])(N([H])C([H])([H])[H])C([H])([H])[H])C(C([H])([H])[H])(C([H])([H])[H])C([H])([H])[H])C([H])([H])c2c([H])c(OC([H])([H])C([H])([H])[N+]([H])([H])C([H])([H])c3nn4c(c3[H])C([H])(N([H])C(=O)N3C([H])([H])C([H])([H])C([H])([H])C([H])(n5nc(-c6c([H])c([H])c(Oc7c([H])c([H])c(F)c([H])c7F)c([H])c6[H])c(C(=O)N([H])[H])c5N([H])[H])C3([H])[H])C([H])([H])C4([H])[H])c([H])c([H])c2C1([H])[H]

$$$$
12:0:0
     RDKit          3D

 89 98  0  0  1  0  0  0  0  0999 V2000
  -28.7210  -22.1770   21.0070 C   0  0  0  0  0  3  0  0  0  0  0  0
  -29.1320  -21.7360   18.9710 C   0  0  0  0  0  3  0  0  0  0  0  0
  -28.5450  -23.4130   20.3140 C   0  0  0  0  0  0  0  0  0  0  0  0
  -28.8190  -23.0560   18.9860 N   0  0  0  0  0  0  0  0  0  0  0  0
  -29.1250  -21.0800   20.1550 N   0  0  0  0  0  0  0  0  0  0  0  0
  -30.6660  -14.9720   20.0630 C   0  0  0  0  0  0  0  0  0  0  0  0
  -30.3550  -12.6780   19.0590 C   0  0  0  0  0  2  0  0  0  0  0  0
  -29.3790  -12.6640   17.8650 C   0  0  0  0  0  2  0  0  0  0  0  0
  -27.9400  -12.4540   18.3670 C   0  0  0  0  0  2  0  0  0  0  0  0
  -27.5930  -13.3670   19.5730 C   0  0  0  0  0  3  0  0  0  0  0  0
  -28.7010  -13.3860   20.6480 C   0  0  0  0  0  2  0  0  0  0  0  0
  -29.9350  -13.7900   19.9630 N   0  0  0  0  0  0  0  0  0  0  0  0
  -31.8670  -14.8640   19.7940 O   0  0  0  0  0  0  0  0  0  0  0  0
  -30.5440  -18.9210   19.4950 C   0  0  0  0  0  2  0  0  0  0  0  0
  -28.4330  -18.4170   20.4710 C   0  0  0  0  0  2  0  0  0  0  0  0
  -31.0750  -17.4590   19.8600 C   0  0  0  0  0  2  0  0  0  0  0  0
  -28.9040  -16.8830   20.7710 C   0  0  0  0  0  2  0  0  0  0  0  0
  -29.5130  -19.5790   20.4620 C   0  0  0  0  0  3  0  0  0  0  0  0
  -30.1260  -16.3050   20.1030 N   0  0  0  0  0  0  0  0  0  0  0  0
  -25.2450  -13.9210   20.4180 C   0  0  0  0  0  0  0  0  0  0  0  0
  -24.2010  -13.1360   20.8210 C   0  0  0  0  0  0  0  0  0  0  0  0
  -24.6730  -11.7890   20.7610 C   0  0  0  0  0  0  0  0  0  0  0  0
  -26.2830  -13.0530   20.1300 N   0  0  0  0  0  0  0  0  0  0  0  0
  -25.9520  -11.7650   20.4040 N   0  0  0  0  0  0  0  0  0  0  0  0
  -23.9600  -10.5200   20.9630 C   0  0  0  0  0  0  0  0  0  0  0  0
  -24.4150   -9.5580   21.8910 C   0  0  0  0  0  3  0  0  0  0  0  0
  -23.6990   -8.3560   22.0840 C   0  0  0  0  0  3  0  0  0  0  0  0
  -22.5150   -8.1080   21.3490 C   0  0  0  0  0  0  0  0  0  0  0  0
  -22.0800   -9.0600   20.4100 C   0  0  0  0  0  3  0  0  0  0  0  0
  -22.7960  -10.2520   20.2150 C   0  0  0  0  0  3  0  0  0  0  0  0
  -21.7690   -6.9590   21.4530 O   0  0  0  0  0  0  0  0  0  0  0  0
  -21.7320   -6.2270   22.6120 C   0  0  0  0  0  0  0  0  0  0  0  0
  -21.2830   -6.7810   23.8300 C   0  0  0  0  0  3  0  0  0  0  0  0
  -21.1960   -5.9750   24.9820 C   0  0  0  0  0  3  0  0  0  0  0  0
  -21.5470   -4.6130   24.9170 C   0  0  0  0  0  0  0  0  0  0  0  0
  -21.9900   -4.0570   23.7030 C   0  0  0  0  0  3  0  0  0  0  0  0
  -22.0790   -4.8620   22.5530 C   0  0  0  0  0  0  0  0  0  0  0  0
  -22.4850   -4.3160   21.3820 F   0  0  0  0  0  0  0  0  0  0  0  0
  -21.4570   -3.8340   26.0200 F   0  0  0  0  0  0  0  0  0  0  0  0
  -22.8120  -13.6030   21.1450 C   0  0  0  0  0  0  0  0  0  0  0  0
  -22.1190  -12.8930   22.0280 N   0  0  0  0  0  0  0  0  0  0  0  0
  -22.3520  -14.6310   20.6520 O   0  0  0  0  0  0  0  0  0  0  0  0
  -22.5070  -12.0610   22.4490 H   0  0  0  0  0  0  0  0  0  0  0  0
  -21.1880  -13.1860   22.2890 H   0  0  0  0  0  0  0  0  0  0  0  0
  -25.3880  -15.2950   20.2410 N   0  0  0  0  0  0  0  0  0  0  0  0
  -24.6200  -15.9390   20.3850 H   0  0  0  0  0  0  0  0  0  0  0  0
  -26.2150  -15.7400   19.8640 H   0  0  0  0  0  0  0  0  0  0  0  0
  -27.9540  -24.8550   20.8130 C   0  0  0  0  0  2  0  0  0  0  0  0
  -28.2820  -26.2650   20.2840 O   0  0  0  0  0  0  0  0  0  0  0  0
  -24.6070  -31.9150   23.2500 C   0  0  0  0  0  0  0  0  0  0  0  0
  -27.2340  -27.2410   20.2530 C   0  0  0  0  0  0  0  0  0  0  0  0
  -23.4260  -30.5060   21.6080 C   0  0  0  0  0  3  0  0  0  0  0  0
  -24.8940  -28.9440   20.1960 C   0  0  0  0  0  0  0  0  0  0  0  0
  -25.9770  -30.8010   21.4540 C   0  0  0  0  0  2  0  0  0  0  0  0
  -26.0660  -29.4090   20.8080 C   0  0  0  0  0  0  0  0  0  0  0  0
  -27.2430  -28.5740   20.8190 C   0  0  0  0  0  3  0  0  0  0  0  0
  -26.0420  -26.8720   19.5950 C   0  0  0  0  0  3  0  0  0  0  0  0
  -24.8930  -27.6880   19.5730 C   0  0  0  0  0  3  0  0  0  0  0  0
  -23.6590  -29.8270   20.2320 C   0  0  0  0  0  2  0  0  0  0  0  0
  -24.6890  -31.0940   22.1590 N   0  0  0  0  0  0  0  0  0  0  0  0
  -23.5170  -32.1900   23.7720 O   0  0  0  0  0  0  0  0  0  0  0  0
  -22.7530  -29.4930   22.5680 C   0  0  0  0  0  0  0  0  0  0  0  0
  -21.4270  -29.3160   22.4380 N   0  0  0  0  0  0  0  0  0  0  0  0
  -23.4270  -28.8700   23.3920 O   0  0  0  0  0  0  0  0  0  0  0  0
  -20.9400  -29.8680   21.7460 H   0  0  0  0  0  0  0  0  0  0  0  0
  -18.0460  -28.1180   22.9460 C   0  0  0  0  0  0  0  0  0  0  0  0
  -20.6060  -28.3770   23.2090 C   0  0  0  0  0  3  0  0  0  0  0  0
  -20.7060  -26.9470   22.6300 C   0  0  0  0  0  2  0  0  0  0  0  0
  -19.6000  -26.6270   21.6180 C   0  0  0  0  0  2  0  0  0  0  0  0
  -18.2200  -26.7720   22.2650 C   0  0  0  0  0  2  0  0  0  0  0  0
  -19.1670  -28.8790   23.3760 C   0  0  0  0  0  0  0  0  0  0  0  0
  -18.9490  -30.1380   23.9740 C   0  0  0  0  0  3  0  0  0  0  0  0
  -17.6440  -30.6390   24.1470 C   0  0  0  0  0  3  0  0  0  0  0  0
  -16.5390  -29.8750   23.7330 C   0  0  0  0  0  3  0  0  0  0  0  0
  -16.7410  -28.6170   23.1390 C   0  0  0  0  0  3  0  0  0  0  0  0
  -25.8780  -32.5600   23.8810 C   0  0  0  0  0  3  0  0  0  0  0  0
  -25.5600  -33.9630   24.1880 N   0  0  0  0  0  0  0  0  0  0  0  0
  -25.9040  -35.0090   23.4240 C   0  0  0  0  0  0  0  0  0  0  0  0
  -26.5890  -34.8950   22.4050 O   0  0  0  0  0  0  0  0  0  0  0  0
  -24.9510  -34.1250   24.9750 H   0  0  0  0  0  0  0  0  0  0  0  0
  -24.1890  -36.8070   23.0210 C   0  0  0  0  0  1  0  0  0  0  0  0
  -25.4110  -36.4040   23.8600 C   0  0  0  0  0  3  0  0  0  0  0  0
  -27.5270  -37.2920   24.7320 C   0  0  0  0  0  1  0  0  0  0  0  0
  -26.4490  -37.4530   23.7610 N   0  0  0  0  0  0  0  0  0  0  0  0
  -26.0430  -38.3760   23.8880 H   0  0  0  0  0  0  0  0  0  0  0  0
  -26.3750  -31.8120   25.1790 C   0  0  1  0  0  0  0  0  0  0  0  0
  -25.2640  -31.5880   26.2330 C   0  0  0  0  0  1  0  0  0  0  0  0
  -26.9690  -30.4290   24.8240 C   0  0  0  0  0  1  0  0  0  0  0  0
  -27.5120  -32.6210   25.8460 C   0  0  0  0  0  1  0  0  0  0  0  0
  2  4  2  0
  2  5  1  0
  3 48  1  0
  3  1  2  0
  4  3  1  0
  5 18  1  0
  5  1  1  0
  6 19  1  0
  7 12  1  0
  8  9  1  0
  8  7  1  0
 10  9  1  0
 10 23  1  0
 10 11  1  0
 12  6  1  0
 12 11  1  0
 13  6  2  0
 14 16  1  0
 15 17  1  0
 16 19  1  0
 18 14  1  0
 18 15  1  0
 19 17  1  0
 20 21  2  0
 21 40  1  0
 22 21  1  0
 22 25  1  0
 23 24  1  0
 23 20  1  0
 24 22  2  0
 25 26  1  0
 26 27  2  0
 28 31  1  0
 28 27  1  0
 29 28  2  0
 30 29  1  0
 30 25  2  0
 31 32  1  0
 32 33  1  0
 33 34  2  0
 35 34  1  0
 35 39  1  0
 36 35  2  0
 37 32  2  0
 37 36  1  0
 38 37  1  0
 40 41  1  0
 41 44  1  0
 41 43  1  0
 42 40  2  0
 45 46  1  0
 45 20  1  0
 47 45  1  0
 49 48  1  0
 50 61  2  0
 51 49  1  0
 51 56  1  0
 52 60  1  0
 52 62  1  0
 53 59  1  0
 53 55  1  0
 54 60  1  0
 55 56  2  0
 55 54  1  0
 57 51  2  0
 58 57  1  0
 58 53  2  0
 59 52  1  0
 60 50  1  0
 62 64  2  0
 63 62  1  0
 65 63  1  0
 66 75  2  0
 66 71  1  0
 67 63  1  0
 67 71  1  0
 68 67  1  0
 69 70  1  0
 69 68  1  0
 70 66  1  0
 71 72  2  0
 72 73  1  0
 74 73  2  0
 75 74  1  0
 76 50  1  0
 76 77  1  0
 76 86  1  0
 77 80  1  0
 78 82  1  0
 78 77  1  0
 79 78  2  0
 82 81  1  0
 84 82  1  0
 84 85  1  0
 84 83  1  0
 86 89  1  1
 86 87  1  0
 88 86  1  0
M  ISO  4   6 100  19 100  48 101  49 101
M  END
>  <TORSDO>  (13) 
F 17

>  <SCORE>  (13) 
-15.145

>  <name>  (13) 
12

>  <ligand_id>  (13) 
12

>  <original_smiles>  (13) 
[H]c1c([H])c([H])c2c(c1[H])C([H])([H])C([H])([H])C([H])([H])C2([H])N([H])C(=O)C1([H])N(C(=O)C([H])(N([H])C(=O)C([H])(N([H])C([H])([H])[H])C([H])([H])[H])C(C([H])([H])[H])(C([H])([H])[H])C([H])([H])[H])C([H])([H])c2c([H])c(OC([H])([H])c3nc([H])n(C4([H])C([H])([H])C([H])([H])N(C(=O)N5C([H])([H])C([H])([H])C([H])([H])C([H])(n6nc(-c7c([H])c([H])c(Oc8c([H])c([H])c(F)c([H])c8F)c([H])c7[H])c(C(=O)N([H])[H])c6N([H])[H])C5([H])[H])C([H])([H])C4([H])[H])c3[H])c([H])c([H])c2C1([H])[H]

>  <smiles>  (13) 
[H]c1c([H])c([H])c2c(c1[H])C([H])([H])C([H])([H])C([H])([H])C2([H])N([H])C(=O)C1([H])N(C(=O)C([H])(N([H])C(=O)C([H])(N([H])C([H])([H])[H])C([H])([H])[H])C(C([H])([H])[H])(C([H])([H])[H])C([H])([H])[H])C([H])([H])c2c([H])c(OC([H])([H])c3nc([H])n(C4([H])C([H])([H])C([H])([H])N(C(=O)N5C([H])([H])C([H])([H])C([H])([H])C([H])(n6nc(-c7c([H])c([H])c(Oc8c([H])c([H])c(F)c([H])c8F)c([H])c7[H])c(C(=O)N([H])[H])c6N([H])[H])C5([H])[H])C([H])([H])C4([H])[H])c3[H])c([H])c([H])c2C1([H])[H]

$$$$
13:0:0
     RDKit          3D

 95105  0  0  1  0  0  0  0  0999 V2000
  -29.8240  -22.5010   20.4640 C   0  0  0  0  0  0  0  0  0  0  0  0
  -30.3480  -21.6930   19.4270 C   0  0  0  0  0  0  0  0  0  0  0  0
  -29.7150  -21.8490   21.7130 C   0  0  0  0  0  0  0  0  0  0  0  0
  -30.6860  -19.9280   20.8840 C   0  0  0  0  0  0  0  0  0  0  0  0
  -30.5500  -17.7020   21.9330 C   0  0  0  0  0  2  0  0  0  0  0  0
  -31.4500  -17.7270   20.0540 C   0  0  0  0  0  2  0  0  0  0  0  0
  -31.4050  -16.6750   21.1750 C   0  0  0  0  0  3  0  0  0  0  0  0
  -30.4740  -22.1250   17.9820 C   0  0  0  0  0  1  0  0  0  0  0  0
  -29.1130  -22.5140   22.9380 C   0  0  0  0  0  1  0  0  0  0  0  0
  -30.7780  -20.4380   19.6640 N   0  0  0  0  0  0  0  0  0  0  0  0
  -30.1500  -20.5880   21.9000 N   0  0  0  0  0  0  0  0  0  0  0  0
  -31.3000  -18.6780   21.1510 N   0  0  0  0  0  0  0  0  0  0  0  0
  -31.2180  -14.4670   20.0490 C   0  0  0  0  0  0  0  0  0  0  0  0
  -30.7820  -12.2970   18.9560 C   0  0  0  0  0  2  0  0  0  0  0  0
  -29.7920  -12.4690   17.7880 C   0  0  0  0  0  2  0  0  0  0  0  0
  -28.3370  -12.3870   18.2890 C   0  0  0  0  0  2  0  0  0  0  0  0
  -28.0770  -13.2950   19.5190 C   0  0  0  0  0  3  0  0  0  0  0  0
  -29.1690  -13.0920   20.5930 C   0  0  0  0  0  2  0  0  0  0  0  0
  -30.4800  -13.3290   19.9610 N   0  0  0  0  0  0  0  0  0  0  0  0
  -32.2690  -14.6380   19.4260 O   0  0  0  0  0  0  0  0  0  0  0  0
  -30.7160  -15.4260   20.8410 N   0  0  0  0  0  0  0  0  0  0  0  0
  -29.8460  -15.2270   21.3090 H   0  0  0  0  0  0  0  0  0  0  0  0
  -25.7560  -14.0130   20.3710 C   0  0  0  0  0  0  0  0  0  0  0  0
  -24.6690  -13.2900   20.7830 C   0  0  0  0  0  0  0  0  0  0  0  0
  -25.0540  -11.9160   20.6980 C   0  0  0  0  0  0  0  0  0  0  0  0
  -26.7380  -13.0830   20.0650 N   0  0  0  0  0  0  0  0  0  0  0  0
  -26.3210  -11.8160   20.3170 N   0  0  0  0  0  0  0  0  0  0  0  0
  -24.2720  -10.6900   20.9030 C   0  0  0  0  0  0  0  0  0  0  0  0
  -24.6700   -9.7090   21.8370 C   0  0  0  0  0  3  0  0  0  0  0  0
  -23.8930   -8.5460   22.0300 C   0  0  0  0  0  3  0  0  0  0  0  0
  -22.7030   -8.3580   21.2870 C   0  0  0  0  0  0  0  0  0  0  0  0
  -22.3240   -9.3270   20.3410 C   0  0  0  0  0  3  0  0  0  0  0  0
  -23.1010  -10.4800   20.1480 C   0  0  0  0  0  3  0  0  0  0  0  0
  -21.8990   -7.2490   21.3880 O   0  0  0  0  0  0  0  0  0  0  0  0
  -21.7740   -6.5550   22.5650 C   0  0  0  0  0  0  0  0  0  0  0  0
  -21.2870   -7.1650   23.7420 C   0  0  0  0  0  3  0  0  0  0  0  0
  -21.1090   -6.3970   24.9110 C   0  0  0  0  0  3  0  0  0  0  0  0
  -21.4080   -5.0220   24.9030 C   0  0  0  0  0  0  0  0  0  0  0  0
  -21.8890   -4.4120   23.7310 C   0  0  0  0  0  3  0  0  0  0  0  0
  -22.0680   -5.1760   22.5640 C   0  0  0  0  0  0  0  0  0  0  0  0
  -22.5110   -4.5790   21.4320 F   0  0  0  0  0  0  0  0  0  0  0  0
  -21.2310   -4.2830   26.0230 F   0  0  0  0  0  0  0  0  0  0  0  0
  -23.3160  -13.8330   21.1440 C   0  0  0  0  0  0  0  0  0  0  0  0
  -22.6080  -13.1650   22.0480 N   0  0  0  0  0  0  0  0  0  0  0  0
  -22.9000  -14.8850   20.6610 O   0  0  0  0  0  0  0  0  0  0  0  0
  -22.9600  -12.3120   22.4600 H   0  0  0  0  0  0  0  0  0  0  0  0
  -21.7040  -13.5100   22.3330 H   0  0  0  0  0  0  0  0  0  0  0  0
  -25.9860  -15.3770   20.2130 N   0  0  0  0  0  0  0  0  0  0  0  0
  -25.2650  -16.0710   20.3770 H   0  0  0  0  0  0  0  0  0  0  0  0
  -26.8450  -15.7760   19.8520 H   0  0  0  0  0  0  0  0  0  0  0  0
  -29.9920  -25.0630   19.3930 C   0  0  0  0  0  2  0  0  0  0  0  0
  -28.0180  -24.3570   19.7540 C   0  0  0  0  0  2  0  0  0  0  0  0
  -29.3910  -23.9800   20.3200 C   0  0  0  0  0  3  0  0  0  0  0  0
  -28.5990  -25.6960   19.2560 C   0  0  0  0  0  3  0  0  0  0  0  0
  -28.4530  -26.8160   20.1360 O   0  0  0  0  0  0  0  0  0  0  0  0
  -24.6190  -31.8960   23.3070 C   0  0  0  0  0  0  0  0  0  0  0  0
  -27.2640  -27.5180   20.1280 C   0  0  0  0  0  0  0  0  0  0  0  0
  -23.4140  -30.5320   21.6330 C   0  0  0  0  0  3  0  0  0  0  0  0
  -24.8660  -29.0240   20.1790 C   0  0  0  0  0  0  0  0  0  0  0  0
  -25.9400  -30.8880   21.4510 C   0  0  0  0  0  2  0  0  0  0  0  0
  -26.0220  -29.5300   20.7840 C   0  0  0  0  0  0  0  0  0  0  0  0
  -27.2200  -28.7790   20.7650 C   0  0  0  0  0  3  0  0  0  0  0  0
  -26.0850  -27.0280   19.5180 C   0  0  0  0  0  3  0  0  0  0  0  0
  -24.8900  -27.7700   19.5480 C   0  0  0  0  0  3  0  0  0  0  0  0
  -23.6240  -29.8840   20.2400 C   0  0  0  0  0  2  0  0  0  0  0  0
  -24.6760  -31.1190   22.1880 N   0  0  0  0  0  0  0  0  0  0  0  0
  -23.5380  -32.1590   23.8500 O   0  0  0  0  0  0  0  0  0  0  0  0
  -22.7600  -29.4900   22.5690 C   0  0  0  0  0  0  0  0  0  0  0  0
  -21.4470  -29.2710   22.3940 N   0  0  0  0  0  0  0  0  0  0  0  0
  -23.4320  -28.8820   23.4070 O   0  0  0  0  0  0  0  0  0  0  0  0
  -20.9660  -29.8150   21.6920 H   0  0  0  0  0  0  0  0  0  0  0  0
  -18.1020  -27.9510   22.7350 C   0  0  0  0  0  0  0  0  0  0  0  0
  -20.6300  -28.3110   23.1350 C   0  0  0  0  0  3  0  0  0  0  0  0
  -20.8170  -26.8790   22.5840 C   0  0  0  0  0  2  0  0  0  0  0  0
  -19.7820  -26.5020   21.5180 C   0  0  0  0  0  2  0  0  0  0  0  0
  -18.3640  -26.6010   22.0890 C   0  0  0  0  0  2  0  0  0  0  0  0
  -19.1670  -28.7600   23.2130 C   0  0  0  0  0  0  0  0  0  0  0  0
  -18.8700  -30.0220   23.7730 C   0  0  0  0  0  3  0  0  0  0  0  0
  -17.5400  -30.4760   23.8630 C   0  0  0  0  0  3  0  0  0  0  0  0
  -16.4890  -29.6640   23.4050 C   0  0  0  0  0  3  0  0  0  0  0  0
  -16.7700  -28.4030   22.8460 C   0  0  0  0  0  3  0  0  0  0  0  0
  -25.9070  -32.5110   23.9410 C   0  0  0  0  0  3  0  0  0  0  0  0
  -26.3990  -31.7330   25.2240 C   0  0  1  0  0  0  0  0  0  0  0  0
  -25.2890  -31.5020   26.2750 C   0  0  0  0  0  1  0  0  0  0  0  0
  -26.9800  -30.3540   24.8380 C   0  0  0  0  0  1  0  0  0  0  0  0
  -27.5440  -32.5200   25.9060 C   0  0  0  0  0  1  0  0  0  0  0  0
  -25.6130  -33.9120   24.2640 N   0  0  0  0  0  0  0  0  0  0  0  0
  -25.9380  -34.9550   23.4870 C   0  0  0  0  0  0  0  0  0  0  0  0
  -26.5890  -34.8370   22.4450 O   0  0  0  0  0  0  0  0  0  0  0  0
  -25.0340  -34.0790   25.0730 H   0  0  0  0  0  0  0  0  0  0  0  0
  -24.1980  -36.7420   23.1630 C   0  0  0  0  0  1  0  0  0  0  0  0
  -25.4660  -36.3500   23.9390 C   0  0  0  0  0  3  0  0  0  0  0  0
  -27.6220  -37.2530   24.6920 C   0  0  0  0  0  1  0  0  0  0  0  0
  -26.4940  -37.4010   23.7760 N   0  0  0  0  0  0  0  0  0  0  0  0
  -26.0910  -38.3240   23.9170 H   0  0  0  0  0  0  0  0  0  0  0  0
  1  3  1  0
  2 10  1  0
  2  1  2  0
  3 11  2  0
  3  9  1  0
  4 12  1  0
  4 11  1  0
  6 12  1  0
  6  7  1  0
  7 21  1  0
  7  5  1  0
  8  2  1  0
 10  4  2  0
 12  5  1  0
 13 21  1  0
 14 19  1  0
 15 16  1  0
 15 14  1  0
 17 16  1  0
 17 26  1  0
 17 18  1  0
 19 13  1  0
 19 18  1  0
 20 13  2  0
 21 22  1  0
 23 24  2  0
 24 43  1  0
 25 24  1  0
 25 28  1  0
 26 27  1  0
 26 23  1  0
 27 25  2  0
 28 29  1  0
 29 30  2  0
 31 34  1  0
 31 30  1  0
 32 31  2  0
 33 32  1  0
 33 28  2  0
 34 35  1  0
 35 36  1  0
 36 37  2  0
 38 37  1  0
 38 42  1  0
 39 38  2  0
 40 35  2  0
 40 39  1  0
 41 40  1  0
 43 44  1  0
 44 47  1  0
 44 46  1  0
 45 43  2  0
 48 23  1  0
 48 49  1  0
 50 48  1  0
 51 53  1  0
 52 53  1  0
 53  1  1  0
 54 51  1  0
 54 52  1  0
 54 55  1  0
 56 67  2  0
 57 55  1  0
 57 62  1  0
 58 66  1  0
 58 68  1  0
 59 65  1  0
 59 61  1  0
 60 66  1  0
 61 60  1  0
 62 61  2  0
 63 64  1  0
 63 57  2  0
 64 59  2  0
 65 58  1  0
 66 56  1  0
 68 70  2  0
 69 68  1  0
 71 69  1  0
 72 81  2  0
 72 77  1  0
 73 69  1  0
 73 77  1  0
 74 73  1  0
 75 76  1  0
 75 74  1  0
 76 72  1  0
 77 78  2  0
 78 79  1  0
 80 79  2  0
 81 80  1  0
 82 56  1  0
 82 87  1  0
 82 83  1  0
 83 86  1  1
 83 84  1  0
 85 83  1  0
 87 90  1  0
 88 92  1  0
 88 87  1  0
 89 88  2  0
 92 91  1  0
 94 95  1  0
 94 92  1  0
 94 93  1  0
M  ISO  4  13 100  21 100  54 101  55 101
M  END
>  <TORSDO>  (14) 
F 17

>  <SCORE>  (14) 
-14.858

>  <name>  (14) 
13

>  <ligand_id>  (14) 
13

>  <original_smiles>  (14) 
[H]c1c([H])c([H])c2c(c1[H])C([H])([H])C([H])([H])C([H])([H])C2([H])N([H])C(=O)C1([H])N(C(=O)C([H])(N([H])C(=O)C([H])(N([H])C([H])([H])[H])C([H])([H])[H])C(C([H])([H])[H])(C([H])([H])[H])C([H])([H])[H])C([H])([H])c2c([H])c(OC3([H])C([H])([H])C([H])(c4c(C([H])([H])[H])nc(N5C([H])([H])C([H])(N([H])C(=O)N6C([H])([H])C([H])([H])C([H])([H])C([H])(n7nc(-c8c([H])c([H])c(Oc9c([H])c([H])c(F)c([H])c9F)c([H])c8[H])c(C(=O)N([H])[H])c7N([H])[H])C6([H])[H])C5([H])[H])nc4C([H])([H])[H])C3([H])[H])c([H])c([H])c2C1([H])[H]

>  <smiles>  (14) 
[H]c1c([H])c([H])c2c(c1[H])C([H])([H])C([H])([H])C([H])([H])C2([H])N([H])C(=O)C1([H])N(C(=O)C([H])(N([H])C(=O)C([H])(N([H])C([H])([H])[H])C([H])([H])[H])C(C([H])([H])[H])(C([H])([H])[H])C([H])([H])[H])C([H])([H])c2c([H])c(OC3([H])C([H])([H])C([H])(c4c(C([H])([H])[H])nc(N5C([H])([H])C([H])(N([H])C(=O)N6C([H])([H])C([H])([H])C([H])([H])C([H])(n7nc(-c8c([H])c([H])c(Oc9c([H])c([H])c(F)c([H])c9F)c([H])c8[H])c(C(=O)N([H])[H])c7N([H])[H])C6([H])[H])C5([H])[H])nc4C([H])([H])[H])C3([H])[H])c([H])c([H])c2C1([H])[H]

$$$$
14:0:0
     RDKit          3D

 96105  0  0  1  0  0  0  0  0999 V2000
  -29.4020  -21.2380   20.1000 C   0  0  0  0  0  3  0  0  0  0  0  0
  -30.0320  -20.1220   20.7200 C   0  0  0  0  0  0  0  0  0  0  0  0
  -31.1310  -22.5630   20.7640 C   0  0  0  0  0  0  0  0  0  0  0  0
  -29.9630  -22.4670   20.1150 N   0  0  0  0  0  0  0  0  0  0  0  0
  -31.2100  -20.3280   21.3720 N   0  0  0  0  0  0  0  0  0  0  0  0
  -31.7610  -21.5540   21.3940 N   0  0  0  0  0  0  0  0  0  0  0  0
  -30.6860  -14.4780   20.1700 C   0  0  0  0  0  0  0  0  0  0  0  0
  -30.2620  -12.3100   19.1010 C   0  0  0  0  0  2  0  0  0  0  0  0
  -29.2760  -12.4720   17.9330 C   0  0  0  0  0  2  0  0  0  0  0  0
  -27.8260  -12.3580   18.4370 C   0  0  0  0  0  2  0  0  0  0  0  0
  -27.5320  -13.2340   19.6860 C   0  0  0  0  0  3  0  0  0  0  0  0
  -28.6450  -13.1000   20.7530 C   0  0  0  0  0  2  0  0  0  0  0  0
  -29.9400  -13.3430   20.0990 N   0  0  0  0  0  0  0  0  0  0  0  0
  -31.8660  -14.5150   19.8100 O   0  0  0  0  0  0  0  0  0  0  0  0
  -28.2360  -17.0510   19.3780 C   0  0  0  0  0  2  0  0  0  0  0  0
  -28.4700  -18.5410   19.6640 C   0  0  0  0  0  2  0  0  0  0  0  0
  -29.5260  -16.2620   19.1170 C   0  0  0  0  0  2  0  0  0  0  0  0
  -29.8440  -17.8090   21.6930 C   0  0  0  0  0  2  0  0  0  0  0  0
  -30.7480  -16.6770   21.1530 C   0  0  0  0  0  2  0  0  0  0  0  0
  -29.5130  -18.8060   20.6600 N   0  0  0  0  0  0  0  0  0  0  0  0
  -30.0330  -15.6480   20.3610 N   0  0  0  0  0  0  0  0  0  0  0  0
  -25.1700  -13.8300   20.5180 C   0  0  0  0  0  0  0  0  0  0  0  0
  -24.1170  -13.0530   20.9220 C   0  0  0  0  0  0  0  0  0  0  0  0
  -24.5770  -11.7030   20.8550 C   0  0  0  0  0  0  0  0  0  0  0  0
  -26.2040  -12.9530   20.2320 N   0  0  0  0  0  0  0  0  0  0  0  0
  -25.8550  -11.6690   20.4980 N   0  0  0  0  0  0  0  0  0  0  0  0
  -23.8560  -10.4360   21.0500 C   0  0  0  0  0  0  0  0  0  0  0  0
  -24.3190   -9.4590   21.9580 C   0  0  0  0  0  3  0  0  0  0  0  0
  -23.5970   -8.2600   22.1500 C   0  0  0  0  0  3  0  0  0  0  0  0
  -22.4000   -8.0310   21.4320 C   0  0  0  0  0  0  0  0  0  0  0  0
  -21.9530   -8.9970   20.5130 C   0  0  0  0  0  3  0  0  0  0  0  0
  -22.6750  -10.1870   20.3200 C   0  0  0  0  0  3  0  0  0  0  0  0
  -21.6490   -6.8860   21.5350 O   0  0  0  0  0  0  0  0  0  0  0  0
  -21.6350   -6.1320   22.6810 C   0  0  0  0  0  0  0  0  0  0  0  0
  -21.2340   -6.6720   23.9230 C   0  0  0  0  0  3  0  0  0  0  0  0
  -21.1670   -5.8450   25.0620 C   0  0  0  0  0  3  0  0  0  0  0  0
  -21.4900   -4.4780   24.9600 C   0  0  0  0  0  0  0  0  0  0  0  0
  -21.8860   -3.9360   23.7250 C   0  0  0  0  0  3  0  0  0  0  0  0
  -21.9530   -4.7620   22.5870 C   0  0  0  0  0  0  0  0  0  0  0  0
  -22.3140   -4.2310   21.3930 F   0  0  0  0  0  0  0  0  0  0  0  0
  -21.4190   -3.6820   26.0520 F   0  0  0  0  0  0  0  0  0  0  0  0
  -22.7320  -13.5290   21.2550 C   0  0  0  0  0  0  0  0  0  0  0  0
  -22.0380  -12.8270   22.1430 N   0  0  0  0  0  0  0  0  0  0  0  0
  -22.2750  -14.5580   20.7630 O   0  0  0  0  0  0  0  0  0  0  0  0
  -22.4190  -11.9980   22.5770 H   0  0  0  0  0  0  0  0  0  0  0  0
  -21.1100  -13.1310   22.4010 H   0  0  0  0  0  0  0  0  0  0  0  0
  -25.3230  -15.2030   20.3540 N   0  0  0  0  0  0  0  0  0  0  0  0
  -24.5650  -15.8600   20.5080 H   0  0  0  0  0  0  0  0  0  0  0  0
  -26.1690  -15.6400   20.0090 H   0  0  0  0  0  0  0  0  0  0  0  0
  -31.8130  -23.9300   20.7660 C   0  0  0  0  0  2  0  0  0  0  0  0
  -30.9150  -25.0050   20.2890 N   0  0  0  0  0  4  0  0  0  0  0  0
  -30.2270  -24.5200   19.7270 H   0  0  0  0  0  0  0  0  0  0  0  0
  -31.4590  -25.6080   19.6960 H   0  0  0  0  0  0  0  0  0  0  0  0
  -30.2540  -25.7930   21.3630 C   0  0  0  0  0  2  0  0  0  0  0  0
  -29.5110  -27.0330   20.8460 C   0  0  0  0  0  2  0  0  0  0  0  0
  -28.3760  -26.6420   20.0650 O   0  0  0  0  0  0  0  0  0  0  0  0
  -24.5940  -31.8260   23.2050 C   0  0  0  0  0  0  0  0  0  0  0  0
  -27.2390  -27.4260   20.1090 C   0  0  0  0  0  0  0  0  0  0  0  0
  -23.3730  -30.4370   21.5590 C   0  0  0  0  0  3  0  0  0  0  0  0
  -24.8160  -28.8930   20.1320 C   0  0  0  0  0  0  0  0  0  0  0  0
  -25.8880  -30.8050   21.3400 C   0  0  0  0  0  2  0  0  0  0  0  0
  -25.9700  -29.4340   20.7060 C   0  0  0  0  0  0  0  0  0  0  0  0
  -27.1810  -28.7190   20.6830 C   0  0  0  0  0  3  0  0  0  0  0  0
  -26.0640  -26.8920   19.5340 C   0  0  0  0  0  3  0  0  0  0  0  0
  -24.8560  -27.6180   19.5390 C   0  0  0  0  0  3  0  0  0  0  0  0
  -23.5710  -29.7480   20.1810 C   0  0  0  0  0  2  0  0  0  0  0  0
  -24.6370  -31.0360   22.0960 N   0  0  0  0  0  0  0  0  0  0  0  0
  -23.5150  -32.0950   23.7570 O   0  0  0  0  0  0  0  0  0  0  0  0
  -22.7260  -29.4130   22.5200 C   0  0  0  0  0  0  0  0  0  0  0  0
  -21.3990  -29.2420   22.4010 N   0  0  0  0  0  0  0  0  0  0  0  0
  -23.4130  -28.7760   23.3230 O   0  0  0  0  0  0  0  0  0  0  0  0
  -20.9040  -29.8140   21.7300 H   0  0  0  0  0  0  0  0  0  0  0  0
  -18.0220  -28.0930   22.9280 C   0  0  0  0  0  0  0  0  0  0  0  0
  -20.5850  -28.3060   23.1710 C   0  0  0  0  0  3  0  0  0  0  0  0
  -20.6550  -26.8800   22.5750 C   0  0  0  0  0  2  0  0  0  0  0  0
  -19.5360  -26.5890   21.5700 C   0  0  0  0  0  2  0  0  0  0  0  0
  -18.1670  -26.7490   22.2350 C   0  0  0  0  0  2  0  0  0  0  0  0
  -19.1570  -28.8300   23.3550 C   0  0  0  0  0  0  0  0  0  0  0  0
  -18.9640  -30.0910   23.9640 C   0  0  0  0  0  3  0  0  0  0  0  0
  -17.6680  -30.6130   24.1440 C   0  0  0  0  0  3  0  0  0  0  0  0
  -16.5480  -29.8700   23.7340 C   0  0  0  0  0  3  0  0  0  0  0  0
  -16.7270  -28.6100   23.1340 C   0  0  0  0  0  3  0  0  0  0  0  0
  -25.8880  -32.4480   23.8220 C   0  0  0  0  0  3  0  0  0  0  0  0
  -26.4140  -31.6630   25.0860 C   0  0  1  0  0  0  0  0  0  0  0  0
  -25.3290  -31.4060   26.1570 C   0  0  0  0  0  1  0  0  0  0  0  0
  -26.9980  -30.2950   24.6660 C   0  0  0  0  0  1  0  0  0  0  0  0
  -27.5630  -32.4540   25.7590 C   0  0  0  0  0  1  0  0  0  0  0  0
  -25.5870  -33.8420   24.1640 N   0  0  0  0  0  0  0  0  0  0  0  0
  -25.9230  -34.8980   23.4110 C   0  0  0  0  0  0  0  0  0  0  0  0
  -26.5890  -34.7990   22.3770 O   0  0  0  0  0  0  0  0  0  0  0  0
  -25.0020  -33.9940   24.9720 H   0  0  0  0  0  0  0  0  0  0  0  0
  -24.2050  -36.7030   23.0680 C   0  0  0  0  0  1  0  0  0  0  0  0
  -25.4430  -36.2840   23.8790 C   0  0  0  0  0  3  0  0  0  0  0  0
  -27.5790  -37.1560   24.7230 C   0  0  0  0  0  1  0  0  0  0  0  0
  -26.4820  -37.3330   23.7760 N   0  0  0  0  0  0  0  0  0  0  0  0
  -26.0770  -38.2530   23.9260 H   0  0  0  0  0  0  0  0  0  0  0  0
  1  4  1  0
  1  2  2  0
  2  5  1  0
  3 50  1  0
  3  6  1  0
  4  3  2  0
  5  6  2  0
  7 21  1  0
  8 13  1  0
  9 10  1  0
  9  8  1  0
 11 10  1  0
 11 25  1  0
 11 12  1  0
 13  7  1  0
 13 12  1  0
 14  7  2  0
 15 16  1  0
 16 20  1  0
 17 15  1  0
 17 21  1  0
 19 18  1  0
 20  2  1  0
 20 18  1  0
 21 19  1  0
 22 23  2  0
 23 42  1  0
 24 23  1  0
 24 27  1  0
 25 26  1  0
 25 22  1  0
 26 24  2  0
 27 28  1  0
 28 29  2  0
 30 33  1  0
 30 29  1  0
 31 30  2  0
 32 31  1  0
 32 27  2  0
 33 34  1  0
 34 35  1  0
 35 36  2  0
 37 36  1  0
 37 41  1  0
 38 37  2  0
 39 34  2  0
 39 38  1  0
 40 39  1  0
 42 43  1  0
 43 46  1  0
 43 45  1  0
 44 42  2  0
 47 48  1  0
 47 22  1  0
 49 47  1  0
 51 50  1  0
 51 54  1  0
 52 51  1  0
 53 51  1  0
 55 54  1  0
 56 58  1  0
 56 55  1  0
 57 68  2  0
 58 63  1  0
 59 67  1  0
 59 69  1  0
 60 66  1  0
 60 62  1  0
 61 67  1  0
 62 61  1  0
 63 62  2  0
 64 65  1  0
 64 58  2  0
 65 60  2  0
 66 59  1  0
 67 57  1  0
 69 71  2  0
 70 69  1  0
 72 70  1  0
 73 82  2  0
 73 78  1  0
 74 70  1  0
 74 78  1  0
 75 74  1  0
 76 77  1  0
 76 75  1  0
 77 73  1  0
 78 79  2  0
 79 80  1  0
 81 80  2  0
 82 81  1  0
 83 57  1  0
 83 88  1  0
 83 84  1  0
 84 87  1  1
 84 85  1  0
 86 84  1  0
 88 91  1  0
 89 93  1  0
 89 88  1  0
 90 89  2  0
 93 92  1  0
 95 93  1  0
 95 96  1  0
 95 94  1  0
M  ISO  4   7 100  21 100  55 101  56 101
M  END
>  <TORSDO>  (15) 
F 20

>  <SCORE>  (15) 
-13.827

>  <name>  (15) 
14

>  <ligand_id>  (15) 
14

>  <original_smiles>  (15) 
[H]c1nc(C([H])([H])[N+]([H])([H])C([H])([H])C([H])([H])Oc2c([H])c([H])c3c(c2[H])C([H])([H])N(C(=O)C([H])(N([H])C(=O)C([H])(N([H])C([H])([H])[H])C([H])([H])[H])C(C([H])([H])[H])(C([H])([H])[H])C([H])([H])[H])C([H])(C(=O)N([H])C2([H])c4c([H])c([H])c([H])c([H])c4C([H])([H])C([H])([H])C2([H])[H])C3([H])[H])nnc1N1C([H])([H])C([H])([H])N(C(=O)N2C([H])([H])C([H])([H])C([H])([H])C([H])(n3nc(-c4c([H])c([H])c(Oc5c([H])c([H])c(F)c([H])c5F)c([H])c4[H])c(C(=O)N([H])[H])c3N([H])[H])C2([H])[H])C([H])([H])C([H])([H])C1([H])[H]

>  <smiles>  (15) 
[H]c1nc(C([H])([H])[N+]([H])([H])C([H])([H])C([H])([H])Oc2c([H])c([H])c3c(c2[H])C([H])([H])N(C(=O)C([H])(N([H])C(=O)C([H])(N([H])C([H])([H])[H])C([H])([H])[H])C(C([H])([H])[H])(C([H])([H])[H])C([H])([H])[H])C([H])(C(=O)N([H])C2([H])c4c([H])c([H])c([H])c([H])c4C([H])([H])C([H])([H])C2([H])[H])C3([H])[H])nnc1N1C([H])([H])C([H])([H])N(C(=O)N2C([H])([H])C([H])([H])C([H])([H])C([H])(n3nc(-c4c([H])c([H])c(Oc5c([H])c([H])c(F)c([H])c5F)c([H])c4[H])c(C(=O)N([H])[H])c3N([H])[H])C2([H])[H])C([H])([H])C([H])([H])C1([H])[H]

$$$$
15:0:0
     RDKit          3D

 89 98  0  0  1  0  0  0  0  0999 V2000
  -27.5320  -23.3230   19.1680 C   0  0  0  0  0  2  0  0  0  0  0  0
  -27.6770  -21.7250   19.4370 C   0  0  0  0  0  2  0  0  0  0  0  0
  -29.1730  -22.9240   20.7200 C   0  0  0  0  0  2  0  0  0  0  0  0
  -28.0570  -24.2210   20.3400 C   0  0  0  0  0  3  0  0  0  0  0  0
  -28.6910  -21.3830   20.4950 N   0  0  2  0  0  4  0  0  0  0  0  0
  -28.1290  -21.2270   21.3200 H   0  0  0  0  0  0  0  0  0  0  0  0
  -30.5790  -15.6070   20.6600 C   0  0  0  0  0  0  0  0  0  0  0  0
  -30.6420  -13.1230   19.8280 C   0  0  0  0  0  2  0  0  0  0  0  0
  -29.8190  -12.7780   18.5610 C   0  0  0  0  0  2  0  0  0  0  0  0
  -28.3650  -12.4550   18.9320 C   0  0  0  0  0  2  0  0  0  0  0  0
  -27.8000  -13.4580   19.9680 C   0  0  0  0  0  3  0  0  0  0  0  0
  -28.7680  -13.7470   21.1370 C   0  0  0  0  0  2  0  0  0  0  0  0
  -29.9930  -14.3030   20.5300 N   0  0  0  0  0  0  0  0  0  0  0  0
  -31.8180  -15.5070   20.6270 O   0  0  0  0  0  0  0  0  0  0  0  0
  -29.8820  -19.2610   19.0510 C   0  0  0  0  0  2  0  0  0  0  0  0
  -29.2930  -18.2890   21.0510 C   0  0  0  0  0  2  0  0  0  0  0  0
  -29.5670  -19.9100   20.4170 C   0  0  0  0  0  3  0  0  0  0  0  0
  -30.5600  -17.8150   19.2480 C   0  0  0  0  0  3  0  0  0  0  0  0
  -30.6440  -17.0730   17.8990 C   0  0  0  0  0  1  0  0  0  0  0  0
  -29.9580  -16.9620   20.3370 N   0  0  0  0  0  0  0  0  0  0  0  0
  -25.3840  -13.9650   20.5800 C   0  0  0  0  0  0  0  0  0  0  0  0
  -24.3190  -13.1690   20.8900 C   0  0  0  0  0  0  0  0  0  0  0  0
  -24.8170  -11.8290   20.9100 C   0  0  0  0  0  0  0  0  0  0  0  0
  -26.4580  -13.1110   20.4130 N   0  0  0  0  0  0  0  0  0  0  0  0
  -26.1270  -11.8210   20.6830 N   0  0  0  0  0  0  0  0  0  0  0  0
  -24.1050  -10.5540   21.0710 C   0  0  0  0  0  0  0  0  0  0  0  0
  -24.4800   -9.6170   22.0600 C   0  0  0  0  0  3  0  0  0  0  0  0
  -23.7640   -8.4100   22.2090 C   0  0  0  0  0  3  0  0  0  0  0  0
  -22.6600   -8.1300   21.3690 C   0  0  0  0  0  0  0  0  0  0  0  0
  -22.3050   -9.0550   20.3720 C   0  0  0  0  0  3  0  0  0  0  0  0
  -23.0220  -10.2530   20.2210 C   0  0  0  0  0  3  0  0  0  0  0  0
  -21.9240   -6.9700   21.4240 O   0  0  0  0  0  0  0  0  0  0  0  0
  -21.7690   -6.2720   22.5950 C   0  0  0  0  0  0  0  0  0  0  0  0
  -21.1750   -6.8520   23.7360 C   0  0  0  0  0  3  0  0  0  0  0  0
  -20.9710   -6.0770   24.8950 C   0  0  0  0  0  3  0  0  0  0  0  0
  -21.3500   -4.7220   24.9130 C   0  0  0  0  0  0  0  0  0  0  0  0
  -21.9350   -4.1400   23.7740 C   0  0  0  0  0  3  0  0  0  0  0  0
  -22.1400   -4.9130   22.6170 C   0  0  0  0  0  0  0  0  0  0  0  0
  -22.6850   -4.3410   21.5170 F   0  0  0  0  0  0  0  0  0  0  0  0
  -21.1470   -3.9750   26.0230 F   0  0  0  0  0  0  0  0  0  0  0  0
  -22.8970  -13.6190   21.0550 C   0  0  0  0  0  0  0  0  0  0  0  0
  -22.1320  -12.9310   21.8950 N   0  0  0  0  0  0  0  0  0  0  0  0
  -22.4720  -14.6180   20.4750 O   0  0  0  0  0  0  0  0  0  0  0  0
  -22.4870  -12.1250   22.3860 H   0  0  0  0  0  0  0  0  0  0  0  0
  -21.1740  -13.2150   22.0480 H   0  0  0  0  0  0  0  0  0  0  0  0
  -25.5300  -15.3370   20.3940 N   0  0  0  0  0  0  0  0  0  0  0  0
  -24.7460  -15.9780   20.4500 H   0  0  0  0  0  0  0  0  0  0  0  0
  -26.3940  -15.7900   20.1230 H   0  0  0  0  0  0  0  0  0  0  0  0
  -28.1930  -25.9030   20.1840 O   0  0  0  0  0  0  0  0  0  0  0  0
  -24.6320  -31.9430   23.1950 C   0  0  0  0  0  0  0  0  0  0  0  0
  -27.1640  -27.0120   20.1660 C   0  0  0  0  0  0  0  0  0  0  0  0
  -23.4210  -30.5310   21.5840 C   0  0  0  0  0  3  0  0  0  0  0  0
  -24.8560  -28.9180   20.1470 C   0  0  0  0  0  0  0  0  0  0  0  0
  -25.9880  -30.7420   21.3970 C   0  0  0  0  0  2  0  0  0  0  0  0
  -26.0550  -29.3230   20.7460 C   0  0  0  0  0  0  0  0  0  0  0  0
  -27.2010  -28.3960   20.7230 C   0  0  0  0  0  3  0  0  0  0  0  0
  -25.9270  -26.7730   19.5220 C   0  0  0  0  0  3  0  0  0  0  0  0
  -24.8190  -27.6650   19.5150 C   0  0  0  0  0  3  0  0  0  0  0  0
  -23.6350  -29.8400   20.2090 C   0  0  0  0  0  2  0  0  0  0  0  0
  -24.7040  -31.1010   22.1130 N   0  0  0  0  0  0  0  0  0  0  0  0
  -23.5490  -32.2280   23.7320 O   0  0  0  0  0  0  0  0  0  0  0  0
  -22.7470  -29.5380   22.5680 C   0  0  0  0  0  0  0  0  0  0  0  0
  -21.4200  -29.3430   22.4520 N   0  0  0  0  0  0  0  0  0  0  0  0
  -23.4280  -28.9410   23.4070 O   0  0  0  0  0  0  0  0  0  0  0  0
  -20.9230  -29.8770   21.7520 H   0  0  0  0  0  0  0  0  0  0  0  0
  -18.0690  -28.0510   22.9850 C   0  0  0  0  0  0  0  0  0  0  0  0
  -20.6210  -28.3970   23.2400 C   0  0  0  0  0  3  0  0  0  0  0  0
  -20.7630  -26.9580   22.6910 C   0  0  0  0  0  2  0  0  0  0  0  0
  -19.6700  -26.5850   21.6840 C   0  0  0  0  0  2  0  0  0  0  0  0
  -18.2850  -26.6980   22.3270 C   0  0  0  0  0  2  0  0  0  0  0  0
  -19.1660  -28.8560   23.3980 C   0  0  0  0  0  0  0  0  0  0  0  0
  -18.9070  -30.1160   23.9780 C   0  0  0  0  0  3  0  0  0  0  0  0
  -17.5870  -30.5770   24.1440 C   0  0  0  0  0  3  0  0  0  0  0  0
  -16.5070  -29.7710   23.7440 C   0  0  0  0  0  3  0  0  0  0  0  0
  -16.7480  -28.5100   23.1710 C   0  0  0  0  0  3  0  0  0  0  0  0
  -25.9060  -32.6020   23.8050 C   0  0  0  0  0  3  0  0  0  0  0  0
  -25.5780  -34.0000   24.1470 N   0  0  0  0  0  0  0  0  0  0  0  0
  -25.9030  -35.0680   23.4080 C   0  0  0  0  0  0  0  0  0  0  0  0
  -26.5710  -34.9840   22.3740 O   0  0  0  0  0  0  0  0  0  0  0  0
  -24.9850  -34.1380   24.9510 H   0  0  0  0  0  0  0  0  0  0  0  0
  -24.1800  -36.8760   23.0760 C   0  0  0  0  0  1  0  0  0  0  0  0
  -25.4130  -36.4500   23.8900 C   0  0  0  0  0  3  0  0  0  0  0  0
  -27.5360  -37.3240   24.7650 C   0  0  0  0  0  1  0  0  0  0  0  0
  -26.4470  -37.5050   23.8080 N   0  0  0  0  0  0  0  0  0  0  0  0
  -26.0390  -38.4230   23.9620 H   0  0  0  0  0  0  0  0  0  0  0  0
  -26.4410  -31.8470   25.0840 C   0  0  1  0  0  0  0  0  0  0  0  0
  -25.3620  -31.6090   26.1670 C   0  0  0  0  0  1  0  0  0  0  0  0
  -27.0350  -30.4710   24.7080 C   0  0  0  0  0  1  0  0  0  0  0  0
  -27.5910  -32.6590   25.7290 C   0  0  0  0  0  1  0  0  0  0  0  0
  1  2  1  0
  1  4  1  0
  2  5  1  0
  4 49  1  0
  4  3  1  0
  5  3  1  0
  5  6  1  1
  8 13  1  0
  9 10  1  0
  9  8  1  0
 11 10  1  0
 11 24  1  0
 11 12  1  0
 13  7  1  0
 13 12  1  0
 14  7  2  0
 15 18  1  0
 17 15  1  0
 17  5  1  0
 17 16  1  0
 18 19  1  0
 18 20  1  0
 20  7  1  0
 20 16  1  0
 21 22  2  0
 22 23  1  0
 22 41  1  0
 23 26  1  0
 24 21  1  0
 24 25  1  0
 25 23  2  0
 26 27  1  0
 27 28  2  0
 29 32  1  0
 29 28  1  0
 30 29  2  0
 31 30  1  0
 31 26  2  0
 32 33  1  0
 33 38  2  0
 33 34  1  0
 34 35  2  0
 35 36  1  0
 36 40  1  0
 37 36  2  0
 38 37  1  0
 39 38  1  0
 41 42  1  0
 42 45  1  0
 42 44  1  0
 43 41  2  0
 46 47  1  0
 46 21  1  0
 48 46  1  0
 50 61  2  0
 51 49  1  0
 51 56  1  0
 52 60  1  0
 52 62  1  0
 53 59  1  0
 53 55  1  0
 54 60  1  0
 55 54  1  0
 56 55  2  0
 57 51  2  0
 58 57  1  0
 58 53  2  0
 59 52  1  0
 60 50  1  0
 62 64  2  0
 63 62  1  0
 65 63  1  0
 66 75  2  0
 66 71  1  0
 67 63  1  0
 67 71  1  0
 68 67  1  0
 69 70  1  0
 69 68  1  0
 70 66  1  0
 71 72  2  0
 72 73  1  0
 74 73  2  0
 75 74  1  0
 76 50  1  0
 76 77  1  0
 76 86  1  0
 77 80  1  0
 78 82  1  0
 78 77  1  0
 79 78  2  0
 82 81  1  0
 84 82  1  0
 84 85  1  0
 84 83  1  0
 86 89  1  1
 86 87  1  0
 88 86  1  0
M  ISO  4   4 101   7 100  20 100  49 101
M  END
>  <TORSDO>  (16) 
F 16

>  <SCORE>  (16) 
-16.070

>  <name>  (16) 
15

>  <ligand_id>  (16) 
15

>  <original_smiles>  (16) 
[H]c1c([H])c([H])c2c(c1[H])C([H])([H])C([H])([H])C([H])([H])C2([H])N([H])C(=O)C1([H])N(C(=O)C([H])(N([H])C(=O)C([H])(N([H])C([H])([H])[H])C([H])([H])[H])C(C([H])([H])[H])(C([H])([H])[H])C([H])([H])[H])C([H])([H])c2c([H])c(OC3([H])C([H])([H])C([H])([H])[N+]([H])(C4([H])C([H])([H])N(C(=O)N5C([H])([H])C([H])([H])C([H])([H])C([H])(n6nc(-c7c([H])c([H])c(Oc8c([H])c([H])c(F)c([H])c8F)c([H])c7[H])c(C(=O)N([H])[H])c6N([H])[H])C5([H])[H])C([H])(C([H])([H])[H])C4([H])[H])C3([H])[H])c([H])c([H])c2C1([H])[H]

>  <smiles>  (16) 
[H]c1c([H])c([H])c2c(c1[H])C([H])([H])C([H])([H])C([H])([H])C2([H])N([H])C(=O)C1([H])N(C(=O)C([H])(N([H])C(=O)C([H])(N([H])C([H])([H])[H])C([H])([H])[H])C(C([H])([H])[H])(C([H])([H])[H])C([H])([H])[H])C([H])([H])c2c([H])c(OC3([H])C([H])([H])C([H])([H])[N+]([H])(C4([H])C([H])([H])N(C(=O)N5C([H])([H])C([H])([H])C([H])([H])C([H])(n6nc(-c7c([H])c([H])c(Oc8c([H])c([H])c(F)c([H])c8F)c([H])c7[H])c(C(=O)N([H])[H])c6N([H])[H])C5([H])[H])C([H])(C([H])([H])[H])C4([H])[H])C3([H])[H])c([H])c([H])c2C1([H])[H]

$$$$
16:0:0
     RDKit          3D

 90 99  0  0  1  0  0  0  0  0999 V2000
  -30.4490  -23.4200   20.6530 C   0  0  0  0  0  2  0  0  0  0  0  0
  -30.6860  -21.8840   20.8830 C   0  0  0  0  0  2  0  0  0  0  0  0
  -28.5860  -22.2140   19.8660 C   0  0  0  0  0  2  0  0  0  0  0  0
  -28.9280  -23.6280   20.4980 C   0  0  0  0  0  3  0  0  0  0  0  0
  -29.4690  -21.1340   20.4630 N   0  0  1  0  0  4  0  0  0  0  0  0
  -29.0040  -20.8610   21.3150 H   0  0  0  0  0  0  0  0  0  0  0  0
  -29.6610  -19.8330   19.6560 C   0  0  0  0  0  2  0  0  0  0  0  0
  -30.9000  -14.6890   20.0110 C   0  0  0  0  0  0  0  0  0  0  0  0
  -30.5710  -12.4590   18.9320 C   0  0  0  0  0  2  0  0  0  0  0  0
  -29.5660  -12.5870   17.7700 C   0  0  0  0  0  2  0  0  0  0  0  0
  -28.1190  -12.4270   18.2780 C   0  0  0  0  0  2  0  0  0  0  0  0
  -27.8350  -13.2720   19.5500 C   0  0  0  0  0  3  0  0  0  0  0  0
  -28.9600  -13.1170   20.5960 C   0  0  0  0  0  2  0  0  0  0  0  0
  -30.2190  -13.4910   19.9390 N   0  0  0  0  0  0  0  0  0  0  0  0
  -32.0430  -14.7540   19.5460 O   0  0  0  0  0  0  0  0  0  0  0  0
  -29.2580  -17.8140   21.4060 C   0  0  0  0  0  2  0  0  0  0  0  0
  -29.7310  -16.3400   21.5450 C   0  0  0  0  0  2  0  0  0  0  0  0
  -30.4110  -17.1600   19.4570 C   0  0  0  0  0  2  0  0  0  0  0  0
  -30.1690  -18.4560   20.3570 C   0  0  0  0  0  3  0  0  0  0  0  0
  -30.2010  -15.8760   20.2290 N   0  0  0  0  0  0  0  0  0  0  0  0
  -25.5030  -13.8790   20.4390 C   0  0  0  0  0  0  0  0  0  0  0  0
  -24.4470  -13.1120   20.8530 C   0  0  0  0  0  0  0  0  0  0  0  0
  -24.8810  -11.7550   20.7440 C   0  0  0  0  0  0  0  0  0  0  0  0
  -26.5150  -12.9920   20.1110 N   0  0  0  0  0  0  0  0  0  0  0  0
  -26.1490  -11.7050   20.3520 N   0  0  0  0  0  0  0  0  0  0  0  0
  -24.1430  -10.4980   20.9350 C   0  0  0  0  0  0  0  0  0  0  0  0
  -24.5830   -9.5140   21.8470 C   0  0  0  0  0  3  0  0  0  0  0  0
  -23.8460   -8.3230   22.0300 C   0  0  0  0  0  3  0  0  0  0  0  0
  -22.6530   -8.1070   21.3020 C   0  0  0  0  0  0  0  0  0  0  0  0
  -22.2280   -9.0820   20.3800 C   0  0  0  0  0  3  0  0  0  0  0  0
  -22.9660  -10.2630   20.1940 C   0  0  0  0  0  3  0  0  0  0  0  0
  -21.8870   -6.9710   21.3930 O   0  0  0  0  0  0  0  0  0  0  0  0
  -21.8060   -6.2460   22.5550 C   0  0  0  0  0  0  0  0  0  0  0  0
  -21.3630   -6.8250   23.7670 C   0  0  0  0  0  3  0  0  0  0  0  0
  -21.2350   -6.0290   24.9210 C   0  0  0  0  0  3  0  0  0  0  0  0
  -21.5370   -4.6560   24.8670 C   0  0  0  0  0  0  0  0  0  0  0  0
  -21.9710   -4.0760   23.6610 C   0  0  0  0  0  3  0  0  0  0  0  0
  -22.1040   -4.8700   22.5090 C   0  0  0  0  0  0  0  0  0  0  0  0
  -22.5010   -4.3040   21.3440 F   0  0  0  0  0  0  0  0  0  0  0  0
  -21.4070   -3.8900   25.9730 F   0  0  0  0  0  0  0  0  0  0  0  0
  -23.0780  -13.6020   21.2300 C   0  0  0  0  0  0  0  0  0  0  0  0
  -22.3940  -12.8950   22.1200 N   0  0  0  0  0  0  0  0  0  0  0  0
  -22.6260  -14.6500   20.7700 O   0  0  0  0  0  0  0  0  0  0  0  0
  -22.7640  -12.0440   22.5190 H   0  0  0  0  0  0  0  0  0  0  0  0
  -21.4770  -13.2040   22.4120 H   0  0  0  0  0  0  0  0  0  0  0  0
  -25.6800  -15.2520   20.2910 N   0  0  0  0  0  0  0  0  0  0  0  0
  -24.9300  -15.9170   20.4520 H   0  0  0  0  0  0  0  0  0  0  0  0
  -26.5230  -15.6810   19.9310 H   0  0  0  0  0  0  0  0  0  0  0  0
  -28.3540  -24.9330   19.7190 C   0  0  0  0  0  2  0  0  0  0  0  0
  -28.3850  -26.3570   20.2050 O   0  0  0  0  0  0  0  0  0  0  0  0
  -24.6280  -31.8200   23.1140 C   0  0  0  0  0  0  0  0  0  0  0  0
  -27.2640  -27.2230   20.0920 C   0  0  0  0  0  0  0  0  0  0  0  0
  -23.4300  -30.4120   21.4770 C   0  0  0  0  0  3  0  0  0  0  0  0
  -24.8910  -28.8600   20.0540 C   0  0  0  0  0  0  0  0  0  0  0  0
  -25.9720  -30.7270   21.3000 C   0  0  0  0  0  2  0  0  0  0  0  0
  -26.0570  -29.3430   20.6640 C   0  0  0  0  0  0  0  0  0  0  0  0
  -27.2370  -28.5340   20.6790 C   0  0  0  0  0  3  0  0  0  0  0  0
  -26.0790  -26.8250   19.4230 C   0  0  0  0  0  3  0  0  0  0  0  0
  -24.9070  -27.6100   19.4250 C   0  0  0  0  0  3  0  0  0  0  0  0
  -23.6490  -29.7310   20.0990 C   0  0  0  0  0  2  0  0  0  0  0  0
  -24.6950  -31.0050   22.0190 N   0  0  0  0  0  0  0  0  0  0  0  0
  -23.5430  -32.1030   23.6400 O   0  0  0  0  0  0  0  0  0  0  0  0
  -22.7680  -29.3990   22.4410 C   0  0  0  0  0  0  0  0  0  0  0  0
  -21.4370  -29.2460   22.3360 N   0  0  0  0  0  0  0  0  0  0  0  0
  -23.4490  -28.7550   23.2440 O   0  0  0  0  0  0  0  0  0  0  0  0
  -20.9520  -29.8220   21.6630 H   0  0  0  0  0  0  0  0  0  0  0  0
  -18.0380  -28.1320   22.9050 C   0  0  0  0  0  0  0  0  0  0  0  0
  -20.6100  -28.3180   23.1100 C   0  0  0  0  0  3  0  0  0  0  0  0
  -20.6560  -26.8950   22.5070 C   0  0  0  0  0  2  0  0  0  0  0  0
  -19.5190  -26.6200   21.5180 C   0  0  0  0  0  2  0  0  0  0  0  0
  -18.1590  -26.7900   22.2020 C   0  0  0  0  0  2  0  0  0  0  0  0
  -19.1890  -28.8560   23.3160 C   0  0  0  0  0  0  0  0  0  0  0  0
  -19.0200  -30.1120   23.9360 C   0  0  0  0  0  3  0  0  0  0  0  0
  -17.7350  -30.6450   24.1480 C   0  0  0  0  0  3  0  0  0  0  0  0
  -16.5990  -29.9170   23.7510 C   0  0  0  0  0  3  0  0  0  0  0  0
  -16.7520  -28.6620   23.1350 C   0  0  0  0  0  3  0  0  0  0  0  0
  -25.9090  -32.4520   23.7400 C   0  0  0  0  0  3  0  0  0  0  0  0
  -25.5890  -33.8430   24.0910 N   0  0  0  0  0  0  0  0  0  0  0  0
  -25.9130  -34.9100   23.3470 C   0  0  0  0  0  0  0  0  0  0  0  0
  -26.5810  -34.8270   22.3140 O   0  0  0  0  0  0  0  0  0  0  0  0
  -24.9860  -33.9810   24.8890 H   0  0  0  0  0  0  0  0  0  0  0  0
  -24.1730  -36.6990   23.0240 C   0  0  0  0  0  1  0  0  0  0  0  0
  -25.4170  -36.2880   23.8270 C   0  0  0  0  0  3  0  0  0  0  0  0
  -27.5490  -37.1720   24.6680 C   0  0  0  0  0  1  0  0  0  0  0  0
  -26.4440  -37.3490   23.7290 N   0  0  0  0  0  0  0  0  0  0  0  0
  -26.0330  -38.2640   23.8920 H   0  0  0  0  0  0  0  0  0  0  0  0
  -26.4370  -31.6650   25.0040 C   0  0  1  0  0  0  0  0  0  0  0  0
  -25.3500  -31.4120   26.0750 C   0  0  0  0  0  1  0  0  0  0  0  0
  -27.0240  -30.2940   24.5910 C   0  0  0  0  0  1  0  0  0  0  0  0
  -27.5860  -32.4600   25.6680 C   0  0  0  0  0  1  0  0  0  0  0  0
  1  2  1  0
  3  5  1  0
  3  4  1  0
  4 49  1  0
  4  1  1  0
  5  2  1  0
  5  6  1  1
  7  5  1  0
  8 20  1  0
  9 14  1  0
 10 11  1  0
 10  9  1  0
 12 11  1  0
 12 24  1  0
 12 13  1  0
 14  8  1  0
 14 13  1  0
 15  8  2  0
 16 17  1  0
 18 20  1  0
 18 19  1  0
 19  7  1  0
 19 16  1  0
 20 17  1  0
 21 22  2  0
 22 41  1  0
 23 22  1  0
 23 26  1  0
 24 25  1  0
 24 21  1  0
 25 23  2  0
 26 27  1  0
 27 28  2  0
 29 32  1  0
 29 28  1  0
 30 29  2  0
 31 30  1  0
 31 26  2  0
 32 33  1  0
 33 34  1  0
 34 35  2  0
 36 35  1  0
 36 40  1  0
 37 36  2  0
 38 33  2  0
 38 37  1  0
 39 38  1  0
 41 42  1  0
 42 45  1  0
 42 44  1  0
 43 41  2  0
 46 21  1  0
 46 47  1  0
 48 46  1  0
 49 50  1  0
 51 62  2  0
 52 50  1  0
 52 57  1  0
 53 61  1  0
 53 63  1  0
 54 60  1  0
 54 56  1  0
 55 61  1  0
 56 57  2  0
 56 55  1  0
 58 59  1  0
 58 52  2  0
 59 54  2  0
 60 53  1  0
 61 51  1  0
 63 65  2  0
 64 63  1  0
 66 64  1  0
 67 76  2  0
 67 72  1  0
 68 64  1  0
 68 72  1  0
 69 68  1  0
 70 71  1  0
 70 69  1  0
 71 67  1  0
 72 73  2  0
 73 74  1  0
 75 74  2  0
 76 75  1  0
 77 51  1  0
 77 78  1  0
 77 87  1  0
 78 81  1  0
 79 83  1  0
 79 78  1  0
 80 79  2  0
 83 82  1  0
 85 83  1  0
 85 86  1  0
 85 84  1  0
 87 90  1  1
 87 88  1  0
 89 87  1  0
M  ISO  4   8 100  20 100  49 101  50 101
M  END
>  <TORSDO>  (17) 
F 18

>  <SCORE>  (17) 
-14.001

>  <name>  (17) 
16

>  <ligand_id>  (17) 
16

>  <original_smiles>  (17) 
[H]c1c([H])c([H])c2c(c1[H])C([H])([H])C([H])([H])C([H])([H])C2([H])N([H])C(=O)C1([H])N(C(=O)C([H])(N([H])C(=O)C([H])(N([H])C([H])([H])[H])C([H])([H])[H])C(C([H])([H])[H])(C([H])([H])[H])C([H])([H])[H])C([H])([H])c2c([H])c(OC([H])([H])C3([H])C([H])([H])C([H])([H])[N+]([H])(C([H])([H])C4([H])C([H])([H])N(C(=O)N5C([H])([H])C([H])([H])C([H])([H])C([H])(n6nc(-c7c([H])c([H])c(Oc8c([H])c([H])c(F)c([H])c8F)c([H])c7[H])c(C(=O)N([H])[H])c6N([H])[H])C5([H])[H])C([H])([H])C4([H])[H])C3([H])[H])c([H])c([H])c2C1([H])[H]

>  <smiles>  (17) 
[H]c1c([H])c([H])c2c(c1[H])C([H])([H])C([H])([H])C([H])([H])C2([H])N([H])C(=O)C1([H])N(C(=O)C([H])(N([H])C(=O)C([H])(N([H])C([H])([H])[H])C([H])([H])[H])C(C([H])([H])[H])(C([H])([H])[H])C([H])([H])[H])C([H])([H])c2c([H])c(OC([H])([H])C3([H])C([H])([H])C([H])([H])[N+]([H])(C([H])([H])C4([H])C([H])([H])N(C(=O)N5C([H])([H])C([H])([H])C([H])([H])C([H])(n6nc(-c7c([H])c([H])c(Oc8c([H])c([H])c(F)c([H])c8F)c([H])c7[H])c(C(=O)N([H])[H])c6N([H])[H])C5([H])[H])C([H])([H])C4([H])[H])C3([H])[H])c([H])c([H])c2C1([H])[H]

$$$$
17:0:0
     RDKit          3D

 96105  0  0  1  0  0  0  0  0999 V2000
  -32.6680  -22.2450   20.1840 C   0  0  0  0  0  3  0  0  0  0  0  0
  -30.1060  -21.6440   19.6230 C   0  0  0  0  0  0  0  0  0  0  0  0
  -31.1140  -20.6570   19.6500 C   0  0  0  0  0  0  0  0  0  0  0  0
  -30.5270  -22.9590   19.8810 C   0  0  0  0  0  0  0  0  0  0  0  0
  -32.3920  -20.9640   19.9510 N   0  0  0  0  0  0  0  0  0  0  0  0
  -31.8060  -23.2580   20.1540 N   0  0  0  0  0  0  0  0  0  0  0  0
  -29.6030  -24.0060   19.8490 N   0  0  0  0  0  0  0  0  0  0  0  0
  -28.4560  -21.2780   19.2490 Cl  0  0  0  0  0  0  0  0  0  0  0  0
  -28.6760  -23.6880   19.5900 H   0  0  0  0  0  0  0  0  0  0  0  0
  -30.8320  -19.2160   19.2500 C   0  0  0  0  0  2  0  0  0  0  0  0
  -30.6840  -14.4840   20.3880 C   0  0  0  0  0  0  0  0  0  0  0  0
  -30.3630  -12.3190   19.2850 C   0  0  0  0  0  2  0  0  0  0  0  0
  -29.4020  -12.5180   18.0940 C   0  0  0  0  0  2  0  0  0  0  0  0
  -27.9350  -12.3840   18.5520 C   0  0  0  0  0  2  0  0  0  0  0  0
  -27.6110  -13.2240   19.8180 C   0  0  0  0  0  3  0  0  0  0  0  0
  -28.6900  -13.0370   20.9100 C   0  0  0  0  0  2  0  0  0  0  0  0
  -30.0040  -13.3120   20.3030 N   0  0  0  0  0  0  0  0  0  0  0  0
  -31.8590  -14.6210   20.0390 O   0  0  0  0  0  0  0  0  0  0  0  0
  -29.9560  -16.4550   21.6580 C   0  0  0  0  0  2  0  0  0  0  0  0
  -29.5670  -16.2590   19.2040 C   0  0  0  0  0  2  0  0  0  0  0  0
  -30.4860  -17.8880   21.3510 C   0  0  0  0  0  2  0  0  0  0  0  0
  -28.9350  -17.6390   19.4240 C   0  0  0  0  0  2  0  0  0  0  0  0
  -29.8940  -15.5780   20.4740 N   0  0  0  0  0  0  0  0  0  0  0  0
  -29.8640  -18.5340   20.1550 N   0  0  2  0  0  4  0  0  0  0  0  0
  -29.2860  -19.2970   20.4840 H   0  0  0  0  0  0  0  0  0  0  0  0
  -25.2270  -13.8440   20.5460 C   0  0  0  0  0  0  0  0  0  0  0  0
  -24.1590  -13.0760   20.9220 C   0  0  0  0  0  0  0  0  0  0  0  0
  -24.6160  -11.7230   20.8900 C   0  0  0  0  0  0  0  0  0  0  0  0
  -26.2660  -12.9570   20.3130 N   0  0  0  0  0  0  0  0  0  0  0  0
  -25.9050  -11.6780   20.5770 N   0  0  0  0  0  0  0  0  0  0  0  0
  -23.8910  -10.4630   21.0850 C   0  0  0  0  0  0  0  0  0  0  0  0
  -24.3470   -9.4820   21.9910 C   0  0  0  0  0  3  0  0  0  0  0  0
  -23.6250   -8.2840   22.1740 C   0  0  0  0  0  3  0  0  0  0  0  0
  -22.4300   -8.0590   21.4500 C   0  0  0  0  0  0  0  0  0  0  0  0
  -21.9930   -9.0280   20.5300 C   0  0  0  0  0  3  0  0  0  0  0  0
  -22.7170  -10.2170   20.3450 C   0  0  0  0  0  3  0  0  0  0  0  0
  -21.6730   -6.9170   21.5460 O   0  0  0  0  0  0  0  0  0  0  0  0
  -21.6760   -6.1470   22.6820 C   0  0  0  0  0  0  0  0  0  0  0  0
  -21.3260   -6.6770   23.9420 C   0  0  0  0  0  3  0  0  0  0  0  0
  -21.2760   -5.8340   25.0700 C   0  0  0  0  0  3  0  0  0  0  0  0
  -21.5610   -4.4610   24.9400 C   0  0  0  0  0  0  0  0  0  0  0  0
  -21.9020   -3.9320   23.6830 C   0  0  0  0  0  3  0  0  0  0  0  0
  -21.9580   -4.7710   22.5570 C   0  0  0  0  0  0  0  0  0  0  0  0
  -22.2680   -4.2510   21.3450 F   0  0  0  0  0  0  0  0  0  0  0  0
  -21.5020   -3.6500   26.0210 F   0  0  0  0  0  0  0  0  0  0  0  0
  -22.7640  -13.5570   21.2030 C   0  0  0  0  0  0  0  0  0  0  0  0
  -22.0400  -12.8650   22.0740 N   0  0  0  0  0  0  0  0  0  0  0  0
  -22.3250  -14.5820   20.6830 O   0  0  0  0  0  0  0  0  0  0  0  0
  -22.4070  -12.0320   22.5110 H   0  0  0  0  0  0  0  0  0  0  0  0
  -21.1060  -13.1720   22.3060 H   0  0  0  0  0  0  0  0  0  0  0  0
  -25.3980  -15.2140   20.3620 N   0  0  0  0  0  0  0  0  0  0  0  0
  -24.6410  -15.8780   20.4770 H   0  0  0  0  0  0  0  0  0  0  0  0
  -26.2600  -15.6380   20.0460 H   0  0  0  0  0  0  0  0  0  0  0  0
  -30.0350  -25.2500   19.2200 C   0  0  0  0  0  2  0  0  0  0  0  0
  -28.8410  -26.1650   18.9070 C   0  0  0  0  0  2  0  0  0  0  0  0
  -28.4380  -26.7940   20.1190 O   0  0  0  0  0  0  0  0  0  0  0  0
  -24.6080  -31.8950   23.2300 C   0  0  0  0  0  0  0  0  0  0  0  0
  -27.2510  -27.4870   20.1110 C   0  0  0  0  0  0  0  0  0  0  0  0
  -23.3930  -30.4900   21.5940 C   0  0  0  0  0  3  0  0  0  0  0  0
  -24.8410  -28.9590   20.1580 C   0  0  0  0  0  0  0  0  0  0  0  0
  -25.9130  -30.8580   21.3800 C   0  0  0  0  0  2  0  0  0  0  0  0
  -25.9980  -29.4880   20.7430 C   0  0  0  0  0  0  0  0  0  0  0  0
  -27.2000  -28.7520   20.7300 C   0  0  0  0  0  3  0  0  0  0  0  0
  -26.0720  -26.9540   19.5420 C   0  0  0  0  0  3  0  0  0  0  0  0
  -24.8710  -27.6860   19.5610 C   0  0  0  0  0  3  0  0  0  0  0  0
  -23.5940  -29.8120   20.2120 C   0  0  0  0  0  2  0  0  0  0  0  0
  -24.6570  -31.0950   22.1270 N   0  0  0  0  0  0  0  0  0  0  0  0
  -23.5310  -32.1640   23.7780 O   0  0  0  0  0  0  0  0  0  0  0  0
  -22.7530  -29.4660   22.5570 C   0  0  0  0  0  0  0  0  0  0  0  0
  -21.4290  -29.2800   22.4360 N   0  0  0  0  0  0  0  0  0  0  0  0
  -23.4420  -28.8420   23.3690 O   0  0  0  0  0  0  0  0  0  0  0  0
  -20.9340  -29.8340   21.7520 H   0  0  0  0  0  0  0  0  0  0  0  0
  -18.0610  -28.0730   22.9380 C   0  0  0  0  0  0  0  0  0  0  0  0
  -20.6170  -28.3410   23.2100 C   0  0  0  0  0  3  0  0  0  0  0  0
  -20.7260  -26.9100   22.6370 C   0  0  0  0  0  2  0  0  0  0  0  0
  -19.6260  -26.5790   21.6230 C   0  0  0  0  0  2  0  0  0  0  0  0
  -18.2430  -26.7220   22.2680 C   0  0  0  0  0  2  0  0  0  0  0  0
  -19.1780  -28.8410   23.3660 C   0  0  0  0  0  0  0  0  0  0  0  0
  -18.9550  -30.1050   23.9520 C   0  0  0  0  0  3  0  0  0  0  0  0
  -17.6490  -30.6040   24.1140 C   0  0  0  0  0  3  0  0  0  0  0  0
  -16.5470  -29.8340   23.7040 C   0  0  0  0  0  3  0  0  0  0  0  0
  -16.7540  -28.5700   23.1210 C   0  0  0  0  0  3  0  0  0  0  0  0
  -25.8980  -32.5250   23.8400 C   0  0  0  0  0  3  0  0  0  0  0  0
  -26.4320  -31.7490   25.1060 C   0  0  1  0  0  0  0  0  0  0  0  0
  -25.3520  -31.5040   26.1850 C   0  0  0  0  0  1  0  0  0  0  0  0
  -27.0150  -30.3750   24.6970 C   0  0  0  0  0  1  0  0  0  0  0  0
  -27.5880  -32.5430   25.7590 C   0  0  0  0  0  1  0  0  0  0  0  0
  -25.5900  -33.9220   24.1780 N   0  0  0  0  0  0  0  0  0  0  0  0
  -25.9150  -34.9760   23.4200 C   0  0  0  0  0  0  0  0  0  0  0  0
  -26.5800  -34.8790   22.3850 O   0  0  0  0  0  0  0  0  0  0  0  0
  -24.9990  -34.0710   24.9830 H   0  0  0  0  0  0  0  0  0  0  0  0
  -24.1790  -36.7640   23.0800 C   0  0  0  0  0  1  0  0  0  0  0  0
  -25.4250  -36.3610   23.8850 C   0  0  0  0  0  3  0  0  0  0  0  0
  -27.5640  -37.2460   24.7060 C   0  0  0  0  0  1  0  0  0  0  0  0
  -26.4530  -37.4180   23.7710 N   0  0  0  0  0  0  0  0  0  0  0  0
  -26.0460  -38.3360   23.9290 H   0  0  0  0  0  0  0  0  0  0  0  0
  2  3  2  0
  2  4  1  0
  3  5  1  0
  4  6  2  0
  5  1  2  0
  6  1  1  0
  7  4  1  0
  8  2  1  0
  9  7  1  0
 10  3  1  0
 10 24  1  0
 11 23  1  0
 12 17  1  0
 13 14  1  0
 13 12  1  0
 15 14  1  0
 15 29  1  0
 15 16  1  0
 17 11  1  0
 17 16  1  0
 18 11  2  0
 20 22  1  0
 20 23  1  0
 21 19  1  0
 22 24  1  0
 23 19  1  0
 24 25  1  1
 24 21  1  0
 26 27  2  0
 27 46  1  0
 28 27  1  0
 28 31  1  0
 29 26  1  0
 29 30  1  0
 30 28  2  0
 31 32  1  0
 32 33  2  0
 34 37  1  0
 34 33  1  0
 35 34  2  0
 36 35  1  0
 36 31  2  0
 37 38  1  0
 38 39  1  0
 39 40  2  0
 41 40  1  0
 41 45  1  0
 42 41  2  0
 43 38  2  0
 43 42  1  0
 44 43  1  0
 46 47  1  0
 47 50  1  0
 47 49  1  0
 48 46  2  0
 51 52  1  0
 51 26  1  0
 53 51  1  0
 54  7  1  0
 55 54  1  0
 55 56  1  0
 57 68  2  0
 58 56  1  0
 58 63  1  0
 59 67  1  0
 59 69  1  0
 60 66  1  0
 60 62  1  0
 61 67  1  0
 62 61  1  0
 63 62  2  0
 64 65  1  0
 64 58  2  0
 65 60  2  0
 66 59  1  0
 67 57  1  0
 69 71  2  0
 70 69  1  0
 72 70  1  0
 73 82  2  0
 73 78  1  0
 74 70  1  0
 74 78  1  0
 75 74  1  0
 76 77  1  0
 76 75  1  0
 77 73  1  0
 78 79  2  0
 79 80  1  0
 81 80  2  0
 82 81  1  0
 83 57  1  0
 83 88  1  0
 83 84  1  0
 84 87  1  1
 84 85  1  0
 86 84  1  0
 88 91  1  0
 89 93  1  0
 89 88  1  0
 90 89  2  0
 93 92  1  0
 95 93  1  0
 95 96  1  0
 95 94  1  0
M  ISO  4  11 100  23 100  55 101  56 101
M  END
>  <TORSDO>  (18) 
F 19

>  <SCORE>  (18) 
-14.368

>  <name>  (18) 
17

>  <ligand_id>  (18) 
17

>  <original_smiles>  (18) 
[H]c1nc(N([H])C([H])([H])C([H])([H])Oc2c([H])c([H])c3c(c2[H])C([H])([H])N(C(=O)C([H])(N([H])C(=O)C([H])(N([H])C([H])([H])[H])C([H])([H])[H])C(C([H])([H])[H])(C([H])([H])[H])C([H])([H])[H])C([H])(C(=O)N([H])C2([H])c4c([H])c([H])c([H])c([H])c4C([H])([H])C([H])([H])C2([H])[H])C3([H])[H])c(Cl)c(C([H])([H])[N+]2([H])C([H])([H])C([H])([H])N(C(=O)N3C([H])([H])C([H])([H])C([H])([H])C([H])(n4nc(-c5c([H])c([H])c(Oc6c([H])c([H])c(F)c([H])c6F)c([H])c5[H])c(C(=O)N([H])[H])c4N([H])[H])C3([H])[H])C([H])([H])C2([H])[H])n1

>  <smiles>  (18) 
[H]c1nc(N([H])C([H])([H])C([H])([H])Oc2c([H])c([H])c3c(c2[H])C([H])([H])N(C(=O)C([H])(N([H])C(=O)C([H])(N([H])C([H])([H])[H])C([H])([H])[H])C(C([H])([H])[H])(C([H])([H])[H])C([H])([H])[H])C([H])(C(=O)N([H])C2([H])c4c([H])c([H])c([H])c([H])c4C([H])([H])C([H])([H])C2([H])[H])C3([H])[H])c(Cl)c(C([H])([H])[N+]2([H])C([H])([H])C([H])([H])N(C(=O)N3C([H])([H])C([H])([H])C([H])([H])C([H])(n4nc(-c5c([H])c([H])c(Oc6c([H])c([H])c(F)c([H])c6F)c([H])c5[H])c(C(=O)N([H])[H])c4N([H])[H])C3([H])[H])C([H])([H])C2([H])[H])n1

$$$$
18:0:0
     RDKit          3D

 91100  0  0  1  0  0  0  0  0999 V2000
  -29.2790  -21.4890   19.3100 C   0  0  0  0  0  0  0  0  0  0  0  0
  -29.9980  -20.8440   18.3450 N   0  0  0  0  0  0  0  0  0  0  0  0
  -28.8640  -20.6730   20.2800 N   0  0  0  0  0  2  0  0  0  0  0  0
  -30.0440  -19.5880   18.6720 N   0  0  0  0  0  2  0  0  0  0  0  0
  -29.3880  -19.4710   19.8460 N   0  0  0  0  0  0  0  0  0  0  0  0
  -29.0420  -22.8890   19.1280 N   0  0  0  0  0  0  0  0  0  0  0  0
  -29.4650  -23.2580   18.2810 H   0  0  0  0  0  0  0  0  0  0  0  0
  -29.8260  -17.8390   21.6910 C   0  0  0  0  0  2  0  0  0  0  0  0
  -29.0790  -18.1310   20.4250 C   0  0  0  0  0  3  0  0  0  0  0  0
  -30.1790  -17.0190   20.4550 C   0  0  0  0  0  3  0  0  0  0  0  0
  -30.6270  -14.5330   20.0990 C   0  0  0  0  0  0  0  0  0  0  0  0
  -30.3290  -12.3530   18.9630 C   0  0  0  0  0  2  0  0  0  0  0  0
  -29.3350  -12.5540   17.7990 C   0  0  0  0  0  2  0  0  0  0  0  0
  -27.8750  -12.4200   18.2820 C   0  0  0  0  0  2  0  0  0  0  0  0
  -27.5970  -13.2420   19.5720 C   0  0  0  0  0  3  0  0  0  0  0  0
  -28.6950  -13.0050   20.6320 C   0  0  0  0  0  2  0  0  0  0  0  0
  -29.9860  -13.3290   20.0120 N   0  0  0  0  0  0  0  0  0  0  0  0
  -31.7690  -14.6940   19.6590 O   0  0  0  0  0  0  0  0  0  0  0  0
  -29.8610  -15.5850   20.5110 N   0  0  0  0  0  0  0  0  0  0  0  0
  -28.9350  -15.3430   20.8320 H   0  0  0  0  0  0  0  0  0  0  0  0
  -25.2490  -13.8750   20.3950 C   0  0  0  0  0  0  0  0  0  0  0  0
  -24.1880  -13.1130   20.8040 C   0  0  0  0  0  0  0  0  0  0  0  0
  -24.6260  -11.7550   20.7390 C   0  0  0  0  0  0  0  0  0  0  0  0
  -26.2660  -12.9800   20.1070 N   0  0  0  0  0  0  0  0  0  0  0  0
  -25.9010  -11.7000   20.3740 N   0  0  0  0  0  0  0  0  0  0  0  0
  -23.8890  -10.5030   20.9450 C   0  0  0  0  0  0  0  0  0  0  0  0
  -24.3280   -9.5340   21.8750 C   0  0  0  0  0  3  0  0  0  0  0  0
  -23.5930   -8.3450   22.0690 C   0  0  0  0  0  3  0  0  0  0  0  0
  -22.4060   -8.1170   21.3340 C   0  0  0  0  0  0  0  0  0  0  0  0
  -21.9850   -9.0730   20.3950 C   0  0  0  0  0  3  0  0  0  0  0  0
  -22.7200  -10.2550   20.1990 C   0  0  0  0  0  3  0  0  0  0  0  0
  -21.6420   -6.9790   21.4380 O   0  0  0  0  0  0  0  0  0  0  0  0
  -21.5800   -6.2560   22.6020 C   0  0  0  0  0  0  0  0  0  0  0  0
  -21.1410   -6.8300   23.8150 C   0  0  0  0  0  3  0  0  0  0  0  0
  -21.0340   -6.0340   24.9730 C   0  0  0  0  0  3  0  0  0  0  0  0
  -21.3490   -4.6640   24.9180 C   0  0  0  0  0  0  0  0  0  0  0  0
  -21.7760   -4.0890   23.7090 C   0  0  0  0  0  3  0  0  0  0  0  0
  -21.8910   -4.8830   22.5550 C   0  0  0  0  0  0  0  0  0  0  0  0
  -22.2860   -4.3200   21.3880 F   0  0  0  0  0  0  0  0  0  0  0  0
  -21.2330   -3.8940   26.0270 F   0  0  0  0  0  0  0  0  0  0  0  0
  -22.8110  -13.6100   21.1390 C   0  0  0  0  0  0  0  0  0  0  0  0
  -22.1100  -12.9140   22.0280 N   0  0  0  0  0  0  0  0  0  0  0  0
  -22.3690  -14.6440   20.6440 O   0  0  0  0  0  0  0  0  0  0  0  0
  -22.4820  -12.0750   22.4460 H   0  0  0  0  0  0  0  0  0  0  0  0
  -21.1860  -13.2250   22.2900 H   0  0  0  0  0  0  0  0  0  0  0  0
  -25.4310  -15.2440   20.2230 N   0  0  0  0  0  0  0  0  0  0  0  0
  -24.6710  -15.9020   20.3510 H   0  0  0  0  0  0  0  0  0  0  0  0
  -26.2500  -15.6640   19.8010 H   0  0  0  0  0  0  0  0  0  0  0  0
  -28.5010  -23.9060   20.0620 C   0  0  0  0  0  2  0  0  0  0  0  0
  -28.5970  -25.3650   19.4440 C   0  0  0  0  0  2  0  0  0  0  0  0
  -28.3940  -26.5550   20.2680 O   0  0  0  0  0  0  0  0  0  0  0  0
  -24.6100  -31.8720   23.2280 C   0  0  0  0  0  0  0  0  0  0  0  0
  -27.2340  -27.3260   20.1960 C   0  0  0  0  0  0  0  0  0  0  0  0
  -23.4000  -30.4550   21.6000 C   0  0  0  0  0  3  0  0  0  0  0  0
  -24.8530  -28.8930   20.1870 C   0  0  0  0  0  0  0  0  0  0  0  0
  -25.9360  -30.7840   21.4120 C   0  0  0  0  0  2  0  0  0  0  0  0
  -26.0160  -29.4040   20.7760 C   0  0  0  0  0  0  0  0  0  0  0  0
  -27.2060  -28.6270   20.7780 C   0  0  0  0  0  3  0  0  0  0  0  0
  -26.0440  -26.8450   19.6070 C   0  0  0  0  0  3  0  0  0  0  0  0
  -24.8660  -27.6180   19.5990 C   0  0  0  0  0  3  0  0  0  0  0  0
  -23.6090  -29.7550   20.2310 C   0  0  0  0  0  2  0  0  0  0  0  0
  -24.6660  -31.0550   22.1350 N   0  0  0  0  0  0  0  0  0  0  0  0
  -23.5290  -32.1560   23.7630 O   0  0  0  0  0  0  0  0  0  0  0  0
  -22.7440  -29.4490   22.5730 C   0  0  0  0  0  0  0  0  0  0  0  0
  -21.4200  -29.2720   22.4490 N   0  0  0  0  0  0  0  0  0  0  0  0
  -23.4260  -28.8290   23.3930 O   0  0  0  0  0  0  0  0  0  0  0  0
  -20.9320  -29.8200   21.7530 H   0  0  0  0  0  0  0  0  0  0  0  0
  -18.0390  -28.1030   22.9640 C   0  0  0  0  0  0  0  0  0  0  0  0
  -20.6000  -28.3440   23.2270 C   0  0  0  0  0  3  0  0  0  0  0  0
  -20.6910  -26.9100   22.6570 C   0  0  0  0  0  2  0  0  0  0  0  0
  -19.5840  -26.5920   21.6490 C   0  0  0  0  0  2  0  0  0  0  0  0
  -18.2040  -26.7510   22.2910 C   0  0  0  0  0  2  0  0  0  0  0  0
  -19.1630  -28.8600   23.3860 C   0  0  0  0  0  0  0  0  0  0  0  0
  -18.9560  -30.1290   23.9680 C   0  0  0  0  0  3  0  0  0  0  0  0
  -17.6550  -30.6380   24.1390 C   0  0  0  0  0  3  0  0  0  0  0  0
  -16.5440  -29.8770   23.7340 C   0  0  0  0  0  3  0  0  0  0  0  0
  -16.7370  -28.6140   23.1510 C   0  0  0  0  0  3  0  0  0  0  0  0
  -25.8980  -32.5040   23.8400 C   0  0  0  0  0  3  0  0  0  0  0  0
  -26.4220  -31.7290   25.1120 C   0  0  1  0  0  0  0  0  0  0  0  0
  -25.3360  -31.4860   26.1830 C   0  0  0  0  0  1  0  0  0  0  0  0
  -27.0070  -30.3530   24.7140 C   0  0  0  0  0  1  0  0  0  0  0  0
  -27.5710  -32.5270   25.7730 C   0  0  0  0  0  1  0  0  0  0  0  0
  -25.5860  -33.9000   24.1780 N   0  0  0  0  0  0  0  0  0  0  0  0
  -25.9080  -34.9570   23.4200 C   0  0  0  0  0  0  0  0  0  0  0  0
  -26.5690  -34.8600   22.3830 O   0  0  0  0  0  0  0  0  0  0  0  0
  -25.0070  -34.0490   24.9890 H   0  0  0  0  0  0  0  0  0  0  0  0
  -24.1710  -36.7430   23.0830 C   0  0  0  0  0  1  0  0  0  0  0  0
  -25.4180  -36.3410   23.8860 C   0  0  0  0  0  3  0  0  0  0  0  0
  -27.5520  -37.2330   24.7110 C   0  0  0  0  0  1  0  0  0  0  0  0
  -26.4450  -37.4000   23.7730 N   0  0  0  0  0  0  0  0  0  0  0  0
  -26.0350  -38.3180   23.9250 H   0  0  0  0  0  0  0  0  0  0  0  0
  1  3  1  0
  2  4  1  0
  2  1  2  0
  5  4  1  0
  5  3  1  0
  5  9  1  0
  6  1  1  0
  6 49  1  0
  7  6  1  0
  9 10  1  0
  9  8  1  0
 10 19  1  0
 10  8  1  0
 11 19  1  0
 12 17  1  0
 13 14  1  0
 13 12  1  0
 15 14  1  0
 15 24  1  0
 15 16  1  0
 17 11  1  0
 17 16  1  0
 18 11  2  0
 19 20  1  0
 21 22  2  0
 22 41  1  0
 23 22  1  0
 23 26  1  0
 24 25  1  0
 24 21  1  0
 25 23  2  0
 26 27  1  0
 27 28  2  0
 29 32  1  0
 29 28  1  0
 30 29  2  0
 31 30  1  0
 31 26  2  0
 32 33  1  0
 33 34  1  0
 34 35  2  0
 36 35  1  0
 36 40  1  0
 37 36  2  0
 38 33  2  0
 38 37  1  0
 39 38  1  0
 41 42  1  0
 42 45  1  0
 42 44  1  0
 43 41  2  0
 46 47  1  0
 46 21  1  0
 48 46  1  0
 50 49  1  0
 50 51  1  0
 52 63  2  0
 53 51  1  0
 53 58  1  0
 54 62  1  0
 54 64  1  0
 55 61  1  0
 55 57  1  0
 56 62  1  0
 57 58  2  0
 57 56  1  0
 59 53  2  0
 60 59  1  0
 60 55  2  0
 61 54  1  0
 62 52  1  0
 64 66  2  0
 65 64  1  0
 67 65  1  0
 68 77  2  0
 68 73  1  0
 69 65  1  0
 69 73  1  0
 70 69  1  0
 71 72  1  0
 71 70  1  0
 72 68  1  0
 73 74  2  0
 74 75  1  0
 76 75  2  0
 77 76  1  0
 78 52  1  0
 78 83  1  0
 78 79  1  0
 79 82  1  1
 79 80  1  0
 81 79  1  0
 83 86  1  0
 84 88  1  0
 84 83  1  0
 85 84  2  0
 88 87  1  0
 90 88  1  0
 90 91  1  0
 90 89  1  0
M  ISO  4  11 100  19 100  50 101  51 101
M  END
>  <TORSDO>  (19) 
F 19

>  <SCORE>  (19) 
-13.921

>  <name>  (19) 
18

>  <ligand_id>  (19) 
18

>  <original_smiles>  (19) 
[H]c1c([H])c([H])c2c(c1[H])C([H])([H])C([H])([H])C([H])([H])C2([H])N([H])C(=O)C1([H])N(C(=O)C([H])(N([H])C(=O)C([H])(N([H])C([H])([H])[H])C([H])([H])[H])C(C([H])([H])[H])(C([H])([H])[H])C([H])([H])[H])C([H])([H])c2c([H])c(OC([H])([H])C([H])([H])N([H])c3nnn(C4([H])C([H])([H])C4([H])N([H])C(=O)N4C([H])([H])C([H])([H])C([H])([H])C([H])(n5nc(-c6c([H])c([H])c(Oc7c([H])c([H])c(F)c([H])c7F)c([H])c6[H])c(C(=O)N([H])[H])c5N([H])[H])C4([H])[H])n3)c([H])c([H])c2C1([H])[H]

>  <smiles>  (19) 
[H]c1c([H])c([H])c2c(c1[H])C([H])([H])C([H])([H])C([H])([H])C2([H])N([H])C(=O)C1([H])N(C(=O)C([H])(N([H])C(=O)C([H])(N([H])C([H])([H])[H])C([H])([H])[H])C(C([H])([H])[H])(C([H])([H])[H])C([H])([H])[H])C([H])([H])c2c([H])c(OC([H])([H])C([H])([H])N([H])c3nnn(C4([H])C([H])([H])C4([H])N([H])C(=O)N4C([H])([H])C([H])([H])C([H])([H])C([H])(n5nc(-c6c([H])c([H])c(Oc7c([H])c([H])c(F)c([H])c7F)c([H])c6[H])c(C(=O)N([H])[H])c5N([H])[H])C4([H])[H])n3)c([H])c([H])c2C1([H])[H]

$$$$
19:0:0
     RDKit          3D

 89 97  0  0  1  0  0  0  0  0999 V2000
  -27.5890  -21.8700   19.4070 C   0  0  0  0  0  2  0  0  0  0  0  0
  -27.6150  -21.0560   20.6970 C   0  0  0  0  0  2  0  0  0  0  0  0
  -28.9520  -22.4140   19.8360 C   0  0  0  0  0  3  0  0  0  0  0  0
  -29.0780  -21.1540   20.6920 N   0  0  2  0  0  4  0  0  0  0  0  0
  -29.4250  -21.3550   21.6190 H   0  0  0  0  0  0  0  0  0  0  0  0
  -29.0270  -23.8650   20.5190 C   0  0  0  0  0  3  0  0  0  0  0  0
  -28.1780  -25.0330   19.8290 C   0  0  0  0  0  3  0  0  0  0  0  0
  -28.3480  -26.4710   20.1770 O   0  0  0  0  0  0  0  0  0  0  0  0
  -24.6440  -31.8810   23.2070 C   0  0  0  0  0  0  0  0  0  0  0  0
  -27.2380  -27.3370   20.1010 C   0  0  0  0  0  0  0  0  0  0  0  0
  -23.4300  -30.4880   21.5710 C   0  0  0  0  0  3  0  0  0  0  0  0
  -24.8720  -28.9570   20.1160 C   0  0  0  0  0  0  0  0  0  0  0  0
  -25.9670  -30.8090   21.3720 C   0  0  0  0  0  2  0  0  0  0  0  0
  -26.0430  -29.4340   20.7160 C   0  0  0  0  0  0  0  0  0  0  0  0
  -27.2250  -28.6340   20.7070 C   0  0  0  0  0  3  0  0  0  0  0  0
  -26.0490  -26.9360   19.4440 C   0  0  0  0  0  3  0  0  0  0  0  0
  -24.8790  -27.7150   19.4670 C   0  0  0  0  0  3  0  0  0  0  0  0
  -23.6320  -29.8240   20.1840 C   0  0  0  0  0  2  0  0  0  0  0  0
  -24.6990  -31.0770   22.1050 N   0  0  0  0  0  0  0  0  0  0  0  0
  -23.5660  -32.1530   23.7530 O   0  0  0  0  0  0  0  0  0  0  0  0
  -22.7780  -29.4630   22.5310 C   0  0  0  0  0  0  0  0  0  0  0  0
  -21.4500  -29.2860   22.4160 N   0  0  0  0  0  0  0  0  0  0  0  0
  -23.4650  -28.8300   23.3370 O   0  0  0  0  0  0  0  0  0  0  0  0
  -20.9550  -29.8450   21.7350 H   0  0  0  0  0  0  0  0  0  0  0  0
  -18.0790  -28.0860   22.9400 C   0  0  0  0  0  0  0  0  0  0  0  0
  -20.6400  -28.3440   23.1890 C   0  0  0  0  0  3  0  0  0  0  0  0
  -20.7370  -26.9160   22.6000 C   0  0  0  0  0  2  0  0  0  0  0  0
  -19.6230  -26.6000   21.5970 C   0  0  0  0  0  2  0  0  0  0  0  0
  -18.2480  -26.7430   22.2530 C   0  0  0  0  0  2  0  0  0  0  0  0
  -19.2010  -28.8460   23.3650 C   0  0  0  0  0  0  0  0  0  0  0  0
  -18.9870  -30.1060   23.9640 C   0  0  0  0  0  3  0  0  0  0  0  0
  -17.6850  -30.6070   24.1440 C   0  0  0  0  0  3  0  0  0  0  0  0
  -16.5770  -29.8430   23.7370 C   0  0  0  0  0  3  0  0  0  0  0  0
  -16.7740  -28.5850   23.1420 C   0  0  0  0  0  3  0  0  0  0  0  0
  -25.9320  -32.5110   23.8210 C   0  0  0  0  0  3  0  0  0  0  0  0
  -25.6200  -33.9040   24.1700 N   0  0  0  0  0  0  0  0  0  0  0  0
  -25.9340  -34.9660   23.4170 C   0  0  0  0  0  0  0  0  0  0  0  0
  -26.5870  -34.8770   22.3730 O   0  0  0  0  0  0  0  0  0  0  0  0
  -25.0360  -34.0460   24.9820 H   0  0  0  0  0  0  0  0  0  0  0  0
  -24.1880  -36.7520   23.1110 C   0  0  0  0  0  1  0  0  0  0  0  0
  -25.4460  -36.3470   23.8960 C   0  0  0  0  0  3  0  0  0  0  0  0
  -27.5900  -37.2370   24.6990 C   0  0  0  0  0  1  0  0  0  0  0  0
  -26.4700  -37.4080   23.7750 N   0  0  0  0  0  0  0  0  0  0  0  0
  -26.0610  -38.3240   23.9390 H   0  0  0  0  0  0  0  0  0  0  0  0
  -26.4640  -31.7290   25.0830 C   0  0  1  0  0  0  0  0  0  0  0  0
  -25.3820  -31.4790   26.1610 C   0  0  0  0  0  1  0  0  0  0  0  0
  -27.0470  -30.3560   24.6730 C   0  0  0  0  0  1  0  0  0  0  0  0
  -27.6200  -32.5190   25.7400 C   0  0  0  0  0  1  0  0  0  0  0  0
  -29.8010  -19.9230   20.1320 C   0  0  0  0  0  2  0  0  0  0  0  0
  -29.4450  -18.4630   20.7160 C   0  0  0  0  0  3  0  0  0  0  0  0
  -30.3750  -17.2370   20.2770 C   0  0  0  0  0  3  0  0  0  0  0  0
  -30.6840  -14.6860   20.3400 C   0  0  0  0  0  0  0  0  0  0  0  0
  -30.4270  -12.4490   19.2960 C   0  0  0  0  0  2  0  0  0  0  0  0
  -29.4990  -12.5740   18.0670 C   0  0  0  0  0  2  0  0  0  0  0  0
  -28.0230  -12.4280   18.4870 C   0  0  0  0  0  2  0  0  0  0  0  0
  -27.6590  -13.3000   19.7190 C   0  0  0  0  0  3  0  0  0  0  0  0
  -28.7110  -13.1700   20.8460 C   0  0  0  0  0  2  0  0  0  0  0  0
  -30.0230  -13.4870   20.2660 N   0  0  0  0  0  0  0  0  0  0  0  0
  -31.8560  -14.7860   19.9700 O   0  0  0  0  0  0  0  0  0  0  0  0
  -29.9510  -15.8170   20.5980 N   0  0  0  0  0  0  0  0  0  0  0  0
  -28.9920  -15.6690   20.8760 H   0  0  0  0  0  0  0  0  0  0  0  0
  -25.2600  -13.8990   20.4110 C   0  0  0  0  0  0  0  0  0  0  0  0
  -24.1920  -13.1290   20.7820 C   0  0  0  0  0  0  0  0  0  0  0  0
  -24.6580  -11.7770   20.7740 C   0  0  0  0  0  0  0  0  0  0  0  0
  -26.3080  -13.0180   20.1980 N   0  0  0  0  0  0  0  0  0  0  0  0
  -25.9510  -11.7390   20.4790 N   0  0  0  0  0  0  0  0  0  0  0  0
  -23.9310  -10.5170   20.9740 C   0  0  0  0  0  0  0  0  0  0  0  0
  -24.3580   -9.5600   21.9210 C   0  0  0  0  0  3  0  0  0  0  0  0
  -23.6310   -8.3650   22.1090 C   0  0  0  0  0  3  0  0  0  0  0  0
  -22.4640   -8.1170   21.3490 C   0  0  0  0  0  0  0  0  0  0  0  0
  -22.0550   -9.0630   20.3920 C   0  0  0  0  0  3  0  0  0  0  0  0
  -22.7830  -10.2490   20.2020 C   0  0  0  0  0  3  0  0  0  0  0  0
  -21.7090   -6.9710   21.4450 O   0  0  0  0  0  0  0  0  0  0  0  0
  -21.6540   -6.2410   22.6050 C   0  0  0  0  0  0  0  0  0  0  0  0
  -21.2200   -6.8090   23.8220 C   0  0  0  0  0  3  0  0  0  0  0  0
  -21.1110   -6.0040   24.9740 C   0  0  0  0  0  3  0  0  0  0  0  0
  -21.4270   -4.6350   24.9100 C   0  0  0  0  0  0  0  0  0  0  0  0
  -21.8550   -4.0670   23.6970 C   0  0  0  0  0  3  0  0  0  0  0  0
  -21.9650   -4.8670   22.5470 C   0  0  0  0  0  0  0  0  0  0  0  0
  -22.3570   -4.3110   21.3760 F   0  0  0  0  0  0  0  0  0  0  0  0
  -21.3160   -3.8600   26.0140 F   0  0  0  0  0  0  0  0  0  0  0  0
  -22.7920  -13.6070   21.0340 C   0  0  0  0  0  0  0  0  0  0  0  0
  -22.0570  -12.9220   21.9040 N   0  0  0  0  0  0  0  0  0  0  0  0
  -22.3570  -14.6250   20.4970 O   0  0  0  0  0  0  0  0  0  0  0  0
  -22.4220  -12.0990   22.3600 H   0  0  0  0  0  0  0  0  0  0  0  0
  -21.1180  -13.2250   22.1180 H   0  0  0  0  0  0  0  0  0  0  0  0
  -25.4240  -15.2670   20.2130 N   0  0  0  0  0  0  0  0  0  0  0  0
  -24.6530  -15.9190   20.3030 H   0  0  0  0  0  0  0  0  0  0  0  0
  -26.2660  -15.6970   19.8500 H   0  0  0  0  0  0  0  0  0  0  0  0
  1  3  1  0
  1  2  1  0
  3  6  1  0
  3  4  1  0
  4  2  1  0
  4  5  1  1
  7  8  1  0
  7  6  2  0
  9 20  2  0
 10  8  1  0
 10 15  1  0
 11 19  1  0
 11 21  1  0
 12 18  1  0
 12 14  1  0
 13 19  1  0
 14 13  1  0
 15 14  2  0
 16 17  1  0
 16 10  2  0
 17 12  2  0
 18 11  1  0
 19  9  1  0
 21 23  2  0
 22 21  1  0
 24 22  1  0
 25 34  2  0
 25 30  1  0
 26 22  1  0
 26 30  1  0
 27 26  1  0
 28 29  1  0
 28 27  1  0
 29 25  1  0
 30 31  2  0
 31 32  1  0
 33 32  2  0
 34 33  1  0
 35  9  1  0
 35 36  1  0
 35 45  1  0
 36 39  1  0
 37 41  1  0
 37 36  1  0
 38 37  2  0
 41 40  1  0
 43 41  1  0
 43 44  1  0
 43 42  1  0
 45 48  1  1
 45 46  1  0
 47 45  1  0
 49  4  1  0
 49 50  1  0
 51 60  1  0
 51 50  2  0
 52 60  1  0
 53 58  1  0
 54 55  1  0
 54 53  1  0
 56 55  1  0
 56 65  1  0
 56 57  1  0
 58 52  1  0
 58 57  1  0
 59 52  2  0
 60 61  1  0
 62 63  2  0
 63 82  1  0
 64 63  1  0
 64 67  1  0
 65 62  1  0
 65 66  1  0
 66 64  2  0
 67 68  1  0
 68 69  2  0
 70 73  1  0
 70 69  1  0
 71 70  2  0
 72 71  1  0
 72 67  2  0
 73 74  1  0
 74 75  1  0
 75 76  2  0
 77 76  1  0
 77 81  1  0
 78 77  2  0
 79 74  2  0
 79 78  1  0
 80 79  1  0
 82 83  1  0
 83 86  1  0
 83 85  1  0
 84 82  2  0
 87 88  1  0
 87 62  1  0
 89 87  1  0
M  ISO  4   7 101   8 101  52 100  60 100
M  END
>  <TORSDO>  (20) 
F 21

>  <SCORE>  (20) 
-13.057

>  <name>  (20) 
19

>  <ligand_id>  (20) 
19

>  <original_smiles>  (20) 
[H]c1c([H])c([H])c2c(c1[H])C([H])([H])C([H])([H])C([H])([H])C2([H])N([H])C(=O)C1([H])N(C(=O)C([H])(N([H])C(=O)C([H])(N([H])C([H])([H])[H])C([H])([H])[H])C(C([H])([H])[H])(C([H])([H])[H])C([H])([H])[H])C([H])([H])c2c([H])c(OC([H])([H])C([H])([H])C3([H])C([H])([H])C([H])([H])[N+]3([H])C([H])([H])C([H])([H])C([H])([H])N([H])C(=O)N3C([H])([H])C([H])([H])C([H])([H])C([H])(n4nc(-c5c([H])c([H])c(Oc6c([H])c([H])c(F)c([H])c6F)c([H])c5[H])c(C(=O)N([H])[H])c4N([H])[H])C3([H])[H])c([H])c([H])c2C1([H])[H]

>  <smiles>  (20) 
[H]c1c([H])c([H])c2c(c1[H])C([H])([H])C([H])([H])C([H])([H])C2([H])N([H])C(=O)C1([H])N(C(=O)C([H])(N([H])C(=O)C([H])(N([H])C([H])([H])[H])C([H])([H])[H])C(C([H])([H])[H])(C([H])([H])[H])C([H])([H])[H])C([H])([H])c2c([H])c(OC([H])([H])C([H])([H])C3([H])C([H])([H])C([H])([H])[N+]3([H])C([H])([H])C([H])([H])C([H])([H])N([H])C(=O)N3C([H])([H])C([H])([H])C([H])([H])C([H])(n4nc(-c5c([H])c([H])c(Oc6c([H])c([H])c(F)c([H])c6F)c([H])c5[H])c(C(=O)N([H])[H])c4N([H])[H])C3([H])[H])c([H])c([H])c2C1([H])[H]

$$$$
20:0:0
     RDKit          3D

 94103  0  0  1  0  0  0  0  0999 V2000
  -26.8270  -24.0520   21.3150 C   0  0  0  0  0  2  0  0  0  0  0  0
  -28.1510  -22.3300   22.0720 C   0  0  0  0  0  2  0  0  0  0  0  0
  -27.7440  -23.7660   20.1160 C   0  0  0  0  0  3  0  0  0  0  0  0
  -28.6620  -22.5260   20.6280 C   0  0  0  0  0  3  0  0  0  0  0  0
  -27.5660  -23.5990   22.4800 N   0  0  0  0  0  0  0  0  0  0  0  0
  -26.9430  -23.4780   23.2780 H   0  0  0  0  0  0  0  0  0  0  0  0
  -28.6620  -21.1870   19.8590 N   0  0  0  0  0  4  0  0  0  0  0  0
  -27.7820  -21.1080   19.3780 H   0  0  0  0  0  0  0  0  0  0  0  0
  -29.3690  -21.2730   19.1470 H   0  0  0  0  0  0  0  0  0  0  0  0
  -28.8930  -19.8440   20.5870 C   0  0  0  0  0  2  0  0  0  0  0  0
  -28.4900  -18.2460   18.4840 C   0  0  0  0  0  2  0  0  0  0  0  0
  -28.9400  -16.7850   18.5600 C   0  0  0  0  0  2  0  0  0  0  0  0
  -29.3460  -18.5590   19.7280 C   0  0  0  0  0  3  0  0  0  0  0  0
  -29.1230  -16.9780   20.0730 C   0  0  0  0  0  3  0  0  0  0  0  0
  -30.7660  -14.8800   20.2530 C   0  0  0  0  0  0  0  0  0  0  0  0
  -30.4250  -12.5940   19.3150 C   0  0  0  0  0  2  0  0  0  0  0  0
  -29.5420  -12.5940   18.0460 C   0  0  0  0  0  2  0  0  0  0  0  0
  -28.0420  -12.8310   18.3470 C   0  0  0  0  0  2  0  0  0  0  0  0
  -27.7500  -12.8680   19.8550 C   0  0  0  0  0  3  0  0  0  0  0  0
  -28.7220  -13.5330   20.8270 C   0  0  0  0  0  2  0  0  0  0  0  0
  -30.0170  -13.7330   20.1770 N   0  0  0  0  0  0  0  0  0  0  0  0
  -31.9570  -14.8450   19.9550 O   0  0  0  0  0  0  0  0  0  0  0  0
  -30.2410  -16.1080   20.6150 N   0  0  0  0  0  0  0  0  0  0  0  0
  -31.0010  -16.6910   20.9370 H   0  0  0  0  0  0  0  0  0  0  0  0
  -25.3390  -13.8280   20.3940 C   0  0  0  0  0  0  0  0  0  0  0  0
  -24.2330  -13.1050   20.7800 C   0  0  0  0  0  0  0  0  0  0  0  0
  -24.6410  -11.7410   20.7890 C   0  0  0  0  0  0  0  0  0  0  0  0
  -26.3490  -12.8750   20.2340 N   0  0  0  0  0  0  0  0  0  0  0  0
  -25.9040  -11.6370   20.4850 N   0  0  0  0  0  0  0  0  0  0  0  0
  -23.9300  -10.4890   20.9960 C   0  0  0  0  0  0  0  0  0  0  0  0
  -24.3860   -9.5420   21.9380 C   0  0  0  0  0  3  0  0  0  0  0  0
  -23.6880   -8.3340   22.1220 C   0  0  0  0  0  3  0  0  0  0  0  0
  -22.5300   -8.0660   21.3530 C   0  0  0  0  0  0  0  0  0  0  0  0
  -22.1040   -9.0000   20.3930 C   0  0  0  0  0  3  0  0  0  0  0  0
  -22.8020  -10.2030   20.2110 C   0  0  0  0  0  3  0  0  0  0  0  0
  -21.7940   -6.9140   21.4490 O   0  0  0  0  0  0  0  0  0  0  0  0
  -21.7350   -6.2020   22.6190 C   0  0  0  0  0  0  0  0  0  0  0  0
  -21.2760   -6.7790   23.8230 C   0  0  0  0  0  3  0  0  0  0  0  0
  -21.1720   -5.9890   24.9850 C   0  0  0  0  0  3  0  0  0  0  0  0
  -21.5130   -4.6240   24.9430 C   0  0  0  0  0  0  0  0  0  0  0  0
  -21.9660   -4.0470   23.7420 C   0  0  0  0  0  3  0  0  0  0  0  0
  -22.0750   -4.8360   22.5840 C   0  0  0  0  0  0  0  0  0  0  0  0
  -22.4940   -4.2760   21.4230 F   0  0  0  0  0  0  0  0  0  0  0  0
  -21.4010   -3.8600   26.0540 F   0  0  0  0  0  0  0  0  0  0  0  0
  -22.8440  -13.6090   21.0470 C   0  0  0  0  0  0  0  0  0  0  0  0
  -22.1190  -12.9290   21.9300 N   0  0  0  0  0  0  0  0  0  0  0  0
  -22.4090  -14.6220   20.5060 O   0  0  0  0  0  0  0  0  0  0  0  0
  -22.4890  -12.1150   22.3940 H   0  0  0  0  0  0  0  0  0  0  0  0
  -21.1890  -13.2470   22.1610 H   0  0  0  0  0  0  0  0  0  0  0  0
  -25.5510  -15.1840   20.1680 N   0  0  0  0  0  0  0  0  0  0  0  0
  -24.8050  -15.8650   20.2190 H   0  0  0  0  0  0  0  0  0  0  0  0
  -26.4000  -15.5480   19.7580 H   0  0  0  0  0  0  0  0  0  0  0  0
  -28.3470  -25.1350   19.4880 C   0  0  0  0  0  2  0  0  0  0  0  0
  -28.2580  -26.5180   20.0570 O   0  0  0  0  0  0  0  0  0  0  0  0
  -24.5900  -31.8910   23.1580 C   0  0  0  0  0  0  0  0  0  0  0  0
  -27.1360  -27.3620   19.9790 C   0  0  0  0  0  0  0  0  0  0  0  0
  -23.3560  -30.5240   21.5150 C   0  0  0  0  0  3  0  0  0  0  0  0
  -24.7750  -28.9880   20.0340 C   0  0  0  0  0  0  0  0  0  0  0  0
  -25.8910  -30.8330   21.2980 C   0  0  0  0  0  2  0  0  0  0  0  0
  -25.9550  -29.4650   20.6200 C   0  0  0  0  0  0  0  0  0  0  0  0
  -27.1330  -28.6610   20.5850 C   0  0  0  0  0  3  0  0  0  0  0  0
  -25.9390  -26.9410   19.3650 C   0  0  0  0  0  3  0  0  0  0  0  0
  -24.7700  -27.7320   19.4010 C   0  0  0  0  0  3  0  0  0  0  0  0
  -23.5430  -29.8670   20.1210 C   0  0  0  0  0  2  0  0  0  0  0  0
  -24.6320  -31.1030   22.0450 N   0  0  0  0  0  0  0  0  0  0  0  0
  -23.5170  -32.1610   23.7170 O   0  0  0  0  0  0  0  0  0  0  0  0
  -22.7080  -29.4940   22.4720 C   0  0  0  0  0  0  0  0  0  0  0  0
  -21.3820  -29.3080   22.3550 N   0  0  0  0  0  0  0  0  0  0  0  0
  -23.3980  -28.8640   23.2780 O   0  0  0  0  0  0  0  0  0  0  0  0
  -20.8830  -29.8640   21.6740 H   0  0  0  0  0  0  0  0  0  0  0  0
  -18.0220  -28.0710   22.8540 C   0  0  0  0  0  0  0  0  0  0  0  0
  -20.5770  -28.3590   23.1230 C   0  0  0  0  0  3  0  0  0  0  0  0
  -20.6970  -26.9320   22.5410 C   0  0  0  0  0  2  0  0  0  0  0  0
  -19.5970  -26.6020   21.5260 C   0  0  0  0  0  2  0  0  0  0  0  0
  -18.2150  -26.7270   22.1720 C   0  0  0  0  0  2  0  0  0  0  0  0
  -19.1320  -28.8440   23.2860 C   0  0  0  0  0  0  0  0  0  0  0  0
  -18.8970  -30.1030   23.8830 C   0  0  0  0  0  3  0  0  0  0  0  0
  -17.5870  -30.5850   24.0530 C   0  0  0  0  0  3  0  0  0  0  0  0
  -16.4910  -29.8090   23.6360 C   0  0  0  0  0  3  0  0  0  0  0  0
  -16.7110  -28.5550   23.0410 C   0  0  0  0  0  3  0  0  0  0  0  0
  -25.8860  -32.5110   23.7690 C   0  0  0  0  0  3  0  0  0  0  0  0
  -26.4190  -31.7230   25.0290 C   0  0  1  0  0  0  0  0  0  0  0  0
  -25.3400  -31.4760   26.1100 C   0  0  0  0  0  1  0  0  0  0  0  0
  -26.9880  -30.3450   24.6160 C   0  0  0  0  0  1  0  0  0  0  0  0
  -27.5850  -32.5020   25.6790 C   0  0  0  0  0  1  0  0  0  0  0  0
  -25.5870  -33.9060   24.1190 N   0  0  0  0  0  0  0  0  0  0  0  0
  -25.9220  -34.9680   23.3740 C   0  0  0  0  0  0  0  0  0  0  0  0
  -26.5850  -34.8750   22.3370 O   0  0  0  0  0  0  0  0  0  0  0  0
  -24.9950  -34.0530   24.9240 H   0  0  0  0  0  0  0  0  0  0  0  0
  -24.2090  -36.7810   23.0590 C   0  0  0  0  0  1  0  0  0  0  0  0
  -25.4500  -36.3530   23.8570 C   0  0  0  0  0  3  0  0  0  0  0  0
  -27.5950  -37.2090   24.6940 C   0  0  0  0  0  1  0  0  0  0  0  0
  -26.4920  -37.3990   23.7550 N   0  0  0  0  0  0  0  0  0  0  0  0
  -26.0950  -38.3210   23.9130 H   0  0  0  0  0  0  0  0  0  0  0  0
  1  5  1  0
  2  5  1  0
  3 53  1  0
  3  4  1  0
  3  1  1  0
  4  7  1  0
  4  2  1  0
  5  6  1  0
  7 10  1  0
  8  7  1  0
  9  7  1  0
 11 12  1  0
 11 13  1  0
 12 14  1  0
 13 14  1  0
 13 10  1  0
 14 23  1  0
 15 23  1  0
 16 21  1  0
 17 18  1  0
 17 16  1  0
 19 18  1  0
 19 28  1  0
 19 20  1  0
 21 15  1  0
 21 20  1  0
 22 15  2  0
 23 24  1  0
 25 26  2  0
 26 27  1  0
 26 45  1  0
 27 30  1  0
 28 25  1  0
 28 29  1  0
 29 27  2  0
 30 31  1  0
 31 32  2  0
 33 36  1  0
 33 32  1  0
 34 33  2  0
 35 34  1  0
 35 30  2  0
 36 37  1  0
 37 38  1  0
 38 39  2  0
 40 39  1  0
 40 44  1  0
 41 40  2  0
 42 37  2  0
 42 41  1  0
 43 42  1  0
 45 46  1  0
 46 49  1  0
 46 48  1  0
 47 45  2  0
 50 51  1  0
 50 25  1  0
 52 50  1  0
 53 54  1  0
 55 66  2  0
 56 54  1  0
 56 61  1  0
 57 65  1  0
 57 67  1  0
 58 64  1  0
 58 60  1  0
 59 65  1  0
 60 59  1  0
 61 60  2  0
 62 63  1  0
 62 56  2  0
 63 58  2  0
 64 57  1  0
 65 55  1  0
 67 69  2  0
 68 67  1  0
 70 68  1  0
 71 80  2  0
 71 76  1  0
 72 68  1  0
 72 76  1  0
 73 72  1  0
 74 75  1  0
 74 73  1  0
 75 71  1  0
 76 77  2  0
 77 78  1  0
 79 78  2  0
 80 79  1  0
 81 55  1  0
 81 86  1  0
 81 82  1  0
 82 85  1  1
 82 83  1  0
 84 82  1  0
 86 89  1  0
 87 91  1  0
 87 86  1  0
 88 87  2  0
 91 90  1  0
 93 91  1  0
 93 94  1  0
 93 92  1  0
M  ISO  4  15 100  23 100  53 101  54 101
M  END
>  <TORSDO>  (21) 
F 20

>  <SCORE>  (21) 
-13.530

>  <name>  (21) 
20

>  <ligand_id>  (21) 
20

>  <original_smiles>  (21) 
[H]c1c([H])c([H])c2c(c1[H])C([H])([H])C([H])([H])C([H])([H])C2([H])N([H])C(=O)C1([H])N(C(=O)C([H])(N([H])C(=O)C([H])(N([H])C([H])([H])[H])C([H])([H])[H])C(C([H])([H])[H])(C([H])([H])[H])C([H])([H])[H])C([H])([H])c2c([H])c(OC([H])([H])C3([H])C([H])([H])N([H])C([H])([H])C3([H])[N+]([H])([H])C([H])([H])C3([H])C([H])([H])C([H])([H])C3([H])N([H])C(=O)N3C([H])([H])C([H])([H])C([H])([H])C([H])(n4nc(-c5c([H])c([H])c(Oc6c([H])c([H])c(F)c([H])c6F)c([H])c5[H])c(C(=O)N([H])[H])c4N([H])[H])C3([H])[H])c([H])c([H])c2C1([H])[H]

>  <smiles>  (21) 
[H]c1c([H])c([H])c2c(c1[H])C([H])([H])C([H])([H])C([H])([H])C2([H])N([H])C(=O)C1([H])N(C(=O)C([H])(N([H])C(=O)C([H])(N([H])C([H])([H])[H])C([H])([H])[H])C(C([H])([H])[H])(C([H])([H])[H])C([H])([H])[H])C([H])([H])c2c([H])c(OC([H])([H])C3([H])C([H])([H])N([H])C([H])([H])C3([H])[N+]([H])([H])C([H])([H])C3([H])C([H])([H])C([H])([H])C3([H])N([H])C(=O)N3C([H])([H])C([H])([H])C([H])([H])C([H])(n4nc(-c5c([H])c([H])c(Oc6c([H])c([H])c(F)c([H])c6F)c([H])c5[H])c(C(=O)N([H])[H])c4N([H])[H])C3([H])[H])c([H])c([H])c2C1([H])[H]

$$$$
21:0:0
     RDKit          3D

 93102  0  0  1  0  0  0  0  0999 V2000
  -30.3280  -22.4090   21.5510 C   0  0  0  0  0  3  0  0  0  0  0  0
  -29.1990  -21.0680   20.4490 C   0  0  0  0  0  0  0  0  0  0  0  0
  -31.3010  -23.0200   22.5030 C   0  0  0  0  0  1  0  0  0  0  0  0
  -30.1180  -21.0970   21.4500 N   0  0  0  0  0  0  0  0  0  0  0  0
  -28.8420  -22.2570   19.9580 N   0  0  0  0  0  2  0  0  0  0  0  0
  -29.5840  -23.1330   20.6980 N   0  0  0  0  0  0  0  0  0  0  0  0
  -28.6640  -19.8510   19.9690 N   0  0  0  0  0  0  0  0  0  0  0  0
  -28.0350  -19.9700   19.1820 H   0  0  0  0  0  0  0  0  0  0  0  0
  -30.7000  -14.5320   20.0280 C   0  0  0  0  0  0  0  0  0  0  0  0
  -30.3470  -12.3390   18.9670 C   0  0  0  0  0  2  0  0  0  0  0  0
  -29.3410  -12.5150   17.8100 C   0  0  0  0  0  2  0  0  0  0  0  0
  -27.8920  -12.3840   18.3210 C   0  0  0  0  0  2  0  0  0  0  0  0
  -27.6170  -13.2380   19.5880 C   0  0  0  0  0  3  0  0  0  0  0  0
  -28.7370  -13.0510   20.6370 C   0  0  0  0  0  2  0  0  0  0  0  0
  -30.0160  -13.3530   19.9800 N   0  0  0  0  0  0  0  0  0  0  0  0
  -31.8650  -14.6160   19.6290 O   0  0  0  0  0  0  0  0  0  0  0  0
  -29.1220  -17.7320   18.7790 C   0  0  0  0  0  2  0  0  0  0  0  0
  -29.3620  -17.7990   21.2860 C   0  0  0  0  0  2  0  0  0  0  0  0
  -30.0320  -16.4930   18.7600 C   0  0  0  0  0  2  0  0  0  0  0  0
  -29.2390  -16.2480   21.1330 C   0  0  0  0  0  2  0  0  0  0  0  0
  -29.4700  -18.6220   19.9750 C   0  0  0  0  0  3  0  0  0  0  0  0
  -29.9220  -15.6500   19.9660 N   0  0  0  0  0  0  0  0  0  0  0  0
  -25.2770  -13.8460   20.4630 C   0  0  0  0  0  0  0  0  0  0  0  0
  -24.2240  -13.0730   20.8710 C   0  0  0  0  0  0  0  0  0  0  0  0
  -24.6650  -11.7180   20.7700 C   0  0  0  0  0  0  0  0  0  0  0  0
  -26.2940  -12.9610   20.1430 N   0  0  0  0  0  0  0  0  0  0  0  0
  -25.9340  -11.6750   20.3870 N   0  0  0  0  0  0  0  0  0  0  0  0
  -23.9350  -10.4580   20.9630 C   0  0  0  0  0  0  0  0  0  0  0  0
  -24.3770   -9.4840   21.8840 C   0  0  0  0  0  3  0  0  0  0  0  0
  -23.6480   -8.2880   22.0660 C   0  0  0  0  0  3  0  0  0  0  0  0
  -22.4640   -8.0590   21.3250 C   0  0  0  0  0  0  0  0  0  0  0  0
  -22.0420   -9.0230   20.3920 C   0  0  0  0  0  3  0  0  0  0  0  0
  -22.7710  -10.2090   20.2090 C   0  0  0  0  0  3  0  0  0  0  0  0
  -21.7060   -6.9160   21.4160 O   0  0  0  0  0  0  0  0  0  0  0  0
  -21.6180   -6.2040   22.5840 C   0  0  0  0  0  0  0  0  0  0  0  0
  -21.1440   -6.7880   23.7800 C   0  0  0  0  0  3  0  0  0  0  0  0
  -21.0030   -6.0010   24.9400 C   0  0  0  0  0  3  0  0  0  0  0  0
  -21.3260   -4.6300   24.9060 C   0  0  0  0  0  0  0  0  0  0  0  0
  -21.7930   -4.0460   23.7150 C   0  0  0  0  0  3  0  0  0  0  0  0
  -21.9350   -4.8310   22.5580 C   0  0  0  0  0  0  0  0  0  0  0  0
  -22.3660   -4.2590   21.4070 F   0  0  0  0  0  0  0  0  0  0  0  0
  -21.1830   -3.8720   26.0170 F   0  0  0  0  0  0  0  0  0  0  0  0
  -22.8510  -13.5570   21.2400 C   0  0  0  0  0  0  0  0  0  0  0  0
  -22.1690  -12.8440   22.1300 N   0  0  0  0  0  0  0  0  0  0  0  0
  -22.3930  -14.5990   20.7750 O   0  0  0  0  0  0  0  0  0  0  0  0
  -22.5510  -12.0000   22.5300 H   0  0  0  0  0  0  0  0  0  0  0  0
  -21.2490  -13.1480   22.4180 H   0  0  0  0  0  0  0  0  0  0  0  0
  -25.4470  -15.2200   20.3170 N   0  0  0  0  0  0  0  0  0  0  0  0
  -24.6980  -15.8800   20.4930 H   0  0  0  0  0  0  0  0  0  0  0  0
  -26.2850  -15.6570   19.9550 H   0  0  0  0  0  0  0  0  0  0  0  0
  -29.6120  -24.5850   20.4390 C   0  0  0  0  0  2  0  0  0  0  0  0
  -28.2610  -25.2560   20.1020 C   0  0  0  0  0  2  0  0  0  0  0  0
  -28.3770  -26.6950   20.1660 O   0  0  0  0  0  0  0  0  0  0  0  0
  -24.6000  -31.8840   23.2780 C   0  0  0  0  0  0  0  0  0  0  0  0
  -27.2070  -27.4330   20.1600 C   0  0  0  0  0  0  0  0  0  0  0  0
  -23.3810  -30.4990   21.6330 C   0  0  0  0  0  3  0  0  0  0  0  0
  -24.8210  -28.9640   20.1930 C   0  0  0  0  0  0  0  0  0  0  0  0
  -25.9110  -30.8450   21.4270 C   0  0  0  0  0  2  0  0  0  0  0  0
  -25.9870  -29.4770   20.7740 C   0  0  0  0  0  0  0  0  0  0  0  0
  -27.1840  -28.7220   20.7470 C   0  0  0  0  0  3  0  0  0  0  0  0
  -26.0180  -26.9380   19.5750 C   0  0  0  0  0  3  0  0  0  0  0  0
  -24.8330  -27.6960   19.5900 C   0  0  0  0  0  3  0  0  0  0  0  0
  -23.5820  -29.8300   20.2480 C   0  0  0  0  0  2  0  0  0  0  0  0
  -24.6490  -31.0900   22.1710 N   0  0  0  0  0  0  0  0  0  0  0  0
  -23.5210  -32.1570   23.8230 O   0  0  0  0  0  0  0  0  0  0  0  0
  -22.7280  -29.4740   22.5880 C   0  0  0  0  0  0  0  0  0  0  0  0
  -21.4050  -29.2880   22.4540 N   0  0  0  0  0  0  0  0  0  0  0  0
  -23.4100  -28.8480   23.4050 O   0  0  0  0  0  0  0  0  0  0  0  0
  -20.9160  -29.8440   21.7660 H   0  0  0  0  0  0  0  0  0  0  0  0
  -18.0300  -28.0850   22.9360 C   0  0  0  0  0  0  0  0  0  0  0  0
  -20.5870  -28.3480   23.2200 C   0  0  0  0  0  3  0  0  0  0  0  0
  -20.6940  -26.9190   22.6410 C   0  0  0  0  0  2  0  0  0  0  0  0
  -19.5980  -26.5950   21.6210 C   0  0  0  0  0  2  0  0  0  0  0  0
  -18.2130  -26.7370   22.2600 C   0  0  0  0  0  2  0  0  0  0  0  0
  -19.1470  -28.8490   23.3730 C   0  0  0  0  0  0  0  0  0  0  0  0
  -18.9230  -30.1110   23.9650 C   0  0  0  0  0  3  0  0  0  0  0  0
  -17.6160  -30.6110   24.1240 C   0  0  0  0  0  3  0  0  0  0  0  0
  -16.5150  -29.8440   23.7030 C   0  0  0  0  0  3  0  0  0  0  0  0
  -16.7230  -28.5840   23.1150 C   0  0  0  0  0  3  0  0  0  0  0  0
  -25.8900  -32.5050   23.8980 C   0  0  0  0  0  3  0  0  0  0  0  0
  -25.5930  -33.9050   24.2280 N   0  0  0  0  0  0  0  0  0  0  0  0
  -25.9180  -34.9520   23.4590 C   0  0  0  0  0  0  0  0  0  0  0  0
  -26.5700  -34.8410   22.4170 O   0  0  0  0  0  0  0  0  0  0  0  0
  -25.0100  -34.0660   25.0370 H   0  0  0  0  0  0  0  0  0  0  0  0
  -24.1820  -36.7420   23.1330 C   0  0  0  0  0  1  0  0  0  0  0  0
  -25.4420  -36.3440   23.9170 C   0  0  0  0  0  3  0  0  0  0  0  0
  -27.5950  -37.2340   24.6910 C   0  0  0  0  0  1  0  0  0  0  0  0
  -26.4730  -37.3950   23.7710 N   0  0  0  0  0  0  0  0  0  0  0  0
  -26.0710  -38.3170   23.9180 H   0  0  0  0  0  0  0  0  0  0  0  0
  -26.4040  -31.7280   25.1710 C   0  0  1  0  0  0  0  0  0  0  0  0
  -25.3110  -31.4920   26.2390 C   0  0  0  0  0  1  0  0  0  0  0  0
  -26.9800  -30.3490   24.7740 C   0  0  0  0  0  1  0  0  0  0  0  0
  -27.5610  -32.5140   25.8340 C   0  0  0  0  0  1  0  0  0  0  0  0
  1  3  1  0
  2  4  2  0
  4  1  1  0
  5  2  1  0
  5  6  1  0
  6  1  1  0
  7  2  1  0
  8  7  1  0
 10 15  1  0
 11 12  1  0
 11 10  1  0
 13 12  1  0
 13 26  1  0
 13 14  1  0
 15  9  1  0
 15 14  1  0
 16  9  2  0
 17 21  1  0
 19 17  1  0
 19 22  1  0
 20 18  1  0
 21  7  1  0
 21 18  1  0
 22  9  1  0
 22 20  1  0
 23 24  2  0
 24 43  1  0
 25 24  1  0
 25 28  1  0
 26 27  1  0
 26 23  1  0
 27 25  2  0
 28 29  1  0
 29 30  2  0
 31 34  1  0
 31 30  1  0
 32 31  2  0
 33 32  1  0
 33 28  2  0
 34 35  1  0
 35 36  1  0
 36 37  2  0
 38 37  1  0
 38 42  1  0
 39 38  2  0
 40 35  2  0
 40 39  1  0
 41 40  1  0
 43 44  1  0
 44 47  1  0
 44 46  1  0
 45 43  2  0
 48 23  1  0
 48 49  1  0
 50 48  1  0
 51  6  1  0
 52 53  1  0
 52 51  1  0
 54 65  2  0
 55 53  1  0
 55 60  1  0
 56 64  1  0
 56 66  1  0
 57 63  1  0
 57 59  1  0
 58 64  1  0
 59 58  1  0
 60 59  2  0
 61 62  1  0
 61 55  2  0
 62 57  2  0
 63 56  1  0
 64 54  1  0
 66 68  2  0
 67 66  1  0
 69 67  1  0
 70 79  2  0
 70 75  1  0
 71 67  1  0
 71 75  1  0
 72 71  1  0
 73 74  1  0
 73 72  1  0
 74 70  1  0
 75 76  2  0
 76 77  1  0
 78 77  2  0
 79 78  1  0
 80 54  1  0
 80 81  1  0
 80 90  1  0
 81 84  1  0
 82 86  1  0
 82 81  1  0
 83 82  2  0
 86 85  1  0
 88 86  1  0
 88 89  1  0
 88 87  1  0
 90 93  1  1
 90 91  1  0
 92 90  1  0
M  ISO  4   9 100  22 100  52 101  53 101
M  END
>  <TORSDO>  (22) 
F 18

>  <SCORE>  (22) 
-13.538

>  <name>  (22) 
21

>  <ligand_id>  (22) 
21

>  <original_smiles>  (22) 
[H]c1c([H])c([H])c2c(c1[H])C([H])([H])C([H])([H])C([H])([H])C2([H])N([H])C(=O)C1([H])N(C(=O)C([H])(N([H])C(=O)C([H])(N([H])C([H])([H])[H])C([H])([H])[H])C(C([H])([H])[H])(C([H])([H])[H])C([H])([H])[H])C([H])([H])c2c([H])c(OC([H])([H])C([H])([H])n3nc(N([H])C4([H])C([H])([H])C([H])([H])N(C(=O)N5C([H])([H])C([H])([H])C([H])([H])C([H])(n6nc(-c7c([H])c([H])c(Oc8c([H])c([H])c(F)c([H])c8F)c([H])c7[H])c(C(=O)N([H])[H])c6N([H])[H])C5([H])[H])C([H])([H])C4([H])[H])nc3C([H])([H])[H])c([H])c([H])c2C1([H])[H]

>  <smiles>  (22) 
[H]c1c([H])c([H])c2c(c1[H])C([H])([H])C([H])([H])C([H])([H])C2([H])N([H])C(=O)C1([H])N(C(=O)C([H])(N([H])C(=O)C([H])(N([H])C([H])([H])[H])C([H])([H])[H])C(C([H])([H])[H])(C([H])([H])[H])C([H])([H])[H])C([H])([H])c2c([H])c(OC([H])([H])C([H])([H])n3nc(N([H])C4([H])C([H])([H])C([H])([H])N(C(=O)N5C([H])([H])C([H])([H])C([H])([H])C([H])(n6nc(-c7c([H])c([H])c(Oc8c([H])c([H])c(F)c([H])c8F)c([H])c7[H])c(C(=O)N([H])[H])c6N([H])[H])C5([H])[H])C([H])([H])C4([H])[H])nc3C([H])([H])[H])c([H])c([H])c2C1([H])[H]

$$$$
22:0:0
     RDKit          3D

 92101  0  0  1  0  0  0  0  0999 V2000
  -29.4590  -22.4130   21.5140 C   0  0  0  0  0  2  0  0  0  0  0  0
  -29.1680  -21.8170   19.5910 C   0  0  0  0  0  2  0  0  0  0  0  0
  -29.2860  -21.0110   20.8990 C   0  0  0  0  0  3  0  0  0  0  0  0
  -28.6710  -22.9440   20.3960 N   0  0  2  0  0  4  0  0  0  0  0  0
  -27.6830  -22.8190   20.5670 H   0  0  0  0  0  0  0  0  0  0  0  0
  -30.3670  -19.9260   21.1320 C   0  0  0  0  0  2  0  0  0  0  0  0
  -30.6860  -14.5640   20.1130 C   0  0  0  0  0  0  0  0  0  0  0  0
  -30.3390  -12.4290   18.9330 C   0  0  0  0  0  2  0  0  0  0  0  0
  -29.3260  -12.6540   17.7900 C   0  0  0  0  0  2  0  0  0  0  0  0
  -27.8810  -12.4920   18.3000 C   0  0  0  0  0  2  0  0  0  0  0  0
  -27.6080  -13.2990   19.5970 C   0  0  0  0  0  3  0  0  0  0  0  0
  -28.7260  -13.0640   20.6380 C   0  0  0  0  0  2  0  0  0  0  0  0
  -30.0150  -13.3840   20.0010 N   0  0  0  0  0  0  0  0  0  0  0  0
  -31.8060  -14.7470   19.6290 O   0  0  0  0  0  0  0  0  0  0  0  0
  -29.7610  -16.1420   21.7750 C   0  0  0  0  0  2  0  0  0  0  0  0
  -29.5370  -16.5970   19.3510 C   0  0  0  0  0  2  0  0  0  0  0  0
  -30.3620  -17.5620   21.9540 C   0  0  0  0  0  2  0  0  0  0  0  0
  -30.1540  -17.9990   19.5580 C   0  0  0  0  0  2  0  0  0  0  0  0
  -29.9020  -15.6310   20.4050 N   0  0  0  0  0  0  0  0  0  0  0  0
  -29.8840  -18.5220   20.9200 N   0  0  2  0  0  4  0  0  0  0  0  0
  -28.8820  -18.5540   21.0270 H   0  0  0  0  0  0  0  0  0  0  0  0
  -25.2460  -13.8850   20.4440 C   0  0  0  0  0  0  0  0  0  0  0  0
  -24.2010  -13.0990   20.8510 C   0  0  0  0  0  0  0  0  0  0  0  0
  -24.6670  -11.7510   20.7710 C   0  0  0  0  0  0  0  0  0  0  0  0
  -26.2830  -13.0120   20.1430 N   0  0  0  0  0  0  0  0  0  0  0  0
  -25.9390  -11.7240   20.3960 N   0  0  0  0  0  0  0  0  0  0  0  0
  -23.9590  -10.4800   20.9740 C   0  0  0  0  0  0  0  0  0  0  0  0
  -24.4180   -9.5190   21.9010 C   0  0  0  0  0  3  0  0  0  0  0  0
  -23.7100   -8.3130   22.0910 C   0  0  0  0  0  3  0  0  0  0  0  0
  -22.5290   -8.0590   21.3540 C   0  0  0  0  0  0  0  0  0  0  0  0
  -22.0890   -9.0090   20.4160 C   0  0  0  0  0  3  0  0  0  0  0  0
  -22.7980  -10.2080   20.2240 C   0  0  0  0  0  3  0  0  0  0  0  0
  -21.7920   -6.9030   21.4530 O   0  0  0  0  0  0  0  0  0  0  0  0
  -21.7300   -6.1860   22.6200 C   0  0  0  0  0  0  0  0  0  0  0  0
  -21.2700   -6.7630   23.8240 C   0  0  0  0  0  3  0  0  0  0  0  0
  -21.1550   -5.9730   24.9850 C   0  0  0  0  0  3  0  0  0  0  0  0
  -21.4910   -4.6060   24.9430 C   0  0  0  0  0  0  0  0  0  0  0  0
  -21.9460   -4.0290   23.7450 C   0  0  0  0  0  3  0  0  0  0  0  0
  -22.0610   -4.8170   22.5860 C   0  0  0  0  0  0  0  0  0  0  0  0
  -22.4780   -4.2510   21.4270 F   0  0  0  0  0  0  0  0  0  0  0  0
  -21.3740   -3.8450   26.0560 F   0  0  0  0  0  0  0  0  0  0  0  0
  -22.8170  -13.5630   21.2020 C   0  0  0  0  0  0  0  0  0  0  0  0
  -22.1380  -12.8480   22.0930 N   0  0  0  0  0  0  0  0  0  0  0  0
  -22.3470  -14.5950   20.7240 O   0  0  0  0  0  0  0  0  0  0  0  0
  -22.5310  -12.0160   22.5050 H   0  0  0  0  0  0  0  0  0  0  0  0
  -21.2120  -13.1420   22.3710 H   0  0  0  0  0  0  0  0  0  0  0  0
  -25.3950  -15.2590   20.2860 N   0  0  0  0  0  0  0  0  0  0  0  0
  -24.6290  -15.9050   20.4380 H   0  0  0  0  0  0  0  0  0  0  0  0
  -26.2250  -15.7070   19.9200 H   0  0  0  0  0  0  0  0  0  0  0  0
  -28.9740  -24.3280   19.9160 C   0  0  0  0  0  2  0  0  0  0  0  0
  -28.3360  -25.4320   20.8020 C   0  0  0  0  0  2  0  0  0  0  0  0
  -28.4310  -26.7600   20.2360 O   0  0  0  0  0  0  0  0  0  0  0  0
  -24.5930  -31.9600   23.2610 C   0  0  0  0  0  0  0  0  0  0  0  0
  -27.2640  -27.4990   20.2290 C   0  0  0  0  0  0  0  0  0  0  0  0
  -23.3960  -30.5440   21.6240 C   0  0  0  0  0  3  0  0  0  0  0  0
  -24.8620  -28.9990   20.2160 C   0  0  0  0  0  0  0  0  0  0  0  0
  -25.9230  -30.9100   21.4300 C   0  0  0  0  0  2  0  0  0  0  0  0
  -26.0170  -29.5330   20.8010 C   0  0  0  0  0  0  0  0  0  0  0  0
  -27.2240  -28.7920   20.7970 C   0  0  0  0  0  3  0  0  0  0  0  0
  -26.0930  -26.9800   19.6340 C   0  0  0  0  0  3  0  0  0  0  0  0
  -24.8960  -27.7230   19.6260 C   0  0  0  0  0  3  0  0  0  0  0  0
  -23.6140  -29.8520   20.2520 C   0  0  0  0  0  2  0  0  0  0  0  0
  -24.6550  -31.1540   22.1630 N   0  0  0  0  0  0  0  0  0  0  0  0
  -23.5090  -32.2320   23.7970 O   0  0  0  0  0  0  0  0  0  0  0  0
  -22.7440  -29.5290   22.5900 C   0  0  0  0  0  0  0  0  0  0  0  0
  -21.4200  -29.3400   22.4550 N   0  0  0  0  0  0  0  0  0  0  0  0
  -23.4260  -28.9130   23.4120 O   0  0  0  0  0  0  0  0  0  0  0  0
  -20.9330  -29.8870   21.7610 H   0  0  0  0  0  0  0  0  0  0  0  0
  -18.0520  -28.1220   22.9280 C   0  0  0  0  0  0  0  0  0  0  0  0
  -20.6030  -28.4040   23.2270 C   0  0  0  0  0  3  0  0  0  0  0  0
  -20.7250  -26.9670   22.6690 C   0  0  0  0  0  2  0  0  0  0  0  0
  -19.6380  -26.6250   21.6440 C   0  0  0  0  0  2  0  0  0  0  0  0
  -18.2470  -26.7680   22.2690 C   0  0  0  0  0  2  0  0  0  0  0  0
  -19.1590  -28.8980   23.3620 C   0  0  0  0  0  0  0  0  0  0  0  0
  -18.9240  -30.1670   23.9350 C   0  0  0  0  0  3  0  0  0  0  0  0
  -17.6130  -30.6600   24.0800 C   0  0  0  0  0  3  0  0  0  0  0  0
  -16.5200  -29.8820   23.6610 C   0  0  0  0  0  3  0  0  0  0  0  0
  -16.7400  -28.6150   23.0910 C   0  0  0  0  0  3  0  0  0  0  0  0
  -25.8760  -32.5970   23.8820 C   0  0  0  0  0  3  0  0  0  0  0  0
  -26.3930  -31.8360   25.1640 C   0  0  1  0  0  0  0  0  0  0  0  0
  -25.2970  -31.6020   26.2310 C   0  0  0  0  0  1  0  0  0  0  0  0
  -26.9840  -30.4600   24.7820 C   0  0  0  0  0  1  0  0  0  0  0  0
  -27.5390  -32.6420   25.8230 C   0  0  0  0  0  1  0  0  0  0  0  0
  -25.5650  -33.9980   24.1980 N   0  0  0  0  0  0  0  0  0  0  0  0
  -25.9040  -35.0430   23.4340 C   0  0  0  0  0  0  0  0  0  0  0  0
  -26.5820  -34.9320   22.4090 O   0  0  0  0  0  0  0  0  0  0  0  0
  -24.9610  -34.1580   24.9910 H   0  0  0  0  0  0  0  0  0  0  0  0
  -24.1780  -36.8320   23.0510 C   0  0  0  0  0  1  0  0  0  0  0  0
  -25.4120  -36.4350   23.8760 C   0  0  0  0  0  3  0  0  0  0  0  0
  -27.5410  -37.3260   24.7150 C   0  0  0  0  0  1  0  0  0  0  0  0
  -26.4470  -37.4870   23.7620 N   0  0  0  0  0  0  0  0  0  0  0  0
  -26.0390  -38.4080   23.9000 H   0  0  0  0  0  0  0  0  0  0  0  0
  2  4  1  0
  2  3  1  0
  3  6  1  0
  3  1  1  0
  4  5  1  1
  4  1  1  0
  7 19  1  0
  8 13  1  0
  9 10  1  0
  9  8  1  0
 11 10  1  0
 11 25  1  0
 11 12  1  0
 13  7  1  0
 13 12  1  0
 14  7  2  0
 15 17  1  0
 16 18  1  0
 16 19  1  0
 18 20  1  0
 19 15  1  0
 20 21  1  6
 20  6  1  0
 20 17  1  0
 22 23  2  0
 23 42  1  0
 24 23  1  0
 24 27  1  0
 25 26  1  0
 25 22  1  0
 26 24  2  0
 27 28  1  0
 28 29  2  0
 30 33  1  0
 30 29  1  0
 31 30  2  0
 32 31  1  0
 32 27  2  0
 33 34  1  0
 34 35  1  0
 35 36  2  0
 37 36  1  0
 37 41  1  0
 38 37  2  0
 39 34  2  0
 39 38  1  0
 40 39  1  0
 42 43  1  0
 43 46  1  0
 43 45  1  0
 44 42  2  0
 47 48  1  0
 47 22  1  0
 49 47  1  0
 50  4  1  0
 50 51  1  0
 52 51  1  0
 53 64  2  0
 54 52  1  0
 54 59  1  0
 55 63  1  0
 55 65  1  0
 56 62  1  0
 56 58  1  0
 57 63  1  0
 58 57  1  0
 59 58  2  0
 60 54  2  0
 61 60  1  0
 61 56  2  0
 62 55  1  0
 63 53  1  0
 65 67  2  0
 66 65  1  0
 68 66  1  0
 69 78  2  0
 69 74  1  0
 70 66  1  0
 70 74  1  0
 71 70  1  0
 72 73  1  0
 72 71  1  0
 73 69  1  0
 74 75  2  0
 75 76  1  0
 77 76  2  0
 78 77  1  0
 79 53  1  0
 79 84  1  0
 79 80  1  0
 80 83  1  1
 80 81  1  0
 82 80  1  0
 84 87  1  0
 85 89  1  0
 85 84  1  0
 86 85  2  0
 89 88  1  0
 91 89  1  0
 91 92  1  0
 91 90  1  0
M  ISO  4   7 100  19 100  51 101  52 101
M  END
>  <TORSDO>  (23) 
F 19

>  <SCORE>  (23) 
-14.170

>  <name>  (23) 
22

>  <ligand_id>  (23) 
22

>  <original_smiles>  (23) 
[H]c1c([H])c([H])c2c(c1[H])C([H])([H])C([H])([H])C([H])([H])C2([H])N([H])C(=O)C1([H])N(C(=O)C([H])(N([H])C(=O)C([H])(N([H])C([H])([H])[H])C([H])([H])[H])C(C([H])([H])[H])(C([H])([H])[H])C([H])([H])[H])C([H])([H])c2c([H])c(OC([H])([H])C([H])([H])[N+]3([H])C([H])([H])C([H])(C([H])([H])[N+]4([H])C([H])([H])C([H])([H])N(C(=O)N5C([H])([H])C([H])([H])C([H])([H])C([H])(n6nc(-c7c([H])c([H])c(Oc8c([H])c([H])c(F)c([H])c8F)c([H])c7[H])c(C(=O)N([H])[H])c6N([H])[H])C5([H])[H])C([H])([H])C4([H])[H])C3([H])[H])c([H])c([H])c2C1([H])[H]

>  <smiles>  (23) 
[H]c1c([H])c([H])c2c(c1[H])C([H])([H])C([H])([H])C([H])([H])C2([H])N([H])C(=O)C1([H])N(C(=O)C([H])(N([H])C(=O)C([H])(N([H])C([H])([H])[H])C([H])([H])[H])C(C([H])([H])[H])(C([H])([H])[H])C([H])([H])[H])C([H])([H])c2c([H])c(OC([H])([H])C([H])([H])[N+]3([H])C([H])([H])C([H])(C([H])([H])[N+]4([H])C([H])([H])C([H])([H])N(C(=O)N5C([H])([H])C([H])([H])C([H])([H])C([H])(n6nc(-c7c([H])c([H])c(Oc8c([H])c([H])c(F)c([H])c8F)c([H])c7[H])c(C(=O)N([H])[H])c6N([H])[H])C5([H])[H])C([H])([H])C4([H])[H])C3([H])[H])c([H])c([H])c2C1([H])[H]

$$$$
23:0:0
     RDKit          3D

 92101  0  0  1  0  0  0  0  0999 V2000
  -30.0170  -19.3380   20.7990 C   0  0  0  0  0  0  0  0  0  0  0  0
  -29.7020  -21.5650   20.6350 C   0  0  0  0  0  0  0  0  0  0  0  0
  -31.6840  -20.7620   21.1880 C   0  0  0  0  0  0  0  0  0  0  0  0
  -29.1640  -20.3460   20.5230 N   0  0  0  0  0  4  0  0  0  0  0  0
  -31.2960  -19.4940   21.1130 N   0  0  0  0  0  0  0  0  0  0  0  0
  -30.9440  -21.8440   20.9660 N   0  0  0  0  0  2  0  0  0  0  0  0
  -28.8830  -22.6700   20.3740 N   0  0  0  0  0  0  0  0  0  0  0  0
  -33.3310  -21.0350   21.6160 Cl  0  0  0  0  0  0  0  0  0  0  0  0
  -27.9300  -22.4480   20.1130 H   0  0  0  0  0  0  0  0  0  0  0  0
  -30.6230  -14.6200   20.3900 C   0  0  0  0  0  0  0  0  0  0  0  0
  -30.3420  -12.4030   19.3270 C   0  0  0  0  0  2  0  0  0  0  0  0
  -29.3970  -12.5560   18.1160 C   0  0  0  0  0  2  0  0  0  0  0  0
  -27.9270  -12.4140   18.5590 C   0  0  0  0  0  2  0  0  0  0  0  0
  -27.5830  -13.2770   19.8030 C   0  0  0  0  0  3  0  0  0  0  0  0
  -28.6510  -13.1320   20.9100 C   0  0  0  0  0  2  0  0  0  0  0  0
  -29.9570  -13.4310   20.3090 N   0  0  0  0  0  0  0  0  0  0  0  0
  -31.8020  -14.7240   20.0440 O   0  0  0  0  0  0  0  0  0  0  0  0
  -30.0100  -16.8900   19.5870 C   0  0  0  0  0  2  0  0  0  0  0  0
  -30.0120  -16.7200   21.6330 C   0  0  0  0  0  2  0  0  0  0  0  0
  -29.5510  -17.8500   20.6890 C   0  0  0  0  0  3  0  0  0  0  0  0
  -29.8490  -15.7420   20.5250 N   0  0  0  0  0  0  0  0  0  0  0  0
  -25.2020  -13.8760   20.5570 C   0  0  0  0  0  0  0  0  0  0  0  0
  -24.1360  -13.1020   20.9270 C   0  0  0  0  0  0  0  0  0  0  0  0
  -24.5920  -11.7500   20.8750 C   0  0  0  0  0  0  0  0  0  0  0  0
  -26.2400  -12.9950   20.3010 N   0  0  0  0  0  0  0  0  0  0  0  0
  -25.8790  -11.7100   20.5540 N   0  0  0  0  0  0  0  0  0  0  0  0
  -23.8620  -10.4870   21.0560 C   0  0  0  0  0  0  0  0  0  0  0  0
  -24.2880   -9.5130   21.9870 C   0  0  0  0  0  3  0  0  0  0  0  0
  -23.5580   -8.3170   22.1570 C   0  0  0  0  0  3  0  0  0  0  0  0
  -22.3880   -8.0860   21.3960 C   0  0  0  0  0  0  0  0  0  0  0  0
  -21.9800   -9.0490   20.4550 C   0  0  0  0  0  3  0  0  0  0  0  0
  -22.7110  -10.2360   20.2830 C   0  0  0  0  0  3  0  0  0  0  0  0
  -21.6300   -6.9420   21.4760 O   0  0  0  0  0  0  0  0  0  0  0  0
  -21.5580   -6.2060   22.6310 C   0  0  0  0  0  0  0  0  0  0  0  0
  -21.0620   -6.7530   23.8350 C   0  0  0  0  0  3  0  0  0  0  0  0
  -20.9400   -5.9410   24.9800 C   0  0  0  0  0  3  0  0  0  0  0  0
  -21.3030   -4.5830   24.9220 C   0  0  0  0  0  0  0  0  0  0  0  0
  -21.7920   -4.0340   23.7230 C   0  0  0  0  0  3  0  0  0  0  0  0
  -21.9160   -4.8440   22.5800 C   0  0  0  0  0  0  0  0  0  0  0  0
  -22.3670   -4.3050   21.4210 F   0  0  0  0  0  0  0  0  0  0  0  0
  -21.1780   -3.8000   26.0180 F   0  0  0  0  0  0  0  0  0  0  0  0
  -22.7430  -13.5820   21.2180 C   0  0  0  0  0  0  0  0  0  0  0  0
  -22.0210  -12.8820   22.0870 N   0  0  0  0  0  0  0  0  0  0  0  0
  -22.3020  -14.6120   20.7110 O   0  0  0  0  0  0  0  0  0  0  0  0
  -22.3900  -12.0480   22.5200 H   0  0  0  0  0  0  0  0  0  0  0  0
  -21.0880  -13.1880   22.3250 H   0  0  0  0  0  0  0  0  0  0  0  0
  -25.3720  -15.2480   20.3960 N   0  0  0  0  0  0  0  0  0  0  0  0
  -24.6150  -15.9110   20.5280 H   0  0  0  0  0  0  0  0  0  0  0  0
  -26.2330  -15.6840   20.0860 H   0  0  0  0  0  0  0  0  0  0  0  0
  -29.2550  -24.1110   20.4980 C   0  0  0  0  0  2  0  0  0  0  0  0
  -28.1390  -25.1250   20.0450 C   0  0  0  0  0  2  0  0  0  0  0  0
  -28.3500  -26.5610   20.2670 O   0  0  0  0  0  0  0  0  0  0  0  0
  -24.5960  -31.9180   23.2510 C   0  0  0  0  0  0  0  0  0  0  0  0
  -27.2220  -27.3900   20.2000 C   0  0  0  0  0  0  0  0  0  0  0  0
  -23.3980  -30.5250   21.6020 C   0  0  0  0  0  3  0  0  0  0  0  0
  -24.8530  -28.9820   20.1810 C   0  0  0  0  0  0  0  0  0  0  0  0
  -25.9360  -30.8510   21.4290 C   0  0  0  0  0  2  0  0  0  0  0  0
  -26.0180  -29.4750   20.7830 C   0  0  0  0  0  0  0  0  0  0  0  0
  -27.2060  -28.6900   20.7840 C   0  0  0  0  0  3  0  0  0  0  0  0
  -26.0340  -26.9470   19.5700 C   0  0  0  0  0  3  0  0  0  0  0  0
  -24.8610  -27.7220   19.5660 C   0  0  0  0  0  3  0  0  0  0  0  0
  -23.6160  -29.8530   20.2210 C   0  0  0  0  0  2  0  0  0  0  0  0
  -24.6620  -31.1130   22.1520 N   0  0  0  0  0  0  0  0  0  0  0  0
  -23.5120  -32.1980   23.7800 O   0  0  0  0  0  0  0  0  0  0  0  0
  -22.7300  -29.5070   22.5550 C   0  0  0  0  0  0  0  0  0  0  0  0
  -21.4030  -29.3370   22.4210 N   0  0  0  0  0  0  0  0  0  0  0  0
  -23.4010  -28.8740   23.3730 O   0  0  0  0  0  0  0  0  0  0  0  0
  -20.9220  -29.8990   21.7340 H   0  0  0  0  0  0  0  0  0  0  0  0
  -18.0120  -28.1870   22.9240 C   0  0  0  0  0  0  0  0  0  0  0  0
  -20.5740  -28.4030   23.1850 C   0  0  0  0  0  3  0  0  0  0  0  0
  -20.6520  -26.9770   22.5920 C   0  0  0  0  0  2  0  0  0  0  0  0
  -19.5390  -26.6830   21.5800 C   0  0  0  0  0  2  0  0  0  0  0  0
  -18.1630  -26.8420   22.2340 C   0  0  0  0  0  2  0  0  0  0  0  0
  -19.1440  -28.9270   23.3580 C   0  0  0  0  0  0  0  0  0  0  0  0
  -18.9490  -30.1860   23.9640 C   0  0  0  0  0  3  0  0  0  0  0  0
  -17.6520  -30.7060   24.1430 C   0  0  0  0  0  3  0  0  0  0  0  0
  -16.5350  -29.9630   23.7260 C   0  0  0  0  0  3  0  0  0  0  0  0
  -16.7150  -28.7050   23.1230 C   0  0  0  0  0  3  0  0  0  0  0  0
  -25.8790  -32.5440   23.8820 C   0  0  0  0  0  3  0  0  0  0  0  0
  -25.5690  -33.9400   24.2190 N   0  0  0  0  0  0  0  0  0  0  0  0
  -25.8750  -34.9950   23.4520 C   0  0  0  0  0  0  0  0  0  0  0  0
  -26.5190  -34.8950   22.4040 O   0  0  0  0  0  0  0  0  0  0  0  0
  -24.9940  -34.0920   25.0350 H   0  0  0  0  0  0  0  0  0  0  0  0
  -24.1190  -36.7710   23.1510 C   0  0  0  0  0  1  0  0  0  0  0  0
  -25.3920  -36.3800   23.9210 C   0  0  0  0  0  3  0  0  0  0  0  0
  -27.5400  -37.2920   24.6830 C   0  0  0  0  0  1  0  0  0  0  0  0
  -26.4100  -37.4410   23.7690 N   0  0  0  0  0  0  0  0  0  0  0  0
  -25.9990  -38.3590   23.9210 H   0  0  0  0  0  0  0  0  0  0  0  0
  -26.3890  -31.7640   25.1550 C   0  0  1  0  0  0  0  0  0  0  0  0
  -25.2900  -31.5150   26.2130 C   0  0  0  0  0  1  0  0  0  0  0  0
  -26.9790  -30.3910   24.7550 C   0  0  0  0  0  1  0  0  0  0  0  0
  -27.5340  -32.5560   25.8310 C   0  0  0  0  0  1  0  0  0  0  0  0
  1  5  1  0
  2  6  1  0
  3  8  1  0
  4  2  2  0
  4  1  2  0
  5  3  2  0
  6  3  1  0
  7 50  1  0
  7  2  1  0
  9  7  1  0
 10 21  1  0
 11 16  1  0
 12 13  1  0
 12 11  1  0
 14 13  1  0
 14 25  1  0
 14 15  1  0
 16 10  1  0
 16 15  1  0
 17 10  2  0
 18 21  1  0
 18 20  1  0
 20  1  1  0
 20 19  1  0
 21 19  1  0
 22 23  2  0
 23 42  1  0
 24 23  1  0
 24 27  1  0
 25 26  1  0
 25 22  1  0
 26 24  2  0
 27 28  1  0
 28 29  2  0
 30 33  1  0
 30 29  1  0
 31 30  2  0
 32 31  1  0
 32 27  2  0
 33 34  1  0
 34 35  1  0
 35 36  2  0
 37 36  1  0
 37 41  1  0
 38 37  2  0
 39 34  2  0
 39 38  1  0
 40 39  1  0
 42 43  1  0
 43 46  1  0
 43 45  1  0
 44 42  2  0
 47 48  1  0
 47 22  1  0
 49 47  1  0
 51 52  1  0
 51 50  1  0
 53 64  2  0
 54 52  1  0
 54 59  1  0
 55 63  1  0
 55 65  1  0
 56 62  1  0
 56 58  1  0
 57 63  1  0
 58 59  2  0
 58 57  1  0
 60 54  2  0
 61 60  1  0
 61 56  2  0
 62 55  1  0
 63 53  1  0
 65 67  2  0
 66 65  1  0
 68 66  1  0
 69 78  2  0
 69 74  1  0
 70 66  1  0
 70 74  1  0
 71 70  1  0
 72 73  1  0
 72 71  1  0
 73 69  1  0
 74 75  2  0
 75 76  1  0
 77 76  2  0
 78 77  1  0
 79 53  1  0
 79 80  1  0
 79 89  1  0
 80 83  1  0
 81 85  1  0
 81 80  1  0
 82 81  2  0
 85 84  1  0
 87 85  1  0
 87 88  1  0
 87 86  1  0
 89 92  1  1
 89 90  1  0
 91 89  1  0
M  ISO  4  10 100  21 100  51 101  52 101
M  END
>  <TORSDO>  (24) 
F 18

>  <SCORE>  (24) 
-14.976

>  <name>  (24) 
23

>  <ligand_id>  (24) 
23

>  <original_smiles>  (24) 
[H]c1c([H])c([H])c2c(c1[H])C([H])([H])C([H])([H])C([H])([H])C2([H])N([H])C(=O)C1([H])N(C(=O)C([H])(N([H])C(=O)C([H])(N([H])C([H])([H])[H])C([H])([H])[H])C(C([H])([H])[H])(C([H])([H])[H])C([H])([H])[H])C([H])([H])c2c([H])c(OC([H])([H])C([H])([H])N([H])c3nc(Cl)nc(C4([H])C([H])([H])N(C(=O)N5C([H])([H])C([H])([H])C([H])([H])C([H])(n6nc(-c7c([H])c([H])c(Oc8c([H])c([H])c(F)c([H])c8F)c([H])c7[H])c(C(=O)N([H])[H])c6N([H])[H])C5([H])[H])C4([H])[H])n3)c([H])c([H])c2C1([H])[H]

>  <smiles>  (24) 
[H]c1c([H])c([H])c2c(c1[H])C([H])([H])C([H])([H])C([H])([H])C2([H])N([H])C(=O)C1([H])N(C(=O)C([H])(N([H])C(=O)C([H])(N([H])C([H])([H])[H])C([H])([H])[H])C(C([H])([H])[H])(C([H])([H])[H])C([H])([H])[H])C([H])([H])c2c([H])c(OC([H])([H])C([H])([H])N([H])c3nc(Cl)nc(C4([H])C([H])([H])N(C(=O)N5C([H])([H])C([H])([H])C([H])([H])C([H])(n6nc(-c7c([H])c([H])c(Oc8c([H])c([H])c(F)c([H])c8F)c([H])c7[H])c(C(=O)N([H])[H])c6N([H])[H])C5([H])[H])C4([H])[H])n3)c([H])c([H])c2C1([H])[H]

$$$$
24:0:0
     RDKit          3D

 93103  0  0  1  0  0  0  0  0999 V2000
  -28.6060  -19.2760   18.6430 C   0  0  0  0  0  3  0  0  0  0  0  0
  -28.1150  -20.4340   18.0270 C   0  0  0  0  0  3  0  0  0  0  0  0
  -29.1490  -19.4040   19.9280 C   0  0  0  0  0  0  0  0  0  0  0  0
  -28.7380  -21.7000   19.8210 C   0  0  0  0  0  0  0  0  0  0  0  0
  -30.1330  -25.0820   20.0540 C   0  0  0  0  0  2  0  0  0  0  0  0
  -30.2650  -23.5490   20.0730 C   0  0  0  0  0  2  0  0  0  0  0  0
  -27.9530  -24.1020   20.1850 C   0  0  0  0  0  2  0  0  0  0  0  0
  -28.6760  -25.3880   19.6770 C   0  0  0  0  0  3  0  0  0  0  0  0
  -28.1790  -21.6400   18.6220 N   0  0  0  0  0  0  0  0  0  0  0  0
  -29.2340  -20.6460   20.4960 N   0  0  0  0  0  0  0  0  0  0  0  0
  -28.9400  -22.9940   20.3300 N   0  0  0  0  0  0  0  0  0  0  0  0
  -30.6840  -14.5860   20.4110 C   0  0  0  0  0  0  0  0  0  0  0  0
  -30.3320  -12.3650   19.3870 C   0  0  0  0  0  2  0  0  0  0  0  0
  -29.4210  -12.5120   18.1520 C   0  0  0  0  0  2  0  0  0  0  0  0
  -27.9380  -12.3910   18.5570 C   0  0  0  0  0  2  0  0  0  0  0  0
  -27.5790  -13.2610   19.7920 C   0  0  0  0  0  3  0  0  0  0  0  0
  -28.6310  -13.1550   20.9190 C   0  0  0  0  0  2  0  0  0  0  0  0
  -29.9540  -13.4260   20.3410 N   0  0  0  0  0  0  0  0  0  0  0  0
  -31.8310  -14.6280   19.9520 O   0  0  0  0  0  0  0  0  0  0  0  0
  -31.0130  -18.0280   21.1580 C   0  0  0  0  0  2  0  0  0  0  0  0
  -31.0680  -16.5980   21.7400 C   0  0  0  0  0  2  0  0  0  0  0  0
  -29.3180  -16.7040   20.1830 C   0  0  0  0  0  2  0  0  0  0  0  0
  -29.5540  -18.1470   20.7650 C   0  0  0  0  0  3  0  0  0  0  0  0
  -30.1520  -15.7290   20.9610 N   0  0  0  0  0  0  0  0  0  0  0  0
  -25.1730  -13.8410   20.4750 C   0  0  0  0  0  0  0  0  0  0  0  0
  -24.1040  -13.0680   20.8370 C   0  0  0  0  0  0  0  0  0  0  0  0
  -24.5730  -11.7200   20.8270 C   0  0  0  0  0  0  0  0  0  0  0  0
  -26.2270  -12.9680   20.2680 N   0  0  0  0  0  0  0  0  0  0  0  0
  -25.8700  -11.6840   20.5410 N   0  0  0  0  0  0  0  0  0  0  0  0
  -23.8420  -10.4550   21.0140 C   0  0  0  0  0  0  0  0  0  0  0  0
  -24.2600   -9.4990   21.9620 C   0  0  0  0  0  3  0  0  0  0  0  0
  -23.5390   -8.2990   22.1380 C   0  0  0  0  0  3  0  0  0  0  0  0
  -22.3770   -8.0500   21.3670 C   0  0  0  0  0  0  0  0  0  0  0  0
  -21.9800   -8.9980   20.4110 C   0  0  0  0  0  3  0  0  0  0  0  0
  -22.7040  -10.1880   20.2320 C   0  0  0  0  0  3  0  0  0  0  0  0
  -21.6190   -6.9080   21.4630 O   0  0  0  0  0  0  0  0  0  0  0  0
  -21.5580   -6.1790   22.6230 C   0  0  0  0  0  0  0  0  0  0  0  0
  -21.1090   -6.7430   23.8370 C   0  0  0  0  0  3  0  0  0  0  0  0
  -20.9930   -5.9350   24.9880 C   0  0  0  0  0  3  0  0  0  0  0  0
  -21.3110   -4.5660   24.9230 C   0  0  0  0  0  0  0  0  0  0  0  0
  -21.7500   -4.0020   23.7120 C   0  0  0  0  0  3  0  0  0  0  0  0
  -21.8670   -4.8030   22.5650 C   0  0  0  0  0  0  0  0  0  0  0  0
  -22.2710   -4.2500   21.3980 F   0  0  0  0  0  0  0  0  0  0  0  0
  -21.1920   -3.7910   26.0240 F   0  0  0  0  0  0  0  0  0  0  0  0
  -22.7010  -13.5440   21.0800 C   0  0  0  0  0  0  0  0  0  0  0  0
  -21.9560  -12.8550   21.9370 N   0  0  0  0  0  0  0  0  0  0  0  0
  -22.2720  -14.5650   20.5440 O   0  0  0  0  0  0  0  0  0  0  0  0
  -22.3180  -12.0280   22.3960 H   0  0  0  0  0  0  0  0  0  0  0  0
  -21.0120  -13.1530   22.1290 H   0  0  0  0  0  0  0  0  0  0  0  0
  -25.3460  -15.2100   20.2830 N   0  0  0  0  0  0  0  0  0  0  0  0
  -24.6010  -15.8870   20.3820 H   0  0  0  0  0  0  0  0  0  0  0  0
  -26.2170  -15.6290   19.9820 H   0  0  0  0  0  0  0  0  0  0  0  0
  -28.4020  -26.6850   20.2750 O   0  0  0  0  0  0  0  0  0  0  0  0
  -24.5680  -31.8890   23.2350 C   0  0  0  0  0  0  0  0  0  0  0  0
  -27.2090  -27.3870   20.1880 C   0  0  0  0  0  0  0  0  0  0  0  0
  -23.3590  -30.4870   21.5890 C   0  0  0  0  0  3  0  0  0  0  0  0
  -24.8150  -28.9210   20.1770 C   0  0  0  0  0  0  0  0  0  0  0  0
  -25.8890  -30.8170   21.4090 C   0  0  0  0  0  2  0  0  0  0  0  0
  -25.9690  -29.4420   20.7720 C   0  0  0  0  0  0  0  0  0  0  0  0
  -27.1600  -28.6770   20.7780 C   0  0  0  0  0  3  0  0  0  0  0  0
  -26.0400  -26.8860   19.5760 C   0  0  0  0  0  3  0  0  0  0  0  0
  -24.8470  -27.6440   19.5750 C   0  0  0  0  0  3  0  0  0  0  0  0
  -23.5710  -29.7820   20.2180 C   0  0  0  0  0  2  0  0  0  0  0  0
  -24.6230  -31.0820   22.1350 N   0  0  0  0  0  0  0  0  0  0  0  0
  -23.4890  -32.1730   23.7690 O   0  0  0  0  0  0  0  0  0  0  0  0
  -22.6940  -29.4820   22.5560 C   0  0  0  0  0  0  0  0  0  0  0  0
  -21.3680  -29.3160   22.4320 N   0  0  0  0  0  0  0  0  0  0  0  0
  -23.3710  -28.8530   23.3740 O   0  0  0  0  0  0  0  0  0  0  0  0
  -20.8820  -29.8780   21.7480 H   0  0  0  0  0  0  0  0  0  0  0  0
  -17.9820  -28.1630   22.9380 C   0  0  0  0  0  0  0  0  0  0  0  0
  -20.5420  -28.3860   23.2030 C   0  0  0  0  0  3  0  0  0  0  0  0
  -20.6250  -26.9550   22.6230 C   0  0  0  0  0  2  0  0  0  0  0  0
  -19.5180  -26.6500   21.6110 C   0  0  0  0  0  2  0  0  0  0  0  0
  -18.1400  -26.8140   22.2570 C   0  0  0  0  0  2  0  0  0  0  0  0
  -19.1110  -28.9080   23.3670 C   0  0  0  0  0  0  0  0  0  0  0  0
  -18.9110  -30.1730   23.9590 C   0  0  0  0  0  3  0  0  0  0  0  0
  -17.6140  -30.6930   24.1310 C   0  0  0  0  0  3  0  0  0  0  0  0
  -16.4990  -29.9420   23.7210 C   0  0  0  0  0  3  0  0  0  0  0  0
  -16.6830  -28.6790   23.1280 C   0  0  0  0  0  3  0  0  0  0  0  0
  -25.8590  -32.5140   23.8550 C   0  0  0  0  0  3  0  0  0  0  0  0
  -25.5580  -33.9140   24.1860 N   0  0  0  0  0  0  0  0  0  0  0  0
  -25.8980  -34.9660   23.4300 C   0  0  0  0  0  0  0  0  0  0  0  0
  -26.5660  -34.8600   22.3960 O   0  0  0  0  0  0  0  0  0  0  0  0
  -24.9620  -34.0670   24.9860 H   0  0  0  0  0  0  0  0  0  0  0  0
  -24.1830  -36.7730   23.0760 C   0  0  0  0  0  1  0  0  0  0  0  0
  -25.4200  -36.3560   23.8880 C   0  0  0  0  0  3  0  0  0  0  0  0
  -27.5620  -37.2290   24.7170 C   0  0  0  0  0  1  0  0  0  0  0  0
  -26.4580  -37.4050   23.7760 N   0  0  0  0  0  0  0  0  0  0  0  0
  -26.0560  -38.3260   23.9300 H   0  0  0  0  0  0  0  0  0  0  0  0
  -26.3720  -31.7400   25.1330 C   0  0  1  0  0  0  0  0  0  0  0  0
  -25.2770  -31.5130   26.2010 C   0  0  0  0  0  1  0  0  0  0  0  0
  -26.9490  -30.3570   24.7450 C   0  0  0  0  0  1  0  0  0  0  0  0
  -27.5220  -32.5310   25.8000 C   0  0  0  0  0  1  0  0  0  0  0  0
  1  3  1  0
  2  9  1  0
  2  1  2  0
  3 10  2  0
  4 11  1  0
  4 10  1  0
  5  6  1  0
  6 11  1  0
  7 11  1  0
  8  5  1  0
  8  7  1  0
  8 53  1  0
  9  4  2  0
 12 24  1  0
 13 18  1  0
 14 15  1  0
 14 13  1  0
 16 15  1  0
 16 28  1  0
 16 17  1  0
 18 12  1  0
 18 17  1  0
 19 12  2  0
 20 21  1  0
 22 23  1  0
 22 24  1  0
 23  3  1  0
 23 20  1  0
 24 21  1  0
 25 26  2  0
 26 45  1  0
 27 26  1  0
 27 30  1  0
 28 25  1  0
 28 29  1  0
 29 27  2  0
 30 31  1  0
 31 32  2  0
 33 36  1  0
 33 32  1  0
 34 33  2  0
 35 34  1  0
 35 30  2  0
 36 37  1  0
 37 38  1  0
 38 39  2  0
 40 39  1  0
 40 44  1  0
 41 40  2  0
 42 37  2  0
 42 41  1  0
 43 42  1  0
 45 46  1  0
 46 49  1  0
 46 48  1  0
 47 45  2  0
 50 51  1  0
 50 25  1  0
 52 50  1  0
 54 65  2  0
 55 53  1  0
 55 60  1  0
 56 64  1  0
 56 66  1  0
 57 63  1  0
 57 59  1  0
 58 64  1  0
 59 60  2  0
 59 58  1  0
 61 55  2  0
 62 61  1  0
 62 57  2  0
 63 56  1  0
 64 54  1  0
 66 68  2  0
 67 66  1  0
 69 67  1  0
 70 79  2  0
 70 75  1  0
 71 67  1  0
 71 75  1  0
 72 71  1  0
 73 74  1  0
 73 72  1  0
 74 70  1  0
 75 76  2  0
 76 77  1  0
 78 77  2  0
 79 78  1  0
 80 54  1  0
 80 81  1  0
 80 90  1  0
 81 84  1  0
 82 86  1  0
 82 81  1  0
 83 82  2  0
 86 85  1  0
 88 86  1  0
 88 89  1  0
 88 87  1  0
 90 93  1  1
 90 91  1  0
 92 90  1  0
M  ISO  4   8 101  12 100  24 100  53 101
M  END
>  <TORSDO>  (25) 
F 16

>  <SCORE>  (25) 
-15.885

>  <name>  (25) 
24

>  <ligand_id>  (25) 
24

>  <original_smiles>  (25) 
[H]c1nc(N2C([H])([H])C([H])([H])C([H])(Oc3c([H])c([H])c4c(c3[H])C([H])([H])N(C(=O)C([H])(N([H])C(=O)C([H])(N([H])C([H])([H])[H])C([H])([H])[H])C(C([H])([H])[H])(C([H])([H])[H])C([H])([H])[H])C([H])(C(=O)N([H])C3([H])c5c([H])c([H])c([H])c([H])c5C([H])([H])C([H])([H])C3([H])[H])C4([H])[H])C2([H])[H])nc(C2([H])C([H])([H])N(C(=O)N3C([H])([H])C([H])([H])C([H])([H])C([H])(n4nc(-c5c([H])c([H])c(Oc6c([H])c([H])c(F)c([H])c6F)c([H])c5[H])c(C(=O)N([H])[H])c4N([H])[H])C3([H])[H])C([H])([H])C2([H])[H])c1[H]

>  <smiles>  (25) 
[H]c1nc(N2C([H])([H])C([H])([H])C([H])(Oc3c([H])c([H])c4c(c3[H])C([H])([H])N(C(=O)C([H])(N([H])C(=O)C([H])(N([H])C([H])([H])[H])C([H])([H])[H])C(C([H])([H])[H])(C([H])([H])[H])C([H])([H])[H])C([H])(C(=O)N([H])C3([H])c5c([H])c([H])c([H])c([H])c5C([H])([H])C([H])([H])C3([H])[H])C4([H])[H])C2([H])[H])nc(C2([H])C([H])([H])N(C(=O)N3C([H])([H])C([H])([H])C([H])([H])C([H])(n4nc(-c5c([H])c([H])c(Oc6c([H])c([H])c(F)c([H])c6F)c([H])c5[H])c(C(=O)N([H])[H])c4N([H])[H])C3([H])[H])C([H])([H])C2([H])[H])c1[H]

$$$$
25:0:0
     RDKit          3D

 96105  0  0  1  0  0  0  0  0999 V2000
  -30.5330  -15.1410   20.3810 C   0  0  0  0  0  0  0  0  0  0  0  0
  -30.3690  -12.7590   19.4630 C   0  0  0  0  0  2  0  0  0  0  0  0
  -29.4580  -12.6450   18.2230 C   0  0  0  0  0  2  0  0  0  0  0  0
  -28.0010  -12.4100   18.6480 C   0  0  0  0  0  2  0  0  0  0  0  0
  -27.5720  -13.3610   19.7970 C   0  0  0  0  0  3  0  0  0  0  0  0
  -28.6150  -13.4630   20.9280 C   0  0  0  0  0  2  0  0  0  0  0  0
  -29.8700  -13.9000   20.3020 N   0  0  0  0  0  0  0  0  0  0  0  0
  -31.7530  -15.0620   20.1610 O   0  0  0  0  0  0  0  0  0  0  0  0
  -31.0830  -18.8660   21.2650 C   0  0  0  0  0  2  0  0  0  0  0  0
  -30.7100  -17.3580   21.6330 C   0  0  0  0  0  2  0  0  0  0  0  0
  -28.7930  -17.3800   20.2370 C   0  0  0  0  0  2  0  0  0  0  0  0
  -27.9670  -20.3150   20.3940 C   0  0  0  0  0  2  0  0  0  0  0  0
  -30.0690  -21.2780   20.5350 C   0  0  0  0  0  2  0  0  0  0  0  0
  -28.9390  -19.0520   19.9650 C   0  0  0  0  0  3  0  0  0  0  0  0
  -30.3270  -19.7020   20.1550 C   0  0  2  0  0  0  0  0  0  0  0  0
  -29.9820  -16.4670   20.6810 N   0  0  0  0  0  0  0  0  0  0  0  0
  -28.6710  -21.6760   20.1400 N   0  0  2  0  0  4  0  0  0  0  0  0
  -28.7400  -21.6890   19.1350 H   0  0  0  0  0  0  0  0  0  0  0  0
  -25.2030  -13.9290   20.5340 C   0  0  0  0  0  0  0  0  0  0  0  0
  -24.1390  -13.1540   20.8990 C   0  0  0  0  0  0  0  0  0  0  0  0
  -24.6040  -11.8030   20.8710 C   0  0  0  0  0  0  0  0  0  0  0  0
  -26.2430  -13.0510   20.2970 N   0  0  0  0  0  0  0  0  0  0  0  0
  -25.8980  -11.7650   20.5680 N   0  0  0  0  0  0  0  0  0  0  0  0
  -23.8750  -10.5410   21.0510 C   0  0  0  0  0  0  0  0  0  0  0  0
  -24.2940   -9.5720   21.9870 C   0  0  0  0  0  3  0  0  0  0  0  0
  -23.5640   -8.3790   22.1610 C   0  0  0  0  0  3  0  0  0  0  0  0
  -22.3980   -8.1450   21.3950 C   0  0  0  0  0  0  0  0  0  0  0  0
  -21.9960   -9.1010   20.4480 C   0  0  0  0  0  3  0  0  0  0  0  0
  -22.7280  -10.2870   20.2730 C   0  0  0  0  0  3  0  0  0  0  0  0
  -21.6390   -7.0010   21.4780 O   0  0  0  0  0  0  0  0  0  0  0  0
  -21.5700   -6.2600   22.6320 C   0  0  0  0  0  0  0  0  0  0  0  0
  -21.1200   -6.8180   23.8490 C   0  0  0  0  0  3  0  0  0  0  0  0
  -21.0000   -6.0070   24.9940 C   0  0  0  0  0  3  0  0  0  0  0  0
  -21.3180   -4.6380   24.9200 C   0  0  0  0  0  0  0  0  0  0  0  0
  -21.7570   -4.0780   23.7090 C   0  0  0  0  0  3  0  0  0  0  0  0
  -21.8790   -4.8860   22.5670 C   0  0  0  0  0  0  0  0  0  0  0  0
  -22.2810   -4.3380   21.3950 F   0  0  0  0  0  0  0  0  0  0  0  0
  -21.1920   -3.8550   26.0170 F   0  0  0  0  0  0  0  0  0  0  0  0
  -22.7400  -13.6300   21.1550 C   0  0  0  0  0  0  0  0  0  0  0  0
  -21.9990  -12.9400   22.0130 N   0  0  0  0  0  0  0  0  0  0  0  0
  -22.3120  -14.6560   20.6280 O   0  0  0  0  0  0  0  0  0  0  0  0
  -22.3490  -12.1040   22.4570 H   0  0  0  0  0  0  0  0  0  0  0  0
  -21.0620  -13.2510   22.2270 H   0  0  0  0  0  0  0  0  0  0  0  0
  -25.3740  -15.3000   20.3520 N   0  0  0  0  0  0  0  0  0  0  0  0
  -24.6210  -15.9700   20.4620 H   0  0  0  0  0  0  0  0  0  0  0  0
  -26.2410  -15.7220   20.0460 H   0  0  0  0  0  0  0  0  0  0  0  0
  -31.2260  -19.6120   18.8650 C   0  0  0  0  0  2  0  0  0  0  0  0
  -30.5560  -19.8460   17.5560 N   0  0  0  0  0  4  0  0  0  0  0  0
  -29.6140  -20.1780   17.6600 H   0  0  0  0  0  0  0  0  0  0  0  0
  -30.4710  -18.9270   17.1470 H   0  0  0  0  0  0  0  0  0  0  0  0
  -31.2480  -22.1810   16.9150 C   0  0  0  0  0  1  0  0  0  0  0  0
  -30.6830  -20.4670   15.1570 C   0  0  0  0  0  1  0  0  0  0  0  0
  -31.2810  -20.6780   16.5630 C   0  0  0  0  0  3  0  0  0  0  0  0
  -27.9580  -23.1390   20.2850 C   0  0  0  0  0  2  0  0  0  0  0  0
  -28.5730  -24.6770   20.7330 C   0  0  0  0  0  2  0  0  0  0  0  0
  -28.3960  -26.1930   20.2710 O   0  0  0  0  0  0  0  0  0  0  0  0
  -24.6530  -31.9000   23.2760 C   0  0  0  0  0  0  0  0  0  0  0  0
  -27.2880  -27.1240   20.3470 C   0  0  0  0  0  0  0  0  0  0  0  0
  -23.4820  -30.4790   21.6360 C   0  0  0  0  0  3  0  0  0  0  0  0
  -24.9560  -28.8820   20.2570 C   0  0  0  0  0  0  0  0  0  0  0  0
  -26.0400  -30.7470   21.5020 C   0  0  0  0  0  2  0  0  0  0  0  0
  -26.1270  -29.3400   20.8710 C   0  0  0  0  0  0  0  0  0  0  0  0
  -27.2980  -28.4820   20.8870 C   0  0  0  0  0  3  0  0  0  0  0  0
  -26.0860  -26.7670   19.7060 C   0  0  0  0  0  3  0  0  0  0  0  0
  -24.9490  -27.6080   19.6630 C   0  0  0  0  0  3  0  0  0  0  0  0
  -23.7270  -29.7820   20.2700 C   0  0  0  0  0  2  0  0  0  0  0  0
  -24.7460  -31.0680   22.1920 N   0  0  0  0  0  0  0  0  0  0  0  0
  -23.5590  -32.1790   23.7890 O   0  0  0  0  0  0  0  0  0  0  0  0
  -22.7980  -29.4790   22.6020 C   0  0  0  0  0  0  0  0  0  0  0  0
  -21.4740  -29.2960   22.4630 N   0  0  0  0  0  0  0  0  0  0  0  0
  -23.4660  -28.8670   23.4400 O   0  0  0  0  0  0  0  0  0  0  0  0
  -20.9920  -29.8390   21.7590 H   0  0  0  0  0  0  0  0  0  0  0  0
  -18.0930  -28.0910   22.9570 C   0  0  0  0  0  0  0  0  0  0  0  0
  -20.6500  -28.3620   23.2340 C   0  0  0  0  0  3  0  0  0  0  0  0
  -20.7590  -26.9290   22.6640 C   0  0  0  0  0  2  0  0  0  0  0  0
  -19.6630  -26.6010   21.6450 C   0  0  0  0  0  2  0  0  0  0  0  0
  -18.2780  -26.7430   22.2830 C   0  0  0  0  0  2  0  0  0  0  0  0
  -19.2070  -28.8590   23.3880 C   0  0  0  0  0  0  0  0  0  0  0  0
  -18.9820  -30.1220   23.9770 C   0  0  0  0  0  3  0  0  0  0  0  0
  -17.6750  -30.6170   24.1440 C   0  0  0  0  0  3  0  0  0  0  0  0
  -16.5750  -29.8460   23.7280 C   0  0  0  0  0  3  0  0  0  0  0  0
  -16.7840  -28.5860   23.1400 C   0  0  0  0  0  3  0  0  0  0  0  0
  -25.9160  -32.5540   23.9150 C   0  0  0  0  0  3  0  0  0  0  0  0
  -26.4140  -31.8050   25.2120 C   0  0  1  0  0  0  0  0  0  0  0  0
  -25.3060  -31.5760   26.2650 C   0  0  0  0  0  1  0  0  0  0  0  0
  -27.0150  -30.4250   24.8590 C   0  0  0  0  0  1  0  0  0  0  0  0
  -27.5490  -32.6170   25.8810 C   0  0  0  0  0  1  0  0  0  0  0  0
  -25.5880  -33.9530   24.2280 N   0  0  0  0  0  0  0  0  0  0  0  0
  -25.9060  -35.0040   23.4580 C   0  0  0  0  0  0  0  0  0  0  0  0
  -26.5700  -34.9000   22.4260 O   0  0  0  0  0  0  0  0  0  0  0  0
  -25.0010  -34.1090   25.0330 H   0  0  0  0  0  0  0  0  0  0  0  0
  -24.1480  -36.7760   23.1060 C   0  0  0  0  0  1  0  0  0  0  0  0
  -25.4050  -36.3940   23.9060 C   0  0  0  0  0  3  0  0  0  0  0  0
  -27.5340  -37.3230   24.7030 C   0  0  0  0  0  1  0  0  0  0  0  0
  -26.4210  -37.4610   23.7670 N   0  0  0  0  0  0  0  0  0  0  0  0
  -26.0020  -38.3760   23.9060 H   0  0  0  0  0  0  0  0  0  0  0  0
  1 16  1  0
  2  7  1  0
  3  4  1  0
  3  2  1  0
  5  4  1  0
  5 22  1  0
  5  6  1  0
  7  1  1  0
  7  6  1  0
  8  1  2  0
  9 10  1  0
 11 16  1  0
 14 15  1  0
 14 11  1  0
 14 12  1  0
 15 47  1  6
 15 13  1  0
 15  9  1  0
 16 10  1  0
 17 54  1  0
 17 12  1  0
 17 13  1  0
 17 18  1  6
 19 20  2  0
 20 39  1  0
 21 20  1  0
 21 24  1  0
 22 19  1  0
 22 23  1  0
 23 21  2  0
 24 25  1  0
 25 26  2  0
 27 30  1  0
 27 26  1  0
 28 27  2  0
 29 28  1  0
 29 24  2  0
 30 31  1  0
 31 32  1  0
 32 33  2  0
 34 33  1  0
 34 38  1  0
 35 34  2  0
 36 31  2  0
 36 35  1  0
 37 36  1  0
 39 40  1  0
 40 43  1  0
 40 42  1  0
 41 39  2  0
 44 45  1  0
 44 19  1  0
 46 44  1  0
 48 49  1  0
 48 47  1  0
 50 48  1  0
 52 53  1  0
 53 51  1  0
 53 48  1  0
 54 55  1  0
 56 58  1  0
 56 55  1  0
 57 68  2  0
 58 63  1  0
 59 67  1  0
 59 69  1  0
 60 66  1  0
 60 62  1  0
 61 67  1  0
 62 63  2  0
 62 61  1  0
 64 58  2  0
 65 64  1  0
 65 60  2  0
 66 59  1  0
 67 57  1  0
 69 71  2  0
 70 69  1  0
 72 70  1  0
 73 82  2  0
 73 78  1  0
 74 70  1  0
 74 78  1  0
 75 74  1  0
 76 77  1  0
 76 75  1  0
 77 73  1  0
 78 79  2  0
 79 80  1  0
 81 80  2  0
 82 81  1  0
 83 57  1  0
 83 88  1  0
 83 84  1  0
 84 87  1  1
 84 85  1  0
 86 84  1  0
 88 91  1  0
 89 93  1  0
 89 88  1  0
 90 89  2  0
 93 92  1  0
 95 93  1  0
 95 96  1  0
 95 94  1  0
M  ISO  4   1 100  16 100  55 101  56 101
M  END
>  <TORSDO>  (26) 
F 20

>  <SCORE>  (26) 
-14.929

>  <name>  (26) 
25

>  <ligand_id>  (26) 
25

>  <original_smiles>  (26) 
[H]c1c([H])c([H])c2c(c1[H])C([H])([H])C([H])([H])C([H])([H])C2([H])N([H])C(=O)C1([H])N(C(=O)C([H])(N([H])C(=O)C([H])(N([H])C([H])([H])[H])C([H])([H])[H])C(C([H])([H])[H])(C([H])([H])[H])C([H])([H])[H])C([H])([H])c2c([H])c(OC([H])([H])C([H])([H])[N+]3([H])C([H])([H])C4([H])C([H])([H])N(C(=O)N5C([H])([H])C([H])([H])C([H])([H])C([H])(n6nc(-c7c([H])c([H])c(Oc8c([H])c([H])c(F)c([H])c8F)c([H])c7[H])c(C(=O)N([H])[H])c6N([H])[H])C5([H])[H])C([H])([H])C([H])([H])C4(C([H])([H])[N+]([H])([H])C([H])(C([H])([H])[H])C([H])([H])[H])C3([H])[H])c([H])c([H])c2C1([H])[H]

>  <smiles>  (26) 
[H]c1c([H])c([H])c2c(c1[H])C([H])([H])C([H])([H])C([H])([H])C2([H])N([H])C(=O)C1([H])N(C(=O)C([H])(N([H])C(=O)C([H])(N([H])C([H])([H])[H])C([H])([H])[H])C(C([H])([H])[H])(C([H])([H])[H])C([H])([H])[H])C([H])([H])c2c([H])c(OC([H])([H])C([H])([H])[N+]3([H])C([H])([H])C4([H])C([H])([H])N(C(=O)N5C([H])([H])C([H])([H])C([H])([H])C([H])(n6nc(-c7c([H])c([H])c(Oc8c([H])c([H])c(F)c([H])c8F)c([H])c7[H])c(C(=O)N([H])[H])c6N([H])[H])C5([H])[H])C([H])([H])C([H])([H])C4(C([H])([H])[N+]([H])([H])C([H])(C([H])([H])[H])C([H])([H])[H])C3([H])[H])c([H])c([H])c2C1([H])[H]

$$$$
26:0:0
     RDKit          3D

 92101  0  0  1  0  0  0  0  0999 V2000
  -28.7010  -22.3140   19.9770 C   0  0  0  0  0  3  0  0  0  0  0  0
  -28.8740  -23.7300   20.2790 C   0  0  0  0  0  0  0  0  0  0  0  0
  -29.7510  -21.6310   20.5630 C   0  0  0  0  0  0  0  0  0  0  0  0
  -31.7150  -22.5140   21.9430 C   0  0  0  0  0  1  0  0  0  0  0  0
  -29.9790  -23.8930   20.9930 N   0  0  0  0  0  0  0  0  0  0  0  0
  -30.4980  -22.6430   21.1620 N   0  0  0  0  0  0  0  0  0  0  0  0
  -30.2200  -20.2760   20.7010 N   0  0  0  0  0  0  0  0  0  0  0  0
  -31.1010  -20.1980   21.1990 H   0  0  0  0  0  0  0  0  0  0  0  0
  -30.6980  -14.6570   19.9740 C   0  0  0  0  0  0  0  0  0  0  0  0
  -30.3810  -12.4150   18.9400 C   0  0  0  0  0  2  0  0  0  0  0  0
  -29.3710  -12.5280   17.7780 C   0  0  0  0  0  2  0  0  0  0  0  0
  -27.9310  -12.3630   18.2990 C   0  0  0  0  0  2  0  0  0  0  0  0
  -27.6420  -13.2280   19.5550 C   0  0  0  0  0  3  0  0  0  0  0  0
  -28.7700  -13.1130   20.6030 C   0  0  0  0  0  2  0  0  0  0  0  0
  -30.0280  -13.4580   19.9300 N   0  0  0  0  0  0  0  0  0  0  0  0
  -31.8570  -14.7210   19.5510 O   0  0  0  0  0  0  0  0  0  0  0  0
  -29.6950  -17.9280   21.5010 C   0  0  0  0  0  2  0  0  0  0  0  0
  -30.3680  -18.2560   19.1730 C   0  0  0  0  0  2  0  0  0  0  0  0
  -29.3000  -16.4290   21.1940 C   0  0  0  0  0  2  0  0  0  0  0  0
  -29.9230  -16.7820   18.8650 C   0  0  0  0  0  2  0  0  0  0  0  0
  -29.6050  -18.9610   20.3280 C   0  0  0  0  0  3  0  0  0  0  0  0
  -29.9480  -15.8240   20.0050 N   0  0  0  0  0  0  0  0  0  0  0  0
  -25.3080  -13.8040   20.4510 C   0  0  0  0  0  0  0  0  0  0  0  0
  -24.2650  -13.0240   20.8670 C   0  0  0  0  0  0  0  0  0  0  0  0
  -24.7170  -11.6720   20.7690 C   0  0  0  0  0  0  0  0  0  0  0  0
  -26.3310  -12.9300   20.1250 N   0  0  0  0  0  0  0  0  0  0  0  0
  -25.9860  -11.6400   20.3770 N   0  0  0  0  0  0  0  0  0  0  0  0
  -23.9990  -10.4070   20.9710 C   0  0  0  0  0  0  0  0  0  0  0  0
  -24.4500   -9.4410   21.8980 C   0  0  0  0  0  3  0  0  0  0  0  0
  -23.7320   -8.2410   22.0870 C   0  0  0  0  0  3  0  0  0  0  0  0
  -22.5490   -7.9970   21.3500 C   0  0  0  0  0  0  0  0  0  0  0  0
  -22.1170   -8.9520   20.4120 C   0  0  0  0  0  3  0  0  0  0  0  0
  -22.8350  -10.1440   20.2200 C   0  0  0  0  0  3  0  0  0  0  0  0
  -21.8000   -6.8500   21.4500 O   0  0  0  0  0  0  0  0  0  0  0  0
  -21.7180   -6.1430   22.6230 C   0  0  0  0  0  0  0  0  0  0  0  0
  -21.2320   -6.7270   23.8130 C   0  0  0  0  0  3  0  0  0  0  0  0
  -21.1000   -5.9460   24.9790 C   0  0  0  0  0  3  0  0  0  0  0  0
  -21.4450   -4.5810   24.9540 C   0  0  0  0  0  0  0  0  0  0  0  0
  -21.9240   -3.9960   23.7680 C   0  0  0  0  0  3  0  0  0  0  0  0
  -22.0570   -4.7750   22.6060 C   0  0  0  0  0  0  0  0  0  0  0  0
  -22.4990   -4.2020   21.4610 F   0  0  0  0  0  0  0  0  0  0  0  0
  -21.3110   -3.8280   26.0700 F   0  0  0  0  0  0  0  0  0  0  0  0
  -22.8900  -13.4970   21.2400 C   0  0  0  0  0  0  0  0  0  0  0  0
  -22.2160  -12.7840   22.1360 N   0  0  0  0  0  0  0  0  0  0  0  0
  -22.4230  -14.5350   20.7740 O   0  0  0  0  0  0  0  0  0  0  0  0
  -22.6080  -11.9430   22.5360 H   0  0  0  0  0  0  0  0  0  0  0  0
  -21.2980  -13.0850   22.4280 H   0  0  0  0  0  0  0  0  0  0  0  0
  -25.4680  -15.1790   20.2990 N   0  0  0  0  0  0  0  0  0  0  0  0
  -24.7170  -15.8360   20.4760 H   0  0  0  0  0  0  0  0  0  0  0  0
  -26.3020  -15.6170   19.9320 H   0  0  0  0  0  0  0  0  0  0  0  0
  -27.9320  -24.9320   19.9320 C   0  0  0  0  0  2  0  0  0  0  0  0
  -28.2290  -26.3520   20.3010 O   0  0  0  0  0  0  0  0  0  0  0  0
  -24.6290  -31.8780   23.2990 C   0  0  0  0  0  0  0  0  0  0  0  0
  -27.1540  -27.2660   20.2210 C   0  0  0  0  0  0  0  0  0  0  0  0
  -23.3990  -30.4950   21.6700 C   0  0  0  0  0  3  0  0  0  0  0  0
  -24.8190  -28.9350   20.2300 C   0  0  0  0  0  0  0  0  0  0  0  0
  -25.9450  -30.7740   21.4740 C   0  0  0  0  0  2  0  0  0  0  0  0
  -26.0020  -29.3950   20.8240 C   0  0  0  0  0  0  0  0  0  0  0  0
  -27.1720  -28.5700   20.8150 C   0  0  0  0  0  3  0  0  0  0  0  0
  -25.9490  -26.8880   19.5770 C   0  0  0  0  0  3  0  0  0  0  0  0
  -24.7960  -27.6870   19.5990 C   0  0  0  0  0  3  0  0  0  0  0  0
  -23.5960  -29.8250   20.2880 C   0  0  0  0  0  2  0  0  0  0  0  0
  -24.6770  -31.0650   22.2040 N   0  0  0  0  0  0  0  0  0  0  0  0
  -23.5510  -32.1700   23.8380 O   0  0  0  0  0  0  0  0  0  0  0  0
  -22.7310  -29.4830   22.6320 C   0  0  0  0  0  0  0  0  0  0  0  0
  -21.4060  -29.3020   22.4950 N   0  0  0  0  0  0  0  0  0  0  0  0
  -23.4020  -28.8660   23.4620 O   0  0  0  0  0  0  0  0  0  0  0  0
  -20.9240  -29.8530   21.7990 H   0  0  0  0  0  0  0  0  0  0  0  0
  -18.0290  -28.0880   22.9590 C   0  0  0  0  0  0  0  0  0  0  0  0
  -20.5800  -28.3720   23.2680 C   0  0  0  0  0  3  0  0  0  0  0  0
  -20.7030  -26.9310   22.7210 C   0  0  0  0  0  2  0  0  0  0  0  0
  -19.6200  -26.5810   21.6940 C   0  0  0  0  0  2  0  0  0  0  0  0
  -18.2270  -26.7280   22.3110 C   0  0  0  0  0  2  0  0  0  0  0  0
  -19.1340  -28.8660   23.3940 C   0  0  0  0  0  0  0  0  0  0  0  0
  -18.8940  -30.1390   23.9580 C   0  0  0  0  0  3  0  0  0  0  0  0
  -17.5830  -30.6320   24.0910 C   0  0  0  0  0  3  0  0  0  0  0  0
  -16.4920  -29.8500   23.6750 C   0  0  0  0  0  3  0  0  0  0  0  0
  -16.7150  -28.5800   23.1130 C   0  0  0  0  0  3  0  0  0  0  0  0
  -25.9230  -32.4960   23.9120 C   0  0  0  0  0  3  0  0  0  0  0  0
  -25.6360  -33.9040   24.2270 N   0  0  0  0  0  0  0  0  0  0  0  0
  -25.9560  -34.9400   23.4400 C   0  0  0  0  0  0  0  0  0  0  0  0
  -26.5930  -34.8120   22.3920 O   0  0  0  0  0  0  0  0  0  0  0  0
  -25.0690  -34.0770   25.0430 H   0  0  0  0  0  0  0  0  0  0  0  0
  -24.2220  -36.7350   23.1250 C   0  0  0  0  0  1  0  0  0  0  0  0
  -25.4950  -36.3410   23.8900 C   0  0  0  0  0  3  0  0  0  0  0  0
  -27.6660  -37.2330   24.6120 C   0  0  0  0  0  1  0  0  0  0  0  0
  -26.5270  -37.3860   23.7100 N   0  0  0  0  0  0  0  0  0  0  0  0
  -26.1310  -38.3110   23.8550 H   0  0  0  0  0  0  0  0  0  0  0  0
  -26.4260  -31.7320   25.1960 C   0  0  1  0  0  0  0  0  0  0  0  0
  -25.3300  -31.5180   26.2660 C   0  0  0  0  0  1  0  0  0  0  0  0
  -26.9920  -30.3420   24.8210 C   0  0  0  0  0  1  0  0  0  0  0  0
  -27.5870  -32.5170   25.8530 C   0  0  0  0  0  1  0  0  0  0  0  0
  1  2  1  0
  1  3  2  0
  2  5  2  0
  3  7  1  0
  3  6  1  0
  5  6  1  0
  6  4  1  0
  7  8  1  0
  9 22  1  0
 10 15  1  0
 11 12  1  0
 11 10  1  0
 13 12  1  0
 13 26  1  0
 13 14  1  0
 15  9  1  0
 15 14  1  0
 16  9  2  0
 18 21  1  0
 19 17  1  0
 20 18  1  0
 20 22  1  0
 21  7  1  0
 21 17  1  0
 22 19  1  0
 23 24  2  0
 24 43  1  0
 25 24  1  0
 25 28  1  0
 26 27  1  0
 26 23  1  0
 27 25  2  0
 28 29  1  0
 29 30  2  0
 31 34  1  0
 31 30  1  0
 32 31  2  0
 33 32  1  0
 33 28  2  0
 34 35  1  0
 35 36  1  0
 36 37  2  0
 38 37  1  0
 38 42  1  0
 39 38  2  0
 40 35  2  0
 40 39  1  0
 41 40  1  0
 43 44  1  0
 44 47  1  0
 44 46  1  0
 45 43  2  0
 48 23  1  0
 48 49  1  0
 50 48  1  0
 51  2  1  0
 51 52  1  0
 53 64  2  0
 54 52  1  0
 54 59  1  0
 55 63  1  0
 55 65  1  0
 56 62  1  0
 56 58  1  0
 57 63  1  0
 58 57  1  0
 59 58  2  0
 60 61  1  0
 60 54  2  0
 61 56  2  0
 62 55  1  0
 63 53  1  0
 65 67  2  0
 66 65  1  0
 68 66  1  0
 69 78  2  0
 69 74  1  0
 70 66  1  0
 70 74  1  0
 71 70  1  0
 72 73  1  0
 72 71  1  0
 73 69  1  0
 74 75  2  0
 75 76  1  0
 77 76  2  0
 78 77  1  0
 79 53  1  0
 79 80  1  0
 79 89  1  0
 80 83  1  0
 81 85  1  0
 81 80  1  0
 82 81  2  0
 85 84  1  0
 87 88  1  0
 87 85  1  0
 87 86  1  0
 89 92  1  1
 89 90  1  0
 91 89  1  0
M  ISO  4   9 100  22 100  51 101  52 101
M  END
>  <TORSDO>  (27) 
F 18

>  <SCORE>  (27) 
-13.800

>  <name>  (27) 
26

>  <ligand_id>  (27) 
26

>  <original_smiles>  (27) 
[H]c1c([H])c([H])c2c(c1[H])C([H])([H])C([H])([H])C([H])([H])C2([H])N([H])C(=O)C1([H])N(C(=O)C([H])(N([H])C(=O)C([H])(N([H])C([H])([H])[H])C([H])([H])[H])C(C([H])([H])[H])(C([H])([H])[H])C([H])([H])[H])C([H])([H])c2c([H])c(OC([H])([H])c3nn(C([H])([H])[H])c(N([H])C4([H])C([H])([H])C([H])([H])N(C(=O)N5C([H])([H])C([H])([H])C([H])([H])C([H])(n6nc(-c7c([H])c([H])c(Oc8c([H])c([H])c(F)c([H])c8F)c([H])c7[H])c(C(=O)N([H])[H])c6N([H])[H])C5([H])[H])C([H])([H])C4([H])[H])c3[H])c([H])c([H])c2C1([H])[H]

>  <smiles>  (27) 
[H]c1c([H])c([H])c2c(c1[H])C([H])([H])C([H])([H])C([H])([H])C2([H])N([H])C(=O)C1([H])N(C(=O)C([H])(N([H])C(=O)C([H])(N([H])C([H])([H])[H])C([H])([H])[H])C(C([H])([H])[H])(C([H])([H])[H])C([H])([H])[H])C([H])([H])c2c([H])c(OC([H])([H])c3nn(C([H])([H])[H])c(N([H])C4([H])C([H])([H])C([H])([H])N(C(=O)N5C([H])([H])C([H])([H])C([H])([H])C([H])(n6nc(-c7c([H])c([H])c(Oc8c([H])c([H])c(F)c([H])c8F)c([H])c7[H])c(C(=O)N([H])[H])c6N([H])[H])C5([H])[H])C([H])([H])C4([H])[H])c3[H])c([H])c([H])c2C1([H])[H]

$$$$
27:0:0
     RDKit          3D

 92101  0  0  1  0  0  0  0  0999 V2000
  -29.1740  -21.5020   19.0640 C   0  0  0  0  0  3  0  0  0  0  0  0
  -28.5890  -22.7380   19.1590 C   0  0  0  0  0  3  0  0  0  0  0  0
  -29.4390  -21.1070   20.4090 C   0  0  0  0  0  0  0  0  0  0  0  0
  -29.0320  -22.0620   21.2580 N   0  0  0  0  0  0  0  0  0  0  0  0
  -28.5190  -23.0730   20.4940 N   0  0  0  0  0  0  0  0  0  0  0  0
  -30.1860  -19.8600   20.9080 C   0  0  0  0  0  2  0  0  0  0  0  0
  -30.7010  -14.4930   20.0650 C   0  0  0  0  0  0  0  0  0  0  0  0
  -30.3090  -12.3430   18.9150 C   0  0  0  0  0  2  0  0  0  0  0  0
  -29.3060  -12.5680   17.7650 C   0  0  0  0  0  2  0  0  0  0  0  0
  -27.8560  -12.4360   18.2750 C   0  0  0  0  0  2  0  0  0  0  0  0
  -27.5980  -13.2460   19.5740 C   0  0  0  0  0  3  0  0  0  0  0  0
  -28.7170  -13.0150   20.6140 C   0  0  0  0  0  2  0  0  0  0  0  0
  -29.9970  -13.3280   19.9650 N   0  0  0  0  0  0  0  0  0  0  0  0
  -31.8390  -14.5970   19.5960 O   0  0  0  0  0  0  0  0  0  0  0  0
  -29.5640  -16.0950   21.6020 C   0  0  0  0  0  2  0  0  0  0  0  0
  -30.1010  -16.7240   19.2720 C   0  0  0  0  0  2  0  0  0  0  0  0
  -29.9580  -17.5780   21.8880 C   0  0  0  0  0  2  0  0  0  0  0  0
  -29.2080  -17.9610   19.5600 C   0  0  0  0  0  2  0  0  0  0  0  0
  -29.9660  -15.6290   20.2600 N   0  0  0  0  0  0  0  0  0  0  0  0
  -29.4240  -18.5670   20.9040 N   0  0  2  0  0  4  0  0  0  0  0  0
  -28.5070  -18.8310   21.2340 H   0  0  0  0  0  0  0  0  0  0  0  0
  -25.2570  -13.8530   20.4420 C   0  0  0  0  0  0  0  0  0  0  0  0
  -24.2060  -13.0820   20.8560 C   0  0  0  0  0  0  0  0  0  0  0  0
  -24.6520  -11.7270   20.7700 C   0  0  0  0  0  0  0  0  0  0  0  0
  -26.2770  -12.9680   20.1280 N   0  0  0  0  0  0  0  0  0  0  0  0
  -25.9210  -11.6840   20.3850 N   0  0  0  0  0  0  0  0  0  0  0  0
  -23.9250  -10.4670   20.9750 C   0  0  0  0  0  0  0  0  0  0  0  0
  -24.3810   -9.4930   21.8910 C   0  0  0  0  0  3  0  0  0  0  0  0
  -23.6560   -8.2980   22.0850 C   0  0  0  0  0  3  0  0  0  0  0  0
  -22.4620   -8.0680   21.3620 C   0  0  0  0  0  0  0  0  0  0  0  0
  -22.0250   -9.0290   20.4340 C   0  0  0  0  0  3  0  0  0  0  0  0
  -22.7510  -10.2160   20.2380 C   0  0  0  0  0  3  0  0  0  0  0  0
  -21.7050   -6.9260   21.4660 O   0  0  0  0  0  0  0  0  0  0  0  0
  -21.6510   -6.2020   22.6310 C   0  0  0  0  0  0  0  0  0  0  0  0
  -21.2270   -6.7790   23.8490 C   0  0  0  0  0  3  0  0  0  0  0  0
  -21.1190   -5.9810   25.0050 C   0  0  0  0  0  3  0  0  0  0  0  0
  -21.4240   -4.6090   24.9460 C   0  0  0  0  0  0  0  0  0  0  0  0
  -21.8410   -4.0320   23.7340 C   0  0  0  0  0  3  0  0  0  0  0  0
  -21.9500   -4.8250   22.5780 C   0  0  0  0  0  0  0  0  0  0  0  0
  -22.3320   -4.2600   21.4080 F   0  0  0  0  0  0  0  0  0  0  0  0
  -21.3140   -3.8410   26.0560 F   0  0  0  0  0  0  0  0  0  0  0  0
  -22.8310  -13.5650   21.2170 C   0  0  0  0  0  0  0  0  0  0  0  0
  -22.1520  -12.8650   22.1210 N   0  0  0  0  0  0  0  0  0  0  0  0
  -22.3680  -14.5960   20.7320 O   0  0  0  0  0  0  0  0  0  0  0  0
  -22.5400  -12.0320   22.5380 H   0  0  0  0  0  0  0  0  0  0  0  0
  -21.2320  -13.1730   22.4020 H   0  0  0  0  0  0  0  0  0  0  0  0
  -25.4240  -15.2260   20.2820 N   0  0  0  0  0  0  0  0  0  0  0  0
  -24.6690  -15.8830   20.4440 H   0  0  0  0  0  0  0  0  0  0  0  0
  -26.2500  -15.6590   19.8910 H   0  0  0  0  0  0  0  0  0  0  0  0
  -27.8860  -24.2570   21.1050 C   0  0  0  0  0  2  0  0  0  0  0  0
  -28.7470  -25.5610   21.2090 C   0  0  0  0  0  2  0  0  0  0  0  0
  -28.5960  -26.5750   20.1880 O   0  0  0  0  0  0  0  0  0  0  0  0
  -24.6100  -31.7550   23.1600 C   0  0  0  0  0  0  0  0  0  0  0  0
  -27.4310  -27.3180   20.2060 C   0  0  0  0  0  0  0  0  0  0  0  0
  -23.4880  -30.3220   21.4870 C   0  0  0  0  0  3  0  0  0  0  0  0
  -25.0190  -28.8010   20.1240 C   0  0  0  0  0  0  0  0  0  0  0  0
  -26.0150  -30.7180   21.3780 C   0  0  0  0  0  2  0  0  0  0  0  0
  -26.1480  -29.3390   20.7560 C   0  0  0  0  0  0  0  0  0  0  0  0
  -27.3590  -28.6040   20.7990 C   0  0  0  0  0  3  0  0  0  0  0  0
  -26.2930  -26.8110   19.5500 C   0  0  0  0  0  3  0  0  0  0  0  0
  -25.0870  -27.5350   19.5180 C   0  0  0  0  0  3  0  0  0  0  0  0
  -23.7600  -29.6400   20.1190 C   0  0  0  0  0  2  0  0  0  0  0  0
  -24.7200  -30.9480   22.0650 N   0  0  0  0  0  0  0  0  0  0  0  0
  -23.5070  -32.0090   23.6610 O   0  0  0  0  0  0  0  0  0  0  0  0
  -22.8240  -29.2940   22.4310 C   0  0  0  0  0  0  0  0  0  0  0  0
  -21.5030  -29.1040   22.2780 N   0  0  0  0  0  0  0  0  0  0  0  0
  -23.4960  -28.6690   23.2570 O   0  0  0  0  0  0  0  0  0  0  0  0
  -21.0220  -29.6610   21.5860 H   0  0  0  0  0  0  0  0  0  0  0  0
  -18.1250  -27.9010   22.7210 C   0  0  0  0  0  0  0  0  0  0  0  0
  -20.6780  -28.1590   23.0300 C   0  0  0  0  0  3  0  0  0  0  0  0
  -20.7900  -26.7330   22.4430 C   0  0  0  0  0  2  0  0  0  0  0  0
  -19.7030  -26.4180   21.4100 C   0  0  0  0  0  2  0  0  0  0  0  0
  -18.3110  -26.5580   22.0370 C   0  0  0  0  0  2  0  0  0  0  0  0
  -19.2370  -28.6600   23.1730 C   0  0  0  0  0  0  0  0  0  0  0  0
  -19.0080  -29.9170   23.7720 C   0  0  0  0  0  3  0  0  0  0  0  0
  -17.7010  -30.4160   23.9250 C   0  0  0  0  0  3  0  0  0  0  0  0
  -16.6040  -29.6550   23.4880 C   0  0  0  0  0  3  0  0  0  0  0  0
  -16.8160  -28.3990   22.8920 C   0  0  0  0  0  3  0  0  0  0  0  0
  -25.8620  -32.4150   23.8170 C   0  0  0  0  0  3  0  0  0  0  0  0
  -26.3730  -31.6450   25.0960 C   0  0  1  0  0  0  0  0  0  0  0  0
  -25.2640  -31.3660   26.1380 C   0  0  0  0  0  1  0  0  0  0  0  0
  -27.0020  -30.2880   24.7040 C   0  0  0  0  0  1  0  0  0  0  0  0
  -27.4850  -32.4650   25.7910 C   0  0  0  0  0  1  0  0  0  0  0  0
  -25.5060  -33.8000   24.1530 N   0  0  0  0  0  0  0  0  0  0  0  0
  -25.8200  -34.8680   23.4080 C   0  0  0  0  0  0  0  0  0  0  0  0
  -26.5080  -34.7920   22.3860 O   0  0  0  0  0  0  0  0  0  0  0  0
  -24.8940  -33.9310   24.9450 H   0  0  0  0  0  0  0  0  0  0  0  0
  -24.0380  -36.6070   23.0470 C   0  0  0  0  0  1  0  0  0  0  0  0
  -25.2850  -36.2370   23.8670 C   0  0  0  0  0  3  0  0  0  0  0  0
  -27.3820  -37.1870   24.7210 C   0  0  0  0  0  1  0  0  0  0  0  0
  -26.2840  -37.3220   23.7670 N   0  0  0  0  0  0  0  0  0  0  0  0
  -25.8480  -38.2290   23.9120 H   0  0  0  0  0  0  0  0  0  0  0  0
  1  2  2  0
  1  3  1  0
  2  5  1  0
  3  6  1  0
  3  4  2  0
  5 50  1  0
  5  4  1  0
  7 19  1  0
  8 13  1  0
  9 10  1  0
  9  8  1  0
 11 10  1  0
 11 25  1  0
 11 12  1  0
 13  7  1  0
 13 12  1  0
 14  7  2  0
 15 17  1  0
 16 18  1  0
 16 19  1  0
 18 20  1  0
 19 15  1  0
 20  6  1  0
 20 21  1  1
 20 17  1  0
 22 23  2  0
 23 42  1  0
 24 23  1  0
 24 27  1  0
 25 26  1  0
 25 22  1  0
 26 24  2  0
 27 28  1  0
 28 29  2  0
 30 33  1  0
 30 29  1  0
 31 30  2  0
 32 31  1  0
 32 27  2  0
 33 34  1  0
 34 35  1  0
 35 36  2  0
 37 36  1  0
 37 41  1  0
 38 37  2  0
 39 34  2  0
 39 38  1  0
 40 39  1  0
 42 43  1  0
 43 46  1  0
 43 45  1  0
 44 42  2  0
 47 22  1  0
 47 48  1  0
 49 47  1  0
 50 51  1  0
 52 54  1  0
 52 51  1  0
 53 64  2  0
 54 59  1  0
 55 63  1  0
 55 65  1  0
 56 58  1  0
 57 63  1  0
 58 59  2  0
 58 57  1  0
 60 54  2  0
 61 60  1  0
 61 56  2  0
 62 56  1  0
 62 55  1  0
 63 53  1  0
 65 67  2  0
 66 65  1  0
 68 66  1  0
 69 78  2  0
 69 74  1  0
 70 66  1  0
 70 74  1  0
 71 70  1  0
 72 73  1  0
 72 71  1  0
 73 69  1  0
 74 75  2  0
 75 76  1  0
 77 76  2  0
 78 77  1  0
 79 53  1  0
 79 84  1  0
 79 80  1  0
 80 83  1  1
 80 81  1  0
 82 80  1  0
 84 87  1  0
 85 89  1  0
 85 84  1  0
 86 85  2  0
 89 88  1  0
 91 89  1  0
 91 92  1  0
 91 90  1  0
M  ISO  4   7 100  19 100  51 101  52 101
M  END
>  <TORSDO>  (28) 
F 19

>  <SCORE>  (28) 
-14.040

>  <name>  (28) 
27

>  <ligand_id>  (28) 
27

>  <original_smiles>  (28) 
[H]c1c([H])c([H])c2c(c1[H])C([H])([H])C([H])([H])C([H])([H])C2([H])N([H])C(=O)C1([H])N(C(=O)C([H])(N([H])C(=O)C([H])(N([H])C([H])([H])[H])C([H])([H])[H])C(C([H])([H])[H])(C([H])([H])[H])C([H])([H])[H])C([H])([H])c2c([H])c(OC([H])([H])C([H])([H])n3nc(C([H])([H])[N+]4([H])C([H])([H])C([H])([H])N(C(=O)N5C([H])([H])C([H])([H])C([H])([H])C([H])(n6nc(-c7c([H])c([H])c(Oc8c([H])c([H])c(F)c([H])c8F)c([H])c7[H])c(C(=O)N([H])[H])c6N([H])[H])C5([H])[H])C([H])([H])C4([H])[H])c([H])c3[H])c([H])c([H])c2C1([H])[H]

>  <smiles>  (28) 
[H]c1c([H])c([H])c2c(c1[H])C([H])([H])C([H])([H])C([H])([H])C2([H])N([H])C(=O)C1([H])N(C(=O)C([H])(N([H])C(=O)C([H])(N([H])C([H])([H])[H])C([H])([H])[H])C(C([H])([H])[H])(C([H])([H])[H])C([H])([H])[H])C([H])([H])c2c([H])c(OC([H])([H])C([H])([H])n3nc(C([H])([H])[N+]4([H])C([H])([H])C([H])([H])N(C(=O)N5C([H])([H])C([H])([H])C([H])([H])C([H])(n6nc(-c7c([H])c([H])c(Oc8c([H])c([H])c(F)c([H])c8F)c([H])c7[H])c(C(=O)N([H])[H])c6N([H])[H])C5([H])[H])C([H])([H])C4([H])[H])c([H])c3[H])c([H])c([H])c2C1([H])[H]

$$$$
28:0:0
     RDKit          3D

 93102  0  0  1  0  0  0  0  0999 V2000
  -28.1380  -19.9070   19.6350 C   0  0  0  0  0  0  0  0  0  0  0  0
  -29.7600  -19.9650   21.2990 C   0  0  0  0  0  2  0  0  0  0  0  0
  -27.5050  -22.4590   19.9370 C   0  0  0  0  0  2  0  0  0  0  0  0
  -29.3450  -22.5930   21.3960 C   0  0  0  0  0  2  0  0  0  0  0  0
  -27.6700  -21.0420   20.5410 C   0  0  0  0  0  3  0  0  0  0  0  0
  -28.8050  -21.1540   21.5660 C   0  0  0  0  0  3  0  0  0  0  0  0
  -29.1830  -19.2410   20.1630 N   0  0  0  0  0  0  0  0  0  0  0  0
  -28.1400  -23.3230   20.9570 N   0  0  1  0  0  4  0  0  0  0  0  0
  -27.5360  -19.5910   18.6060 O   0  0  0  0  0  0  0  0  0  0  0  0
  -27.5290  -23.2160   21.7540 H   0  0  0  0  0  0  0  0  0  0  0  0
  -29.5360  -17.8560   19.7640 C   0  0  0  0  0  2  0  0  0  0  0  0
  -30.6030  -17.0910   20.6030 C   0  0  0  0  0  2  0  0  0  0  0  0
  -31.0640  -14.6480   20.0600 C   0  0  0  0  0  0  0  0  0  0  0  0
  -30.7430  -12.4560   18.9680 C   0  0  0  0  0  2  0  0  0  0  0  0
  -29.7570  -12.6350   17.7930 C   0  0  0  0  0  2  0  0  0  0  0  0
  -28.2980  -12.5180   18.2770 C   0  0  0  0  0  2  0  0  0  0  0  0
  -28.0120  -13.3920   19.5270 C   0  0  0  0  0  3  0  0  0  0  0  0
  -29.0980  -13.1720   20.6030 C   0  0  0  0  0  2  0  0  0  0  0  0
  -30.4070  -13.4590   19.9900 N   0  0  0  0  0  0  0  0  0  0  0  0
  -32.1620  -14.8480   19.5340 O   0  0  0  0  0  0  0  0  0  0  0  0
  -30.3460  -15.6430   20.6140 N   0  0  0  0  0  0  0  0  0  0  0  0
  -29.4680  -15.3570   21.0220 H   0  0  0  0  0  0  0  0  0  0  0  0
  -25.6570  -14.0570   20.3280 C   0  0  0  0  0  0  0  0  0  0  0  0
  -24.5850  -13.3100   20.7340 C   0  0  0  0  0  0  0  0  0  0  0  0
  -25.0110  -11.9470   20.6780 C   0  0  0  0  0  0  0  0  0  0  0  0
  -26.6710  -13.1510   20.0530 N   0  0  0  0  0  0  0  0  0  0  0  0
  -26.2860  -11.8760   20.3190 N   0  0  0  0  0  0  0  0  0  0  0  0
  -24.2600  -10.7020   20.8900 C   0  0  0  0  0  0  0  0  0  0  0  0
  -24.6780   -9.7400   21.8360 C   0  0  0  0  0  3  0  0  0  0  0  0
  -23.9310   -8.5590   22.0350 C   0  0  0  0  0  3  0  0  0  0  0  0
  -22.7530   -8.3310   21.2870 C   0  0  0  0  0  0  0  0  0  0  0  0
  -22.3520   -9.2790   20.3290 C   0  0  0  0  0  3  0  0  0  0  0  0
  -23.1000  -10.4530   20.1300 C   0  0  0  0  0  3  0  0  0  0  0  0
  -21.9780   -7.2010   21.3950 O   0  0  0  0  0  0  0  0  0  0  0  0
  -21.8790   -6.5050   22.5720 C   0  0  0  0  0  0  0  0  0  0  0  0
  -21.4050   -7.1070   23.7570 C   0  0  0  0  0  3  0  0  0  0  0  0
  -21.2540   -6.3370   24.9270 C   0  0  0  0  0  3  0  0  0  0  0  0
  -21.5700   -4.9650   24.9140 C   0  0  0  0  0  0  0  0  0  0  0  0
  -22.0390   -4.3630   23.7330 C   0  0  0  0  0  3  0  0  0  0  0  0
  -22.1910   -5.1300   22.5650 C   0  0  0  0  0  0  0  0  0  0  0  0
  -22.6230   -4.5390   21.4250 F   0  0  0  0  0  0  0  0  0  0  0  0
  -21.4190   -4.2230   26.0350 F   0  0  0  0  0  0  0  0  0  0  0  0
  -23.2120  -13.8190   21.0660 C   0  0  0  0  0  0  0  0  0  0  0  0
  -22.5090  -13.1390   21.9660 N   0  0  0  0  0  0  0  0  0  0  0  0
  -22.7720  -14.8510   20.5610 O   0  0  0  0  0  0  0  0  0  0  0  0
  -22.8770  -12.3020   22.3920 H   0  0  0  0  0  0  0  0  0  0  0  0
  -21.5880  -13.4600   22.2340 H   0  0  0  0  0  0  0  0  0  0  0  0
  -25.8510  -15.4240   20.1480 N   0  0  0  0  0  0  0  0  0  0  0  0
  -25.1020  -16.0970   20.2680 H   0  0  0  0  0  0  0  0  0  0  0  0
  -26.6920  -15.8310   19.7580 H   0  0  0  0  0  0  0  0  0  0  0  0
  -28.1870  -24.8130   20.8130 C   0  0  0  0  0  2  0  0  0  0  0  0
  -28.5270  -25.4150   19.4270 C   0  0  0  0  0  2  0  0  0  0  0  0
  -28.4850  -26.8600   19.4630 O   0  0  0  0  0  0  0  0  0  0  0  0
  -24.6550  -31.6770   23.0630 C   0  0  0  0  0  0  0  0  0  0  0  0
  -27.2700  -27.5170   19.5590 C   0  0  0  0  0  0  0  0  0  0  0  0
  -23.4250  -30.3240   21.4240 C   0  0  0  0  0  3  0  0  0  0  0  0
  -24.8230  -28.9260   19.8170 C   0  0  0  0  0  0  0  0  0  0  0  0
  -25.9060  -30.7910   21.0870 C   0  0  0  0  0  2  0  0  0  0  0  0
  -25.9960  -29.4620   20.3600 C   0  0  0  0  0  0  0  0  0  0  0  0
  -27.2200  -28.7670   20.2240 C   0  0  0  0  0  3  0  0  0  0  0  0
  -26.0720  -27.0000   19.0120 C   0  0  0  0  0  3  0  0  0  0  0  0
  -24.8550  -27.6940   19.1400 C   0  0  0  0  0  3  0  0  0  0  0  0
  -23.5580  -29.7290   19.9950 C   0  0  0  0  0  2  0  0  0  0  0  0
  -24.6870  -30.9430   21.9160 N   0  0  0  0  0  0  0  0  0  0  0  0
  -23.5940  -31.8700   23.6740 O   0  0  0  0  0  0  0  0  0  0  0  0
  -22.8710  -29.2340   22.3650 C   0  0  0  0  0  0  0  0  0  0  0  0
  -21.5530  -29.0970   22.2740 N   0  0  0  0  0  0  0  0  0  0  0  0
  -23.5940  -28.5450   23.0830 O   0  0  0  0  0  0  0  0  0  0  0  0
  -21.0990  -29.7970   21.7020 H   0  0  0  0  0  0  0  0  0  0  0  0
  -18.2280  -27.4520   22.7290 C   0  0  0  0  0  0  0  0  0  0  0  0
  -20.6710  -28.0200   22.6480 C   0  0  0  0  0  3  0  0  0  0  0  0
  -21.0210  -26.5510   22.3870 C   0  0  0  0  0  2  0  0  0  0  0  0
  -19.9360  -25.9500   21.4670 C   0  0  0  0  0  2  0  0  0  0  0  0
  -18.5170  -26.1070   22.0580 C   0  0  0  0  0  2  0  0  0  0  0  0
  -19.2700  -28.3260   23.1180 C   0  0  0  0  0  0  0  0  0  0  0  0
  -18.9730  -29.5510   23.7500 C   0  0  0  0  0  3  0  0  0  0  0  0
  -17.6330  -29.9300   23.9510 C   0  0  0  0  0  3  0  0  0  0  0  0
  -16.5920  -29.0780   23.5370 C   0  0  0  0  0  3  0  0  0  0  0  0
  -16.8890  -27.8370   22.9420 C   0  0  0  0  0  3  0  0  0  0  0  0
  -25.9440  -32.3230   23.6460 C   0  0  0  0  0  3  0  0  0  0  0  0
  -26.5500  -31.5080   24.8520 C   0  0  1  0  0  0  0  0  0  0  0  0
  -25.5260  -31.1850   25.9650 C   0  0  0  0  0  1  0  0  0  0  0  0
  -27.1500  -30.1710   24.3580 C   0  0  0  0  0  1  0  0  0  0  0  0
  -27.7120  -32.3070   25.4870 C   0  0  0  0  0  1  0  0  0  0  0  0
  -25.6020  -33.6900   24.0600 N   0  0  0  0  0  0  0  0  0  0  0  0
  -25.8610  -34.7890   23.3380 C   0  0  0  0  0  0  0  0  0  0  0  0
  -26.4870  -34.7580   22.2750 O   0  0  0  0  0  0  0  0  0  0  0  0
  -25.0400  -33.7850   24.8920 H   0  0  0  0  0  0  0  0  0  0  0  0
  -24.0630  -36.5370   23.1390 C   0  0  0  0  0  1  0  0  0  0  0  0
  -25.3480  -36.1350   23.8830 C   0  0  0  0  0  3  0  0  0  0  0  0
  -27.4820  -37.0500   24.6790 C   0  0  0  0  0  1  0  0  0  0  0  0
  -26.3420  -37.2260   23.7830 N   0  0  0  0  0  0  0  0  0  0  0  0
  -25.9130  -38.1240   23.9880 H   0  0  0  0  0  0  0  0  0  0  0  0
  1  7  1  0
  1  5  1  0
  3  8  1  0
  4  6  1  0
  5  3  1  0
  5  6  1  0
  6  2  1  0
  7  2  1  0
  8  4  1  0
  8 10  1  1
  9  1  2  0
 11  7  1  0
 11 12  1  0
 12 21  1  0
 13 21  1  0
 14 19  1  0
 15 16  1  0
 15 14  1  0
 17 16  1  0
 17 26  1  0
 17 18  1  0
 19 13  1  0
 19 18  1  0
 20 13  2  0
 21 22  1  0
 23 24  2  0
 24 43  1  0
 25 24  1  0
 25 28  1  0
 26 27  1  0
 26 23  1  0
 27 25  2  0
 28 29  1  0
 29 30  2  0
 31 34  1  0
 31 30  1  0
 32 31  2  0
 33 32  1  0
 33 28  2  0
 34 35  1  0
 35 36  1  0
 36 37  2  0
 38 37  1  0
 38 42  1  0
 39 38  2  0
 40 35  2  0
 40 39  1  0
 41 40  1  0
 43 44  1  0
 44 47  1  0
 44 46  1  0
 45 43  2  0
 48 49  1  0
 48 23  1  0
 50 48  1  0
 51  8  1  0
 52 53  1  0
 52 51  1  0
 53 55  1  0
 54 65  2  0
 55 60  1  0
 56 64  1  0
 56 66  1  0
 57 63  1  0
 57 59  1  0
 58 64  1  0
 59 58  1  0
 60 59  2  0
 61 62  1  0
 61 55  2  0
 62 57  2  0
 63 56  1  0
 64 54  1  0
 66 68  2  0
 67 66  1  0
 69 67  1  0
 70 79  2  0
 70 75  1  0
 71 67  1  0
 71 75  1  0
 72 71  1  0
 73 74  1  0
 73 72  1  0
 74 70  1  0
 75 76  2  0
 76 77  1  0
 78 77  2  0
 79 78  1  0
 80 54  1  0
 80 85  1  0
 80 81  1  0
 81 84  1  1
 81 82  1  0
 83 81  1  0
 85 88  1  0
 86 90  1  0
 86 85  1  0
 87 86  2  0
 90 89  1  0
 92 90  1  0
 92 93  1  0
 92 91  1  0
M  ISO  4  13 100  21 100  52 101  53 101
M  END
>  <TORSDO>  (29) 
F 20

>  <SCORE>  (29) 
-12.836

>  <name>  (29) 
28

>  <ligand_id>  (29) 
28

>  <original_smiles>  (29) 
[H]c1c([H])c([H])c2c(c1[H])C([H])([H])C([H])([H])C([H])([H])C2([H])N([H])C(=O)C1([H])N(C(=O)C([H])(N([H])C(=O)C([H])(N([H])C([H])([H])[H])C([H])([H])[H])C(C([H])([H])[H])(C([H])([H])[H])C([H])([H])[H])C([H])([H])c2c([H])c(OC([H])([H])C([H])([H])[N+]3([H])C([H])([H])C4([H])C(=O)N(C([H])([H])C([H])([H])N([H])C(=O)N5C([H])([H])C([H])([H])C([H])([H])C([H])(n6nc(-c7c([H])c([H])c(Oc8c([H])c([H])c(F)c([H])c8F)c([H])c7[H])c(C(=O)N([H])[H])c6N([H])[H])C5([H])[H])C([H])([H])C4([H])C3([H])[H])c([H])c([H])c2C1([H])[H]

>  <smiles>  (29) 
[H]c1c([H])c([H])c2c(c1[H])C([H])([H])C([H])([H])C([H])([H])C2([H])N([H])C(=O)C1([H])N(C(=O)C([H])(N([H])C(=O)C([H])(N([H])C([H])([H])[H])C([H])([H])[H])C(C([H])([H])[H])(C([H])([H])[H])C([H])([H])[H])C([H])([H])c2c([H])c(OC([H])([H])C([H])([H])[N+]3([H])C([H])([H])C4([H])C(=O)N(C([H])([H])C([H])([H])N([H])C(=O)N5C([H])([H])C([H])([H])C([H])([H])C([H])(n6nc(-c7c([H])c([H])c(Oc8c([H])c([H])c(F)c([H])c8F)c([H])c7[H])c(C(=O)N([H])[H])c6N([H])[H])C5([H])[H])C([H])([H])C4([H])C3([H])[H])c([H])c([H])c2C1([H])[H]

$$$$
29:0:0
     RDKit          3D

 95104  0  0  1  0  0  0  0  0999 V2000
  -28.2490  -22.3580   21.7580 C   0  0  0  0  0  2  0  0  0  0  0  0
  -29.3600  -22.4400   20.0900 C   0  0  0  0  0  2  0  0  0  0  0  0
  -28.8150  -21.2210   20.8770 C   0  0  2  0  0  0  0  0  0  0  0  0
  -27.6760  -20.4090   20.2100 C   0  0  0  0  0  1  0  0  0  0  0  0
  -28.1550  -23.1610   20.5400 N   0  0  2  0  0  4  0  0  0  0  0  0
  -27.3440  -22.8660   20.0140 H   0  0  0  0  0  0  0  0  0  0  0  0
  -31.3330  -18.0650   22.3310 C   0  0  0  0  0  3  0  0  0  0  0  0
  -29.8160  -20.1400   21.3890 C   0  0  0  0  0  0  0  0  0  0  0  0
  -30.5140  -17.9090   21.1910 C   0  0  0  0  0  0  0  0  0  0  0  0
  -30.6610  -20.2720   22.5360 C   0  0  0  0  0  0  0  0  0  0  0  0
  -30.8020  -21.5370   23.3600 C   0  0  0  0  0  1  0  0  0  0  0  0
  -31.4240  -19.2440   22.9840 N   0  0  0  0  0  0  0  0  0  0  0  0
  -29.7890  -18.9540   20.7090 N   0  0  0  0  0  0  0  0  0  0  0  0
  -30.3160  -16.5480   20.5080 C   0  0  0  0  0  2  0  0  0  0  0  0
  -31.5950  -14.4990   20.1420 C   0  0  0  0  0  0  0  0  0  0  0  0
  -31.1100  -12.3760   18.9610 C   0  0  0  0  0  2  0  0  0  0  0  0
  -30.1530  -12.6070   17.7750 C   0  0  0  0  0  2  0  0  0  0  0  0
  -28.6820  -12.5550   18.2360 C   0  0  0  0  0  2  0  0  0  0  0  0
  -28.4250  -13.4540   19.4730 C   0  0  0  0  0  3  0  0  0  0  0  0
  -29.4800  -13.1830   20.5680 C   0  0  0  0  0  2  0  0  0  0  0  0
  -30.8150  -13.3950   19.9830 N   0  0  0  0  0  0  0  0  0  0  0  0
  -32.6750  -14.6430   19.5600 O   0  0  0  0  0  0  0  0  0  0  0  0
  -31.1560  -15.4410   20.9930 N   0  0  0  0  0  0  0  0  0  0  0  0
  -31.9200  -15.8200   21.5330 H   0  0  0  0  0  0  0  0  0  0  0  0
  -26.1220  -14.2590   20.3050 C   0  0  0  0  0  0  0  0  0  0  0  0
  -24.9980  -13.5720   20.6800 C   0  0  0  0  0  0  0  0  0  0  0  0
  -25.3270  -12.1880   20.5740 C   0  0  0  0  0  0  0  0  0  0  0  0
  -27.0670  -13.2940   19.9890 N   0  0  0  0  0  0  0  0  0  0  0  0
  -26.5940  -12.0420   20.2100 N   0  0  0  0  0  0  0  0  0  0  0  0
  -24.4900  -10.9950   20.7450 C   0  0  0  0  0  0  0  0  0  0  0  0
  -24.8740   -9.9400   21.6010 C   0  0  0  0  0  3  0  0  0  0  0  0
  -24.0390   -8.8130   21.7660 C   0  0  0  0  0  3  0  0  0  0  0  0
  -22.8130   -8.7320   21.0670 C   0  0  0  0  0  0  0  0  0  0  0  0
  -22.4480   -9.7700   20.1930 C   0  0  0  0  0  3  0  0  0  0  0  0
  -23.2780  -10.8920   20.0330 C   0  0  0  0  0  3  0  0  0  0  0  0
  -21.9540   -7.6630   21.1410 O   0  0  0  0  0  0  0  0  0  0  0  0
  -21.8440   -6.9080   22.2790 C   0  0  0  0  0  0  0  0  0  0  0  0
  -21.5010   -7.4810   23.5210 C   0  0  0  0  0  3  0  0  0  0  0  0
  -21.3140   -6.6560   24.6470 C   0  0  0  0  0  3  0  0  0  0  0  0
  -21.4690   -5.2610   24.5320 C   0  0  0  0  0  0  0  0  0  0  0  0
  -21.8080   -4.6890   23.2920 C   0  0  0  0  0  3  0  0  0  0  0  0
  -21.9910   -5.5100   22.1680 C   0  0  0  0  0  0  0  0  0  0  0  0
  -22.2940   -4.9530   20.9710 F   0  0  0  0  0  0  0  0  0  0  0  0
  -21.2810   -4.4700   25.6120 F   0  0  0  0  0  0  0  0  0  0  0  0
  -23.6620  -14.1640   21.0310 C   0  0  0  0  0  0  0  0  0  0  0  0
  -22.9230  -13.5190   21.9280 N   0  0  0  0  0  0  0  0  0  0  0  0
  -23.2860  -15.2270   20.5450 O   0  0  0  0  0  0  0  0  0  0  0  0
  -22.0430  -13.9060   22.2390 H   0  0  0  0  0  0  0  0  0  0  0  0
  -23.2150  -12.6250   22.2920 H   0  0  0  0  0  0  0  0  0  0  0  0
  -26.4100  -15.6130   20.1820 N   0  0  0  0  0  0  0  0  0  0  0  0
  -25.7140  -16.3290   20.3630 H   0  0  0  0  0  0  0  0  0  0  0  0
  -27.2440  -15.9800   19.7470 H   0  0  0  0  0  0  0  0  0  0  0  0
  -28.1850  -24.6340   20.7630 C   0  0  0  0  0  2  0  0  0  0  0  0
  -28.1640  -25.4670   19.4630 C   0  0  0  0  0  2  0  0  0  0  0  0
  -28.1630  -26.8790   19.7540 O   0  0  0  0  0  0  0  0  0  0  0  0
  -24.6840  -31.9270   23.4020 C   0  0  0  0  0  0  0  0  0  0  0  0
  -26.9790  -27.5900   19.8870 C   0  0  0  0  0  0  0  0  0  0  0  0
  -23.3360  -30.6810   21.7460 C   0  0  0  0  0  3  0  0  0  0  0  0
  -24.6440  -29.1850   20.1500 C   0  0  0  0  0  0  0  0  0  0  0  0
  -25.8620  -30.9540   21.4290 C   0  0  0  0  0  2  0  0  0  0  0  0
  -25.8530  -29.6240   20.6980 C   0  0  0  0  0  0  0  0  0  0  0  0
  -27.0210  -28.8360   20.5610 C   0  0  0  0  0  3  0  0  0  0  0  0
  -25.7370  -27.1610   19.3560 C   0  0  0  0  0  3  0  0  0  0  0  0
  -24.5790  -27.9520   19.4800 C   0  0  0  0  0  3  0  0  0  0  0  0
  -23.4440  -30.0890   20.3150 C   0  0  0  0  0  2  0  0  0  0  0  0
  -24.6500  -31.1970   22.2500 N   0  0  0  0  0  0  0  0  0  0  0  0
  -23.6460  -32.2010   24.0190 O   0  0  0  0  0  0  0  0  0  0  0  0
  -22.6960  -29.6220   22.6740 C   0  0  0  0  0  0  0  0  0  0  0  0
  -21.3820  -29.3980   22.5120 N   0  0  0  0  0  0  0  0  0  0  0  0
  -23.3800  -29.0090   23.4960 O   0  0  0  0  0  0  0  0  0  0  0  0
  -20.8870  -29.9490   21.8250 H   0  0  0  0  0  0  0  0  0  0  0  0
  -18.0760  -27.9650   22.7920 C   0  0  0  0  0  0  0  0  0  0  0  0
  -20.5800  -28.4210   23.2490 C   0  0  0  0  0  3  0  0  0  0  0  0
  -20.8320  -26.9870   22.7270 C   0  0  0  0  0  2  0  0  0  0  0  0
  -19.8390  -26.5570   21.6420 C   0  0  0  0  0  2  0  0  0  0  0  0
  -18.4040  -26.6140   22.1770 C   0  0  0  0  0  2  0  0  0  0  0  0
  -19.0990  -28.8190   23.2830 C   0  0  0  0  0  0  0  0  0  0  0  0
  -18.7440  -30.0770   23.8150 C   0  0  0  0  0  3  0  0  0  0  0  0
  -17.3970  -30.4840   23.8660 C   0  0  0  0  0  3  0  0  0  0  0  0
  -16.3870  -29.6270   23.3950 C   0  0  0  0  0  3  0  0  0  0  0  0
  -16.7260  -28.3710   22.8630 C   0  0  0  0  0  3  0  0  0  0  0  0
  -26.0260  -32.4700   23.9830 C   0  0  0  0  0  3  0  0  0  0  0  0
  -26.5640  -31.6220   25.2010 C   0  0  1  0  0  0  0  0  0  0  0  0
  -25.5060  -31.3620   26.2990 C   0  0  0  0  0  1  0  0  0  0  0  0
  -27.0900  -30.2490   24.7220 C   0  0  0  0  0  1  0  0  0  0  0  0
  -27.7650  -32.3460   25.8570 C   0  0  0  0  0  1  0  0  0  0  0  0
  -25.8010  -33.8650   24.3850 N   0  0  0  0  0  0  0  0  0  0  0  0
  -26.1580  -34.9340   23.6570 C   0  0  0  0  0  0  0  0  0  0  0  0
  -26.7820  -34.8420   22.5960 O   0  0  0  0  0  0  0  0  0  0  0  0
  -25.2430  -34.0140   25.2130 H   0  0  0  0  0  0  0  0  0  0  0  0
  -24.4970  -36.8120   23.4610 C   0  0  0  0  0  1  0  0  0  0  0  0
  -25.7600  -36.3230   24.1880 C   0  0  0  0  0  3  0  0  0  0  0  0
  -27.9770  -37.0810   24.9240 C   0  0  0  0  0  1  0  0  0  0  0  0
  -26.8320  -37.3340   24.0550 N   0  0  0  0  0  0  0  0  0  0  0  0
  -26.4780  -38.2640   24.2610 H   0  0  0  0  0  0  0  0  0  0  0  0
  2  5  1  0
  2  3  1  0
  3  4  1  6
  3  8  1  0
  3  1  1  0
  5 53  1  0
  5  1  1  0
  5  6  1  6
  7 12  1  0
  8 10  1  0
  9  7  2  0
 10 12  2  0
 10 11  1  0
 13  9  1  0
 13  8  2  0
 14 23  1  0
 14  9  1  0
 15 23  1  0
 16 21  1  0
 17 18  1  0
 17 16  1  0
 19 18  1  0
 19 28  1  0
 19 20  1  0
 21 15  1  0
 21 20  1  0
 22 15  2  0
 23 24  1  0
 25 26  2  0
 26 45  1  0
 27 26  1  0
 27 30  1  0
 28 29  1  0
 28 25  1  0
 29 27  2  0
 30 31  1  0
 31 32  2  0
 33 36  1  0
 33 32  1  0
 34 33  2  0
 35 34  1  0
 35 30  2  0
 36 37  1  0
 37 38  1  0
 38 39  2  0
 40 39  1  0
 40 44  1  0
 41 40  2  0
 42 37  2  0
 42 41  1  0
 43 42  1  0
 45 46  1  0
 46 48  1  0
 46 49  1  0
 47 45  2  0
 50 25  1  0
 50 51  1  0
 52 50  1  0
 54 55  1  0
 54 53  1  0
 55 57  1  0
 56 67  2  0
 57 62  1  0
 58 66  1  0
 58 68  1  0
 59 65  1  0
 59 61  1  0
 60 66  1  0
 61 60  1  0
 62 61  2  0
 63 64  1  0
 63 57  2  0
 64 59  2  0
 65 58  1  0
 66 56  1  0
 68 70  2  0
 69 68  1  0
 71 69  1  0
 72 81  2  0
 72 77  1  0
 73 69  1  0
 73 77  1  0
 74 73  1  0
 75 76  1  0
 75 74  1  0
 76 72  1  0
 77 78  2  0
 78 79  1  0
 80 79  2  0
 81 80  1  0
 82 56  1  0
 82 87  1  0
 82 83  1  0
 83 86  1  1
 83 84  1  0
 85 83  1  0
 87 90  1  0
 88 92  1  0
 88 87  1  0
 89 88  2  0
 92 91  1  0
 94 92  1  0
 94 95  1  0
 94 93  1  0
M  ISO  4  15 100  23 100  54 101  55 101
M  END
>  <TORSDO>  (30) 
F 20

>  <SCORE>  (30) 
-12.784

>  <name>  (30) 
29

>  <ligand_id>  (30) 
29

>  <original_smiles>  (30) 
[H]c1nc(C([H])([H])[H])c(C2(C([H])([H])[H])C([H])([H])[N+]([H])(C([H])([H])C([H])([H])Oc3c([H])c([H])c4c(c3[H])C([H])([H])N(C(=O)C([H])(N([H])C(=O)C([H])(N([H])C([H])([H])[H])C([H])([H])[H])C(C([H])([H])[H])(C([H])([H])[H])C([H])([H])[H])C([H])(C(=O)N([H])C3([H])c5c([H])c([H])c([H])c([H])c5C([H])([H])C([H])([H])C3([H])[H])C4([H])[H])C2([H])[H])nc1C([H])([H])N([H])C(=O)N1C([H])([H])C([H])([H])C([H])([H])C([H])(n2nc(-c3c([H])c([H])c(Oc4c([H])c([H])c(F)c([H])c4F)c([H])c3[H])c(C(=O)N([H])[H])c2N([H])[H])C1([H])[H]

>  <smiles>  (30) 
[H]c1nc(C([H])([H])[H])c(C2(C([H])([H])[H])C([H])([H])[N+]([H])(C([H])([H])C([H])([H])Oc3c([H])c([H])c4c(c3[H])C([H])([H])N(C(=O)C([H])(N([H])C(=O)C([H])(N([H])C([H])([H])[H])C([H])([H])[H])C(C([H])([H])[H])(C([H])([H])[H])C([H])([H])[H])C([H])(C(=O)N([H])C3([H])c5c([H])c([H])c([H])c([H])c5C([H])([H])C([H])([H])C3([H])[H])C4([H])[H])C2([H])[H])nc1C([H])([H])N([H])C(=O)N1C([H])([H])C([H])([H])C([H])([H])C([H])(n2nc(-c3c([H])c([H])c(Oc4c([H])c([H])c(F)c([H])c4F)c([H])c3[H])c(C(=O)N([H])[H])c2N([H])[H])C1([H])[H]

$$$$
30:0:0
     RDKit          3D

 91100  0  0  1  0  0  0  0  0999 V2000
  -30.6560  -14.7180   20.3560 C   0  0  0  0  0  0  0  0  0  0  0  0
  -30.4110  -12.4520   19.3940 C   0  0  0  0  0  2  0  0  0  0  0  0
  -29.4890  -12.5340   18.1580 C   0  0  0  0  0  2  0  0  0  0  0  0
  -28.0150  -12.3930   18.5790 C   0  0  0  0  0  2  0  0  0  0  0  0
  -27.6350  -13.3040   19.7770 C   0  0  0  0  0  3  0  0  0  0  0  0
  -28.6800  -13.2140   20.9080 C   0  0  0  0  0  2  0  0  0  0  0  0
  -29.9840  -13.5240   20.3130 N   0  0  0  0  0  0  0  0  0  0  0  0
  -31.8760  -14.7300   20.1600 O   0  0  0  0  0  0  0  0  0  0  0  0
  -28.7020  -21.2960   20.0150 C   0  0  0  0  0  3  0  0  0  0  0  0
  -30.2820  -22.9030   19.1700 C   0  0  0  0  0  3  0  0  0  0  0  0
  -29.0120  -22.6840   19.7420 C   0  0  0  0  0  0  0  0  0  0  0  0
  -29.6440  -20.2660   19.6470 C   0  0  0  0  0  0  0  0  0  0  0  0
  -28.9260  -18.1860   20.9640 C   0  0  0  0  0  3  0  0  0  0  0  0
  -29.5730  -17.9820   18.6000 C   0  0  0  0  0  2  0  0  0  0  0  0
  -29.0970  -16.6030   21.0520 C   0  0  0  0  0  3  0  0  0  0  0  0
  -30.3660  -16.6750   18.8830 C   0  0  0  0  0  2  0  0  0  0  0  0
  -31.1450  -21.9030   18.8620 N   0  0  0  0  0  0  0  0  0  0  0  0
  -30.8260  -20.6220   19.0830 N   0  0  0  0  0  0  0  0  0  0  0  0
  -29.4840  -18.8410   19.7800 N   0  0  0  0  0  0  0  0  0  0  0  0
  -29.9350  -15.8690   20.0580 N   0  0  0  0  0  0  0  0  0  0  0  0
  -25.2340  -13.9180   20.4460 C   0  0  0  0  0  0  0  0  0  0  0  0
  -24.1590  -13.1520   20.8030 C   0  0  0  0  0  0  0  0  0  0  0  0
  -24.6200  -11.8000   20.8070 C   0  0  0  0  0  0  0  0  0  0  0  0
  -26.2820  -13.0330   20.2510 N   0  0  0  0  0  0  0  0  0  0  0  0
  -25.9170  -11.7560   20.5350 N   0  0  0  0  0  0  0  0  0  0  0  0
  -23.8880  -10.5400   21.0000 C   0  0  0  0  0  0  0  0  0  0  0  0
  -24.3030   -9.5830   21.9530 C   0  0  0  0  0  3  0  0  0  0  0  0
  -23.5700   -8.3900   22.1320 C   0  0  0  0  0  3  0  0  0  0  0  0
  -22.4080   -8.1460   21.3600 C   0  0  0  0  0  0  0  0  0  0  0  0
  -22.0120   -9.0950   20.4000 C   0  0  0  0  0  3  0  0  0  0  0  0
  -22.7450  -10.2780   20.2190 C   0  0  0  0  0  3  0  0  0  0  0  0
  -21.6490   -7.0040   21.4480 O   0  0  0  0  0  0  0  0  0  0  0  0
  -21.5810   -6.2750   22.6080 C   0  0  0  0  0  0  0  0  0  0  0  0
  -21.1440   -6.8480   23.8230 C   0  0  0  0  0  3  0  0  0  0  0  0
  -21.0200   -6.0460   24.9750 C   0  0  0  0  0  3  0  0  0  0  0  0
  -21.3250   -4.6730   24.9140 C   0  0  0  0  0  0  0  0  0  0  0  0
  -21.7580   -4.0990   23.7040 C   0  0  0  0  0  3  0  0  0  0  0  0
  -21.8830   -4.8990   22.5540 C   0  0  0  0  0  0  0  0  0  0  0  0
  -22.2780   -4.3380   21.3860 F   0  0  0  0  0  0  0  0  0  0  0  0
  -21.2000   -3.9000   26.0180 F   0  0  0  0  0  0  0  0  0  0  0  0
  -22.7570  -13.6380   21.0290 C   0  0  0  0  0  0  0  0  0  0  0  0
  -22.0080  -12.9610   21.8940 N   0  0  0  0  0  0  0  0  0  0  0  0
  -22.3330  -14.6510   20.4750 O   0  0  0  0  0  0  0  0  0  0  0  0
  -22.3630  -12.1450   22.3690 H   0  0  0  0  0  0  0  0  0  0  0  0
  -21.0700  -13.2740   22.0970 H   0  0  0  0  0  0  0  0  0  0  0  0
  -25.3970  -15.2850   20.2440 N   0  0  0  0  0  0  0  0  0  0  0  0
  -24.6130  -15.9240   20.3070 H   0  0  0  0  0  0  0  0  0  0  0  0
  -26.2370  -15.7150   19.8780 H   0  0  0  0  0  0  0  0  0  0  0  0
  -28.0340  -23.9110   19.8900 C   0  0  0  0  0  2  0  0  0  0  0  0
  -28.4860  -25.2080   20.7080 C   0  0  0  0  0  2  0  0  0  0  0  0
  -28.4900  -26.5790   20.1460 O   0  0  0  0  0  0  0  0  0  0  0  0
  -24.6620  -31.8920   23.2380 C   0  0  0  0  0  0  0  0  0  0  0  0
  -27.3400  -27.3710   20.1950 C   0  0  0  0  0  0  0  0  0  0  0  0
  -23.4840  -30.4860   21.5810 C   0  0  0  0  0  3  0  0  0  0  0  0
  -24.9630  -28.9470   20.1720 C   0  0  0  0  0  0  0  0  0  0  0  0
  -26.0230  -30.8270   21.4280 C   0  0  0  0  0  2  0  0  0  0  0  0
  -26.1200  -29.4530   20.7800 C   0  0  0  0  0  0  0  0  0  0  0  0
  -27.3160  -28.6760   20.7780 C   0  0  0  0  0  3  0  0  0  0  0  0
  -26.1610  -26.9050   19.5830 C   0  0  0  0  0  3  0  0  0  0  0  0
  -24.9830  -27.6780   19.5680 C   0  0  0  0  0  3  0  0  0  0  0  0
  -23.7200  -29.8140   20.2020 C   0  0  0  0  0  2  0  0  0  0  0  0
  -24.7400  -31.0880   22.1380 N   0  0  0  0  0  0  0  0  0  0  0  0
  -23.5700  -32.1600   23.7650 O   0  0  0  0  0  0  0  0  0  0  0  0
  -22.8240  -29.4630   22.5340 C   0  0  0  0  0  0  0  0  0  0  0  0
  -21.4970  -29.2870   22.4080 N   0  0  0  0  0  0  0  0  0  0  0  0
  -23.5030  -28.8290   23.3460 O   0  0  0  0  0  0  0  0  0  0  0  0
  -21.0100  -29.8500   21.7240 H   0  0  0  0  0  0  0  0  0  0  0  0
  -18.1180  -28.1020   22.9100 C   0  0  0  0  0  0  0  0  0  0  0  0
  -20.6780  -28.3460   23.1720 C   0  0  0  0  0  3  0  0  0  0  0  0
  -20.7720  -26.9200   22.5800 C   0  0  0  0  0  2  0  0  0  0  0  0
  -19.6640  -26.6150   21.5670 C   0  0  0  0  0  2  0  0  0  0  0  0
  -18.2860  -26.7600   22.2180 C   0  0  0  0  0  2  0  0  0  0  0  0
  -19.2430  -28.8540   23.3440 C   0  0  0  0  0  0  0  0  0  0  0  0
  -19.0330  -30.1110   23.9520 C   0  0  0  0  0  3  0  0  0  0  0  0
  -17.7320  -30.6150   24.1320 C   0  0  0  0  0  3  0  0  0  0  0  0
  -16.6210  -29.8600   23.7130 C   0  0  0  0  0  3  0  0  0  0  0  0
  -16.8160  -28.6060   23.1090 C   0  0  0  0  0  3  0  0  0  0  0  0
  -25.9340  -32.5350   23.8730 C   0  0  0  0  0  3  0  0  0  0  0  0
  -25.6120  -33.9320   24.2000 N   0  0  0  0  0  0  0  0  0  0  0  0
  -25.9310  -34.9860   23.4370 C   0  0  0  0  0  0  0  0  0  0  0  0
  -26.6000  -34.8870   22.4050 O   0  0  0  0  0  0  0  0  0  0  0  0
  -25.0190  -34.0840   25.0040 H   0  0  0  0  0  0  0  0  0  0  0  0
  -24.1810  -36.7580   23.0930 C   0  0  0  0  0  1  0  0  0  0  0  0
  -25.4320  -36.3700   23.8950 C   0  0  0  0  0  3  0  0  0  0  0  0
  -27.5620  -37.2830   24.7060 C   0  0  0  0  0  1  0  0  0  0  0  0
  -26.4510  -37.4340   23.7700 N   0  0  0  0  0  0  0  0  0  0  0  0
  -26.0350  -38.3500   23.9180 H   0  0  0  0  0  0  0  0  0  0  0  0
  -26.4490  -31.7720   25.1560 C   0  0  1  0  0  0  0  0  0  0  0  0
  -25.3530  -31.5290   26.2200 C   0  0  0  0  0  1  0  0  0  0  0  0
  -27.0530  -30.3980   24.7790 C   0  0  0  0  0  1  0  0  0  0  0  0
  -27.5890  -32.5810   25.8210 C   0  0  0  0  0  1  0  0  0  0  0  0
  2  7  1  0
  3  4  1  0
  3  2  1  0
  5  4  1  0
  5 24  1  0
  5  6  1  0
  7  1  1  0
  7  6  1  0
  8  1  2  0
 10 11  2  0
 11 49  1  0
 11  9  1  0
 12 19  1  0
 12  9  2  0
 13 15  2  0
 14 16  1  0
 14 19  1  0
 16 20  1  0
 17 18  2  0
 17 10  1  0
 18 12  1  0
 19 13  1  0
 20  1  1  0
 20 15  1  0
 21 22  2  0
 22 23  1  0
 22 41  1  0
 23 26  1  0
 24 21  1  0
 24 25  1  0
 25 23  2  0
 26 27  1  0
 27 28  2  0
 29 32  1  0
 29 28  1  0
 30 29  2  0
 31 30  1  0
 31 26  2  0
 32 33  1  0
 33 34  1  0
 34 35  2  0
 36 35  1  0
 36 40  1  0
 37 36  2  0
 38 33  2  0
 38 37  1  0
 39 38  1  0
 41 42  1  0
 42 45  1  0
 42 44  1  0
 43 41  2  0
 46 47  1  0
 46 21  1  0
 48 46  1  0
 49 50  1  0
 51 53  1  0
 51 50  1  0
 52 63  2  0
 53 58  1  0
 54 62  1  0
 54 64  1  0
 55 61  1  0
 55 57  1  0
 56 62  1  0
 57 56  1  0
 58 57  2  0
 59 53  2  0
 60 59  1  0
 60 55  2  0
 61 54  1  0
 62 52  1  0
 64 66  2  0
 65 64  1  0
 67 65  1  0
 68 77  2  0
 68 73  1  0
 69 65  1  0
 69 73  1  0
 70 69  1  0
 71 72  1  0
 71 70  1  0
 72 68  1  0
 73 74  2  0
 74 75  1  0
 76 75  2  0
 77 76  1  0
 78 52  1  0
 78 79  1  0
 78 88  1  0
 79 82  1  0
 80 84  1  0
 80 79  1  0
 81 80  2  0
 84 83  1  0
 86 84  1  0
 86 87  1  0
 86 85  1  0
 88 91  1  1
 88 89  1  0
 90 88  1  0
M  ISO  4   1 100  20 100  50 101  51 101
M  END
>  <TORSDO>  (31) 
F 17

>  <SCORE>  (31) 
-14.849

>  <name>  (31) 
30

>  <ligand_id>  (31) 
30

>  <original_smiles>  (31) 
[H]c1nnc(N2C([H])([H])C([H])([H])N(C(=O)N3C([H])([H])C([H])([H])C([H])([H])C([H])(n4nc(-c5c([H])c([H])c(Oc6c([H])c([H])c(F)c([H])c6F)c([H])c5[H])c(C(=O)N([H])[H])c4N([H])[H])C3([H])[H])C([H])([H])C2([H])[H])c([H])c1C([H])([H])C([H])([H])Oc1c([H])c([H])c2c(c1[H])C([H])([H])N(C(=O)C([H])(N([H])C(=O)C([H])(N([H])C([H])([H])[H])C([H])([H])[H])C(C([H])([H])[H])(C([H])([H])[H])C([H])([H])[H])C([H])(C(=O)N([H])C1([H])c3c([H])c([H])c([H])c([H])c3C([H])([H])C([H])([H])C1([H])[H])C2([H])[H]

>  <smiles>  (31) 
[H]c1nnc(N2C([H])([H])C([H])([H])N(C(=O)N3C([H])([H])C([H])([H])C([H])([H])C([H])(n4nc(-c5c([H])c([H])c(Oc6c([H])c([H])c(F)c([H])c6F)c([H])c5[H])c(C(=O)N([H])[H])c4N([H])[H])C3([H])[H])C([H])([H])C2([H])[H])c([H])c1C([H])([H])C([H])([H])Oc1c([H])c([H])c2c(c1[H])C([H])([H])N(C(=O)C([H])(N([H])C(=O)C([H])(N([H])C([H])([H])[H])C([H])([H])[H])C(C([H])([H])[H])(C([H])([H])[H])C([H])([H])[H])C([H])(C(=O)N([H])C1([H])c3c([H])c([H])c([H])c([H])c3C([H])([H])C([H])([H])C1([H])[H])C2([H])[H]

$$$$
31:0:0
     RDKit          3D

 90100  0  0  1  0  0  0  0  0999 V2000
  -26.6290  -23.0720   20.9610 C   0  0  0  0  0  3  0  0  0  0  0  0
  -28.5960  -22.2070   20.1830 C   0  0  0  0  0  0  0  0  0  0  0  0
  -28.0140  -24.6780   20.1880 C   0  0  0  0  0  0  0  0  0  0  0  0
  -29.6310  -19.7250   21.0170 C   0  0  0  0  0  3  0  0  0  0  0  0
  -28.9970  -19.6010   19.1820 C   0  0  0  0  0  3  0  0  0  0  0  0
  -30.0150  -18.5570   19.9350 C   0  0  0  0  0  3  0  0  0  0  0  0
  -25.2870  -22.7680   21.5940 C   0  0  0  0  0  1  0  0  0  0  0  0
  -27.4020  -22.0060   20.7210 N   0  0  0  0  0  0  0  0  0  0  0  0
  -26.8510  -24.3680   20.7390 N   0  0  0  0  0  0  0  0  0  0  0  0
  -28.9260  -23.5880   19.9080 N   0  0  0  0  0  0  0  0  0  0  0  0
  -29.4360  -20.8430   19.9750 N   0  0  0  0  0  0  0  0  0  0  0  0
  -30.5770  -15.6470   19.9830 C   0  0  0  0  0  0  0  0  0  0  0  0
  -30.5790  -13.1850   19.1460 C   0  0  0  0  0  2  0  0  0  0  0  0
  -29.6240  -12.9370   17.9520 C   0  0  0  0  0  2  0  0  0  0  0  0
  -28.1980  -12.6390   18.4470 C   0  0  0  0  0  2  0  0  0  0  0  0
  -27.7640  -13.6100   19.5730 C   0  0  0  0  0  3  0  0  0  0  0  0
  -28.8460  -13.8030   20.6580 C   0  0  0  0  0  2  0  0  0  0  0  0
  -30.0390  -14.3280   19.9750 N   0  0  0  0  0  0  0  0  0  0  0  0
  -31.7820  -15.6690   19.6950 O   0  0  0  0  0  0  0  0  0  0  0  0
  -29.7910  -16.9040   20.1110 N   0  0  0  0  0  0  0  0  0  0  0  0
  -28.8290  -16.6870   20.3230 H   0  0  0  0  0  0  0  0  0  0  0  0
  -25.4280  -14.1300   20.4520 C   0  0  0  0  0  0  0  0  0  0  0  0
  -24.3890  -13.3350   20.8470 C   0  0  0  0  0  0  0  0  0  0  0  0
  -24.8620  -11.9900   20.7540 C   0  0  0  0  0  0  0  0  0  0  0  0
  -26.4630  -13.2690   20.1330 N   0  0  0  0  0  0  0  0  0  0  0  0
  -26.1390  -11.9730   20.3830 N   0  0  0  0  0  0  0  0  0  0  0  0
  -24.1500  -10.7180   20.9390 C   0  0  0  0  0  0  0  0  0  0  0  0
  -24.5610   -9.7740   21.9050 C   0  0  0  0  0  3  0  0  0  0  0  0
  -23.8450   -8.5690   22.0790 C   0  0  0  0  0  3  0  0  0  0  0  0
  -22.7050   -8.3000   21.2830 C   0  0  0  0  0  0  0  0  0  0  0  0
  -22.3150   -9.2320   20.3070 C   0  0  0  0  0  3  0  0  0  0  0  0
  -23.0310  -10.4290   20.1320 C   0  0  0  0  0  3  0  0  0  0  0  0
  -21.9660   -7.1440   21.3630 O   0  0  0  0  0  0  0  0  0  0  0  0
  -21.7960   -6.4790   22.5510 C   0  0  0  0  0  0  0  0  0  0  0  0
  -21.1910   -7.0930   23.6690 C   0  0  0  0  0  3  0  0  0  0  0  0
  -20.9740   -6.3500   24.8470 C   0  0  0  0  0  3  0  0  0  0  0  0
  -21.3500   -4.9960   24.9060 C   0  0  0  0  0  0  0  0  0  0  0  0
  -21.9460   -4.3810   23.7910 C   0  0  0  0  0  3  0  0  0  0  0  0
  -22.1650   -5.1190   22.6160 C   0  0  0  0  0  0  0  0  0  0  0  0
  -22.7200   -4.5170   21.5370 F   0  0  0  0  0  0  0  0  0  0  0  0
  -21.1340   -4.2800   26.0340 F   0  0  0  0  0  0  0  0  0  0  0  0
  -23.0040  -13.7960   21.1910 C   0  0  0  0  0  0  0  0  0  0  0  0
  -22.3220  -13.0780   22.0760 N   0  0  0  0  0  0  0  0  0  0  0  0
  -22.5370  -14.8280   20.7110 O   0  0  0  0  0  0  0  0  0  0  0  0
  -22.7150  -12.2430   22.4850 H   0  0  0  0  0  0  0  0  0  0  0  0
  -21.3930  -13.3680   22.3500 H   0  0  0  0  0  0  0  0  0  0  0  0
  -25.5720  -15.5070   20.3070 N   0  0  0  0  0  0  0  0  0  0  0  0
  -24.8010  -16.1460   20.4660 H   0  0  0  0  0  0  0  0  0  0  0  0
  -26.3820  -15.9600   19.9020 H   0  0  0  0  0  0  0  0  0  0  0  0
  -28.2290  -26.1550   19.9870 O   0  0  0  0  0  0  0  0  0  0  0  0
  -24.6890  -31.9880   23.3160 C   0  0  0  0  0  0  0  0  0  0  0  0
  -27.2060  -27.2530   20.0460 C   0  0  0  0  0  0  0  0  0  0  0  0
  -23.4740  -30.6640   21.6350 C   0  0  0  0  0  3  0  0  0  0  0  0
  -24.9060  -29.1360   20.1150 C   0  0  0  0  0  0  0  0  0  0  0  0
  -26.0370  -30.8880   21.4620 C   0  0  0  0  0  2  0  0  0  0  0  0
  -26.1000  -29.5080   20.7460 C   0  0  0  0  0  0  0  0  0  0  0  0
  -27.2430  -28.5860   20.6940 C   0  0  0  0  0  3  0  0  0  0  0  0
  -25.9890  -27.0580   19.3510 C   0  0  0  0  0  3  0  0  0  0  0  0
  -24.8750  -27.9320   19.3990 C   0  0  0  0  0  3  0  0  0  0  0  0
  -23.6850  -30.0490   20.2240 C   0  0  0  0  0  2  0  0  0  0  0  0
  -24.7560  -31.2050   22.1910 N   0  0  0  0  0  0  0  0  0  0  0  0
  -23.6060  -32.2490   23.8670 O   0  0  0  0  0  0  0  0  0  0  0  0
  -22.8000  -29.6200   22.5630 C   0  0  0  0  0  0  0  0  0  0  0  0
  -21.4750  -29.4290   22.4270 N   0  0  0  0  0  0  0  0  0  0  0  0
  -23.4760  -28.9840   23.3740 O   0  0  0  0  0  0  0  0  0  0  0  0
  -20.9810  -29.9950   21.7500 H   0  0  0  0  0  0  0  0  0  0  0  0
  -18.1210  -28.1180   22.8760 C   0  0  0  0  0  0  0  0  0  0  0  0
  -20.6710  -28.4470   23.1640 C   0  0  0  0  0  3  0  0  0  0  0  0
  -20.8150  -27.0350   22.5480 C   0  0  0  0  0  2  0  0  0  0  0  0
  -19.7290  -26.7130   21.5180 C   0  0  0  0  0  2  0  0  0  0  0  0
  -18.3400  -26.7970   22.1570 C   0  0  0  0  0  2  0  0  0  0  0  0
  -19.2150  -28.9000   23.3350 C   0  0  0  0  0  0  0  0  0  0  0  0
  -18.9540  -30.1330   23.9710 C   0  0  0  0  0  3  0  0  0  0  0  0
  -17.6340  -30.5860   24.1490 C   0  0  0  0  0  3  0  0  0  0  0  0
  -16.5550  -29.8030   23.7040 C   0  0  0  0  0  3  0  0  0  0  0  0
  -16.8000  -28.5700   23.0740 C   0  0  0  0  0  3  0  0  0  0  0  0
  -25.9670  -32.6070   23.9570 C   0  0  0  0  0  3  0  0  0  0  0  0
  -25.6590  -33.9980   24.3310 N   0  0  0  0  0  0  0  0  0  0  0  0
  -25.9520  -35.0760   23.5900 C   0  0  0  0  0  0  0  0  0  0  0  0
  -26.5720  -35.0020   22.5260 O   0  0  0  0  0  0  0  0  0  0  0  0
  -25.1010  -34.1270   25.1620 H   0  0  0  0  0  0  0  0  0  0  0  0
  -24.1820  -36.8590   23.4020 C   0  0  0  0  0  1  0  0  0  0  0  0
  -25.4860  -36.4520   24.1080 C   0  0  0  0  0  3  0  0  0  0  0  0
  -27.6610  -37.3600   24.8010 C   0  0  0  0  0  1  0  0  0  0  0  0
  -26.4950  -37.5200   23.9360 N   0  0  0  0  0  0  0  0  0  0  0  0
  -26.0880  -38.4330   24.1180 H   0  0  0  0  0  0  0  0  0  0  0  0
  -26.4760  -31.8070   25.2200 C   0  0  1  0  0  0  0  0  0  0  0  0
  -25.3770  -31.5480   26.2780 C   0  0  0  0  0  1  0  0  0  0  0  0
  -27.0590  -30.4350   24.8100 C   0  0  0  0  0  1  0  0  0  0  0  0
  -27.6250  -32.5840   25.9040 C   0  0  0  0  0  1  0  0  0  0  0  0
  1  7  1  0
  2  8  2  0
  3  9  2  0
  4 11  1  0
  5  6  1  0
  5 11  1  0
  5  4  1  0
  6 20  1  0
  6  4  1  0
  8  1  1  0
  9  1  1  0
 10  2  1  0
 10  3  2  0
 11  2  1  0
 12 20  1  0
 13 18  1  0
 14 15  1  0
 14 13  1  0
 16 15  1  0
 16 25  1  0
 16 17  1  0
 18 12  1  0
 18 17  1  0
 19 12  2  0
 20 21  1  0
 22 23  2  0
 23 42  1  0
 24 23  1  0
 24 27  1  0
 25 26  1  0
 25 22  1  0
 26 24  2  0
 27 28  1  0
 28 29  2  0
 30 33  1  0
 30 29  1  0
 31 30  2  0
 32 31  1  0
 32 27  2  0
 33 34  1  0
 34 39  2  0
 34 35  1  0
 35 36  2  0
 36 37  1  0
 37 41  1  0
 38 37  2  0
 39 38  1  0
 40 39  1  0
 42 43  1  0
 43 46  1  0
 43 45  1  0
 44 42  2  0
 47 22  1  0
 47 48  1  0
 49 47  1  0
 50 52  1  0
 50  3  1  0
 51 62  2  0
 52 57  1  0
 53 61  1  0
 53 63  1  0
 54 60  1  0
 54 56  1  0
 55 61  1  0
 56 55  1  0
 57 56  2  0
 58 59  1  0
 58 52  2  0
 59 54  2  0
 60 53  1  0
 61 51  1  0
 63 65  2  0
 64 63  1  0
 66 64  1  0
 67 76  2  0
 67 72  1  0
 68 64  1  0
 68 72  1  0
 69 68  1  0
 70 71  1  0
 70 69  1  0
 71 67  1  0
 72 73  2  0
 73 74  1  0
 75 74  2  0
 76 75  1  0
 77 51  1  0
 77 78  1  0
 77 87  1  0
 78 81  1  0
 79 83  1  0
 79 78  1  0
 80 79  2  0
 83 82  1  0
 85 83  1  0
 85 86  1  0
 85 84  1  0
 87 90  1  1
 87 88  1  0
 89 87  1  0
M  ISO  4   3 101  12 100  20 100  50 101
M  END
>  <TORSDO>  (32) 
F 16

>  <SCORE>  (32) 
-14.652

>  <name>  (32) 
31

>  <ligand_id>  (32) 
31

>  <original_smiles>  (32) 
[H]c1c([H])c([H])c2c(c1[H])C([H])([H])C([H])([H])C([H])([H])C2([H])N([H])C(=O)C1([H])N(C(=O)C([H])(N([H])C(=O)C([H])(N([H])C([H])([H])[H])C([H])([H])[H])C(C([H])([H])[H])(C([H])([H])[H])C([H])([H])[H])C([H])([H])c2c([H])c(Oc3nc(N4C([H])([H])C([H])(N([H])C(=O)N5C([H])([H])C([H])([H])C([H])([H])C([H])(n6nc(-c7c([H])c([H])c(Oc8c([H])c([H])c(F)c([H])c8F)c([H])c7[H])c(C(=O)N([H])[H])c6N([H])[H])C5([H])[H])C4([H])[H])nc(C([H])([H])[H])n3)c([H])c([H])c2C1([H])[H]

>  <smiles>  (32) 
[H]c1c([H])c([H])c2c(c1[H])C([H])([H])C([H])([H])C([H])([H])C2([H])N([H])C(=O)C1([H])N(C(=O)C([H])(N([H])C(=O)C([H])(N([H])C([H])([H])[H])C([H])([H])[H])C(C([H])([H])[H])(C([H])([H])[H])C([H])([H])[H])C([H])([H])c2c([H])c(Oc3nc(N4C([H])([H])C([H])(N([H])C(=O)N5C([H])([H])C([H])([H])C([H])([H])C([H])(n6nc(-c7c([H])c([H])c(Oc8c([H])c([H])c(F)c([H])c8F)c([H])c7[H])c(C(=O)N([H])[H])c6N([H])[H])C5([H])[H])C4([H])[H])nc(C([H])([H])[H])n3)c([H])c([H])c2C1([H])[H]

$$$$
32:0:0
     RDKit          3D

 95105  0  0  1  0  0  0  0  0999 V2000
  -30.8370  -14.9320   20.2180 C   0  0  0  0  0  0  0  0  0  0  0  0
  -30.5100  -12.6420   19.2430 C   0  0  0  0  0  2  0  0  0  0  0  0
  -29.5580  -12.6780   18.0300 C   0  0  0  0  0  2  0  0  0  0  0  0
  -28.0960  -12.5430   18.4930 C   0  0  0  0  0  2  0  0  0  0  0  0
  -27.7610  -13.4690   19.6930 C   0  0  0  0  0  3  0  0  0  0  0  0
  -28.8400  -13.4100   20.7940 C   0  0  0  0  0  2  0  0  0  0  0  0
  -30.1100  -13.7540   20.1460 N   0  0  0  0  0  0  0  0  0  0  0  0
  -32.0390  -14.8470   19.9450 O   0  0  0  0  0  0  0  0  0  0  0  0
  -28.1030  -21.4030   20.3790 C   0  0  0  0  0  3  0  0  0  0  0  0
  -27.9100  -22.8260   20.2260 C   0  0  0  0  0  0  0  0  0  0  0  0
  -29.0130  -23.6720   19.8850 C   0  0  0  0  0  0  0  0  0  0  0  0
  -29.3790  -20.8010   20.1810 C   0  0  0  0  0  0  0  0  0  0  0  0
  -30.2800  -17.3990   22.2730 C   0  0  0  0  0  2  0  0  0  0  0  0
  -31.3410  -18.3650   21.6740 C   0  0  0  0  0  2  0  0  0  0  0  0
  -28.6510  -18.2830   20.5820 C   0  0  0  0  0  2  0  0  0  0  0  0
  -30.9180  -17.3420   19.4020 C   0  0  0  0  0  2  0  0  0  0  0  0
  -29.3540  -16.9270   21.1300 C   0  0  0  0  0  3  0  0  0  0  0  0
  -30.9620  -18.7170   20.2100 C   0  0  0  0  0  3  0  0  0  0  0  0
  -30.2250  -23.0290   19.7500 N   0  0  0  0  0  0  0  0  0  0  0  0
  -30.4000  -21.6790   19.9000 N   0  0  0  0  0  0  0  0  0  0  0  0
  -29.6300  -19.3540   20.2170 N   0  0  0  0  0  0  0  0  0  0  0  0
  -30.2300  -16.2100   20.1330 N   0  0  0  0  0  0  0  0  0  0  0  0
  -25.4150  -14.1210   20.4820 C   0  0  0  0  0  0  0  0  0  0  0  0
  -24.3330  -13.3770   20.8650 C   0  0  0  0  0  0  0  0  0  0  0  0
  -24.7520  -12.0110   20.8130 C   0  0  0  0  0  0  0  0  0  0  0  0
  -26.4250  -13.2120   20.2170 N   0  0  0  0  0  0  0  0  0  0  0  0
  -26.0370  -11.9380   20.4820 N   0  0  0  0  0  0  0  0  0  0  0  0
  -23.9890  -10.7710   21.0050 C   0  0  0  0  0  0  0  0  0  0  0  0
  -24.4130   -9.7740   21.9100 C   0  0  0  0  0  3  0  0  0  0  0  0
  -23.6500   -8.6010   22.0920 C   0  0  0  0  0  3  0  0  0  0  0  0
  -22.4480   -8.4150   21.3670 C   0  0  0  0  0  0  0  0  0  0  0  0
  -22.0420   -9.4000   20.4510 C   0  0  0  0  0  3  0  0  0  0  0  0
  -22.8060  -10.5660   20.2660 C   0  0  0  0  0  3  0  0  0  0  0  0
  -21.6560   -7.2960   21.4610 O   0  0  0  0  0  0  0  0  0  0  0  0
  -21.6250   -6.5280   22.5970 C   0  0  0  0  0  0  0  0  0  0  0  0
  -21.2600   -7.0670   23.8500 C   0  0  0  0  0  3  0  0  0  0  0  0
  -21.1740   -6.2260   24.9780 C   0  0  0  0  0  3  0  0  0  0  0  0
  -21.4430   -4.8500   24.8550 C   0  0  0  0  0  0  0  0  0  0  0  0
  -21.8020   -4.3120   23.6060 C   0  0  0  0  0  3  0  0  0  0  0  0
  -21.8900   -5.1490   22.4800 C   0  0  0  0  0  0  0  0  0  0  0  0
  -22.2160   -4.6210   21.2760 F   0  0  0  0  0  0  0  0  0  0  0  0
  -21.3540   -4.0420   25.9370 F   0  0  0  0  0  0  0  0  0  0  0  0
  -22.9570  -13.8970   21.1630 C   0  0  0  0  0  0  0  0  0  0  0  0
  -22.2360  -13.2420   22.0650 N   0  0  0  0  0  0  0  0  0  0  0  0
  -22.5330  -14.9210   20.6300 O   0  0  0  0  0  0  0  0  0  0  0  0
  -22.5930  -12.4140   22.5190 H   0  0  0  0  0  0  0  0  0  0  0  0
  -21.3140  -13.5740   22.3060 H   0  0  0  0  0  0  0  0  0  0  0  0
  -25.6200  -15.4860   20.3100 N   0  0  0  0  0  0  0  0  0  0  0  0
  -24.8700  -16.1600   20.4260 H   0  0  0  0  0  0  0  0  0  0  0  0
  -26.4690  -15.8930   19.9410 H   0  0  0  0  0  0  0  0  0  0  0  0
  -26.5120  -23.4140   20.3480 C   0  0  0  0  0  3  0  0  0  0  0  0
  -26.4970  -24.4050   21.2380 F   0  0  0  0  0  0  0  0  0  0  0  0
  -25.6150  -22.4980   20.7160 F   0  0  0  0  0  0  0  0  0  0  0  0
  -28.8650  -25.1780   19.2900 C   0  0  0  0  0  2  0  0  0  0  0  0
  -28.6890  -26.4730   20.0640 O   0  0  0  0  0  0  0  0  0  0  0  0
  -24.5520  -31.6590   23.0790 C   0  0  0  0  0  0  0  0  0  0  0  0
  -27.5550  -27.3280   19.9470 C   0  0  0  0  0  0  0  0  0  0  0  0
  -23.5120  -30.2730   21.3240 C   0  0  0  0  0  3  0  0  0  0  0  0
  -25.1150  -28.8750   19.8960 C   0  0  0  0  0  0  0  0  0  0  0  0
  -26.0440  -30.7190   21.2890 C   0  0  0  0  0  2  0  0  0  0  0  0
  -26.2310  -29.3750   20.5780 C   0  0  0  0  0  0  0  0  0  0  0  0
  -27.4490  -28.6120   20.5960 C   0  0  0  0  0  3  0  0  0  0  0  0
  -26.4040  -26.9080   19.2410 C   0  0  0  0  0  3  0  0  0  0  0  0
  -25.2090  -27.6520   19.2190 C   0  0  0  0  0  3  0  0  0  0  0  0
  -23.8320  -29.6820   19.9270 C   0  0  0  0  0  2  0  0  0  0  0  0
  -24.7190  -30.9010   21.9550 N   0  0  0  0  0  0  0  0  0  0  0  0
  -23.4290  -31.8500   23.5700 O   0  0  0  0  0  0  0  0  0  0  0  0
  -22.8650  -29.1770   22.2050 C   0  0  0  0  0  0  0  0  0  0  0  0
  -21.5390  -28.9940   22.0720 N   0  0  0  0  0  0  0  0  0  0  0  0
  -23.5540  -28.4990   22.9710 O   0  0  0  0  0  0  0  0  0  0  0  0
  -21.0400  -29.5950   21.4320 H   0  0  0  0  0  0  0  0  0  0  0  0
  -18.1660  -27.7830   22.5800 C   0  0  0  0  0  0  0  0  0  0  0  0
  -20.7360  -27.9880   22.7700 C   0  0  0  0  0  3  0  0  0  0  0  0
  -20.7950  -26.6240   22.0430 C   0  0  0  0  0  2  0  0  0  0  0  0
  -19.6490  -26.4230   21.0460 C   0  0  0  0  0  2  0  0  0  0  0  0
  -18.2960  -26.5120   21.7570 C   0  0  0  0  0  2  0  0  0  0  0  0
  -19.3110  -28.4830   23.0420 C   0  0  0  0  0  0  0  0  0  0  0  0
  -19.1330  -29.6770   23.7740 C   0  0  0  0  0  3  0  0  0  0  0  0
  -17.8430  -30.1700   24.0480 C   0  0  0  0  0  3  0  0  0  0  0  0
  -16.7130  -29.4640   23.6010 C   0  0  0  0  0  3  0  0  0  0  0  0
  -16.8750  -28.2720   22.8720 C   0  0  0  0  0  3  0  0  0  0  0  0
  -25.7630  -32.3360   23.7920 C   0  0  0  0  0  3  0  0  0  0  0  0
  -25.3730  -33.7180   24.1100 N   0  0  0  0  0  0  0  0  0  0  0  0
  -25.6890  -34.7900   23.3720 C   0  0  0  0  0  0  0  0  0  0  0  0
  -26.4070  -34.7240   22.3710 O   0  0  0  0  0  0  0  0  0  0  0  0
  -24.7360  -33.8400   24.8840 H   0  0  0  0  0  0  0  0  0  0  0  0
  -23.8880  -36.5010   22.9650 C   0  0  0  0  0  1  0  0  0  0  0  0
  -25.1210  -36.1520   23.8150 C   0  0  0  0  0  3  0  0  0  0  0  0
  -27.1770  -37.1430   24.7220 C   0  0  0  0  0  1  0  0  0  0  0  0
  -26.1040  -37.2550   23.7380 N   0  0  0  0  0  0  0  0  0  0  0  0
  -25.6480  -38.1540   23.8680 H   0  0  0  0  0  0  0  0  0  0  0  0
  -26.2190  -31.5760   25.0980 C   0  0  1  0  0  0  0  0  0  0  0  0
  -25.0680  -31.2990   26.0920 C   0  0  0  0  0  1  0  0  0  0  0  0
  -26.8730  -30.2200   24.7450 C   0  0  0  0  0  1  0  0  0  0  0  0
  -27.2960  -32.4070   25.8340 C   0  0  0  0  0  1  0  0  0  0  0  0
  2  7  1  0
  3  4  1  0
  3  2  1  0
  5  4  1  0
  5 26  1  0
  5  6  1  0
  7  1  1  0
  7  6  1  0
  8  1  2  0
 10 51  1  0
 10  9  1  0
 11 10  2  0
 12 21  1  0
 12  9  2  0
 14 13  1  0
 16 22  1  0
 17 15  1  0
 17 13  1  0
 18 16  1  0
 18 21  1  0
 18 14  1  0
 19 11  1  0
 19 20  2  0
 20 12  1  0
 21 15  1  0
 22  1  1  0
 22 17  1  0
 23 24  2  0
 24 43  1  0
 25 24  1  0
 25 28  1  0
 26 23  1  0
 26 27  1  0
 27 25  2  0
 28 29  1  0
 29 30  2  0
 31 34  1  0
 31 30  1  0
 32 31  2  0
 33 32  1  0
 33 28  2  0
 34 35  1  0
 35 36  1  0
 36 37  2  0
 38 37  1  0
 38 42  1  0
 39 38  2  0
 40 35  2  0
 40 39  1  0
 41 40  1  0
 43 44  1  0
 44 47  1  0
 44 46  1  0
 45 43  2  0
 48 49  1  0
 48 23  1  0
 50 48  1  0
 51 53  1  0
 51 52  1  0
 54 11  1  0
 54 55  1  0
 56 67  2  0
 57 55  1  0
 57 62  1  0
 58 66  1  0
 58 68  1  0
 59 65  1  0
 59 61  1  0
 60 66  1  0
 61 62  2  0
 61 60  1  0
 63 57  2  0
 64 63  1  0
 64 59  2  0
 65 58  1  0
 66 56  1  0
 68 70  2  0
 69 68  1  0
 71 69  1  0
 72 81  2  0
 72 77  1  0
 73 69  1  0
 73 77  1  0
 74 73  1  0
 75 76  1  0
 75 74  1  0
 76 72  1  0
 77 78  2  0
 78 79  1  0
 80 79  2  0
 81 80  1  0
 82 56  1  0
 82 83  1  0
 82 92  1  0
 83 86  1  0
 84 88  1  0
 84 83  1  0
 85 84  2  0
 88 87  1  0
 90 88  1  0
 90 91  1  0
 90 89  1  0
 92 95  1  1
 92 93  1  0
 94 92  1  0
M  ISO  4   1 100  22 100  54 101  55 101
M  END
>  <TORSDO>  (33) 
F 17

>  <SCORE>  (33) 
-14.751

>  <name>  (33) 
32

>  <ligand_id>  (33) 
32

>  <original_smiles>  (33) 
[H]c1c([H])c([H])c2c(c1[H])C([H])([H])C([H])([H])C([H])([H])C2([H])N([H])C(=O)C1([H])N(C(=O)C([H])(N([H])C(=O)C([H])(N([H])C([H])([H])[H])C([H])([H])[H])C(C([H])([H])[H])(C([H])([H])[H])C([H])([H])[H])C([H])([H])c2c([H])c(OC([H])([H])c3nnc(N4C([H])([H])C5([H])N(C(=O)N6C([H])([H])C([H])([H])C([H])([H])C([H])(n7nc(-c8c([H])c([H])c(Oc9c([H])c([H])c(F)c([H])c9F)c([H])c8[H])c(C(=O)N([H])[H])c7N([H])[H])C6([H])[H])C([H])([H])C4([H])C([H])([H])C5([H])[H])c([H])c3C([H])(F)F)c([H])c([H])c2C1([H])[H]

>  <smiles>  (33) 
[H]c1c([H])c([H])c2c(c1[H])C([H])([H])C([H])([H])C([H])([H])C2([H])N([H])C(=O)C1([H])N(C(=O)C([H])(N([H])C(=O)C([H])(N([H])C([H])([H])[H])C([H])([H])[H])C(C([H])([H])[H])(C([H])([H])[H])C([H])([H])[H])C([H])([H])c2c([H])c(OC([H])([H])c3nnc(N4C([H])([H])C5([H])N(C(=O)N6C([H])([H])C([H])([H])C([H])([H])C([H])(n7nc(-c8c([H])c([H])c(Oc9c([H])c([H])c(F)c([H])c9F)c([H])c8[H])c(C(=O)N([H])[H])c7N([H])[H])C6([H])[H])C([H])([H])C4([H])C([H])([H])C5([H])[H])c([H])c3C([H])(F)F)c([H])c([H])c2C1([H])[H]

$$$$
33:0:0
     RDKit          3D

 91100  0  0  1  0  0  0  0  0999 V2000
  -27.7970  -18.4340   20.3180 C   0  0  0  0  0  3  0  0  0  0  0  0
  -29.0740  -17.8810   20.5710 C   0  0  0  0  0  0  0  0  0  0  0  0
  -28.7570  -20.4580   19.9260 C   0  0  0  0  0  0  0  0  0  0  0  0
  -27.6440  -19.7360   19.9740 N   0  0  0  0  0  0  0  0  0  0  0  0
  -30.1670  -18.6910   20.4650 N   0  0  0  0  0  0  0  0  0  0  0  0
  -30.0010  -20.0030   20.1710 N   0  0  0  0  0  0  0  0  0  0  0  0
  -28.5680  -21.7760   19.5430 N   0  0  0  0  0  0  0  0  0  0  0  0
  -27.6320  -21.8830   19.1780 H   0  0  0  0  0  0  0  0  0  0  0  0
  -30.8780  -14.5580   20.1240 C   0  0  0  0  0  0  0  0  0  0  0  0
  -30.3400  -12.4420   18.9270 C   0  0  0  0  0  2  0  0  0  0  0  0
  -29.3240  -12.5650   17.7660 C   0  0  0  0  0  2  0  0  0  0  0  0
  -27.8840  -12.3270   18.2700 C   0  0  0  0  0  2  0  0  0  0  0  0
  -27.5080  -13.2640   19.4500 C   0  0  0  0  0  3  0  0  0  0  0  0
  -28.6690  -13.3380   20.5070 C   0  0  0  0  0  2  0  0  0  0  0  0
  -30.0450  -13.4600   19.9790 N   0  0  0  0  0  0  0  0  0  0  0  0
  -31.9610  -14.6140   19.5450 O   0  0  0  0  0  0  0  0  0  0  0  0
  -30.0090  -15.8870   22.0960 C   0  0  0  0  0  2  0  0  0  0  0  0
  -29.2130  -16.3870   20.9140 C   0  0  0  0  0  3  0  0  0  0  0  0
  -30.4800  -15.7070   20.7560 N   0  0  0  0  0  0  0  0  0  0  0  0
  -25.2590  -13.8610   20.4790 C   0  0  0  0  0  0  0  0  0  0  0  0
  -24.2040  -13.0860   20.8750 C   0  0  0  0  0  0  0  0  0  0  0  0
  -24.6540  -11.7370   20.7670 C   0  0  0  0  0  0  0  0  0  0  0  0
  -26.2450  -12.9690   20.0920 N   0  0  0  0  0  0  0  0  0  0  0  0
  -25.9080  -11.6890   20.3440 N   0  0  0  0  0  0  0  0  0  0  0  0
  -23.9360  -10.4810   20.9730 C   0  0  0  0  0  0  0  0  0  0  0  0
  -24.3980   -9.5080   21.8830 C   0  0  0  0  0  3  0  0  0  0  0  0
  -23.6830   -8.3070   22.0640 C   0  0  0  0  0  3  0  0  0  0  0  0
  -22.4880   -8.0800   21.3380 C   0  0  0  0  0  0  0  0  0  0  0  0
  -22.0390   -9.0510   20.4220 C   0  0  0  0  0  3  0  0  0  0  0  0
  -22.7590  -10.2430   20.2410 C   0  0  0  0  0  3  0  0  0  0  0  0
  -21.7370   -6.9330   21.4330 O   0  0  0  0  0  0  0  0  0  0  0  0
  -21.6800   -6.2060   22.5930 C   0  0  0  0  0  0  0  0  0  0  0  0
  -21.2510   -6.7790   23.8110 C   0  0  0  0  0  3  0  0  0  0  0  0
  -21.1470   -5.9800   24.9650 C   0  0  0  0  0  3  0  0  0  0  0  0
  -21.4520   -4.6070   24.9020 C   0  0  0  0  0  0  0  0  0  0  0  0
  -21.8770   -4.0360   23.6900 C   0  0  0  0  0  3  0  0  0  0  0  0
  -21.9860   -4.8310   22.5380 C   0  0  0  0  0  0  0  0  0  0  0  0
  -22.3680   -4.2740   21.3630 F   0  0  0  0  0  0  0  0  0  0  0  0
  -21.3480   -3.8330   26.0090 F   0  0  0  0  0  0  0  0  0  0  0  0
  -22.8360  -13.5630   21.2470 C   0  0  0  0  0  0  0  0  0  0  0  0
  -22.1550  -12.8620   22.1510 N   0  0  0  0  0  0  0  0  0  0  0  0
  -22.3770  -14.6010   20.7750 O   0  0  0  0  0  0  0  0  0  0  0  0
  -22.5220  -12.0210   22.5700 H   0  0  0  0  0  0  0  0  0  0  0  0
  -21.2320  -13.1820   22.4150 H   0  0  0  0  0  0  0  0  0  0  0  0
  -25.4490  -15.2380   20.3800 N   0  0  0  0  0  0  0  0  0  0  0  0
  -26.3250  -15.6530   20.1010 H   0  0  0  0  0  0  0  0  0  0  0  0
  -24.7670  -15.9120   20.7080 H   0  0  0  0  0  0  0  0  0  0  0  0
  -28.8810  -22.9000   20.4340 C   0  0  0  0  0  2  0  0  0  0  0  0
  -28.6640  -24.2980   19.7690 C   0  0  0  0  0  2  0  0  0  0  0  0
  -28.5430  -25.4820   20.7650 C   0  0  0  0  0  2  0  0  0  0  0  0
  -28.5180  -26.7710   20.1220 O   0  0  0  0  0  0  0  0  0  0  0  0
  -24.5920  -31.8720   23.2050 C   0  0  0  0  0  0  0  0  0  0  0  0
  -27.3280  -27.4670   20.1480 C   0  0  0  0  0  0  0  0  0  0  0  0
  -23.4180  -30.4510   21.5580 C   0  0  0  0  0  3  0  0  0  0  0  0
  -24.9030  -28.9260   20.1500 C   0  0  0  0  0  0  0  0  0  0  0  0
  -25.9410  -30.8520   21.3690 C   0  0  0  0  0  2  0  0  0  0  0  0
  -26.0530  -29.4810   20.7290 C   0  0  0  0  0  0  0  0  0  0  0  0
  -27.2730  -28.7640   20.7080 C   0  0  0  0  0  3  0  0  0  0  0  0
  -26.1600  -26.9150   19.5790 C   0  0  0  0  0  3  0  0  0  0  0  0
  -24.9530  -27.6430   19.5750 C   0  0  0  0  0  3  0  0  0  0  0  0
  -23.6450  -29.7670   20.1830 C   0  0  0  0  0  2  0  0  0  0  0  0
  -24.6690  -31.0710   22.1050 N   0  0  0  0  0  0  0  0  0  0  0  0
  -23.5030  -32.1300   23.7360 O   0  0  0  0  0  0  0  0  0  0  0  0
  -22.7750  -29.4240   22.5190 C   0  0  0  0  0  0  0  0  0  0  0  0
  -21.4540  -29.2250   22.3830 N   0  0  0  0  0  0  0  0  0  0  0  0
  -23.4610  -28.8120   23.3390 O   0  0  0  0  0  0  0  0  0  0  0  0
  -20.9650  -29.7700   21.6870 H   0  0  0  0  0  0  0  0  0  0  0  0
  -18.0890  -27.9890   22.8410 C   0  0  0  0  0  0  0  0  0  0  0  0
  -20.6400  -28.2790   23.1460 C   0  0  0  0  0  3  0  0  0  0  0  0
  -20.7690  -26.8480   22.5740 C   0  0  0  0  0  2  0  0  0  0  0  0
  -19.6830  -26.5090   21.5480 C   0  0  0  0  0  2  0  0  0  0  0  0
  -18.2920  -26.6390   22.1750 C   0  0  0  0  0  2  0  0  0  0  0  0
  -19.1930  -28.7660   23.2820 C   0  0  0  0  0  0  0  0  0  0  0  0
  -18.9510  -30.0300   23.8630 C   0  0  0  0  0  3  0  0  0  0  0  0
  -17.6380  -30.5150   24.0110 C   0  0  0  0  0  3  0  0  0  0  0  0
  -16.5480  -29.7340   23.5900 C   0  0  0  0  0  3  0  0  0  0  0  0
  -16.7750  -28.4730   23.0100 C   0  0  0  0  0  3  0  0  0  0  0  0
  -25.8640  -32.5220   23.8340 C   0  0  0  0  0  3  0  0  0  0  0  0
  -26.3870  -31.7550   25.1090 C   0  0  1  0  0  0  0  0  0  0  0  0
  -25.2970  -31.4950   26.1730 C   0  0  0  0  0  1  0  0  0  0  0  0
  -26.9920  -30.3890   24.7110 C   0  0  0  0  0  1  0  0  0  0  0  0
  -27.5240  -32.5640   25.7790 C   0  0  0  0  0  1  0  0  0  0  0  0
  -25.5330  -33.9150   24.1630 N   0  0  0  0  0  0  0  0  0  0  0  0
  -25.8510  -34.9710   23.4030 C   0  0  0  0  0  0  0  0  0  0  0  0
  -26.5240  -34.8790   22.3730 O   0  0  0  0  0  0  0  0  0  0  0  0
  -24.9320  -34.0600   24.9600 H   0  0  0  0  0  0  0  0  0  0  0  0
  -24.0870  -36.7280   23.0530 C   0  0  0  0  0  1  0  0  0  0  0  0
  -25.3410  -36.3510   23.8580 C   0  0  0  0  0  3  0  0  0  0  0  0
  -27.4650  -37.2760   24.6740 C   0  0  0  0  0  1  0  0  0  0  0  0
  -26.3530  -37.4230   23.7370 N   0  0  0  0  0  0  0  0  0  0  0  0
  -25.9320  -38.3350   23.8870 H   0  0  0  0  0  0  0  0  0  0  0  0
  1  2  2  0
  3  4  2  0
  3  6  1  0
  4  1  1  0
  5  2  1  0
  6  5  2  0
  7  3  1  0
  7 48  1  0
  8  7  1  0
  9 19  1  0
 10 15  1  0
 11 12  1  0
 11 10  1  0
 13 12  1  0
 13 23  1  0
 13 14  1  0
 15  9  1  0
 15 14  1  0
 16  9  2  0
 18  2  1  0
 18 17  1  0
 19 18  1  0
 19 17  1  0
 20 21  2  0
 21 40  1  0
 22 21  1  0
 22 25  1  0
 23 24  1  0
 23 20  1  0
 24 22  2  0
 25 26  1  0
 26 27  2  0
 28 31  1  0
 28 27  1  0
 29 28  2  0
 30 29  1  0
 30 25  2  0
 31 32  1  0
 32 33  1  0
 33 34  2  0
 35 34  1  0
 35 39  1  0
 36 35  2  0
 37 32  2  0
 37 36  1  0
 38 37  1  0
 40 41  1  0
 41 44  1  0
 41 43  1  0
 42 40  2  0
 45 20  1  0
 45 47  1  0
 46 45  1  0
 49 48  1  0
 49 50  1  0
 51 53  1  0
 51 50  1  0
 52 63  2  0
 53 58  1  0
 54 62  1  0
 54 64  1  0
 55 61  1  0
 55 57  1  0
 56 62  1  0
 57 56  1  0
 58 57  2  0
 59 53  2  0
 60 59  1  0
 60 55  2  0
 61 54  1  0
 62 52  1  0
 64 66  2  0
 65 64  1  0
 67 65  1  0
 68 77  2  0
 68 73  1  0
 69 65  1  0
 69 73  1  0
 70 69  1  0
 71 72  1  0
 71 70  1  0
 72 68  1  0
 73 74  2  0
 74 75  1  0
 76 75  2  0
 77 76  1  0
 78 52  1  0
 78 83  1  0
 78 79  1  0
 79 82  1  1
 79 80  1  0
 81 79  1  0
 83 86  1  0
 84 88  1  0
 84 83  1  0
 85 84  2  0
 88 87  1  0
 90 88  1  0
 90 91  1  0
 90 89  1  0
M  ISO  4   9 100  19 100  50 101  51 101
M  END
>  <TORSDO>  (34) 
F 19

>  <SCORE>  (34) 
-13.841

>  <name>  (34) 
33

>  <ligand_id>  (34) 
33

>  <original_smiles>  (34) 
[H]c1nc(N([H])C([H])([H])C([H])([H])C([H])([H])Oc2c([H])c([H])c3c(c2[H])C([H])([H])N(C(=O)C([H])(N([H])C(=O)C([H])(N([H])C([H])([H])[H])C([H])([H])[H])C(C([H])([H])[H])(C([H])([H])[H])C([H])([H])[H])C([H])(C(=O)N([H])C2([H])c4c([H])c([H])c([H])c([H])c4C([H])([H])C([H])([H])C2([H])[H])C3([H])[H])nnc1C1([H])N(C(=O)N2C([H])([H])C([H])([H])C([H])([H])C([H])(n3nc(-c4c([H])c([H])c(Oc5c([H])c([H])c(F)c([H])c5F)c([H])c4[H])c(C(=O)N([H])[H])c3N([H])[H])C2([H])[H])C1([H])[H]

>  <smiles>  (34) 
[H]c1nc(N([H])C([H])([H])C([H])([H])C([H])([H])Oc2c([H])c([H])c3c(c2[H])C([H])([H])N(C(=O)C([H])(N([H])C(=O)C([H])(N([H])C([H])([H])[H])C([H])([H])[H])C(C([H])([H])[H])(C([H])([H])[H])C([H])([H])[H])C([H])(C(=O)N([H])C2([H])c4c([H])c([H])c([H])c([H])c4C([H])([H])C([H])([H])C2([H])[H])C3([H])[H])nnc1C1([H])N(C(=O)N2C([H])([H])C([H])([H])C([H])([H])C([H])(n3nc(-c4c([H])c([H])c(Oc5c([H])c([H])c(F)c([H])c5F)c([H])c4[H])c(C(=O)N([H])[H])c3N([H])[H])C2([H])[H])C1([H])[H]

$$$$
34:0:0
     RDKit          3D

 96105  0  0  1  0  0  0  0  0999 V2000
  -29.7450  -21.5100   19.9010 C   0  0  0  0  0  3  0  0  0  0  0  0
  -27.3100  -21.0020   18.8390 C   0  0  0  0  0  0  0  0  0  0  0  0
  -28.0320  -19.9790   19.5370 C   0  0  0  0  0  0  0  0  0  0  0  0
  -29.0310  -22.5210   19.2080 C   0  0  0  0  0  0  0  0  0  0  0  0
  -25.9230  -20.8670   18.2290 C   0  0  0  0  0  1  0  0  0  0  0  0
  -29.2540  -20.2500   20.0700 N   0  0  0  0  0  0  0  0  0  0  0  0
  -27.8170  -22.2460   18.6790 N   0  0  0  0  0  0  0  0  0  0  0  0
  -29.5330  -23.8270   19.0570 N   0  0  0  0  0  0  0  0  0  0  0  0
  -30.4360  -24.0620   19.4590 H   0  0  0  0  0  0  0  0  0  0  0  0
  -28.7180  -24.8370   16.9410 C   0  0  0  0  0  1  0  0  0  0  0  0
  -28.7110  -24.9010   18.4820 C   0  0  0  0  0  3  0  0  0  0  0  0
  -29.1580  -26.3210   18.9400 C   0  0  0  0  0  2  0  0  0  0  0  0
  -28.6250  -26.7820   20.1880 O   0  0  0  0  0  0  0  0  0  0  0  0
  -24.6000  -31.8310   23.2240 C   0  0  0  0  0  0  0  0  0  0  0  0
  -27.4380  -27.4870   20.1490 C   0  0  0  0  0  0  0  0  0  0  0  0
  -23.4820  -30.4450   21.5080 C   0  0  0  0  0  3  0  0  0  0  0  0
  -25.0150  -28.9520   20.1230 C   0  0  0  0  0  0  0  0  0  0  0  0
  -26.0120  -30.8310   21.4280 C   0  0  0  0  0  2  0  0  0  0  0  0
  -26.1400  -29.4720   20.7720 C   0  0  0  0  0  0  0  0  0  0  0  0
  -27.3500  -28.7420   20.7960 C   0  0  0  0  0  3  0  0  0  0  0  0
  -26.2900  -26.9800   19.4980 C   0  0  0  0  0  3  0  0  0  0  0  0
  -25.0830  -27.6990   19.4950 C   0  0  0  0  0  3  0  0  0  0  0  0
  -23.7570  -29.7920   20.1280 C   0  0  0  0  0  2  0  0  0  0  0  0
  -24.7140  -31.0540   22.1090 N   0  0  0  0  0  0  0  0  0  0  0  0
  -23.4930  -32.0790   23.7210 O   0  0  0  0  0  0  0  0  0  0  0  0
  -22.8050  -29.3980   22.4230 C   0  0  0  0  0  0  0  0  0  0  0  0
  -21.4790  -29.2510   22.2820 N   0  0  0  0  0  0  0  0  0  0  0  0
  -23.4720  -28.7250   23.2110 O   0  0  0  0  0  0  0  0  0  0  0  0
  -21.0090  -29.8440   21.6110 H   0  0  0  0  0  0  0  0  0  0  0  0
  -18.0650  -28.1780   22.7810 C   0  0  0  0  0  0  0  0  0  0  0  0
  -20.6360  -28.3020   23.0080 C   0  0  0  0  0  3  0  0  0  0  0  0
  -20.6620  -26.9110   22.3340 C   0  0  0  0  0  2  0  0  0  0  0  0
  -19.5260  -26.7060   21.3280 C   0  0  0  0  0  2  0  0  0  0  0  0
  -18.1670  -26.8710   22.0140 C   0  0  0  0  0  2  0  0  0  0  0  0
  -19.2260  -28.8600   23.2320 C   0  0  0  0  0  0  0  0  0  0  0  0
  -19.0790  -30.0890   23.9100 C   0  0  0  0  0  3  0  0  0  0  0  0
  -17.8030  -30.6350   24.1430 C   0  0  0  0  0  3  0  0  0  0  0  0
  -16.6560  -29.9500   23.7060 C   0  0  0  0  0  3  0  0  0  0  0  0
  -16.7870  -28.7250   23.0300 C   0  0  0  0  0  3  0  0  0  0  0  0
  -25.8500  -32.4650   23.9100 C   0  0  0  0  0  3  0  0  0  0  0  0
  -26.2930  -31.7060   25.2200 C   0  0  1  0  0  0  0  0  0  0  0  0
  -25.1420  -31.4720   26.2260 C   0  0  0  0  0  1  0  0  0  0  0  0
  -26.8990  -30.3270   24.8710 C   0  0  0  0  0  1  0  0  0  0  0  0
  -27.4030  -32.5070   25.9390 C   0  0  0  0  0  1  0  0  0  0  0  0
  -25.5260  -33.8660   24.2070 N   0  0  0  0  0  0  0  0  0  0  0  0
  -25.8850  -34.9080   23.4460 C   0  0  0  0  0  0  0  0  0  0  0  0
  -26.5970  -34.7950   22.4440 O   0  0  0  0  0  0  0  0  0  0  0  0
  -24.9010  -34.0280   24.9830 H   0  0  0  0  0  0  0  0  0  0  0  0
  -24.1680  -36.6920   22.9890 C   0  0  0  0  0  1  0  0  0  0  0  0
  -25.3720  -36.3020   23.8620 C   0  0  0  0  0  3  0  0  0  0  0  0
  -27.4570  -37.2120   24.7880 C   0  0  0  0  0  1  0  0  0  0  0  0
  -26.4060  -37.3560   23.7840 N   0  0  0  0  0  0  0  0  0  0  0  0
  -25.9890  -38.2760   23.8900 H   0  0  0  0  0  0  0  0  0  0  0  0
  -27.4630  -18.5710   19.8110 C   0  0  0  0  0  2  0  0  0  0  0  0
  -30.7880  -14.8340   20.3900 C   0  0  0  0  0  0  0  0  0  0  0  0
  -30.6420  -12.5370   19.5550 C   0  0  0  0  0  2  0  0  0  0  0  0
  -29.7390  -12.5470   18.3010 C   0  0  0  0  0  2  0  0  0  0  0  0
  -28.2510  -12.4200   18.6890 C   0  0  0  0  0  2  0  0  0  0  0  0
  -27.8300  -13.3800   19.8330 C   0  0  0  0  0  3  0  0  0  0  0  0
  -28.8540  -13.3390   20.9950 C   0  0  0  0  0  2  0  0  0  0  0  0
  -30.1780  -13.6220   20.4320 N   0  0  0  0  0  0  0  0  0  0  0  0
  -32.0030  -14.9400   20.2190 O   0  0  0  0  0  0  0  0  0  0  0  0
  -30.3230  -16.4450   18.5550 C   0  0  0  0  0  2  0  0  0  0  0  0
  -29.1470  -17.3980   18.2340 C   0  0  0  0  0  2  0  0  0  0  0  0
  -29.0450  -16.6760   20.4810 C   0  0  0  0  0  2  0  0  0  0  0  0
  -29.9990  -15.7850   19.8280 N   0  0  0  0  0  0  0  0  0  0  0  0
  -28.2720  -17.3700   19.4280 N   0  0  1  0  0  4  0  0  0  0  0  0
  -27.5590  -16.6950   19.1800 H   0  0  0  0  0  0  0  0  0  0  0  0
  -25.4200  -14.0160   20.4770 C   0  0  0  0  0  0  0  0  0  0  0  0
  -24.3330  -13.2480   20.8090 C   0  0  0  0  0  0  0  0  0  0  0  0
  -24.7940  -11.8950   20.8100 C   0  0  0  0  0  0  0  0  0  0  0  0
  -26.4690  -13.1240   20.2900 N   0  0  0  0  0  0  0  0  0  0  0  0
  -26.0960  -11.8510   20.5520 N   0  0  0  0  0  0  0  0  0  0  0  0
  -24.0650  -10.6350   20.9900 C   0  0  0  0  0  0  0  0  0  0  0  0
  -24.4580   -9.6920   21.9670 C   0  0  0  0  0  3  0  0  0  0  0  0
  -23.7360   -8.4920   22.1360 C   0  0  0  0  0  3  0  0  0  0  0  0
  -22.6050   -8.2250   21.3290 C   0  0  0  0  0  0  0  0  0  0  0  0
  -22.2300   -9.1560   20.3470 C   0  0  0  0  0  3  0  0  0  0  0  0
  -22.9520  -10.3480   20.1740 C   0  0  0  0  0  3  0  0  0  0  0  0
  -21.8580   -7.0750   21.4010 O   0  0  0  0  0  0  0  0  0  0  0  0
  -21.7280   -6.3740   22.5730 C   0  0  0  0  0  0  0  0  0  0  0  0
  -21.1610   -6.9560   23.7280 C   0  0  0  0  0  3  0  0  0  0  0  0
  -20.9800   -6.1780   24.8890 C   0  0  0  0  0  3  0  0  0  0  0  0
  -21.3560   -4.8210   24.8950 C   0  0  0  0  0  0  0  0  0  0  0  0
  -21.9170   -4.2400   23.7450 C   0  0  0  0  0  3  0  0  0  0  0  0
  -22.0980   -5.0150   22.5850 C   0  0  0  0  0  0  0  0  0  0  0  0
  -22.6180   -4.4460   21.4700 F   0  0  0  0  0  0  0  0  0  0  0  0
  -21.1770   -4.0710   26.0080 F   0  0  0  0  0  0  0  0  0  0  0  0
  -22.9280  -13.7290   21.0350 C   0  0  0  0  0  0  0  0  0  0  0  0
  -22.1800  -13.0490   21.8960 N   0  0  0  0  0  0  0  0  0  0  0  0
  -22.5110  -14.7470   20.4870 O   0  0  0  0  0  0  0  0  0  0  0  0
  -22.5310  -12.2190   22.3540 H   0  0  0  0  0  0  0  0  0  0  0  0
  -21.2400  -13.3580   22.0980 H   0  0  0  0  0  0  0  0  0  0  0  0
  -25.6160  -15.3890   20.3120 N   0  0  0  0  0  0  0  0  0  0  0  0
  -24.7080  -15.8390   20.2570 H   0  0  0  0  0  0  0  0  0  0  0  0
  -26.0320  -15.7220   21.1730 H   0  0  0  0  0  0  0  0  0  0  0  0
  1  6  1  0
  2  3  1  0
  3 54  1  0
  3  6  2  0
  4  1  2  0
  5  2  1  0
  7  2  2  0
  7  4  1  0
  8  4  1  0
  8  9  1  0
 11 10  1  0
 11 12  1  0
 11  8  1  0
 12 13  1  0
 14 25  2  0
 15 13  1  0
 15 20  1  0
 16 24  1  0
 16 26  1  0
 17 23  1  0
 17 19  1  0
 18 24  1  0
 19 20  2  0
 19 18  1  0
 21 15  2  0
 22 21  1  0
 22 17  2  0
 23 16  1  0
 24 14  1  0
 26 28  2  0
 27 26  1  0
 29 27  1  0
 30 39  2  0
 30 35  1  0
 31 27  1  0
 31 35  1  0
 32 31  1  0
 33 34  1  0
 33 32  1  0
 34 30  1  0
 35 36  2  0
 36 37  1  0
 38 37  2  0
 39 38  1  0
 40 14  1  0
 40 45  1  0
 40 41  1  0
 41 44  1  1
 41 42  1  0
 43 41  1  0
 45 48  1  0
 46 50  1  0
 46 45  1  0
 47 46  2  0
 50 49  1  0
 52 50  1  0
 52 53  1  0
 52 51  1  0
 55 61  1  0
 56 61  1  0
 57 58  1  0
 57 56  1  0
 59 58  1  0
 59 72  1  0
 59 60  1  0
 61 60  1  0
 62 55  2  0
 63 66  1  0
 64 63  1  0
 64 67  1  0
 66 55  1  0
 66 65  1  0
 67 54  1  0
 67 65  1  0
 67 68  1  6
 69 70  2  0
 70 71  1  0
 70 89  1  0
 71 74  1  0
 72 69  1  0
 72 73  1  0
 73 71  2  0
 74 75  1  0
 75 76  2  0
 77 80  1  0
 77 76  1  0
 78 77  2  0
 79 78  1  0
 79 74  2  0
 80 81  1  0
 81 86  2  0
 81 82  1  0
 82 83  2  0
 83 84  1  0
 84 88  1  0
 85 84  2  0
 86 85  1  0
 87 86  1  0
 89 90  1  0
 90 93  1  0
 90 92  1  0
 91 89  2  0
 94 69  1  0
 94 96  1  0
 95 94  1  0
M  ISO  4  12 101  13 101  55 100  66 100
M  END
>  <TORSDO>  (35) 
F 20

>  <SCORE>  (35) 
-13.803

>  <name>  (35) 
34

>  <ligand_id>  (35) 
34

>  <original_smiles>  (35) 
[H]c1nc(C([H])([H])[N+]2([H])C([H])([H])N(C(=O)N3C([H])([H])C([H])([H])C([H])([H])C([H])(n4nc(-c5c([H])c([H])c(Oc6c([H])c([H])c(F)c([H])c6F)c([H])c5[H])c(C(=O)N([H])[H])c4N([H])[H])C3([H])[H])C([H])([H])C2([H])[H])c(C([H])([H])[H])nc1N([H])C([H])(C([H])([H])[H])C([H])([H])Oc1c([H])c([H])c2c(c1[H])C([H])([H])N(C(=O)C([H])(N([H])C(=O)C([H])(N([H])C([H])([H])[H])C([H])([H])[H])C(C([H])([H])[H])(C([H])([H])[H])C([H])([H])[H])C([H])(C(=O)N([H])C1([H])c3c([H])c([H])c([H])c([H])c3C([H])([H])C([H])([H])C1([H])[H])C2([H])[H]

>  <smiles>  (35) 
[H]c1nc(C([H])([H])[N+]2([H])C([H])([H])N(C(=O)N3C([H])([H])C([H])([H])C([H])([H])C([H])(n4nc(-c5c([H])c([H])c(Oc6c([H])c([H])c(F)c([H])c6F)c([H])c5[H])c(C(=O)N([H])[H])c4N([H])[H])C3([H])[H])C([H])([H])C2([H])[H])c(C([H])([H])[H])nc1N([H])C([H])(C([H])([H])[H])C([H])([H])Oc1c([H])c([H])c2c(c1[H])C([H])([H])N(C(=O)C([H])(N([H])C(=O)C([H])(N([H])C([H])([H])[H])C([H])([H])[H])C(C([H])([H])[H])(C([H])([H])[H])C([H])([H])[H])C([H])(C(=O)N([H])C1([H])c3c([H])c([H])c([H])c([H])c3C([H])([H])C([H])([H])C1([H])[H])C2([H])[H]

$$$$
35:0:0
     RDKit          3D

 98107  0  0  1  0  0  0  0  0999 V2000
  -27.4610  -20.4660   18.8460 C   0  0  0  0  0  2  0  0  0  0  0  0
  -28.5880  -20.6760   21.1080 C   0  0  0  0  0  2  0  0  0  0  0  0
  -26.6310  -21.6960   19.2290 C   0  0  0  0  0  2  0  0  0  0  0  0
  -27.7130  -21.9130   21.3400 C   0  0  0  0  0  2  0  0  0  0  0  0
  -27.9670  -19.7000   20.0850 C   0  0  0  0  0  3  0  0  0  0  0  0
  -27.4890  -22.5570   20.0430 N   0  0  0  0  0  0  0  0  0  0  0  0
  -28.9630  -18.7000   19.6600 N   0  0  0  0  0  4  0  0  0  0  0  0
  -29.8730  -19.1290   19.6880 H   0  0  0  0  0  0  0  0  0  0  0  0
  -28.7780  -18.4550   18.7000 H   0  0  0  0  0  0  0  0  0  0  0  0
  -29.0020  -17.4490   20.4350 C   0  0  0  0  0  2  0  0  0  0  0  0
  -31.0040  -14.5700   20.1920 C   0  0  0  0  0  0  0  0  0  0  0  0
  -30.5710  -12.4660   18.9970 C   0  0  0  0  0  2  0  0  0  0  0  0
  -29.6040  -12.7010   17.8220 C   0  0  0  0  0  2  0  0  0  0  0  0
  -28.1430  -12.5830   18.2950 C   0  0  0  0  0  2  0  0  0  0  0  0
  -27.8560  -13.4330   19.5610 C   0  0  0  0  0  3  0  0  0  0  0  0
  -28.9340  -13.1980   20.6440 C   0  0  0  0  0  2  0  0  0  0  0  0
  -30.2570  -13.4490   20.0420 N   0  0  0  0  0  0  0  0  0  0  0  0
  -32.0560  -14.7730   19.5780 O   0  0  0  0  0  0  0  0  0  0  0  0
  -31.3750  -17.2810   21.6110 C   0  0  0  0  0  2  0  0  0  0  0  0
  -31.0470  -15.9390   22.2400 C   0  0  0  0  0  2  0  0  0  0  0  0
  -30.4340  -16.9200   20.4670 C   0  0  0  0  0  3  0  0  0  0  0  0
  -30.4550  -15.5320   20.9570 N   0  0  0  0  0  0  0  0  0  0  0  0
  -25.4890  -14.0830   20.3410 C   0  0  0  0  0  0  0  0  0  0  0  0
  -24.4190  -13.3270   20.7420 C   0  0  0  0  0  0  0  0  0  0  0  0
  -24.8530  -11.9680   20.6840 C   0  0  0  0  0  0  0  0  0  0  0  0
  -26.5110  -13.1840   20.0750 N   0  0  0  0  0  0  0  0  0  0  0  0
  -26.1320  -11.9070   20.3350 N   0  0  0  0  0  0  0  0  0  0  0  0
  -24.1100  -10.7180   20.8840 C   0  0  0  0  0  0  0  0  0  0  0  0
  -24.5130   -9.7660   21.8460 C   0  0  0  0  0  3  0  0  0  0  0  0
  -23.7720   -8.5790   22.0340 C   0  0  0  0  0  3  0  0  0  0  0  0
  -22.6130   -8.3370   21.2580 C   0  0  0  0  0  0  0  0  0  0  0  0
  -22.2290   -9.2780   20.2870 C   0  0  0  0  0  3  0  0  0  0  0  0
  -22.9710  -10.4560   20.0980 C   0  0  0  0  0  3  0  0  0  0  0  0
  -21.8470   -7.2000   21.3530 O   0  0  0  0  0  0  0  0  0  0  0  0
  -21.7040   -6.5240   22.5390 C   0  0  0  0  0  0  0  0  0  0  0  0
  -21.1920   -7.1510   23.6950 C   0  0  0  0  0  3  0  0  0  0  0  0
  -20.9970   -6.4010   24.8740 C   0  0  0  0  0  3  0  0  0  0  0  0
  -21.3050   -5.0280   24.8940 C   0  0  0  0  0  0  0  0  0  0  0  0
  -21.8120   -4.4020   23.7410 C   0  0  0  0  0  3  0  0  0  0  0  0
  -22.0070   -5.1480   22.5670 C   0  0  0  0  0  0  0  0  0  0  0  0
  -22.4750   -4.5360   21.4510 F   0  0  0  0  0  0  0  0  0  0  0  0
  -21.1120   -4.3060   26.0220 F   0  0  0  0  0  0  0  0  0  0  0  0
  -23.0400  -13.8290   21.0610 C   0  0  0  0  0  0  0  0  0  0  0  0
  -22.3390  -13.1570   21.9670 N   0  0  0  0  0  0  0  0  0  0  0  0
  -22.5960  -14.8520   20.5410 O   0  0  0  0  0  0  0  0  0  0  0  0
  -22.7100  -12.3300   22.4090 H   0  0  0  0  0  0  0  0  0  0  0  0
  -21.4160  -13.4790   22.2250 H   0  0  0  0  0  0  0  0  0  0  0  0
  -25.6670  -15.4500   20.1580 N   0  0  0  0  0  0  0  0  0  0  0  0
  -24.8800  -16.0860   20.2300 H   0  0  0  0  0  0  0  0  0  0  0  0
  -26.4430  -15.8330   19.6380 H   0  0  0  0  0  0  0  0  0  0  0  0
  -26.9400  -23.9010   20.1750 C   0  0  0  0  0  2  0  0  0  0  0  0
  -28.0950  -24.8970   20.4710 C   0  0  0  0  0  3  0  0  0  0  0  0
  -27.7150  -25.0920   22.9570 C   0  0  0  0  0  1  0  0  0  0  0  0
  -27.8100  -25.7670   21.6450 N   0  0  0  0  0  4  0  0  0  0  0  0
  -28.5570  -26.4430   21.7100 H   0  0  0  0  0  0  0  0  0  0  0  0
  -26.9610  -26.2900   21.4820 H   0  0  0  0  0  0  0  0  0  0  0  0
  -28.5120  -25.6950   19.1950 C   0  0  0  0  0  2  0  0  0  0  0  0
  -28.4700  -27.1210   19.3210 O   0  0  0  0  0  0  0  0  0  0  0  0
  -24.4590  -31.6490   22.9790 C   0  0  0  0  0  0  0  0  0  0  0  0
  -27.2470  -27.7540   19.3560 C   0  0  0  0  0  0  0  0  0  0  0  0
  -23.2780  -30.3510   21.2350 C   0  0  0  0  0  3  0  0  0  0  0  0
  -24.7640  -29.0690   19.6130 C   0  0  0  0  0  0  0  0  0  0  0  0
  -25.7630  -30.8990   20.9950 C   0  0  0  0  0  2  0  0  0  0  0  0
  -25.9070  -29.6110   20.2120 C   0  0  0  0  0  0  0  0  0  0  0  0
  -27.1510  -28.9580   20.0830 C   0  0  0  0  0  3  0  0  0  0  0  0
  -26.0850  -27.2280   18.7430 C   0  0  0  0  0  3  0  0  0  0  0  0
  -24.8460  -27.8760   18.8770 C   0  0  0  0  0  3  0  0  0  0  0  0
  -23.4730  -29.8320   19.7870 C   0  0  0  0  0  2  0  0  0  0  0  0
  -24.5200  -30.9760   21.7960 N   0  0  0  0  0  0  0  0  0  0  0  0
  -23.3850  -31.7910   23.5790 O   0  0  0  0  0  0  0  0  0  0  0  0
  -22.7310  -29.1940   22.1020 C   0  0  0  0  0  0  0  0  0  0  0  0
  -21.4110  -28.9640   22.0190 N   0  0  0  0  0  0  0  0  0  0  0  0
  -23.4860  -28.5110   22.7970 O   0  0  0  0  0  0  0  0  0  0  0  0
  -20.8620  -29.5730   21.4280 H   0  0  0  0  0  0  0  0  0  0  0  0
  -18.1250  -27.5510   22.5350 C   0  0  0  0  0  0  0  0  0  0  0  0
  -20.6780  -27.9050   22.7120 C   0  0  0  0  0  3  0  0  0  0  0  0
  -20.8160  -26.5550   21.9710 C   0  0  0  0  0  2  0  0  0  0  0  0
  -19.6740  -26.2820   20.9870 C   0  0  0  0  0  2  0  0  0  0  0  0
  -18.3260  -26.2900   21.7100 C   0  0  0  0  0  2  0  0  0  0  0  0
  -19.2290  -28.3170   22.9930 C   0  0  0  0  0  0  0  0  0  0  0  0
  -18.9870  -29.4970   23.7280 C   0  0  0  0  0  3  0  0  0  0  0  0
  -17.6720  -29.9100   24.0120 C   0  0  0  0  0  3  0  0  0  0  0  0
  -16.5820  -29.1390   23.5720 C   0  0  0  0  0  3  0  0  0  0  0  0
  -16.8110  -27.9610   22.8390 C   0  0  0  0  0  3  0  0  0  0  0  0
  -25.7280  -32.2940   23.6200 C   0  0  0  0  0  3  0  0  0  0  0  0
  -25.3580  -33.6410   24.0740 N   0  0  0  0  0  0  0  0  0  0  0  0
  -25.6140  -34.7670   23.3950 C   0  0  0  0  0  0  0  0  0  0  0  0
  -26.2610  -34.7840   22.3440 O   0  0  0  0  0  0  0  0  0  0  0  0
  -24.7820  -33.6990   24.9010 H   0  0  0  0  0  0  0  0  0  0  0  0
  -23.7820  -36.4790   23.2360 C   0  0  0  0  0  1  0  0  0  0  0  0
  -25.0690  -36.0850   23.9770 C   0  0  0  0  0  3  0  0  0  0  0  0
  -27.1770  -37.0190   24.8180 C   0  0  0  0  0  1  0  0  0  0  0  0
  -26.0390  -37.1990   23.9210 N   0  0  0  0  0  0  0  0  0  0  0  0
  -25.5890  -38.0800   24.1530 H   0  0  0  0  0  0  0  0  0  0  0  0
  -26.3230  -31.4460   24.8100 C   0  0  1  0  0  0  0  0  0  0  0  0
  -25.2790  -31.0690   25.8860 C   0  0  0  0  0  1  0  0  0  0  0  0
  -26.9530  -30.1350   24.2830 C   0  0  0  0  0  1  0  0  0  0  0  0
  -27.4600  -32.2340   25.5010 C   0  0  0  0  0  1  0  0  0  0  0  0
  1  3  1  0
  1  5  1  0
  2  4  1  0
  3  6  1  0
  5  7  1  0
  5  2  1  0
  6 51  1  0
  6  4  1  0
  7  8  1  0
  7 10  1  0
  9  7  1  0
 11 22  1  0
 12 17  1  0
 13 14  1  0
 13 12  1  0
 15 14  1  0
 15 26  1  0
 15 16  1  0
 17 11  1  0
 17 16  1  0
 18 11  2  0
 19 20  1  0
 21 10  1  0
 21 22  1  0
 21 19  1  0
 22 20  1  0
 23 24  2  0
 24 43  1  0
 25 24  1  0
 25 28  1  0
 26 27  1  0
 26 23  1  0
 27 25  2  0
 28 29  1  0
 29 30  2  0
 31 34  1  0
 31 30  1  0
 32 31  2  0
 33 32  1  0
 33 28  2  0
 34 35  1  0
 35 40  2  0
 35 36  1  0
 36 37  2  0
 37 38  1  0
 38 42  1  0
 39 38  2  0
 40 39  1  0
 41 40  1  0
 43 44  1  0
 44 47  1  0
 44 46  1  0
 45 43  2  0
 48 49  1  0
 48 23  1  0
 50 48  1  0
 51 52  1  0
 52 57  1  0
 52 54  1  0
 54 55  1  0
 54 53  1  0
 56 54  1  0
 57 58  1  0
 58 60  1  0
 59 70  2  0
 60 65  1  0
 61 69  1  0
 61 71  1  0
 62 68  1  0
 62 64  1  0
 63 69  1  0
 64 63  1  0
 65 64  2  0
 66 67  1  0
 66 60  2  0
 67 62  2  0
 68 61  1  0
 69 59  1  0
 71 73  2  0
 72 71  1  0
 74 72  1  0
 75 84  2  0
 75 80  1  0
 76 72  1  0
 76 80  1  0
 77 76  1  0
 78 79  1  0
 78 77  1  0
 79 75  1  0
 80 81  2  0
 81 82  1  0
 83 82  2  0
 84 83  1  0
 85 59  1  0
 85 86  1  0
 85 95  1  0
 86 89  1  0
 87 91  1  0
 87 86  1  0
 88 87  2  0
 91 90  1  0
 93 91  1  0
 93 94  1  0
 93 92  1  0
 95 98  1  1
 95 96  1  0
 97 95  1  0
M  ISO  4  11 100  22 100  57 101  58 101
M  END
>  <TORSDO>  (36) 
F 22

>  <SCORE>  (36) 
-11.650

>  <name>  (36) 
35

>  <ligand_id>  (36) 
35

>  <original_smiles>  (36) 
[H]c1c([H])c([H])c2c(c1[H])C([H])([H])C([H])([H])C([H])([H])C2([H])N([H])C(=O)C1([H])N(C(=O)C([H])(N([H])C(=O)C([H])(N([H])C([H])([H])[H])C([H])([H])[H])C(C([H])([H])[H])(C([H])([H])[H])C([H])([H])[H])C([H])([H])c2c([H])c(OC([H])([H])C([H])(C([H])([H])N3C([H])([H])C([H])([H])C([H])([N+]([H])([H])C([H])([H])C4([H])N(C(=O)N5C([H])([H])C([H])([H])C([H])([H])C([H])(n6nc(-c7c([H])c([H])c(Oc8c([H])c([H])c(F)c([H])c8F)c([H])c7[H])c(C(=O)N([H])[H])c6N([H])[H])C5([H])[H])C([H])([H])C4([H])[H])C([H])([H])C3([H])[H])[N+]([H])([H])C([H])([H])[H])c([H])c([H])c2C1([H])[H]

>  <smiles>  (36) 
[H]c1c([H])c([H])c2c(c1[H])C([H])([H])C([H])([H])C([H])([H])C2([H])N([H])C(=O)C1([H])N(C(=O)C([H])(N([H])C(=O)C([H])(N([H])C([H])([H])[H])C([H])([H])[H])C(C([H])([H])[H])(C([H])([H])[H])C([H])([H])[H])C([H])([H])c2c([H])c(OC([H])([H])C([H])(C([H])([H])N3C([H])([H])C([H])([H])C([H])([N+]([H])([H])C([H])([H])C4([H])N(C(=O)N5C([H])([H])C([H])([H])C([H])([H])C([H])(n6nc(-c7c([H])c([H])c(Oc8c([H])c([H])c(F)c([H])c8F)c([H])c7[H])c(C(=O)N([H])[H])c6N([H])[H])C5([H])[H])C([H])([H])C4([H])[H])C([H])([H])C3([H])[H])[N+]([H])([H])C([H])([H])[H])c([H])c([H])c2C1([H])[H]

$$$$
36:0:0
     RDKit          3D

 97106  0  0  1  0  0  0  0  0999 V2000
  -24.7220  -24.3970   26.0120 C   0  0  0  0  0  3  0  0  0  0  0  0
  -25.8790  -22.3700   25.2280 C   0  0  0  0  0  3  0  0  0  0  0  0
  -24.5260  -25.0900   24.7790 C   0  0  0  0  0  0  0  0  0  0  0  0
  -25.8780  -22.6220   23.8280 C   0  0  0  0  0  0  0  0  0  0  0  0
  -25.3450  -23.1800   26.2130 N   0  0  0  0  0  0  0  0  0  0  0  0
  -25.1470  -24.0560   23.7030 N   0  0  0  0  0  0  0  0  0  0  0  0
  -26.5700  -21.3940   22.8620 N   0  0  0  0  0  0  0  0  0  0  0  0
  -26.5080  -21.7360   21.9080 H   0  0  0  0  0  0  0  0  0  0  0  0
  -29.8580  -15.7800   20.9630 C   0  0  0  0  0  0  0  0  0  0  0  0
  -30.3190  -13.2990   19.7930 C   0  0  0  0  0  2  0  0  0  0  0  0
  -29.5700  -12.8110   18.4980 C   0  0  0  0  0  2  0  0  0  0  0  0
  -28.1450  -12.3500   18.8200 C   0  0  0  0  0  2  0  0  0  0  0  0
  -27.5440  -13.3040   19.8730 C   0  0  0  0  0  3  0  0  0  0  0  0
  -28.4200  -13.5500   21.1130 C   0  0  0  0  0  2  0  0  0  0  0  0
  -29.5290  -14.3620   20.6450 N   0  0  0  0  0  0  0  0  0  0  0  0
  -31.0840  -15.8070   20.6360 O   0  0  0  0  0  0  0  0  0  0  0  0
  -29.0650  -19.8540   22.1960 C   0  0  0  0  0  2  0  0  0  0  0  0
  -29.8400  -18.3840   21.9740 C   0  0  0  0  0  2  0  0  0  0  0  0
  -27.6670  -18.1340   21.9380 C   0  0  0  0  0  2  0  0  0  0  0  0
  -27.5790  -19.8580   22.7830 C   0  0  0  0  0  3  0  0  0  0  0  0
  -29.0760  -17.1250   21.5470 N   0  0  0  0  0  0  0  0  0  0  0  0
  -25.1910  -13.8260   20.5710 C   0  0  0  0  0  0  0  0  0  0  0  0
  -24.1370  -13.0390   20.9230 C   0  0  0  0  0  0  0  0  0  0  0  0
  -24.6110  -11.6910   20.8710 C   0  0  0  0  0  0  0  0  0  0  0  0
  -26.2210  -12.9520   20.3030 N   0  0  0  0  0  0  0  0  0  0  0  0
  -25.9000  -11.6620   20.5580 N   0  0  0  0  0  0  0  0  0  0  0  0
  -23.8910  -10.4260   21.0430 C   0  0  0  0  0  0  0  0  0  0  0  0
  -24.3540   -9.4200   21.9170 C   0  0  0  0  0  3  0  0  0  0  0  0
  -23.6230   -8.2240   22.0770 C   0  0  0  0  0  3  0  0  0  0  0  0
  -22.4240   -8.0230   21.3560 C   0  0  0  0  0  0  0  0  0  0  0  0
  -21.9830   -9.0180   20.4680 C   0  0  0  0  0  3  0  0  0  0  0  0
  -22.7120  -10.2060   20.3050 C   0  0  0  0  0  3  0  0  0  0  0  0
  -21.6630   -6.8820   21.4240 O   0  0  0  0  0  0  0  0  0  0  0  0
  -21.6850   -6.0700   22.5280 C   0  0  0  0  0  0  0  0  0  0  0  0
  -21.3990   -6.5620   23.8200 C   0  0  0  0  0  3  0  0  0  0  0  0
  -21.3660   -5.6790   24.9180 C   0  0  0  0  0  3  0  0  0  0  0  0
  -21.6060   -4.3050   24.7240 C   0  0  0  0  0  0  0  0  0  0  0  0
  -21.8820   -3.8120   23.4370 C   0  0  0  0  0  3  0  0  0  0  0  0
  -21.9170   -4.6930   22.3410 C   0  0  0  0  0  0  0  0  0  0  0  0
  -22.1660   -4.2110   21.0990 F   0  0  0  0  0  0  0  0  0  0  0  0
  -21.5640   -3.4540   25.7760 F   0  0  0  0  0  0  0  0  0  0  0  0
  -22.7440  -13.5160   21.1960 C   0  0  0  0  0  0  0  0  0  0  0  0
  -22.0160  -12.8150   22.0550 N   0  0  0  0  0  0  0  0  0  0  0  0
  -22.3160  -14.5480   20.6820 O   0  0  0  0  0  0  0  0  0  0  0  0
  -22.3800  -11.9810   22.4920 H   0  0  0  0  0  0  0  0  0  0  0  0
  -21.0800  -13.1160   22.2830 H   0  0  0  0  0  0  0  0  0  0  0  0
  -25.3610  -15.2010   20.4280 N   0  0  0  0  0  0  0  0  0  0  0  0
  -24.5930  -15.8540   20.5470 H   0  0  0  0  0  0  0  0  0  0  0  0
  -26.2060  -15.6390   20.0850 H   0  0  0  0  0  0  0  0  0  0  0  0
  -21.6230  -28.3740   25.0450 C   0  0  0  0  0  3  0  0  0  0  0  0
  -22.2740  -26.8400   25.5010 C   0  0  0  0  0  3  0  0  0  0  0  0
  -23.4420  -28.2920   24.9730 C   0  0  0  0  0  3  0  0  0  0  0  0
  -22.1990  -29.2450   23.6420 C   0  0  0  0  0  2  0  0  0  0  0  0
  -21.8500  -30.7240   23.6420 C   0  0  0  0  0  1  0  0  0  0  0  0
  -23.6590  -26.5550   25.0140 N   0  0  0  0  0  0  0  0  0  0  0  0
  -22.2430  -28.8660   21.2350 C   0  0  0  0  0 15  0  0  0  0  0  0
  -23.8720  -27.8270   20.3260 O   0  0  0  0  0  1  0  0  0  0  0  0
  -24.9430  -31.9110   23.2100 C   0  0  0  0  0  0  0  0  0  0  0  0
  -25.4540  -27.5010   20.3660 C   0  0  0  0  0  3  0  0  0  0  0  0
  -24.2510  -29.8360   21.9890 C   0  0  0  0  0  3  0  0  0  0  0  0
  -25.3420  -29.7660   19.5290 C   0  0  0  0  0  3  0  0  0  0  0  0
  -26.4300  -30.8600   21.4940 C   0  0  0  0  0  2  0  0  0  0  0  0
  -26.3540  -29.7050   20.4770 C   0  0  0  0  0  3  0  0  0  0  0  0
  -26.5580  -28.3610   20.8350 C   0  0  0  0  0  2  0  0  0  0  0  0
  -25.7180  -27.3700   19.0390 C   0  0  0  0  0  2  0  0  0  0  0  0
  -25.2300  -28.6320   18.6160 C   0  0  0  0  0  2  0  0  0  0  0  0
  -24.1690  -30.3060   20.3160 C   0  0  0  0  0  2  0  0  0  0  0  0
  -25.1850  -30.8960   22.3410 N   0  0  0  0  0  0  0  0  0  0  0  0
  -23.8500  -32.3360   23.5740 O   0  0  0  0  0  0  0  0  0  0  0  0
  -24.0740  -28.0890   22.6000 C   0  0  0  0  0  0  0  0  0  0  0  0
  -22.7250  -27.1770   22.6930 N   0  0  0  0  0  0  0  0  0  0  0  0
  -25.0490  -27.6110   23.0850 O   0  0  0  0  0  0  0  0  0  0  0  0
  -23.0160  -26.2700   23.0270 H   0  0  0  0  0  0  0  0  0  0  0  0
  -18.1840  -27.9510   22.6540 C   0  0  0  0  0  0  0  0  0  0  0  0
  -20.9050  -27.3010   22.8000 C   0  0  0  0  0  3  0  0  0  0  0  0
  -20.5330  -26.1690   21.9610 C   0  0  0  0  0  2  0  0  0  0  0  0
  -19.3490  -26.4410   21.0900 C   0  0  0  0  0  2  0  0  0  0  0  0
  -18.1020  -26.6500   21.9250 C   0  0  0  0  0  2  0  0  0  0  0  0
  -19.4990  -28.4140   23.0460 C   0  0  0  0  0  0  0  0  0  0  0  0
  -19.2070  -29.6320   23.8370 C   0  0  0  0  0  3  0  0  0  0  0  0
  -17.9830  -30.3390   24.0390 C   0  0  0  0  0  3  0  0  0  0  0  0
  -16.7930  -29.7930   23.5710 C   0  0  0  0  0  3  0  0  0  0  0  0
  -16.9190  -28.5850   22.8820 C   0  0  0  0  0  3  0  0  0  0  0  0
  -26.1430  -32.5440   23.8920 C   0  0  0  0  0  3  0  0  0  0  0  0
  -25.7530  -33.9110   24.2620 N   0  0  0  0  0  0  0  0  0  0  0  0
  -25.9480  -34.9860   23.4940 C   0  0  0  0  0  0  0  0  0  0  0  0
  -26.5700  -34.9330   22.4300 O   0  0  0  0  0  0  0  0  0  0  0  0
  -25.1600  -34.0150   25.0690 H   0  0  0  0  0  0  0  0  0  0  0  0
  -24.1510  -36.7410   23.2530 C   0  0  0  0  0  1  0  0  0  0  0  0
  -25.4170  -36.3300   24.0210 C   0  0  0  0  0  3  0  0  0  0  0  0
  -27.5570  -37.1980   24.8460 C   0  0  0  0  0  1  0  0  0  0  0  0
  -26.4210  -37.4110   23.9530 N   0  0  0  0  0  0  0  0  0  0  0  0
  -25.9960  -38.3040   24.1860 H   0  0  0  0  0  0  0  0  0  0  0  0
  -26.5700  -31.7060   25.1510 C   0  0  1  0  0  0  0  0  0  0  0  0
  -25.4300  -31.4630   26.1710 C   0  0  0  0  0  1  0  0  0  0  0  0
  -27.1470  -30.3240   24.7410 C   0  0  0  0  0  1  0  0  0  0  0  0
  -27.6990  -32.4820   25.8500 C   0  0  0  0  0  1  0  0  0  0  0  0
  1  5  1  0
  2  5  2  0
  3 55  1  0
  3  1  2  0
  4  2  1  0
  6  4  2  0
  6  3  1  0
  7  4  1  0
  8  7  1  0
  9 21  1  0
 10 15  1  0
 11 12  1  0
 11 10  1  0
 13 12  1  0
 13 25  1  0
 13 14  1  0
 15  9  1  0
 15 14  1  0
 16  9  2  0
 17 20  1  0
 18 17  1  0
 19 20  1  0
 20  7  1  0
 21 19  1  0
 21 18  1  0
 22 23  2  0
 23 42  1  0
 24 23  1  0
 24 27  1  0
 25 26  1  0
 25 22  1  0
 26 24  2  0
 27 28  1  0
 28 29  2  0
 30 33  1  0
 30 29  1  0
 31 30  2  0
 32 31  1  0
 32 27  2  0
 33 34  1  0
 34 35  1  0
 35 36  2  0
 37 36  1  0
 37 41  1  0
 38 37  2  0
 39 34  2  0
 39 38  1  0
 40 39  1  0
 42 43  1  0
 43 46  1  0
 43 45  1  0
 44 42  2  0
 47 48  1  0
 47 22  1  0
 49 47  1  0
 50 53  1  0
 50 51  1  0
 51 55  1  0
 52 55  1  0
 52 50  1  0
 52 51  1  0
 54 53  1  0
 58 69  2  0
 59 57  1  0
 59 64  1  0
 60 68  1  0
 60 70  1  0
 61 66  1  0
 61 67  1  0
 61 63  1  0
 62 68  1  0
 63 64  1  0
 63 62  1  0
 65 59  1  0
 66 65  1  0
 67 60  1  0
 68 58  1  0
 70 71  1  0
 70 72  2  0
 71 73  1  0
 74 83  2  0
 74 79  1  0
 75 71  1  0
 75 79  1  0
 76 75  1  0
 77 78  1  0
 77 76  1  0
 78 74  1  0
 79 80  2  0
 80 81  1  0
 82 81  2  0
 83 82  1  0
 84 58  1  0
 84 85  1  0
 84 94  1  0
 85 88  1  0
 86 90  1  0
 86 85  1  0
 87 86  2  0
 90 89  1  0
 92 90  1  0
 92 93  1  0
 92 91  1  0
 94 97  1  1
 94 95  1  0
 96 94  1  0
M  ISO  4   9 100  21 100  56 101  57 101
M  END
>  <TORSDO>  (37) 
F 18

>  <SCORE>  (37) 
42.800

>  <name>  (37) 
36

>  <ligand_id>  (37) 
36

>  <original_smiles>  (37) 
[H]c1nc([H])c(N([H])C2([H])C([H])([H])N(C(=O)N3C([H])([H])C([H])([H])C([H])([H])C([H])(n4nc(-c5c([H])c([H])c(Oc6c([H])c([H])c(F)c([H])c6F)c([H])c5[H])c(C(=O)N([H])[H])c4N([H])[H])C3([H])[H])C([H])([H])C2([H])[H])nc1N1C([H])([H])C([H])([H])C(C([H])([H])[H])(C([H])([H])Oc2c([H])c([H])c3c(c2[H])C([H])([H])N(C(=O)C([H])(N([H])C(=O)C([H])(N([H])C([H])([H])[H])C([H])([H])[H])C(C([H])([H])[H])(C([H])([H])[H])C([H])([H])[H])C([H])(C(=O)N([H])C2([H])c4c([H])c([H])c([H])c([H])c4C([H])([H])C([H])([H])C2([H])[H])C3([H])[H])C1([H])[H]

>  <smiles>  (37) 
[H]c1nc([H])c(N([H])C2([H])C([H])([H])N(C(=O)N3C([H])([H])C([H])([H])C([H])([H])C([H])(n4nc(-c5c([H])c([H])c(Oc6c([H])c([H])c(F)c([H])c6F)c([H])c5[H])c(C(=O)N([H])[H])c4N([H])[H])C3([H])[H])C([H])([H])C2([H])[H])nc1N1C([H])([H])C([H])([H])C(C([H])([H])[H])(C([H])([H])Oc2c([H])c([H])c3c(c2[H])C([H])([H])N(C(=O)C([H])(N([H])C(=O)C([H])(N([H])C([H])([H])[H])C([H])([H])[H])C(C([H])([H])[H])(C([H])([H])[H])C([H])([H])[H])C([H])(C(=O)N([H])C2([H])c4c([H])c([H])c([H])c([H])c4C([H])([H])C([H])([H])C2([H])[H])C3([H])[H])C1([H])[H]

$$$$
37:0:0
     RDKit          3D

 88 96  0  0  1  0  0  0  0  0999 V2000
  -28.6120  -21.6890   20.3880 C   0  0  0  0  0  2  0  0  0  0  0  0
  -29.6490  -20.4830   20.2940 N   0  0  0  0  0  4  0  0  0  0  0  0
  -30.0660  -20.5330   19.3780 H   0  0  0  0  0  0  0  0  0  0  0  0
  -30.3850  -20.7200   20.9400 H   0  0  0  0  0  0  0  0  0  0  0  0
  -30.5480  -15.0480   20.2710 C   0  0  0  0  0  0  0  0  0  0  0  0
  -30.3740  -12.6970   19.3220 C   0  0  0  0  0  2  0  0  0  0  0  0
  -29.4260  -12.6140   18.1060 C   0  0  0  0  0  2  0  0  0  0  0  0
  -27.9800  -12.3640   18.5710 C   0  0  0  0  0  2  0  0  0  0  0  0
  -27.5680  -13.2980   19.7340 C   0  0  0  0  0  3  0  0  0  0  0  0
  -28.6440  -13.3870   20.8400 C   0  0  0  0  0  2  0  0  0  0  0  0
  -29.8940  -13.8120   20.1920 N   0  0  0  0  0  0  0  0  0  0  0  0
  -31.7700  -15.0210   20.0870 O   0  0  0  0  0  0  0  0  0  0  0  0
  -28.3490  -18.2100   19.6660 C   0  0  0  0  0  2  0  0  0  0  0  0
  -28.5190  -16.6590   19.9180 C   0  0  0  0  0  2  0  0  0  0  0  0
  -30.4650  -17.7520   20.5440 C   0  0  0  0  0  2  0  0  0  0  0  0
  -29.3330  -18.9440   20.5810 C   0  0  0  0  0  3  0  0  0  0  0  0
  -29.8820  -16.3230   20.3800 N   0  0  0  0  0  0  0  0  0  0  0  0
  -25.2000  -13.8710   20.5110 C   0  0  0  0  0  0  0  0  0  0  0  0
  -24.1450  -13.0920   20.8870 C   0  0  0  0  0  0  0  0  0  0  0  0
  -24.6130  -11.7430   20.8420 C   0  0  0  0  0  0  0  0  0  0  0  0
  -26.2440  -12.9960   20.2570 N   0  0  0  0  0  0  0  0  0  0  0  0
  -25.9020  -11.7120   20.5230 N   0  0  0  0  0  0  0  0  0  0  0  0
  -23.8940  -10.4790   21.0250 C   0  0  0  0  0  0  0  0  0  0  0  0
  -24.3200   -9.5160   21.9660 C   0  0  0  0  0  3  0  0  0  0  0  0
  -23.5980   -8.3160   22.1370 C   0  0  0  0  0  3  0  0  0  0  0  0
  -22.4370   -8.0700   21.3670 C   0  0  0  0  0  0  0  0  0  0  0  0
  -22.0310   -9.0210   20.4150 C   0  0  0  0  0  3  0  0  0  0  0  0
  -22.7530  -10.2130   20.2410 C   0  0  0  0  0  3  0  0  0  0  0  0
  -21.6890   -6.9210   21.4470 O   0  0  0  0  0  0  0  0  0  0  0  0
  -21.6050   -6.1990   22.6110 C   0  0  0  0  0  0  0  0  0  0  0  0
  -21.1140   -6.7670   23.8070 C   0  0  0  0  0  3  0  0  0  0  0  0
  -20.9790   -5.9700   24.9610 C   0  0  0  0  0  3  0  0  0  0  0  0
  -21.3240   -4.6060   24.9200 C   0  0  0  0  0  0  0  0  0  0  0  0
  -21.8090   -4.0380   23.7290 C   0  0  0  0  0  3  0  0  0  0  0  0
  -21.9460   -4.8310   22.5760 C   0  0  0  0  0  0  0  0  0  0  0  0
  -22.3930   -4.2740   21.4250 F   0  0  0  0  0  0  0  0  0  0  0  0
  -21.1870   -3.8370   26.0250 F   0  0  0  0  0  0  0  0  0  0  0  0
  -22.7490  -13.5640   21.1700 C   0  0  0  0  0  0  0  0  0  0  0  0
  -22.0300  -12.8600   22.0370 N   0  0  0  0  0  0  0  0  0  0  0  0
  -22.3060  -14.5920   20.6590 O   0  0  0  0  0  0  0  0  0  0  0  0
  -22.4020  -12.0290   22.4710 H   0  0  0  0  0  0  0  0  0  0  0  0
  -21.0930  -13.1590   22.2710 H   0  0  0  0  0  0  0  0  0  0  0  0
  -25.3470  -15.2430   20.3310 N   0  0  0  0  0  0  0  0  0  0  0  0
  -24.5640  -15.8790   20.4380 H   0  0  0  0  0  0  0  0  0  0  0  0
  -26.1700  -15.6850   19.9470 H   0  0  0  0  0  0  0  0  0  0  0  0
  -29.0320  -23.3370   20.2920 C   0  0  0  0  0  3  0  0  0  0  0  0
  -27.9540  -24.6450   20.2310 C   0  0  0  0  0  3  0  0  0  0  0  0
  -28.2370  -26.1870   20.2540 O   0  0  0  0  0  0  0  0  0  0  0  0
  -24.6210  -31.8990   23.2420 C   0  0  0  0  0  0  0  0  0  0  0  0
  -27.1770  -27.1720   20.2040 C   0  0  0  0  0  0  0  0  0  0  0  0
  -23.4110  -30.5070   21.6090 C   0  0  0  0  0  3  0  0  0  0  0  0
  -24.8500  -28.9270   20.1800 C   0  0  0  0  0  0  0  0  0  0  0  0
  -25.9650  -30.7640   21.4330 C   0  0  0  0  0  2  0  0  0  0  0  0
  -26.0340  -29.3710   20.7810 C   0  0  0  0  0  0  0  0  0  0  0  0
  -27.1990  -28.5120   20.7720 C   0  0  0  0  0  3  0  0  0  0  0  0
  -25.9620  -26.8320   19.5670 C   0  0  0  0  0  3  0  0  0  0  0  0
  -24.8280  -27.6710   19.5570 C   0  0  0  0  0  3  0  0  0  0  0  0
  -23.6250  -29.8270   20.2300 C   0  0  0  0  0  2  0  0  0  0  0  0
  -24.6860  -31.0780   22.1500 N   0  0  0  0  0  0  0  0  0  0  0  0
  -23.5370  -32.1860   23.7740 O   0  0  0  0  0  0  0  0  0  0  0  0
  -22.7320  -29.5010   22.5730 C   0  0  0  0  0  0  0  0  0  0  0  0
  -21.4030  -29.3330   22.4480 N   0  0  0  0  0  0  0  0  0  0  0  0
  -23.4030  -28.8750   23.3970 O   0  0  0  0  0  0  0  0  0  0  0  0
  -20.9180  -29.8870   21.7570 H   0  0  0  0  0  0  0  0  0  0  0  0
  -18.0200  -28.1410   22.9630 C   0  0  0  0  0  0  0  0  0  0  0  0
  -20.5800  -28.3980   23.2220 C   0  0  0  0  0  3  0  0  0  0  0  0
  -20.6770  -26.9650   22.6490 C   0  0  0  0  0  2  0  0  0  0  0  0
  -19.5720  -26.6430   21.6390 C   0  0  0  0  0  2  0  0  0  0  0  0
  -18.1940  -26.7900   22.2890 C   0  0  0  0  0  2  0  0  0  0  0  0
  -19.1410  -28.9020   23.3870 C   0  0  0  0  0  0  0  0  0  0  0  0
  -18.9240  -30.1650   23.9800 C   0  0  0  0  0  3  0  0  0  0  0  0
  -17.6210  -30.6650   24.1530 C   0  0  0  0  0  3  0  0  0  0  0  0
  -16.5140  -29.9020   23.7440 C   0  0  0  0  0  3  0  0  0  0  0  0
  -16.7150  -28.6400   23.1550 C   0  0  0  0  0  3  0  0  0  0  0  0
  -25.9020  -32.5320   23.8640 C   0  0  0  0  0  3  0  0  0  0  0  0
  -26.4180  -31.7590   25.1400 C   0  0  1  0  0  0  0  0  0  0  0  0
  -25.3250  -31.5230   26.2100 C   0  0  0  0  0  1  0  0  0  0  0  0
  -26.9990  -30.3810   24.7510 C   0  0  0  0  0  1  0  0  0  0  0  0
  -27.5700  -32.5510   25.8010 C   0  0  0  0  0  1  0  0  0  0  0  0
  -25.5920  -33.9290   24.2040 N   0  0  0  0  0  0  0  0  0  0  0  0
  -25.9030  -34.9880   23.4440 C   0  0  0  0  0  0  0  0  0  0  0  0
  -26.5460  -34.8900   22.3950 O   0  0  0  0  0  0  0  0  0  0  0  0
  -25.0180  -34.0790   25.0200 H   0  0  0  0  0  0  0  0  0  0  0  0
  -24.1540  -36.7750   23.1540 C   0  0  0  0  0  1  0  0  0  0  0  0
  -25.4260  -36.3740   23.9200 C   0  0  0  0  0  3  0  0  0  0  0  0
  -27.5810  -37.2750   24.6780 C   0  0  0  0  0  1  0  0  0  0  0  0
  -26.4480  -37.4340   23.7700 N   0  0  0  0  0  0  0  0  0  0  0  0
  -26.0420  -38.3520   23.9290 H   0  0  0  0  0  0  0  0  0  0  0  0
  2  1  1  0
  2  4  1  0
  3  2  1  0
  5 17  1  0
  6 11  1  0
  7  8  1  0
  7  6  1  0
  9  8  1  0
  9 21  1  0
  9 10  1  0
 11  5  1  0
 11 10  1  0
 12  5  2  0
 13 14  1  0
 13 16  1  0
 14 17  1  0
 15 16  1  0
 16  2  1  0
 17 15  1  0
 18 19  2  0
 19 38  1  0
 20 19  1  0
 20 23  1  0
 21 18  1  0
 21 22  1  0
 22 20  2  0
 23 24  1  0
 24 25  2  0
 26 29  1  0
 26 25  1  0
 27 26  2  0
 28 27  1  0
 28 23  2  0
 29 30  1  0
 30 31  1  0
 31 32  2  0
 33 32  1  0
 33 37  1  0
 34 33  2  0
 35 30  2  0
 35 34  1  0
 36 35  1  0
 38 39  1  0
 39 42  1  0
 39 41  1  0
 40 38  2  0
 43 44  1  0
 43 18  1  0
 45 43  1  0
 46  1  1  0
 47 48  1  0
 47 46  2  0
 49 60  2  0
 50 48  1  0
 50 55  1  0
 51 59  1  0
 51 61  1  0
 52 58  1  0
 52 54  1  0
 53 59  1  0
 54 53  1  0
 55 54  2  0
 56 50  2  0
 57 56  1  0
 57 52  2  0
 58 51  1  0
 59 49  1  0
 61 63  2  0
 62 61  1  0
 64 62  1  0
 65 74  2  0
 65 70  1  0
 66 62  1  0
 66 70  1  0
 67 66  1  0
 68 69  1  0
 68 67  1  0
 69 65  1  0
 70 71  2  0
 71 72  1  0
 73 72  2  0
 74 73  1  0
 75 49  1  0
 75 80  1  0
 75 76  1  0
 76 79  1  1
 76 77  1  0
 78 76  1  0
 80 83  1  0
 81 85  1  0
 81 80  1  0
 82 81  2  0
 85 84  1  0
 87 85  1  0
 87 88  1  0
 87 86  1  0
M  ISO  4   5 100  17 100  47 101  48 101
M  END
>  <TORSDO>  (38) 
F 19

>  <SCORE>  (38) 
-15.412

>  <name>  (38) 
37

>  <ligand_id>  (38) 
37

>  <original_smiles>  (38) 
[H]c1c([H])c([H])c2c(c1[H])C([H])([H])C([H])([H])C([H])([H])C2([H])N([H])C(=O)C1([H])N(C(=O)C([H])(N([H])C(=O)C([H])(N([H])C([H])([H])[H])C([H])([H])[H])C(C([H])([H])[H])(C([H])([H])[H])C([H])([H])[H])C([H])([H])c2c([H])c(OC([H])([H])C([H])([H])C([H])([H])[N+]([H])([H])C3([H])C([H])([H])N(C(=O)N4C([H])([H])C([H])([H])C([H])([H])C([H])(n5nc(-c6c([H])c([H])c(Oc7c([H])c([H])c(F)c([H])c7F)c([H])c6[H])c(C(=O)N([H])[H])c5N([H])[H])C4([H])[H])C([H])([H])C3([H])[H])c([H])c([H])c2C1([H])[H]

>  <smiles>  (38) 
[H]c1c([H])c([H])c2c(c1[H])C([H])([H])C([H])([H])C([H])([H])C2([H])N([H])C(=O)C1([H])N(C(=O)C([H])(N([H])C(=O)C([H])(N([H])C([H])([H])[H])C([H])([H])[H])C(C([H])([H])[H])(C([H])([H])[H])C([H])([H])[H])C([H])([H])c2c([H])c(OC([H])([H])C([H])([H])C([H])([H])[N+]([H])([H])C3([H])C([H])([H])N(C(=O)N4C([H])([H])C([H])([H])C([H])([H])C([H])(n5nc(-c6c([H])c([H])c(Oc7c([H])c([H])c(F)c([H])c7F)c([H])c6[H])c(C(=O)N([H])[H])c5N([H])[H])C4([H])[H])C([H])([H])C3([H])[H])c([H])c([H])c2C1([H])[H]

$$$$
38:0:0
     RDKit          3D

 89 97  0  0  1  0  0  0  0  0999 V2000
  -29.0960  -21.0040   20.0970 C   0  0  0  0  0  3  0  0  0  0  0  0
  -31.2540  -20.0430   20.8940 C   0  0  0  0  0  1  0  0  0  0  0  0
  -29.7850  -19.8450   20.8410 N   0  0  2  0  0  4  0  0  0  0  0  0
  -29.4750  -19.9450   21.7970 H   0  0  0  0  0  0  0  0  0  0  0  0
  -30.5920  -14.7300   20.3790 C   0  0  0  0  0  0  0  0  0  0  0  0
  -30.3800  -12.4630   19.3680 C   0  0  0  0  0  2  0  0  0  0  0  0
  -29.4440  -12.5280   18.1420 C   0  0  0  0  0  2  0  0  0  0  0  0
  -27.9740  -12.3550   18.5720 C   0  0  0  0  0  2  0  0  0  0  0  0
  -27.5930  -13.2400   19.7870 C   0  0  0  0  0  3  0  0  0  0  0  0
  -28.6520  -13.1790   20.9080 C   0  0  0  0  0  2  0  0  0  0  0  0
  -29.9450  -13.5180   20.3060 N   0  0  0  0  0  0  0  0  0  0  0  0
  -31.8050  -14.8020   20.1650 O   0  0  0  0  0  0  0  0  0  0  0  0
  -29.5400  -17.9560   19.0330 C   0  0  0  0  0  2  0  0  0  0  0  0
  -29.3300  -16.4190   19.0970 C   0  0  0  0  0  2  0  0  0  0  0  0
  -30.1240  -17.1520   21.1640 C   0  0  0  0  0  2  0  0  0  0  0  0
  -29.3950  -18.3930   20.4820 C   0  0  0  0  0  3  0  0  0  0  0  0
  -29.8200  -15.8890   20.3950 N   0  0  0  0  0  0  0  0  0  0  0  0
  -25.2030  -13.8360   20.4990 C   0  0  0  0  0  0  0  0  0  0  0  0
  -24.1370  -13.0610   20.8620 C   0  0  0  0  0  0  0  0  0  0  0  0
  -24.6040  -11.7110   20.8430 C   0  0  0  0  0  0  0  0  0  0  0  0
  -26.2500  -12.9560   20.2760 N   0  0  0  0  0  0  0  0  0  0  0  0
  -25.8970  -11.6740   20.5480 N   0  0  0  0  0  0  0  0  0  0  0  0
  -23.8810  -10.4480   21.0330 C   0  0  0  0  0  0  0  0  0  0  0  0
  -24.3140   -9.4850   21.9710 C   0  0  0  0  0  3  0  0  0  0  0  0
  -23.5920   -8.2840   22.1480 C   0  0  0  0  0  3  0  0  0  0  0  0
  -22.4250   -8.0390   21.3890 C   0  0  0  0  0  0  0  0  0  0  0  0
  -22.0110   -8.9910   20.4410 C   0  0  0  0  0  3  0  0  0  0  0  0
  -22.7320  -10.1830   20.2600 C   0  0  0  0  0  3  0  0  0  0  0  0
  -21.6740   -6.8920   21.4770 O   0  0  0  0  0  0  0  0  0  0  0  0
  -21.6290   -6.1500   22.6290 C   0  0  0  0  0  0  0  0  0  0  0  0
  -21.2030   -6.7030   23.8560 C   0  0  0  0  0  3  0  0  0  0  0  0
  -21.1050   -5.8860   25.0010 C   0  0  0  0  0  3  0  0  0  0  0  0
  -21.4230   -4.5170   24.9180 C   0  0  0  0  0  0  0  0  0  0  0  0
  -21.8410   -3.9640   23.6950 C   0  0  0  0  0  3  0  0  0  0  0  0
  -21.9410   -4.7780   22.5540 C   0  0  0  0  0  0  0  0  0  0  0  0
  -22.3250   -4.2350   21.3720 F   0  0  0  0  0  0  0  0  0  0  0  0
  -21.3210   -3.7300   26.0140 F   0  0  0  0  0  0  0  0  0  0  0  0
  -22.7340  -13.5350   21.1160 C   0  0  0  0  0  0  0  0  0  0  0  0
  -22.0000  -12.8420   21.9790 N   0  0  0  0  0  0  0  0  0  0  0  0
  -22.3000  -14.5560   20.5850 O   0  0  0  0  0  0  0  0  0  0  0  0
  -22.3660  -12.0170   22.4330 H   0  0  0  0  0  0  0  0  0  0  0  0
  -21.0590  -13.1410   22.1910 H   0  0  0  0  0  0  0  0  0  0  0  0
  -25.3650  -15.2060   20.3170 N   0  0  0  0  0  0  0  0  0  0  0  0
  -24.5970  -15.8590   20.4250 H   0  0  0  0  0  0  0  0  0  0  0  0
  -26.2260  -15.6480   20.0230 H   0  0  0  0  0  0  0  0  0  0  0  0
  -28.9930  -22.4430   20.8320 C   0  0  0  0  0  3  0  0  0  0  0  0
  -28.6720  -23.7910   20.0050 C   0  0  0  0  0  3  0  0  0  0  0  0
  -28.2620  -25.1220   20.8120 C   0  0  0  0  0  3  0  0  0  0  0  0
  -28.3590  -26.4780   20.2080 O   0  0  0  0  0  0  0  0  0  0  0  0
  -24.6020  -31.8740   23.2510 C   0  0  0  0  0  0  0  0  0  0  0  0
  -27.2320  -27.3130   20.2180 C   0  0  0  0  0  0  0  0  0  0  0  0
  -23.4020  -30.4680   21.6120 C   0  0  0  0  0  3  0  0  0  0  0  0
  -24.8590  -28.9110   20.1960 C   0  0  0  0  0  0  0  0  0  0  0  0
  -25.9390  -30.7950   21.4260 C   0  0  0  0  0  2  0  0  0  0  0  0
  -26.0260  -29.4140   20.7870 C   0  0  0  0  0  0  0  0  0  0  0  0
  -27.2190  -28.6290   20.7790 C   0  0  0  0  0  3  0  0  0  0  0  0
  -26.0430  -26.8570   19.6130 C   0  0  0  0  0  3  0  0  0  0  0  0
  -24.8700  -27.6390   19.5980 C   0  0  0  0  0  3  0  0  0  0  0  0
  -23.6190  -29.7830   20.2360 C   0  0  0  0  0  2  0  0  0  0  0  0
  -24.6670  -31.0650   22.1540 N   0  0  0  0  0  0  0  0  0  0  0  0
  -23.5170  -32.1500   23.7850 O   0  0  0  0  0  0  0  0  0  0  0  0
  -22.7400  -29.4550   22.5770 C   0  0  0  0  0  0  0  0  0  0  0  0
  -21.4150  -29.2740   22.4480 N   0  0  0  0  0  0  0  0  0  0  0  0
  -23.4190  -28.8350   23.3990 O   0  0  0  0  0  0  0  0  0  0  0  0
  -20.9270  -29.8250   21.7560 H   0  0  0  0  0  0  0  0  0  0  0  0
  -18.0410  -28.0680   22.9420 C   0  0  0  0  0  0  0  0  0  0  0  0
  -20.5970  -28.3380   23.2220 C   0  0  0  0  0  3  0  0  0  0  0  0
  -20.7070  -26.9040   22.6530 C   0  0  0  0  0  2  0  0  0  0  0  0
  -19.6100  -26.5720   21.6360 C   0  0  0  0  0  2  0  0  0  0  0  0
  -18.2250  -26.7160   22.2730 C   0  0  0  0  0  2  0  0  0  0  0  0
  -19.1550  -28.8370   23.3720 C   0  0  0  0  0  0  0  0  0  0  0  0
  -18.9280  -30.1010   23.9580 C   0  0  0  0  0  3  0  0  0  0  0  0
  -17.6210  -30.5980   24.1170 C   0  0  0  0  0  3  0  0  0  0  0  0
  -16.5210  -29.8260   23.7010 C   0  0  0  0  0  3  0  0  0  0  0  0
  -16.7320  -28.5640   23.1200 C   0  0  0  0  0  3  0  0  0  0  0  0
  -25.8830  -32.5110   23.8730 C   0  0  0  0  0  3  0  0  0  0  0  0
  -26.3960  -31.7470   25.1550 C   0  0  1  0  0  0  0  0  0  0  0  0
  -25.3010  -31.5160   26.2230 C   0  0  0  0  0  1  0  0  0  0  0  0
  -26.9770  -30.3650   24.7730 C   0  0  0  0  0  1  0  0  0  0  0  0
  -27.5460  -32.5440   25.8140 C   0  0  0  0  0  1  0  0  0  0  0  0
  -25.5720  -33.9110   24.1960 N   0  0  0  0  0  0  0  0  0  0  0  0
  -25.9080  -34.9610   23.4340 C   0  0  0  0  0  0  0  0  0  0  0  0
  -26.5810  -34.8530   22.4050 O   0  0  0  0  0  0  0  0  0  0  0  0
  -24.9730  -34.0680   24.9920 H   0  0  0  0  0  0  0  0  0  0  0  0
  -24.1840  -36.7550   23.0680 C   0  0  0  0  0  1  0  0  0  0  0  0
  -25.4220  -36.3520   23.8850 C   0  0  0  0  0  3  0  0  0  0  0  0
  -27.5550  -37.2370   24.7200 C   0  0  0  0  0  1  0  0  0  0  0  0
  -26.4560  -37.4030   23.7720 N   0  0  0  0  0  0  0  0  0  0  0  0
  -26.0510  -38.3240   23.9150 H   0  0  0  0  0  0  0  0  0  0  0  0
  1 46  2  0
  1  3  1  0
  3  2  1  0
  3  4  1  1
  5 17  1  0
  6 11  1  0
  7  8  1  0
  7  6  1  0
  9  8  1  0
  9 21  1  0
  9 10  1  0
 11  5  1  0
 11 10  1  0
 12  5  2  0
 13 14  1  0
 13 16  1  0
 14 17  1  0
 16  3  1  0
 16 15  1  0
 17 15  1  0
 18 19  2  0
 19 38  1  0
 20 19  1  0
 20 23  1  0
 21 18  1  0
 21 22  1  0
 22 20  2  0
 23 24  1  0
 24 25  2  0
 26 29  1  0
 26 25  1  0
 27 26  2  0
 28 27  1  0
 28 23  2  0
 29 30  1  0
 30 31  1  0
 31 32  2  0
 33 32  1  0
 33 37  1  0
 34 33  2  0
 35 30  2  0
 35 34  1  0
 36 35  1  0
 38 39  1  0
 39 42  1  0
 39 41  1  0
 40 38  2  0
 43 44  1  0
 43 18  1  0
 45 43  1  0
 47 48  2  0
 47 46  1  0
 49 51  1  0
 49 48  1  0
 50 61  2  0
 51 56  1  0
 52 60  1  0
 52 62  1  0
 53 59  1  0
 53 55  1  0
 54 60  1  0
 55 54  1  0
 56 55  2  0
 57 51  2  0
 58 57  1  0
 58 53  2  0
 59 52  1  0
 60 50  1  0
 62 64  2  0
 63 62  1  0
 65 63  1  0
 66 75  2  0
 66 71  1  0
 67 63  1  0
 67 71  1  0
 68 67  1  0
 69 70  1  0
 69 68  1  0
 70 66  1  0
 71 72  2  0
 72 73  1  0
 74 73  2  0
 75 74  1  0
 76 50  1  0
 76 81  1  0
 76 77  1  0
 77 80  1  1
 77 78  1  0
 79 77  1  0
 81 84  1  0
 82 86  1  0
 82 81  1  0
 83 82  2  0
 86 85  1  0
 88 86  1  0
 88 89  1  0
 88 87  1  0
M  ISO  4   5 100  17 100  48 101  49 101
M  END
>  <TORSDO>  (39) 
F 20

>  <SCORE>  (39) 
-13.852

>  <name>  (39) 
38

>  <ligand_id>  (39) 
38

>  <original_smiles>  (39) 
[H]c1c([H])c([H])c2c(c1[H])C([H])([H])C([H])([H])C([H])([H])C2([H])N([H])C(=O)C1([H])N(C(=O)C([H])(N([H])C(=O)C([H])(N([H])C([H])([H])[H])C([H])([H])[H])C(C([H])([H])[H])(C([H])([H])[H])C([H])([H])[H])C([H])([H])c2c([H])c(OC([H])([H])C([H])([H])C([H])([H])C([H])([H])[N+]([H])(C([H])([H])[H])C3([H])C([H])([H])N(C(=O)N4C([H])([H])C([H])([H])C([H])([H])C([H])(n5nc(-c6c([H])c([H])c(Oc7c([H])c([H])c(F)c([H])c7F)c([H])c6[H])c(C(=O)N([H])[H])c5N([H])[H])C4([H])[H])C([H])([H])C3([H])[H])c([H])c([H])c2C1([H])[H]

>  <smiles>  (39) 
[H]c1c([H])c([H])c2c(c1[H])C([H])([H])C([H])([H])C([H])([H])C2([H])N([H])C(=O)C1([H])N(C(=O)C([H])(N([H])C(=O)C([H])(N([H])C([H])([H])[H])C([H])([H])[H])C(C([H])([H])[H])(C([H])([H])[H])C([H])([H])[H])C([H])([H])c2c([H])c(OC([H])([H])C([H])([H])C([H])([H])C([H])([H])[N+]([H])(C([H])([H])[H])C3([H])C([H])([H])N(C(=O)N4C([H])([H])C([H])([H])C([H])([H])C([H])(n5nc(-c6c([H])c([H])c(Oc7c([H])c([H])c(F)c([H])c7F)c([H])c6[H])c(C(=O)N([H])[H])c5N([H])[H])C4([H])[H])C([H])([H])C3([H])[H])c([H])c([H])c2C1([H])[H]

$$$$
39:0:0
     RDKit          3D

 96106  0  0  1  0  0  0  0  0999 V2000
  -31.0560  -23.5100   19.4010 C   0  0  0  0  0  3  0  0  0  0  0  0
  -28.3550  -23.5780   19.2870 C   0  0  0  0  0  3  0  0  0  0  0  0
  -30.3230  -22.6020   18.6000 C   0  0  0  0  0  0  0  0  0  0  0  0
  -29.0910  -24.4890   20.0780 C   0  0  0  0  0  0  0  0  0  0  0  0
  -28.9680  -22.6260   18.5480 N   0  0  0  0  0  0  0  0  0  0  0  0
  -30.4440  -24.4600   20.1450 N   0  0  0  0  0  0  0  0  0  0  0  0
  -32.0470  -21.9900   16.7800 C   0  0  0  0  0  2  0  0  0  0  0  0
  -30.7120  -21.5070   16.2820 C   0  0  0  0  0  2  0  0  0  0  0  0
  -30.9920  -21.5430   17.7750 C   0  0  2  0  0  0  0  0  0  0  0  0
  -31.1880  -20.2320   18.5400 C   0  0  0  0  0  2  0  0  0  0  0  0
  -30.0200  -19.8050   19.4630 C   0  0  0  0  0  2  0  0  0  0  0  0
  -30.6740  -14.4580   20.3960 C   0  0  0  0  0  0  0  0  0  0  0  0
  -30.3530  -12.2840   19.3250 C   0  0  0  0  0  2  0  0  0  0  0  0
  -29.4130  -12.4780   18.1180 C   0  0  0  0  0  2  0  0  0  0  0  0
  -27.9360  -12.3820   18.5550 C   0  0  0  0  0  2  0  0  0  0  0  0
  -27.6010  -13.2370   19.8100 C   0  0  0  0  0  3  0  0  0  0  0  0
  -28.6640  -13.0440   20.9150 C   0  0  0  0  0  2  0  0  0  0  0  0
  -29.9870  -13.2940   20.3240 N   0  0  0  0  0  0  0  0  0  0  0  0
  -31.8730  -14.5650   20.1230 O   0  0  0  0  0  0  0  0  0  0  0  0
  -29.7730  -16.0760   18.8940 C   0  0  0  0  0  2  0  0  0  0  0  0
  -29.8240  -16.4820   21.4310 C   0  0  0  0  0  2  0  0  0  0  0  0
  -29.3920  -17.5470   18.7560 C   0  0  0  0  0  2  0  0  0  0  0  0
  -29.5850  -17.9810   21.1130 C   0  0  0  0  0  2  0  0  0  0  0  0
  -29.8940  -15.5560   20.2780 N   0  0  0  0  0  0  0  0  0  0  0  0
  -30.0840  -18.3560   19.7730 N   0  0  2  0  0  4  0  0  0  0  0  0
  -31.0600  -18.1070   19.7550 H   0  0  0  0  0  0  0  0  0  0  0  0
  -25.2100  -13.8670   20.5180 C   0  0  0  0  0  0  0  0  0  0  0  0
  -24.1370  -13.1030   20.8880 C   0  0  0  0  0  0  0  0  0  0  0  0
  -24.5910  -11.7500   20.8690 C   0  0  0  0  0  0  0  0  0  0  0  0
  -26.2500  -12.9770   20.2960 N   0  0  0  0  0  0  0  0  0  0  0  0
  -25.8820  -11.6990   20.5680 N   0  0  0  0  0  0  0  0  0  0  0  0
  -23.8590  -10.4930   21.0640 C   0  0  0  0  0  0  0  0  0  0  0  0
  -24.3030   -9.5180   21.9850 C   0  0  0  0  0  3  0  0  0  0  0  0
  -23.5750   -8.3230   22.1680 C   0  0  0  0  0  3  0  0  0  0  0  0
  -22.3880   -8.0960   21.4310 C   0  0  0  0  0  0  0  0  0  0  0  0
  -21.9650   -9.0600   20.4990 C   0  0  0  0  0  3  0  0  0  0  0  0
  -22.6940  -10.2460   20.3130 C   0  0  0  0  0  3  0  0  0  0  0  0
  -21.6290   -6.9560   21.5240 O   0  0  0  0  0  0  0  0  0  0  0  0
  -21.6120   -6.1940   22.6660 C   0  0  0  0  0  0  0  0  0  0  0  0
  -21.2440   -6.7360   23.9170 C   0  0  0  0  0  3  0  0  0  0  0  0
  -21.1720   -5.9030   25.0520 C   0  0  0  0  0  3  0  0  0  0  0  0
  -21.4580   -4.5300   24.9360 C   0  0  0  0  0  0  0  0  0  0  0  0
  -21.8180   -3.9870   23.6900 C   0  0  0  0  0  3  0  0  0  0  0  0
  -21.8920   -4.8170   22.5570 C   0  0  0  0  0  0  0  0  0  0  0  0
  -22.2190   -4.2850   21.3550 F   0  0  0  0  0  0  0  0  0  0  0  0
  -21.3810   -3.7280   26.0240 F   0  0  0  0  0  0  0  0  0  0  0  0
  -22.7390  -13.5900   21.1510 C   0  0  0  0  0  0  0  0  0  0  0  0
  -22.0030  -12.9010   22.0170 N   0  0  0  0  0  0  0  0  0  0  0  0
  -22.3100  -14.6140   20.6230 O   0  0  0  0  0  0  0  0  0  0  0  0
  -22.3610  -12.0730   22.4670 H   0  0  0  0  0  0  0  0  0  0  0  0
  -21.0660  -13.2110   22.2320 H   0  0  0  0  0  0  0  0  0  0  0  0
  -25.3830  -15.2360   20.3290 N   0  0  0  0  0  0  0  0  0  0  0  0
  -24.6230  -15.8990   20.4280 H   0  0  0  0  0  0  0  0  0  0  0  0
  -26.2450  -15.6640   20.0170 H   0  0  0  0  0  0  0  0  0  0  0  0
  -28.3860  -25.5780   20.8490 C   0  0  0  0  0  2  0  0  0  0  0  0
  -28.4150  -26.8000   20.1200 O   0  0  0  0  0  0  0  0  0  0  0  0
  -24.6000  -31.8870   23.2290 C   0  0  0  0  0  0  0  0  0  0  0  0
  -27.2360  -27.4910   20.1390 C   0  0  0  0  0  0  0  0  0  0  0  0
  -23.3810  -30.4800   21.5960 C   0  0  0  0  0  3  0  0  0  0  0  0
  -24.8300  -28.9480   20.1650 C   0  0  0  0  0  0  0  0  0  0  0  0
  -25.8980  -30.8620   21.3700 C   0  0  0  0  0  2  0  0  0  0  0  0
  -25.9850  -29.4920   20.7380 C   0  0  0  0  0  0  0  0  0  0  0  0
  -27.1950  -28.7710   20.7210 C   0  0  0  0  0  3  0  0  0  0  0  0
  -26.0700  -26.9460   19.5590 C   0  0  0  0  0  3  0  0  0  0  0  0
  -24.8640  -27.6710   19.5730 C   0  0  0  0  0  3  0  0  0  0  0  0
  -23.5820  -29.7980   20.2160 C   0  0  0  0  0  2  0  0  0  0  0  0
  -24.6450  -31.0900   22.1250 N   0  0  0  0  0  0  0  0  0  0  0  0
  -23.5240  -32.1560   23.7790 O   0  0  0  0  0  0  0  0  0  0  0  0
  -22.7440  -29.4570   22.5620 C   0  0  0  0  0  0  0  0  0  0  0  0
  -21.4190  -29.2720   22.4450 N   0  0  0  0  0  0  0  0  0  0  0  0
  -23.4370  -28.8320   23.3690 O   0  0  0  0  0  0  0  0  0  0  0  0
  -20.9230  -29.8290   21.7620 H   0  0  0  0  0  0  0  0  0  0  0  0
  -18.0500  -28.0790   22.9610 C   0  0  0  0  0  0  0  0  0  0  0  0
  -20.6090  -28.3350   23.2210 C   0  0  0  0  0  3  0  0  0  0  0  0
  -20.7090  -26.9030   22.6450 C   0  0  0  0  0  2  0  0  0  0  0  0
  -19.6020  -26.5820   21.6360 C   0  0  0  0  0  2  0  0  0  0  0  0
  -18.2230  -26.7280   22.2870 C   0  0  0  0  0  2  0  0  0  0  0  0
  -19.1720  -28.8400   23.3850 C   0  0  0  0  0  0  0  0  0  0  0  0
  -18.9570  -30.1060   23.9730 C   0  0  0  0  0  3  0  0  0  0  0  0
  -17.6540  -30.6100   24.1430 C   0  0  0  0  0  3  0  0  0  0  0  0
  -16.5470  -29.8440   23.7370 C   0  0  0  0  0  3  0  0  0  0  0  0
  -16.7470  -28.5810   23.1510 C   0  0  0  0  0  3  0  0  0  0  0  0
  -25.8920  -32.5180   23.8380 C   0  0  0  0  0  3  0  0  0  0  0  0
  -26.4320  -31.7390   25.0990 C   0  0  1  0  0  0  0  0  0  0  0  0
  -25.3560  -31.4910   26.1820 C   0  0  0  0  0  1  0  0  0  0  0  0
  -27.0080  -30.3650   24.6830 C   0  0  0  0  0  1  0  0  0  0  0  0
  -27.5920  -32.5290   25.7490 C   0  0  0  0  0  1  0  0  0  0  0  0
  -25.5840  -33.9130   24.1780 N   0  0  0  0  0  0  0  0  0  0  0  0
  -25.9070  -34.9690   23.4190 C   0  0  0  0  0  0  0  0  0  0  0  0
  -26.5700  -34.8720   22.3830 O   0  0  0  0  0  0  0  0  0  0  0  0
  -24.9960  -34.0620   24.9850 H   0  0  0  0  0  0  0  0  0  0  0  0
  -24.1710  -36.7540   23.0800 C   0  0  0  0  0  1  0  0  0  0  0  0
  -25.4170  -36.3520   23.8850 C   0  0  0  0  0  3  0  0  0  0  0  0
  -27.5580  -37.2340   24.7010 C   0  0  0  0  0  1  0  0  0  0  0  0
  -26.4440  -37.4100   23.7730 N   0  0  0  0  0  0  0  0  0  0  0  0
  -26.0350  -38.3260   23.9400 H   0  0  0  0  0  0  0  0  0  0  0  0
  1  6  1  0
  2  4  1  0
  3  1  2  0
  4  6  2  0
  4 55  1  0
  5  3  1  0
  5  2  2  0
  7  9  1  0
  8  7  1  0
  8  9  1  0
  9 10  1  1
  9  3  1  0
 10 11  1  0
 11 25  1  0
 13 18  1  0
 14 15  1  0
 14 13  1  0
 16 15  1  0
 16 30  1  0
 16 17  1  0
 18 12  1  0
 18 17  1  0
 19 12  2  0
 20 24  1  0
 22 20  1  0
 22 25  1  0
 23 21  1  0
 24 12  1  0
 24 21  1  0
 25 23  1  0
 25 26  1  1
 27 28  2  0
 28 47  1  0
 29 28  1  0
 29 32  1  0
 30 27  1  0
 30 31  1  0
 31 29  2  0
 32 33  1  0
 33 34  2  0
 35 38  1  0
 35 34  1  0
 36 35  2  0
 37 36  1  0
 37 32  2  0
 38 39  1  0
 39 40  1  0
 40 41  2  0
 42 41  1  0
 42 46  1  0
 43 42  2  0
 44 39  2  0
 44 43  1  0
 45 44  1  0
 47 48  1  0
 48 51  1  0
 48 50  1  0
 49 47  2  0
 52 53  1  0
 52 27  1  0
 54 52  1  0
 56 58  1  0
 56 55  1  0
 57 68  2  0
 58 63  1  0
 59 67  1  0
 59 69  1  0
 60 66  1  0
 60 62  1  0
 61 67  1  0
 62 61  1  0
 63 62  2  0
 64 65  1  0
 64 58  2  0
 65 60  2  0
 66 59  1  0
 67 57  1  0
 69 71  2  0
 70 69  1  0
 72 70  1  0
 73 82  2  0
 73 78  1  0
 74 70  1  0
 74 78  1  0
 75 74  1  0
 76 77  1  0
 76 75  1  0
 77 73  1  0
 78 79  2  0
 79 80  1  0
 81 80  2  0
 82 81  1  0
 83 57  1  0
 83 88  1  0
 83 84  1  0
 84 87  1  1
 84 85  1  0
 86 84  1  0
 88 91  1  0
 89 93  1  0
 89 88  1  0
 90 89  2  0
 93 92  1  0
 95 93  1  0
 95 96  1  0
 95 94  1  0
M  ISO  4  12 100  24 100  55 101  56 101
M  END
>  <TORSDO>  (40) 
F 20

>  <SCORE>  (40) 
-13.713

>  <name>  (40) 
39

>  <ligand_id>  (40) 
39

>  <original_smiles>  (40) 
[H]c1nc(C2(C([H])([H])C([H])([H])[N+]3([H])C([H])([H])C([H])([H])N(C(=O)N4C([H])([H])C([H])([H])C([H])([H])C([H])(n5nc(-c6c([H])c([H])c(Oc7c([H])c([H])c(F)c([H])c7F)c([H])c6[H])c(C(=O)N([H])[H])c5N([H])[H])C4([H])[H])C([H])([H])C3([H])[H])C([H])([H])C2([H])[H])c([H])nc1C([H])([H])Oc1c([H])c([H])c2c(c1[H])C([H])([H])N(C(=O)C([H])(N([H])C(=O)C([H])(N([H])C([H])([H])[H])C([H])([H])[H])C(C([H])([H])[H])(C([H])([H])[H])C([H])([H])[H])C([H])(C(=O)N([H])C1([H])c3c([H])c([H])c([H])c([H])c3C([H])([H])C([H])([H])C1([H])[H])C2([H])[H]

>  <smiles>  (40) 
[H]c1nc(C2(C([H])([H])C([H])([H])[N+]3([H])C([H])([H])C([H])([H])N(C(=O)N4C([H])([H])C([H])([H])C([H])([H])C([H])(n5nc(-c6c([H])c([H])c(Oc7c([H])c([H])c(F)c([H])c7F)c([H])c6[H])c(C(=O)N([H])[H])c5N([H])[H])C4([H])[H])C([H])([H])C3([H])[H])C([H])([H])C2([H])[H])c([H])nc1C([H])([H])Oc1c([H])c([H])c2c(c1[H])C([H])([H])N(C(=O)C([H])(N([H])C(=O)C([H])(N([H])C([H])([H])[H])C([H])([H])[H])C(C([H])([H])[H])(C([H])([H])[H])C([H])([H])[H])C([H])(C(=O)N([H])C1([H])c3c([H])c([H])c([H])c([H])c3C([H])([H])C([H])([H])C1([H])[H])C2([H])[H]

$$$$
40:0:0
     RDKit          3D

 95105  0  0  1  0  0  0  0  0999 V2000
  -30.7200  -14.5690   20.5130 C   0  0  0  0  0  0  0  0  0  0  0  0
  -30.4080  -12.3960   19.3600 C   0  0  0  0  0  2  0  0  0  0  0  0
  -29.4970  -12.5540   18.1260 C   0  0  0  0  0  2  0  0  0  0  0  0
  -28.0180  -12.3930   18.5230 C   0  0  0  0  0  2  0  0  0  0  0  0
  -27.6480  -13.2650   19.7480 C   0  0  0  0  0  3  0  0  0  0  0  0
  -28.6780  -13.0780   20.8930 C   0  0  0  0  0  2  0  0  0  0  0  0
  -30.0080  -13.4090   20.3590 N   0  0  0  0  0  0  0  0  0  0  0  0
  -31.8480  -14.6720   20.0180 O   0  0  0  0  0  0  0  0  0  0  0  0
  -31.2790  -17.8460   20.8540 C   0  0  0  0  0  2  0  0  0  0  0  0
  -28.9440  -17.3490   20.0560 C   0  0  0  0  0  2  0  0  0  0  0  0
  -29.3560  -19.6730   21.2440 C   0  0  0  0  0  2  0  0  0  0  0  0
  -31.1310  -16.6350   21.8210 C   0  0  0  0  0  2  0  0  0  0  0  0
  -28.9020  -16.2470   21.1340 C   0  0  0  0  0  2  0  0  0  0  0  0
  -30.0000  -20.6220   20.2170 C   0  0  0  0  0  3  0  0  0  0  0  0
  -29.9170  -18.4760   20.4390 C   0  0  1  0  0  0  0  0  0  0  0  0
  -30.2240  -15.6040   21.2680 N   0  0  0  0  0  0  0  0  0  0  0  0
  -29.9840  -19.4530   19.3340 N   0  0  0  0  0  0  0  0  0  0  0  0
  -25.2420  -13.9200   20.3890 C   0  0  0  0  0  0  0  0  0  0  0  0
  -24.1600  -13.1670   20.7530 C   0  0  0  0  0  0  0  0  0  0  0  0
  -24.6110  -11.8110   20.7660 C   0  0  0  0  0  0  0  0  0  0  0  0
  -26.2840  -13.0220   20.2030 N   0  0  0  0  0  0  0  0  0  0  0  0
  -25.9070  -11.7520   20.4910 N   0  0  0  0  0  0  0  0  0  0  0  0
  -23.8730  -10.5590   20.9650 C   0  0  0  0  0  0  0  0  0  0  0  0
  -24.2810   -9.6070   21.9250 C   0  0  0  0  0  3  0  0  0  0  0  0
  -23.5440   -8.4170   22.1100 C   0  0  0  0  0  3  0  0  0  0  0  0
  -22.3860   -8.1730   21.3340 C   0  0  0  0  0  0  0  0  0  0  0  0
  -21.9980   -9.1140   20.3650 C   0  0  0  0  0  3  0  0  0  0  0  0
  -22.7350  -10.2950   20.1780 C   0  0  0  0  0  3  0  0  0  0  0  0
  -21.6220   -7.0350   21.4280 O   0  0  0  0  0  0  0  0  0  0  0  0
  -21.5460   -6.3140   22.5920 C   0  0  0  0  0  0  0  0  0  0  0  0
  -21.1090   -6.8960   23.8020 C   0  0  0  0  0  3  0  0  0  0  0  0
  -20.9790   -6.1010   24.9590 C   0  0  0  0  0  3  0  0  0  0  0  0
  -21.2770   -4.7260   24.9070 C   0  0  0  0  0  0  0  0  0  0  0  0
  -21.7070   -4.1440   23.7010 C   0  0  0  0  0  3  0  0  0  0  0  0
  -21.8380   -4.9360   22.5470 C   0  0  0  0  0  0  0  0  0  0  0  0
  -22.2330   -4.3660   21.3830 F   0  0  0  0  0  0  0  0  0  0  0  0
  -21.1440   -3.9610   26.0150 F   0  0  0  0  0  0  0  0  0  0  0  0
  -22.7610  -13.6600   20.9800 C   0  0  0  0  0  0  0  0  0  0  0  0
  -22.0080  -12.9920   21.8480 N   0  0  0  0  0  0  0  0  0  0  0  0
  -22.3410  -14.6730   20.4230 O   0  0  0  0  0  0  0  0  0  0  0  0
  -22.3580  -12.1720   22.3210 H   0  0  0  0  0  0  0  0  0  0  0  0
  -21.0670  -13.3050   22.0420 H   0  0  0  0  0  0  0  0  0  0  0  0
  -25.4170  -15.2850   20.1760 N   0  0  0  0  0  0  0  0  0  0  0  0
  -24.6470  -15.9400   20.2450 H   0  0  0  0  0  0  0  0  0  0  0  0
  -26.2670  -15.7060   19.8260 H   0  0  0  0  0  0  0  0  0  0  0  0
  -31.0030  -18.4570   17.2290 C   0  0  0  0  0  2  0  0  0  0  0  0
  -30.9290  -19.9560   17.0280 C   0  0  0  0  0  2  0  0  0  0  0  0
  -31.1140  -19.3870   18.4130 C   0  0  0  0  0  3  0  0  0  0  0  0
  -29.2500  -21.8160   19.5690 C   0  0  0  0  0  2  0  0  0  0  0  0
  -29.1270  -23.0170   20.4400 N   0  0  0  0  0  4  0  0  0  0  0  0
  -30.0210  -23.1760   20.8810 H   0  0  0  0  0  0  0  0  0  0  0  0
  -28.4670  -22.8010   21.1710 H   0  0  0  0  0  0  0  0  0  0  0  0
  -28.7120  -24.2690   19.7280 C   0  0  0  0  0  2  0  0  0  0  0  0
  -28.3880  -25.4570   20.6760 C   0  0  0  0  0  2  0  0  0  0  0  0
  -28.3910  -26.7340   20.0050 O   0  0  0  0  0  0  0  0  0  0  0  0
  -24.5600  -31.8530   23.1700 C   0  0  0  0  0  0  0  0  0  0  0  0
  -27.2160  -27.4540   20.0380 C   0  0  0  0  0  0  0  0  0  0  0  0
  -23.3580  -30.4740   21.5050 C   0  0  0  0  0  3  0  0  0  0  0  0
  -24.8160  -28.9540   20.0630 C   0  0  0  0  0  0  0  0  0  0  0  0
  -25.8820  -30.8410   21.3140 C   0  0  0  0  0  2  0  0  0  0  0  0
  -25.9730  -29.4760   20.6560 C   0  0  0  0  0  0  0  0  0  0  0  0
  -27.1770  -28.7380   20.6330 C   0  0  0  0  0  3  0  0  0  0  0  0
  -26.0440  -26.9430   19.4420 C   0  0  0  0  0  3  0  0  0  0  0  0
  -24.8470  -27.6870   19.4520 C   0  0  0  0  0  3  0  0  0  0  0  0
  -23.5700  -29.8100   20.1180 C   0  0  0  0  0  2  0  0  0  0  0  0
  -24.6190  -31.0700   22.0560 N   0  0  0  0  0  0  0  0  0  0  0  0
  -23.4780  -32.1150   23.7140 O   0  0  0  0  0  0  0  0  0  0  0  0
  -22.7050  -29.4400   22.4500 C   0  0  0  0  0  0  0  0  0  0  0  0
  -21.3770  -29.2800   22.3370 N   0  0  0  0  0  0  0  0  0  0  0  0
  -23.3910  -28.7840   23.2390 O   0  0  0  0  0  0  0  0  0  0  0  0
  -20.8850  -29.8600   21.6720 H   0  0  0  0  0  0  0  0  0  0  0  0
  -17.9910  -28.1310   22.8590 C   0  0  0  0  0  0  0  0  0  0  0  0
  -20.5570  -28.3340   23.0940 C   0  0  0  0  0  3  0  0  0  0  0  0
  -20.6240  -26.9190   22.4740 C   0  0  0  0  0  2  0  0  0  0  0  0
  -19.4990  -26.6460   21.4700 C   0  0  0  0  0  2  0  0  0  0  0  0
  -18.1310  -26.7980   22.1420 C   0  0  0  0  0  2  0  0  0  0  0  0
  -19.1310  -28.8590   23.2920 C   0  0  0  0  0  0  0  0  0  0  0  0
  -18.9460  -30.1080   23.9220 C   0  0  0  0  0  3  0  0  0  0  0  0
  -17.6540  -30.6280   24.1240 C   0  0  0  0  0  3  0  0  0  0  0  0
  -16.5290  -29.8960   23.7090 C   0  0  0  0  0  3  0  0  0  0  0  0
  -16.6980  -28.6480   23.0820 C   0  0  0  0  0  3  0  0  0  0  0  0
  -25.8450  -32.4750   23.8020 C   0  0  0  0  0  3  0  0  0  0  0  0
  -26.3700  -31.6770   25.0580 C   0  0  1  0  0  0  0  0  0  0  0  0
  -25.2830  -31.4130   26.1260 C   0  0  0  0  0  1  0  0  0  0  0  0
  -26.9520  -30.3090   24.6310 C   0  0  0  0  0  1  0  0  0  0  0  0
  -27.5230  -32.4570   25.7320 C   0  0  0  0  0  1  0  0  0  0  0  0
  -25.5330  -33.8640   24.1630 N   0  0  0  0  0  0  0  0  0  0  0  0
  -25.8640  -34.9330   23.4260 C   0  0  0  0  0  0  0  0  0  0  0  0
  -26.5340  -34.8530   22.3920 O   0  0  0  0  0  0  0  0  0  0  0  0
  -24.9390  -34.0000   24.9670 H   0  0  0  0  0  0  0  0  0  0  0  0
  -24.1320  -36.7280   23.1050 C   0  0  0  0  0  1  0  0  0  0  0  0
  -25.3720  -36.3100   23.9110 C   0  0  0  0  0  3  0  0  0  0  0  0
  -27.5020  -37.1810   24.7670 C   0  0  0  0  0  1  0  0  0  0  0  0
  -26.4020  -37.3670   23.8240 N   0  0  0  0  0  0  0  0  0  0  0  0
  -25.9930  -38.2830   23.9920 H   0  0  0  0  0  0  0  0  0  0  0  0
  1 16  1  0
  2  7  1  0
  3  4  1  0
  3  2  1  0
  5  4  1  0
  5 21  1  0
  5  6  1  0
  7  1  1  0
  7  6  1  0
  8  1  2  0
  9 12  1  0
 10 13  1  0
 13 16  1  0
 14 49  1  0
 14 11  1  0
 15 10  1  6
 15  9  1  0
 15 11  1  0
 16 12  1  0
 17 48  1  0
 17 14  1  0
 17 15  1  0
 18 19  2  0
 19 20  1  0
 19 38  1  0
 20 23  1  0
 21 18  1  0
 21 22  1  0
 22 20  2  0
 23 24  1  0
 24 25  2  0
 26 29  1  0
 26 25  1  0
 27 26  2  0
 28 27  1  0
 28 23  2  0
 29 30  1  0
 30 31  1  0
 31 32  2  0
 33 32  1  0
 33 37  1  0
 34 33  2  0
 35 30  2  0
 35 34  1  0
 36 35  1  0
 38 39  1  0
 39 42  1  0
 39 41  1  0
 40 38  2  0
 43 44  1  0
 43 18  1  0
 45 43  1  0
 46 48  1  0
 47 46  1  0
 47 48  1  0
 49 50  1  0
 50 51  1  0
 50 52  1  0
 53 50  1  0
 53 54  1  0
 55 57  1  0
 55 54  1  0
 56 67  2  0
 57 62  1  0
 58 66  1  0
 58 68  1  0
 59 65  1  0
 59 61  1  0
 60 66  1  0
 61 60  1  0
 62 61  2  0
 63 64  1  0
 63 57  2  0
 64 59  2  0
 65 58  1  0
 66 56  1  0
 68 70  2  0
 69 68  1  0
 71 69  1  0
 72 81  2  0
 72 77  1  0
 73 69  1  0
 73 77  1  0
 74 73  1  0
 75 76  1  0
 75 74  1  0
 76 72  1  0
 77 78  2  0
 78 79  1  0
 80 79  2  0
 81 80  1  0
 82 56  1  0
 82 87  1  0
 82 83  1  0
 83 86  1  1
 83 84  1  0
 85 83  1  0
 87 90  1  0
 88 92  1  0
 88 87  1  0
 89 88  2  0
 92 91  1  0
 94 92  1  0
 94 95  1  0
 94 93  1  0
M  ISO  4   1 100  16 100  54 101  55 101
M  END
>  <TORSDO>  (41) 
F 20

>  <SCORE>  (41) 
-13.717

>  <name>  (41) 
40

>  <ligand_id>  (41) 
40

>  <original_smiles>  (41) 
[H]c1c([H])c([H])c2c(c1[H])C([H])([H])C([H])([H])C([H])([H])C2([H])N([H])C(=O)C1([H])N(C(=O)C([H])(N([H])C(=O)C([H])(N([H])C([H])([H])[H])C([H])([H])[H])C(C([H])([H])[H])(C([H])([H])[H])C([H])([H])[H])C([H])([H])c2c([H])c(OC([H])([H])C([H])([H])[N+]([H])([H])C([H])([H])C3([H])N(C4([H])C([H])([H])C4([H])[H])C4(C([H])([H])C([H])([H])N(C(=O)N5C([H])([H])C([H])([H])C([H])([H])C([H])(n6nc(-c7c([H])c([H])c(Oc8c([H])c([H])c(F)c([H])c8F)c([H])c7[H])c(C(=O)N([H])[H])c6N([H])[H])C5([H])[H])C([H])([H])C4([H])[H])C3([H])[H])c([H])c([H])c2C1([H])[H]

>  <smiles>  (41) 
[H]c1c([H])c([H])c2c(c1[H])C([H])([H])C([H])([H])C([H])([H])C2([H])N([H])C(=O)C1([H])N(C(=O)C([H])(N([H])C(=O)C([H])(N([H])C([H])([H])[H])C([H])([H])[H])C(C([H])([H])[H])(C([H])([H])[H])C([H])([H])[H])C([H])([H])c2c([H])c(OC([H])([H])C([H])([H])[N+]([H])([H])C([H])([H])C3([H])N(C4([H])C([H])([H])C4([H])[H])C4(C([H])([H])C([H])([H])N(C(=O)N5C([H])([H])C([H])([H])C([H])([H])C([H])(n6nc(-c7c([H])c([H])c(Oc8c([H])c([H])c(F)c([H])c8F)c([H])c7[H])c(C(=O)N([H])[H])c6N([H])[H])C5([H])[H])C([H])([H])C4([H])[H])C3([H])[H])c([H])c([H])c2C1([H])[H]

$$$$
41:0:0
     RDKit          3D

 88 97  0  0  1  0  0  0  0  0999 V2000
  -30.0020  -21.0940   20.0180 C   0  0  0  0  0  3  0  0  0  0  0  0
  -29.4300  -19.8500   20.3420 C   0  0  0  0  0  0  0  0  0  0  0  0
  -28.1730  -20.2330   20.8460 N   0  0  0  0  0  0  0  0  0  0  0  0
  -27.9990  -21.5500   20.8440 N   0  0  0  0  0  0  0  0  0  0  0  0
  -29.0970  -22.1630   20.3180 N   0  0  0  0  0  0  0  0  0  0  0  0
  -30.5940  -14.9170   20.3430 C   0  0  0  0  0  0  0  0  0  0  0  0
  -30.4230  -12.5980   19.3810 C   0  0  0  0  0  2  0  0  0  0  0  0
  -29.4930  -12.5990   18.1470 C   0  0  0  0  0  2  0  0  0  0  0  0
  -28.0260  -12.4100   18.5720 C   0  0  0  0  0  2  0  0  0  0  0  0
  -27.6270  -13.3250   19.7620 C   0  0  0  0  0  3  0  0  0  0  0  0
  -28.6790  -13.3050   20.8890 C   0  0  0  0  0  2  0  0  0  0  0  0
  -29.9640  -13.6820   20.2880 N   0  0  0  0  0  0  0  0  0  0  0  0
  -31.7900  -14.9800   20.0450 O   0  0  0  0  0  0  0  0  0  0  0  0
  -30.2900  -17.3050   21.3990 C   0  0  0  0  0  2  0  0  0  0  0  0
  -29.2480  -17.0610   19.6160 C   0  0  0  0  0  2  0  0  0  0  0  0
  -29.9590  -18.3120   20.2450 C   0  0  0  0  0  3  0  0  0  0  0  0
  -29.8620  -16.0950   20.6010 N   0  0  0  0  0  0  0  0  0  0  0  0
  -25.2330  -13.9010   20.4740 C   0  0  0  0  0  0  0  0  0  0  0  0
  -24.1670  -13.1230   20.8370 C   0  0  0  0  0  0  0  0  0  0  0  0
  -24.6380  -11.7730   20.8180 C   0  0  0  0  0  0  0  0  0  0  0  0
  -26.2830  -13.0270   20.2500 N   0  0  0  0  0  0  0  0  0  0  0  0
  -25.9320  -11.7420   20.5200 N   0  0  0  0  0  0  0  0  0  0  0  0
  -23.9130  -10.5090   21.0080 C   0  0  0  0  0  0  0  0  0  0  0  0
  -24.3310   -9.5520   21.9580 C   0  0  0  0  0  3  0  0  0  0  0  0
  -23.6050   -8.3540   22.1340 C   0  0  0  0  0  3  0  0  0  0  0  0
  -22.4460   -8.1050   21.3610 C   0  0  0  0  0  0  0  0  0  0  0  0
  -22.0480   -9.0510   20.4000 C   0  0  0  0  0  3  0  0  0  0  0  0
  -22.7750  -10.2400   20.2210 C   0  0  0  0  0  3  0  0  0  0  0  0
  -21.6930   -6.9590   21.4460 O   0  0  0  0  0  0  0  0  0  0  0  0
  -21.6150   -6.2350   22.6090 C   0  0  0  0  0  0  0  0  0  0  0  0
  -21.1220   -6.7990   23.8060 C   0  0  0  0  0  3  0  0  0  0  0  0
  -20.9930   -6.0000   24.9590 C   0  0  0  0  0  3  0  0  0  0  0  0
  -21.3450   -4.6370   24.9170 C   0  0  0  0  0  0  0  0  0  0  0  0
  -21.8300   -4.0720   23.7240 C   0  0  0  0  0  3  0  0  0  0  0  0
  -21.9610   -4.8680   22.5730 C   0  0  0  0  0  0  0  0  0  0  0  0
  -22.4080   -4.3140   21.4200 F   0  0  0  0  0  0  0  0  0  0  0  0
  -21.2140   -3.8670   26.0220 F   0  0  0  0  0  0  0  0  0  0  0  0
  -22.7650  -13.5950   21.0910 C   0  0  0  0  0  0  0  0  0  0  0  0
  -22.0340  -12.9040   21.9580 N   0  0  0  0  0  0  0  0  0  0  0  0
  -22.3270  -14.6140   20.5590 O   0  0  0  0  0  0  0  0  0  0  0  0
  -22.4010  -12.0800   22.4100 H   0  0  0  0  0  0  0  0  0  0  0  0
  -21.0940  -13.2020   22.1740 H   0  0  0  0  0  0  0  0  0  0  0  0
  -25.3910  -15.2720   20.2920 N   0  0  0  0  0  0  0  0  0  0  0  0
  -24.6230  -15.9240   20.4090 H   0  0  0  0  0  0  0  0  0  0  0  0
  -26.2540  -15.7170   20.0060 H   0  0  0  0  0  0  0  0  0  0  0  0
  -29.2880  -23.7140   20.3380 C   0  0  0  0  0  3  0  0  0  0  0  0
  -28.1170  -24.8420   20.0400 C   0  0  0  0  0  3  0  0  0  0  0  0
  -28.3260  -26.3510   20.2340 O   0  0  0  0  0  0  0  0  0  0  0  0
  -24.6370  -31.8860   23.2830 C   0  0  0  0  0  0  0  0  0  0  0  0
  -27.2350  -27.2750   20.1860 C   0  0  0  0  0  0  0  0  0  0  0  0
  -23.4370  -30.5170   21.6190 C   0  0  0  0  0  3  0  0  0  0  0  0
  -24.8880  -28.9670   20.1790 C   0  0  0  0  0  0  0  0  0  0  0  0
  -25.9860  -30.8020   21.4560 C   0  0  0  0  0  2  0  0  0  0  0  0
  -26.0630  -29.4250   20.7880 C   0  0  0  0  0  0  0  0  0  0  0  0
  -27.2380  -28.5960   20.7740 C   0  0  0  0  0  3  0  0  0  0  0  0
  -26.0310  -26.8970   19.5520 C   0  0  0  0  0  3  0  0  0  0  0  0
  -24.8800  -27.7130   19.5490 C   0  0  0  0  0  3  0  0  0  0  0  0
  -23.6560  -29.8550   20.2330 C   0  0  0  0  0  2  0  0  0  0  0  0
  -24.7070  -31.0870   22.1760 N   0  0  0  0  0  0  0  0  0  0  0  0
  -23.5510  -32.1620   23.8150 O   0  0  0  0  0  0  0  0  0  0  0  0
  -22.7580  -29.4960   22.5650 C   0  0  0  0  0  0  0  0  0  0  0  0
  -21.4340  -29.3140   22.4190 N   0  0  0  0  0  0  0  0  0  0  0  0
  -23.4260  -28.8700   23.3920 O   0  0  0  0  0  0  0  0  0  0  0  0
  -20.9530  -29.8720   21.7280 H   0  0  0  0  0  0  0  0  0  0  0  0
  -18.0590  -28.0790   22.8570 C   0  0  0  0  0  0  0  0  0  0  0  0
  -20.6100  -28.3650   23.1710 C   0  0  0  0  0  3  0  0  0  0  0  0
  -20.7360  -26.9360   22.5940 C   0  0  0  0  0  2  0  0  0  0  0  0
  -19.6550  -26.6060   21.5580 C   0  0  0  0  0  2  0  0  0  0  0  0
  -18.2610  -26.7350   22.1790 C   0  0  0  0  0  2  0  0  0  0  0  0
  -19.1620  -28.8520   23.3090 C   0  0  0  0  0  0  0  0  0  0  0  0
  -18.9190  -30.1090   23.9040 C   0  0  0  0  0  3  0  0  0  0  0  0
  -17.6060  -30.5950   24.0510 C   0  0  0  0  0  3  0  0  0  0  0  0
  -16.5160  -29.8200   23.6140 C   0  0  0  0  0  3  0  0  0  0  0  0
  -16.7450  -28.5640   23.0230 C   0  0  0  0  0  3  0  0  0  0  0  0
  -25.9160  -32.5080   23.9210 C   0  0  0  0  0  3  0  0  0  0  0  0
  -25.6140  -33.9080   24.2540 N   0  0  0  0  0  0  0  0  0  0  0  0
  -25.9300  -34.9610   23.4880 C   0  0  0  0  0  0  0  0  0  0  0  0
  -26.5740  -34.8550   22.4410 O   0  0  0  0  0  0  0  0  0  0  0  0
  -25.0360  -34.0640   25.0680 H   0  0  0  0  0  0  0  0  0  0  0  0
  -24.1830  -36.7500   23.1960 C   0  0  0  0  0  1  0  0  0  0  0  0
  -25.4590  -36.3520   23.9560 C   0  0  0  0  0  3  0  0  0  0  0  0
  -27.6180  -37.2570   24.6960 C   0  0  0  0  0  1  0  0  0  0  0  0
  -26.4820  -37.4080   23.7910 N   0  0  0  0  0  0  0  0  0  0  0  0
  -26.0780  -38.3280   23.9390 H   0  0  0  0  0  0  0  0  0  0  0  0
  -26.4100  -31.7310   25.2040 C   0  0  1  0  0  0  0  0  0  0  0  0
  -25.3010  -31.5020   26.2590 C   0  0  0  0  0  1  0  0  0  0  0  0
  -26.9850  -30.3490   24.8220 C   0  0  0  0  0  1  0  0  0  0  0  0
  -27.5580  -32.5150   25.8820 C   0  0  0  0  0  1  0  0  0  0  0  0
  1  5  1  0
  1  2  2  0
  2  3  1  0
  4  3  2  0
  5 46  1  0
  5  4  1  0
  6 17  1  0
  7 12  1  0
  8  9  1  0
  8  7  1  0
 10  9  1  0
 10 21  1  0
 10 11  1  0
 12  6  1  0
 12 11  1  0
 13  6  2  0
 15 16  1  0
 15 17  1  0
 16  2  1  0
 16 14  1  0
 17 14  1  0
 18 19  2  0
 19 38  1  0
 20 19  1  0
 20 23  1  0
 21 18  1  0
 21 22  1  0
 22 20  2  0
 23 24  1  0
 24 25  2  0
 26 29  1  0
 26 25  1  0
 27 26  2  0
 28 27  1  0
 28 23  2  0
 29 30  1  0
 30 31  1  0
 31 32  2  0
 33 32  1  0
 33 37  1  0
 34 33  2  0
 35 30  2  0
 35 34  1  0
 36 35  1  0
 38 39  1  0
 39 42  1  0
 39 41  1  0
 40 38  2  0
 43 44  1  0
 43 18  1  0
 45 43  1  0
 47 48  1  0
 47 46  2  0
 49 60  2  0
 50 48  1  0
 50 55  1  0
 51 59  1  0
 51 61  1  0
 52 58  1  0
 52 54  1  0
 53 59  1  0
 54 53  1  0
 55 54  2  0
 56 50  2  0
 57 56  1  0
 57 52  2  0
 58 51  1  0
 59 49  1  0
 61 63  2  0
 62 61  1  0
 64 62  1  0
 65 74  2  0
 65 70  1  0
 66 62  1  0
 66 70  1  0
 67 66  1  0
 68 69  1  0
 68 67  1  0
 69 65  1  0
 70 71  2  0
 71 72  1  0
 73 72  2  0
 74 73  1  0
 75 49  1  0
 75 76  1  0
 75 85  1  0
 76 79  1  0
 77 81  1  0
 77 76  1  0
 78 77  2  0
 81 80  1  0
 83 84  1  0
 83 81  1  0
 83 82  1  0
 85 88  1  1
 85 86  1  0
 87 85  1  0
M  ISO  4   6 100  17 100  47 101  48 101
M  END
>  <TORSDO>  (42) 
F 18

>  <SCORE>  (42) 
-14.611

>  <name>  (42) 
41

>  <ligand_id>  (42) 
41

>  <original_smiles>  (42) 
[H]c1c([H])c([H])c2c(c1[H])C([H])([H])C([H])([H])C([H])([H])C2([H])N([H])C(=O)C1([H])N(C(=O)C([H])(N([H])C(=O)C([H])(N([H])C([H])([H])[H])C([H])([H])[H])C(C([H])([H])[H])(C([H])([H])[H])C([H])([H])[H])C([H])([H])c2c([H])c(OC([H])([H])C([H])([H])n3nnc(C4([H])C([H])([H])N(C(=O)N5C([H])([H])C([H])([H])C([H])([H])C([H])(n6nc(-c7c([H])c([H])c(Oc8c([H])c([H])c(F)c([H])c8F)c([H])c7[H])c(C(=O)N([H])[H])c6N([H])[H])C5([H])[H])C4([H])[H])c3[H])c([H])c([H])c2C1([H])[H]

>  <smiles>  (42) 
[H]c1c([H])c([H])c2c(c1[H])C([H])([H])C([H])([H])C([H])([H])C2([H])N([H])C(=O)C1([H])N(C(=O)C([H])(N([H])C(=O)C([H])(N([H])C([H])([H])[H])C([H])([H])[H])C(C([H])([H])[H])(C([H])([H])[H])C([H])([H])[H])C([H])([H])c2c([H])c(OC([H])([H])C([H])([H])n3nnc(C4([H])C([H])([H])N(C(=O)N5C([H])([H])C([H])([H])C([H])([H])C([H])(n6nc(-c7c([H])c([H])c(Oc8c([H])c([H])c(F)c([H])c8F)c([H])c7[H])c(C(=O)N([H])[H])c6N([H])[H])C5([H])[H])C4([H])[H])c3[H])c([H])c([H])c2C1([H])[H]

$$$$
42:0:0
     RDKit          3D

 98108  0  0  1  0  0  0  0  0999 V2000
  -33.1740  -22.7500   18.9320 C   0  0  0  0  0  3  0  0  0  0  0  0
  -33.3000  -21.4050   19.3120 C   0  0  0  0  0  0  0  0  0  0  0  0
  -32.1410  -20.8060   19.8530 C   0  0  0  0  0  0  0  0  0  0  0  0
  -31.0060  -22.7620   19.6060 C   0  0  0  0  0  0  0  0  0  0  0  0
  -32.0240  -23.4250   19.0860 N   0  0  0  0  0  0  0  0  0  0  0  0
  -30.9890  -21.4980   19.9870 N   0  0  0  0  0  0  0  0  0  0  0  0
  -29.8290  -23.4310   19.7680 N   0  0  0  0  0  0  0  0  0  0  0  0
  -29.1150  -22.9020   20.2520 H   0  0  0  0  0  0  0  0  0  0  0  0
  -35.3810  -20.1070   20.2650 C   0  0  0  0  0  2  0  0  0  0  0  0
  -35.9230  -21.2860   19.4930 C   0  0  0  0  0  2  0  0  0  0  0  0
  -34.5960  -20.6730   19.1040 C   0  0  0  0  0  3  0  0  0  0  0  0
  -32.1120  -19.3520   20.2980 C   0  0  0  0  0  2  0  0  0  0  0  0
  -30.7570  -18.7770   20.2250 N   0  0  0  0  0  4  0  0  0  0  0  0
  -30.1970  -19.2150   20.9380 H   0  0  0  0  0  0  0  0  0  0  0  0
  -30.3880  -19.0900   19.3410 H   0  0  0  0  0  0  0  0  0  0  0  0
  -30.7170  -14.4180   20.5180 C   0  0  0  0  0  0  0  0  0  0  0  0
  -30.3280  -12.2840   19.3770 C   0  0  0  0  0  2  0  0  0  0  0  0
  -29.4050  -12.5210   18.1660 C   0  0  0  0  0  2  0  0  0  0  0  0
  -27.9260  -12.4120   18.5900 C   0  0  0  0  0  2  0  0  0  0  0  0
  -27.5950  -13.2470   19.8570 C   0  0  0  0  0  3  0  0  0  0  0  0
  -28.6480  -13.0360   20.9690 C   0  0  0  0  0  2  0  0  0  0  0  0
  -29.9790  -13.2850   20.3960 N   0  0  0  0  0  0  0  0  0  0  0  0
  -31.8520  -14.5270   20.0510 O   0  0  0  0  0  0  0  0  0  0  0  0
  -30.8890  -16.6180   21.6500 C   0  0  0  0  0  2  0  0  0  0  0  0
  -29.4390  -16.5270   20.2160 C   0  0  0  0  0  2  0  0  0  0  0  0
  -30.7560  -17.2950   20.2860 C   0  0  0  0  0  3  0  0  0  0  0  0
  -30.1060  -15.4990   21.0590 N   0  0  0  0  0  0  0  0  0  0  0  0
  -25.1950  -13.8570   20.5660 C   0  0  0  0  0  0  0  0  0  0  0  0
  -24.1250  -13.0870   20.9320 C   0  0  0  0  0  0  0  0  0  0  0  0
  -24.5850  -11.7330   20.9050 C   0  0  0  0  0  0  0  0  0  0  0  0
  -26.2400  -12.9740   20.3370 N   0  0  0  0  0  0  0  0  0  0  0  0
  -25.8760  -11.6930   20.5990 N   0  0  0  0  0  0  0  0  0  0  0  0
  -23.8560  -10.4720   21.0950 C   0  0  0  0  0  0  0  0  0  0  0  0
  -24.3000   -9.4930   22.0110 C   0  0  0  0  0  3  0  0  0  0  0  0
  -23.5710   -8.2970   22.1900 C   0  0  0  0  0  3  0  0  0  0  0  0
  -22.3850   -8.0730   21.4530 C   0  0  0  0  0  0  0  0  0  0  0  0
  -21.9590   -9.0400   20.5260 C   0  0  0  0  0  3  0  0  0  0  0  0
  -22.6890  -10.2270   20.3450 C   0  0  0  0  0  3  0  0  0  0  0  0
  -21.6270   -6.9290   21.5390 O   0  0  0  0  0  0  0  0  0  0  0  0
  -21.6110   -6.1620   22.6770 C   0  0  0  0  0  0  0  0  0  0  0  0
  -21.2370   -6.6970   23.9300 C   0  0  0  0  0  3  0  0  0  0  0  0
  -21.1640   -5.8570   25.0600 C   0  0  0  0  0  3  0  0  0  0  0  0
  -21.4600   -4.4860   24.9380 C   0  0  0  0  0  0  0  0  0  0  0  0
  -21.8280   -3.9510   23.6910 C   0  0  0  0  0  3  0  0  0  0  0  0
  -21.9010   -4.7880   22.5640 C   0  0  0  0  0  0  0  0  0  0  0  0
  -22.2360   -4.2640   21.3590 F   0  0  0  0  0  0  0  0  0  0  0  0
  -21.3830   -3.6780   26.0220 F   0  0  0  0  0  0  0  0  0  0  0  0
  -22.7280  -13.5660   21.2020 C   0  0  0  0  0  0  0  0  0  0  0  0
  -21.9960  -12.8740   22.0690 N   0  0  0  0  0  0  0  0  0  0  0  0
  -22.2910  -14.5910   20.6790 O   0  0  0  0  0  0  0  0  0  0  0  0
  -22.3610  -12.0490   22.5190 H   0  0  0  0  0  0  0  0  0  0  0  0
  -21.0570  -13.1780   22.2880 H   0  0  0  0  0  0  0  0  0  0  0  0
  -25.3640  -15.2270   20.3890 N   0  0  0  0  0  0  0  0  0  0  0  0
  -24.6050  -15.8890   20.5090 H   0  0  0  0  0  0  0  0  0  0  0  0
  -26.2250  -15.6620   20.0850 H   0  0  0  0  0  0  0  0  0  0  0  0
  -29.7870  -24.8760   19.9440 C   0  0  0  0  0  2  0  0  0  0  0  0
  -28.3930  -25.4340   19.6880 C   0  0  0  0  0  2  0  0  0  0  0  0
  -28.4030  -26.7940   20.0880 O   0  0  0  0  0  0  0  0  0  0  0  0
  -24.6140  -31.8780   23.2520 C   0  0  0  0  0  0  0  0  0  0  0  0
  -27.2050  -27.4670   20.1070 C   0  0  0  0  0  0  0  0  0  0  0  0
  -23.3810  -30.4880   21.6180 C   0  0  0  0  0  3  0  0  0  0  0  0
  -24.8090  -28.9580   20.1680 C   0  0  0  0  0  0  0  0  0  0  0  0
  -25.9030  -30.8460   21.3900 C   0  0  0  0  0  2  0  0  0  0  0  0
  -25.9740  -29.4800   20.7440 C   0  0  0  0  0  0  0  0  0  0  0  0
  -27.1720  -28.7390   20.7140 C   0  0  0  0  0  3  0  0  0  0  0  0
  -26.0170  -26.9480   19.5380 C   0  0  0  0  0  3  0  0  0  0  0  0
  -24.8230  -27.6890   19.5680 C   0  0  0  0  0  3  0  0  0  0  0  0
  -23.5700  -29.8180   20.2310 C   0  0  0  0  0  2  0  0  0  0  0  0
  -24.6510  -31.0840   22.1450 N   0  0  0  0  0  0  0  0  0  0  0  0
  -23.5420  -32.1510   23.8070 O   0  0  0  0  0  0  0  0  0  0  0  0
  -22.7420  -29.4620   22.5790 C   0  0  0  0  0  0  0  0  0  0  0  0
  -21.4180  -29.2760   22.4600 N   0  0  0  0  0  0  0  0  0  0  0  0
  -23.4340  -28.8350   23.3880 O   0  0  0  0  0  0  0  0  0  0  0  0
  -20.9220  -29.8360   21.7800 H   0  0  0  0  0  0  0  0  0  0  0  0
  -18.0510  -28.0690   22.9570 C   0  0  0  0  0  0  0  0  0  0  0  0
  -20.6070  -28.3370   23.2330 C   0  0  0  0  0  3  0  0  0  0  0  0
  -20.7160  -26.9050   22.6600 C   0  0  0  0  0  2  0  0  0  0  0  0
  -19.6170  -26.5760   21.6460 C   0  0  0  0  0  2  0  0  0  0  0  0
  -18.2340  -26.7180   22.2880 C   0  0  0  0  0  2  0  0  0  0  0  0
  -19.1660  -28.8360   23.3870 C   0  0  0  0  0  0  0  0  0  0  0  0
  -18.9440  -30.1020   23.9720 C   0  0  0  0  0  3  0  0  0  0  0  0
  -17.6370  -30.6010   24.1330 C   0  0  0  0  0  3  0  0  0  0  0  0
  -16.5350  -29.8300   23.7210 C   0  0  0  0  0  3  0  0  0  0  0  0
  -16.7440  -28.5670   23.1390 C   0  0  0  0  0  3  0  0  0  0  0  0
  -25.9120  -32.4990   23.8560 C   0  0  0  0  0  3  0  0  0  0  0  0
  -25.6120  -33.8940   24.2040 N   0  0  0  0  0  0  0  0  0  0  0  0
  -25.9270  -34.9510   23.4440 C   0  0  0  0  0  0  0  0  0  0  0  0
  -26.5740  -34.8550   22.3960 O   0  0  0  0  0  0  0  0  0  0  0  0
  -25.0330  -34.0420   25.0180 H   0  0  0  0  0  0  0  0  0  0  0  0
  -24.1840  -36.7370   23.1460 C   0  0  0  0  0  1  0  0  0  0  0  0
  -25.4490  -36.3340   23.9200 C   0  0  0  0  0  3  0  0  0  0  0  0
  -27.6040  -37.2200   24.6920 C   0  0  0  0  0  1  0  0  0  0  0  0
  -26.4750  -37.3910   23.7830 N   0  0  0  0  0  0  0  0  0  0  0  0
  -26.0690  -38.3090   23.9490 H   0  0  0  0  0  0  0  0  0  0  0  0
  -26.4520  -31.7110   25.1140 C   0  0  1  0  0  0  0  0  0  0  0  0
  -25.3780  -31.4610   26.1980 C   0  0  0  0  0  1  0  0  0  0  0  0
  -27.0240  -30.3380   24.6910 C   0  0  0  0  0  1  0  0  0  0  0  0
  -27.6150  -32.4960   25.7630 C   0  0  0  0  0  1  0  0  0  0  0  0
  1  5  1  0
  1  2  2  0
  2  3  1  0
  3  6  2  0
  3 12  1  0
  4  7  1  0
  4  6  1  0
  5  4  2  0
  7 56  1  0
  7  8  1  0
 10  9  1  0
 11  2  1  0
 11 10  1  0
 11  9  1  0
 13 12  1  0
 13 14  1  0
 15 13  1  0
 16 27  1  0
 17 22  1  0
 18 19  1  0
 18 17  1  0
 20 19  1  0
 20 31  1  0
 20 21  1  0
 22 16  1  0
 22 21  1  0
 23 16  2  0
 25 26  1  0
 25 27  1  0
 26 13  1  0
 26 24  1  0
 27 24  1  0
 28 29  2  0
 29 48  1  0
 30 29  1  0
 30 33  1  0
 31 28  1  0
 31 32  1  0
 32 30  2  0
 33 34  1  0
 34 35  2  0
 36 39  1  0
 36 35  1  0
 37 36  2  0
 38 37  1  0
 38 33  2  0
 39 40  1  0
 40 41  1  0
 41 42  2  0
 43 42  1  0
 43 47  1  0
 44 43  2  0
 45 40  2  0
 45 44  1  0
 46 45  1  0
 48 49  1  0
 49 52  1  0
 49 51  1  0
 50 48  2  0
 53 54  1  0
 53 28  1  0
 55 53  1  0
 57 56  1  0
 57 58  1  0
 58 60  1  0
 59 70  2  0
 60 65  1  0
 61 69  1  0
 61 71  1  0
 62 68  1  0
 62 64  1  0
 63 69  1  0
 64 63  1  0
 65 64  2  0
 66 67  1  0
 66 60  2  0
 67 62  2  0
 68 61  1  0
 69 59  1  0
 71 73  2  0
 72 71  1  0
 74 72  1  0
 75 84  2  0
 75 80  1  0
 76 72  1  0
 76 80  1  0
 77 76  1  0
 78 79  1  0
 78 77  1  0
 79 75  1  0
 80 81  2  0
 81 82  1  0
 83 82  2  0
 84 83  1  0
 85 59  1  0
 85 86  1  0
 85 95  1  0
 86 89  1  0
 87 91  1  0
 87 86  1  0
 88 87  2  0
 91 90  1  0
 93 91  1  0
 93 94  1  0
 93 92  1  0
 95 98  1  1
 95 96  1  0
 97 95  1  0
M  ISO  4  16 100  27 100  57 101  58 101
M  END
>  <TORSDO>  (43) 
F 21

>  <SCORE>  (43) 
-13.559

>  <name>  (43) 
42

>  <ligand_id>  (43) 
42

>  <original_smiles>  (43) 
[H]c1nc(N([H])C([H])([H])C([H])([H])Oc2c([H])c([H])c3c(c2[H])C([H])([H])N(C(=O)C([H])(N([H])C(=O)C([H])(N([H])C([H])([H])[H])C([H])([H])[H])C(C([H])([H])[H])(C([H])([H])[H])C([H])([H])[H])C([H])(C(=O)N([H])C2([H])c4c([H])c([H])c([H])c([H])c4C([H])([H])C([H])([H])C2([H])[H])C3([H])[H])nc(C([H])([H])[N+]([H])([H])C2([H])C([H])([H])N(C(=O)N3C([H])([H])C([H])([H])C([H])([H])C([H])(n4nc(-c5c([H])c([H])c(Oc6c([H])c([H])c(F)c([H])c6F)c([H])c5[H])c(C(=O)N([H])[H])c4N([H])[H])C3([H])[H])C2([H])[H])c1C1([H])C([H])([H])C1([H])[H]

>  <smiles>  (43) 
[H]c1nc(N([H])C([H])([H])C([H])([H])Oc2c([H])c([H])c3c(c2[H])C([H])([H])N(C(=O)C([H])(N([H])C(=O)C([H])(N([H])C([H])([H])[H])C([H])([H])[H])C(C([H])([H])[H])(C([H])([H])[H])C([H])([H])[H])C([H])(C(=O)N([H])C2([H])c4c([H])c([H])c([H])c([H])c4C([H])([H])C([H])([H])C2([H])[H])C3([H])[H])nc(C([H])([H])[N+]([H])([H])C2([H])C([H])([H])N(C(=O)N3C([H])([H])C([H])([H])C([H])([H])C([H])(n4nc(-c5c([H])c([H])c(Oc6c([H])c([H])c(F)c([H])c6F)c([H])c5[H])c(C(=O)N([H])[H])c4N([H])[H])C3([H])[H])C2([H])[H])c1C1([H])C([H])([H])C1([H])[H]

$$$$
43:0:0
     RDKit          3D

 95104  0  0  1  0  0  0  0  0999 V2000
  -28.0940  -22.2190   18.0930 C   0  0  0  0  0  2  0  0  0  0  0  0
  -27.3790  -21.1670   18.9650 C   0  0  0  0  0  3  0  0  0  0  0  0
  -28.4700  -21.4390   20.0190 C   0  0  0  0  0  3  0  0  0  0  0  0
  -28.6730  -22.7900   19.3240 N   0  0  0  0  0  0  0  0  0  0  0  0
  -25.0450  -21.7730   18.3220 C   0  0  0  0  0  1  0  0  0  0  0  0
  -25.9930  -21.4710   19.4110 N   0  0  0  0  0  4  0  0  0  0  0  0
  -25.9880  -22.2230   20.0790 H   0  0  0  0  0  0  0  0  0  0  0  0
  -25.6310  -20.6640   19.8920 H   0  0  0  0  0  0  0  0  0  0  0  0
  -29.7370  -20.4620   19.9810 C   0  0  0  0  0  2  0  0  0  0  0  0
  -30.7530  -14.7760   20.6380 C   0  0  0  0  0  0  0  0  0  0  0  0
  -30.4660  -12.5050   19.6650 C   0  0  0  0  0  2  0  0  0  0  0  0
  -29.5900  -12.5510   18.4010 C   0  0  0  0  0  2  0  0  0  0  0  0
  -28.1140  -12.3500   18.7860 C   0  0  0  0  0  2  0  0  0  0  0  0
  -27.6720  -13.2920   19.9330 C   0  0  0  0  0  3  0  0  0  0  0  0
  -28.6940  -13.3080   21.0990 C   0  0  0  0  0  2  0  0  0  0  0  0
  -30.0210  -13.6130   20.5410 N   0  0  0  0  0  0  0  0  0  0  0  0
  -31.9600  -14.7530   20.3990 O   0  0  0  0  0  0  0  0  0  0  0  0
  -30.9120  -17.0730   21.6130 C   0  0  0  0  0  2  0  0  0  0  0  0
  -28.9460  -16.5340   20.2550 C   0  0  0  0  0  2  0  0  0  0  0  0
  -30.9790  -18.4680   20.9060 C   0  0  0  0  0  2  0  0  0  0  0  0
  -28.9170  -18.0390   19.7660 C   0  0  0  0  0  2  0  0  0  0  0  0
  -30.1630  -16.0010   20.9090 N   0  0  0  0  0  0  0  0  0  0  0  0
  -29.6450  -19.0540   20.5910 N   0  0  2  0  0  4  0  0  0  0  0  0
  -29.1760  -19.1500   21.4780 H   0  0  0  0  0  0  0  0  0  0  0  0
  -25.2600  -13.8960   20.5580 C   0  0  0  0  0  0  0  0  0  0  0  0
  -24.1830  -13.1230   20.8890 C   0  0  0  0  0  0  0  0  0  0  0  0
  -24.6540  -11.7740   20.9020 C   0  0  0  0  0  0  0  0  0  0  0  0
  -26.3170  -13.0130   20.3830 N   0  0  0  0  0  0  0  0  0  0  0  0
  -25.9580  -11.7360   20.6570 N   0  0  0  0  0  0  0  0  0  0  0  0
  -23.9310  -10.5120   21.0710 C   0  0  0  0  0  0  0  0  0  0  0  0
  -24.3270   -9.5640   22.0390 C   0  0  0  0  0  3  0  0  0  0  0  0
  -23.6020   -8.3640   22.2000 C   0  0  0  0  0  3  0  0  0  0  0  0
  -22.4700   -8.1050   21.3940 C   0  0  0  0  0  0  0  0  0  0  0  0
  -22.0960   -9.0410   20.4140 C   0  0  0  0  0  3  0  0  0  0  0  0
  -22.8190  -10.2330   20.2510 C   0  0  0  0  0  3  0  0  0  0  0  0
  -21.7200   -6.9570   21.4640 O   0  0  0  0  0  0  0  0  0  0  0  0
  -21.6210   -6.2320   22.6240 C   0  0  0  0  0  0  0  0  0  0  0  0
  -21.1210   -6.8000   23.8170 C   0  0  0  0  0  3  0  0  0  0  0  0
  -20.9720   -6.0000   24.9680 C   0  0  0  0  0  3  0  0  0  0  0  0
  -21.3130   -4.6350   24.9270 C   0  0  0  0  0  0  0  0  0  0  0  0
  -21.8040   -4.0680   23.7370 C   0  0  0  0  0  3  0  0  0  0  0  0
  -21.9570   -4.8650   22.5890 C   0  0  0  0  0  0  0  0  0  0  0  0
  -22.4120   -4.3070   21.4410 F   0  0  0  0  0  0  0  0  0  0  0  0
  -21.1620   -3.8640   26.0300 F   0  0  0  0  0  0  0  0  0  0  0  0
  -22.7710  -13.5940   21.0830 C   0  0  0  0  0  0  0  0  0  0  0  0
  -22.0050  -12.9050   21.9180 N   0  0  0  0  0  0  0  0  0  0  0  0
  -22.3560  -14.6130   20.5300 O   0  0  0  0  0  0  0  0  0  0  0  0
  -22.3560  -12.0870   22.3960 H   0  0  0  0  0  0  0  0  0  0  0  0
  -21.0520  -13.1980   22.0920 H   0  0  0  0  0  0  0  0  0  0  0  0
  -25.4250  -15.2660   20.3770 N   0  0  0  0  0  0  0  0  0  0  0  0
  -24.6450  -15.9080   20.4560 H   0  0  0  0  0  0  0  0  0  0  0  0
  -26.2880  -15.7120   20.1010 H   0  0  0  0  0  0  0  0  0  0  0  0
  -27.9060  -24.0800   19.5710 C   0  0  0  0  0  2  0  0  0  0  0  0
  -28.4800  -25.2520   20.4680 C   0  0  0  0  0  2  0  0  0  0  0  0
  -28.3360  -26.6730   20.0660 O   0  0  0  0  0  0  0  0  0  0  0  0
  -24.5290  -31.9250   23.2380 C   0  0  0  0  0  0  0  0  0  0  0  0
  -27.1500  -27.4130   20.1450 C   0  0  0  0  0  0  0  0  0  0  0  0
  -23.3190  -30.5360   21.5870 C   0  0  0  0  0  3  0  0  0  0  0  0
  -24.7640  -28.9830   20.1620 C   0  0  0  0  0  0  0  0  0  0  0  0
  -25.8500  -30.8710   21.3900 C   0  0  0  0  0  2  0  0  0  0  0  0
  -25.9310  -29.4910   20.7470 C   0  0  0  0  0  0  0  0  0  0  0  0
  -27.1270  -28.7180   20.7210 C   0  0  0  0  0  3  0  0  0  0  0  0
  -25.9580  -26.9340   19.5690 C   0  0  0  0  0  3  0  0  0  0  0  0
  -24.7770  -27.7090   19.5670 C   0  0  0  0  0  3  0  0  0  0  0  0
  -23.5260  -29.8520   20.2080 C   0  0  0  0  0  2  0  0  0  0  0  0
  -24.5850  -31.1310   22.1290 N   0  0  0  0  0  0  0  0  0  0  0  0
  -23.4480  -32.1920   23.7800 O   0  0  0  0  0  0  0  0  0  0  0  0
  -22.6590  -29.5240   22.5520 C   0  0  0  0  0  0  0  0  0  0  0  0
  -21.3360  -29.3510   22.4280 N   0  0  0  0  0  0  0  0  0  0  0  0
  -23.3380  -28.8930   23.3660 O   0  0  0  0  0  0  0  0  0  0  0  0
  -20.8540  -29.9120   21.7430 H   0  0  0  0  0  0  0  0  0  0  0  0
  -17.9670  -28.1290   22.9460 C   0  0  0  0  0  0  0  0  0  0  0  0
  -20.5200  -28.4100   23.1970 C   0  0  0  0  0  3  0  0  0  0  0  0
  -20.6240  -26.9780   22.6290 C   0  0  0  0  0  2  0  0  0  0  0  0
  -19.5310  -26.6500   21.6110 C   0  0  0  0  0  2  0  0  0  0  0  0
  -18.1500  -26.7820   22.2610 C   0  0  0  0  0  2  0  0  0  0  0  0
  -19.0810  -28.9060   23.3610 C   0  0  0  0  0  0  0  0  0  0  0  0
  -18.8590  -30.1660   23.9560 C   0  0  0  0  0  3  0  0  0  0  0  0
  -17.5520  -30.6500   24.1450 C   0  0  0  0  0  3  0  0  0  0  0  0
  -16.4490  -29.8730   23.7480 C   0  0  0  0  0  3  0  0  0  0  0  0
  -16.6600  -28.6180   23.1490 C   0  0  0  0  0  3  0  0  0  0  0  0
  -25.8120  -32.5530   23.8640 C   0  0  0  0  0  3  0  0  0  0  0  0
  -26.3180  -31.7910   25.1500 C   0  0  1  0  0  0  0  0  0  0  0  0
  -25.2230  -31.5760   26.2220 C   0  0  0  0  0  1  0  0  0  0  0  0
  -26.8970  -30.4070   24.7710 C   0  0  0  0  0  1  0  0  0  0  0  0
  -27.4700  -32.5870   25.8070 C   0  0  0  0  0  1  0  0  0  0  0  0
  -25.5090  -33.9560   24.1840 N   0  0  0  0  0  0  0  0  0  0  0  0
  -25.8680  -35.0030   23.4280 C   0  0  0  0  0  0  0  0  0  0  0  0
  -26.5550  -34.8870   22.4090 O   0  0  0  0  0  0  0  0  0  0  0  0
  -24.8850  -34.1180   24.9610 H   0  0  0  0  0  0  0  0  0  0  0  0
  -24.1800  -36.8260   23.0160 C   0  0  0  0  0  1  0  0  0  0  0  0
  -25.3900  -36.4030   23.8630 C   0  0  0  0  0  3  0  0  0  0  0  0
  -27.5150  -37.2530   24.7540 C   0  0  0  0  0  1  0  0  0  0  0  0
  -26.4460  -37.4370   23.7770 N   0  0  0  0  0  0  0  0  0  0  0  0
  -26.0530  -38.3660   23.9110 H   0  0  0  0  0  0  0  0  0  0  0  0
  1  2  1  0
  1  4  1  0
  2  6  1  0
  2  3  1  0
  3  9  1  0
  4 53  1  0
  4  3  1  0
  5  6  1  0
  6  8  1  0
  6  7  1  0
  9 23  1  0
 10 22  1  0
 11 16  1  0
 12 13  1  0
 12 11  1  0
 14 13  1  0
 14 28  1  0
 14 15  1  0
 16 10  1  0
 16 15  1  0
 17 10  2  0
 19 22  1  0
 20 18  1  0
 21 19  1  0
 21 23  1  0
 22 18  1  0
 23 20  1  0
 23 24  1  1
 25 26  2  0
 26 27  1  0
 26 45  1  0
 27 30  1  0
 28 25  1  0
 28 29  1  0
 29 27  2  0
 30 31  1  0
 31 32  2  0
 33 36  1  0
 33 32  1  0
 34 33  2  0
 35 34  1  0
 35 30  2  0
 36 37  1  0
 37 38  1  0
 38 39  2  0
 40 39  1  0
 40 44  1  0
 41 40  2  0
 42 37  2  0
 42 41  1  0
 43 42  1  0
 45 46  1  0
 46 49  1  0
 46 48  1  0
 47 45  2  0
 50 51  1  0
 50 25  1  0
 52 50  1  0
 53 54  1  0
 55 57  1  0
 55 54  1  0
 56 67  2  0
 57 62  1  0
 58 66  1  0
 58 68  1  0
 59 65  1  0
 59 61  1  0
 60 66  1  0
 61 60  1  0
 62 61  2  0
 63 57  2  0
 64 63  1  0
 64 59  2  0
 65 58  1  0
 66 56  1  0
 68 70  2  0
 69 68  1  0
 71 69  1  0
 72 81  2  0
 72 77  1  0
 73 69  1  0
 73 77  1  0
 74 73  1  0
 75 76  1  0
 75 74  1  0
 76 72  1  0
 77 78  2  0
 78 79  1  0
 80 79  2  0
 81 80  1  0
 82 56  1  0
 82 87  1  0
 82 83  1  0
 83 86  1  1
 83 84  1  0
 85 83  1  0
 87 90  1  0
 88 92  1  0
 88 87  1  0
 89 88  2  0
 92 91  1  0
 94 92  1  0
 94 95  1  0
 94 93  1  0
M  ISO  4  10 100  22 100  54 101  55 101
M  END
>  <TORSDO>  (44) 
F 20

>  <SCORE>  (44) 
-14.044

>  <name>  (44) 
43

>  <ligand_id>  (44) 
43

>  <original_smiles>  (44) 
[H]c1c([H])c([H])c2c(c1[H])C([H])([H])C([H])([H])C([H])([H])C2([H])N([H])C(=O)C1([H])N(C(=O)C([H])(N([H])C(=O)C([H])(N([H])C([H])([H])[H])C([H])([H])[H])C(C([H])([H])[H])(C([H])([H])[H])C([H])([H])[H])C([H])([H])c2c([H])c(OC([H])([H])C([H])([H])N3C([H])([H])C([H])([N+]([H])([H])C([H])([H])[H])C3([H])C([H])([H])[N+]3([H])C([H])([H])C([H])([H])N(C(=O)N4C([H])([H])C([H])([H])C([H])([H])C([H])(n5nc(-c6c([H])c([H])c(Oc7c([H])c([H])c(F)c([H])c7F)c([H])c6[H])c(C(=O)N([H])[H])c5N([H])[H])C4([H])[H])C([H])([H])C3([H])[H])c([H])c([H])c2C1([H])[H]

>  <smiles>  (44) 
[H]c1c([H])c([H])c2c(c1[H])C([H])([H])C([H])([H])C([H])([H])C2([H])N([H])C(=O)C1([H])N(C(=O)C([H])(N([H])C(=O)C([H])(N([H])C([H])([H])[H])C([H])([H])[H])C(C([H])([H])[H])(C([H])([H])[H])C([H])([H])[H])C([H])([H])c2c([H])c(OC([H])([H])C([H])([H])N3C([H])([H])C([H])([N+]([H])([H])C([H])([H])[H])C3([H])C([H])([H])[N+]3([H])C([H])([H])C([H])([H])N(C(=O)N4C([H])([H])C([H])([H])C([H])([H])C([H])(n5nc(-c6c([H])c([H])c(Oc7c([H])c([H])c(F)c([H])c7F)c([H])c6[H])c(C(=O)N([H])[H])c5N([H])[H])C4([H])[H])C([H])([H])C3([H])[H])c([H])c([H])c2C1([H])[H]

$$$$
44:0:0
     RDKit          3D

 96105  0  0  1  0  0  0  0  0999 V2000
  -28.7070  -18.9750   18.1210 C   0  0  0  0  0  3  0  0  0  0  0  0
  -29.2590  -17.7260   17.8100 C   0  0  0  0  0  3  0  0  0  0  0  0
  -28.9650  -19.5150   19.3830 C   0  0  0  0  0  0  0  0  0  0  0  0
  -30.2410  -17.6540   19.8640 C   0  0  0  0  0  0  0  0  0  0  0  0
  -27.9290  -20.8180   21.8150 C   0  0  0  0  0  2  0  0  0  0  0  0
  -27.1550  -20.5250   20.5300 C   0  0  0  0  0  2  0  0  0  0  0  0
  -29.0360  -21.4240   20.9440 C   0  0  0  0  0  3  0  0  0  0  0  0
  -30.0190  -17.0590   18.6970 N   0  0  0  0  0  0  0  0  0  0  0  0
  -29.7480  -18.8240   20.2300 N   0  0  0  0  0  0  0  0  0  0  0  0
  -28.3960  -20.7580   19.7940 N   0  0  0  0  0  0  0  0  0  0  0  0
  -31.0500  -16.9210   20.9250 C   0  0  0  0  0  2  0  0  0  0  0  0
  -31.2630  -14.5390   20.3830 C   0  0  0  0  0  0  0  0  0  0  0  0
  -30.9120  -12.3480   19.3330 C   0  0  0  0  0  2  0  0  0  0  0  0
  -29.9930  -12.5110   18.1030 C   0  0  0  0  0  2  0  0  0  0  0  0
  -28.5070  -12.4410   18.5080 C   0  0  0  0  0  2  0  0  0  0  0  0
  -28.1740  -13.3630   19.7110 C   0  0  0  0  0  3  0  0  0  0  0  0
  -29.1980  -13.1630   20.8510 C   0  0  0  0  0  2  0  0  0  0  0  0
  -30.5520  -13.3910   20.3000 N   0  0  0  0  0  0  0  0  0  0  0  0
  -32.3620  -14.7070   19.8400 O   0  0  0  0  0  0  0  0  0  0  0  0
  -30.6550  -15.5260   21.0350 N   0  0  0  0  0  0  0  0  0  0  0  0
  -29.7500  -15.3350   21.4340 H   0  0  0  0  0  0  0  0  0  0  0  0
  -25.8000  -14.0920   20.3960 C   0  0  0  0  0  0  0  0  0  0  0  0
  -24.6920  -13.3740   20.7610 C   0  0  0  0  0  0  0  0  0  0  0  0
  -25.0880  -12.0020   20.7370 C   0  0  0  0  0  0  0  0  0  0  0  0
  -26.8030  -13.1600   20.1750 N   0  0  0  0  0  0  0  0  0  0  0  0
  -26.3760  -11.8980   20.4360 N   0  0  0  0  0  0  0  0  0  0  0  0
  -24.3020  -10.7770   20.9290 C   0  0  0  0  0  0  0  0  0  0  0  0
  -24.6810   -9.7990   21.8750 C   0  0  0  0  0  3  0  0  0  0  0  0
  -23.8980   -8.6370   22.0560 C   0  0  0  0  0  3  0  0  0  0  0  0
  -22.7250   -8.4470   21.2860 C   0  0  0  0  0  0  0  0  0  0  0  0
  -22.3670   -9.4130   20.3280 C   0  0  0  0  0  3  0  0  0  0  0  0
  -23.1480  -10.5660   20.1470 C   0  0  0  0  0  3  0  0  0  0  0  0
  -21.9200   -7.3380   21.3710 O   0  0  0  0  0  0  0  0  0  0  0  0
  -21.8070   -6.6170   22.5340 C   0  0  0  0  0  0  0  0  0  0  0  0
  -21.3720   -7.2100   23.7390 C   0  0  0  0  0  3  0  0  0  0  0  0
  -21.2030   -6.4190   24.8940 C   0  0  0  0  0  3  0  0  0  0  0  0
  -21.4600   -5.0350   24.8410 C   0  0  0  0  0  0  0  0  0  0  0  0
  -21.8880   -4.4430   23.6410 C   0  0  0  0  0  3  0  0  0  0  0  0
  -22.0590   -5.2320   22.4910 C   0  0  0  0  0  0  0  0  0  0  0  0
  -22.4520   -4.6520   21.3300 F   0  0  0  0  0  0  0  0  0  0  0  0
  -21.2920   -4.2730   25.9470 F   0  0  0  0  0  0  0  0  0  0  0  0
  -23.3190  -13.9200   21.0240 C   0  0  0  0  0  0  0  0  0  0  0  0
  -22.5520  -13.2650   21.8890 N   0  0  0  0  0  0  0  0  0  0  0  0
  -22.9330  -14.9680   20.5040 O   0  0  0  0  0  0  0  0  0  0  0  0
  -22.8800  -12.4270   22.3430 H   0  0  0  0  0  0  0  0  0  0  0  0
  -21.6290  -13.6160   22.1060 H   0  0  0  0  0  0  0  0  0  0  0  0
  -26.0360  -15.4510   20.2200 N   0  0  0  0  0  0  0  0  0  0  0  0
  -25.3040  -16.1480   20.3160 H   0  0  0  0  0  0  0  0  0  0  0  0
  -26.9200  -15.8400   19.9170 H   0  0  0  0  0  0  0  0  0  0  0  0
  -29.0700  -22.9410   20.7860 C   0  0  0  0  0  2  0  0  0  0  0  0
  -29.7330  -23.3490   19.5270 N   0  0  0  0  0  4  0  0  0  0  0  0
  -29.1290  -23.0670   18.7680 H   0  0  0  0  0  0  0  0  0  0  0  0
  -30.5840  -22.8180   19.4340 H   0  0  0  0  0  0  0  0  0  0  0  0
  -30.0610  -24.7920   19.3980 C   0  0  0  0  0  2  0  0  0  0  0  0
  -28.9530  -25.7050   19.9420 C   0  0  0  0  0  2  0  0  0  0  0  0
  -28.9070  -26.9350   19.2230 O   0  0  0  0  0  0  0  0  0  0  0  0
  -24.7040  -31.3550   22.8390 C   0  0  0  0  0  0  0  0  0  0  0  0
  -27.6800  -27.5410   19.2940 C   0  0  0  0  0  0  0  0  0  0  0  0
  -23.5930  -29.9950   21.0960 C   0  0  0  0  0  3  0  0  0  0  0  0
  -25.1470  -28.7600   19.5000 C   0  0  0  0  0  0  0  0  0  0  0  0
  -26.0580  -30.6340   20.8790 C   0  0  0  0  0  2  0  0  0  0  0  0
  -26.2610  -29.3460   20.1160 C   0  0  0  0  0  0  0  0  0  0  0  0
  -27.5310  -28.7430   20.0180 C   0  0  0  0  0  3  0  0  0  0  0  0
  -26.5540  -26.9720   18.6570 C   0  0  0  0  0  3  0  0  0  0  0  0
  -25.2860  -27.5680   18.7710 C   0  0  0  0  0  3  0  0  0  0  0  0
  -23.8280  -29.4750   19.6520 C   0  0  0  0  0  2  0  0  0  0  0  0
  -24.8020  -30.6710   21.6640 N   0  0  0  0  0  0  0  0  0  0  0  0
  -23.6190  -31.4660   23.4250 O   0  0  0  0  0  0  0  0  0  0  0  0
  -23.0810  -28.8260   21.9660 C   0  0  0  0  0  0  0  0  0  0  0  0
  -21.7850  -28.5070   21.8340 N   0  0  0  0  0  0  0  0  0  0  0  0
  -23.8470  -28.2110   22.7140 O   0  0  0  0  0  0  0  0  0  0  0  0
  -21.2240  -29.0690   21.2090 H   0  0  0  0  0  0  0  0  0  0  0  0
  -18.5750  -26.8920   22.2170 C   0  0  0  0  0  0  0  0  0  0  0  0
  -21.0880  -27.4210   22.5230 C   0  0  0  0  0  3  0  0  0  0  0  0
  -21.3540  -26.0630   21.8330 C   0  0  0  0  0  2  0  0  0  0  0  0
  -20.2920  -25.6960   20.7930 C   0  0  0  0  0  2  0  0  0  0  0  0
  -18.9020  -25.6290   21.4370 C   0  0  0  0  0  2  0  0  0  0  0  0
  -19.6000  -27.7410   22.7120 C   0  0  0  0  0  0  0  0  0  0  0  0
  -19.2400  -28.9220   23.3970 C   0  0  0  0  0  3  0  0  0  0  0  0
  -17.8870  -29.2550   23.5940 C   0  0  0  0  0  3  0  0  0  0  0  0
  -16.8770  -28.4040   23.1140 C   0  0  0  0  0  3  0  0  0  0  0  0
  -17.2210  -27.2240   22.4330 C   0  0  0  0  0  3  0  0  0  0  0  0
  -25.9420  -32.0510   23.4870 C   0  0  0  0  0  3  0  0  0  0  0  0
  -25.5010  -33.3630   23.9790 N   0  0  0  0  0  0  0  0  0  0  0  0
  -25.6870  -34.5190   23.3290 C   0  0  0  0  0  0  0  0  0  0  0  0
  -26.3210  -34.6000   22.2720 O   0  0  0  0  0  0  0  0  0  0  0  0
  -24.9330  -33.3620   24.8140 H   0  0  0  0  0  0  0  0  0  0  0  0
  -23.7570  -36.1270   23.2260 C   0  0  0  0  0  1  0  0  0  0  0  0
  -25.0720  -35.7890   23.9480 C   0  0  0  0  0  3  0  0  0  0  0  0
  -27.1340  -36.8200   24.7900 C   0  0  0  0  0  1  0  0  0  0  0  0
  -25.9770  -36.9580   23.9110 N   0  0  0  0  0  0  0  0  0  0  0  0
  -25.4810  -37.8070   24.1700 H   0  0  0  0  0  0  0  0  0  0  0  0
  -26.5910  -31.2060   24.6480 C   0  0  1  0  0  0  0  0  0  0  0  0
  -25.5780  -30.7390   25.7190 C   0  0  0  0  0  1  0  0  0  0  0  0
  -27.2940  -29.9510   24.0820 C   0  0  0  0  0  1  0  0  0  0  0  0
  -27.6840  -32.0410   25.3570 C   0  0  0  0  0  1  0  0  0  0  0  0
  1  3  1  0
  2  1  2  0
  2  8  1  0
  3 10  1  0
  3  9  2  0
  4  9  1  0
  4 11  1  0
  6  5  1  0
  7 50  1  0
  7  5  1  0
  8  4  2  0
 10  6  1  0
 10  7  1  0
 11 20  1  0
 12 20  1  0
 13 18  1  0
 14 15  1  0
 14 13  1  0
 16 15  1  0
 16 25  1  0
 16 17  1  0
 18 12  1  0
 18 17  1  0
 19 12  2  0
 20 21  1  0
 22 23  2  0
 23 42  1  0
 24 23  1  0
 24 27  1  0
 25 22  1  0
 25 26  1  0
 26 24  2  0
 27 28  1  0
 28 29  2  0
 30 33  1  0
 30 29  1  0
 31 30  2  0
 32 31  1  0
 32 27  2  0
 33 34  1  0
 34 35  1  0
 35 36  2  0
 37 36  1  0
 37 41  1  0
 38 37  2  0
 39 34  2  0
 39 38  1  0
 40 39  1  0
 42 43  1  0
 43 46  1  0
 43 45  1  0
 44 42  2  0
 47 48  1  0
 47 22  1  0
 49 47  1  0
 51 50  1  0
 52 51  1  0
 53 51  1  0
 54 51  1  0
 54 55  1  0
 56 58  1  0
 56 55  1  0
 57 68  2  0
 58 63  1  0
 59 67  1  0
 59 69  1  0
 60 66  1  0
 60 62  1  0
 61 67  1  0
 62 61  1  0
 63 62  2  0
 64 65  1  0
 64 58  2  0
 65 60  2  0
 66 59  1  0
 67 57  1  0
 69 71  2  0
 70 69  1  0
 72 70  1  0
 73 82  2  0
 73 78  1  0
 74 70  1  0
 74 78  1  0
 75 74  1  0
 76 77  1  0
 76 75  1  0
 77 73  1  0
 78 79  2  0
 79 80  1  0
 81 80  2  0
 82 81  1  0
 83 57  1  0
 83 84  1  0
 83 93  1  0
 84 87  1  0
 85 89  1  0
 85 84  1  0
 86 85  2  0
 89 88  1  0
 91 89  1  0
 91 92  1  0
 91 90  1  0
 93 96  1  1
 93 94  1  0
 95 93  1  0
M  ISO  4  12 100  20 100  55 101  56 101
M  END
>  <TORSDO>  (45) 
F 21

>  <SCORE>  (45) 
-9.353

>  <name>  (45) 
44

>  <ligand_id>  (45) 
44

>  <original_smiles>  (45) 
[H]c1nc(C([H])([H])N([H])C(=O)N2C([H])([H])C([H])([H])C([H])([H])C([H])(n3nc(-c4c([H])c([H])c(Oc5c([H])c([H])c(F)c([H])c5F)c([H])c4[H])c(C(=O)N([H])[H])c3N([H])[H])C2([H])[H])nc(N2C([H])([H])C([H])([H])C2([H])C([H])([H])[N+]([H])([H])C([H])([H])C([H])([H])Oc2c([H])c([H])c3c(c2[H])C([H])([H])N(C(=O)C([H])(N([H])C(=O)C([H])(N([H])C([H])([H])[H])C([H])([H])[H])C(C([H])([H])[H])(C([H])([H])[H])C([H])([H])[H])C([H])(C(=O)N([H])C2([H])c4c([H])c([H])c([H])c([H])c4C([H])([H])C([H])([H])C2([H])[H])C3([H])[H])c1[H]

>  <smiles>  (45) 
[H]c1nc(C([H])([H])N([H])C(=O)N2C([H])([H])C([H])([H])C([H])([H])C([H])(n3nc(-c4c([H])c([H])c(Oc5c([H])c([H])c(F)c([H])c5F)c([H])c4[H])c(C(=O)N([H])[H])c3N([H])[H])C2([H])[H])nc(N2C([H])([H])C([H])([H])C2([H])C([H])([H])[N+]([H])([H])C([H])([H])C([H])([H])Oc2c([H])c([H])c3c(c2[H])C([H])([H])N(C(=O)C([H])(N([H])C(=O)C([H])(N([H])C([H])([H])[H])C([H])([H])[H])C(C([H])([H])[H])(C([H])([H])[H])C([H])([H])[H])C([H])(C(=O)N([H])C2([H])c4c([H])c([H])c([H])c([H])c4C([H])([H])C([H])([H])C2([H])[H])C3([H])[H])c1[H]

$$$$
45:0:0
     RDKit          3D

 91100  0  0  1  0  0  0  0  0999 V2000
  -28.1010  -22.5260   19.3580 C   0  0  0  0  0  3  0  0  0  0  0  0
  -30.0340  -22.1290   21.1580 C   0  0  0  0  0  3  0  0  0  0  0  0
  -28.6720  -23.6580   20.0150 C   0  0  0  0  0  0  0  0  0  0  0  0
  -29.4510  -20.9920   20.5000 C   0  0  0  0  0  0  0  0  0  0  0  0
  -30.9560  -17.7650   21.8040 C   0  0  0  0  0  2  0  0  0  0  0  0
  -30.9210  -19.3030   21.6870 C   0  0  0  0  0  2  0  0  0  0  0  0
  -29.3720  -18.3730   20.1140 C   0  0  0  0  0  2  0  0  0  0  0  0
  -30.4100  -17.2330   20.4700 C   0  0  0  0  0  3  0  0  0  0  0  0
  -29.6610  -23.4340   20.9300 N   0  0  0  0  0  0  0  0  0  0  0  0
  -28.4720  -21.2250   19.5890 N   0  0  0  0  0  0  0  0  0  0  0  0
  -29.8450  -19.6280   20.7570 N   0  0  0  0  0  0  0  0  0  0  0  0
  -30.6660  -14.6730   20.2420 C   0  0  0  0  0  0  0  0  0  0  0  0
  -30.3820  -12.4350   19.2000 C   0  0  0  0  0  2  0  0  0  0  0  0
  -29.4070  -12.5530   18.0100 C   0  0  0  0  0  2  0  0  0  0  0  0
  -27.9500  -12.3940   18.4860 C   0  0  0  0  0  2  0  0  0  0  0  0
  -27.6270  -13.2700   19.7270 C   0  0  0  0  0  3  0  0  0  0  0  0
  -28.7190  -13.1470   20.8120 C   0  0  0  0  0  2  0  0  0  0  0  0
  -30.0070  -13.4720   20.1830 N   0  0  0  0  0  0  0  0  0  0  0  0
  -31.8280  -14.7740   19.8430 O   0  0  0  0  0  0  0  0  0  0  0  0
  -29.9420  -15.7970   20.5550 N   0  0  0  0  0  0  0  0  0  0  0  0
  -28.9830  -15.6470   20.8270 H   0  0  0  0  0  0  0  0  0  0  0  0
  -25.2660  -13.8670   20.5420 C   0  0  0  0  0  0  0  0  0  0  0  0
  -24.2080  -13.0940   20.9340 C   0  0  0  0  0  0  0  0  0  0  0  0
  -24.6610  -11.7410   20.8640 C   0  0  0  0  0  0  0  0  0  0  0  0
  -26.2960  -12.9840   20.2560 N   0  0  0  0  0  0  0  0  0  0  0  0
  -25.9400  -11.6990   20.5110 N   0  0  0  0  0  0  0  0  0  0  0  0
  -23.9310  -10.4790   21.0550 C   0  0  0  0  0  0  0  0  0  0  0  0
  -24.3820   -9.4960   21.9630 C   0  0  0  0  0  3  0  0  0  0  0  0
  -23.6530   -8.3010   22.1440 C   0  0  0  0  0  3  0  0  0  0  0  0
  -22.4600   -8.0800   21.4170 C   0  0  0  0  0  0  0  0  0  0  0  0
  -22.0270   -9.0520   20.4970 C   0  0  0  0  0  3  0  0  0  0  0  0
  -22.7570  -10.2390   20.3150 C   0  0  0  0  0  3  0  0  0  0  0  0
  -21.7000   -6.9390   21.5080 O   0  0  0  0  0  0  0  0  0  0  0  0
  -21.6660   -6.1870   22.6550 C   0  0  0  0  0  0  0  0  0  0  0  0
  -21.2290   -6.7240   23.8850 C   0  0  0  0  0  3  0  0  0  0  0  0
  -21.1450   -5.8970   25.0230 C   0  0  0  0  0  3  0  0  0  0  0  0
  -21.4860   -4.5350   24.9320 C   0  0  0  0  0  0  0  0  0  0  0  0
  -21.9170   -3.9970   23.7070 C   0  0  0  0  0  3  0  0  0  0  0  0
  -22.0040   -4.8200   22.5700 C   0  0  0  0  0  0  0  0  0  0  0  0
  -22.3990   -4.2930   21.3870 F   0  0  0  0  0  0  0  0  0  0  0  0
  -21.3980   -3.7380   26.0240 F   0  0  0  0  0  0  0  0  0  0  0  0
  -22.8250  -13.5750   21.2610 C   0  0  0  0  0  0  0  0  0  0  0  0
  -22.1210  -12.8700   22.1390 N   0  0  0  0  0  0  0  0  0  0  0  0
  -22.3760  -14.6120   20.7720 O   0  0  0  0  0  0  0  0  0  0  0  0
  -22.4980  -12.0310   22.5560 H   0  0  0  0  0  0  0  0  0  0  0  0
  -21.1940  -13.1740   22.4000 H   0  0  0  0  0  0  0  0  0  0  0  0
  -25.4330  -15.2400   20.3800 N   0  0  0  0  0  0  0  0  0  0  0  0
  -24.6690  -15.8920   20.5200 H   0  0  0  0  0  0  0  0  0  0  0  0
  -26.2620  -15.6770   19.9990 H   0  0  0  0  0  0  0  0  0  0  0  0
  -28.1320  -25.1040   19.6530 C   0  0  0  0  0  2  0  0  0  0  0  0
  -28.3230  -26.4560   20.2330 O   0  0  0  0  0  0  0  0  0  0  0  0
  -24.6170  -31.8840   23.2400 C   0  0  0  0  0  0  0  0  0  0  0  0
  -27.2220  -27.3340   20.1590 C   0  0  0  0  0  0  0  0  0  0  0  0
  -23.4130  -30.4980   21.5910 C   0  0  0  0  0  3  0  0  0  0  0  0
  -24.8630  -28.9590   20.1560 C   0  0  0  0  0  0  0  0  0  0  0  0
  -25.9550  -30.8090   21.4160 C   0  0  0  0  0  2  0  0  0  0  0  0
  -26.0330  -29.4360   20.7610 C   0  0  0  0  0  0  0  0  0  0  0  0
  -27.2140  -28.6330   20.7580 C   0  0  0  0  0  3  0  0  0  0  0  0
  -26.0260  -26.9190   19.5240 C   0  0  0  0  0  3  0  0  0  0  0  0
  -24.8620  -27.7060   19.5300 C   0  0  0  0  0  3  0  0  0  0  0  0
  -23.6280  -29.8340   20.2060 C   0  0  0  0  0  2  0  0  0  0  0  0
  -24.6810  -31.0810   22.1390 N   0  0  0  0  0  0  0  0  0  0  0  0
  -23.5330  -32.1620   23.7730 O   0  0  0  0  0  0  0  0  0  0  0  0
  -22.7470  -29.4760   22.5420 C   0  0  0  0  0  0  0  0  0  0  0  0
  -21.4200  -29.3030   22.4120 N   0  0  0  0  0  0  0  0  0  0  0  0
  -23.4220  -28.8420   23.3580 O   0  0  0  0  0  0  0  0  0  0  0  0
  -20.9350  -29.8660   21.7270 H   0  0  0  0  0  0  0  0  0  0  0  0
  -18.0340  -28.1350   22.9170 C   0  0  0  0  0  0  0  0  0  0  0  0
  -20.5960  -28.3650   23.1760 C   0  0  0  0  0  3  0  0  0  0  0  0
  -20.6800  -26.9390   22.5840 C   0  0  0  0  0  2  0  0  0  0  0  0
  -19.5690  -26.6400   21.5720 C   0  0  0  0  0  2  0  0  0  0  0  0
  -18.1920  -26.7920   22.2250 C   0  0  0  0  0  2  0  0  0  0  0  0
  -19.1620  -28.8810   23.3500 C   0  0  0  0  0  0  0  0  0  0  0  0
  -18.9590  -30.1390   23.9570 C   0  0  0  0  0  3  0  0  0  0  0  0
  -17.6610  -30.6520   24.1350 C   0  0  0  0  0  3  0  0  0  0  0  0
  -16.5470  -29.9040   23.7190 C   0  0  0  0  0  3  0  0  0  0  0  0
  -16.7330  -28.6470   23.1170 C   0  0  0  0  0  3  0  0  0  0  0  0
  -25.9000  -32.5100   23.8670 C   0  0  0  0  0  3  0  0  0  0  0  0
  -25.5930  -33.9070   24.2030 N   0  0  0  0  0  0  0  0  0  0  0  0
  -25.9100  -34.9610   23.4390 C   0  0  0  0  0  0  0  0  0  0  0  0
  -26.5620  -34.8590   22.3960 O   0  0  0  0  0  0  0  0  0  0  0  0
  -25.0130  -34.0610   25.0150 H   0  0  0  0  0  0  0  0  0  0  0  0
  -24.1690  -36.7470   23.1200 C   0  0  0  0  0  1  0  0  0  0  0  0
  -25.4280  -36.3480   23.9050 C   0  0  0  0  0  3  0  0  0  0  0  0
  -27.5730  -37.2450   24.6950 C   0  0  0  0  0  1  0  0  0  0  0  0
  -26.4540  -37.4060   23.7700 N   0  0  0  0  0  0  0  0  0  0  0  0
  -26.0470  -38.3240   23.9220 H   0  0  0  0  0  0  0  0  0  0  0  0
  -26.4090  -31.7320   25.1420 C   0  0  1  0  0  0  0  0  0  0  0  0
  -25.3120  -31.4890   26.2040 C   0  0  0  0  0  1  0  0  0  0  0  0
  -26.9930  -30.3550   24.7480 C   0  0  0  0  0  1  0  0  0  0  0  0
  -27.5570  -32.5220   25.8130 C   0  0  0  0  0  1  0  0  0  0  0  0
  1 10  2  0
  1  3  1  0
  3  9  2  0
  4 11  1  0
  4  2  2  0
  6  5  1  0
  7  8  1  0
  7 11  1  0
  8 20  1  0
  8  5  1  0
  9  2  1  0
 10  4  1  0
 11  6  1  0
 12 20  1  0
 13 18  1  0
 14 15  1  0
 14 13  1  0
 16 15  1  0
 16 25  1  0
 16 17  1  0
 18 12  1  0
 18 17  1  0
 19 12  2  0
 20 21  1  0
 22 23  2  0
 23 42  1  0
 24 23  1  0
 24 27  1  0
 25 26  1  0
 25 22  1  0
 26 24  2  0
 27 28  1  0
 28 29  2  0
 30 33  1  0
 30 29  1  0
 31 30  2  0
 32 31  1  0
 32 27  2  0
 33 34  1  0
 34 35  1  0
 35 36  2  0
 37 36  1  0
 37 41  1  0
 38 37  2  0
 39 34  2  0
 39 38  1  0
 40 39  1  0
 42 43  1  0
 43 46  1  0
 43 45  1  0
 44 42  2  0
 47 48  1  0
 47 22  1  0
 49 47  1  0
 50  3  1  0
 50 51  1  0
 52 63  2  0
 53 51  1  0
 53 58  1  0
 54 62  1  0
 54 64  1  0
 55 61  1  0
 55 57  1  0
 56 62  1  0
 57 56  1  0
 58 57  2  0
 59 60  1  0
 59 53  2  0
 60 55  2  0
 61 54  1  0
 62 52  1  0
 64 66  2  0
 65 64  1  0
 67 65  1  0
 68 77  2  0
 68 73  1  0
 69 65  1  0
 69 73  1  0
 70 69  1  0
 71 72  1  0
 71 70  1  0
 72 68  1  0
 73 74  2  0
 74 75  1  0
 76 75  2  0
 77 76  1  0
 78 52  1  0
 78 79  1  0
 78 88  1  0
 79 82  1  0
 80 84  1  0
 80 79  1  0
 81 80  2  0
 84 83  1  0
 86 84  1  0
 86 87  1  0
 86 85  1  0
 88 91  1  1
 88 89  1  0
 90 88  1  0
M  ISO  4  12 100  20 100  50 101  51 101
M  END
>  <TORSDO>  (46) 
F 17

>  <SCORE>  (46) 
-15.308

>  <name>  (46) 
45

>  <ligand_id>  (46) 
45

>  <original_smiles>  (46) 
[H]c1nc(C([H])([H])Oc2c([H])c([H])c3c(c2[H])C([H])([H])N(C(=O)C([H])(N([H])C(=O)C([H])(N([H])C([H])([H])[H])C([H])([H])[H])C(C([H])([H])[H])(C([H])([H])[H])C([H])([H])[H])C([H])(C(=O)N([H])C2([H])c4c([H])c([H])c([H])c([H])c4C([H])([H])C([H])([H])C2([H])[H])C3([H])[H])c([H])nc1N1C([H])([H])C([H])([H])C([H])(N([H])C(=O)N2C([H])([H])C([H])([H])C([H])([H])C([H])(n3nc(-c4c([H])c([H])c(Oc5c([H])c([H])c(F)c([H])c5F)c([H])c4[H])c(C(=O)N([H])[H])c3N([H])[H])C2([H])[H])C1([H])[H]

>  <smiles>  (46) 
[H]c1nc(C([H])([H])Oc2c([H])c([H])c3c(c2[H])C([H])([H])N(C(=O)C([H])(N([H])C(=O)C([H])(N([H])C([H])([H])[H])C([H])([H])[H])C(C([H])([H])[H])(C([H])([H])[H])C([H])([H])[H])C([H])(C(=O)N([H])C2([H])c4c([H])c([H])c([H])c([H])c4C([H])([H])C([H])([H])C2([H])[H])C3([H])[H])c([H])nc1N1C([H])([H])C([H])([H])C([H])(N([H])C(=O)N2C([H])([H])C([H])([H])C([H])([H])C([H])(n3nc(-c4c([H])c([H])c(Oc5c([H])c([H])c(F)c([H])c5F)c([H])c4[H])c(C(=O)N([H])[H])c3N([H])[H])C2([H])[H])C1([H])[H]

$$$$
46:0:0
     RDKit          3D

 95104  0  0  1  0  0  0  0  0999 V2000
  -32.3580  -22.6670   20.5450 C   0  0  0  0  0  2  0  0  0  0  0  0
  -31.9590  -24.1430   20.4420 C   0  0  0  0  0  2  0  0  0  0  0  0
  -30.0020  -22.7980   20.7270 C   0  0  0  0  0  2  0  0  0  0  0  0
  -31.2050  -22.0280   21.3180 C   0  0  0  0  0  3  0  0  0  0  0  0
  -30.4750  -24.1900   20.4700 N   0  0  2  0  0  4  0  0  0  0  0  0
  -30.2380  -24.7500   21.2790 H   0  0  0  0  0  0  0  0  0  0  0  0
  -31.2010  -20.4670   21.2150 C   0  0  0  0  0  2  0  0  0  0  0  0
  -30.8070  -20.0370   23.6460 C   0  0  0  0  0  1  0  0  0  0  0  0
  -30.3980  -19.7360   22.2480 N   0  0  2  0  0  4  0  0  0  0  0  0
  -29.4560  -20.0920   22.1780 H   0  0  0  0  0  0  0  0  0  0  0  0
  -31.0080  -14.5420   20.1880 C   0  0  0  0  0  0  0  0  0  0  0  0
  -30.5720  -12.4740   18.9040 C   0  0  0  0  0  2  0  0  0  0  0  0
  -29.5560  -12.7450   17.7760 C   0  0  0  0  0  2  0  0  0  0  0  0
  -28.1120  -12.5860   18.2920 C   0  0  0  0  0  2  0  0  0  0  0  0
  -27.8630  -13.3630   19.6090 C   0  0  0  0  0  3  0  0  0  0  0  0
  -28.9850  -13.0870   20.6370 C   0  0  0  0  0  2  0  0  0  0  0  0
  -30.2760  -13.4060   20.0030 N   0  0  0  0  0  0  0  0  0  0  0  0
  -32.0950  -14.7350   19.6340 O   0  0  0  0  0  0  0  0  0  0  0  0
  -31.5140  -17.4130   22.2830 C   0  0  0  0  0  2  0  0  0  0  0  0
  -29.6970  -17.8680   20.6490 C   0  0  0  0  0  2  0  0  0  0  0  0
  -31.1970  -15.9010   22.2340 C   0  0  0  0  0  2  0  0  0  0  0  0
  -29.3820  -16.3570   20.5660 C   0  0  0  0  0  2  0  0  0  0  0  0
  -30.2450  -18.2550   22.0320 C   0  0  0  0  0  3  0  0  0  0  0  0
  -30.4820  -15.4770   21.0170 N   0  0  0  0  0  0  0  0  0  0  0  0
  -25.5230  -13.9790   20.4820 C   0  0  0  0  0  0  0  0  0  0  0  0
  -24.4690  -13.2070   20.8880 C   0  0  0  0  0  0  0  0  0  0  0  0
  -24.9100  -11.8520   20.7840 C   0  0  0  0  0  0  0  0  0  0  0  0
  -26.5400  -13.0930   20.1600 N   0  0  0  0  0  0  0  0  0  0  0  0
  -26.1790  -11.8080   20.4000 N   0  0  0  0  0  0  0  0  0  0  0  0
  -24.1830  -10.5920   20.9710 C   0  0  0  0  0  0  0  0  0  0  0  0
  -24.6060   -9.6290   21.9140 C   0  0  0  0  0  3  0  0  0  0  0  0
  -23.8800   -8.4310   22.0870 C   0  0  0  0  0  3  0  0  0  0  0  0
  -22.7170   -8.1900   21.3180 C   0  0  0  0  0  0  0  0  0  0  0  0
  -22.3140   -9.1410   20.3640 C   0  0  0  0  0  3  0  0  0  0  0  0
  -23.0410  -10.3300   20.1890 C   0  0  0  0  0  3  0  0  0  0  0  0
  -21.9630   -7.0440   21.4000 O   0  0  0  0  0  0  0  0  0  0  0  0
  -21.8410   -6.3470   22.5750 C   0  0  0  0  0  0  0  0  0  0  0  0
  -21.3140   -6.9410   23.7440 C   0  0  0  0  0  3  0  0  0  0  0  0
  -21.1430   -6.1680   24.9100 C   0  0  0  0  0  3  0  0  0  0  0  0
  -21.4870   -4.8030   24.9080 C   0  0  0  0  0  0  0  0  0  0  0  0
  -22.0070   -4.2090   23.7440 C   0  0  0  0  0  3  0  0  0  0  0  0
  -22.1810   -4.9790   22.5800 C   0  0  0  0  0  0  0  0  0  0  0  0
  -22.6620   -4.3970   21.4550 F   0  0  0  0  0  0  0  0  0  0  0  0
  -21.3140   -4.0580   26.0240 F   0  0  0  0  0  0  0  0  0  0  0  0
  -23.0950  -13.6880   21.2570 C   0  0  0  0  0  0  0  0  0  0  0  0
  -22.4200  -12.9850   22.1580 N   0  0  0  0  0  0  0  0  0  0  0  0
  -22.6310  -14.7240   20.7800 O   0  0  0  0  0  0  0  0  0  0  0  0
  -22.8090  -12.1460   22.5650 H   0  0  0  0  0  0  0  0  0  0  0  0
  -21.5020  -13.2890   22.4470 H   0  0  0  0  0  0  0  0  0  0  0  0
  -25.6920  -15.3540   20.3380 N   0  0  0  0  0  0  0  0  0  0  0  0
  -24.9360  -16.0080   20.5070 H   0  0  0  0  0  0  0  0  0  0  0  0
  -26.5170  -15.7920   19.9490 H   0  0  0  0  0  0  0  0  0  0  0  0
  -29.8890  -24.8740   19.2810 C   0  0  0  0  0  2  0  0  0  0  0  0
  -28.4460  -25.3900   19.4720 C   0  0  0  0  0  2  0  0  0  0  0  0
  -28.4200  -26.6960   20.0690 O   0  0  0  0  0  0  0  0  0  0  0  0
  -24.5650  -31.8060   23.2020 C   0  0  0  0  0  0  0  0  0  0  0  0
  -27.2230  -27.3940   20.0730 C   0  0  0  0  0  0  0  0  0  0  0  0
  -23.3620  -30.4240   21.5430 C   0  0  0  0  0  3  0  0  0  0  0  0
  -24.8190  -28.9020   20.1080 C   0  0  0  0  0  0  0  0  0  0  0  0
  -25.8900  -30.7820   21.3550 C   0  0  0  0  0  2  0  0  0  0  0  0
  -25.9770  -29.4180   20.7000 C   0  0  0  0  0  0  0  0  0  0  0  0
  -27.1780  -28.6720   20.6810 C   0  0  0  0  0  3  0  0  0  0  0  0
  -26.0340  -26.8880   19.4900 C   0  0  0  0  0  3  0  0  0  0  0  0
  -24.8420  -27.6350   19.5030 C   0  0  0  0  0  3  0  0  0  0  0  0
  -23.5750  -29.7610   20.1560 C   0  0  0  0  0  2  0  0  0  0  0  0
  -24.6250  -31.0180   22.0920 N   0  0  0  0  0  0  0  0  0  0  0  0
  -23.4820  -32.0720   23.7430 O   0  0  0  0  0  0  0  0  0  0  0  0
  -22.7100  -29.3900   22.4900 C   0  0  0  0  0  0  0  0  0  0  0  0
  -21.3870  -29.2040   22.3530 N   0  0  0  0  0  0  0  0  0  0  0  0
  -23.3910  -28.7590   23.3020 O   0  0  0  0  0  0  0  0  0  0  0  0
  -20.8980  -29.7670   21.6710 H   0  0  0  0  0  0  0  0  0  0  0  0
  -18.0110  -28.0090   22.8330 C   0  0  0  0  0  0  0  0  0  0  0  0
  -20.5700  -28.2580   23.1100 C   0  0  0  0  0  3  0  0  0  0  0  0
  -20.6700  -26.8340   22.5150 C   0  0  0  0  0  2  0  0  0  0  0  0
  -19.5670  -26.5270   21.4970 C   0  0  0  0  0  2  0  0  0  0  0  0
  -18.1850  -26.6680   22.1410 C   0  0  0  0  0  2  0  0  0  0  0  0
  -19.1320  -28.7620   23.2750 C   0  0  0  0  0  0  0  0  0  0  0  0
  -18.9160  -30.0190   23.8800 C   0  0  0  0  0  3  0  0  0  0  0  0
  -17.6120  -30.5230   24.0510 C   0  0  0  0  0  3  0  0  0  0  0  0
  -16.5060  -29.7660   23.6240 C   0  0  0  0  0  3  0  0  0  0  0  0
  -16.7060  -28.5110   23.0220 C   0  0  0  0  0  3  0  0  0  0  0  0
  -25.8500  -32.4310   23.8320 C   0  0  0  0  0  3  0  0  0  0  0  0
  -26.3580  -31.6540   25.1080 C   0  0  1  0  0  0  0  0  0  0  0  0
  -25.2590  -31.4150   26.1680 C   0  0  0  0  0  1  0  0  0  0  0  0
  -26.9390  -30.2750   24.7110 C   0  0  0  0  0  1  0  0  0  0  0  0
  -27.5040  -32.4440   25.7800 C   0  0  0  0  0  1  0  0  0  0  0  0
  -25.5460  -33.8290   24.1600 N   0  0  0  0  0  0  0  0  0  0  0  0
  -25.8980  -34.8810   23.4070 C   0  0  0  0  0  0  0  0  0  0  0  0
  -26.5840  -34.7750   22.3870 O   0  0  0  0  0  0  0  0  0  0  0  0
  -24.9420  -33.9890   24.9530 H   0  0  0  0  0  0  0  0  0  0  0  0
  -24.2010  -36.6950   23.0120 C   0  0  0  0  0  1  0  0  0  0  0  0
  -25.4110  -36.2700   23.8600 C   0  0  0  0  0  3  0  0  0  0  0  0
  -27.5250  -37.1280   24.7700 C   0  0  0  0  0  1  0  0  0  0  0  0
  -26.4590  -37.3120   23.7890 N   0  0  0  0  0  0  0  0  0  0  0  0
  -26.0570  -38.2350   23.9270 H   0  0  0  0  0  0  0  0  0  0  0  0
  1  4  1  0
  2  5  1  0
  2  1  1  0
  3  4  1  0
  4  7  1  0
  5  3  1  0
  5  6  1  1
  7  9  1  0
  9  8  1  0
  9 10  1  1
 11 24  1  0
 12 17  1  0
 13 14  1  0
 13 12  1  0
 15 14  1  0
 15 28  1  0
 15 16  1  0
 17 11  1  0
 17 16  1  0
 18 11  2  0
 20 23  1  0
 21 19  1  0
 22 20  1  0
 22 24  1  0
 23  9  1  0
 23 19  1  0
 24 21  1  0
 25 26  2  0
 26 45  1  0
 27 26  1  0
 27 30  1  0
 28 29  1  0
 28 25  1  0
 29 27  2  0
 30 31  1  0
 31 32  2  0
 33 36  1  0
 33 32  1  0
 34 33  2  0
 35 34  1  0
 35 30  2  0
 36 37  1  0
 37 42  2  0
 37 38  1  0
 38 39  2  0
 40 39  1  0
 40 44  1  0
 41 40  2  0
 42 41  1  0
 43 42  1  0
 45 46  1  0
 46 49  1  0
 46 48  1  0
 47 45  2  0
 50 25  1  0
 50 51  1  0
 52 50  1  0
 53 54  1  0
 53  5  1  0
 54 55  1  0
 55 57  1  0
 56 67  2  0
 57 62  1  0
 58 66  1  0
 58 68  1  0
 59 65  1  0
 59 61  1  0
 60 66  1  0
 61 60  1  0
 62 61  2  0
 63 64  1  0
 63 57  2  0
 64 59  2  0
 65 58  1  0
 66 56  1  0
 68 70  2  0
 69 68  1  0
 71 69  1  0
 72 81  2  0
 72 77  1  0
 73 69  1  0
 73 77  1  0
 74 73  1  0
 75 76  1  0
 75 74  1  0
 76 72  1  0
 77 78  2  0
 78 79  1  0
 80 79  2  0
 81 80  1  0
 82 56  1  0
 82 87  1  0
 82 83  1  0
 83 86  1  1
 83 84  1  0
 85 83  1  0
 87 90  1  0
 88 92  1  0
 88 87  1  0
 89 88  2  0
 92 91  1  0
 94 92  1  0
 94 95  1  0
 94 93  1  0
M  ISO  4  11 100  24 100  54 101  55 101
M  END
>  <TORSDO>  (47) 
F 20

>  <SCORE>  (47) 
-12.479

>  <name>  (47) 
46

>  <ligand_id>  (47) 
46

>  <original_smiles>  (47) 
[H]c1c([H])c([H])c2c(c1[H])C([H])([H])C([H])([H])C([H])([H])C2([H])N([H])C(=O)C1([H])N(C(=O)C([H])(N([H])C(=O)C([H])(N([H])C([H])([H])[H])C([H])([H])[H])C(C([H])([H])[H])(C([H])([H])[H])C([H])([H])[H])C([H])([H])c2c([H])c(OC([H])([H])C([H])([H])[N+]3([H])C([H])([H])C([H])([H])C([H])(C([H])([H])[N+]([H])(C([H])([H])[H])C4([H])C([H])([H])C([H])([H])N(C(=O)N5C([H])([H])C([H])([H])C([H])([H])C([H])(n6nc(-c7c([H])c([H])c(Oc8c([H])c([H])c(F)c([H])c8F)c([H])c7[H])c(C(=O)N([H])[H])c6N([H])[H])C5([H])[H])C([H])([H])C4([H])[H])C3([H])[H])c([H])c([H])c2C1([H])[H]

>  <smiles>  (47) 
[H]c1c([H])c([H])c2c(c1[H])C([H])([H])C([H])([H])C([H])([H])C2([H])N([H])C(=O)C1([H])N(C(=O)C([H])(N([H])C(=O)C([H])(N([H])C([H])([H])[H])C([H])([H])[H])C(C([H])([H])[H])(C([H])([H])[H])C([H])([H])[H])C([H])([H])c2c([H])c(OC([H])([H])C([H])([H])[N+]3([H])C([H])([H])C([H])([H])C([H])(C([H])([H])[N+]([H])(C([H])([H])[H])C4([H])C([H])([H])C([H])([H])N(C(=O)N5C([H])([H])C([H])([H])C([H])([H])C([H])(n6nc(-c7c([H])c([H])c(Oc8c([H])c([H])c(F)c([H])c8F)c([H])c7[H])c(C(=O)N([H])[H])c6N([H])[H])C5([H])[H])C([H])([H])C4([H])[H])C3([H])[H])c([H])c([H])c2C1([H])[H]

$$$$
47:0:0
     RDKit          3D

 94103  0  0  1  0  0  0  0  0999 V2000
  -28.6020  -23.2570   20.1630 C   0  0  0  0  0  3  0  0  0  0  0  0
  -26.8240  -20.6560   19.3830 C   0  0  0  0  0  2  0  0  0  0  0  0
  -27.8260  -21.4170   18.5150 C   0  0  0  0  0  2  0  0  0  0  0  0
  -27.6390  -20.0770   20.5430 C   0  0  0  0  0  2  0  0  0  0  0  0
  -28.9810  -21.7310   19.4650 C   0  0  0  0  0  3  0  0  0  0  0  0
  -29.0360  -20.3300   20.2060 N   0  0  0  0  0  0  0  0  0  0  0  0
  -30.7280  -15.0670   19.9040 C   0  0  0  0  0  0  0  0  0  0  0  0
  -30.5550  -12.6970   18.9900 C   0  0  0  0  0  2  0  0  0  0  0  0
  -29.5610  -12.6680   17.8050 C   0  0  0  0  0  2  0  0  0  0  0  0
  -28.1240  -12.4770   18.3270 C   0  0  0  0  0  2  0  0  0  0  0  0
  -27.7970  -13.4090   19.5250 C   0  0  0  0  0  3  0  0  0  0  0  0
  -28.9090  -13.4100   20.5880 C   0  0  0  0  0  2  0  0  0  0  0  0
  -30.1340  -13.8060   19.8930 N   0  0  0  0  0  0  0  0  0  0  0  0
  -31.9380  -15.1190   19.6530 O   0  0  0  0  0  0  0  0  0  0  0  0
  -29.0480  -18.2090   18.5020 C   0  0  0  0  0  2  0  0  0  0  0  0
  -29.6470  -16.7580   18.4720 C   0  0  0  0  0  2  0  0  0  0  0  0
  -29.9780  -17.6150   20.5890 C   0  0  0  0  0  2  0  0  0  0  0  0
  -29.6790  -18.9700   19.6900 C   0  0  0  0  0  3  0  0  0  0  0  0
  -29.9300  -16.2540   19.8310 N   0  0  0  0  0  0  0  0  0  0  0  0
  -25.4890  -14.0070   20.4350 C   0  0  0  0  0  0  0  0  0  0  0  0
  -24.4380  -13.2410   20.8430 C   0  0  0  0  0  0  0  0  0  0  0  0
  -24.8770  -11.8820   20.7470 C   0  0  0  0  0  0  0  0  0  0  0  0
  -26.4960  -13.1200   20.1010 N   0  0  0  0  0  0  0  0  0  0  0  0
  -26.1440  -11.8350   20.3570 N   0  0  0  0  0  0  0  0  0  0  0  0
  -24.1460  -10.6250   20.9470 C   0  0  0  0  0  0  0  0  0  0  0  0
  -24.5860   -9.6480   21.8680 C   0  0  0  0  0  3  0  0  0  0  0  0
  -23.8500   -8.4600   22.0560 C   0  0  0  0  0  3  0  0  0  0  0  0
  -22.6580   -8.2390   21.3250 C   0  0  0  0  0  0  0  0  0  0  0  0
  -22.2380   -9.2040   20.3910 C   0  0  0  0  0  3  0  0  0  0  0  0
  -22.9750  -10.3840   20.2010 C   0  0  0  0  0  3  0  0  0  0  0  0
  -21.8920   -7.1030   21.4220 O   0  0  0  0  0  0  0  0  0  0  0  0
  -21.8110   -6.3860   22.5880 C   0  0  0  0  0  0  0  0  0  0  0  0
  -21.3460   -6.9650   23.7880 C   0  0  0  0  0  3  0  0  0  0  0  0
  -21.2120   -6.1750   24.9480 C   0  0  0  0  0  3  0  0  0  0  0  0
  -21.5380   -4.8050   24.9060 C   0  0  0  0  0  0  0  0  0  0  0  0
  -22.0000   -4.2260   23.7100 C   0  0  0  0  0  3  0  0  0  0  0  0
  -22.1340   -5.0140   22.5550 C   0  0  0  0  0  0  0  0  0  0  0  0
  -22.5590   -4.4490   21.3980 F   0  0  0  0  0  0  0  0  0  0  0  0
  -21.4060   -4.0420   26.0140 F   0  0  0  0  0  0  0  0  0  0  0  0
  -23.0710  -13.7270   21.2210 C   0  0  0  0  0  0  0  0  0  0  0  0
  -22.4010  -13.0180   22.1160 N   0  0  0  0  0  0  0  0  0  0  0  0
  -22.6130  -14.7720   20.7560 O   0  0  0  0  0  0  0  0  0  0  0  0
  -22.7920  -12.1680   22.4980 H   0  0  0  0  0  0  0  0  0  0  0  0
  -21.4910  -13.3260   22.4310 H   0  0  0  0  0  0  0  0  0  0  0  0
  -25.6820  -15.3780   20.2890 N   0  0  0  0  0  0  0  0  0  0  0  0
  -24.9560  -16.0670   20.4500 H   0  0  0  0  0  0  0  0  0  0  0  0
  -26.5500  -15.7760   19.9550 H   0  0  0  0  0  0  0  0  0  0  0  0
  -29.5090  -23.4890   21.3000 N   0  0  0  0  0  4  0  0  0  0  0  0
  -29.8660  -22.5850   21.5730 H   0  0  0  0  0  0  0  0  0  0  0  0
  -30.2830  -24.0650   21.0000 H   0  0  0  0  0  0  0  0  0  0  0  0
  -29.7690  -24.2740   23.6610 C   0  0  0  0  0  1  0  0  0  0  0  0
  -28.8340  -24.1100   22.4640 C   0  0  0  0  0  2  0  0  0  0  0  0
  -28.3240  -24.7440   19.3550 C   0  0  0  0  0  2  0  0  0  0  0  0
  -28.3520  -26.2380   19.8780 O   0  0  0  0  0  0  0  0  0  0  0  0
  -24.6910  -31.8130   23.1000 C   0  0  0  0  0  0  0  0  0  0  0  0
  -27.2880  -27.2210   19.8360 C   0  0  0  0  0  0  0  0  0  0  0  0
  -23.4980  -30.4470   21.4400 C   0  0  0  0  0  3  0  0  0  0  0  0
  -24.9490  -28.9600   19.9270 C   0  0  0  0  0  0  0  0  0  0  0  0
  -26.0490  -30.7530   21.2530 C   0  0  0  0  0  2  0  0  0  0  0  0
  -26.1350  -29.3890   20.5350 C   0  0  0  0  0  0  0  0  0  0  0  0
  -27.3050  -28.5370   20.4710 C   0  0  0  0  0  3  0  0  0  0  0  0
  -26.0690  -26.9020   19.2040 C   0  0  0  0  0  3  0  0  0  0  0  0
  -24.9300  -27.7350   19.2470 C   0  0  0  0  0  3  0  0  0  0  0  0
  -23.7110  -29.8380   20.0320 C   0  0  0  0  0  2  0  0  0  0  0  0
  -24.7680  -31.0250   21.9860 N   0  0  0  0  0  0  0  0  0  0  0  0
  -23.6080  -32.0590   23.6510 O   0  0  0  0  0  0  0  0  0  0  0  0
  -22.8600  -29.3880   22.3720 C   0  0  0  0  0  0  0  0  0  0  0  0
  -21.5380  -29.1710   22.2400 N   0  0  0  0  0  0  0  0  0  0  0  0
  -23.5560  -28.7630   23.1770 O   0  0  0  0  0  0  0  0  0  0  0  0
  -21.0320  -29.7280   21.5660 H   0  0  0  0  0  0  0  0  0  0  0  0
  -18.2120  -27.8150   22.7050 C   0  0  0  0  0  0  0  0  0  0  0  0
  -20.7540  -28.1880   22.9930 C   0  0  0  0  0  3  0  0  0  0  0  0
  -20.9250  -26.7710   22.4000 C   0  0  0  0  0  2  0  0  0  0  0  0
  -19.8460  -26.4160   21.3720 C   0  0  0  0  0  2  0  0  0  0  0  0
  -18.4530  -26.4880   22.0060 C   0  0  0  0  0  2  0  0  0  0  0  0
  -19.2910  -28.6220   23.1540 C   0  0  0  0  0  0  0  0  0  0  0  0
  -19.0110  -29.8610   23.7710 C   0  0  0  0  0  3  0  0  0  0  0  0
  -17.6850  -30.2980   23.9380 C   0  0  0  0  0  3  0  0  0  0  0  0
  -16.6190  -29.4910   23.5040 C   0  0  0  0  0  3  0  0  0  0  0  0
  -16.8840  -28.2520   22.8930 C   0  0  0  0  0  3  0  0  0  0  0  0
  -25.9640  -32.4600   23.7280 C   0  0  0  0  0  3  0  0  0  0  0  0
  -26.5040  -31.6700   24.9850 C   0  0  1  0  0  0  0  0  0  0  0  0
  -25.4190  -31.3920   26.0520 C   0  0  0  0  0  1  0  0  0  0  0  0
  -27.1090  -30.3080   24.5710 C   0  0  0  0  0  1  0  0  0  0  0  0
  -27.6460  -32.4710   25.6530 C   0  0  0  0  0  1  0  0  0  0  0  0
  -25.6270  -33.8450   24.1020 N   0  0  0  0  0  0  0  0  0  0  0  0
  -25.9400  -34.9280   23.3810 C   0  0  0  0  0  0  0  0  0  0  0  0
  -26.6140  -34.8690   22.3500 O   0  0  0  0  0  0  0  0  0  0  0  0
  -25.0220  -33.9630   24.9040 H   0  0  0  0  0  0  0  0  0  0  0  0
  -24.1850  -36.7060   23.0870 C   0  0  0  0  0  1  0  0  0  0  0  0
  -25.4330  -36.2960   23.8850 C   0  0  0  0  0  3  0  0  0  0  0  0
  -27.5510  -37.1870   24.7510 C   0  0  0  0  0  1  0  0  0  0  0  0
  -26.4500  -37.3670   23.8070 N   0  0  0  0  0  0  0  0  0  0  0  0
  -26.0310  -38.2770   23.9850 H   0  0  0  0  0  0  0  0  0  0  0  0
  1 53  1  0
  1 48  1  0
  2  4  1  0
  3  2  1  0
  3  5  1  0
  5  1  1  0
  5  6  1  0
  6  4  1  0
  8 13  1  0
  9 10  1  0
  9  8  1  0
 11 10  1  0
 11 23  1  0
 11 12  1  0
 13  7  1  0
 13 12  1  0
 14  7  2  0
 16 15  1  0
 16 19  1  0
 18 15  1  0
 18  6  1  0
 18 17  1  0
 19  7  1  0
 19 17  1  0
 20 21  2  0
 21 40  1  0
 22 21  1  0
 22 25  1  0
 23 24  1  0
 23 20  1  0
 24 22  2  0
 25 26  1  0
 26 27  2  0
 28 31  1  0
 28 27  1  0
 29 28  2  0
 30 29  1  0
 30 25  2  0
 31 32  1  0
 32 33  1  0
 33 34  2  0
 35 34  1  0
 35 39  1  0
 36 35  2  0
 37 32  2  0
 37 36  1  0
 38 37  1  0
 40 41  1  0
 41 44  1  0
 41 43  1  0
 42 40  2  0
 45 20  1  0
 45 46  1  0
 47 45  1  0
 48 49  1  0
 48 52  1  0
 50 48  1  0
 52 51  1  0
 53 54  1  0
 55 66  2  0
 56 54  1  0
 56 61  1  0
 57 65  1  0
 57 67  1  0
 58 64  1  0
 58 60  1  0
 59 65  1  0
 60 59  1  0
 61 60  2  0
 62 63  1  0
 62 56  2  0
 63 58  2  0
 64 57  1  0
 65 55  1  0
 67 69  2  0
 68 67  1  0
 70 68  1  0
 71 80  2  0
 71 76  1  0
 72 68  1  0
 72 76  1  0
 73 72  1  0
 74 75  1  0
 74 73  1  0
 75 71  1  0
 76 77  2  0
 77 78  1  0
 79 78  2  0
 80 79  1  0
 81 55  1  0
 81 86  1  0
 81 82  1  0
 82 85  1  1
 82 83  1  0
 84 82  1  0
 86 89  1  0
 87 91  1  0
 87 86  1  0
 88 87  2  0
 91 90  1  0
 93 91  1  0
 93 94  1  0
 93 92  1  0
M  ISO  4   7 100  19 100  53 101  54 101
M  END
>  <TORSDO>  (48) 
F 20

>  <SCORE>  (48) 
-13.565

>  <name>  (48) 
47

>  <ligand_id>  (48) 
47

>  <original_smiles>  (48) 
[H]c1c([H])c([H])c2c(c1[H])C([H])([H])C([H])([H])C([H])([H])C2([H])N([H])C(=O)C1([H])N(C(=O)C([H])(N([H])C(=O)C([H])(N([H])C([H])([H])[H])C([H])([H])[H])C(C([H])([H])[H])(C([H])([H])[H])C([H])([H])[H])C([H])([H])c2c([H])c(OC([H])([H])C([H])(C3([H])N(C4([H])C([H])([H])N(C(=O)N5C([H])([H])C([H])([H])C([H])([H])C([H])(n6nc(-c7c([H])c([H])c(Oc8c([H])c([H])c(F)c([H])c8F)c([H])c7[H])c(C(=O)N([H])[H])c6N([H])[H])C5([H])[H])C([H])([H])C4([H])[H])C([H])([H])C([H])([H])C3([H])[H])[N+]([H])([H])C([H])([H])C([H])([H])[H])c([H])c([H])c2C1([H])[H]

>  <smiles>  (48) 
[H]c1c([H])c([H])c2c(c1[H])C([H])([H])C([H])([H])C([H])([H])C2([H])N([H])C(=O)C1([H])N(C(=O)C([H])(N([H])C(=O)C([H])(N([H])C([H])([H])[H])C([H])([H])[H])C(C([H])([H])[H])(C([H])([H])[H])C([H])([H])[H])C([H])([H])c2c([H])c(OC([H])([H])C([H])(C3([H])N(C4([H])C([H])([H])N(C(=O)N5C([H])([H])C([H])([H])C([H])([H])C([H])(n6nc(-c7c([H])c([H])c(Oc8c([H])c([H])c(F)c([H])c8F)c([H])c7[H])c(C(=O)N([H])[H])c6N([H])[H])C5([H])[H])C([H])([H])C4([H])[H])C([H])([H])C([H])([H])C3([H])[H])[N+]([H])([H])C([H])([H])C([H])([H])[H])c([H])c([H])c2C1([H])[H]

$$$$
48:0:0
     RDKit          3D

 92100  0  0  1  0  0  0  0  0999 V2000
  -30.4850  -22.3440   21.1510 C   0  0  0  0  0  2  0  0  0  0  0  0
  -29.5190  -24.5660   20.5760 C   0  0  0  0  0  0  0  0  0  0  0  0
  -29.5010  -23.2230   20.5100 N   0  0  0  0  0  0  0  0  0  0  0  0
  -30.4020  -25.1840   21.1790 O   0  0  0  0  0  0  0  0  0  0  0  0
  -28.7460  -22.7930   19.9920 H   0  0  0  0  0  0  0  0  0  0  0  0
  -28.3670  -25.3150   19.8850 C   0  0  0  0  0  2  0  0  0  0  0  0
  -28.4360  -26.7300   20.1360 O   0  0  0  0  0  0  0  0  0  0  0  0
  -24.6200  -31.8840   23.2090 C   0  0  0  0  0  0  0  0  0  0  0  0
  -27.2540  -27.4470   20.1080 C   0  0  0  0  0  0  0  0  0  0  0  0
  -23.4080  -30.4840   21.5710 C   0  0  0  0  0  3  0  0  0  0  0  0
  -24.8550  -28.9530   20.1350 C   0  0  0  0  0  0  0  0  0  0  0  0
  -25.9330  -30.8440   21.3640 C   0  0  0  0  0  2  0  0  0  0  0  0
  -26.0160  -29.4750   20.7190 C   0  0  0  0  0  0  0  0  0  0  0  0
  -27.2160  -28.7290   20.7030 C   0  0  0  0  0  3  0  0  0  0  0  0
  -26.0740  -26.9470   19.5090 C   0  0  0  0  0  3  0  0  0  0  0  0
  -24.8800  -27.6870   19.5290 C   0  0  0  0  0  3  0  0  0  0  0  0
  -23.6100  -29.8080   20.1900 C   0  0  0  0  0  2  0  0  0  0  0  0
  -24.6720  -31.0850   22.1060 N   0  0  0  0  0  0  0  0  0  0  0  0
  -23.5420  -32.1550   23.7550 O   0  0  0  0  0  0  0  0  0  0  0  0
  -22.7630  -29.4600   22.5320 C   0  0  0  0  0  0  0  0  0  0  0  0
  -21.4390  -29.2740   22.4090 N   0  0  0  0  0  0  0  0  0  0  0  0
  -23.4510  -28.8350   23.3450 O   0  0  0  0  0  0  0  0  0  0  0  0
  -20.9460  -29.8290   21.7250 H   0  0  0  0  0  0  0  0  0  0  0  0
  -18.0690  -28.0720   22.9110 C   0  0  0  0  0  0  0  0  0  0  0  0
  -20.6270  -28.3350   23.1810 C   0  0  0  0  0  3  0  0  0  0  0  0
  -20.7310  -26.9040   22.6050 C   0  0  0  0  0  2  0  0  0  0  0  0
  -19.6300  -26.5780   21.5930 C   0  0  0  0  0  2  0  0  0  0  0  0
  -18.2480  -26.7220   22.2370 C   0  0  0  0  0  2  0  0  0  0  0  0
  -19.1870  -28.8360   23.3410 C   0  0  0  0  0  0  0  0  0  0  0  0
  -18.9670  -30.1000   23.9290 C   0  0  0  0  0  3  0  0  0  0  0  0
  -17.6620  -30.6000   24.0950 C   0  0  0  0  0  3  0  0  0  0  0  0
  -16.5580  -29.8320   23.6830 C   0  0  0  0  0  3  0  0  0  0  0  0
  -16.7630  -28.5710   23.0980 C   0  0  0  0  0  3  0  0  0  0  0  0
  -25.9110  -32.5150   23.8230 C   0  0  0  0  0  3  0  0  0  0  0  0
  -26.4420  -31.7350   25.0870 C   0  0  1  0  0  0  0  0  0  0  0  0
  -25.3600  -31.4850   26.1630 C   0  0  0  0  0  1  0  0  0  0  0  0
  -27.0260  -30.3640   24.6780 C   0  0  0  0  0  1  0  0  0  0  0  0
  -27.5950  -32.5290   25.7450 C   0  0  0  0  0  1  0  0  0  0  0  0
  -25.6010  -33.9100   24.1630 N   0  0  0  0  0  0  0  0  0  0  0  0
  -25.9250  -34.9670   23.4070 C   0  0  0  0  0  0  0  0  0  0  0  0
  -26.5880  -34.8710   22.3700 O   0  0  0  0  0  0  0  0  0  0  0  0
  -25.0120  -34.0580   24.9700 H   0  0  0  0  0  0  0  0  0  0  0  0
  -24.1870  -36.7530   23.0730 C   0  0  0  0  0  1  0  0  0  0  0  0
  -25.4350  -36.3510   23.8750 C   0  0  0  0  0  3  0  0  0  0  0  0
  -27.5730  -37.2370   24.6940 C   0  0  0  0  0  1  0  0  0  0  0  0
  -26.4630  -37.4080   23.7600 N   0  0  0  0  0  0  0  0  0  0  0  0
  -26.0550  -38.3260   23.9180 H   0  0  0  0  0  0  0  0  0  0  0  0
  -30.4590  -20.8840   20.6290 C   0  0  0  0  0  2  0  0  0  0  0  0
  -29.8010  -19.8500   21.5830 C   0  0  0  0  0  2  0  0  0  0  0  0
  -30.7510  -14.5110   20.0550 C   0  0  0  0  0  0  0  0  0  0  0  0
  -30.3090  -12.4210   18.8380 C   0  0  0  0  0  2  0  0  0  0  0  0
  -29.2920  -12.7050   17.7160 C   0  0  0  0  0  2  0  0  0  0  0  0
  -27.8520  -12.5580   18.2470 C   0  0  0  0  0  2  0  0  0  0  0  0
  -27.6160  -13.3340   19.5710 C   0  0  0  0  0  3  0  0  0  0  0  0
  -28.7490  -13.0690   20.5880 C   0  0  0  0  0  2  0  0  0  0  0  0
  -30.0290  -13.3660   19.9290 N   0  0  0  0  0  0  0  0  0  0  0  0
  -31.8600  -14.6650   19.5340 O   0  0  0  0  0  0  0  0  0  0  0  0
  -29.7800  -16.6230   19.5100 C   0  0  0  0  0  2  0  0  0  0  0  0
  -30.4790  -16.0620   21.8760 C   0  0  0  0  0  2  0  0  0  0  0  0
  -29.2450  -17.9640   20.0440 C   0  0  0  0  0  2  0  0  0  0  0  0
  -29.9600  -17.4610   22.2870 C   0  0  0  0  0  2  0  0  0  0  0  0
  -30.0850  -15.5910   20.5300 N   0  0  0  0  0  0  0  0  0  0  0  0
  -30.0630  -18.4370   21.1780 N   0  0  2  0  0  4  0  0  0  0  0  0
  -31.0280  -18.4120   20.8820 H   0  0  0  0  0  0  0  0  0  0  0  0
  -25.2730  -13.9160   20.4590 C   0  0  0  0  0  0  0  0  0  0  0  0
  -24.2330  -13.1320   20.8820 C   0  0  0  0  0  0  0  0  0  0  0  0
  -24.6920  -11.7830   20.7860 C   0  0  0  0  0  0  0  0  0  0  0  0
  -26.3010  -13.0430   20.1350 N   0  0  0  0  0  0  0  0  0  0  0  0
  -25.9580  -11.7540   20.3890 N   0  0  0  0  0  0  0  0  0  0  0  0
  -23.9830  -10.5150   20.9950 C   0  0  0  0  0  0  0  0  0  0  0  0
  -24.4560   -9.5460   21.9060 C   0  0  0  0  0  3  0  0  0  0  0  0
  -23.7480   -8.3400   22.1030 C   0  0  0  0  0  3  0  0  0  0  0  0
  -22.5500   -8.0980   21.3880 C   0  0  0  0  0  0  0  0  0  0  0  0
  -22.0960   -9.0560   20.4650 C   0  0  0  0  0  3  0  0  0  0  0  0
  -22.8060  -10.2510   20.2670 C   0  0  0  0  0  3  0  0  0  0  0  0
  -21.8080   -6.9470   21.4960 O   0  0  0  0  0  0  0  0  0  0  0  0
  -21.7680   -6.2220   22.6600 C   0  0  0  0  0  0  0  0  0  0  0  0
  -21.3510   -6.7940   23.8810 C   0  0  0  0  0  3  0  0  0  0  0  0
  -21.2600   -5.9950   25.0390 C   0  0  0  0  0  3  0  0  0  0  0  0
  -21.5760   -4.6240   24.9750 C   0  0  0  0  0  0  0  0  0  0  0  0
  -21.9850   -4.0510   23.7580 C   0  0  0  0  0  3  0  0  0  0  0  0
  -22.0780   -4.8480   22.6030 C   0  0  0  0  0  0  0  0  0  0  0  0
  -22.4550   -4.2860   21.4290 F   0  0  0  0  0  0  0  0  0  0  0  0
  -21.4810   -3.8540   26.0840 F   0  0  0  0  0  0  0  0  0  0  0  0
  -22.8580  -13.5990   21.2610 C   0  0  0  0  0  0  0  0  0  0  0  0
  -22.1980  -12.8910   22.1690 N   0  0  0  0  0  0  0  0  0  0  0  0
  -22.3790  -14.6290   20.7850 O   0  0  0  0  0  0  0  0  0  0  0  0
  -22.6000  -12.0600   22.5780 H   0  0  0  0  0  0  0  0  0  0  0  0
  -21.2750  -13.1840   22.4610 H   0  0  0  0  0  0  0  0  0  0  0  0
  -25.4250  -15.2910   20.3050 N   0  0  0  0  0  0  0  0  0  0  0  0
  -24.6640  -15.9400   20.4750 H   0  0  0  0  0  0  0  0  0  0  0  0
  -26.2510  -15.7370   19.9270 H   0  0  0  0  0  0  0  0  0  0  0  0
  2  4  2  0
  3  2  1  0
  3  1  1  0
  5  3  1  0
  6  7  1  0
  6  2  1  0
  8 19  2  0
  9  7  1  0
  9 14  1  0
 10 18  1  0
 10 20  1  0
 11 17  1  0
 11 13  1  0
 12 18  1  0
 13 12  1  0
 14 13  2  0
 15 16  1  0
 15  9  2  0
 16 11  2  0
 17 10  1  0
 18  8  1  0
 20 22  2  0
 21 20  1  0
 23 21  1  0
 24 33  2  0
 24 29  1  0
 25 21  1  0
 25 29  1  0
 26 25  1  0
 27 28  1  0
 27 26  1  0
 28 24  1  0
 29 30  2  0
 30 31  1  0
 32 31  2  0
 33 32  1  0
 34  8  1  0
 34 39  1  0
 34 35  1  0
 35 38  1  1
 35 36  1  0
 37 35  1  0
 39 42  1  0
 40 44  1  0
 40 39  1  0
 41 40  2  0
 44 43  1  0
 46 44  1  0
 46 47  1  0
 46 45  1  0
 48  1  1  0
 48 49  1  0
 50 62  1  0
 51 56  1  0
 52 53  1  0
 52 51  1  0
 54 53  1  0
 54 68  1  0
 54 55  1  0
 56 50  1  0
 56 55  1  0
 57 50  2  0
 58 60  1  0
 58 62  1  0
 59 61  1  0
 60 63  1  0
 62 59  1  0
 63 49  1  0
 63 61  1  0
 63 64  1  6
 65 66  2  0
 66 85  1  0
 67 66  1  0
 67 70  1  0
 68 69  1  0
 68 65  1  0
 69 67  2  0
 70 71  1  0
 71 72  2  0
 73 76  1  0
 73 72  1  0
 74 73  2  0
 75 74  1  0
 75 70  2  0
 76 77  1  0
 77 78  1  0
 78 79  2  0
 80 79  1  0
 80 84  1  0
 81 80  2  0
 82 77  2  0
 82 81  1  0
 83 82  1  0
 85 86  1  0
 86 89  1  0
 86 88  1  0
 87 85  2  0
 90 65  1  0
 90 91  1  0
 92 90  1  0
M  ISO  4   6 101   7 101  50 100  62 100
M  END
>  <TORSDO>  (49) 
F 20

>  <SCORE>  (49) 
-13.268

>  <name>  (49) 
48

>  <ligand_id>  (49) 
48

>  <original_smiles>  (49) 
[H]c1c([H])c([H])c2c(c1[H])C([H])([H])C([H])([H])C([H])([H])C2([H])N([H])C(=O)C1([H])N(C(=O)C([H])(N([H])C(=O)C([H])(N([H])C([H])([H])[H])C([H])([H])[H])C(C([H])([H])[H])(C([H])([H])[H])C([H])([H])[H])C([H])([H])c2c([H])c(OC([H])([H])C(=O)N([H])C([H])([H])C([H])([H])C([H])([H])[N+]3([H])C([H])([H])C([H])([H])N(C(=O)N4C([H])([H])C([H])([H])C([H])([H])C([H])(n5nc(-c6c([H])c([H])c(Oc7c([H])c([H])c(F)c([H])c7F)c([H])c6[H])c(C(=O)N([H])[H])c5N([H])[H])C4([H])[H])C([H])([H])C3([H])[H])c([H])c([H])c2C1([H])[H]

>  <smiles>  (49) 
[H]c1c([H])c([H])c2c(c1[H])C([H])([H])C([H])([H])C([H])([H])C2([H])N([H])C(=O)C1([H])N(C(=O)C([H])(N([H])C(=O)C([H])(N([H])C([H])([H])[H])C([H])([H])[H])C(C([H])([H])[H])(C([H])([H])[H])C([H])([H])[H])C([H])([H])c2c([H])c(OC([H])([H])C(=O)N([H])C([H])([H])C([H])([H])C([H])([H])[N+]3([H])C([H])([H])C([H])([H])N(C(=O)N4C([H])([H])C([H])([H])C([H])([H])C([H])(n5nc(-c6c([H])c([H])c(Oc7c([H])c([H])c(F)c([H])c7F)c([H])c6[H])c(C(=O)N([H])[H])c5N([H])[H])C4([H])[H])C([H])([H])C3([H])[H])c([H])c([H])c2C1([H])[H]

$$$$
49:0:0
     RDKit          3D

 90 99  0  0  1  0  0  0  0  0999 V2000
  -29.8110  -20.3560   18.7130 C   0  0  0  0  0  2  0  0  0  0  0  0
  -29.5530  -21.8980   18.8050 C   0  0  0  0  0  2  0  0  0  0  0  0
  -29.3230  -21.0140   20.9140 C   0  0  0  0  0  2  0  0  0  0  0  0
  -29.2750  -19.7080   20.0000 C   0  0  0  0  0  3  0  0  0  0  0  0
  -28.8960  -22.1940   20.0860 N   0  0  0  0  0  0  0  0  0  0  0  0
  -30.7530  -14.6920   19.9720 C   0  0  0  0  0  0  0  0  0  0  0  0
  -30.4610  -12.4440   18.9020 C   0  0  0  0  0  2  0  0  0  0  0  0
  -29.4320  -12.5380   17.7530 C   0  0  0  0  0  2  0  0  0  0  0  0
  -28.0010  -12.3450   18.2900 C   0  0  0  0  0  2  0  0  0  0  0  0
  -27.7200  -13.2030   19.5530 C   0  0  0  0  0  3  0  0  0  0  0  0
  -28.8600  -13.0810   20.5860 C   0  0  0  0  0  2  0  0  0  0  0  0
  -30.1050  -13.4730   19.9110 N   0  0  0  0  0  0  0  0  0  0  0  0
  -31.8780  -14.7950   19.4760 O   0  0  0  0  0  0  0  0  0  0  0  0
  -29.7890  -16.2760   21.6760 C   0  0  0  0  0  2  0  0  0  0  0  0
  -29.4560  -17.8020   21.6970 C   0  0  0  0  0  2  0  0  0  0  0  0
  -30.0910  -17.1830   19.5690 C   0  0  0  0  0  2  0  0  0  0  0  0
  -30.0310  -15.8480   20.2870 N   0  0  0  0  0  0  0  0  0  0  0  0
  -29.9910  -18.4100   20.4620 N   0  0  1  0  0  4  0  0  0  0  0  0
  -30.9460  -18.6660   20.6680 H   0  0  0  0  0  0  0  0  0  0  0  0
  -25.4040  -13.7750   20.4960 C   0  0  0  0  0  0  0  0  0  0  0  0
  -24.3620  -12.9920   20.9110 C   0  0  0  0  0  0  0  0  0  0  0  0
  -24.8060  -11.6410   20.7790 C   0  0  0  0  0  0  0  0  0  0  0  0
  -26.4160  -12.9010   20.1340 N   0  0  0  0  0  0  0  0  0  0  0  0
  -26.0680  -11.6080   20.3660 N   0  0  0  0  0  0  0  0  0  0  0  0
  -24.0830  -10.3760   20.9660 C   0  0  0  0  0  0  0  0  0  0  0  0
  -24.5240   -9.4020   21.8880 C   0  0  0  0  0  3  0  0  0  0  0  0
  -23.8010   -8.2030   22.0650 C   0  0  0  0  0  3  0  0  0  0  0  0
  -22.6220   -7.9690   21.3180 C   0  0  0  0  0  0  0  0  0  0  0  0
  -22.1990   -8.9320   20.3840 C   0  0  0  0  0  3  0  0  0  0  0  0
  -22.9230  -10.1220   20.2060 C   0  0  0  0  0  3  0  0  0  0  0  0
  -21.8680   -6.8220   21.4030 O   0  0  0  0  0  0  0  0  0  0  0  0
  -21.7470   -6.1270   22.5800 C   0  0  0  0  0  0  0  0  0  0  0  0
  -21.2270   -6.7240   23.7480 C   0  0  0  0  0  3  0  0  0  0  0  0
  -21.0560   -5.9550   24.9150 C   0  0  0  0  0  3  0  0  0  0  0  0
  -21.3940   -4.5880   24.9150 C   0  0  0  0  0  0  0  0  0  0  0  0
  -21.9080   -3.9910   23.7510 C   0  0  0  0  0  3  0  0  0  0  0  0
  -22.0820   -4.7580   22.5850 C   0  0  0  0  0  0  0  0  0  0  0  0
  -22.5560   -4.1720   21.4600 F   0  0  0  0  0  0  0  0  0  0  0  0
  -21.2230   -3.8450   26.0340 F   0  0  0  0  0  0  0  0  0  0  0  0
  -22.9960  -13.4670   21.3150 C   0  0  0  0  0  0  0  0  0  0  0  0
  -22.3360  -12.7400   22.2100 N   0  0  0  0  0  0  0  0  0  0  0  0
  -22.5270  -14.5150   20.8740 O   0  0  0  0  0  0  0  0  0  0  0  0
  -22.7310  -11.8900   22.5850 H   0  0  0  0  0  0  0  0  0  0  0  0
  -21.4230  -13.0370   22.5230 H   0  0  0  0  0  0  0  0  0  0  0  0
  -25.5730  -15.1510   20.3730 N   0  0  0  0  0  0  0  0  0  0  0  0
  -24.8260  -15.8090   20.5740 H   0  0  0  0  0  0  0  0  0  0  0  0
  -26.4000  -15.5950   19.9970 H   0  0  0  0  0  0  0  0  0  0  0  0
  -29.0890  -23.6280   20.5840 C   0  0  0  0  0  3  0  0  0  0  0  0
  -28.1620  -24.8280   20.0010 C   0  0  0  0  0  3  0  0  0  0  0  0
  -28.3310  -26.2770   20.3990 O   0  0  0  0  0  0  0  0  0  0  0  0
  -24.5950  -31.8110   23.2600 C   0  0  0  0  0  0  0  0  0  0  0  0
  -27.2440  -27.1810   20.2870 C   0  0  0  0  0  0  0  0  0  0  0  0
  -23.4250  -30.4180   21.5930 C   0  0  0  0  0  3  0  0  0  0  0  0
  -24.9010  -28.8530   20.2040 C   0  0  0  0  0  0  0  0  0  0  0  0
  -25.9750  -30.7030   21.4810 C   0  0  0  0  0  2  0  0  0  0  0  0
  -26.0600  -29.3190   20.8370 C   0  0  0  0  0  0  0  0  0  0  0  0
  -27.2320  -28.4940   20.8710 C   0  0  0  0  0  3  0  0  0  0  0  0
  -26.0650  -26.7940   19.6070 C   0  0  0  0  0  3  0  0  0  0  0  0
  -24.9100  -27.5970   19.5780 C   0  0  0  0  0  3  0  0  0  0  0  0
  -23.6720  -29.7390   20.2210 C   0  0  0  0  0  2  0  0  0  0  0  0
  -24.6830  -30.9960   22.1680 N   0  0  0  0  0  0  0  0  0  0  0  0
  -23.4990  -32.0990   23.7650 O   0  0  0  0  0  0  0  0  0  0  0  0
  -22.7280  -29.4090   22.5390 C   0  0  0  0  0  0  0  0  0  0  0  0
  -21.4030  -29.2420   22.3800 N   0  0  0  0  0  0  0  0  0  0  0  0
  -23.3810  -28.7800   23.3760 O   0  0  0  0  0  0  0  0  0  0  0  0
  -20.9370  -29.8030   21.6810 H   0  0  0  0  0  0  0  0  0  0  0  0
  -18.0020  -28.0860   22.8130 C   0  0  0  0  0  0  0  0  0  0  0  0
  -20.5580  -28.3140   23.1330 C   0  0  0  0  0  3  0  0  0  0  0  0
  -20.6530  -26.8820   22.5560 C   0  0  0  0  0  2  0  0  0  0  0  0
  -19.5680  -26.5750   21.5200 C   0  0  0  0  0  2  0  0  0  0  0  0
  -18.1750  -26.7370   22.1360 C   0  0  0  0  0  2  0  0  0  0  0  0
  -19.1220  -28.8330   23.2670 C   0  0  0  0  0  0  0  0  0  0  0  0
  -18.9060  -30.0960   23.8580 C   0  0  0  0  0  3  0  0  0  0  0  0
  -17.6040  -30.6120   24.0010 C   0  0  0  0  0  3  0  0  0  0  0  0
  -16.4990  -29.8620   23.5650 C   0  0  0  0  0  3  0  0  0  0  0  0
  -16.6980  -28.6010   22.9770 C   0  0  0  0  0  3  0  0  0  0  0  0
  -25.8650  -32.4370   23.9150 C   0  0  0  0  0  3  0  0  0  0  0  0
  -25.5580  -33.8420   24.2260 N   0  0  0  0  0  0  0  0  0  0  0  0
  -25.8930  -34.8850   23.4570 C   0  0  0  0  0  0  0  0  0  0  0  0
  -26.5630  -34.7680   22.4260 O   0  0  0  0  0  0  0  0  0  0  0  0
  -24.9670  -34.0060   25.0280 H   0  0  0  0  0  0  0  0  0  0  0  0
  -24.1600  -36.6720   23.0940 C   0  0  0  0  0  1  0  0  0  0  0  0
  -25.4100  -36.2810   23.8980 C   0  0  0  0  0  3  0  0  0  0  0  0
  -27.5510  -37.1810   24.6970 C   0  0  0  0  0  1  0  0  0  0  0  0
  -26.4410  -37.3330   23.7600 N   0  0  0  0  0  0  0  0  0  0  0  0
  -26.0350  -38.2540   23.8970 H   0  0  0  0  0  0  0  0  0  0  0  0
  -26.3360  -31.6730   25.2120 C   0  0  1  0  0  0  0  0  0  0  0  0
  -25.2090  -31.4520   26.2480 C   0  0  0  0  0  1  0  0  0  0  0  0
  -26.9220  -30.2880   24.8510 C   0  0  0  0  0  1  0  0  0  0  0  0
  -27.4720  -32.4640   25.9030 C   0  0  0  0  0  1  0  0  0  0  0  0
  1  2  1  0
  2  5  1  0
  4  1  1  0
  4 18  1  0
  4  3  1  0
  5 48  1  0
  5  3  1  0
  6 17  1  0
  7 12  1  0
  8  9  1  0
  8  7  1  0
 10  9  1  0
 10 23  1  0
 10 11  1  0
 12  6  1  0
 12 11  1  0
 13  6  2  0
 14 15  1  0
 16 17  1  0
 16 18  1  0
 17 14  1  0
 18 19  1  1
 18 15  1  0
 20 21  2  0
 21 40  1  0
 22 21  1  0
 22 25  1  0
 23 24  1  0
 23 20  1  0
 24 22  2  0
 25 26  1  0
 26 27  2  0
 28 31  1  0
 28 27  1  0
 29 28  2  0
 30 29  1  0
 30 25  2  0
 31 32  1  0
 32 37  2  0
 32 33  1  0
 33 34  2  0
 35 34  1  0
 35 39  1  0
 36 35  2  0
 37 36  1  0
 38 37  1  0
 40 41  1  0
 41 44  1  0
 41 43  1  0
 42 40  2  0
 45 20  1  0
 45 46  1  0
 47 45  1  0
 49 50  1  0
 49 48  2  0
 51 62  2  0
 52 50  1  0
 52 57  1  0
 53 61  1  0
 53 63  1  0
 54 60  1  0
 54 56  1  0
 55 61  1  0
 56 57  2  0
 56 55  1  0
 58 52  2  0
 59 58  1  0
 59 54  2  0
 60 53  1  0
 61 51  1  0
 63 65  2  0
 64 63  1  0
 66 64  1  0
 67 76  2  0
 67 72  1  0
 68 64  1  0
 68 72  1  0
 69 68  1  0
 70 71  1  0
 70 69  1  0
 71 67  1  0
 72 73  2  0
 73 74  1  0
 75 74  2  0
 76 75  1  0
 77 51  1  0
 77 78  1  0
 77 87  1  0
 78 81  1  0
 79 83  1  0
 79 78  1  0
 80 79  2  0
 83 82  1  0
 85 86  1  0
 85 83  1  0
 85 84  1  0
 87 90  1  1
 87 88  1  0
 89 87  1  0
M  ISO  4   6 100  17 100  49 101  50 101
M  END
>  <TORSDO>  (50) 
F 18

>  <SCORE>  (50) 
-13.766

>  <name>  (50) 
49

>  <ligand_id>  (50) 
49

>  <original_smiles>  (50) 
[H]c1c([H])c([H])c2c(c1[H])C([H])([H])C([H])([H])C([H])([H])C2([H])N([H])C(=O)C1([H])N(C(=O)C([H])(N([H])C(=O)C([H])(N([H])C([H])([H])[H])C([H])([H])[H])C(C([H])([H])[H])(C([H])([H])[H])C([H])([H])[H])C([H])([H])c2c([H])c(OC([H])([H])C([H])([H])N3C([H])([H])C([H])([H])C([H])([N+]4([H])C([H])([H])N(C(=O)N5C([H])([H])C([H])([H])C([H])([H])C([H])(n6nc(-c7c([H])c([H])c(Oc8c([H])c([H])c(F)c([H])c8F)c([H])c7[H])c(C(=O)N([H])[H])c6N([H])[H])C5([H])[H])C([H])([H])C4([H])[H])C3([H])[H])c([H])c([H])c2C1([H])[H]

>  <smiles>  (50) 
[H]c1c([H])c([H])c2c(c1[H])C([H])([H])C([H])([H])C([H])([H])C2([H])N([H])C(=O)C1([H])N(C(=O)C([H])(N([H])C(=O)C([H])(N([H])C([H])([H])[H])C([H])([H])[H])C(C([H])([H])[H])(C([H])([H])[H])C([H])([H])[H])C([H])([H])c2c([H])c(OC([H])([H])C([H])([H])N3C([H])([H])C([H])([H])C([H])([N+]4([H])C([H])([H])N(C(=O)N5C([H])([H])C([H])([H])C([H])([H])C([H])(n6nc(-c7c([H])c([H])c(Oc8c([H])c([H])c(F)c([H])c8F)c([H])c7[H])c(C(=O)N([H])[H])c6N([H])[H])C5([H])[H])C([H])([H])C4([H])[H])C3([H])[H])c([H])c([H])c2C1([H])[H]

$$$$
50:0:0
     RDKit          3D

 89 91  0  0  1  0  0  0  0  0999 V2000
  -32.1090  -18.3410   19.9130 C   0  0  0  0  0  1  0  0  0  0  0  0
  -30.0800  -16.5360   21.4630 C   0  0  0  0  0  2  0  0  0  0  0  0
  -29.5520  -15.8800   22.6910 C   0  0  0  0  0  1  0  0  0  0  0  0
  -32.0070  -16.7610   21.1070 N   0  0  0  0  0 15  0  0  0  0  0  0
  -29.1010  -17.7200   20.4670 N   0  0  0  0  0  1  0  0  0  0  0  0
  -30.3020  -19.0220   19.4370 N   0  0  0  0  0 15  0  0  0  0  0  0
  -30.7080  -16.6140   19.2330 C   0  0  0  0  0  2  0  0  0  0  0  0
  -30.8150  -13.8300   18.3380 C   0  0  0  0  0  2  0  0  0  0  0  0
  -29.8100  -13.1980   17.2810 C   0  0  0  0  0  2  0  0  0  0  0  0
  -28.5040  -12.7130   17.9220 C   0  0  0  0  0  2  0  0  0  0  0  0
  -28.0920  -13.7410   18.9750 C   0  0  0  0  0  3  0  0  0  0  0  0
  -29.2360  -14.2030   19.9220 C   0  0  0  0  0  2  0  0  0  0  0  0
  -30.2920  -15.0630   19.2210 N   0  0  0  0  0  0  0  0  0  0  0  0
  -31.6190  -16.4080   18.3550 O   0  0  0  0  0  1  0  0  0  0  0  0
  -31.3430  -20.0870   21.3780 C   0  0  0  0  0  3  0  0  0  0  0  0
  -32.0750  -18.8210   22.3860 C   0  0  0  0  0  3  0  0  0  0  0  0
  -32.5780  -19.3180   21.0090 C   0  0  0  0  0  3  0  0  0  0  0  0
  -30.8200  -18.6090   21.4690 N   0  0  0  0  0  2  0  0  0  0  0  0
  -25.9440  -14.2970   20.2030 C   0  0  0  0  0  0  0  0  0  0  0  0
  -24.9070  -13.5540   20.6890 C   0  0  0  0  0  0  0  0  0  0  0  0
  -25.2520  -12.1870   20.4500 C   0  0  0  0  0  0  0  0  0  0  0  0
  -26.8580  -13.3980   19.6890 N   0  0  0  0  0  0  0  0  0  0  0  0
  -26.4690  -12.1090   19.9030 N   0  0  0  0  0  0  0  0  0  0  0  0
  -24.4600  -10.9640   20.6660 C   0  0  0  0  0  0  0  0  0  0  0  0
  -24.8980   -9.9390   21.5330 C   0  0  0  0  0  3  0  0  0  0  0  0
  -24.1050   -8.7900   21.7470 C   0  0  0  0  0  3  0  0  0  0  0  0
  -22.8580   -8.6530   21.0930 C   0  0  0  0  0  0  0  0  0  0  0  0
  -22.4370   -9.6630   20.2100 C   0  0  0  0  0  3  0  0  0  0  0  0
  -23.2280  -10.8050   19.9950 C   0  0  0  0  0  3  0  0  0  0  0  0
  -22.0350   -7.5580   21.2170 O   0  0  0  0  0  0  0  0  0  0  0  0
  -21.8570   -6.9180   22.4180 C   0  0  0  0  0  0  0  0  0  0  0  0
  -21.3330   -7.5870   23.5460 C   0  0  0  0  0  3  0  0  0  0  0  0
  -21.1050   -6.8780   24.7420 C   0  0  0  0  0  3  0  0  0  0  0  0
  -21.3880   -5.5000   24.8100 C   0  0  0  0  0  0  0  0  0  0  0  0
  -21.9000   -4.8310   23.6850 C   0  0  0  0  0  3  0  0  0  0  0  0
  -22.1330   -5.5380   22.4930 C   0  0  0  0  0  0  0  0  0  0  0  0
  -22.6090   -4.8830   21.4060 F   0  0  0  0  0  0  0  0  0  0  0  0
  -21.1600   -4.8170   25.9550 F   0  0  0  0  0  0  0  0  0  0  0  0
  -23.6230  -14.0930   21.2480 C   0  0  0  0  0  0  0  0  0  0  0  0
  -23.0500  -13.4120   22.2330 N   0  0  0  0  0  0  0  0  0  0  0  0
  -23.1480  -15.1550   20.8450 O   0  0  0  0  0  0  0  0  0  0  0  0
  -23.4510  -12.5490   22.5710 H   0  0  0  0  0  0  0  0  0  0  0  0
  -22.2000  -13.7530   22.6580 H   0  0  0  0  0  0  0  0  0  0  0  0
  -26.1790  -15.6670   20.1190 N   0  0  0  0  0  0  0  0  0  0  0  0
  -25.5110  -16.3580   20.4400 H   0  0  0  0  0  0  0  0  0  0  0  0
  -27.0060  -16.0830   19.7100 H   0  0  0  0  0  0  0  0  0  0  0  0
  -29.7200  -20.9840   19.1100 C   0  0  0  0  0 15  0  0  0  0  0  0
  -29.0010  -22.9970   19.7890 C   0  0  0  0  0 15  0  0  0  0  0  0
  -28.7660  -24.9910   19.6420 O   0  0  0  0  0  1  0  0  0  0  0  0
  -24.7660  -31.4310   22.8830 C   0  0  0  0  0  0  0  0  0  0  0  0
  -27.7160  -26.3130   19.7320 C   0  0  0  0  0  0  0  0  0  0  0  0
  -23.7310  -30.0190   21.1690 C   0  0  0  0  0  3  0  0  0  0  0  0
  -25.3250  -28.4620   19.7320 C   0  0  0  0  0  0  0  0  0  0  0  0
  -26.3200  -30.2260   21.1420 C   0  0  0  0  0  2  0  0  0  0  0  0
  -26.4990  -28.7870   20.4190 C   0  0  0  0  0  0  0  0  0  0  0  0
  -27.6570  -27.7640   20.3620 C   0  0  0  0  0  3  0  0  0  0  0  0
  -26.4760  -26.3170   18.9990 C   0  0  0  0  0  3  0  0  0  0  0  0
  -25.3790  -27.2660   18.9880 C   0  0  0  0  0  3  0  0  0  0  0  0
  -24.0650  -29.3740   19.7880 C   0  0  0  0  0  2  0  0  0  0  0  0
  -24.9670  -30.6050   21.7840 N   0  0  0  0  0  0  0  0  0  0  0  0
  -23.6340  -31.6460   23.3570 O   0  0  0  0  0  0  0  0  0  0  0  0
  -23.0270  -28.9830   22.0900 C   0  0  0  0  0  0  0  0  0  0  0  0
  -21.7040  -28.7700   21.9360 N   0  0  0  0  0  0  0  0  0  0  0  0
  -23.6920  -28.3640   22.9220 O   0  0  0  0  0  0  0  0  0  0  0  0
  -21.2080  -29.3140   21.2440 H   0  0  0  0  0  0  0  0  0  0  0  0
  -18.3730  -27.3630   22.3980 C   0  0  0  0  0  0  0  0  0  0  0  0
  -20.9230  -27.7450   22.6470 C   0  0  0  0  0  3  0  0  0  0  0  0
  -21.0840  -26.3640   21.9680 C   0  0  0  0  0  2  0  0  0  0  0  0
  -19.9840  -26.0630   20.9450 C   0  0  0  0  0  2  0  0  0  0  0  0
  -18.6070  -26.0860   21.6100 C   0  0  0  0  0  2  0  0  0  0  0  0
  -19.4570  -28.1530   22.8670 C   0  0  0  0  0  0  0  0  0  0  0  0
  -19.1760  -29.3460   23.5700 C   0  0  0  0  0  3  0  0  0  0  0  0
  -17.8470  -29.7510   23.8020 C   0  0  0  0  0  3  0  0  0  0  0  0
  -16.7800  -28.9600   23.3420 C   0  0  0  0  0  3  0  0  0  0  0  0
  -17.0440  -27.7670   22.6470 C   0  0  0  0  0  3  0  0  0  0  0  0
  -25.9410  -32.1580   23.6030 C   0  0  0  0  0  3  0  0  0  0  0  0
  -25.4970  -33.5170   23.9880 N   0  0  0  0  0  0  0  0  0  0  0  0
  -25.7800  -34.6490   23.3270 C   0  0  0  0  0  0  0  0  0  0  0  0
  -26.4850  -34.6620   22.3140 O   0  0  0  0  0  0  0  0  0  0  0  0
  -24.8660  -33.5750   24.7740 H   0  0  0  0  0  0  0  0  0  0  0  0
  -23.9430  -36.3560   23.0590 C   0  0  0  0  0  1  0  0  0  0  0  0
  -25.1970  -35.9760   23.8630 C   0  0  0  0  0  3  0  0  0  0  0  0
  -27.2360  -36.9710   24.8110 C   0  0  0  0  0  1  0  0  0  0  0  0
  -26.1590  -37.1020   23.8340 N   0  0  0  0  0  0  0  0  0  0  0  0
  -25.6860  -37.9860   23.9990 H   0  0  0  0  0  0  0  0  0  0  0  0
  -26.4410  -31.3910   24.8900 C   0  0  1  0  0  0  0  0  0  0  0  0
  -25.3120  -31.0540   25.8960 C   0  0  0  0  0  1  0  0  0  0  0  0
  -27.1290  -30.0620   24.5150 C   0  0  0  0  0  1  0  0  0  0  0  0
  -27.5110  -32.2410   25.6190 C   0  0  0  0  0  1  0  0  0  0  0  0
  2  3  1  0
  5  2  1  0
  8 13  1  0
  9 10  1  0
  9  8  1  0
 11 10  1  0
 11 22  1  0
 11 12  1  0
 13  7  1  0
 13 12  1  0
 14  7  1  0
 15 18  1  0
 15 16  1  0
 16 18  1  0
 17  1  1  0
 17 15  1  0
 17 16  1  0
 19 20  2  0
 20 39  1  0
 21 24  1  0
 21 20  1  0
 22 23  1  0
 22 19  1  0
 23 21  2  0
 24 25  1  0
 25 26  2  0
 27 30  1  0
 27 26  1  0
 28 27  2  0
 29 28  1  0
 29 24  2  0
 30 31  1  0
 31 36  2  0
 31 32  1  0
 32 33  2  0
 33 34  1  0
 34 38  1  0
 35 34  2  0
 36 35  1  0
 37 36  1  0
 39 40  1  0
 40 42  1  0
 40 43  1  0
 41 39  2  0
 44 19  1  0
 44 45  1  0
 46 44  1  0
 49 51  1  0
 50 61  2  0
 51 56  1  0
 52 60  1  0
 52 62  1  0
 53 59  1  0
 53 55  1  0
 54 60  1  0
 55 54  1  0
 56 55  2  0
 57 51  2  0
 58 57  1  0
 58 53  2  0
 59 52  1  0
 60 50  1  0
 62 64  2  0
 63 62  1  0
 65 63  1  0
 66 75  2  0
 66 71  1  0
 67 63  1  0
 67 71  1  0
 68 67  1  0
 69 70  1  0
 69 68  1  0
 70 66  1  0
 71 72  2  0
 72 73  1  0
 74 73  2  0
 75 74  1  0
 76 50  1  0
 76 77  1  0
 76 86  1  0
 77 80  1  0
 78 82  1  0
 78 77  1  0
 79 78  2  0
 82 81  1  0
 84 82  1  0
 84 85  1  0
 84 83  1  0
 86 89  1  1
 86 87  1  0
 88 86  1  0
M  ISO  4   7 100  18 100  48 101  49 101
M  END
>  <TORSDO>  (51) 
F 18

>  <SCORE>  (51) 
-10.770

>  <name>  (51) 
50

>  <ligand_id>  (51) 
50

>  <original_smiles>  (51) 
[H]c1c([H])c([H])c2c(c1[H])C([H])([H])C([H])([H])C([H])([H])C2([H])N([H])C(=O)C1([H])N(C(=O)C([H])(N([H])C(=O)C([H])(N([H])C([H])([H])[H])C([H])([H])[H])C(C([H])([H])[H])(C([H])([H])[H])C([H])([H])[H])C([H])([H])c2c([H])c(OC([H])([H])C([H])([H])n3nc(C([H])([H])[H])nc3C3([H])C([H])([H])N(C(=O)N4C([H])([H])C([H])([H])C([H])([H])C([H])(n5nc(-c6c([H])c([H])c(Oc7c([H])c([H])c(F)c([H])c7F)c([H])c6[H])c(C(=O)N([H])[H])c5N([H])[H])C4([H])[H])C3([H])[H])c([H])c([H])c2C1([H])[H]

>  <smiles>  (51) 
[H]c1c([H])c([H])c2c(c1[H])C([H])([H])C([H])([H])C([H])([H])C2([H])N([H])C(=O)C1([H])N(C(=O)C([H])(N([H])C(=O)C([H])(N([H])C([H])([H])[H])C([H])([H])[H])C(C([H])([H])[H])(C([H])([H])[H])C([H])([H])[H])C([H])([H])c2c([H])c(OC([H])([H])C([H])([H])n3nc(C([H])([H])[H])nc3C3([H])C([H])([H])N(C(=O)N4C([H])([H])C([H])([H])C([H])([H])C([H])(n5nc(-c6c([H])c([H])c(Oc7c([H])c([H])c(F)c([H])c7F)c([H])c6[H])c(C(=O)N([H])[H])c5N([H])[H])C4([H])[H])C3([H])[H])c([H])c([H])c2C1([H])[H]

$$$$
51:0:0
     RDKit          3D

 92101  0  0  1  0  0  0  0  0999 V2000
  -28.2600  -23.0750   21.3490 C   0  0  0  0  0  3  0  0  0  0  0  0
  -28.5780  -21.6620   21.4200 C   0  0  0  0  0  3  0  0  0  0  0  0
  -28.6130  -23.6110   20.1280 C   0  0  0  0  0  0  0  0  0  0  0  0
  -29.1430  -21.2800   20.2330 C   0  0  0  0  0  0  0  0  0  0  0  0
  -29.1510  -22.4680   19.4380 N   0  0  0  0  0  0  0  0  0  0  0  0
  -31.0980  -22.9330   17.9760 C   0  0  0  0  0  1  0  0  0  0  0  0
  -29.6290  -22.5050   18.0640 C   0  0  0  0  0  2  0  0  0  0  0  0
  -29.7070  -19.9740   19.8680 N   0  0  0  0  0  0  0  0  0  0  0  0
  -30.1960  -19.9870   18.9770 H   0  0  0  0  0  0  0  0  0  0  0  0
  -30.6660  -14.8460   20.0110 C   0  0  0  0  0  0  0  0  0  0  0  0
  -30.3900  -12.5840   18.9460 C   0  0  0  0  0  2  0  0  0  0  0  0
  -29.3820  -12.6730   17.7800 C   0  0  0  0  0  2  0  0  0  0  0  0
  -27.9440  -12.4790   18.2960 C   0  0  0  0  0  2  0  0  0  0  0  0
  -27.6440  -13.3330   19.5580 C   0  0  0  0  0  3  0  0  0  0  0  0
  -28.7710  -13.2330   20.6090 C   0  0  0  0  0  2  0  0  0  0  0  0
  -30.0190  -13.6240   19.9420 N   0  0  0  0  0  0  0  0  0  0  0  0
  -31.8070  -14.9260   19.5410 O   0  0  0  0  0  0  0  0  0  0  0  0
  -29.7480  -18.0860   21.6900 C   0  0  0  0  0  2  0  0  0  0  0  0
  -29.7260  -16.5160   21.6660 C   0  0  0  0  0  2  0  0  0  0  0  0
  -29.9720  -17.3170   19.4910 C   0  0  0  0  0  2  0  0  0  0  0  0
  -29.3310  -18.5510   20.2930 C   0  0  0  0  0  3  0  0  0  0  0  0
  -29.9440  -16.0240   20.2900 N   0  0  0  0  0  0  0  0  0  0  0  0
  -25.3090  -13.8970   20.4500 C   0  0  0  0  0  0  0  0  0  0  0  0
  -24.2670  -13.1110   20.8630 C   0  0  0  0  0  0  0  0  0  0  0  0
  -24.7280  -11.7630   20.7690 C   0  0  0  0  0  0  0  0  0  0  0  0
  -26.3350  -13.0260   20.1240 N   0  0  0  0  0  0  0  0  0  0  0  0
  -25.9970  -11.7340   20.3800 N   0  0  0  0  0  0  0  0  0  0  0  0
  -24.0130  -10.4960   20.9740 C   0  0  0  0  0  0  0  0  0  0  0  0
  -24.4760   -9.5240   21.8880 C   0  0  0  0  0  3  0  0  0  0  0  0
  -23.7600   -8.3230   22.0810 C   0  0  0  0  0  3  0  0  0  0  0  0
  -22.5670   -8.0840   21.3570 C   0  0  0  0  0  0  0  0  0  0  0  0
  -22.1240   -9.0430   20.4310 C   0  0  0  0  0  3  0  0  0  0  0  0
  -22.8390  -10.2360   20.2370 C   0  0  0  0  0  3  0  0  0  0  0  0
  -21.8200   -6.9340   21.4600 O   0  0  0  0  0  0  0  0  0  0  0  0
  -21.7700   -6.2110   22.6230 C   0  0  0  0  0  0  0  0  0  0  0  0
  -21.3440   -6.7860   23.8400 C   0  0  0  0  0  3  0  0  0  0  0  0
  -21.2380   -5.9880   24.9980 C   0  0  0  0  0  3  0  0  0  0  0  0
  -21.5490   -4.6160   24.9390 C   0  0  0  0  0  0  0  0  0  0  0  0
  -21.9670   -4.0400   23.7270 C   0  0  0  0  0  3  0  0  0  0  0  0
  -22.0730   -4.8350   22.5710 C   0  0  0  0  0  0  0  0  0  0  0  0
  -22.4570   -4.2690   21.4010 F   0  0  0  0  0  0  0  0  0  0  0  0
  -21.4410   -3.8490   26.0480 F   0  0  0  0  0  0  0  0  0  0  0  0
  -22.8900  -13.5810   21.2340 C   0  0  0  0  0  0  0  0  0  0  0  0
  -22.2200  -12.8700   22.1350 N   0  0  0  0  0  0  0  0  0  0  0  0
  -22.4190  -14.6130   20.7600 O   0  0  0  0  0  0  0  0  0  0  0  0
  -22.6160  -12.0370   22.5420 H   0  0  0  0  0  0  0  0  0  0  0  0
  -21.2990  -13.1680   22.4220 H   0  0  0  0  0  0  0  0  0  0  0  0
  -25.4640  -15.2720   20.3030 N   0  0  0  0  0  0  0  0  0  0  0  0
  -24.7100  -15.9270   20.4860 H   0  0  0  0  0  0  0  0  0  0  0  0
  -26.3040  -15.7220   19.9630 H   0  0  0  0  0  0  0  0  0  0  0  0
  -28.4290  -25.0570   19.4460 C   0  0  0  0  0  2  0  0  0  0  0  0
  -28.2950  -26.3260   20.2680 O   0  0  0  0  0  0  0  0  0  0  0  0
  -24.6040  -31.8670   23.2280 C   0  0  0  0  0  0  0  0  0  0  0  0
  -27.2060  -27.2420   20.1600 C   0  0  0  0  0  0  0  0  0  0  0  0
  -23.4050  -30.4770   21.5820 C   0  0  0  0  0  3  0  0  0  0  0  0
  -24.8580  -28.9280   20.1460 C   0  0  0  0  0  0  0  0  0  0  0  0
  -25.9530  -30.7710   21.4120 C   0  0  0  0  0  2  0  0  0  0  0  0
  -26.0310  -29.3910   20.7540 C   0  0  0  0  0  0  0  0  0  0  0  0
  -27.2030  -28.5600   20.7520 C   0  0  0  0  0  3  0  0  0  0  0  0
  -25.9990  -26.8560   19.5320 C   0  0  0  0  0  3  0  0  0  0  0  0
  -24.8500  -27.6710   19.5260 C   0  0  0  0  0  3  0  0  0  0  0  0
  -23.6250  -29.8100   20.1990 C   0  0  0  0  0  2  0  0  0  0  0  0
  -24.6730  -31.0580   22.1290 N   0  0  0  0  0  0  0  0  0  0  0  0
  -23.5180  -32.1440   23.7610 O   0  0  0  0  0  0  0  0  0  0  0  0
  -22.7360  -29.4580   22.5360 C   0  0  0  0  0  0  0  0  0  0  0  0
  -21.4090  -29.2830   22.4080 N   0  0  0  0  0  0  0  0  0  0  0  0
  -23.4110  -28.8300   23.3560 O   0  0  0  0  0  0  0  0  0  0  0  0
  -20.9210  -29.8400   21.7210 H   0  0  0  0  0  0  0  0  0  0  0  0
  -18.0330  -28.0710   22.8960 C   0  0  0  0  0  0  0  0  0  0  0  0
  -20.5900  -28.3420   23.1760 C   0  0  0  0  0  3  0  0  0  0  0  0
  -20.7000  -26.9100   22.6020 C   0  0  0  0  0  2  0  0  0  0  0  0
  -19.6040  -26.5840   21.5820 C   0  0  0  0  0  2  0  0  0  0  0  0
  -18.2180  -26.7230   22.2180 C   0  0  0  0  0  2  0  0  0  0  0  0
  -19.1470  -28.8370   23.3310 C   0  0  0  0  0  0  0  0  0  0  0  0
  -18.9190  -30.0980   23.9250 C   0  0  0  0  0  3  0  0  0  0  0  0
  -17.6120  -30.5920   24.0880 C   0  0  0  0  0  3  0  0  0  0  0  0
  -16.5120  -29.8230   23.6680 C   0  0  0  0  0  3  0  0  0  0  0  0
  -16.7240  -28.5640   23.0780 C   0  0  0  0  0  3  0  0  0  0  0  0
  -25.8830  -32.5010   23.8570 C   0  0  0  0  0  3  0  0  0  0  0  0
  -26.3940  -31.7270   25.1350 C   0  0  1  0  0  0  0  0  0  0  0  0
  -25.2980  -31.4930   26.2010 C   0  0  0  0  0  1  0  0  0  0  0  0
  -26.9770  -30.3470   24.7490 C   0  0  0  0  0  1  0  0  0  0  0  0
  -27.5420  -32.5210   25.8000 C   0  0  0  0  0  1  0  0  0  0  0  0
  -25.5680  -33.8970   24.1930 N   0  0  0  0  0  0  0  0  0  0  0  0
  -25.8940  -34.9560   23.4400 C   0  0  0  0  0  0  0  0  0  0  0  0
  -26.5610  -34.8600   22.4070 O   0  0  0  0  0  0  0  0  0  0  0  0
  -24.9750  -34.0450   24.9970 H   0  0  0  0  0  0  0  0  0  0  0  0
  -24.1610  -36.7490   23.1070 C   0  0  0  0  0  1  0  0  0  0  0  0
  -25.4060  -36.3420   23.9090 C   0  0  0  0  0  3  0  0  0  0  0  0
  -27.5460  -37.2270   24.7290 C   0  0  0  0  0  1  0  0  0  0  0  0
  -26.4350  -37.4000   23.7970 N   0  0  0  0  0  0  0  0  0  0  0  0
  -26.0260  -38.3160   23.9600 H   0  0  0  0  0  0  0  0  0  0  0  0
  1  2  1  0
  3  1  2  0
  4  2  2  0
  5  3  1  0
  5  4  1  0
  6  7  1  0
  7  5  1  0
  8  4  1  0
  9  8  1  0
 10 22  1  0
 11 16  1  0
 12 13  1  0
 12 11  1  0
 14 13  1  0
 14 26  1  0
 14 15  1  0
 16 10  1  0
 16 15  1  0
 17 10  2  0
 19 18  1  0
 20 22  1  0
 20 21  1  0
 21  8  1  0
 21 18  1  0
 22 19  1  0
 23 24  2  0
 24 43  1  0
 25 24  1  0
 25 28  1  0
 26 27  1  0
 26 23  1  0
 27 25  2  0
 28 29  1  0
 29 30  2  0
 31 34  1  0
 31 30  1  0
 32 31  2  0
 33 32  1  0
 33 28  2  0
 34 35  1  0
 35 36  1  0
 36 37  2  0
 38 37  1  0
 38 42  1  0
 39 38  2  0
 40 35  2  0
 40 39  1  0
 41 40  1  0
 43 44  1  0
 44 47  1  0
 44 46  1  0
 45 43  2  0
 48 23  1  0
 48 49  1  0
 50 48  1  0
 51  3  1  0
 51 52  1  0
 53 64  2  0
 54 52  1  0
 54 59  1  0
 55 63  1  0
 55 65  1  0
 56 62  1  0
 56 58  1  0
 57 63  1  0
 58 57  1  0
 59 58  2  0
 60 54  2  0
 61 60  1  0
 61 56  2  0
 62 55  1  0
 63 53  1  0
 65 67  2  0
 66 65  1  0
 68 66  1  0
 69 78  2  0
 69 74  1  0
 70 66  1  0
 70 74  1  0
 71 70  1  0
 72 73  1  0
 72 71  1  0
 73 69  1  0
 74 75  2  0
 75 76  1  0
 77 76  2  0
 78 77  1  0
 79 53  1  0
 79 84  1  0
 79 80  1  0
 80 83  1  1
 80 81  1  0
 82 80  1  0
 84 87  1  0
 85 89  1  0
 85 84  1  0
 86 85  2  0
 89 88  1  0
 91 89  1  0
 91 92  1  0
 91 90  1  0
M  ISO  4  10 100  22 100  51 101  52 101
M  END
>  <TORSDO>  (52) 
F 19

>  <SCORE>  (52) 
-13.915

>  <name>  (52) 
51

>  <ligand_id>  (52) 
51

>  <original_smiles>  (52) 
[H]c1c([H])c([H])c2c(c1[H])C([H])([H])C([H])([H])C([H])([H])C2([H])N([H])C(=O)C1([H])N(C(=O)C([H])(N([H])C(=O)C([H])(N([H])C([H])([H])[H])C([H])([H])[H])C(C([H])([H])[H])(C([H])([H])[H])C([H])([H])[H])C([H])([H])c2c([H])c(OC([H])([H])c3c([H])c([H])c(N([H])C4([H])C([H])([H])N(C(=O)N5C([H])([H])C([H])([H])C([H])([H])C([H])(n6nc(-c7c([H])c([H])c(Oc8c([H])c([H])c(F)c([H])c8F)c([H])c7[H])c(C(=O)N([H])[H])c6N([H])[H])C5([H])[H])C([H])([H])C4([H])[H])n3C([H])([H])C([H])([H])[H])c([H])c([H])c2C1([H])[H]

>  <smiles>  (52) 
[H]c1c([H])c([H])c2c(c1[H])C([H])([H])C([H])([H])C([H])([H])C2([H])N([H])C(=O)C1([H])N(C(=O)C([H])(N([H])C(=O)C([H])(N([H])C([H])([H])[H])C([H])([H])[H])C(C([H])([H])[H])(C([H])([H])[H])C([H])([H])[H])C([H])([H])c2c([H])c(OC([H])([H])c3c([H])c([H])c(N([H])C4([H])C([H])([H])N(C(=O)N5C([H])([H])C([H])([H])C([H])([H])C([H])(n6nc(-c7c([H])c([H])c(Oc8c([H])c([H])c(F)c([H])c8F)c([H])c7[H])c(C(=O)N([H])[H])c6N([H])[H])C5([H])[H])C([H])([H])C4([H])[H])n3C([H])([H])C([H])([H])[H])c([H])c([H])c2C1([H])[H]

$$$$
52:0:0
     RDKit          3D

 92101  0  0  1  0  0  0  0  0999 V2000
  -30.7350  -21.0890   19.5620 C   0  0  0  0  0  3  0  0  0  0  0  0
  -29.5820  -20.9260   20.3330 C   0  0  0  0  0  0  0  0  0  0  0  0
  -31.5240  -19.9660   19.2840 C   0  0  0  0  0  0  0  0  0  0  0  0
  -30.1130  -18.5850   20.4650 C   0  0  0  0  0  0  0  0  0  0  0  0
  -29.2980  -19.6420   20.7850 N   0  0  0  0  0  0  0  0  0  0  0  0
  -31.1960  -18.7290   19.7100 N   0  0  0  0  0  0  0  0  0  0  0  0
  -27.7190  -22.6540   19.5870 C   0  0  0  0  0  2  0  0  0  0  0  0
  -28.6600  -22.1720   20.6540 C   0  0  0  0  0  3  0  0  0  0  0  0
  -28.7110  -23.6870   20.0970 C   0  0  0  0  0  3  0  0  0  0  0  0
  -28.1160  -25.0170   20.7720 C   0  0  0  0  0  2  0  0  0  0  0  0
  -28.3400  -26.4120   20.2490 O   0  0  0  0  0  0  0  0  0  0  0  0
  -24.6050  -31.8950   23.2200 C   0  0  0  0  0  0  0  0  0  0  0  0
  -27.2420  -27.2990   20.2130 C   0  0  0  0  0  0  0  0  0  0  0  0
  -23.4210  -30.4890   21.5740 C   0  0  0  0  0  3  0  0  0  0  0  0
  -24.8870  -28.9350   20.1630 C   0  0  0  0  0  0  0  0  0  0  0  0
  -25.9660  -30.8040   21.4160 C   0  0  0  0  0  2  0  0  0  0  0  0
  -26.0540  -29.4230   20.7690 C   0  0  0  0  0  0  0  0  0  0  0  0
  -27.2380  -28.6190   20.7760 C   0  0  0  0  0  3  0  0  0  0  0  0
  -26.0570  -26.8740   19.5790 C   0  0  0  0  0  3  0  0  0  0  0  0
  -24.8940  -27.6690   19.5560 C   0  0  0  0  0  3  0  0  0  0  0  0
  -23.6500  -29.8120   20.1970 C   0  0  0  0  0  2  0  0  0  0  0  0
  -24.6830  -31.0820   22.1260 N   0  0  0  0  0  0  0  0  0  0  0  0
  -23.5160  -32.1730   23.7420 O   0  0  0  0  0  0  0  0  0  0  0  0
  -22.7500  -29.4740   22.5310 C   0  0  0  0  0  0  0  0  0  0  0  0
  -21.4230  -29.3000   22.3980 N   0  0  0  0  0  0  0  0  0  0  0  0
  -23.4220  -28.8470   23.3530 O   0  0  0  0  0  0  0  0  0  0  0  0
  -20.9420  -29.8550   21.7060 H   0  0  0  0  0  0  0  0  0  0  0  0
  -18.0370  -28.1290   22.9060 C   0  0  0  0  0  0  0  0  0  0  0  0
  -20.5980  -28.3630   23.1640 C   0  0  0  0  0  3  0  0  0  0  0  0
  -20.6830  -26.9360   22.5740 C   0  0  0  0  0  2  0  0  0  0  0  0
  -19.5720  -26.6330   21.5630 C   0  0  0  0  0  2  0  0  0  0  0  0
  -18.1950  -26.7840   22.2150 C   0  0  0  0  0  2  0  0  0  0  0  0
  -19.1640  -28.8770   23.3350 C   0  0  0  0  0  0  0  0  0  0  0  0
  -18.9600  -30.1360   23.9400 C   0  0  0  0  0  3  0  0  0  0  0  0
  -17.6590  -30.6470   24.1190 C   0  0  0  0  0  3  0  0  0  0  0  0
  -16.5460  -29.8960   23.7050 C   0  0  0  0  0  3  0  0  0  0  0  0
  -16.7350  -28.6390   23.1030 C   0  0  0  0  0  3  0  0  0  0  0  0
  -25.8800  -32.5330   23.8530 C   0  0  0  0  0  3  0  0  0  0  0  0
  -26.3830  -31.7670   25.1390 C   0  0  1  0  0  0  0  0  0  0  0  0
  -25.2790  -31.5290   26.1940 C   0  0  0  0  0  1  0  0  0  0  0  0
  -26.9780  -30.3910   24.7610 C   0  0  0  0  0  1  0  0  0  0  0  0
  -27.5250  -32.5660   25.8110 C   0  0  0  0  0  1  0  0  0  0  0  0
  -25.5630  -33.9310   24.1800 N   0  0  0  0  0  0  0  0  0  0  0  0
  -25.8920  -34.9850   23.4220 C   0  0  0  0  0  0  0  0  0  0  0  0
  -26.5650  -34.8820   22.3930 O   0  0  0  0  0  0  0  0  0  0  0  0
  -24.9620  -34.0830   24.9770 H   0  0  0  0  0  0  0  0  0  0  0  0
  -24.1610  -36.7750   23.0570 C   0  0  0  0  0  1  0  0  0  0  0  0
  -25.3980  -36.3720   23.8760 C   0  0  0  0  0  3  0  0  0  0  0  0
  -27.5210  -37.2620   24.7270 C   0  0  0  0  0  1  0  0  0  0  0  0
  -26.4290  -37.4280   23.7710 N   0  0  0  0  0  0  0  0  0  0  0  0
  -26.0200  -38.3470   23.9120 H   0  0  0  0  0  0  0  0  0  0  0  0
  -32.6700  -19.7880   17.0260 C   0  0  0  0  0  1  0  0  0  0  0  0
  -32.8230  -20.1080   18.5150 C   0  0  0  0  0  2  0  0  0  0  0  0
  -30.0660  -17.2120   21.2580 C   0  0  0  0  0  2  0  0  0  0  0  0
  -30.5730  -14.7600   20.4060 C   0  0  0  0  0  0  0  0  0  0  0  0
  -30.3860  -12.5010   19.3360 C   0  0  0  0  0  2  0  0  0  0  0  0
  -29.4430  -12.5850   18.1180 C   0  0  0  0  0  2  0  0  0  0  0  0
  -27.9700  -12.4090   18.5440 C   0  0  0  0  0  2  0  0  0  0  0  0
  -27.5980  -13.2780   19.7750 C   0  0  0  0  0  3  0  0  0  0  0  0
  -28.6580  -13.1690   20.8890 C   0  0  0  0  0  2  0  0  0  0  0  0
  -29.9520  -13.5380   20.2950 N   0  0  0  0  0  0  0  0  0  0  0  0
  -31.7710  -14.8810   20.1360 O   0  0  0  0  0  0  0  0  0  0  0  0
  -29.7700  -15.8520   20.6520 N   0  0  0  0  0  0  0  0  0  0  0  0
  -28.7860  -15.6410   20.6560 H   0  0  0  0  0  0  0  0  0  0  0  0
  -25.2100  -13.8660   20.5060 C   0  0  0  0  0  0  0  0  0  0  0  0
  -24.1460  -13.0890   20.8770 C   0  0  0  0  0  0  0  0  0  0  0  0
  -24.6130  -11.7390   20.8450 C   0  0  0  0  0  0  0  0  0  0  0  0
  -26.2540  -12.9880   20.2670 N   0  0  0  0  0  0  0  0  0  0  0  0
  -25.9030  -11.7040   20.5350 N   0  0  0  0  0  0  0  0  0  0  0  0
  -23.8880  -10.4750   21.0330 C   0  0  0  0  0  0  0  0  0  0  0  0
  -24.3180   -9.5100   21.9690 C   0  0  0  0  0  3  0  0  0  0  0  0
  -23.5930   -8.3120   22.1450 C   0  0  0  0  0  3  0  0  0  0  0  0
  -22.4240   -8.0710   21.3830 C   0  0  0  0  0  0  0  0  0  0  0  0
  -22.0150   -9.0240   20.4340 C   0  0  0  0  0  3  0  0  0  0  0  0
  -22.7400  -10.2140   20.2570 C   0  0  0  0  0  3  0  0  0  0  0  0
  -21.6730   -6.9230   21.4670 O   0  0  0  0  0  0  0  0  0  0  0  0
  -21.6190   -6.1800   22.6180 C   0  0  0  0  0  0  0  0  0  0  0  0
  -21.1640   -6.7280   23.8380 C   0  0  0  0  0  3  0  0  0  0  0  0
  -21.0600   -5.9100   24.9800 C   0  0  0  0  0  3  0  0  0  0  0  0
  -21.3990   -4.5470   24.9050 C   0  0  0  0  0  0  0  0  0  0  0  0
  -21.8440   -3.9970   23.6900 C   0  0  0  0  0  3  0  0  0  0  0  0
  -21.9520   -4.8120   22.5500 C   0  0  0  0  0  0  0  0  0  0  0  0
  -22.3620   -4.2740   21.3760 F   0  0  0  0  0  0  0  0  0  0  0  0
  -21.2890   -3.7600   26.0020 F   0  0  0  0  0  0  0  0  0  0  0  0
  -22.7480  -13.5640   21.1460 C   0  0  0  0  0  0  0  0  0  0  0  0
  -22.0190  -12.8640   22.0080 N   0  0  0  0  0  0  0  0  0  0  0  0
  -22.3100  -14.5890   20.6280 O   0  0  0  0  0  0  0  0  0  0  0  0
  -22.3870  -12.0330   22.4490 H   0  0  0  0  0  0  0  0  0  0  0  0
  -21.0790  -13.1600   22.2280 H   0  0  0  0  0  0  0  0  0  0  0  0
  -25.3720  -15.2370   20.3280 N   0  0  0  0  0  0  0  0  0  0  0  0
  -24.6000  -15.8870   20.4280 H   0  0  0  0  0  0  0  0  0  0  0  0
  -26.2040  -15.6770   19.9590 H   0  0  0  0  0  0  0  0  0  0  0  0
  1  2  2  0
  2  5  1  0
  3  1  1  0
  3  6  2  0
  4  5  2  0
  4 54  1  0
  6  4  1  0
  7  9  1  0
  7  8  1  0
  8  2  1  0
  9  8  1  0
  9 10  1  0
 11 10  1  0
 12 23  2  0
 13 11  1  0
 13 18  1  0
 14 22  1  0
 14 24  1  0
 15 21  1  0
 15 17  1  0
 16 22  1  0
 17 18  2  0
 17 16  1  0
 19 13  2  0
 20 19  1  0
 20 15  2  0
 21 14  1  0
 22 12  1  0
 24 26  2  0
 25 24  1  0
 27 25  1  0
 28 37  2  0
 28 33  1  0
 29 25  1  0
 29 33  1  0
 30 29  1  0
 31 32  1  0
 31 30  1  0
 32 28  1  0
 33 34  2  0
 34 35  1  0
 36 35  2  0
 37 36  1  0
 38 12  1  0
 38 43  1  0
 38 39  1  0
 39 42  1  1
 39 40  1  0
 41 39  1  0
 43 46  1  0
 44 48  1  0
 44 43  1  0
 45 44  2  0
 48 47  1  0
 50 48  1  0
 50 51  1  0
 50 49  1  0
 52 53  1  0
 53  3  1  0
 55 63  1  0
 56 61  1  0
 57 58  1  0
 57 56  1  0
 59 58  1  0
 59 68  1  0
 59 60  1  0
 61 55  1  0
 61 60  1  0
 62 55  2  0
 63 64  1  0
 63 54  1  0
 65 66  2  0
 66 85  1  0
 67 66  1  0
 67 70  1  0
 68 65  1  0
 68 69  1  0
 69 67  2  0
 70 71  1  0
 71 72  2  0
 73 76  1  0
 73 72  1  0
 74 73  2  0
 75 74  1  0
 75 70  2  0
 76 77  1  0
 77 78  1  0
 78 79  2  0
 80 79  1  0
 80 84  1  0
 81 80  2  0
 82 77  2  0
 82 81  1  0
 83 82  1  0
 85 86  1  0
 86 89  1  0
 86 88  1  0
 87 85  2  0
 90 91  1  0
 90 65  1  0
 92 90  1  0
M  ISO  4  10 101  11 101  55 100  63 100
M  END
>  <TORSDO>  (53) 
F 20

>  <SCORE>  (53) 
-14.014

>  <name>  (53) 
52

>  <ligand_id>  (53) 
52

>  <original_smiles>  (53) 
[H]c1c(C([H])([H])C([H])([H])[H])nc(C([H])([H])N([H])C(=O)N2C([H])([H])C([H])([H])C([H])([H])C([H])(n3nc(-c4c([H])c([H])c(Oc5c([H])c([H])c(F)c([H])c5F)c([H])c4[H])c(C(=O)N([H])[H])c3N([H])[H])C2([H])[H])nc1C1([H])C([H])([H])C1([H])C([H])([H])Oc1c([H])c([H])c2c(c1[H])C([H])([H])N(C(=O)C([H])(N([H])C(=O)C([H])(N([H])C([H])([H])[H])C([H])([H])[H])C(C([H])([H])[H])(C([H])([H])[H])C([H])([H])[H])C([H])(C(=O)N([H])C1([H])c3c([H])c([H])c([H])c([H])c3C([H])([H])C([H])([H])C1([H])[H])C2([H])[H]

>  <smiles>  (53) 
[H]c1c(C([H])([H])C([H])([H])[H])nc(C([H])([H])N([H])C(=O)N2C([H])([H])C([H])([H])C([H])([H])C([H])(n3nc(-c4c([H])c([H])c(Oc5c([H])c([H])c(F)c([H])c5F)c([H])c4[H])c(C(=O)N([H])[H])c3N([H])[H])C2([H])[H])nc1C1([H])C([H])([H])C1([H])C([H])([H])Oc1c([H])c([H])c2c(c1[H])C([H])([H])N(C(=O)C([H])(N([H])C(=O)C([H])(N([H])C([H])([H])[H])C([H])([H])[H])C(C([H])([H])[H])(C([H])([H])[H])C([H])([H])[H])C([H])(C(=O)N([H])C1([H])c3c([H])c([H])c([H])c([H])c3C([H])([H])C([H])([H])C1([H])[H])C2([H])[H]

$$$$
53:0:0
     RDKit          3D

 96106  0  0  1  0  0  0  0  0999 V2000
  -29.9220  -23.5880   21.7450 C   0  0  0  0  0  3  0  0  0  0  0  0
  -30.2760  -24.4900   20.7120 C   0  0  0  0  0  0  0  0  0  0  0  0
  -29.7400  -21.8690   20.2130 C   0  0  0  0  0  0  0  0  0  0  0  0
  -30.1250  -22.7650   19.1740 C   0  0  0  0  0  0  0  0  0  0  0  0
  -29.6570  -22.2790   21.5060 N   0  0  0  0  0  0  0  0  0  0  0  0
  -30.4040  -24.0670   19.4300 N   0  0  0  0  0  0  0  0  0  0  0  0
  -30.2330  -22.2570   17.5250 Cl  0  0  0  0  0  0  0  0  0  0  0  0
  -30.7390  -27.0110   19.9390 C   0  0  0  0  0  2  0  0  0  0  0  0
  -30.5800  -25.9400   21.0050 C   0  0  0  0  0  3  0  0  0  0  0  0
  -29.5390  -27.0390   20.8510 C   0  0  0  0  0  3  0  0  0  0  0  0
  -28.3540  -26.6790   20.1380 O   0  0  0  0  0  0  0  0  0  0  0  0
  -24.5770  -31.8950   23.2780 C   0  0  0  0  0  0  0  0  0  0  0  0
  -27.2360  -27.4860   20.1870 C   0  0  0  0  0  0  0  0  0  0  0  0
  -23.3630  -30.4970   21.6330 C   0  0  0  0  0  3  0  0  0  0  0  0
  -24.8160  -28.9630   20.2030 C   0  0  0  0  0  0  0  0  0  0  0  0
  -25.8820  -30.8690   21.4220 C   0  0  0  0  0  2  0  0  0  0  0  0
  -25.9710  -29.4990   20.7860 C   0  0  0  0  0  0  0  0  0  0  0  0
  -27.1810  -28.7730   20.7760 C   0  0  0  0  0  3  0  0  0  0  0  0
  -26.0620  -26.9650   19.6010 C   0  0  0  0  0  3  0  0  0  0  0  0
  -24.8570  -27.6920   19.6050 C   0  0  0  0  0  3  0  0  0  0  0  0
  -23.5680  -29.8140   20.2520 C   0  0  0  0  0  2  0  0  0  0  0  0
  -24.6250  -31.1020   22.1700 N   0  0  0  0  0  0  0  0  0  0  0  0
  -23.4980  -32.1640   23.8250 O   0  0  0  0  0  0  0  0  0  0  0  0
  -22.7150  -29.4760   22.5950 C   0  0  0  0  0  0  0  0  0  0  0  0
  -21.3940  -29.2840   22.4610 N   0  0  0  0  0  0  0  0  0  0  0  0
  -23.4000  -28.8560   23.4140 O   0  0  0  0  0  0  0  0  0  0  0  0
  -20.9040  -29.8340   21.7700 H   0  0  0  0  0  0  0  0  0  0  0  0
  -18.0230  -28.0760   22.9410 C   0  0  0  0  0  0  0  0  0  0  0  0
  -20.5770  -28.3430   23.2280 C   0  0  0  0  0  3  0  0  0  0  0  0
  -20.6890  -26.9130   22.6530 C   0  0  0  0  0  2  0  0  0  0  0  0
  -19.5950  -26.5840   21.6330 C   0  0  0  0  0  2  0  0  0  0  0  0
  -18.2090  -26.7260   22.2680 C   0  0  0  0  0  2  0  0  0  0  0  0
  -19.1360  -28.8420   23.3770 C   0  0  0  0  0  0  0  0  0  0  0  0
  -18.9080  -30.1060   23.9640 C   0  0  0  0  0  3  0  0  0  0  0  0
  -17.6010  -30.6030   24.1190 C   0  0  0  0  0  3  0  0  0  0  0  0
  -16.5020  -29.8320   23.7010 C   0  0  0  0  0  3  0  0  0  0  0  0
  -16.7140  -28.5700   23.1170 C   0  0  0  0  0  3  0  0  0  0  0  0
  -25.8670  -32.5190   23.8960 C   0  0  0  0  0  3  0  0  0  0  0  0
  -26.3760  -31.7560   25.1800 C   0  0  1  0  0  0  0  0  0  0  0  0
  -25.2810  -31.5370   26.2480 C   0  0  0  0  0  1  0  0  0  0  0  0
  -26.9470  -30.3700   24.7970 C   0  0  0  0  0  1  0  0  0  0  0  0
  -27.5330  -32.5470   25.8360 C   0  0  0  0  0  1  0  0  0  0  0  0
  -25.5720  -33.9240   24.2070 N   0  0  0  0  0  0  0  0  0  0  0  0
  -25.9260  -34.9630   23.4370 C   0  0  0  0  0  0  0  0  0  0  0  0
  -26.6040  -34.8380   22.4140 O   0  0  0  0  0  0  0  0  0  0  0  0
  -24.9730  -34.0950   25.0000 H   0  0  0  0  0  0  0  0  0  0  0  0
  -24.2350  -36.7760   23.0280 C   0  0  0  0  0  1  0  0  0  0  0  0
  -25.4500  -36.3610   23.8720 C   0  0  0  0  0  3  0  0  0  0  0  0
  -27.5760  -37.2260   24.7470 C   0  0  0  0  0  1  0  0  0  0  0  0
  -26.5020  -37.3970   23.7720 N   0  0  0  0  0  0  0  0  0  0  0  0
  -26.1070  -38.3260   23.8950 H   0  0  0  0  0  0  0  0  0  0  0  0
  -29.3040  -20.4290   19.9380 C   0  0  0  0  0  2  0  0  0  0  0  0
  -29.9930  -19.4030   20.7610 N   0  0  0  0  0  4  0  0  0  0  0  0
  -30.9880  -19.5090   20.6480 H   0  0  0  0  0  0  0  0  0  0  0  0
  -29.7720  -19.6010   21.7240 H   0  0  0  0  0  0  0  0  0  0  0  0
  -30.7330  -14.5470   20.7270 C   0  0  0  0  0  0  0  0  0  0  0  0
  -30.5120  -12.3290   19.7140 C   0  0  0  0  0  2  0  0  0  0  0  0
  -29.6310  -12.4590   18.4550 C   0  0  0  0  0  2  0  0  0  0  0  0
  -28.1360  -12.3340   18.8120 C   0  0  0  0  0  2  0  0  0  0  0  0
  -27.7150  -13.2130   20.0210 C   0  0  0  0  0  3  0  0  0  0  0  0
  -28.7240  -13.1000   21.1880 C   0  0  0  0  0  2  0  0  0  0  0  0
  -30.0690  -13.3640   20.6560 N   0  0  0  0  0  0  0  0  0  0  0  0
  -31.9500  -14.6540   20.5710 O   0  0  0  0  0  0  0  0  0  0  0  0
  -30.0220  -17.5540   19.0380 C   0  0  0  0  0  2  0  0  0  0  0  0
  -29.7860  -16.0510   19.1140 C   0  0  0  0  0  2  0  0  0  0  0  0
  -30.1270  -16.8770   21.3090 C   0  0  0  0  0  2  0  0  0  0  0  0
  -29.5840  -18.0140   20.4170 C   0  0  0  0  0  3  0  0  0  0  0  0
  -29.9530  -15.6360   20.5240 N   0  0  0  0  0  0  0  0  0  0  0  0
  -25.2830  -13.8180   20.5940 C   0  0  0  0  0  0  0  0  0  0  0  0
  -24.2010  -13.0430   20.9110 C   0  0  0  0  0  0  0  0  0  0  0  0
  -24.6740  -11.6950   20.9300 C   0  0  0  0  0  0  0  0  0  0  0  0
  -26.3450  -12.9390   20.4400 N   0  0  0  0  0  0  0  0  0  0  0  0
  -25.9800  -11.6610   20.7030 N   0  0  0  0  0  0  0  0  0  0  0  0
  -23.9490  -10.4300   21.0960 C   0  0  0  0  0  0  0  0  0  0  0  0
  -24.3440   -9.4750   22.0580 C   0  0  0  0  0  3  0  0  0  0  0  0
  -23.6220   -8.2720   22.2110 C   0  0  0  0  0  3  0  0  0  0  0  0
  -22.4880   -8.0190   21.4030 C   0  0  0  0  0  0  0  0  0  0  0  0
  -22.1130   -8.9620   20.4310 C   0  0  0  0  0  3  0  0  0  0  0  0
  -22.8370  -10.1550   20.2750 C   0  0  0  0  0  3  0  0  0  0  0  0
  -21.7400   -6.8680   21.4650 O   0  0  0  0  0  0  0  0  0  0  0  0
  -21.6450   -6.1350   22.6200 C   0  0  0  0  0  0  0  0  0  0  0  0
  -21.1430   -6.6900   23.8170 C   0  0  0  0  0  3  0  0  0  0  0  0
  -20.9980   -5.8800   24.9610 C   0  0  0  0  0  3  0  0  0  0  0  0
  -21.3440   -4.5160   24.9090 C   0  0  0  0  0  0  0  0  0  0  0  0
  -21.8380   -3.9610   23.7160 C   0  0  0  0  0  3  0  0  0  0  0  0
  -21.9860   -4.7680   22.5740 C   0  0  0  0  0  0  0  0  0  0  0  0
  -22.4420   -4.2220   21.4210 F   0  0  0  0  0  0  0  0  0  0  0  0
  -21.1970   -3.7360   26.0050 F   0  0  0  0  0  0  0  0  0  0  0  0
  -22.7860  -13.5120   21.0930 C   0  0  0  0  0  0  0  0  0  0  0  0
  -22.0120  -12.8200   21.9210 N   0  0  0  0  0  0  0  0  0  0  0  0
  -22.3730  -14.5290   20.5360 O   0  0  0  0  0  0  0  0  0  0  0  0
  -22.3560  -12.0000   22.3970 H   0  0  0  0  0  0  0  0  0  0  0  0
  -21.0600  -13.1180   22.0840 H   0  0  0  0  0  0  0  0  0  0  0  0
  -25.4460  -15.1880   20.4020 N   0  0  0  0  0  0  0  0  0  0  0  0
  -24.6690  -15.8380   20.4580 H   0  0  0  0  0  0  0  0  0  0  0  0
  -26.3170  -15.6340   20.1390 H   0  0  0  0  0  0  0  0  0  0  0  0
  2  1  2  0
  3  5  2  0
  4  6  2  0
  4  3  1  0
  5  1  1  0
  6  2  1  0
  7  4  1  0
  8 10  1  0
  8  9  1  0
  9  2  1  0
 10 11  1  0
 10  9  1  0
 11 13  1  0
 12 23  2  0
 13 18  1  0
 14 22  1  0
 14 24  1  0
 15 21  1  0
 15 17  1  0
 16 22  1  0
 17 16  1  0
 18 17  2  0
 19 20  1  0
 19 13  2  0
 20 15  2  0
 21 14  1  0
 22 12  1  0
 24 26  2  0
 25 24  1  0
 27 25  1  0
 28 37  2  0
 28 33  1  0
 29 25  1  0
 29 33  1  0
 30 29  1  0
 31 32  1  0
 31 30  1  0
 32 28  1  0
 33 34  2  0
 34 35  1  0
 36 35  2  0
 37 36  1  0
 38 12  1  0
 38 43  1  0
 38 39  1  0
 39 42  1  1
 39 40  1  0
 41 39  1  0
 43 46  1  0
 44 48  1  0
 44 43  1  0
 45 44  2  0
 48 47  1  0
 50 48  1  0
 50 51  1  0
 50 49  1  0
 52  3  1  0
 52 53  1  0
 53 55  1  0
 54 53  1  0
 57 62  1  0
 58 59  1  0
 58 57  1  0
 60 59  1  0
 60 72  1  0
 60 61  1  0
 62 56  1  0
 62 61  1  0
 63 56  2  0
 64 65  1  0
 64 67  1  0
 65 68  1  0
 67 53  1  0
 67 66  1  0
 68 56  1  0
 68 66  1  0
 69 70  2  0
 70 71  1  0
 70 89  1  0
 71 74  1  0
 72 69  1  0
 72 73  1  0
 73 71  2  0
 74 75  1  0
 75 76  2  0
 77 80  1  0
 77 76  1  0
 78 77  2  0
 79 78  1  0
 79 74  2  0
 80 81  1  0
 81 82  1  0
 82 83  2  0
 84 83  1  0
 84 88  1  0
 85 84  2  0
 86 81  2  0
 86 85  1  0
 87 86  1  0
 89 90  1  0
 90 93  1  0
 90 92  1  0
 91 89  2  0
 94 95  1  0
 94 69  1  0
 96 94  1  0
M  ISO  4  10 101  11 101  56 100  68 100
M  END
>  <TORSDO>  (54) 
F 19

>  <SCORE>  (54) 
-14.404

>  <name>  (54) 
53

>  <ligand_id>  (54) 
53

>  <original_smiles>  (54) 
[H]c1nc(C([H])([H])[N+]([H])([H])C2([H])C([H])([H])N(C(=O)N3C([H])([H])C([H])([H])C([H])([H])C([H])(n4nc(-c5c([H])c([H])c(Oc6c([H])c([H])c(F)c([H])c6F)c([H])c5[H])c(C(=O)N([H])[H])c4N([H])[H])C3([H])[H])C([H])([H])C2([H])[H])c(Cl)nc1C1([H])C([H])([H])C1([H])Oc1c([H])c([H])c2c(c1[H])C([H])([H])N(C(=O)C([H])(N([H])C(=O)C([H])(N([H])C([H])([H])[H])C([H])([H])[H])C(C([H])([H])[H])(C([H])([H])[H])C([H])([H])[H])C([H])(C(=O)N([H])C1([H])c3c([H])c([H])c([H])c([H])c3C([H])([H])C([H])([H])C1([H])[H])C2([H])[H]

>  <smiles>  (54) 
[H]c1nc(C([H])([H])[N+]([H])([H])C2([H])C([H])([H])N(C(=O)N3C([H])([H])C([H])([H])C([H])([H])C([H])(n4nc(-c5c([H])c([H])c(Oc6c([H])c([H])c(F)c([H])c6F)c([H])c5[H])c(C(=O)N([H])[H])c4N([H])[H])C3([H])[H])C([H])([H])C2([H])[H])c(Cl)nc1C1([H])C([H])([H])C1([H])Oc1c([H])c([H])c2c(c1[H])C([H])([H])N(C(=O)C([H])(N([H])C(=O)C([H])(N([H])C([H])([H])[H])C([H])([H])[H])C(C([H])([H])[H])(C([H])([H])[H])C([H])([H])[H])C([H])(C(=O)N([H])C1([H])c3c([H])c([H])c([H])c([H])c3C([H])([H])C([H])([H])C1([H])[H])C2([H])[H]

$$$$
54:0:0
     RDKit          3D

 94104  0  0  1  0  0  0  0  0999 V2000
  -27.7280  -21.5550   19.4250 C   0  0  0  0  0  3  0  0  0  0  0  0
  -29.3620  -23.5670   20.1870 C   0  0  0  0  0  0  0  0  0  0  0  0
  -28.1690  -23.8890   19.4720 C   0  0  0  0  0  0  0  0  0  0  0  0
  -28.9350  -21.2270   20.1120 C   0  0  0  0  0  0  0  0  0  0  0  0
  -27.3570  -22.8440   19.1130 N   0  0  0  0  0  0  0  0  0  0  0  0
  -29.7230  -22.2750   20.4950 N   0  0  0  0  0  0  0  0  0  0  0  0
  -30.7430  -18.1580   21.4510 C   0  0  0  0  0  2  0  0  0  0  0  0
  -30.6170  -19.6790   21.2020 C   0  0  0  0  0  2  0  0  0  0  0  0
  -28.9110  -18.5570   19.9580 C   0  0  0  0  0  2  0  0  0  0  0  0
  -30.0550  -17.4890   20.2530 C   0  0  0  0  0  3  0  0  0  0  0  0
  -29.3910  -19.8880   20.4330 N   0  0  0  0  0  0  0  0  0  0  0  0
  -30.5130  -14.9310   20.2920 C   0  0  0  0  0  0  0  0  0  0  0  0
  -30.3920  -12.6250   19.3620 C   0  0  0  0  0  2  0  0  0  0  0  0
  -29.4450  -12.6310   18.1410 C   0  0  0  0  0  2  0  0  0  0  0  0
  -27.9870  -12.4130   18.5860 C   0  0  0  0  0  2  0  0  0  0  0  0
  -27.5820  -13.3220   19.7780 C   0  0  0  0  0  3  0  0  0  0  0  0
  -28.6500  -13.3140   20.8940 C   0  0  0  0  0  2  0  0  0  0  0  0
  -29.9300  -13.6870   20.2830 N   0  0  0  0  0  0  0  0  0  0  0  0
  -31.6820  -15.0740   19.9290 O   0  0  0  0  0  0  0  0  0  0  0  0
  -29.7060  -16.0300   20.4940 N   0  0  0  0  0  0  0  0  0  0  0  0
  -28.7500  -15.8330   20.7490 H   0  0  0  0  0  0  0  0  0  0  0  0
  -25.1950  -13.8360   20.5660 C   0  0  0  0  0  0  0  0  0  0  0  0
  -24.1570  -13.0260   20.9390 C   0  0  0  0  0  0  0  0  0  0  0  0
  -24.6520  -11.6880   20.8630 C   0  0  0  0  0  0  0  0  0  0  0  0
  -26.2550  -12.9890   20.2870 N   0  0  0  0  0  0  0  0  0  0  0  0
  -25.9360  -11.6920   20.5270 N   0  0  0  0  0  0  0  0  0  0  0  0
  -23.9610  -10.4030   21.0330 C   0  0  0  0  0  0  0  0  0  0  0  0
  -24.3820   -9.4600   21.9970 C   0  0  0  0  0  3  0  0  0  0  0  0
  -23.6890   -8.2400   22.1540 C   0  0  0  0  0  3  0  0  0  0  0  0
  -22.5620   -7.9550   21.3480 C   0  0  0  0  0  0  0  0  0  0  0  0
  -22.1610   -8.8870   20.3750 C   0  0  0  0  0  3  0  0  0  0  0  0
  -22.8550  -10.0980   20.2150 C   0  0  0  0  0  3  0  0  0  0  0  0
  -21.8430   -6.7860   21.4140 O   0  0  0  0  0  0  0  0  0  0  0  0
  -21.6800   -6.1070   22.5940 C   0  0  0  0  0  0  0  0  0  0  0  0
  -21.0010   -6.6750   23.6940 C   0  0  0  0  0  3  0  0  0  0  0  0
  -20.7960   -5.9160   24.8630 C   0  0  0  0  0  3  0  0  0  0  0  0
  -21.2580   -4.5890   24.9320 C   0  0  0  0  0  0  0  0  0  0  0  0
  -21.9300   -4.0190   23.8370 C   0  0  0  0  0  3  0  0  0  0  0  0
  -22.1370   -4.7750   22.6700 C   0  0  0  0  0  0  0  0  0  0  0  0
  -22.7660   -4.2140   21.6090 F   0  0  0  0  0  0  0  0  0  0  0  0
  -21.0550   -3.8570   26.0530 F   0  0  0  0  0  0  0  0  0  0  0  0
  -22.7540  -13.4610   21.2490 C   0  0  0  0  0  0  0  0  0  0  0  0
  -22.0640  -12.7290   22.1170 N   0  0  0  0  0  0  0  0  0  0  0  0
  -22.2780  -14.4840   20.7590 O   0  0  0  0  0  0  0  0  0  0  0  0
  -22.4630  -11.9010   22.5350 H   0  0  0  0  0  0  0  0  0  0  0  0
  -21.1240  -13.0010   22.3670 H   0  0  0  0  0  0  0  0  0  0  0  0
  -25.3200  -15.2140   20.4200 N   0  0  0  0  0  0  0  0  0  0  0  0
  -24.5330  -15.8410   20.5530 H   0  0  0  0  0  0  0  0  0  0  0  0
  -26.1370  -15.6800   20.0480 H   0  0  0  0  0  0  0  0  0  0  0  0
  -30.6970  -24.8820   22.0220 C   0  0  0  0  0  2  0  0  0  0  0  0
  -29.9480  -25.9070   21.2140 C   0  0  0  0  0  2  0  0  0  0  0  0
  -30.3750  -24.6050   20.5690 C   0  0  0  0  0  3  0  0  0  0  0  0
  -27.8840  -25.3030   18.7990 C   0  0  0  0  0  2  0  0  0  0  0  0
  -27.8850  -26.5870   19.5490 O   0  0  0  0  0  0  0  0  0  0  0  0
  -24.4740  -31.8520   23.1300 C   0  0  0  0  0  0  0  0  0  0  0  0
  -26.7710  -27.4490   19.6000 C   0  0  0  0  0  0  0  0  0  0  0  0
  -23.1330  -30.5930   21.4830 C   0  0  0  0  0  3  0  0  0  0  0  0
  -24.4490  -29.1140   19.8620 C   0  0  0  0  0  0  0  0  0  0  0  0
  -25.6630  -30.8670   21.1550 C   0  0  0  0  0  2  0  0  0  0  0  0
  -25.6660  -29.5340   20.4120 C   0  0  0  0  0  0  0  0  0  0  0  0
  -26.8250  -28.7110   20.2760 C   0  0  0  0  0  3  0  0  0  0  0  0
  -25.5210  -27.0790   19.0520 C   0  0  0  0  0  3  0  0  0  0  0  0
  -24.3790  -27.8930   19.1770 C   0  0  0  0  0  3  0  0  0  0  0  0
  -23.2410  -30.0100   20.0490 C   0  0  0  0  0  2  0  0  0  0  0  0
  -24.4470  -31.1180   21.9790 N   0  0  0  0  0  0  0  0  0  0  0  0
  -23.4350  -32.1150   23.7520 O   0  0  0  0  0  0  0  0  0  0  0  0
  -22.5080  -29.5280   22.4150 C   0  0  0  0  0  0  0  0  0  0  0  0
  -21.1790  -29.3520   22.3280 N   0  0  0  0  0  0  0  0  0  0  0  0
  -23.2170  -28.8650   23.1770 O   0  0  0  0  0  0  0  0  0  0  0  0
  -20.6650  -29.9400   21.6870 H   0  0  0  0  0  0  0  0  0  0  0  0
  -17.8300  -28.0870   22.8530 C   0  0  0  0  0  0  0  0  0  0  0  0
  -20.3890  -28.3740   23.0800 C   0  0  0  0  0  3  0  0  0  0  0  0
  -20.4990  -26.9670   22.4500 C   0  0  0  0  0  2  0  0  0  0  0  0
  -19.3800  -26.6650   21.4470 C   0  0  0  0  0  2  0  0  0  0  0  0
  -18.0100  -26.7670   22.1240 C   0  0  0  0  0  2  0  0  0  0  0  0
  -18.9460  -28.8490   23.2880 C   0  0  0  0  0  0  0  0  0  0  0  0
  -18.7220  -30.0860   23.9310 C   0  0  0  0  0  3  0  0  0  0  0  0
  -17.4140  -30.5620   24.1420 C   0  0  0  0  0  3  0  0  0  0  0  0
  -16.3120  -29.7960   23.7230 C   0  0  0  0  0  3  0  0  0  0  0  0
  -16.5200  -28.5610   23.0840 C   0  0  0  0  0  3  0  0  0  0  0  0
  -25.8100  -32.4130   23.7090 C   0  0  0  0  0  3  0  0  0  0  0  0
  -26.3690  -31.5660   24.9170 C   0  0  1  0  0  0  0  0  0  0  0  0
  -25.3300  -31.3130   26.0330 C   0  0  0  0  0  1  0  0  0  0  0  0
  -26.8800  -30.1900   24.4300 C   0  0  0  0  0  1  0  0  0  0  0  0
  -27.5820  -32.2890   25.5480 C   0  0  0  0  0  1  0  0  0  0  0  0
  -25.5650  -33.8020   24.1230 N   0  0  0  0  0  0  0  0  0  0  0  0
  -25.9530  -34.8830   23.4320 C   0  0  0  0  0  0  0  0  0  0  0  0
  -26.6240  -34.8110   22.3990 O   0  0  0  0  0  0  0  0  0  0  0  0
  -24.9740  -33.9370   24.9310 H   0  0  0  0  0  0  0  0  0  0  0  0
  -24.3520  -36.8020   23.1450 C   0  0  0  0  0  1  0  0  0  0  0  0
  -25.5310  -36.2630   23.9720 C   0  0  0  0  0  3  0  0  0  0  0  0
  -27.6660  -36.9590   24.9630 C   0  0  0  0  0  1  0  0  0  0  0  0
  -26.6280  -37.2540   23.9800 N   0  0  0  0  0  0  0  0  0  0  0  0
  -26.2690  -38.1870   24.1670 H   0  0  0  0  0  0  0  0  0  0  0  0
  1  4  1  0
  2  6  1  0
  2 52  1  0
  3  2  2  0
  4 11  1  0
  4  6  2  0
  5  1  2  0
  5  3  1  0
  8  7  1  0
  9 10  1  0
  9 11  1  0
 10 20  1  0
 10  7  1  0
 11  8  1  0
 12 20  1  0
 13 18  1  0
 14 15  1  0
 14 13  1  0
 16 15  1  0
 16 25  1  0
 16 17  1  0
 18 12  1  0
 18 17  1  0
 19 12  2  0
 20 21  1  0
 22 23  2  0
 23 42  1  0
 24 23  1  0
 24 27  1  0
 25 26  1  0
 25 22  1  0
 26 24  2  0
 27 28  1  0
 28 29  2  0
 30 33  1  0
 30 29  1  0
 31 30  2  0
 32 31  1  0
 32 27  2  0
 33 34  1  0
 34 39  2  0
 34 35  1  0
 35 36  2  0
 36 37  1  0
 37 41  1  0
 38 37  2  0
 39 38  1  0
 40 39  1  0
 42 43  1  0
 43 46  1  0
 43 45  1  0
 44 42  2  0
 47 48  1  0
 47 22  1  0
 49 47  1  0
 51 50  1  0
 52 51  1  0
 52 50  1  0
 53  3  1  0
 53 54  1  0
 54 56  1  0
 55 66  2  0
 56 61  1  0
 57 65  1  0
 57 67  1  0
 58 64  1  0
 58 60  1  0
 59 65  1  0
 60 59  1  0
 61 60  2  0
 62 63  1  0
 62 56  2  0
 63 58  2  0
 64 57  1  0
 65 55  1  0
 67 69  2  0
 68 67  1  0
 70 68  1  0
 71 80  2  0
 71 76  1  0
 72 68  1  0
 72 76  1  0
 73 72  1  0
 74 75  1  0
 74 73  1  0
 75 71  1  0
 76 77  2  0
 77 78  1  0
 79 78  2  0
 80 79  1  0
 81 55  1  0
 81 86  1  0
 81 82  1  0
 82 85  1  1
 82 83  1  0
 84 82  1  0
 86 89  1  0
 87 91  1  0
 87 86  1  0
 88 87  2  0
 91 90  1  0
 91 93  1  0
 93 94  1  0
 93 92  1  0
M  ISO  4  12 100  20 100  53 101  54 101
M  END
>  <TORSDO>  (55) 
F 19

>  <SCORE>  (55) 
-13.774

>  <name>  (55) 
54

>  <ligand_id>  (55) 
54

>  <original_smiles>  (55) 
[H]c1nc(C([H])([H])Oc2c([H])c([H])c3c(c2[H])C([H])([H])N(C(=O)C([H])(N([H])C(=O)C([H])(N([H])C([H])([H])[H])C([H])([H])[H])C(C([H])([H])[H])(C([H])([H])[H])C([H])([H])[H])C([H])(C(=O)N([H])C2([H])c4c([H])c([H])c([H])c([H])c4C([H])([H])C([H])([H])C2([H])[H])C3([H])[H])c(C2([H])C([H])([H])C2([H])[H])nc1N1C([H])([H])C([H])([H])C([H])(N([H])C(=O)N2C([H])([H])C([H])([H])C([H])([H])C([H])(n3nc(-c4c([H])c([H])c(Oc5c([H])c([H])c(F)c([H])c5F)c([H])c4[H])c(C(=O)N([H])[H])c3N([H])[H])C2([H])[H])C1([H])[H]

>  <smiles>  (55) 
[H]c1nc(C([H])([H])Oc2c([H])c([H])c3c(c2[H])C([H])([H])N(C(=O)C([H])(N([H])C(=O)C([H])(N([H])C([H])([H])[H])C([H])([H])[H])C(C([H])([H])[H])(C([H])([H])[H])C([H])([H])[H])C([H])(C(=O)N([H])C2([H])c4c([H])c([H])c([H])c([H])c4C([H])([H])C([H])([H])C2([H])[H])C3([H])[H])c(C2([H])C([H])([H])C2([H])[H])nc1N1C([H])([H])C([H])([H])C([H])(N([H])C(=O)N2C([H])([H])C([H])([H])C([H])([H])C([H])(n3nc(-c4c([H])c([H])c(Oc5c([H])c([H])c(F)c([H])c5F)c([H])c4[H])c(C(=O)N([H])[H])c3N([H])[H])C2([H])[H])C1([H])[H]

$$$$
55:0:0
     RDKit          3D

 92101  0  0  1  0  0  0  0  0999 V2000
  -29.4450  -23.4410   18.8790 C   0  0  0  0  0  3  0  0  0  0  0  0
  -28.7280  -23.3990   20.0810 C   0  0  0  0  0  3  0  0  0  0  0  0
  -29.9940  -22.2480   18.3630 C   0  0  0  0  0  0  0  0  0  0  0  0
  -29.1890  -20.9850   20.1130 C   0  0  0  0  0  0  0  0  0  0  0  0
  -28.6220  -22.1200   20.6780 N   0  0  0  0  0  0  0  0  0  0  0  0
  -29.8650  -21.0440   18.9770 N   0  0  0  0  0  0  0  0  0  0  0  0
  -30.7880  -22.2550   17.0650 C   0  0  0  0  0  3  0  0  0  0  0  0
  -30.4060  -21.2600   16.2620 F   0  0  0  0  0  0  0  0  0  0  0  0
  -32.0940  -22.1430   17.3150 F   0  0  0  0  0  0  0  0  0  0  0  0
  -27.9880  -24.7500   20.6450 C   0  0  0  0  0  2  0  0  0  0  0  0
  -28.2810  -26.2090   20.2110 O   0  0  0  0  0  0  0  0  0  0  0  0
  -24.6380  -31.8600   23.2340 C   0  0  0  0  0  0  0  0  0  0  0  0
  -27.2230  -27.1800   20.1970 C   0  0  0  0  0  0  0  0  0  0  0  0
  -23.4390  -30.4640   21.5950 C   0  0  0  0  0  3  0  0  0  0  0  0
  -24.8890  -28.8970   20.1710 C   0  0  0  0  0  0  0  0  0  0  0  0
  -25.9900  -30.7410   21.4260 C   0  0  0  0  0  2  0  0  0  0  0  0
  -26.0670  -29.3510   20.7770 C   0  0  0  0  0  0  0  0  0  0  0  0
  -27.2390  -28.5110   20.7700 C   0  0  0  0  0  3  0  0  0  0  0  0
  -26.0230  -26.8230   19.5470 C   0  0  0  0  0  3  0  0  0  0  0  0
  -24.8770  -27.6440   19.5420 C   0  0  0  0  0  3  0  0  0  0  0  0
  -23.6580  -29.7870   20.2180 C   0  0  0  0  0  2  0  0  0  0  0  0
  -24.7090  -31.0430   22.1400 N   0  0  0  0  0  0  0  0  0  0  0  0
  -23.5510  -32.1430   23.7640 O   0  0  0  0  0  0  0  0  0  0  0  0
  -22.7660  -29.4530   22.5560 C   0  0  0  0  0  0  0  0  0  0  0  0
  -21.4380  -29.2820   22.4310 N   0  0  0  0  0  0  0  0  0  0  0  0
  -23.4400  -28.8250   23.3770 O   0  0  0  0  0  0  0  0  0  0  0  0
  -20.9490  -29.8380   21.7450 H   0  0  0  0  0  0  0  0  0  0  0  0
  -18.0600  -28.0820   22.9440 C   0  0  0  0  0  0  0  0  0  0  0  0
  -20.6200  -28.3440   23.2040 C   0  0  0  0  0  3  0  0  0  0  0  0
  -20.7210  -26.9130   22.6280 C   0  0  0  0  0  2  0  0  0  0  0  0
  -19.6170  -26.5900   21.6170 C   0  0  0  0  0  2  0  0  0  0  0  0
  -18.2360  -26.7330   22.2630 C   0  0  0  0  0  2  0  0  0  0  0  0
  -19.1790  -28.8430   23.3710 C   0  0  0  0  0  0  0  0  0  0  0  0
  -18.9610  -30.1040   23.9690 C   0  0  0  0  0  3  0  0  0  0  0  0
  -17.6570  -30.6040   24.1420 C   0  0  0  0  0  3  0  0  0  0  0  0
  -16.5520  -29.8390   23.7300 C   0  0  0  0  0  3  0  0  0  0  0  0
  -16.7540  -28.5800   23.1370 C   0  0  0  0  0  3  0  0  0  0  0  0
  -25.9150  -32.4980   23.8600 C   0  0  0  0  0  3  0  0  0  0  0  0
  -26.4310  -31.7280   25.1370 C   0  0  1  0  0  0  0  0  0  0  0  0
  -25.3350  -31.4910   26.2040 C   0  0  0  0  0  1  0  0  0  0  0  0
  -27.0160  -30.3500   24.7510 C   0  0  0  0  0  1  0  0  0  0  0  0
  -27.5810  -32.5260   25.7970 C   0  0  0  0  0  1  0  0  0  0  0  0
  -25.6000  -33.8950   24.1970 N   0  0  0  0  0  0  0  0  0  0  0  0
  -25.9270  -34.9550   23.4450 C   0  0  0  0  0  0  0  0  0  0  0  0
  -26.5940  -34.8590   22.4120 O   0  0  0  0  0  0  0  0  0  0  0  0
  -25.0060  -34.0440   24.9990 H   0  0  0  0  0  0  0  0  0  0  0  0
  -24.1950  -36.7510   23.1110 C   0  0  0  0  0  1  0  0  0  0  0  0
  -25.4390  -36.3400   23.9140 C   0  0  0  0  0  3  0  0  0  0  0  0
  -27.5760  -37.2220   24.7420 C   0  0  0  0  0  1  0  0  0  0  0  0
  -26.4690  -37.3960   23.8070 N   0  0  0  0  0  0  0  0  0  0  0  0
  -26.0610  -38.3130   23.9680 H   0  0  0  0  0  0  0  0  0  0  0  0
  -29.0730  -19.7040   20.7250 O   0  0  0  0  0  0  0  0  0  0  0  0
  -30.6610  -14.9330   20.3460 C   0  0  0  0  0  0  0  0  0  0  0  0
  -30.4190  -12.6130   19.3900 C   0  0  0  0  0  2  0  0  0  0  0  0
  -29.4970  -12.5700   18.1550 C   0  0  0  0  0  2  0  0  0  0  0  0
  -28.0370  -12.3650   18.5940 C   0  0  0  0  0  2  0  0  0  0  0  0
  -27.6310  -13.2980   19.7650 C   0  0  0  0  0  3  0  0  0  0  0  0
  -28.6910  -13.3520   20.8870 C   0  0  0  0  0  2  0  0  0  0  0  0
  -29.9570  -13.7360   20.2550 N   0  0  0  0  0  0  0  0  0  0  0  0
  -31.8730  -14.8760   20.1220 O   0  0  0  0  0  0  0  0  0  0  0  0
  -30.7850  -17.5780   20.5660 C   0  0  0  0  0  2  0  0  0  0  0  0
  -28.7960  -16.9790   20.5350 C   0  0  0  0  0  2  0  0  0  0  0  0
  -29.4940  -18.3530   20.1070 C   0  0  0  0  0  3  0  0  0  0  0  0
  -30.0980  -16.2390   20.4680 N   0  0  0  0  0  0  0  0  0  0  0  0
  -25.2550  -13.8630   20.5170 C   0  0  0  0  0  0  0  0  0  0  0  0
  -24.1940  -13.0850   20.8860 C   0  0  0  0  0  0  0  0  0  0  0  0
  -24.6650  -11.7350   20.8580 C   0  0  0  0  0  0  0  0  0  0  0  0
  -26.3010  -12.9910   20.2750 N   0  0  0  0  0  0  0  0  0  0  0  0
  -25.9570  -11.7050   20.5480 N   0  0  0  0  0  0  0  0  0  0  0  0
  -23.9430  -10.4700   21.0450 C   0  0  0  0  0  0  0  0  0  0  0  0
  -24.3790   -9.5010   21.9770 C   0  0  0  0  0  3  0  0  0  0  0  0
  -23.6550   -8.3030   22.1560 C   0  0  0  0  0  3  0  0  0  0  0  0
  -22.4800   -8.0640   21.4040 C   0  0  0  0  0  0  0  0  0  0  0  0
  -22.0630   -9.0210   20.4630 C   0  0  0  0  0  3  0  0  0  0  0  0
  -22.7870  -10.2120   20.2820 C   0  0  0  0  0  3  0  0  0  0  0  0
  -21.7270   -6.9170   21.4930 O   0  0  0  0  0  0  0  0  0  0  0  0
  -21.6880   -6.1690   22.6410 C   0  0  0  0  0  0  0  0  0  0  0  0
  -21.2730   -6.7170   23.8750 C   0  0  0  0  0  3  0  0  0  0  0  0
  -21.1820   -5.8940   25.0150 C   0  0  0  0  0  3  0  0  0  0  0  0
  -21.4950   -4.5250   24.9230 C   0  0  0  0  0  0  0  0  0  0  0  0
  -21.9050   -3.9770   23.6950 C   0  0  0  0  0  3  0  0  0  0  0  0
  -21.9980   -4.7960   22.5570 C   0  0  0  0  0  0  0  0  0  0  0  0
  -22.3720   -4.2580   21.3710 F   0  0  0  0  0  0  0  0  0  0  0  0
  -21.4000   -3.7330   26.0180 F   0  0  0  0  0  0  0  0  0  0  0  0
  -22.7950  -13.5570   21.1500 C   0  0  0  0  0  0  0  0  0  0  0  0
  -22.0670  -12.8580   22.0130 N   0  0  0  0  0  0  0  0  0  0  0  0
  -22.3570  -14.5790   20.6250 O   0  0  0  0  0  0  0  0  0  0  0  0
  -22.4340  -12.0310   22.4600 H   0  0  0  0  0  0  0  0  0  0  0  0
  -21.1260  -13.1560   22.2330 H   0  0  0  0  0  0  0  0  0  0  0  0
  -25.4110  -15.2350   20.3360 N   0  0  0  0  0  0  0  0  0  0  0  0
  -24.6390  -15.8860   20.4390 H   0  0  0  0  0  0  0  0  0  0  0  0
  -26.2530  -15.6700   19.9860 H   0  0  0  0  0  0  0  0  0  0  0  0
  1  2  1  0
  2 10  1  0
  2  5  1  0
  3  1  2  0
  3  6  1  0
  4  5  2  0
  4 52  1  0
  6  4  2  0
  7  9  1  0
  7  3  1  0
  8  7  1  0
 11 10  1  0
 12 23  2  0
 13 11  1  0
 13 18  1  0
 14 22  1  0
 14 24  1  0
 15 21  1  0
 15 17  1  0
 16 22  1  0
 17 16  1  0
 18 17  2  0
 19 13  2  0
 20 19  1  0
 20 15  2  0
 21 14  1  0
 22 12  1  0
 24 26  2  0
 25 24  1  0
 27 25  1  0
 28 37  2  0
 28 33  1  0
 29 25  1  0
 29 33  1  0
 30 29  1  0
 31 32  1  0
 31 30  1  0
 32 28  1  0
 33 34  2  0
 34 35  1  0
 36 35  2  0
 37 36  1  0
 38 12  1  0
 38 43  1  0
 38 39  1  0
 39 42  1  1
 39 40  1  0
 41 39  1  0
 43 46  1  0
 44 48  1  0
 44 43  1  0
 45 44  2  0
 48 47  1  0
 50 48  1  0
 50 51  1  0
 50 49  1  0
 53 64  1  0
 54 59  1  0
 55 56  1  0
 55 54  1  0
 57 56  1  0
 57 68  1  0
 57 58  1  0
 59 53  1  0
 59 58  1  0
 60 53  2  0
 63 62  1  0
 63 61  1  0
 63 52  1  0
 64 62  1  0
 64 61  1  0
 65 66  2  0
 66 85  1  0
 67 66  1  0
 67 70  1  0
 68 65  1  0
 68 69  1  0
 69 67  2  0
 70 71  1  0
 71 72  2  0
 73 76  1  0
 73 72  1  0
 74 73  2  0
 75 74  1  0
 75 70  2  0
 76 77  1  0
 77 78  1  0
 78 79  2  0
 80 79  1  0
 80 84  1  0
 81 80  2  0
 82 77  2  0
 82 81  1  0
 83 82  1  0
 85 86  1  0
 86 89  1  0
 86 88  1  0
 87 85  2  0
 90 91  1  0
 90 65  1  0
 92 90  1  0
M  ISO  4  10 101  11 101  53 100  64 100
M  END
>  <TORSDO>  (56) 
F 19

>  <SCORE>  (56) 
-14.312

>  <name>  (56) 
55

>  <ligand_id>  (56) 
55

>  <original_smiles>  (56) 
[H]c1c(C([H])(F)F)nc(OC2([H])C([H])([H])N(C(=O)N3C([H])([H])C([H])([H])C([H])([H])C([H])(n4nc(-c5c([H])c([H])c(Oc6c([H])c([H])c(F)c([H])c6F)c([H])c5[H])c(C(=O)N([H])[H])c4N([H])[H])C3([H])[H])C2([H])[H])nc1C([H])([H])Oc1c([H])c([H])c2c(c1[H])C([H])([H])N(C(=O)C([H])(N([H])C(=O)C([H])(N([H])C([H])([H])[H])C([H])([H])[H])C(C([H])([H])[H])(C([H])([H])[H])C([H])([H])[H])C([H])(C(=O)N([H])C1([H])c3c([H])c([H])c([H])c([H])c3C([H])([H])C([H])([H])C1([H])[H])C2([H])[H]

>  <smiles>  (56) 
[H]c1c(C([H])(F)F)nc(OC2([H])C([H])([H])N(C(=O)N3C([H])([H])C([H])([H])C([H])([H])C([H])(n4nc(-c5c([H])c([H])c(Oc6c([H])c([H])c(F)c([H])c6F)c([H])c5[H])c(C(=O)N([H])[H])c4N([H])[H])C3([H])[H])C2([H])[H])nc1C([H])([H])Oc1c([H])c([H])c2c(c1[H])C([H])([H])N(C(=O)C([H])(N([H])C(=O)C([H])(N([H])C([H])([H])[H])C([H])([H])[H])C(C([H])([H])[H])(C([H])([H])[H])C([H])([H])[H])C([H])(C(=O)N([H])C1([H])c3c([H])c([H])c([H])c([H])c3C([H])([H])C([H])([H])C1([H])[H])C2([H])[H]

$$$$
56:0:0
     RDKit          3D

 95104  0  0  1  0  0  0  0  0999 V2000
  -29.9650  -20.7230   17.5170 C   0  0  0  0  0  3  0  0  0  0  0  0
  -29.4740  -21.9950   17.8490 C   0  0  0  0  0  0  0  0  0  0  0  0
  -29.3440  -22.2680   19.2190 C   0  0  0  0  0  0  0  0  0  0  0  0
  -30.1070  -20.1650   19.7170 C   0  0  0  0  0  0  0  0  0  0  0  0
  -30.2840  -19.8070   18.4560 N   0  0  0  0  0  0  0  0  0  0  0  0
  -29.6630  -21.3440   20.1570 N   0  0  0  0  0  0  0  0  0  0  0  0
  -28.8290  -23.5140   19.6170 N   0  0  0  0  0  0  0  0  0  0  0  0
  -30.4520  -19.2220   20.6640 N   0  0  0  0  0  0  0  0  0  0  0  0
  -29.0580  -23.1510   16.6300 Cl  0  0  0  0  0  0  0  0  0  0  0  0
  -28.5970  -24.0780   18.8060 H   0  0  0  0  0  0  0  0  0  0  0  0
  -31.4480  -19.0470   20.6200 H   0  0  0  0  0  0  0  0  0  0  0  0
  -30.8190  -14.4110   20.1140 C   0  0  0  0  0  0  0  0  0  0  0  0
  -30.4030  -12.3000   18.9040 C   0  0  0  0  0  2  0  0  0  0  0  0
  -29.3910  -12.5690   17.7700 C   0  0  0  0  0  2  0  0  0  0  0  0
  -27.9420  -12.4460   18.2830 C   0  0  0  0  0  2  0  0  0  0  0  0
  -27.7040  -13.2260   19.6040 C   0  0  0  0  0  3  0  0  0  0  0  0
  -28.8220  -12.9150   20.6230 C   0  0  0  0  0  2  0  0  0  0  0  0
  -30.1070  -13.2530   19.9890 N   0  0  0  0  0  0  0  0  0  0  0  0
  -31.9330  -14.5350   19.5930 O   0  0  0  0  0  0  0  0  0  0  0  0
  -29.7920  -17.2810   22.0750 C   0  0  0  0  0  2  0  0  0  0  0  0
  -29.5630  -15.7930   21.7910 C   0  0  0  0  0  2  0  0  0  0  0  0
  -30.3770  -16.8330   19.8100 C   0  0  0  0  0  2  0  0  0  0  0  0
  -29.7550  -17.9310   20.6970 C   0  0  0  0  0  3  0  0  0  0  0  0
  -30.1220  -15.5300   20.4590 N   0  0  0  0  0  0  0  0  0  0  0  0
  -25.3590  -13.8500   20.4540 C   0  0  0  0  0  0  0  0  0  0  0  0
  -24.3030  -13.0840   20.8690 C   0  0  0  0  0  0  0  0  0  0  0  0
  -24.7450  -11.7270   20.7910 C   0  0  0  0  0  0  0  0  0  0  0  0
  -26.3780  -12.9600   20.1530 N   0  0  0  0  0  0  0  0  0  0  0  0
  -26.0140  -11.6770   20.4090 N   0  0  0  0  0  0  0  0  0  0  0  0
  -24.0140  -10.4700   21.0010 C   0  0  0  0  0  0  0  0  0  0  0  0
  -24.4680   -9.4980   21.9180 C   0  0  0  0  0  3  0  0  0  0  0  0
  -23.7400   -8.3050   22.1170 C   0  0  0  0  0  3  0  0  0  0  0  0
  -22.5430   -8.0770   21.3960 C   0  0  0  0  0  0  0  0  0  0  0  0
  -22.1070   -9.0390   20.4670 C   0  0  0  0  0  3  0  0  0  0  0  0
  -22.8370  -10.2230   20.2670 C   0  0  0  0  0  3  0  0  0  0  0  0
  -21.7830   -6.9380   21.5040 O   0  0  0  0  0  0  0  0  0  0  0  0
  -21.7300   -6.2160   22.6690 C   0  0  0  0  0  0  0  0  0  0  0  0
  -21.3130   -6.7950   23.8870 C   0  0  0  0  0  3  0  0  0  0  0  0
  -21.2070   -5.9990   25.0450 C   0  0  0  0  0  3  0  0  0  0  0  0
  -21.5080   -4.6260   24.9860 C   0  0  0  0  0  0  0  0  0  0  0  0
  -21.9190   -4.0460   23.7730 C   0  0  0  0  0  3  0  0  0  0  0  0
  -22.0270   -4.8380   22.6180 C   0  0  0  0  0  0  0  0  0  0  0  0
  -22.4030   -4.2700   21.4460 F   0  0  0  0  0  0  0  0  0  0  0  0
  -21.3990   -3.8600   26.0980 F   0  0  0  0  0  0  0  0  0  0  0  0
  -22.9300  -13.5730   21.2290 C   0  0  0  0  0  0  0  0  0  0  0  0
  -22.2510  -12.8800   22.1380 N   0  0  0  0  0  0  0  0  0  0  0  0
  -22.4680  -14.6040   20.7400 O   0  0  0  0  0  0  0  0  0  0  0  0
  -22.6370  -12.0450   22.5520 H   0  0  0  0  0  0  0  0  0  0  0  0
  -21.3330  -13.1890   22.4210 H   0  0  0  0  0  0  0  0  0  0  0  0
  -25.5320  -15.2200   20.2910 N   0  0  0  0  0  0  0  0  0  0  0  0
  -24.7840  -15.8860   20.4560 H   0  0  0  0  0  0  0  0  0  0  0  0
  -26.3740  -15.6530   19.9330 H   0  0  0  0  0  0  0  0  0  0  0  0
  -29.5330  -24.2650   20.6550 C   0  0  0  0  0  2  0  0  0  0  0  0
  -28.7280  -25.4920   21.1500 C   0  0  0  0  0  2  0  0  0  0  0  0
  -28.7980  -26.6320   20.2770 O   0  0  0  0  0  0  0  0  0  0  0  0
  -24.7070  -31.6990   23.1990 C   0  0  0  0  0  0  0  0  0  0  0  0
  -27.6260  -27.3560   20.2320 C   0  0  0  0  0  0  0  0  0  0  0  0
  -23.6140  -30.2460   21.5220 C   0  0  0  0  0  3  0  0  0  0  0  0
  -25.1770  -28.7630   20.1530 C   0  0  0  0  0  0  0  0  0  0  0  0
  -26.1290  -30.7050   21.4080 C   0  0  0  0  0  2  0  0  0  0  0  0
  -26.2920  -29.3360   20.7790 C   0  0  0  0  0  0  0  0  0  0  0  0
  -27.5230  -28.6400   20.8130 C   0  0  0  0  0  3  0  0  0  0  0  0
  -26.4980  -26.7970   19.5960 C   0  0  0  0  0  3  0  0  0  0  0  0
  -25.2740  -27.4930   19.5580 C   0  0  0  0  0  3  0  0  0  0  0  0
  -23.8980  -29.5710   20.1530 C   0  0  0  0  0  2  0  0  0  0  0  0
  -24.8320  -30.9000   22.1020 N   0  0  0  0  0  0  0  0  0  0  0  0
  -23.5980  -31.9280   23.7020 O   0  0  0  0  0  0  0  0  0  0  0  0
  -22.9700  -29.2030   22.4640 C   0  0  0  0  0  0  0  0  0  0  0  0
  -21.6560  -28.9790   22.3010 N   0  0  0  0  0  0  0  0  0  0  0  0
  -23.6520  -28.6000   23.2970 O   0  0  0  0  0  0  0  0  0  0  0  0
  -21.1670  -29.5200   21.6020 H   0  0  0  0  0  0  0  0  0  0  0  0
  -18.3100  -27.6780   22.7110 C   0  0  0  0  0  0  0  0  0  0  0  0
  -20.8500  -28.0140   23.0480 C   0  0  0  0  0  3  0  0  0  0  0  0
  -21.0120  -26.5880   22.4710 C   0  0  0  0  0  2  0  0  0  0  0  0
  -19.9470  -26.2360   21.4280 C   0  0  0  0  0  2  0  0  0  0  0  0
  -18.5440  -26.3370   22.0360 C   0  0  0  0  0  2  0  0  0  0  0  0
  -19.3930  -28.4720   23.1730 C   0  0  0  0  0  0  0  0  0  0  0  0
  -19.1210  -29.7270   23.7610 C   0  0  0  0  0  3  0  0  0  0  0  0
  -17.7980  -30.1890   23.8930 C   0  0  0  0  0  3  0  0  0  0  0  0
  -16.7300  -29.3920   23.4480 C   0  0  0  0  0  3  0  0  0  0  0  0
  -16.9850  -28.1390   22.8630 C   0  0  0  0  0  3  0  0  0  0  0  0
  -25.9450  -32.3820   23.8600 C   0  0  0  0  0  3  0  0  0  0  0  0
  -25.5700  -33.7650   24.1800 N   0  0  0  0  0  0  0  0  0  0  0  0
  -25.8700  -34.8280   23.4220 C   0  0  0  0  0  0  0  0  0  0  0  0
  -26.5620  -34.7510   22.4040 O   0  0  0  0  0  0  0  0  0  0  0  0
  -24.9540  -33.8960   24.9690 H   0  0  0  0  0  0  0  0  0  0  0  0
  -24.0590  -36.5330   23.0420 C   0  0  0  0  0  1  0  0  0  0  0  0
  -25.3120  -36.1950   23.8650 C   0  0  0  0  0  3  0  0  0  0  0  0
  -27.3940  -37.1880   24.7050 C   0  0  0  0  0  1  0  0  0  0  0  0
  -26.2940  -37.2960   23.7510 N   0  0  0  0  0  0  0  0  0  0  0  0
  -25.8420  -38.1960   23.8870 H   0  0  0  0  0  0  0  0  0  0  0  0
  -26.4560  -31.6290   25.1490 C   0  0  1  0  0  0  0  0  0  0  0  0
  -25.3430  -31.3430   26.1850 C   0  0  0  0  0  1  0  0  0  0  0  0
  -27.1060  -30.2770   24.7700 C   0  0  0  0  0  1  0  0  0  0  0  0
  -27.5540  -32.4680   25.8460 C   0  0  0  0  0  1  0  0  0  0  0  0
  1  2  2  0
  1  5  1  0
  2  3  1  0
  3  7  1  0
  3  6  2  0
  4  6  1  0
  4  8  1  0
  5  4  2  0
  7 53  1  0
  9  2  1  0
 10  7  1  0
 11  8  1  0
 12 24  1  0
 13 18  1  0
 14 15  1  0
 14 13  1  0
 16 15  1  0
 16 28  1  0
 16 17  1  0
 18 12  1  0
 18 17  1  0
 19 12  2  0
 21 20  1  0
 22 24  1  0
 22 23  1  0
 23  8  1  0
 23 20  1  0
 24 21  1  0
 25 26  2  0
 26 45  1  0
 27 26  1  0
 27 30  1  0
 28 29  1  0
 28 25  1  0
 29 27  2  0
 30 31  1  0
 31 32  2  0
 33 36  1  0
 33 32  1  0
 34 33  2  0
 35 34  1  0
 35 30  2  0
 36 37  1  0
 37 38  1  0
 38 39  2  0
 40 39  1  0
 40 44  1  0
 41 40  2  0
 42 37  2  0
 42 41  1  0
 43 42  1  0
 45 46  1  0
 46 49  1  0
 46 48  1  0
 47 45  2  0
 50 25  1  0
 50 51  1  0
 52 50  1  0
 53 54  1  0
 55 54  1  0
 56 67  2  0
 57 55  1  0
 57 62  1  0
 58 66  1  0
 58 68  1  0
 59 65  1  0
 59 61  1  0
 60 66  1  0
 61 62  2  0
 61 60  1  0
 63 57  2  0
 64 63  1  0
 64 59  2  0
 65 58  1  0
 66 56  1  0
 68 70  2  0
 69 68  1  0
 71 69  1  0
 72 81  2  0
 72 77  1  0
 73 69  1  0
 73 77  1  0
 74 73  1  0
 75 76  1  0
 75 74  1  0
 76 72  1  0
 77 78  2  0
 78 79  1  0
 80 79  2  0
 81 80  1  0
 82 56  1  0
 82 83  1  0
 82 92  1  0
 83 86  1  0
 84 88  1  0
 84 83  1  0
 85 84  2  0
 88 87  1  0
 90 88  1  0
 90 91  1  0
 90 89  1  0
 92 95  1  1
 92 93  1  0
 94 92  1  0
M  ISO  4  12 100  24 100  54 101  55 101
M  END
>  <TORSDO>  (57) 
F 18

>  <SCORE>  (57) 
-13.513

>  <name>  (57) 
56

>  <ligand_id>  (57) 
56

>  <original_smiles>  (57) 
[H]c1nc(N([H])C2([H])C([H])([H])N(C(=O)N3C([H])([H])C([H])([H])C([H])([H])C([H])(n4nc(-c5c([H])c([H])c(Oc6c([H])c([H])c(F)c([H])c6F)c([H])c5[H])c(C(=O)N([H])[H])c4N([H])[H])C3([H])[H])C([H])([H])C2([H])[H])nc(N([H])C([H])([H])C([H])([H])Oc2c([H])c([H])c3c(c2[H])C([H])([H])N(C(=O)C([H])(N([H])C(=O)C([H])(N([H])C([H])([H])[H])C([H])([H])[H])C(C([H])([H])[H])(C([H])([H])[H])C([H])([H])[H])C([H])(C(=O)N([H])C2([H])c4c([H])c([H])c([H])c([H])c4C([H])([H])C([H])([H])C2([H])[H])C3([H])[H])c1Cl

>  <smiles>  (57) 
[H]c1nc(N([H])C2([H])C([H])([H])N(C(=O)N3C([H])([H])C([H])([H])C([H])([H])C([H])(n4nc(-c5c([H])c([H])c(Oc6c([H])c([H])c(F)c([H])c6F)c([H])c5[H])c(C(=O)N([H])[H])c4N([H])[H])C3([H])[H])C([H])([H])C2([H])[H])nc(N([H])C([H])([H])C([H])([H])Oc2c([H])c([H])c3c(c2[H])C([H])([H])N(C(=O)C([H])(N([H])C(=O)C([H])(N([H])C([H])([H])[H])C([H])([H])[H])C(C([H])([H])[H])(C([H])([H])[H])C([H])([H])[H])C([H])(C(=O)N([H])C2([H])c4c([H])c([H])c([H])c([H])c4C([H])([H])C([H])([H])C2([H])[H])C3([H])[H])c1Cl

$$$$
57:0:0
     RDKit          3D

 89 98  0  0  1  0  0  0  0  0999 V2000
  -28.3800  -20.3290   21.1910 C   0  0  0  0  0  3  0  0  0  0  0  0
  -28.3330  -21.7550   21.1610 C   0  0  0  0  0  3  0  0  0  0  0  0
  -30.0720  -20.4140   19.5250 C   0  0  0  0  0  3  0  0  0  0  0  0
  -29.2760  -19.5940   20.3690 C   0  0  0  0  0  0  0  0  0  0  0  0
  -29.1800  -22.4930   20.3010 C   0  0  0  0  0  0  0  0  0  0  0  0
  -30.0280  -21.7900   19.4930 N   0  0  0  0  0  0  0  0  0  0  0  0
  -30.6360  -14.8150   20.0830 C   0  0  0  0  0  0  0  0  0  0  0  0
  -30.3750  -12.5640   19.0480 C   0  0  0  0  0  2  0  0  0  0  0  0
  -29.3850  -12.6680   17.8690 C   0  0  0  0  0  2  0  0  0  0  0  0
  -27.9350  -12.4990   18.3620 C   0  0  0  0  0  2  0  0  0  0  0  0
  -27.6200  -13.3790   19.6020 C   0  0  0  0  0  3  0  0  0  0  0  0
  -28.7220  -13.2640   20.6760 C   0  0  0  0  0  2  0  0  0  0  0  0
  -29.9980  -13.6010   20.0310 N   0  0  0  0  0  0  0  0  0  0  0  0
  -31.8070  -14.9240   19.7080 O   0  0  0  0  0  0  0  0  0  0  0  0
  -29.7190  -17.0230   19.2690 C   0  0  0  0  0  2  0  0  0  0  0  0
  -30.1970  -17.0590   21.2290 C   0  0  0  0  0  2  0  0  0  0  0  0
  -29.2960  -18.0040   20.3890 C   0  0  0  0  0  3  0  0  0  0  0  0
  -29.8570  -15.9400   20.2950 N   0  0  0  0  0  0  0  0  0  0  0  0
  -25.2690  -13.9750   20.4410 C   0  0  0  0  0  0  0  0  0  0  0  0
  -24.2140  -13.2000   20.8410 C   0  0  0  0  0  0  0  0  0  0  0  0
  -24.6670  -11.8480   20.7650 C   0  0  0  0  0  0  0  0  0  0  0  0
  -26.2950  -13.0940   20.1450 N   0  0  0  0  0  0  0  0  0  0  0  0
  -25.9430  -11.8070   20.4010 N   0  0  0  0  0  0  0  0  0  0  0  0
  -23.9390  -10.5860   20.9590 C   0  0  0  0  0  0  0  0  0  0  0  0
  -24.3720   -9.6200   21.8940 C   0  0  0  0  0  3  0  0  0  0  0  0
  -23.6460   -8.4250   22.0770 C   0  0  0  0  0  3  0  0  0  0  0  0
  -22.4710   -8.1860   21.3240 C   0  0  0  0  0  0  0  0  0  0  0  0
  -22.0580   -9.1400   20.3780 C   0  0  0  0  0  3  0  0  0  0  0  0
  -22.7850  -10.3270   20.1930 C   0  0  0  0  0  3  0  0  0  0  0  0
  -21.7160   -7.0410   21.4170 O   0  0  0  0  0  0  0  0  0  0  0  0
  -21.6250   -6.3320   22.5870 C   0  0  0  0  0  0  0  0  0  0  0  0
  -21.1030   -6.9040   23.7670 C   0  0  0  0  0  3  0  0  0  0  0  0
  -20.9630   -6.1180   24.9290 C   0  0  0  0  0  3  0  0  0  0  0  0
  -21.3330   -4.7600   24.9100 C   0  0  0  0  0  0  0  0  0  0  0  0
  -21.8470   -4.1870   23.7340 C   0  0  0  0  0  3  0  0  0  0  0  0
  -21.9890   -4.9700   22.5750 C   0  0  0  0  0  0  0  0  0  0  0  0
  -22.4660   -4.4070   21.4390 F   0  0  0  0  0  0  0  0  0  0  0  0
  -21.1900   -4.0030   26.0220 F   0  0  0  0  0  0  0  0  0  0  0  0
  -22.8330  -13.6810   21.1830 C   0  0  0  0  0  0  0  0  0  0  0  0
  -22.1410  -12.9730   22.0680 N   0  0  0  0  0  0  0  0  0  0  0  0
  -22.3790  -14.7180   20.7000 O   0  0  0  0  0  0  0  0  0  0  0  0
  -22.5230  -12.1340   22.4770 H   0  0  0  0  0  0  0  0  0  0  0  0
  -21.2170  -13.2760   22.3430 H   0  0  0  0  0  0  0  0  0  0  0  0
  -25.4350  -15.3480   20.2820 N   0  0  0  0  0  0  0  0  0  0  0  0
  -24.6740  -16.0050   20.4240 H   0  0  0  0  0  0  0  0  0  0  0  0
  -26.2820  -15.7860   19.9420 H   0  0  0  0  0  0  0  0  0  0  0  0
  -29.3370  -24.0740   20.3840 C   0  0  0  0  0  3  0  0  0  0  0  0
  -28.1850  -25.0940   19.9470 C   0  0  0  0  0  3  0  0  0  0  0  0
  -28.3800  -26.5590   20.1870 O   0  0  0  0  0  0  0  0  0  0  0  0
  -24.6400  -31.9120   23.2980 C   0  0  0  0  0  0  0  0  0  0  0  0
  -27.2620  -27.4170   20.1440 C   0  0  0  0  0  0  0  0  0  0  0  0
  -23.4380  -30.5430   21.6320 C   0  0  0  0  0  3  0  0  0  0  0  0
  -24.8920  -29.0320   20.1670 C   0  0  0  0  0  0  0  0  0  0  0  0
  -25.9760  -30.8740   21.4520 C   0  0  0  0  0  2  0  0  0  0  0  0
  -26.0610  -29.5100   20.7730 C   0  0  0  0  0  0  0  0  0  0  0  0
  -27.2490  -28.7150   20.7510 C   0  0  0  0  0  3  0  0  0  0  0  0
  -26.0680  -27.0000   19.5120 C   0  0  0  0  0  3  0  0  0  0  0  0
  -24.8990  -27.7830   19.5270 C   0  0  0  0  0  3  0  0  0  0  0  0
  -23.6520  -29.9010   20.2370 C   0  0  0  0  0  2  0  0  0  0  0  0
  -24.7030  -31.1260   22.1840 N   0  0  0  0  0  0  0  0  0  0  0  0
  -23.5570  -32.1760   23.8400 O   0  0  0  0  0  0  0  0  0  0  0  0
  -22.7820  -29.5030   22.5710 C   0  0  0  0  0  0  0  0  0  0  0  0
  -21.4580  -29.3170   22.4360 N   0  0  0  0  0  0  0  0  0  0  0  0
  -23.4640  -28.8700   23.3810 O   0  0  0  0  0  0  0  0  0  0  0  0
  -20.9670  -29.8800   21.7560 H   0  0  0  0  0  0  0  0  0  0  0  0
  -18.0870  -28.0930   22.9110 C   0  0  0  0  0  0  0  0  0  0  0  0
  -20.6440  -28.3590   23.1870 C   0  0  0  0  0  3  0  0  0  0  0  0
  -20.7530  -26.9410   22.5800 C   0  0  0  0  0  2  0  0  0  0  0  0
  -19.6530  -26.6340   21.5600 C   0  0  0  0  0  2  0  0  0  0  0  0
  -18.2690  -26.7600   22.2060 C   0  0  0  0  0  2  0  0  0  0  0  0
  -19.2020  -28.8510   23.3570 C   0  0  0  0  0  0  0  0  0  0  0  0
  -18.9770  -30.1000   23.9760 C   0  0  0  0  0  3  0  0  0  0  0  0
  -17.6700  -30.5920   24.1530 C   0  0  0  0  0  3  0  0  0  0  0  0
  -16.5690  -29.8300   23.7250 C   0  0  0  0  0  3  0  0  0  0  0  0
  -16.7790  -28.5820   23.1080 C   0  0  0  0  0  3  0  0  0  0  0  0
  -25.9220  -32.5360   23.9320 C   0  0  0  0  0  3  0  0  0  0  0  0
  -25.6180  -33.9350   24.2610 N   0  0  0  0  0  0  0  0  0  0  0  0
  -25.9260  -34.9840   23.4880 C   0  0  0  0  0  0  0  0  0  0  0  0
  -26.5700  -34.8770   22.4400 O   0  0  0  0  0  0  0  0  0  0  0  0
  -25.0420  -34.0920   25.0750 H   0  0  0  0  0  0  0  0  0  0  0  0
  -24.1730  -36.7630   23.1890 C   0  0  0  0  0  1  0  0  0  0  0  0
  -25.4500  -36.3740   23.9510 C   0  0  0  0  0  3  0  0  0  0  0  0
  -27.6060  -37.2890   24.6920 C   0  0  0  0  0  1  0  0  0  0  0  0
  -26.4700  -37.4320   23.7840 N   0  0  0  0  0  0  0  0  0  0  0  0
  -26.0630  -38.3520   23.9290 H   0  0  0  0  0  0  0  0  0  0  0  0
  -26.4210  -31.7610   25.2140 C   0  0  1  0  0  0  0  0  0  0  0  0
  -25.3150  -31.5260   26.2690 C   0  0  0  0  0  1  0  0  0  0  0  0
  -27.0060  -30.3830   24.8280 C   0  0  0  0  0  1  0  0  0  0  0  0
  -27.5660  -32.5520   25.8910 C   0  0  0  0  0  1  0  0  0  0  0  0
  2  1  1  0
  3  4  1  0
  4  1  2  0
  5 47  1  0
  5  2  2  0
  6  3  2  0
  6  5  1  0
  7 18  1  0
  8 13  1  0
  9 10  1  0
  9  8  1  0
 11 10  1  0
 11 22  1  0
 11 12  1  0
 13  7  1  0
 13 12  1  0
 14  7  2  0
 15 18  1  0
 15 17  1  0
 17  4  1  0
 17 16  1  0
 18 16  1  0
 19 20  2  0
 20 39  1  0
 21 20  1  0
 21 24  1  0
 22 23  1  0
 22 19  1  0
 23 21  2  0
 24 25  1  0
 25 26  2  0
 27 30  1  0
 27 26  1  0
 28 27  2  0
 29 28  1  0
 29 24  2  0
 30 31  1  0
 31 32  1  0
 32 33  2  0
 34 33  1  0
 34 38  1  0
 35 34  2  0
 36 31  2  0
 36 35  1  0
 37 36  1  0
 39 40  1  0
 40 43  1  0
 40 42  1  0
 41 39  2  0
 44 45  1  0
 44 19  1  0
 46 44  1  0
 48 49  1  0
 48 47  2  0
 50 61  2  0
 51 49  1  0
 51 56  1  0
 52 60  1  0
 52 62  1  0
 53 59  1  0
 53 55  1  0
 54 60  1  0
 55 54  1  0
 56 55  2  0
 57 58  1  0
 57 51  2  0
 58 53  2  0
 59 52  1  0
 60 50  1  0
 62 64  2  0
 63 62  1  0
 65 63  1  0
 66 75  2  0
 66 71  1  0
 67 63  1  0
 67 71  1  0
 68 67  1  0
 69 70  1  0
 69 68  1  0
 70 66  1  0
 71 72  2  0
 72 73  1  0
 74 73  2  0
 75 74  1  0
 76 50  1  0
 76 77  1  0
 76 86  1  0
 77 80  1  0
 78 82  1  0
 78 77  1  0
 79 78  2  0
 82 81  1  0
 84 85  1  0
 84 82  1  0
 84 83  1  0
 86 89  1  1
 86 87  1  0
 88 86  1  0
M  ISO  4   7 100  18 100  48 101  49 101
M  END
>  <TORSDO>  (58) 
F 18

>  <SCORE>  (58) 
-14.456

>  <name>  (58) 
57

>  <ligand_id>  (58) 
57

>  <original_smiles>  (58) 
[H]c1nc(C([H])([H])C([H])([H])Oc2c([H])c([H])c3c(c2[H])C([H])([H])N(C(=O)C([H])(N([H])C(=O)C([H])(N([H])C([H])([H])[H])C([H])([H])[H])C(C([H])([H])[H])(C([H])([H])[H])C([H])([H])[H])C([H])(C(=O)N([H])C2([H])c4c([H])c([H])c([H])c([H])c4C([H])([H])C([H])([H])C2([H])[H])C3([H])[H])c([H])c([H])c1C1([H])C([H])([H])N(C(=O)N2C([H])([H])C([H])([H])C([H])([H])C([H])(n3nc(-c4c([H])c([H])c(Oc5c([H])c([H])c(F)c([H])c5F)c([H])c4[H])c(C(=O)N([H])[H])c3N([H])[H])C2([H])[H])C1([H])[H]

>  <smiles>  (58) 
[H]c1nc(C([H])([H])C([H])([H])Oc2c([H])c([H])c3c(c2[H])C([H])([H])N(C(=O)C([H])(N([H])C(=O)C([H])(N([H])C([H])([H])[H])C([H])([H])[H])C(C([H])([H])[H])(C([H])([H])[H])C([H])([H])[H])C([H])(C(=O)N([H])C2([H])c4c([H])c([H])c([H])c([H])c4C([H])([H])C([H])([H])C2([H])[H])C3([H])[H])c([H])c([H])c1C1([H])C([H])([H])N(C(=O)N2C([H])([H])C([H])([H])C([H])([H])C([H])(n3nc(-c4c([H])c([H])c(Oc5c([H])c([H])c(F)c([H])c5F)c([H])c4[H])c(C(=O)N([H])[H])c3N([H])[H])C2([H])[H])C1([H])[H]

$$$$
58:0:0
     RDKit          3D

 93102  0  0  1  0  0  0  0  0999 V2000
  -30.6570  -22.2640   20.2980 C   0  0  0  0  0  2  0  0  0  0  0  0
  -30.4810  -20.7680   19.9920 C   0  0  0  0  0  2  0  0  0  0  0  0
  -28.6960  -21.3570   21.3310 C   0  0  0  0  0  2  0  0  0  0  0  0
  -29.6220  -22.5850   21.3810 C   0  0  0  0  0  3  0  0  0  0  0  0
  -29.6230  -20.2570   21.0620 N   0  0  0  0  0  0  0  0  0  0  0  0
  -28.9300  -23.8890   21.1910 N   0  0  0  0  0  4  0  0  0  0  0  0
  -28.2090  -23.9470   21.8950 H   0  0  0  0  0  0  0  0  0  0  0  0
  -28.4710  -23.9080   20.2930 H   0  0  0  0  0  0  0  0  0  0  0  0
  -29.8070  -25.0870   21.3260 C   0  0  0  0  0  2  0  0  0  0  0  0
  -29.0260  -26.4200   21.3900 C   0  0  0  0  0  2  0  0  0  0  0  0
  -28.4170  -26.6890   20.1300 O   0  0  0  0  0  0  0  0  0  0  0  0
  -24.5980  -31.8850   23.2330 C   0  0  0  0  0  0  0  0  0  0  0  0
  -27.2840  -27.4690   20.1660 C   0  0  0  0  0  0  0  0  0  0  0  0
  -23.4080  -30.4820   21.5780 C   0  0  0  0  0  3  0  0  0  0  0  0
  -24.8820  -28.9540   20.1620 C   0  0  0  0  0  0  0  0  0  0  0  0
  -25.9320  -30.8530   21.4000 C   0  0  0  0  0  2  0  0  0  0  0  0
  -26.0300  -29.4810   20.7680 C   0  0  0  0  0  0  0  0  0  0  0  0
  -27.2330  -28.7430   20.7800 C   0  0  0  0  0  3  0  0  0  0  0  0
  -26.1280  -26.9600   19.5440 C   0  0  0  0  0  3  0  0  0  0  0  0
  -24.9240  -27.6880   19.5500 C   0  0  0  0  0  3  0  0  0  0  0  0
  -23.6320  -29.8050   20.1980 C   0  0  0  0  0  2  0  0  0  0  0  0
  -24.6630  -31.0890   22.1290 N   0  0  0  0  0  0  0  0  0  0  0  0
  -23.5120  -32.1520   23.7670 O   0  0  0  0  0  0  0  0  0  0  0  0
  -22.7550  -29.4570   22.5310 C   0  0  0  0  0  0  0  0  0  0  0  0
  -21.4280  -29.2880   22.4070 N   0  0  0  0  0  0  0  0  0  0  0  0
  -23.4370  -28.8160   23.3350 O   0  0  0  0  0  0  0  0  0  0  0  0
  -20.9390  -29.8550   21.7290 H   0  0  0  0  0  0  0  0  0  0  0  0
  -18.0420  -28.1380   22.9240 C   0  0  0  0  0  0  0  0  0  0  0  0
  -20.6060  -28.3500   23.1720 C   0  0  0  0  0  3  0  0  0  0  0  0
  -20.6790  -26.9270   22.5690 C   0  0  0  0  0  2  0  0  0  0  0  0
  -19.5620  -26.6400   21.5620 C   0  0  0  0  0  2  0  0  0  0  0  0
  -18.1890  -26.7970   22.2240 C   0  0  0  0  0  2  0  0  0  0  0  0
  -19.1780  -28.8740   23.3550 C   0  0  0  0  0  0  0  0  0  0  0  0
  -18.9870  -30.1300   23.9690 C   0  0  0  0  0  3  0  0  0  0  0  0
  -17.6930  -30.6520   24.1550 C   0  0  0  0  0  3  0  0  0  0  0  0
  -16.5730  -29.9130   23.7420 C   0  0  0  0  0  3  0  0  0  0  0  0
  -16.7470  -28.6570   23.1330 C   0  0  0  0  0  3  0  0  0  0  0  0
  -25.8780  -32.5180   23.8630 C   0  0  0  0  0  3  0  0  0  0  0  0
  -26.3910  -31.7430   25.1390 C   0  0  1  0  0  0  0  0  0  0  0  0
  -25.2920  -31.5000   26.2000 C   0  0  0  0  0  1  0  0  0  0  0  0
  -26.9810  -30.3700   24.7440 C   0  0  0  0  0  1  0  0  0  0  0  0
  -27.5350  -32.5390   25.8110 C   0  0  0  0  0  1  0  0  0  0  0  0
  -25.5670  -33.9140   24.1910 N   0  0  0  0  0  0  0  0  0  0  0  0
  -25.9000  -34.9650   23.4320 C   0  0  0  0  0  0  0  0  0  0  0  0
  -26.5750  -34.8620   22.4030 O   0  0  0  0  0  0  0  0  0  0  0  0
  -24.9700  -34.0690   24.9900 H   0  0  0  0  0  0  0  0  0  0  0  0
  -24.1660  -36.7500   23.0670 C   0  0  0  0  0  1  0  0  0  0  0  0
  -25.4060  -36.3530   23.8840 C   0  0  0  0  0  3  0  0  0  0  0  0
  -27.5360  -37.2460   24.7200 C   0  0  0  0  0  1  0  0  0  0  0  0
  -26.4360  -37.4090   23.7730 N   0  0  0  0  0  0  0  0  0  0  0  0
  -26.0270  -38.3280   23.9180 H   0  0  0  0  0  0  0  0  0  0  0  0
  -28.9510  -18.9930   20.7240 C   0  0  0  0  0  2  0  0  0  0  0  0
  -30.7010  -14.4420   20.1340 C   0  0  0  0  0  0  0  0  0  0  0  0
  -30.3050  -12.3030   18.9650 C   0  0  0  0  0  2  0  0  0  0  0  0
  -29.3060  -12.5020   17.8090 C   0  0  0  0  0  2  0  0  0  0  0  0
  -27.8580  -12.3650   18.3140 C   0  0  0  0  0  2  0  0  0  0  0  0
  -27.5850  -13.2170   19.5820 C   0  0  0  0  0  3  0  0  0  0  0  0
  -28.6890  -13.0010   20.6410 C   0  0  0  0  0  2  0  0  0  0  0  0
  -29.9880  -13.2900   20.0110 N   0  0  0  0  0  0  0  0  0  0  0  0
  -31.7660  -14.6340   19.5340 O   0  0  0  0  0  0  0  0  0  0  0  0
  -30.5640  -17.4950   22.0860 C   0  0  0  0  0  2  0  0  0  0  0  0
  -31.0310  -16.0400   21.9650 C   0  0  0  0  0  2  0  0  0  0  0  0
  -29.2970  -16.4280   20.3930 C   0  0  0  0  0  2  0  0  0  0  0  0
  -29.9280  -17.7880   20.7350 C   0  0  0  0  0  3  0  0  0  0  0  0
  -30.1840  -15.3920   20.9520 N   0  0  0  0  0  0  0  0  0  0  0  0
  -25.2370  -13.8460   20.4300 C   0  0  0  0  0  0  0  0  0  0  0  0
  -24.1790  -13.0820   20.8410 C   0  0  0  0  0  0  0  0  0  0  0  0
  -24.6150  -11.7250   20.7550 C   0  0  0  0  0  0  0  0  0  0  0  0
  -26.2550  -12.9540   20.1260 N   0  0  0  0  0  0  0  0  0  0  0  0
  -25.8860  -11.6720   20.3770 N   0  0  0  0  0  0  0  0  0  0  0  0
  -23.8800  -10.4690   20.9560 C   0  0  0  0  0  0  0  0  0  0  0  0
  -24.3140   -9.4990   21.8860 C   0  0  0  0  0  3  0  0  0  0  0  0
  -23.5800   -8.3080   22.0740 C   0  0  0  0  0  3  0  0  0  0  0  0
  -22.3960   -8.0800   21.3330 C   0  0  0  0  0  0  0  0  0  0  0  0
  -21.9810   -9.0380   20.3920 C   0  0  0  0  0  3  0  0  0  0  0  0
  -22.7150  -10.2200   20.2020 C   0  0  0  0  0  3  0  0  0  0  0  0
  -21.6330   -6.9420   21.4300 O   0  0  0  0  0  0  0  0  0  0  0  0
  -21.5560   -6.2240   22.5970 C   0  0  0  0  0  0  0  0  0  0  0  0
  -21.1060   -6.8080   23.8020 C   0  0  0  0  0  3  0  0  0  0  0  0
  -20.9770   -6.0180   24.9610 C   0  0  0  0  0  3  0  0  0  0  0  0
  -21.2860   -4.6450   24.9170 C   0  0  0  0  0  0  0  0  0  0  0  0
  -21.7280   -4.0610   23.7170 C   0  0  0  0  0  3  0  0  0  0  0  0
  -21.8600   -4.8490   22.5590 C   0  0  0  0  0  0  0  0  0  0  0  0
  -22.2660   -4.2770   21.4000 F   0  0  0  0  0  0  0  0  0  0  0  0
  -21.1540   -3.8840   26.0280 F   0  0  0  0  0  0  0  0  0  0  0  0
  -22.8060  -13.5750   21.1990 C   0  0  0  0  0  0  0  0  0  0  0  0
  -22.1130  -12.8660   22.0830 N   0  0  0  0  0  0  0  0  0  0  0  0
  -22.3590  -14.6210   20.7300 O   0  0  0  0  0  0  0  0  0  0  0  0
  -22.4880  -12.0200   22.4840 H   0  0  0  0  0  0  0  0  0  0  0  0
  -21.1940  -13.1780   22.3660 H   0  0  0  0  0  0  0  0  0  0  0  0
  -25.4160  -15.2180   20.2720 N   0  0  0  0  0  0  0  0  0  0  0  0
  -24.6660  -15.8820   20.4340 H   0  0  0  0  0  0  0  0  0  0  0  0
  -26.2540  -15.6470   19.9030 H   0  0  0  0  0  0  0  0  0  0  0  0
  1  4  1  0
  2  1  1  0
  2  5  1  0
  3  4  1  0
  4  6  1  0
  5  3  1  0
  6  9  1  0
  6  7  1  0
  8  6  1  0
  9 10  1  0
 11 13  1  0
 11 10  1  0
 12 23  2  0
 13 18  1  0
 14 22  1  0
 14 24  1  0
 15 21  1  0
 15 17  1  0
 16 22  1  0
 17 18  2  0
 17 16  1  0
 19 20  1  0
 19 13  2  0
 20 15  2  0
 21 14  1  0
 22 12  1  0
 24 26  2  0
 25 24  1  0
 27 25  1  0
 28 37  2  0
 28 33  1  0
 29 25  1  0
 29 33  1  0
 30 29  1  0
 31 32  1  0
 31 30  1  0
 32 28  1  0
 33 34  2  0
 34 35  1  0
 36 35  2  0
 37 36  1  0
 38 12  1  0
 38 43  1  0
 38 39  1  0
 39 42  1  1
 39 40  1  0
 41 39  1  0
 43 46  1  0
 44 48  1  0
 44 43  1  0
 45 44  2  0
 48 47  1  0
 50 48  1  0
 50 51  1  0
 50 49  1  0
 52  5  1  0
 53 65  1  0
 54 59  1  0
 55 56  1  0
 55 54  1  0
 57 56  1  0
 57 69  1  0
 57 58  1  0
 59 53  1  0
 59 58  1  0
 60 53  2  0
 62 61  1  0
 63 64  1  0
 63 65  1  0
 64 52  1  0
 64 61  1  0
 65 62  1  0
 66 67  2  0
 67 86  1  0
 68 67  1  0
 68 71  1  0
 69 70  1  0
 69 66  1  0
 70 68  2  0
 71 72  1  0
 72 73  2  0
 74 77  1  0
 74 73  1  0
 75 74  2  0
 76 75  1  0
 76 71  2  0
 77 78  1  0
 78 79  1  0
 79 80  2  0
 81 80  1  0
 81 85  1  0
 82 81  2  0
 83 78  2  0
 83 82  1  0
 84 83  1  0
 86 87  1  0
 87 90  1  0
 87 89  1  0
 88 86  2  0
 91 66  1  0
 91 92  1  0
 93 91  1  0
M  ISO  4  10 101  11 101  53 100  65 100
M  END
>  <TORSDO>  (59) 
F 20

>  <SCORE>  (59) 
-13.971

>  <name>  (59) 
58

>  <ligand_id>  (59) 
58

>  <original_smiles>  (59) 
[H]c1c([H])c([H])c2c(c1[H])C([H])([H])C([H])([H])C([H])([H])C2([H])N([H])C(=O)C1([H])N(C(=O)C([H])(N([H])C(=O)C([H])(N([H])C([H])([H])[H])C([H])([H])[H])C(C([H])([H])[H])(C([H])([H])[H])C([H])([H])[H])C([H])([H])c2c([H])c(OC([H])([H])C([H])([H])[N+]([H])([H])C3([H])C([H])([H])N(C([H])([H])C4([H])C([H])([H])N(C(=O)N5C([H])([H])C([H])([H])C([H])([H])C([H])(n6nc(-c7c([H])c([H])c(Oc8c([H])c([H])c(F)c([H])c8F)c([H])c7[H])c(C(=O)N([H])[H])c6N([H])[H])C5([H])[H])C([H])([H])C4([H])[H])C([H])([H])C3([H])[H])c([H])c([H])c2C1([H])[H]

>  <smiles>  (59) 
[H]c1c([H])c([H])c2c(c1[H])C([H])([H])C([H])([H])C([H])([H])C2([H])N([H])C(=O)C1([H])N(C(=O)C([H])(N([H])C(=O)C([H])(N([H])C([H])([H])[H])C([H])([H])[H])C(C([H])([H])[H])(C([H])([H])[H])C([H])([H])[H])C([H])([H])c2c([H])c(OC([H])([H])C([H])([H])[N+]([H])([H])C3([H])C([H])([H])N(C([H])([H])C4([H])C([H])([H])N(C(=O)N5C([H])([H])C([H])([H])C([H])([H])C([H])(n6nc(-c7c([H])c([H])c(Oc8c([H])c([H])c(F)c([H])c8F)c([H])c7[H])c(C(=O)N([H])[H])c6N([H])[H])C5([H])[H])C([H])([H])C4([H])[H])C([H])([H])C3([H])[H])c([H])c([H])c2C1([H])[H]

$$$$
59:0:0
     RDKit          3D

 93102  0  0  1  0  0  0  0  0999 V2000
  -29.1410  -22.8560   20.4250 N   0  0  0  0  0  4  0  0  0  0  0  0
  -29.0770  -22.9120   19.4200 H   0  0  0  0  0  0  0  0  0  0  0  0
  -30.0880  -23.1220   20.6490 H   0  0  0  0  0  0  0  0  0  0  0  0
  -26.7360  -23.6540   20.7070 C   0  0  0  0  0  1  0  0  0  0  0  0
  -28.2090  -23.8750   21.0880 C   0  0  0  0  0  3  0  0  0  0  0  0
  -28.6380  -25.4290   21.1760 C   0  0  0  0  0  2  0  0  0  0  0  0
  -28.3720  -26.4660   20.1630 O   0  0  0  0  0  0  0  0  0  0  0  0
  -24.5760  -31.8650   23.2100 C   0  0  0  0  0  0  0  0  0  0  0  0
  -27.2480  -27.2950   20.2430 C   0  0  0  0  0  0  0  0  0  0  0  0
  -23.4030  -30.4600   21.5530 C   0  0  0  0  0  3  0  0  0  0  0  0
  -24.8840  -28.8980   20.1740 C   0  0  0  0  0  0  0  0  0  0  0  0
  -25.9450  -30.7790   21.4190 C   0  0  0  0  0  2  0  0  0  0  0  0
  -26.0390  -29.3900   20.7970 C   0  0  0  0  0  0  0  0  0  0  0  0
  -27.2270  -28.5980   20.8320 C   0  0  0  0  0  3  0  0  0  0  0  0
  -26.0790  -26.8570   19.5920 C   0  0  0  0  0  3  0  0  0  0  0  0
  -24.9030  -27.6320   19.5690 C   0  0  0  0  0  3  0  0  0  0  0  0
  -23.6470  -29.7740   20.1850 C   0  0  0  0  0  2  0  0  0  0  0  0
  -24.6590  -31.0530   22.1180 N   0  0  0  0  0  0  0  0  0  0  0  0
  -23.4820  -32.1460   23.7240 O   0  0  0  0  0  0  0  0  0  0  0  0
  -22.7240  -29.4470   22.5060 C   0  0  0  0  0  0  0  0  0  0  0  0
  -21.3970  -29.2890   22.3670 N   0  0  0  0  0  0  0  0  0  0  0  0
  -23.3890  -28.8090   23.3240 O   0  0  0  0  0  0  0  0  0  0  0  0
  -20.9200  -29.8560   21.6810 H   0  0  0  0  0  0  0  0  0  0  0  0
  -17.9920  -28.1670   22.8690 C   0  0  0  0  0  0  0  0  0  0  0  0
  -20.5580  -28.3580   23.1270 C   0  0  0  0  0  3  0  0  0  0  0  0
  -20.6210  -26.9350   22.5270 C   0  0  0  0  0  2  0  0  0  0  0  0
  -19.5050  -26.6560   21.5150 C   0  0  0  0  0  2  0  0  0  0  0  0
  -18.1320  -26.8240   22.1690 C   0  0  0  0  0  2  0  0  0  0  0  0
  -19.1330  -28.8950   23.3030 C   0  0  0  0  0  0  0  0  0  0  0  0
  -18.9480  -30.1530   23.9180 C   0  0  0  0  0  3  0  0  0  0  0  0
  -17.6570  -30.6840   24.1000 C   0  0  0  0  0  3  0  0  0  0  0  0
  -16.5320  -29.9520   23.6830 C   0  0  0  0  0  3  0  0  0  0  0  0
  -16.7000  -28.6950   23.0730 C   0  0  0  0  0  3  0  0  0  0  0  0
  -25.8460  -32.4990   23.8550 C   0  0  0  0  0  3  0  0  0  0  0  0
  -26.3300  -31.7400   25.1510 C   0  0  1  0  0  0  0  0  0  0  0  0
  -25.2080  -31.5140   26.1930 C   0  0  0  0  0  1  0  0  0  0  0  0
  -26.9200  -30.3580   24.7890 C   0  0  0  0  0  1  0  0  0  0  0  0
  -27.4700  -32.5380   25.8310 C   0  0  0  0  0  1  0  0  0  0  0  0
  -25.5380  -33.9020   24.1620 N   0  0  0  0  0  0  0  0  0  0  0  0
  -25.9000  -34.9440   23.4000 C   0  0  0  0  0  0  0  0  0  0  0  0
  -26.5990  -34.8250   22.3910 O   0  0  0  0  0  0  0  0  0  0  0  0
  -24.9180  -34.0700   24.9410 H   0  0  0  0  0  0  0  0  0  0  0  0
  -24.2050  -36.7530   22.9720 C   0  0  0  0  0  1  0  0  0  0  0  0
  -25.4110  -36.3400   23.8290 C   0  0  0  0  0  3  0  0  0  0  0  0
  -27.5180  -37.2160   24.7370 C   0  0  0  0  0  1  0  0  0  0  0  0
  -26.4580  -37.3820   23.7460 N   0  0  0  0  0  0  0  0  0  0  0  0
  -26.0540  -38.3060   23.8720 H   0  0  0  0  0  0  0  0  0  0  0  0
  -29.0360  -21.3900   20.8490 C   0  0  0  0  0  2  0  0  0  0  0  0
  -28.5380  -20.7300   18.3150 C   0  0  0  0  0  2  0  0  0  0  0  0
  -27.5160  -20.0420   19.1600 C   0  0  0  0  0  2  0  0  0  0  0  0
  -28.9120  -20.2710   19.7320 C   0  0  2  0  0  0  0  0  0  0  0  0
  -30.9670  -14.7120   20.0160 C   0  0  0  0  0  0  0  0  0  0  0  0
  -30.6300  -12.4430   19.0650 C   0  0  0  0  0  2  0  0  0  0  0  0
  -29.6750  -12.5270   17.8580 C   0  0  0  0  0  2  0  0  0  0  0  0
  -28.2150  -12.3940   18.3280 C   0  0  0  0  0  2  0  0  0  0  0  0
  -27.8840  -13.3100   19.5380 C   0  0  0  0  0  3  0  0  0  0  0  0
  -28.9720  -13.2470   20.6310 C   0  0  0  0  0  2  0  0  0  0  0  0
  -30.2550  -13.5400   19.9820 N   0  0  0  0  0  0  0  0  0  0  0  0
  -32.1650  -14.6940   19.7140 O   0  0  0  0  0  0  0  0  0  0  0  0
  -29.9840  -16.7150   21.1500 C   0  0  0  0  0  2  0  0  0  0  0  0
  -30.8140  -16.9090   18.9460 C   0  0  0  0  0  2  0  0  0  0  0  0
  -29.1470  -18.0340   20.9080 C   0  0  0  0  0  2  0  0  0  0  0  0
  -29.9550  -18.1950   18.7310 C   0  0  0  0  0  2  0  0  0  0  0  0
  -30.2940  -15.9230   19.9340 N   0  0  0  0  0  0  0  0  0  0  0  0
  -29.7390  -19.0000   19.9480 N   0  0  0  0  0  0  0  0  0  0  0  0
  -25.5280  -13.9290   20.3380 C   0  0  0  0  0  0  0  0  0  0  0  0
  -24.4610  -13.1690   20.7290 C   0  0  0  0  0  0  0  0  0  0  0  0
  -24.9040  -11.8110   20.6820 C   0  0  0  0  0  0  0  0  0  0  0  0
  -26.5520  -13.0370   20.0690 N   0  0  0  0  0  0  0  0  0  0  0  0
  -26.1850  -11.7590   20.3410 N   0  0  0  0  0  0  0  0  0  0  0  0
  -24.1620  -10.5600   20.8820 C   0  0  0  0  0  0  0  0  0  0  0  0
  -24.5520   -9.6200   21.8620 C   0  0  0  0  0  3  0  0  0  0  0  0
  -23.8100   -8.4340   22.0510 C   0  0  0  0  0  3  0  0  0  0  0  0
  -22.6650   -8.1770   21.2590 C   0  0  0  0  0  0  0  0  0  0  0  0
  -22.2960   -9.1050   20.2690 C   0  0  0  0  0  3  0  0  0  0  0  0
  -23.0380  -10.2830   20.0790 C   0  0  0  0  0  3  0  0  0  0  0  0
  -21.9000   -7.0390   21.3550 O   0  0  0  0  0  0  0  0  0  0  0  0
  -21.7390   -6.3780   22.5450 C   0  0  0  0  0  0  0  0  0  0  0  0
  -21.1740   -7.0080   23.6760 C   0  0  0  0  0  3  0  0  0  0  0  0
  -20.9620   -6.2720   24.8590 C   0  0  0  0  0  3  0  0  0  0  0  0
  -21.3060   -4.9080   24.9110 C   0  0  0  0  0  0  0  0  0  0  0  0
  -21.8650   -4.2780   23.7860 C   0  0  0  0  0  3  0  0  0  0  0  0
  -22.0780   -5.0120   22.6050 C   0  0  0  0  0  0  0  0  0  0  0  0
  -22.5970   -4.3960   21.5160 F   0  0  0  0  0  0  0  0  0  0  0  0
  -21.0960   -4.1990   26.0450 F   0  0  0  0  0  0  0  0  0  0  0  0
  -23.0780  -13.6640   21.0390 C   0  0  0  0  0  0  0  0  0  0  0  0
  -22.3640  -12.9750   21.9200 N   0  0  0  0  0  0  0  0  0  0  0  0
  -22.6450  -14.7000   20.5340 O   0  0  0  0  0  0  0  0  0  0  0  0
  -22.7310  -12.1380   22.3470 H   0  0  0  0  0  0  0  0  0  0  0  0
  -21.4360  -13.2880   22.1710 H   0  0  0  0  0  0  0  0  0  0  0  0
  -25.7070  -15.2990   20.1640 N   0  0  0  0  0  0  0  0  0  0  0  0
  -24.9500  -15.9600   20.2980 H   0  0  0  0  0  0  0  0  0  0  0  0
  -26.5560  -15.7280   19.8200 H   0  0  0  0  0  0  0  0  0  0  0  0
  1  3  1  0
  1 48  1  0
  1  5  1  0
  2  1  1  0
  5  4  1  0
  5  6  1  0
  7  9  1  0
  7  6  1  0
  8 19  2  0
  9 14  1  0
 10 18  1  0
 10 20  1  0
 11 17  1  0
 11 13  1  0
 12 18  1  0
 13 14  2  0
 13 12  1  0
 15  9  2  0
 16 15  1  0
 16 11  2  0
 17 10  1  0
 18  8  1  0
 20 22  2  0
 21 20  1  0
 23 21  1  0
 24 33  2  0
 24 29  1  0
 25 21  1  0
 25 29  1  0
 26 25  1  0
 27 28  1  0
 27 26  1  0
 28 24  1  0
 29 30  2  0
 30 31  1  0
 32 31  2  0
 33 32  1  0
 34  8  1  0
 34 39  1  0
 34 35  1  0
 35 38  1  1
 35 36  1  0
 37 35  1  0
 39 42  1  0
 40 44  1  0
 40 39  1  0
 41 40  2  0
 44 43  1  0
 46 44  1  0
 46 47  1  0
 46 45  1  0
 49 50  1  0
 49 51  1  0
 50 51  1  0
 51 65  1  0
 51 48  1  1
 53 58  1  0
 54 55  1  0
 54 53  1  0
 56 55  1  0
 56 69  1  0
 56 57  1  0
 58 52  1  0
 58 57  1  0
 59 52  2  0
 61 64  1  0
 62 60  1  0
 63 61  1  0
 64 52  1  0
 64 60  1  0
 65 63  1  0
 65 62  1  0
 66 67  2  0
 67 86  1  0
 68 67  1  0
 68 71  1  0
 69 66  1  0
 69 70  1  0
 70 68  2  0
 71 72  1  0
 72 73  2  0
 74 77  1  0
 74 73  1  0
 75 74  2  0
 76 75  1  0
 76 71  2  0
 77 78  1  0
 78 83  2  0
 78 79  1  0
 79 80  2  0
 80 81  1  0
 81 85  1  0
 82 81  2  0
 83 82  1  0
 84 83  1  0
 86 87  1  0
 87 90  1  0
 87 89  1  0
 88 86  2  0
 91 92  1  0
 91 66  1  0
 93 91  1  0
M  ISO  4   6 101   7 101  52 100  64 100
M  END
>  <TORSDO>  (60) 
F 20

>  <SCORE>  (60) 
-13.873

>  <name>  (60) 
59

>  <ligand_id>  (60) 
59

>  <original_smiles>  (60) 
[H]c1c([H])c([H])c2c(c1[H])C([H])([H])C([H])([H])C([H])([H])C2([H])N([H])C(=O)C1([H])N(C(=O)C([H])(N([H])C(=O)C([H])(N([H])C([H])([H])[H])C([H])([H])[H])C(C([H])([H])[H])(C([H])([H])[H])C([H])([H])[H])C([H])([H])c2c([H])c(OC([H])([H])C([H])(C([H])([H])[H])[N+]([H])([H])C([H])([H])C3(N4C([H])([H])C([H])([H])N(C(=O)N5C([H])([H])C([H])([H])C([H])([H])C([H])(n6nc(-c7c([H])c([H])c(Oc8c([H])c([H])c(F)c([H])c8F)c([H])c7[H])c(C(=O)N([H])[H])c6N([H])[H])C5([H])[H])C([H])([H])C4([H])[H])C([H])([H])C3([H])[H])c([H])c([H])c2C1([H])[H]

>  <smiles>  (60) 
[H]c1c([H])c([H])c2c(c1[H])C([H])([H])C([H])([H])C([H])([H])C2([H])N([H])C(=O)C1([H])N(C(=O)C([H])(N([H])C(=O)C([H])(N([H])C([H])([H])[H])C([H])([H])[H])C(C([H])([H])[H])(C([H])([H])[H])C([H])([H])[H])C([H])([H])c2c([H])c(OC([H])([H])C([H])(C([H])([H])[H])[N+]([H])([H])C([H])([H])C3(N4C([H])([H])C([H])([H])N(C(=O)N5C([H])([H])C([H])([H])C([H])([H])C([H])(n6nc(-c7c([H])c([H])c(Oc8c([H])c([H])c(F)c([H])c8F)c([H])c7[H])c(C(=O)N([H])[H])c6N([H])[H])C5([H])[H])C([H])([H])C4([H])[H])C([H])([H])C3([H])[H])c([H])c([H])c2C1([H])[H]

$$$$
60:0:0
     RDKit          3D

 91 99  0  0  1  0  0  0  0  0999 V2000
  -28.6340  -23.6170   19.9500 C   0  0  0  0  0  3  0  0  0  0  0  0
  -29.8050  -23.9780   19.1600 N   0  0  0  0  0  0  0  0  0  0  0  0
  -30.5210  -24.3620   19.7680 H   0  0  0  0  0  0  0  0  0  0  0  0
  -30.2370  -23.1660   18.7320 H   0  0  0  0  0  0  0  0  0  0  0  0
  -28.9460  -22.2290   20.7780 C   0  0  0  0  0  2  0  0  0  0  0  0
  -28.9860  -20.8520   20.0610 N   0  0  0  0  0  4  0  0  0  0  0  0
  -28.0360  -20.6210   19.8190 H   0  0  0  0  0  0  0  0  0  0  0  0
  -29.4880  -20.9650   19.1970 H   0  0  0  0  0  0  0  0  0  0  0  0
  -29.6030  -19.6310   20.7880 C   0  0  0  0  0  2  0  0  0  0  0  0
  -30.6040  -14.7790   20.0670 C   0  0  0  0  0  0  0  0  0  0  0  0
  -30.3320  -12.5100   19.0440 C   0  0  0  0  0  2  0  0  0  0  0  0
  -29.3520  -12.5970   17.8530 C   0  0  0  0  0  2  0  0  0  0  0  0
  -27.8990  -12.4270   18.3380 C   0  0  0  0  0  2  0  0  0  0  0  0
  -27.5750  -13.3030   19.5790 C   0  0  0  0  0  3  0  0  0  0  0  0
  -28.6790  -13.2230   20.6570 C   0  0  0  0  0  2  0  0  0  0  0  0
  -29.9420  -13.5710   20.0010 N   0  0  0  0  0  0  0  0  0  0  0  0
  -31.7910  -14.8260   19.7310 O   0  0  0  0  0  0  0  0  0  0  0  0
  -30.2670  -17.2300   19.3980 C   0  0  0  0  0  2  0  0  0  0  0  0
  -29.5910  -16.8560   21.2680 C   0  0  0  0  0  2  0  0  0  0  0  0
  -29.3370  -18.0840   20.3160 C   0  0  0  0  0  3  0  0  0  0  0  0
  -29.8570  -15.9640   20.0990 N   0  0  0  0  0  0  0  0  0  0  0  0
  -25.2210  -13.8860   20.4040 C   0  0  0  0  0  0  0  0  0  0  0  0
  -24.1680  -13.1100   20.8050 C   0  0  0  0  0  0  0  0  0  0  0  0
  -24.6290  -11.7580   20.7510 C   0  0  0  0  0  0  0  0  0  0  0  0
  -26.2540  -13.0080   20.1220 N   0  0  0  0  0  0  0  0  0  0  0  0
  -25.9090  -11.7230   20.3940 N   0  0  0  0  0  0  0  0  0  0  0  0
  -23.9080  -10.4950   20.9610 C   0  0  0  0  0  0  0  0  0  0  0  0
  -24.3620   -9.5270   21.8830 C   0  0  0  0  0  3  0  0  0  0  0  0
  -23.6380   -8.3320   22.0810 C   0  0  0  0  0  3  0  0  0  0  0  0
  -22.4450   -8.0960   21.3560 C   0  0  0  0  0  0  0  0  0  0  0  0
  -22.0100   -9.0530   20.4240 C   0  0  0  0  0  3  0  0  0  0  0  0
  -22.7340  -10.2400   20.2230 C   0  0  0  0  0  3  0  0  0  0  0  0
  -21.6910   -6.9510   21.4630 O   0  0  0  0  0  0  0  0  0  0  0  0
  -21.6620   -6.2140   22.6210 C   0  0  0  0  0  0  0  0  0  0  0  0
  -21.2610   -6.7770   23.8530 C   0  0  0  0  0  3  0  0  0  0  0  0
  -21.1770   -5.9680   25.0030 C   0  0  0  0  0  3  0  0  0  0  0  0
  -21.4840   -4.5970   24.9240 C   0  0  0  0  0  0  0  0  0  0  0  0
  -21.8790   -4.0330   23.6980 C   0  0  0  0  0  3  0  0  0  0  0  0
  -21.9640   -4.8400   22.5480 C   0  0  0  0  0  0  0  0  0  0  0  0
  -22.3240   -4.2860   21.3650 F   0  0  0  0  0  0  0  0  0  0  0  0
  -21.3970   -3.8170   26.0270 F   0  0  0  0  0  0  0  0  0  0  0  0
  -22.7820  -13.5880   21.1280 C   0  0  0  0  0  0  0  0  0  0  0  0
  -22.0850  -12.8900   22.0180 N   0  0  0  0  0  0  0  0  0  0  0  0
  -22.3280  -14.6160   20.6270 O   0  0  0  0  0  0  0  0  0  0  0  0
  -22.4650  -12.0590   22.4440 H   0  0  0  0  0  0  0  0  0  0  0  0
  -21.1570  -13.1940   22.2790 H   0  0  0  0  0  0  0  0  0  0  0  0
  -25.3820  -15.2570   20.2320 N   0  0  0  0  0  0  0  0  0  0  0  0
  -24.6260  -15.9150   20.3880 H   0  0  0  0  0  0  0  0  0  0  0  0
  -26.2320  -15.6980   19.9020 H   0  0  0  0  0  0  0  0  0  0  0  0
  -28.1930  -24.9750   20.7570 C   0  0  0  0  0  2  0  0  0  0  0  0
  -28.3580  -26.3850   20.2350 O   0  0  0  0  0  0  0  0  0  0  0  0
  -24.6230  -31.8680   23.2440 C   0  0  0  0  0  0  0  0  0  0  0  0
  -27.2550  -27.2690   20.2250 C   0  0  0  0  0  0  0  0  0  0  0  0
  -23.4320  -30.4650   21.5980 C   0  0  0  0  0  3  0  0  0  0  0  0
  -24.8960  -28.9100   20.1820 C   0  0  0  0  0  0  0  0  0  0  0  0
  -25.9740  -30.7830   21.4270 C   0  0  0  0  0  2  0  0  0  0  0  0
  -26.0630  -29.3980   20.7840 C   0  0  0  0  0  0  0  0  0  0  0  0
  -27.2480  -28.5930   20.7870 C   0  0  0  0  0  3  0  0  0  0  0  0
  -26.0670  -26.8460   19.5970 C   0  0  0  0  0  3  0  0  0  0  0  0
  -24.9050  -27.6430   19.5730 C   0  0  0  0  0  3  0  0  0  0  0  0
  -23.6570  -29.7860   20.2200 C   0  0  0  0  0  2  0  0  0  0  0  0
  -24.6960  -31.0580   22.1460 N   0  0  0  0  0  0  0  0  0  0  0  0
  -23.5350  -32.1430   23.7740 O   0  0  0  0  0  0  0  0  0  0  0  0
  -22.7630  -29.4510   22.5570 C   0  0  0  0  0  0  0  0  0  0  0  0
  -21.4360  -29.2780   22.4290 N   0  0  0  0  0  0  0  0  0  0  0  0
  -23.4380  -28.8200   23.3740 O   0  0  0  0  0  0  0  0  0  0  0  0
  -20.9500  -29.8380   21.7440 H   0  0  0  0  0  0  0  0  0  0  0  0
  -18.0540  -28.0910   22.9310 C   0  0  0  0  0  0  0  0  0  0  0  0
  -20.6150  -28.3400   23.1970 C   0  0  0  0  0  3  0  0  0  0  0  0
  -20.7090  -26.9110   22.6130 C   0  0  0  0  0  2  0  0  0  0  0  0
  -19.6040  -26.5990   21.5990 C   0  0  0  0  0  2  0  0  0  0  0  0
  -18.2240  -26.7450   22.2470 C   0  0  0  0  0  2  0  0  0  0  0  0
  -19.1770  -28.8460   23.3630 C   0  0  0  0  0  0  0  0  0  0  0  0
  -18.9640  -30.1050   23.9650 C   0  0  0  0  0  3  0  0  0  0  0  0
  -17.6610  -30.6100   24.1370 C   0  0  0  0  0  3  0  0  0  0  0  0
  -16.5530  -29.8520   23.7220 C   0  0  0  0  0  3  0  0  0  0  0  0
  -16.7500  -28.5930   23.1240 C   0  0  0  0  0  3  0  0  0  0  0  0
  -25.8990  -32.5050   23.8770 C   0  0  0  0  0  3  0  0  0  0  0  0
  -25.5850  -33.9050   24.2010 N   0  0  0  0  0  0  0  0  0  0  0  0
  -25.9170  -34.9560   23.4410 C   0  0  0  0  0  0  0  0  0  0  0  0
  -26.5900  -34.8510   22.4130 O   0  0  0  0  0  0  0  0  0  0  0  0
  -24.9880  -34.0610   25.0010 H   0  0  0  0  0  0  0  0  0  0  0  0
  -24.1830  -36.7430   23.0820 C   0  0  0  0  0  1  0  0  0  0  0  0
  -25.4270  -36.3460   23.8940 C   0  0  0  0  0  3  0  0  0  0  0  0
  -27.5620  -37.2410   24.7150 C   0  0  0  0  0  1  0  0  0  0  0  0
  -26.4580  -37.4020   23.7730 N   0  0  0  0  0  0  0  0  0  0  0  0
  -26.0500  -38.3220   23.9150 H   0  0  0  0  0  0  0  0  0  0  0  0
  -26.4040  -31.7390   25.1610 C   0  0  1  0  0  0  0  0  0  0  0  0
  -25.3020  -31.5080   26.2210 C   0  0  0  0  0  1  0  0  0  0  0  0
  -26.9880  -30.3590   24.7820 C   0  0  0  0  0  1  0  0  0  0  0  0
  -27.5510  -32.5340   25.8290 C   0  0  0  0  0  1  0  0  0  0  0  0
  1 50  1  0
  1  5  1  0
  2  3  1  0
  2  1  1  0
  4  2  1  0
  6  5  1  0
  6  9  1  0
  7  6  1  0
  8  6  1  0
 10 21  1  0
 11 16  1  0
 12 13  1  0
 12 11  1  0
 14 13  1  0
 14 25  1  0
 14 15  1  0
 16 10  1  0
 16 15  1  0
 17 10  2  0
 18 21  1  0
 18 20  1  0
 20  9  1  0
 20 19  1  0
 21 19  1  0
 22 23  2  0
 23 42  1  0
 24 23  1  0
 24 27  1  0
 25 26  1  0
 25 22  1  0
 26 24  2  0
 27 28  1  0
 28 29  2  0
 30 33  1  0
 30 29  1  0
 31 30  2  0
 32 31  1  0
 32 27  2  0
 33 34  1  0
 34 35  1  0
 35 36  2  0
 37 36  1  0
 37 41  1  0
 38 37  2  0
 39 34  2  0
 39 38  1  0
 40 39  1  0
 42 43  1  0
 43 46  1  0
 43 45  1  0
 44 42  2  0
 47 48  1  0
 47 22  1  0
 49 47  1  0
 51 50  1  0
 52 63  2  0
 53 51  1  0
 53 58  1  0
 54 62  1  0
 54 64  1  0
 55 61  1  0
 55 57  1  0
 56 62  1  0
 57 58  2  0
 57 56  1  0
 59 53  2  0
 60 59  1  0
 60 55  2  0
 61 54  1  0
 62 52  1  0
 64 66  2  0
 65 64  1  0
 67 65  1  0
 68 77  2  0
 68 73  1  0
 69 65  1  0
 69 73  1  0
 70 69  1  0
 71 72  1  0
 71 70  1  0
 72 68  1  0
 73 74  2  0
 74 75  1  0
 76 75  2  0
 77 76  1  0
 78 52  1  0
 78 79  1  0
 78 88  1  0
 79 82  1  0
 80 84  1  0
 80 79  1  0
 81 80  2  0
 84 83  1  0
 86 84  1  0
 86 87  1  0
 86 85  1  0
 88 91  1  1
 88 89  1  0
 90 88  1  0
M  ISO  4  10 100  21 100  50 101  51 101
M  END
>  <TORSDO>  (61) 
F 21

>  <SCORE>  (61) 
-13.559

>  <name>  (61) 
60

>  <ligand_id>  (61) 
60

>  <original_smiles>  (61) 
[H]c1c([H])c([H])c2c(c1[H])C([H])([H])C([H])([H])C([H])([H])C2([H])N([H])C(=O)C1([H])N(C(=O)C([H])(N([H])C(=O)C([H])(N([H])C([H])([H])[H])C([H])([H])[H])C(C([H])([H])[H])(C([H])([H])[H])C([H])([H])[H])C([H])([H])c2c([H])c(OC([H])([H])C([H])(N([H])[H])C([H])([H])[N+]([H])([H])C([H])([H])C3([H])C([H])([H])N(C(=O)N4C([H])([H])C([H])([H])C([H])([H])C([H])(n5nc(-c6c([H])c([H])c(Oc7c([H])c([H])c(F)c([H])c7F)c([H])c6[H])c(C(=O)N([H])[H])c5N([H])[H])C4([H])[H])C3([H])[H])c([H])c([H])c2C1([H])[H]

>  <smiles>  (61) 
[H]c1c([H])c([H])c2c(c1[H])C([H])([H])C([H])([H])C([H])([H])C2([H])N([H])C(=O)C1([H])N(C(=O)C([H])(N([H])C(=O)C([H])(N([H])C([H])([H])[H])C([H])([H])[H])C(C([H])([H])[H])(C([H])([H])[H])C([H])([H])[H])C([H])([H])c2c([H])c(OC([H])([H])C([H])(N([H])[H])C([H])([H])[N+]([H])([H])C([H])([H])C3([H])C([H])([H])N(C(=O)N4C([H])([H])C([H])([H])C([H])([H])C([H])(n5nc(-c6c([H])c([H])c(Oc7c([H])c([H])c(F)c([H])c7F)c([H])c6[H])c(C(=O)N([H])[H])c5N([H])[H])C4([H])[H])C3([H])[H])c([H])c([H])c2C1([H])[H]

$$$$
61:0:0
     RDKit          3D

 93102  0  0  1  0  0  0  0  0999 V2000
  -28.1410  -20.9180   21.5360 C   0  0  0  0  0  2  0  0  0  0  0  0
  -27.8260  -22.3300   20.9960 C   0  0  0  0  0  2  0  0  0  0  0  0
  -30.0960  -22.1060   20.8040 C   0  0  0  0  0  2  0  0  0  0  0  0
  -29.6570  -20.7310   21.3830 C   0  0  0  0  0  3  0  0  0  0  0  0
  -29.0630  -23.0880   21.1710 N   0  0  0  0  0  0  0  0  0  0  0  0
  -30.0350  -19.6070   20.4750 N   0  0  0  0  0  4  0  0  0  0  0  0
  -30.9600  -19.8260   20.1430 H   0  0  0  0  0  0  0  0  0  0  0  0
  -29.4270  -19.6290   19.6730 H   0  0  0  0  0  0  0  0  0  0  0  0
  -30.1140  -18.1870   20.9670 C   0  0  0  0  0  2  0  0  0  0  0  0
  -31.2280  -14.8860   20.7190 C   0  0  0  0  0  0  0  0  0  0  0  0
  -30.9330  -12.5850   19.9070 C   0  0  0  0  0  2  0  0  0  0  0  0
  -30.0680  -12.4490   18.6150 C   0  0  0  0  0  2  0  0  0  0  0  0
  -28.6650  -13.0910   18.7170 C   0  0  0  0  0  2  0  0  0  0  0  0
  -28.2000  -13.1010   20.1720 C   0  0  0  0  0  3  0  0  0  0  0  0
  -29.1260  -13.6760   21.2410 C   0  0  0  0  0  2  0  0  0  0  0  0
  -30.4940  -13.7420   20.7120 N   0  0  0  0  0  0  0  0  0  0  0  0
  -32.4310  -14.9010   20.9610 O   0  0  0  0  0  0  0  0  0  0  0  0
  -30.5720  -16.5480   17.5490 C   0  0  0  0  0  2  0  0  0  0  0  0
  -30.2470  -17.7150   18.4570 C   0  0  0  0  0  2  0  0  0  0  0  0
  -31.3090  -15.6120   18.4820 C   0  0  0  0  0  2  0  0  0  0  0  0
  -30.7920  -17.3170   19.8520 C   0  0  0  0  0  3  0  0  0  0  0  0
  -30.7490  -15.8180   19.8370 N   0  0  0  0  0  0  0  0  0  0  0  0
  -25.7710  -14.1490   20.4400 C   0  0  0  0  0  0  0  0  0  0  0  0
  -24.6060  -13.4660   20.7070 C   0  0  0  0  0  0  0  0  0  0  0  0
  -24.9690  -12.0920   20.7800 C   0  0  0  0  0  0  0  0  0  0  0  0
  -26.7660  -13.1650   20.4100 N   0  0  0  0  0  0  0  0  0  0  0  0
  -26.2540  -11.9460   20.6300 N   0  0  0  0  0  0  0  0  0  0  0  0
  -24.2000  -10.8630   20.9250 C   0  0  0  0  0  0  0  0  0  0  0  0
  -24.5810   -9.8780   21.8620 C   0  0  0  0  0  3  0  0  0  0  0  0
  -23.8370   -8.6890   21.9860 C   0  0  0  0  0  3  0  0  0  0  0  0
  -22.7010   -8.4860   21.1670 C   0  0  0  0  0  0  0  0  0  0  0  0
  -22.3490   -9.4580   20.2140 C   0  0  0  0  0  3  0  0  0  0  0  0
  -23.0950  -10.6390   20.0870 C   0  0  0  0  0  3  0  0  0  0  0  0
  -21.9180   -7.3620   21.2050 O   0  0  0  0  0  0  0  0  0  0  0  0
  -21.7840   -6.6250   22.3520 C   0  0  0  0  0  0  0  0  0  0  0  0
  -21.3010   -7.1900   23.5530 C   0  0  0  0  0  3  0  0  0  0  0  0
  -21.1180   -6.3720   24.6880 C   0  0  0  0  0  3  0  0  0  0  0  0
  -21.4080   -4.9940   24.6180 C   0  0  0  0  0  0  0  0  0  0  0  0
  -21.8840   -4.4340   23.4200 C   0  0  0  0  0  3  0  0  0  0  0  0
  -22.0700   -5.2470   22.2900 C   0  0  0  0  0  0  0  0  0  0  0  0
  -22.5130   -4.7030   21.1310 F   0  0  0  0  0  0  0  0  0  0  0  0
  -21.2170   -4.2050   25.7000 F   0  0  0  0  0  0  0  0  0  0  0  0
  -23.2100  -14.0110   20.8100 C   0  0  0  0  0  0  0  0  0  0  0  0
  -22.3710  -13.3860   21.6270 N   0  0  0  0  0  0  0  0  0  0  0  0
  -22.8670  -15.0220   20.1980 O   0  0  0  0  0  0  0  0  0  0  0  0
  -22.6580  -12.5730   22.1500 H   0  0  0  0  0  0  0  0  0  0  0  0
  -21.4280  -13.7290   21.7360 H   0  0  0  0  0  0  0  0  0  0  0  0
  -26.0540  -15.4960   20.2220 N   0  0  0  0  0  0  0  0  0  0  0  0
  -25.3310  -16.2030   20.1760 H   0  0  0  0  0  0  0  0  0  0  0  0
  -26.9620  -15.8230   19.9160 H   0  0  0  0  0  0  0  0  0  0  0  0
  -29.1430  -24.3460   20.3830 C   0  0  0  0  0  2  0  0  0  0  0  0
  -28.2180  -25.5070   20.8740 C   0  0  0  0  0  2  0  0  0  0  0  0
  -28.3240  -26.7400   20.1130 O   0  0  0  0  0  0  0  0  0  0  0  0
  -24.5940  -31.9570   23.2670 C   0  0  0  0  0  0  0  0  0  0  0  0
  -27.1850  -27.5280   20.1100 C   0  0  0  0  0  0  0  0  0  0  0  0
  -23.3630  -30.5690   21.6350 C   0  0  0  0  0  3  0  0  0  0  0  0
  -24.7960  -29.0550   20.1590 C   0  0  0  0  0  0  0  0  0  0  0  0
  -25.8860  -30.9340   21.3920 C   0  0  0  0  0  2  0  0  0  0  0  0
  -25.9650  -29.5690   20.7340 C   0  0  0  0  0  0  0  0  0  0  0  0
  -27.1650  -28.8150   20.7030 C   0  0  0  0  0  3  0  0  0  0  0  0
  -26.0040  -27.0470   19.5070 C   0  0  0  0  0  3  0  0  0  0  0  0
  -24.8130  -27.7960   19.5350 C   0  0  0  0  0  3  0  0  0  0  0  0
  -23.5490  -29.9070   20.2430 C   0  0  0  0  0  2  0  0  0  0  0  0
  -24.6340  -31.1680   22.1560 N   0  0  0  0  0  0  0  0  0  0  0  0
  -23.5220  -32.2190   23.8300 O   0  0  0  0  0  0  0  0  0  0  0  0
  -22.7320  -29.5330   22.5950 C   0  0  0  0  0  0  0  0  0  0  0  0
  -21.4120  -29.3250   22.4700 N   0  0  0  0  0  0  0  0  0  0  0  0
  -23.4300  -28.9220   23.4090 O   0  0  0  0  0  0  0  0  0  0  0  0
  -20.9090  -29.8700   21.7840 H   0  0  0  0  0  0  0  0  0  0  0  0
  -18.0660  -28.0470   22.9570 C   0  0  0  0  0  0  0  0  0  0  0  0
  -20.6160  -28.3700   23.2410 C   0  0  0  0  0  3  0  0  0  0  0  0
  -20.7560  -26.9390   22.6710 C   0  0  0  0  0  2  0  0  0  0  0  0
  -19.6700  -26.5840   21.6530 C   0  0  0  0  0  2  0  0  0  0  0  0
  -18.2810  -26.6980   22.2890 C   0  0  0  0  0  2  0  0  0  0  0  0
  -19.1630  -28.8390   23.3880 C   0  0  0  0  0  0  0  0  0  0  0  0
  -18.9090  -30.1000   23.9700 C   0  0  0  0  0  3  0  0  0  0  0  0
  -17.5910  -30.5690   24.1250 C   0  0  0  0  0  3  0  0  0  0  0  0
  -16.5090  -29.7740   23.7100 C   0  0  0  0  0  3  0  0  0  0  0  0
  -16.7460  -28.5150   23.1310 C   0  0  0  0  0  3  0  0  0  0  0  0
  -25.8890  -32.5870   23.8680 C   0  0  0  0  0  3  0  0  0  0  0  0
  -26.4160  -31.8240   25.1440 C   0  0  1  0  0  0  0  0  0  0  0  0
  -25.3340  -31.6060   26.2280 C   0  0  0  0  0  1  0  0  0  0  0  0
  -26.9830  -30.4390   24.7550 C   0  0  0  0  0  1  0  0  0  0  0  0
  -27.5810  -32.6150   25.7840 C   0  0  0  0  0  1  0  0  0  0  0  0
  -25.5910  -33.9910   24.1840 N   0  0  0  0  0  0  0  0  0  0  0  0
  -25.9380  -35.0330   23.4180 C   0  0  0  0  0  0  0  0  0  0  0  0
  -26.6090  -34.9140   22.3900 O   0  0  0  0  0  0  0  0  0  0  0  0
  -24.9960  -34.1580   24.9830 H   0  0  0  0  0  0  0  0  0  0  0  0
  -24.2320  -36.8420   23.0360 C   0  0  0  0  0  1  0  0  0  0  0  0
  -25.4620  -36.4300   23.8620 C   0  0  0  0  0  3  0  0  0  0  0  0
  -27.5950  -37.2980   24.7110 C   0  0  0  0  0  1  0  0  0  0  0  0
  -26.5060  -37.4700   23.7530 N   0  0  0  0  0  0  0  0  0  0  0  0
  -26.1090  -38.3950   23.8870 H   0  0  0  0  0  0  0  0  0  0  0  0
  2  5  1  0
  2  1  1  0
  3  5  1  0
  3  4  1  0
  4  6  1  0
  4  1  1  0
  6  9  1  0
  7  6  1  0
  8  6  1  0
 10 17  2  0
 11 16  1  0
 12 13  1  0
 12 11  1  0
 14 13  1  0
 14 26  1  0
 14 15  1  0
 16 10  1  0
 16 15  1  0
 18 19  1  0
 18 20  1  0
 19 21  1  0
 20 22  1  0
 21  9  1  0
 22 21  1  0
 22 10  1  0
 23 24  2  0
 24 25  1  0
 24 43  1  0
 25 28  1  0
 26 23  1  0
 26 27  1  0
 27 25  2  0
 28 29  1  0
 29 30  2  0
 31 34  1  0
 31 30  1  0
 32 31  2  0
 33 32  1  0
 33 28  2  0
 34 35  1  0
 35 36  1  0
 36 37  2  0
 38 37  1  0
 38 42  1  0
 39 38  2  0
 40 35  2  0
 40 39  1  0
 41 40  1  0
 43 44  1  0
 44 47  1  0
 44 46  1  0
 45 43  2  0
 48 23  1  0
 49 48  1  0
 50 48  1  0
 51 52  1  0
 51  5  1  0
 53 52  1  0
 54 65  2  0
 55 53  1  0
 55 60  1  0
 56 64  1  0
 56 66  1  0
 57 63  1  0
 57 59  1  0
 58 64  1  0
 59 58  1  0
 60 59  2  0
 61 62  1  0
 61 55  2  0
 62 57  2  0
 63 56  1  0
 64 54  1  0
 66 68  2  0
 67 66  1  0
 69 67  1  0
 70 79  2  0
 70 75  1  0
 71 67  1  0
 71 75  1  0
 72 71  1  0
 73 74  1  0
 73 72  1  0
 74 70  1  0
 75 76  2  0
 76 77  1  0
 78 77  2  0
 79 78  1  0
 80 54  1  0
 80 85  1  0
 80 81  1  0
 81 84  1  1
 81 82  1  0
 83 81  1  0
 85 88  1  0
 86 90  1  0
 86 85  1  0
 87 86  2  0
 90 89  1  0
 92 90  1  0
 92 93  1  0
 92 91  1  0
M  ISO  4  10 100  22 100  52 101  53 101
M  END
>  <TORSDO>  (62) 
F 20

>  <SCORE>  (62) 
-12.096

>  <name>  (62) 
61

>  <ligand_id>  (62) 
61

>  <original_smiles>  (62) 
[H]c1c([H])c([H])c2c(c1[H])C([H])([H])C([H])([H])C([H])([H])C2([H])N([H])C(=O)C1([H])N(C(=O)C([H])(N([H])C(=O)C([H])(N([H])C([H])([H])[H])C([H])([H])[H])C(C([H])([H])[H])(C([H])([H])[H])C([H])([H])[H])C([H])([H])c2c([H])c(OC([H])([H])C([H])([H])N3C([H])([H])C([H])([H])C([H])([N+]([H])([H])C([H])([H])C4([H])N(C(=O)N5C([H])([H])C([H])([H])C([H])([H])C([H])(n6nc(-c7c([H])c([H])c(Oc8c([H])c([H])c(F)c([H])c8F)c([H])c7[H])c(C(=O)N([H])[H])c6N([H])[H])C5([H])[H])C([H])([H])C([H])([H])C4([H])[H])C3([H])[H])c([H])c([H])c2C1([H])[H]

>  <smiles>  (62) 
[H]c1c([H])c([H])c2c(c1[H])C([H])([H])C([H])([H])C([H])([H])C2([H])N([H])C(=O)C1([H])N(C(=O)C([H])(N([H])C(=O)C([H])(N([H])C([H])([H])[H])C([H])([H])[H])C(C([H])([H])[H])(C([H])([H])[H])C([H])([H])[H])C([H])([H])c2c([H])c(OC([H])([H])C([H])([H])N3C([H])([H])C([H])([H])C([H])([N+]([H])([H])C([H])([H])C4([H])N(C(=O)N5C([H])([H])C([H])([H])C([H])([H])C([H])(n6nc(-c7c([H])c([H])c(Oc8c([H])c([H])c(F)c([H])c8F)c([H])c7[H])c(C(=O)N([H])[H])c6N([H])[H])C5([H])[H])C([H])([H])C([H])([H])C4([H])[H])C3([H])[H])c([H])c([H])c2C1([H])[H]

$$$$
62:0:0
     RDKit          3D

 99109  0  0  1  0  0  0  0  0999 V2000
  -30.7990  -19.7220   20.1480 C   0  0  0  0  0  3  0  0  0  0  0  0
  -30.1560  -18.4850   20.3470 C   0  0  0  0  0  0  0  0  0  0  0  0
  -28.7820  -18.5660   20.6490 C   0  0  0  0  0  0  0  0  0  0  0  0
  -28.8480  -20.8590   20.4610 C   0  0  0  0  0  0  0  0  0  0  0  0
  -27.9280  -17.3420   20.8790 C   0  0  0  0  0  1  0  0  0  0  0  0
  -30.1500  -20.9000   20.1950 N   0  0  0  0  0  0  0  0  0  0  0  0
  -28.1450  -19.7540   20.7010 N   0  0  0  0  0  0  0  0  0  0  0  0
  -31.1780  -14.7990   20.5250 C   0  0  0  0  0  0  0  0  0  0  0  0
  -30.9690  -12.5160   19.7010 C   0  0  0  0  0  2  0  0  0  0  0  0
  -30.0820  -12.5530   18.4450 C   0  0  0  0  0  2  0  0  0  0  0  0
  -28.5930  -12.4160   18.8320 C   0  0  0  0  0  2  0  0  0  0  0  0
  -28.1610  -13.3410   20.0060 C   0  0  0  0  0  3  0  0  0  0  0  0
  -29.1970  -13.3520   21.1500 C   0  0  0  0  0  2  0  0  0  0  0  0
  -30.5120  -13.6160   20.5580 N   0  0  0  0  0  0  0  0  0  0  0  0
  -32.4040  -14.8540   20.4430 O   0  0  0  0  0  0  0  0  0  0  0  0
  -30.9950  -17.2280   20.1480 C   0  0  0  0  0  3  0  0  0  0  0  0
  -30.8970  -16.4990   18.8500 C   0  0  0  0  0  3  0  0  0  0  0  0
  -30.4670  -15.8690   20.0860 N   0  0  0  0  0  0  0  0  0  0  0  0
  -25.7480  -13.8760   20.7080 C   0  0  0  0  0  0  0  0  0  0  0  0
  -24.6930  -13.0760   21.0510 C   0  0  0  0  0  0  0  0  0  0  0  0
  -25.1790  -11.7350   20.9800 C   0  0  0  0  0  0  0  0  0  0  0  0
  -26.8150  -13.0240   20.4710 N   0  0  0  0  0  0  0  0  0  0  0  0
  -26.4740  -11.7280   20.6910 N   0  0  0  0  0  0  0  0  0  0  0  0
  -24.4680  -10.4580   21.1120 C   0  0  0  0  0  0  0  0  0  0  0  0
  -24.8350   -9.5090   22.0910 C   0  0  0  0  0  3  0  0  0  0  0  0
  -24.1220   -8.2970   22.2130 C   0  0  0  0  0  3  0  0  0  0  0  0
  -23.0320   -8.0240   21.3530 C   0  0  0  0  0  0  0  0  0  0  0  0
  -22.6880   -8.9620   20.3640 C   0  0  0  0  0  3  0  0  0  0  0  0
  -23.4010  -10.1660   20.2400 C   0  0  0  0  0  3  0  0  0  0  0  0
  -22.3000   -6.8620   21.3830 O   0  0  0  0  0  0  0  0  0  0  0  0
  -22.0510   -6.1980   22.5580 C   0  0  0  0  0  0  0  0  0  0  0  0
  -21.3380   -6.8000   23.6170 C   0  0  0  0  0  3  0  0  0  0  0  0
  -21.0420   -6.0580   24.7780 C   0  0  0  0  0  3  0  0  0  0  0  0
  -21.4520   -4.7150   24.8790 C   0  0  0  0  0  0  0  0  0  0  0  0
  -22.1590   -4.1120   23.8220 C   0  0  0  0  0  3  0  0  0  0  0  0
  -22.4540   -4.8520   22.6640 C   0  0  0  0  0  0  0  0  0  0  0  0
  -23.1160   -4.2590   21.6410 F   0  0  0  0  0  0  0  0  0  0  0  0
  -21.1630   -3.9990   25.9910 F   0  0  0  0  0  0  0  0  0  0  0  0
  -23.2860  -13.5230   21.3190 C   0  0  0  0  0  0  0  0  0  0  0  0
  -22.5610  -12.7970   22.1610 N   0  0  0  0  0  0  0  0  0  0  0  0
  -22.8380  -14.5540   20.8180 O   0  0  0  0  0  0  0  0  0  0  0  0
  -22.9370  -11.9670   22.5940 H   0  0  0  0  0  0  0  0  0  0  0  0
  -21.6170  -13.0830   22.3820 H   0  0  0  0  0  0  0  0  0  0  0  0
  -25.8690  -15.2520   20.5490 N   0  0  0  0  0  0  0  0  0  0  0  0
  -25.0430  -15.8390   20.5890 H   0  0  0  0  0  0  0  0  0  0  0  0
  -26.6300  -15.6820   20.0430 H   0  0  0  0  0  0  0  0  0  0  0  0
  -29.7880  -16.7990   17.8860 C   0  0  0  0  0  0  0  0  0  0  0  0
  -28.6730  -16.0940   18.0130 N   0  0  0  0  0  0  0  0  0  0  0  0
  -29.9060  -17.6190   16.9790 O   0  0  0  0  0  0  0  0  0  0  0  0
  -28.6000  -15.3910   18.7290 H   0  0  0  0  0  0  0  0  0  0  0  0
  -27.9080  -16.2380   17.3670 H   0  0  0  0  0  0  0  0  0  0  0  0
  -28.0880  -22.1830   20.4070 C   0  0  0  0  0  2  0  0  0  0  0  0
  -29.8530  -25.2420   21.4690 C   0  0  0  0  0  2  0  0  0  0  0  0
  -29.7790  -23.7090   21.4590 C   0  0  0  0  0  2  0  0  0  0  0  0
  -28.4060  -24.5810   19.6940 C   0  0  0  0  0  2  0  0  0  0  0  0
  -28.5640  -25.6610   20.7710 C   0  0  0  0  0  3  0  0  0  0  0  0
  -29.0100  -23.3380   20.2480 N   0  0  2  0  0  4  0  0  0  0  0  0
  -29.6780  -22.9540   19.5870 H   0  0  0  0  0  0  0  0  0  0  0  0
  -28.6550  -26.9970   20.2580 O   0  0  0  0  0  0  0  0  0  0  0  0
  -24.6870  -31.9940   23.3810 C   0  0  0  0  0  0  0  0  0  0  0  0
  -27.4720  -27.7000   20.2390 C   0  0  0  0  0  0  0  0  0  0  0  0
  -23.5440  -30.6390   21.6520 C   0  0  0  0  0  3  0  0  0  0  0  0
  -25.0570  -29.1650   20.2240 C   0  0  0  0  0  0  0  0  0  0  0  0
  -26.0640  -31.0410   21.5360 C   0  0  0  0  0  2  0  0  0  0  0  0
  -26.1890  -29.6890   20.8610 C   0  0  0  0  0  0  0  0  0  0  0  0
  -27.4020  -28.9670   20.8600 C   0  0  0  0  0  3  0  0  0  0  0  0
  -26.3240  -27.1840   19.5970 C   0  0  0  0  0  3  0  0  0  0  0  0
  -25.1190  -27.9120   19.5880 C   0  0  0  0  0  3  0  0  0  0  0  0
  -23.8010  -30.0070   20.2580 C   0  0  0  0  0  2  0  0  0  0  0  0
  -24.7820  -31.2350   22.2520 N   0  0  0  0  0  0  0  0  0  0  0  0
  -23.5870  -32.2390   23.8960 O   0  0  0  0  0  0  0  0  0  0  0  0
  -22.8720  -29.5820   22.5580 C   0  0  0  0  0  0  0  0  0  0  0  0
  -21.5540  -29.3960   22.3820 N   0  0  0  0  0  0  0  0  0  0  0  0
  -23.5350  -28.9340   23.3720 O   0  0  0  0  0  0  0  0  0  0  0  0
  -21.0820  -29.9730   21.6980 H   0  0  0  0  0  0  0  0  0  0  0  0
  -18.1580  -28.2310   22.8040 C   0  0  0  0  0  0  0  0  0  0  0  0
  -20.7200  -28.4230   23.0900 C   0  0  0  0  0  3  0  0  0  0  0  0
  -20.7960  -27.0310   22.4240 C   0  0  0  0  0  2  0  0  0  0  0  0
  -19.6920  -26.7940   21.3890 C   0  0  0  0  0  2  0  0  0  0  0  0
  -18.3120  -26.9240   22.0430 C   0  0  0  0  0  2  0  0  0  0  0  0
  -19.2910  -28.9420   23.2800 C   0  0  0  0  0  0  0  0  0  0  0  0
  -19.0960  -30.1700   23.9490 C   0  0  0  0  0  3  0  0  0  0  0  0
  -17.8030  -30.6880   24.1440 C   0  0  0  0  0  3  0  0  0  0  0  0
  -16.6840  -29.9720   23.6840 C   0  0  0  0  0  3  0  0  0  0  0  0
  -16.8620  -28.7450   23.0200 C   0  0  0  0  0  3  0  0  0  0  0  0
  -25.9470  -32.6110   24.0630 C   0  0  0  0  0  3  0  0  0  0  0  0
  -26.3790  -31.8520   25.3760 C   0  0  1  0  0  0  0  0  0  0  0  0
  -25.2210  -31.6350   26.3780 C   0  0  0  0  0  1  0  0  0  0  0  0
  -26.9710  -30.4660   25.0310 C   0  0  0  0  0  1  0  0  0  0  0  0
  -27.4950  -32.6450   26.0990 C   0  0  0  0  0  1  0  0  0  0  0  0
  -25.6530  -34.0210   24.3470 N   0  0  0  0  0  0  0  0  0  0  0  0
  -26.0020  -35.0460   23.5570 C   0  0  0  0  0  0  0  0  0  0  0  0
  -26.6820  -34.9040   22.5360 O   0  0  0  0  0  0  0  0  0  0  0  0
  -25.0530  -34.2080   25.1370 H   0  0  0  0  0  0  0  0  0  0  0  0
  -24.2750  -36.8270   23.1520 C   0  0  0  0  0  1  0  0  0  0  0  0
  -25.5240  -36.4530   23.9660 C   0  0  0  0  0  3  0  0  0  0  0  0
  -27.6600  -37.3710   24.7530 C   0  0  0  0  0  1  0  0  0  0  0  0
  -26.5590  -37.4960   23.8010 N   0  0  0  0  0  0  0  0  0  0  0  0
  -26.1570  -38.4230   23.9070 H   0  0  0  0  0  0  0  0  0  0  0  0
  1  6  1  0
  1  2  2  0
  2  3  1  0
  3  7  2  0
  3  5  1  0
  4  7  1  0
  6  4  2  0
  8 14  1  0
  9 14  1  0
 10 11  1  0
 10  9  1  0
 12 11  1  0
 12 22  1  0
 12 13  1  0
 14 13  1  0
 15  8  2  0
 16  2  1  0
 17 47  1  0
 17 18  1  0
 17 16  1  0
 18 16  1  0
 18  8  1  0
 19 20  2  0
 20 39  1  0
 21 20  1  0
 21 24  1  0
 22 23  1  0
 22 19  1  0
 23 21  2  0
 24 25  1  0
 25 26  2  0
 27 30  1  0
 27 26  1  0
 28 27  2  0
 29 28  1  0
 29 24  2  0
 30 31  1  0
 31 36  2  0
 31 32  1  0
 32 33  2  0
 33 34  1  0
 34 38  1  0
 35 34  2  0
 36 35  1  0
 37 36  1  0
 39 40  1  0
 40 43  1  0
 40 42  1  0
 41 39  2  0
 44 45  1  0
 44 19  1  0
 46 44  1  0
 47 48  1  0
 48 50  1  0
 49 47  2  0
 51 48  1  0
 52  4  1  0
 54 53  1  0
 55 57  1  0
 55 56  1  0
 56 59  1  0
 56 53  1  0
 57 52  1  0
 57 54  1  0
 57 58  1  6
 60 71  2  0
 61 59  1  0
 61 66  1  0
 62 70  1  0
 62 72  1  0
 63 69  1  0
 63 65  1  0
 64 70  1  0
 65 64  1  0
 66 65  2  0
 67 61  2  0
 68 67  1  0
 68 63  2  0
 69 62  1  0
 70 60  1  0
 72 74  2  0
 73 72  1  0
 75 73  1  0
 76 85  2  0
 76 81  1  0
 77 73  1  0
 77 81  1  0
 78 77  1  0
 79 80  1  0
 79 78  1  0
 80 76  1  0
 81 82  2  0
 82 83  1  0
 84 83  2  0
 85 84  1  0
 86 60  1  0
 86 91  1  0
 86 87  1  0
 87 90  1  1
 87 88  1  0
 89 87  1  0
 91 94  1  0
 92 96  1  0
 92 91  1  0
 93 92  2  0
 96 95  1  0
 98 99  1  0
 98 96  1  0
 98 97  1  0
M  ISO  4   8 100  18 100  56 101  59 101
M  END
>  <TORSDO>  (63) 
F 19

>  <SCORE>  (63) 
-11.389

>  <name>  (63) 
62

>  <ligand_id>  (63) 
62

>  <original_smiles>  (63) 
[H]c1nc(C([H])([H])[N+]2([H])C([H])([H])C([H])([H])C([H])(Oc3c([H])c([H])c4c(c3[H])C([H])([H])N(C(=O)C([H])(N([H])C(=O)C([H])(N([H])C([H])([H])[H])C([H])([H])[H])C(C([H])([H])[H])(C([H])([H])[H])C([H])([H])[H])C([H])(C(=O)N([H])C3([H])c5c([H])c([H])c([H])c([H])c5C([H])([H])C([H])([H])C3([H])[H])C4([H])[H])C2([H])[H])nc(C([H])([H])[H])c1C1([H])N(C(=O)N2C([H])([H])C([H])([H])C([H])([H])C([H])(n3nc(-c4c([H])c([H])c(Oc5c([H])c([H])c(F)c([H])c5F)c([H])c4[H])c(C(=O)N([H])[H])c3N([H])[H])C2([H])[H])C1([H])C(=O)N([H])[H]

>  <smiles>  (63) 
[H]c1nc(C([H])([H])[N+]2([H])C([H])([H])C([H])([H])C([H])(Oc3c([H])c([H])c4c(c3[H])C([H])([H])N(C(=O)C([H])(N([H])C(=O)C([H])(N([H])C([H])([H])[H])C([H])([H])[H])C(C([H])([H])[H])(C([H])([H])[H])C([H])([H])[H])C([H])(C(=O)N([H])C3([H])c5c([H])c([H])c([H])c([H])c5C([H])([H])C([H])([H])C3([H])[H])C4([H])[H])C2([H])[H])nc(C([H])([H])[H])c1C1([H])N(C(=O)N2C([H])([H])C([H])([H])C([H])([H])C([H])(n3nc(-c4c([H])c([H])c(Oc5c([H])c([H])c(F)c([H])c5F)c([H])c4[H])c(C(=O)N([H])[H])c3N([H])[H])C2([H])[H])C1([H])C(=O)N([H])[H]

$$$$
63:0:0
     RDKit          3D

 93103  0  0  1  0  0  0  0  0999 V2000
  -30.6640  -14.8590   20.3650 C   0  0  0  0  0  0  0  0  0  0  0  0
  -30.4010  -12.5640   19.3930 C   0  0  0  0  0  2  0  0  0  0  0  0
  -29.4880  -12.5650   18.1520 C   0  0  0  0  0  2  0  0  0  0  0  0
  -28.0160  -12.3870   18.5700 C   0  0  0  0  0  2  0  0  0  0  0  0
  -27.6170  -13.3070   19.7550 C   0  0  0  0  0  3  0  0  0  0  0  0
  -28.6670  -13.3010   20.8850 C   0  0  0  0  0  2  0  0  0  0  0  0
  -29.9450  -13.6780   20.2680 N   0  0  0  0  0  0  0  0  0  0  0  0
  -31.8830  -14.7690   20.1860 O   0  0  0  0  0  0  0  0  0  0  0  0
  -30.1610  -21.7200   19.9050 C   0  0  0  0  0  3  0  0  0  0  0  0
  -29.8570  -23.1330   19.9880 C   0  0  0  0  0  0  0  0  0  0  0  0
  -28.5580  -23.5440   20.4230 C   0  0  0  0  0  0  0  0  0  0  0  0
  -29.2100  -20.7130   20.2740 C   0  0  0  0  0  0  0  0  0  0  0  0
  -30.7890  -18.6910   20.0750 C   0  0  0  0  0  2  0  0  0  0  0  0
  -28.5980  -18.2770   20.9500 C   0  0  0  0  0  2  0  0  0  0  0  0
  -30.8140  -17.2310   19.4810 C   0  0  0  0  0  2  0  0  0  0  0  0
  -28.7490  -16.7070   20.5980 C   0  0  0  0  0  2  0  0  0  0  0  0
  -27.6920  -22.5240   20.7510 N   0  0  0  0  0  0  0  0  0  0  0  0
  -27.9950  -21.1930   20.6810 N   0  0  0  0  0  0  0  0  0  0  0  0
  -29.4400  -19.2590   20.2160 N   0  0  0  0  0  0  0  0  0  0  0  0
  -30.0880  -16.1480   20.2250 N   0  0  0  0  0  0  0  0  0  0  0  0
  -25.2250  -13.8950   20.4490 C   0  0  0  0  0  0  0  0  0  0  0  0
  -24.1550  -13.1210   20.8050 C   0  0  0  0  0  0  0  0  0  0  0  0
  -24.6220  -11.7710   20.7940 C   0  0  0  0  0  0  0  0  0  0  0  0
  -26.2740  -13.0160   20.2380 N   0  0  0  0  0  0  0  0  0  0  0  0
  -25.9180  -11.7340   20.5110 N   0  0  0  0  0  0  0  0  0  0  0  0
  -23.8930  -10.5100   20.9790 C   0  0  0  0  0  0  0  0  0  0  0  0
  -24.3090   -9.5470   21.9240 C   0  0  0  0  0  3  0  0  0  0  0  0
  -23.5800   -8.3520   22.0970 C   0  0  0  0  0  3  0  0  0  0  0  0
  -22.4200   -8.1090   21.3230 C   0  0  0  0  0  0  0  0  0  0  0  0
  -22.0230   -9.0610   20.3670 C   0  0  0  0  0  3  0  0  0  0  0  0
  -22.7530  -10.2480   20.1920 C   0  0  0  0  0  3  0  0  0  0  0  0
  -21.6620   -6.9650   21.4070 O   0  0  0  0  0  0  0  0  0  0  0  0
  -21.5880   -6.2330   22.5650 C   0  0  0  0  0  0  0  0  0  0  0  0
  -21.1390   -6.8010   23.7770 C   0  0  0  0  0  3  0  0  0  0  0  0
  -21.0120   -5.9960   24.9270 C   0  0  0  0  0  3  0  0  0  0  0  0
  -21.3240   -4.6240   24.8640 C   0  0  0  0  0  0  0  0  0  0  0  0
  -21.7660   -4.0560   23.6560 C   0  0  0  0  0  3  0  0  0  0  0  0
  -21.8940   -4.8580   22.5090 C   0  0  0  0  0  0  0  0  0  0  0  0
  -22.3000   -4.3020   21.3420 F   0  0  0  0  0  0  0  0  0  0  0  0
  -21.1950   -3.8490   25.9650 F   0  0  0  0  0  0  0  0  0  0  0  0
  -22.7540  -13.6020   21.0420 C   0  0  0  0  0  0  0  0  0  0  0  0
  -22.0090  -12.9190   21.9040 N   0  0  0  0  0  0  0  0  0  0  0  0
  -22.3260  -14.6190   20.4990 O   0  0  0  0  0  0  0  0  0  0  0  0
  -22.3650  -12.0950   22.3650 H   0  0  0  0  0  0  0  0  0  0  0  0
  -21.0690  -13.2280   22.1080 H   0  0  0  0  0  0  0  0  0  0  0  0
  -25.3890  -15.2640   20.2600 N   0  0  0  0  0  0  0  0  0  0  0  0
  -24.6150  -15.9140   20.3460 H   0  0  0  0  0  0  0  0  0  0  0  0
  -26.2330  -15.6970   19.9120 H   0  0  0  0  0  0  0  0  0  0  0  0
  -32.3760  -23.9190   19.8580 C   0  0  0  0  0  2  0  0  0  0  0  0
  -31.6300  -24.9250   20.7010 C   0  0  0  0  0  2  0  0  0  0  0  0
  -30.8970  -24.1530   19.6290 C   0  0  0  0  0  3  0  0  0  0  0  0
  -28.0640  -25.0430   20.8110 C   0  0  0  0  0  2  0  0  0  0  0  0
  -28.2950  -26.3390   20.0580 O   0  0  0  0  0  0  0  0  0  0  0  0
  -24.6300  -31.8740   23.1370 C   0  0  0  0  0  0  0  0  0  0  0  0
  -27.2270  -27.2750   20.0540 C   0  0  0  0  0  0  0  0  0  0  0  0
  -23.4230  -30.4810   21.4950 C   0  0  0  0  0  3  0  0  0  0  0  0
  -24.8730  -28.9340   20.0530 C   0  0  0  0  0  0  0  0  0  0  0  0
  -25.9670  -30.7900   21.3070 C   0  0  0  0  0  2  0  0  0  0  0  0
  -26.0500  -29.4080   20.6510 C   0  0  0  0  0  0  0  0  0  0  0  0
  -27.2320  -28.5930   20.6360 C   0  0  0  0  0  3  0  0  0  0  0  0
  -26.0290  -26.8770   19.4250 C   0  0  0  0  0  3  0  0  0  0  0  0
  -24.8700  -27.6790   19.4260 C   0  0  0  0  0  3  0  0  0  0  0  0
  -23.6360  -29.8120   20.1120 C   0  0  0  0  0  2  0  0  0  0  0  0
  -24.6930  -31.0670   22.0360 N   0  0  0  0  0  0  0  0  0  0  0  0
  -23.5480  -32.1470   23.6770 O   0  0  0  0  0  0  0  0  0  0  0  0
  -22.7640  -29.4610   22.4560 C   0  0  0  0  0  0  0  0  0  0  0  0
  -21.4350  -29.2890   22.3410 N   0  0  0  0  0  0  0  0  0  0  0  0
  -23.4470  -28.8290   23.2650 O   0  0  0  0  0  0  0  0  0  0  0  0
  -20.9420  -29.8510   21.6620 H   0  0  0  0  0  0  0  0  0  0  0  0
  -18.0570  -28.0980   22.8750 C   0  0  0  0  0  0  0  0  0  0  0  0
  -20.6210  -28.3460   23.1120 C   0  0  0  0  0  3  0  0  0  0  0  0
  -20.7090  -26.9200   22.5200 C   0  0  0  0  0  2  0  0  0  0  0  0
  -19.5930  -26.6130   21.5170 C   0  0  0  0  0  2  0  0  0  0  0  0
  -18.2200  -26.7560   22.1810 C   0  0  0  0  0  2  0  0  0  0  0  0
  -19.1850  -28.8520   23.2980 C   0  0  0  0  0  0  0  0  0  0  0  0
  -18.9780  -30.1070   23.9090 C   0  0  0  0  0  3  0  0  0  0  0  0
  -17.6760  -30.6100   24.0980 C   0  0  0  0  0  3  0  0  0  0  0  0
  -16.5640  -29.8530   23.6910 C   0  0  0  0  0  3  0  0  0  0  0  0
  -16.7560  -28.5980   23.0860 C   0  0  0  0  0  3  0  0  0  0  0  0
  -25.9120  -32.5080   23.7580 C   0  0  0  0  0  3  0  0  0  0  0  0
  -25.5920  -33.8980   24.1210 N   0  0  0  0  0  0  0  0  0  0  0  0
  -25.9070  -34.9710   23.3830 C   0  0  0  0  0  0  0  0  0  0  0  0
  -26.5660  -34.8950   22.3420 O   0  0  0  0  0  0  0  0  0  0  0  0
  -25.0010  -34.0290   24.9280 H   0  0  0  0  0  0  0  0  0  0  0  0
  -24.1630  -36.7600   23.0860 C   0  0  0  0  0  1  0  0  0  0  0  0
  -25.4140  -36.3440   23.8770 C   0  0  0  0  0  3  0  0  0  0  0  0
  -27.5520  -37.2230   24.7060 C   0  0  0  0  0  1  0  0  0  0  0  0
  -26.4360  -37.4090   23.7830 N   0  0  0  0  0  0  0  0  0  0  0  0
  -26.0240  -38.3210   23.9620 H   0  0  0  0  0  0  0  0  0  0  0  0
  -26.4500  -31.7180   25.0150 C   0  0  1  0  0  0  0  0  0  0  0  0
  -25.3710  -31.4560   26.0920 C   0  0  0  0  0  1  0  0  0  0  0  0
  -27.0360  -30.3500   24.5950 C   0  0  0  0  0  1  0  0  0  0  0  0
  -27.6030  -32.5090   25.6770 C   0  0  0  0  0  1  0  0  0  0  0  0
  2  7  1  0
  3  4  1  0
  3  2  1  0
  5  4  1  0
  5 24  1  0
  5  6  1  0
  7  1  1  0
  7  6  1  0
  8  1  2  0
  9 10  2  0
  9 12  1  0
 10 11  1  0
 11 17  2  0
 11 52  1  0
 12 18  2  0
 13 19  1  0
 15 13  1  0
 15 20  1  0
 16 14  1  0
 18 17  1  0
 19 12  1  0
 19 14  1  0
 20  1  1  0
 20 16  1  0
 21 22  2  0
 22 41  1  0
 23 22  1  0
 23 26  1  0
 24 21  1  0
 24 25  1  0
 25 23  2  0
 26 27  1  0
 27 28  2  0
 29 32  1  0
 29 28  1  0
 30 29  2  0
 31 30  1  0
 31 26  2  0
 32 33  1  0
 33 34  1  0
 34 35  2  0
 36 35  1  0
 36 40  1  0
 37 36  2  0
 38 33  2  0
 38 37  1  0
 39 38  1  0
 41 42  1  0
 42 45  1  0
 42 44  1  0
 43 41  2  0
 46 47  1  0
 46 21  1  0
 48 46  1  0
 49 50  1  0
 51 49  1  0
 51 10  1  0
 51 50  1  0
 53 52  1  0
 54 65  2  0
 55 53  1  0
 55 60  1  0
 56 64  1  0
 56 66  1  0
 57 63  1  0
 57 59  1  0
 58 64  1  0
 59 58  1  0
 60 59  2  0
 61 62  1  0
 61 55  2  0
 62 57  2  0
 63 56  1  0
 64 54  1  0
 66 68  2  0
 67 66  1  0
 69 67  1  0
 70 79  2  0
 70 75  1  0
 71 67  1  0
 71 75  1  0
 72 71  1  0
 73 74  1  0
 73 72  1  0
 74 70  1  0
 75 76  2  0
 76 77  1  0
 78 77  2  0
 79 78  1  0
 80 54  1  0
 80 81  1  0
 80 90  1  0
 81 84  1  0
 82 86  1  0
 82 81  1  0
 83 82  2  0
 86 85  1  0
 88 86  1  0
 88 89  1  0
 88 87  1  0
 90 93  1  1
 90 91  1  0
 92 90  1  0
M  ISO  4   1 100  20 100  52 101  53 101
M  END
>  <TORSDO>  (64) 
F 17

>  <SCORE>  (64) 
-14.910

>  <name>  (64) 
63

>  <ligand_id>  (64) 
63

>  <original_smiles>  (64) 
[H]c1c([H])c([H])c2c(c1[H])C([H])([H])C([H])([H])C([H])([H])C2([H])N([H])C(=O)C1([H])N(C(=O)C([H])(N([H])C(=O)C([H])(N([H])C([H])([H])[H])C([H])([H])[H])C(C([H])([H])[H])(C([H])([H])[H])C([H])([H])[H])C([H])([H])c2c([H])c(OC([H])([H])c3nnc(N4C([H])([H])C([H])([H])N(C(=O)N5C([H])([H])C([H])([H])C([H])([H])C([H])(n6nc(-c7c([H])c([H])c(Oc8c([H])c([H])c(F)c([H])c8F)c([H])c7[H])c(C(=O)N([H])[H])c6N([H])[H])C5([H])[H])C([H])([H])C4([H])[H])c([H])c3C3([H])C([H])([H])C3([H])[H])c([H])c([H])c2C1([H])[H]

>  <smiles>  (64) 
[H]c1c([H])c([H])c2c(c1[H])C([H])([H])C([H])([H])C([H])([H])C2([H])N([H])C(=O)C1([H])N(C(=O)C([H])(N([H])C(=O)C([H])(N([H])C([H])([H])[H])C([H])([H])[H])C(C([H])([H])[H])(C([H])([H])[H])C([H])([H])[H])C([H])([H])c2c([H])c(OC([H])([H])c3nnc(N4C([H])([H])C([H])([H])N(C(=O)N5C([H])([H])C([H])([H])C([H])([H])C([H])(n6nc(-c7c([H])c([H])c(Oc8c([H])c([H])c(F)c([H])c8F)c([H])c7[H])c(C(=O)N([H])[H])c6N([H])[H])C5([H])[H])C([H])([H])C4([H])[H])c([H])c3C3([H])C([H])([H])C3([H])[H])c([H])c([H])c2C1([H])[H]

$$$$
64:0:0
     RDKit          3D

 92101  0  0  1  0  0  0  0  0999 V2000
  -30.4850  -21.3400   19.8610 C   0  0  0  0  0  2  0  0  0  0  0  0
  -29.3970  -22.0560   20.6370 C   0  0  0  0  0  3  0  0  0  0  0  0
  -29.1850  -20.6150   20.0850 C   0  0  0  0  0  3  0  0  0  0  0  0
  -29.3700  -19.4410   21.0080 N   0  0  0  0  0  4  0  0  0  0  0  0
  -30.2960  -19.4990   21.3980 H   0  0  0  0  0  0  0  0  0  0  0  0
  -28.7250  -19.5390   21.7770 H   0  0  0  0  0  0  0  0  0  0  0  0
  -30.6190  -14.5950   20.3520 C   0  0  0  0  0  0  0  0  0  0  0  0
  -30.3660  -12.3780   19.3020 C   0  0  0  0  0  2  0  0  0  0  0  0
  -29.4190  -12.5300   18.0940 C   0  0  0  0  0  2  0  0  0  0  0  0
  -27.9450  -12.3910   18.5290 C   0  0  0  0  0  2  0  0  0  0  0  0
  -27.5970  -13.2510   19.7750 C   0  0  0  0  0  3  0  0  0  0  0  0
  -28.6630  -13.1010   20.8830 C   0  0  0  0  0  2  0  0  0  0  0  0
  -29.9710  -13.3980   20.2860 N   0  0  0  0  0  0  0  0  0  0  0  0
  -31.8230  -14.7050   20.1010 O   0  0  0  0  0  0  0  0  0  0  0  0
  -29.7400  -17.8280   19.0320 C   0  0  0  0  0  2  0  0  0  0  0  0
  -29.6760  -16.2970   18.8940 C   0  0  0  0  0  2  0  0  0  0  0  0
  -29.7820  -16.8430   21.1860 C   0  0  0  0  0  2  0  0  0  0  0  0
  -29.1720  -18.0650   20.4220 C   0  0  0  0  0  3  0  0  0  0  0  0
  -29.8080  -15.6960   20.2390 N   0  0  0  0  0  0  0  0  0  0  0  0
  -25.2100  -13.8610   20.5000 C   0  0  0  0  0  0  0  0  0  0  0  0
  -24.1430  -13.0890   20.8750 C   0  0  0  0  0  0  0  0  0  0  0  0
  -24.6050  -11.7380   20.8490 C   0  0  0  0  0  0  0  0  0  0  0  0
  -26.2520  -12.9770   20.2680 N   0  0  0  0  0  0  0  0  0  0  0  0
  -25.8940  -11.6960   20.5390 N   0  0  0  0  0  0  0  0  0  0  0  0
  -23.8790  -10.4770   21.0430 C   0  0  0  0  0  0  0  0  0  0  0  0
  -24.3210   -9.5060   21.9690 C   0  0  0  0  0  3  0  0  0  0  0  0
  -23.5960   -8.3090   22.1500 C   0  0  0  0  0  3  0  0  0  0  0  0
  -22.4150   -8.0750   21.4070 C   0  0  0  0  0  0  0  0  0  0  0  0
  -21.9930   -9.0340   20.4690 C   0  0  0  0  0  3  0  0  0  0  0  0
  -22.7180  -10.2220   20.2850 C   0  0  0  0  0  3  0  0  0  0  0  0
  -21.6600   -6.9310   21.5000 O   0  0  0  0  0  0  0  0  0  0  0  0
  -21.6280   -6.1810   22.6480 C   0  0  0  0  0  0  0  0  0  0  0  0
  -21.2290   -6.7290   23.8860 C   0  0  0  0  0  3  0  0  0  0  0  0
  -21.1450   -5.9040   25.0260 C   0  0  0  0  0  3  0  0  0  0  0  0
  -21.4510   -4.5330   24.9300 C   0  0  0  0  0  0  0  0  0  0  0  0
  -21.8440   -3.9860   23.6960 C   0  0  0  0  0  3  0  0  0  0  0  0
  -21.9300   -4.8060   22.5580 C   0  0  0  0  0  0  0  0  0  0  0  0
  -22.2890   -4.2690   21.3680 F   0  0  0  0  0  0  0  0  0  0  0  0
  -21.3630   -3.7400   26.0220 F   0  0  0  0  0  0  0  0  0  0  0  0
  -22.7450  -13.5690   21.1450 C   0  0  0  0  0  0  0  0  0  0  0  0
  -22.0170  -12.8770   22.0140 N   0  0  0  0  0  0  0  0  0  0  0  0
  -22.3080  -14.5920   20.6200 O   0  0  0  0  0  0  0  0  0  0  0  0
  -22.3850  -12.0520   22.4650 H   0  0  0  0  0  0  0  0  0  0  0  0
  -21.0790  -13.1790   22.2340 H   0  0  0  0  0  0  0  0  0  0  0  0
  -25.3750  -15.2310   20.3140 N   0  0  0  0  0  0  0  0  0  0  0  0
  -24.6050  -15.8840   20.4150 H   0  0  0  0  0  0  0  0  0  0  0  0
  -26.2230  -15.6650   19.9720 H   0  0  0  0  0  0  0  0  0  0  0  0
  -28.8880  -23.2520   19.9280 N   0  0  0  0  0  0  0  0  0  0  0  0
  -29.6610  -23.8610   19.6680 H   0  0  0  0  0  0  0  0  0  0  0  0
  -27.8990  -24.0910   20.6310 C   0  0  0  0  0  2  0  0  0  0  0  0
  -28.4130  -25.4940   21.1230 C   0  0  0  0  0  2  0  0  0  0  0  0
  -28.3980  -26.6150   20.1980 O   0  0  0  0  0  0  0  0  0  0  0  0
  -24.6110  -31.8870   23.2480 C   0  0  0  0  0  0  0  0  0  0  0  0
  -27.2580  -27.3990   20.2060 C   0  0  0  0  0  0  0  0  0  0  0  0
  -23.4150  -30.4790   21.6060 C   0  0  0  0  0  3  0  0  0  0  0  0
  -24.8760  -28.9360   20.1910 C   0  0  0  0  0  0  0  0  0  0  0  0
  -25.9450  -30.8300   21.4220 C   0  0  0  0  0  2  0  0  0  0  0  0
  -26.0340  -29.4530   20.7870 C   0  0  0  0  0  0  0  0  0  0  0  0
  -27.2320  -28.6920   20.7900 C   0  0  0  0  0  3  0  0  0  0  0  0
  -26.0870  -26.9100   19.5940 C   0  0  0  0  0  3  0  0  0  0  0  0
  -24.9000  -27.6660   19.5890 C   0  0  0  0  0  3  0  0  0  0  0  0
  -23.6330  -29.7970   20.2280 C   0  0  0  0  0  2  0  0  0  0  0  0
  -24.6750  -31.0820   22.1490 N   0  0  0  0  0  0  0  0  0  0  0  0
  -23.5260  -32.1600   23.7820 O   0  0  0  0  0  0  0  0  0  0  0  0
  -22.7590  -29.4600   22.5670 C   0  0  0  0  0  0  0  0  0  0  0  0
  -21.4340  -29.2770   22.4360 N   0  0  0  0  0  0  0  0  0  0  0  0
  -23.4400  -28.8370   23.3840 O   0  0  0  0  0  0  0  0  0  0  0  0
  -20.9460  -29.8340   21.7490 H   0  0  0  0  0  0  0  0  0  0  0  0
  -18.0600  -28.0780   22.9240 C   0  0  0  0  0  0  0  0  0  0  0  0
  -20.6170  -28.3390   23.2050 C   0  0  0  0  0  3  0  0  0  0  0  0
  -20.7230  -26.9070   22.6340 C   0  0  0  0  0  2  0  0  0  0  0  0
  -19.6260  -26.5810   21.6150 C   0  0  0  0  0  2  0  0  0  0  0  0
  -18.2420  -26.7270   22.2520 C   0  0  0  0  0  2  0  0  0  0  0  0
  -19.1760  -28.8420   23.3560 C   0  0  0  0  0  0  0  0  0  0  0  0
  -18.9530  -30.1060   23.9430 C   0  0  0  0  0  3  0  0  0  0  0  0
  -17.6470  -30.6070   24.1010 C   0  0  0  0  0  3  0  0  0  0  0  0
  -16.5460  -29.8390   23.6850 C   0  0  0  0  0  3  0  0  0  0  0  0
  -16.7530  -28.5760   23.1010 C   0  0  0  0  0  3  0  0  0  0  0  0
  -25.8920  -32.5230   23.8710 C   0  0  0  0  0  3  0  0  0  0  0  0
  -26.4080  -31.7580   25.1520 C   0  0  1  0  0  0  0  0  0  0  0  0
  -25.3130  -31.5250   26.2190 C   0  0  0  0  0  1  0  0  0  0  0  0
  -26.9920  -30.3800   24.7650 C   0  0  0  0  0  1  0  0  0  0  0  0
  -27.5550  -32.5570   25.8140 C   0  0  0  0  0  1  0  0  0  0  0  0
  -25.5810  -33.9230   24.1950 N   0  0  0  0  0  0  0  0  0  0  0  0
  -25.9150  -34.9710   23.4330 C   0  0  0  0  0  0  0  0  0  0  0  0
  -26.5880  -34.8650   22.4040 O   0  0  0  0  0  0  0  0  0  0  0  0
  -24.9850  -34.0800   24.9940 H   0  0  0  0  0  0  0  0  0  0  0  0
  -24.1860  -36.7600   23.0650 C   0  0  0  0  0  1  0  0  0  0  0  0
  -25.4240  -36.3610   23.8820 C   0  0  0  0  0  3  0  0  0  0  0  0
  -27.5560  -37.2510   24.7150 C   0  0  0  0  0  1  0  0  0  0  0  0
  -26.4550  -37.4160   23.7700 N   0  0  0  0  0  0  0  0  0  0  0  0
  -26.0470  -38.3350   23.9170 H   0  0  0  0  0  0  0  0  0  0  0  0
  1  3  1  0
  1  2  1  0
  2 48  1  0
  3  2  1  0
  3  4  1  0
  4  5  1  0
  4  6  1  0
  8 13  1  0
  9 10  1  0
  9  8  1  0
 11 10  1  0
 11 23  1  0
 11 12  1  0
 13  7  1  0
 13 12  1  0
 14  7  2  0
 15 18  1  0
 16 15  1  0
 16 19  1  0
 18  4  1  0
 18 17  1  0
 19  7  1  0
 19 17  1  0
 20 21  2  0
 21 40  1  0
 22 21  1  0
 22 25  1  0
 23 20  1  0
 23 24  1  0
 24 22  2  0
 25 26  1  0
 26 27  2  0
 28 31  1  0
 28 27  1  0
 29 28  2  0
 30 29  1  0
 30 25  2  0
 31 32  1  0
 32 33  1  0
 33 34  2  0
 35 34  1  0
 35 39  1  0
 36 35  2  0
 37 32  2  0
 37 36  1  0
 38 37  1  0
 40 41  1  0
 41 44  1  0
 41 43  1  0
 42 40  2  0
 45 46  1  0
 45 20  1  0
 47 45  1  0
 48 50  1  0
 49 48  1  0
 50 51  1  0
 52 54  1  0
 52 51  1  0
 53 64  2  0
 54 59  1  0
 55 63  1  0
 55 65  1  0
 56 62  1  0
 56 58  1  0
 57 63  1  0
 58 59  2  0
 58 57  1  0
 60 54  2  0
 61 60  1  0
 61 56  2  0
 62 55  1  0
 63 53  1  0
 65 67  2  0
 66 65  1  0
 68 66  1  0
 69 78  2  0
 69 74  1  0
 70 66  1  0
 70 74  1  0
 71 70  1  0
 72 73  1  0
 72 71  1  0
 73 69  1  0
 74 75  2  0
 75 76  1  0
 77 76  2  0
 78 77  1  0
 79 53  1  0
 79 84  1  0
 79 80  1  0
 80 83  1  1
 80 81  1  0
 82 80  1  0
 84 87  1  0
 85 89  1  0
 85 84  1  0
 86 85  2  0
 89 88  1  0
 91 89  1  0
 91 92  1  0
 91 90  1  0
M  ISO  4   7 100  19 100  51 101  52 101
M  END
>  <TORSDO>  (65) 
F 20

>  <SCORE>  (65) 
-13.954

>  <name>  (65) 
64

>  <ligand_id>  (65) 
64

>  <original_smiles>  (65) 
[H]c1c([H])c([H])c2c(c1[H])C([H])([H])C([H])([H])C([H])([H])C2([H])N([H])C(=O)C1([H])N(C(=O)C([H])(N([H])C(=O)C([H])(N([H])C([H])([H])[H])C([H])([H])[H])C(C([H])([H])[H])(C([H])([H])[H])C([H])([H])[H])C([H])([H])c2c([H])c(OC([H])([H])C([H])([H])N([H])C3([H])C([H])([H])C3([H])[N+]([H])([H])C3([H])C([H])([H])N(C(=O)N4C([H])([H])C([H])([H])C([H])([H])C([H])(n5nc(-c6c([H])c([H])c(Oc7c([H])c([H])c(F)c([H])c7F)c([H])c6[H])c(C(=O)N([H])[H])c5N([H])[H])C4([H])[H])C([H])([H])C3([H])[H])c([H])c([H])c2C1([H])[H]

>  <smiles>  (65) 
[H]c1c([H])c([H])c2c(c1[H])C([H])([H])C([H])([H])C([H])([H])C2([H])N([H])C(=O)C1([H])N(C(=O)C([H])(N([H])C(=O)C([H])(N([H])C([H])([H])[H])C([H])([H])[H])C(C([H])([H])[H])(C([H])([H])[H])C([H])([H])[H])C([H])([H])c2c([H])c(OC([H])([H])C([H])([H])N([H])C3([H])C([H])([H])C3([H])[N+]([H])([H])C3([H])C([H])([H])N(C(=O)N4C([H])([H])C([H])([H])C([H])([H])C([H])(n5nc(-c6c([H])c([H])c(Oc7c([H])c([H])c(F)c([H])c7F)c([H])c6[H])c(C(=O)N([H])[H])c5N([H])[H])C4([H])[H])C([H])([H])C3([H])[H])c([H])c([H])c2C1([H])[H]

$$$$
65:0:0
     RDKit          3D

 92100  0  0  1  0  0  0  0  0999 V2000
  -31.0740  -20.0590   20.9020 C   0  0  0  0  0  3  0  0  0  0  0  0
  -30.8640  -21.4150   21.0070 C   0  0  0  0  0  0  0  0  0  0  0  0
  -29.4890  -21.5610   20.6580 C   0  0  0  0  0  0  0  0  0  0  0  0
  -31.8720  -22.4550   21.4200 C   0  0  0  0  0  1  0  0  0  0  0  0
  -28.9140  -20.3910   20.3940 N   0  0  0  0  0  0  0  0  0  0  0  0
  -29.8840  -19.4430   20.5610 N   0  0  0  0  0  0  0  0  0  0  0  0
  -28.7210  -22.7450   20.6370 N   0  0  0  0  0  0  0  0  0  0  0  0
  -27.7500  -22.5960   20.3830 H   0  0  0  0  0  0  0  0  0  0  0  0
  -29.6050  -18.0120   20.2660 C   0  0  0  0  0  2  0  0  0  0  0  0
  -30.4250  -17.1660   22.5590 C   0  0  0  0  0  1  0  0  0  0  0  0
  -30.4540  -16.9360   21.0390 C   0  0  0  0  0  3  0  0  0  0  0  0
  -30.7110  -14.5220   20.2020 C   0  0  0  0  0  0  0  0  0  0  0  0
  -30.3860  -12.3670   19.0250 C   0  0  0  0  0  2  0  0  0  0  0  0
  -29.4000  -12.5740   17.8550 C   0  0  0  0  0  2  0  0  0  0  0  0
  -27.9410  -12.4300   18.3310 C   0  0  0  0  0  2  0  0  0  0  0  0
  -27.6470  -13.2490   19.6170 C   0  0  0  0  0  3  0  0  0  0  0  0
  -28.7400  -13.0180   20.6840 C   0  0  0  0  0  2  0  0  0  0  0  0
  -30.0400  -13.3420   20.0740 N   0  0  0  0  0  0  0  0  0  0  0  0
  -31.8310  -14.7030   19.7180 O   0  0  0  0  0  0  0  0  0  0  0  0
  -30.0190  -15.5370   20.7740 N   0  0  0  0  0  0  0  0  0  0  0  0
  -29.0910  -15.2910   21.0890 H   0  0  0  0  0  0  0  0  0  0  0  0
  -25.2740  -13.8550   20.4010 C   0  0  0  0  0  0  0  0  0  0  0  0
  -24.2170  -13.0850   20.8060 C   0  0  0  0  0  0  0  0  0  0  0  0
  -24.6770  -11.7340   20.7640 C   0  0  0  0  0  0  0  0  0  0  0  0
  -26.3110  -12.9740   20.1390 N   0  0  0  0  0  0  0  0  0  0  0  0
  -25.9580  -11.6930   20.4140 N   0  0  0  0  0  0  0  0  0  0  0  0
  -23.9570  -10.4730   20.9790 C   0  0  0  0  0  0  0  0  0  0  0  0
  -24.4080   -9.5150   21.9150 C   0  0  0  0  0  3  0  0  0  0  0  0
  -23.6880   -8.3180   22.1170 C   0  0  0  0  0  3  0  0  0  0  0  0
  -22.5030   -8.0700   21.3840 C   0  0  0  0  0  0  0  0  0  0  0  0
  -22.0720   -9.0160   20.4370 C   0  0  0  0  0  3  0  0  0  0  0  0
  -22.7930  -10.2050   20.2320 C   0  0  0  0  0  3  0  0  0  0  0  0
  -21.7540   -6.9230   21.4950 O   0  0  0  0  0  0  0  0  0  0  0  0
  -21.7150   -6.2000   22.6600 C   0  0  0  0  0  0  0  0  0  0  0  0
  -21.2770   -6.7680   23.8760 C   0  0  0  0  0  3  0  0  0  0  0  0
  -21.1850   -5.9700   25.0340 C   0  0  0  0  0  3  0  0  0  0  0  0
  -21.5200   -4.6030   24.9760 C   0  0  0  0  0  0  0  0  0  0  0  0
  -21.9510   -4.0340   23.7650 C   0  0  0  0  0  3  0  0  0  0  0  0
  -22.0450   -4.8300   22.6100 C   0  0  0  0  0  0  0  0  0  0  0  0
  -22.4390   -4.2720   21.4390 F   0  0  0  0  0  0  0  0  0  0  0  0
  -21.4250   -3.8340   26.0860 F   0  0  0  0  0  0  0  0  0  0  0  0
  -22.8290  -13.5640   21.1190 C   0  0  0  0  0  0  0  0  0  0  0  0
  -22.1260  -12.8690   22.0060 N   0  0  0  0  0  0  0  0  0  0  0  0
  -22.3770  -14.5910   20.6110 O   0  0  0  0  0  0  0  0  0  0  0  0
  -22.5060  -12.0400   22.4380 H   0  0  0  0  0  0  0  0  0  0  0  0
  -21.1940  -13.1680   22.2540 H   0  0  0  0  0  0  0  0  0  0  0  0
  -25.4320  -15.2250   20.2150 N   0  0  0  0  0  0  0  0  0  0  0  0
  -24.6640  -15.8760   20.3430 H   0  0  0  0  0  0  0  0  0  0  0  0
  -26.2620  -15.6680   19.8430 H   0  0  0  0  0  0  0  0  0  0  0  0
  -29.2200  -24.1210   20.4100 C   0  0  0  0  0  2  0  0  0  0  0  0
  -28.1240  -25.1980   20.7160 C   0  0  0  0  0  2  0  0  0  0  0  0
  -28.3540  -26.5670   20.2570 O   0  0  0  0  0  0  0  0  0  0  0  0
  -24.5660  -31.8750   23.2310 C   0  0  0  0  0  0  0  0  0  0  0  0
  -27.2230  -27.3730   20.2070 C   0  0  0  0  0  0  0  0  0  0  0  0
  -23.3720  -30.4640   21.5910 C   0  0  0  0  0  3  0  0  0  0  0  0
  -24.8380  -28.9240   20.1780 C   0  0  0  0  0  0  0  0  0  0  0  0
  -25.9050  -30.8140   21.4080 C   0  0  0  0  0  2  0  0  0  0  0  0
  -25.9980  -29.4360   20.7760 C   0  0  0  0  0  0  0  0  0  0  0  0
  -27.1940  -28.6710   20.7860 C   0  0  0  0  0  3  0  0  0  0  0  0
  -26.0500  -26.9080   19.5690 C   0  0  0  0  0  3  0  0  0  0  0  0
  -24.8640  -27.6620   19.5660 C   0  0  0  0  0  3  0  0  0  0  0  0
  -23.5930  -29.7820   20.2160 C   0  0  0  0  0  2  0  0  0  0  0  0
  -24.6330  -31.0670   22.1330 N   0  0  0  0  0  0  0  0  0  0  0  0
  -23.4800  -32.1470   23.7630 O   0  0  0  0  0  0  0  0  0  0  0  0
  -22.7170  -29.4450   22.5550 C   0  0  0  0  0  0  0  0  0  0  0  0
  -21.3920  -29.2610   22.4240 N   0  0  0  0  0  0  0  0  0  0  0  0
  -23.3960  -28.8240   23.3750 O   0  0  0  0  0  0  0  0  0  0  0  0
  -20.9030  -29.8120   21.7350 H   0  0  0  0  0  0  0  0  0  0  0  0
  -18.0150  -28.0730   22.9280 C   0  0  0  0  0  0  0  0  0  0  0  0
  -20.5730  -28.3260   23.1970 C   0  0  0  0  0  3  0  0  0  0  0  0
  -20.6730  -26.8940   22.6220 C   0  0  0  0  0  2  0  0  0  0  0  0
  -19.5690  -26.5710   21.6100 C   0  0  0  0  0  2  0  0  0  0  0  0
  -18.1880  -26.7220   22.2540 C   0  0  0  0  0  2  0  0  0  0  0  0
  -19.1350  -28.8330   23.3570 C   0  0  0  0  0  0  0  0  0  0  0  0
  -18.9210  -30.0980   23.9450 C   0  0  0  0  0  3  0  0  0  0  0  0
  -17.6160  -30.6020   24.1110 C   0  0  0  0  0  3  0  0  0  0  0  0
  -16.5100  -29.8400   23.6970 C   0  0  0  0  0  3  0  0  0  0  0  0
  -16.7100  -28.5760   23.1110 C   0  0  0  0  0  3  0  0  0  0  0  0
  -25.8460  -32.5140   23.8540 C   0  0  0  0  0  3  0  0  0  0  0  0
  -26.3590  -31.7530   25.1380 C   0  0  1  0  0  0  0  0  0  0  0  0
  -25.2630  -31.5160   26.2030 C   0  0  0  0  0  1  0  0  0  0  0  0
  -26.9490  -30.3760   24.7560 C   0  0  0  0  0  1  0  0  0  0  0  0
  -27.5030  -32.5560   25.8020 C   0  0  0  0  0  1  0  0  0  0  0  0
  -25.5320  -33.9150   24.1730 N   0  0  0  0  0  0  0  0  0  0  0  0
  -25.8760  -34.9630   23.4140 C   0  0  0  0  0  0  0  0  0  0  0  0
  -26.5630  -34.8560   22.3940 O   0  0  0  0  0  0  0  0  0  0  0  0
  -24.9270  -34.0730   24.9650 H   0  0  0  0  0  0  0  0  0  0  0  0
  -24.1650  -36.7620   23.0130 C   0  0  0  0  0  1  0  0  0  0  0  0
  -25.3810  -36.3540   23.8570 C   0  0  0  0  0  3  0  0  0  0  0  0
  -27.4950  -37.2330   24.7460 C   0  0  0  0  0  1  0  0  0  0  0  0
  -26.4210  -37.4040   23.7710 N   0  0  0  0  0  0  0  0  0  0  0  0
  -26.0130  -38.3260   23.9080 H   0  0  0  0  0  0  0  0  0  0  0  0
  1  2  2  0
  2  4  1  0
  3  2  1  0
  5  6  1  0
  5  3  2  0
  6  1  1  0
  7  3  1  0
  8  7  1  0
  9  6  1  0
  9 11  1  0
 11 10  1  0
 12 20  1  0
 13 18  1  0
 14 15  1  0
 14 13  1  0
 16 15  1  0
 16 25  1  0
 16 17  1  0
 18 12  1  0
 18 17  1  0
 19 12  2  0
 20 11  1  0
 20 21  1  0
 22 23  2  0
 23 42  1  0
 24 23  1  0
 24 27  1  0
 25 22  1  0
 25 26  1  0
 26 24  2  0
 27 28  1  0
 28 29  2  0
 30 33  1  0
 30 29  1  0
 31 30  2  0
 32 31  1  0
 32 27  2  0
 33 34  1  0
 34 35  1  0
 35 36  2  0
 37 36  1  0
 37 41  1  0
 38 37  2  0
 39 34  2  0
 39 38  1  0
 40 39  1  0
 42 43  1  0
 43 46  1  0
 43 45  1  0
 44 42  2  0
 47 48  1  0
 47 22  1  0
 49 47  1  0
 50  7  1  0
 50 51  1  0
 52 51  1  0
 53 64  2  0
 54 52  1  0
 54 59  1  0
 55 63  1  0
 55 65  1  0
 56 62  1  0
 56 58  1  0
 57 63  1  0
 58 59  2  0
 58 57  1  0
 60 54  2  0
 61 60  1  0
 61 56  2  0
 62 55  1  0
 63 53  1  0
 65 67  2  0
 66 65  1  0
 68 66  1  0
 69 78  2  0
 69 74  1  0
 70 66  1  0
 70 74  1  0
 71 70  1  0
 72 73  1  0
 72 71  1  0
 73 69  1  0
 74 75  2  0
 75 76  1  0
 77 76  2  0
 78 77  1  0
 79 53  1  0
 79 84  1  0
 79 80  1  0
 80 83  1  1
 80 81  1  0
 82 80  1  0
 84 87  1  0
 85 89  1  0
 85 84  1  0
 86 85  2  0
 89 88  1  0
 91 89  1  0
 91 92  1  0
 91 90  1  0
M  ISO  4  12 100  20 100  51 101  52 101
M  END
>  <TORSDO>  (66) 
F 20

>  <SCORE>  (66) 
-13.628

>  <name>  (66) 
65

>  <ligand_id>  (66) 
65

>  <original_smiles>  (66) 
[H]c1c([H])c([H])c2c(c1[H])C([H])([H])C([H])([H])C([H])([H])C2([H])N([H])C(=O)C1([H])N(C(=O)C([H])(N([H])C(=O)C([H])(N([H])C([H])([H])[H])C([H])([H])[H])C(C([H])([H])[H])(C([H])([H])[H])C([H])([H])[H])C([H])([H])c2c([H])c(OC([H])([H])C([H])([H])N([H])c3nn(C([H])([H])C([H])(N([H])C(=O)N4C([H])([H])C([H])([H])C([H])([H])C([H])(n5nc(-c6c([H])c([H])c(Oc7c([H])c([H])c(F)c([H])c7F)c([H])c6[H])c(C(=O)N([H])[H])c5N([H])[H])C4([H])[H])C([H])([H])[H])c([H])c3C([H])([H])[H])c([H])c([H])c2C1([H])[H]

>  <smiles>  (66) 
[H]c1c([H])c([H])c2c(c1[H])C([H])([H])C([H])([H])C([H])([H])C2([H])N([H])C(=O)C1([H])N(C(=O)C([H])(N([H])C(=O)C([H])(N([H])C([H])([H])[H])C([H])([H])[H])C(C([H])([H])[H])(C([H])([H])[H])C([H])([H])[H])C([H])([H])c2c([H])c(OC([H])([H])C([H])([H])N([H])c3nn(C([H])([H])C([H])(N([H])C(=O)N4C([H])([H])C([H])([H])C([H])([H])C([H])(n5nc(-c6c([H])c([H])c(Oc7c([H])c([H])c(F)c([H])c7F)c([H])c6[H])c(C(=O)N([H])[H])c5N([H])[H])C4([H])[H])C([H])([H])[H])c([H])c3C([H])([H])[H])c([H])c([H])c2C1([H])[H]

$$$$
66:0:0
     RDKit          3D

 90 99  0  0  1  0  0  0  0  0999 V2000
  -28.7250  -23.7020   19.3250 C   0  0  0  0  0  2  0  0  0  0  0  0
  -28.5870  -23.7450   21.3700 C   0  0  0  0  0  2  0  0  0  0  0  0
  -28.4710  -22.5300   20.3570 C   0  0  0  0  0  3  0  0  0  0  0  0
  -28.0050  -24.7340   20.2890 C   0  0  0  0  0  3  0  0  0  0  0  0
  -29.4320  -21.3090   20.5090 N   0  0  0  0  0  4  0  0  0  0  0  0
  -29.4460  -21.1050   21.4940 H   0  0  0  0  0  0  0  0  0  0  0  0
  -30.3730  -21.5820   20.2740 H   0  0  0  0  0  0  0  0  0  0  0  0
  -29.1290  -19.9390   19.8460 C   0  0  0  0  0  2  0  0  0  0  0  0
  -30.6740  -14.7630   19.9390 C   0  0  0  0  0  0  0  0  0  0  0  0
  -30.3700  -12.4770   18.9410 C   0  0  0  0  0  2  0  0  0  0  0  0
  -29.3640  -12.5480   17.7690 C   0  0  0  0  0  2  0  0  0  0  0  0
  -27.9220  -12.3920   18.2900 C   0  0  0  0  0  2  0  0  0  0  0  0
  -27.6340  -13.2880   19.5240 C   0  0  0  0  0  3  0  0  0  0  0  0
  -28.7570  -13.2000   20.5790 C   0  0  0  0  0  2  0  0  0  0  0  0
  -30.0140  -13.5470   19.9070 N   0  0  0  0  0  0  0  0  0  0  0  0
  -31.8070  -14.8330   19.4470 O   0  0  0  0  0  0  0  0  0  0  0  0
  -29.4360  -17.9260   21.6330 C   0  0  0  0  0  2  0  0  0  0  0  0
  -29.9340  -16.4510   21.6390 C   0  0  0  0  0  2  0  0  0  0  0  0
  -29.8740  -17.2200   19.4330 C   0  0  0  0  0  2  0  0  0  0  0  0
  -29.9070  -18.5620   20.3180 C   0  0  0  0  0  3  0  0  0  0  0  0
  -29.9730  -15.9390   20.2580 N   0  0  0  0  0  0  0  0  0  0  0  0
  -25.3210  -13.9100   20.4370 C   0  0  0  0  0  0  0  0  0  0  0  0
  -24.2640  -13.1540   20.8600 C   0  0  0  0  0  0  0  0  0  0  0  0
  -24.6890  -11.7920   20.7620 C   0  0  0  0  0  0  0  0  0  0  0  0
  -26.3220  -13.0150   20.1020 N   0  0  0  0  0  0  0  0  0  0  0  0
  -25.9530  -11.7330   20.3610 N   0  0  0  0  0  0  0  0  0  0  0  0
  -23.9450  -10.5430   20.9720 C   0  0  0  0  0  0  0  0  0  0  0  0
  -24.4020   -9.5520   21.8680 C   0  0  0  0  0  3  0  0  0  0  0  0
  -23.6590   -8.3690   22.0680 C   0  0  0  0  0  3  0  0  0  0  0  0
  -22.4440   -8.1680   21.3690 C   0  0  0  0  0  0  0  0  0  0  0  0
  -22.0050   -9.1480   20.4620 C   0  0  0  0  0  3  0  0  0  0  0  0
  -22.7490  -10.3230   20.2620 C   0  0  0  0  0  3  0  0  0  0  0  0
  -21.6690   -7.0390   21.4800 O   0  0  0  0  0  0  0  0  0  0  0  0
  -21.6380   -6.2960   22.6320 C   0  0  0  0  0  0  0  0  0  0  0  0
  -21.2760   -6.8630   23.8740 C   0  0  0  0  0  3  0  0  0  0  0  0
  -21.1880   -6.0480   25.0210 C   0  0  0  0  0  3  0  0  0  0  0  0
  -21.4550   -4.6690   24.9260 C   0  0  0  0  0  0  0  0  0  0  0  0
  -21.8110   -4.1020   23.6900 C   0  0  0  0  0  3  0  0  0  0  0  0
  -21.9000   -4.9130   22.5460 C   0  0  0  0  0  0  0  0  0  0  0  0
  -22.2220   -4.3600   21.3520 F   0  0  0  0  0  0  0  0  0  0  0  0
  -21.3630   -3.8830   26.0260 F   0  0  0  0  0  0  0  0  0  0  0  0
  -22.9030  -13.6560   21.2420 C   0  0  0  0  0  0  0  0  0  0  0  0
  -22.2280  -12.9650   22.1530 N   0  0  0  0  0  0  0  0  0  0  0  0
  -22.4520  -14.7000   20.7710 O   0  0  0  0  0  0  0  0  0  0  0  0
  -22.6070  -12.1220   22.5570 H   0  0  0  0  0  0  0  0  0  0  0  0
  -21.3190  -13.2880   22.4540 H   0  0  0  0  0  0  0  0  0  0  0  0
  -25.5060  -15.2820   20.2870 N   0  0  0  0  0  0  0  0  0  0  0  0
  -24.7690  -15.9480   20.4890 H   0  0  0  0  0  0  0  0  0  0  0  0
  -26.3520  -15.7160   19.9420 H   0  0  0  0  0  0  0  0  0  0  0  0
  -28.3070  -26.2350   20.3000 O   0  0  0  0  0  0  0  0  0  0  0  0
  -24.5650  -31.8000   23.1710 C   0  0  0  0  0  0  0  0  0  0  0  0
  -27.2400  -27.1710   20.1930 C   0  0  0  0  0  0  0  0  0  0  0  0
  -23.4070  -30.3910   21.5100 C   0  0  0  0  0  3  0  0  0  0  0  0
  -24.8970  -28.8470   20.1070 C   0  0  0  0  0  0  0  0  0  0  0  0
  -25.9540  -30.7010   21.3880 C   0  0  0  0  0  2  0  0  0  0  0  0
  -26.0530  -29.3160   20.7440 C   0  0  0  0  0  0  0  0  0  0  0  0
  -27.2280  -28.4900   20.7760 C   0  0  0  0  0  3  0  0  0  0  0  0
  -26.0720  -26.8030   19.4880 C   0  0  0  0  0  3  0  0  0  0  0  0
  -24.9140  -27.6030   19.4610 C   0  0  0  0  0  3  0  0  0  0  0  0
  -23.6570  -29.7210   20.1330 C   0  0  0  0  0  2  0  0  0  0  0  0
  -24.6600  -30.9840   22.0790 N   0  0  0  0  0  0  0  0  0  0  0  0
  -23.4680  -32.0740   23.6780 O   0  0  0  0  0  0  0  0  0  0  0  0
  -22.7260  -29.3740   22.4560 C   0  0  0  0  0  0  0  0  0  0  0  0
  -21.4030  -29.1890   22.3040 N   0  0  0  0  0  0  0  0  0  0  0  0
  -23.3870  -28.7510   23.2920 O   0  0  0  0  0  0  0  0  0  0  0  0
  -20.9240  -29.7400   21.6040 H   0  0  0  0  0  0  0  0  0  0  0  0
  -18.0260  -27.9530   22.7280 C   0  0  0  0  0  0  0  0  0  0  0  0
  -20.5730  -28.2470   23.0600 C   0  0  0  0  0  3  0  0  0  0  0  0
  -20.7060  -26.8120   22.4950 C   0  0  0  0  0  2  0  0  0  0  0  0
  -19.6350  -26.4720   21.4540 C   0  0  0  0  0  2  0  0  0  0  0  0
  -18.2360  -26.6030   22.0640 C   0  0  0  0  0  2  0  0  0  0  0  0
  -19.1240  -28.7310   23.1820 C   0  0  0  0  0  0  0  0  0  0  0  0
  -18.8740  -29.9920   23.7650 C   0  0  0  0  0  3  0  0  0  0  0  0
  -17.5600  -30.4790   23.8930 C   0  0  0  0  0  3  0  0  0  0  0  0
  -16.4760  -29.6990   23.4550 C   0  0  0  0  0  3  0  0  0  0  0  0
  -16.7090  -28.4360   22.8820 C   0  0  0  0  0  3  0  0  0  0  0  0
  -25.8280  -32.4440   23.8200 C   0  0  0  0  0  3  0  0  0  0  0  0
  -25.5020  -33.8420   24.1410 N   0  0  0  0  0  0  0  0  0  0  0  0
  -25.8370  -34.8950   23.3850 C   0  0  0  0  0  0  0  0  0  0  0  0
  -26.5230  -34.7950   22.3640 O   0  0  0  0  0  0  0  0  0  0  0  0
  -24.8950  -33.9960   24.9330 H   0  0  0  0  0  0  0  0  0  0  0  0
  -24.0950  -36.6730   23.0100 C   0  0  0  0  0  1  0  0  0  0  0  0
  -25.3340  -36.2830   23.8330 C   0  0  0  0  0  3  0  0  0  0  0  0
  -27.4560  -37.1910   24.6740 C   0  0  0  0  0  1  0  0  0  0  0  0
  -26.3590  -37.3440   23.7220 N   0  0  0  0  0  0  0  0  0  0  0  0
  -25.9440  -38.2620   23.8630 H   0  0  0  0  0  0  0  0  0  0  0  0
  -26.3210  -31.6810   25.1110 C   0  0  1  0  0  0  0  0  0  0  0  0
  -25.2050  -31.4440   26.1550 C   0  0  0  0  0  1  0  0  0  0  0  0
  -26.9160  -30.3030   24.7410 C   0  0  0  0  0  1  0  0  0  0  0  0
  -27.4550  -32.4830   25.7920 C   0  0  0  0  0  1  0  0  0  0  0  0
  1  4  1  0
  1  3  1  0
  3  5  1  0
  3  2  1  0
  4 50  1  0
  4  2  1  0
  5  6  1  0
  7  5  1  0
  8  5  1  0
  9 21  1  0
 10 15  1  0
 11 12  1  0
 11 10  1  0
 13 12  1  0
 13 25  1  0
 13 14  1  0
 15  9  1  0
 15 14  1  0
 16  9  2  0
 17 18  1  0
 19 21  1  0
 19 20  1  0
 20  8  1  0
 20 17  1  0
 21 18  1  0
 22 23  2  0
 23 42  1  0
 24 23  1  0
 24 27  1  0
 25 26  1  0
 25 22  1  0
 26 24  2  0
 27 28  1  0
 28 29  2  0
 30 33  1  0
 30 29  1  0
 31 30  2  0
 32 31  1  0
 32 27  2  0
 33 34  1  0
 34 35  1  0
 35 36  2  0
 37 36  1  0
 37 41  1  0
 38 37  2  0
 39 34  2  0
 39 38  1  0
 40 39  1  0
 42 43  1  0
 43 46  1  0
 43 45  1  0
 44 42  2  0
 47 22  1  0
 47 48  1  0
 49 47  1  0
 51 62  2  0
 52 50  1  0
 52 57  1  0
 53 61  1  0
 53 63  1  0
 54 60  1  0
 54 56  1  0
 55 61  1  0
 56 57  2  0
 56 55  1  0
 58 52  2  0
 59 58  1  0
 59 54  2  0
 60 53  1  0
 61 51  1  0
 63 65  2  0
 64 63  1  0
 66 64  1  0
 67 76  2  0
 67 72  1  0
 68 64  1  0
 68 72  1  0
 69 68  1  0
 70 71  1  0
 70 69  1  0
 71 67  1  0
 72 73  2  0
 73 74  1  0
 75 74  2  0
 76 75  1  0
 77 51  1  0
 77 78  1  0
 77 87  1  0
 78 81  1  0
 79 83  1  0
 79 78  1  0
 80 79  2  0
 83 82  1  0
 85 83  1  0
 85 86  1  0
 85 84  1  0
 87 90  1  1
 87 88  1  0
 89 87  1  0
M  ISO  4   4 101   9 100  21 100  50 101
M  END
>  <TORSDO>  (67) 
F 18

>  <SCORE>  (67) 
-13.942

>  <name>  (67) 
66

>  <ligand_id>  (67) 
66

>  <original_smiles>  (67) 
[H]c1c([H])c([H])c2c(c1[H])C([H])([H])C([H])([H])C([H])([H])C2([H])N([H])C(=O)C1([H])N(C(=O)C([H])(N([H])C(=O)C([H])(N([H])C([H])([H])[H])C([H])([H])[H])C(C([H])([H])[H])(C([H])([H])[H])C([H])([H])[H])C([H])([H])c2c([H])c(OC3([H])C([H])([H])C([H])([N+]([H])([H])C([H])([H])C4([H])C([H])([H])N(C(=O)N5C([H])([H])C([H])([H])C([H])([H])C([H])(n6nc(-c7c([H])c([H])c(Oc8c([H])c([H])c(F)c([H])c8F)c([H])c7[H])c(C(=O)N([H])[H])c6N([H])[H])C5([H])[H])C([H])([H])C4([H])[H])C3([H])[H])c([H])c([H])c2C1([H])[H]

>  <smiles>  (67) 
[H]c1c([H])c([H])c2c(c1[H])C([H])([H])C([H])([H])C([H])([H])C2([H])N([H])C(=O)C1([H])N(C(=O)C([H])(N([H])C(=O)C([H])(N([H])C([H])([H])[H])C([H])([H])[H])C(C([H])([H])[H])(C([H])([H])[H])C([H])([H])[H])C([H])([H])c2c([H])c(OC3([H])C([H])([H])C([H])([N+]([H])([H])C([H])([H])C4([H])C([H])([H])N(C(=O)N5C([H])([H])C([H])([H])C([H])([H])C([H])(n6nc(-c7c([H])c([H])c(Oc8c([H])c([H])c(F)c([H])c8F)c([H])c7[H])c(C(=O)N([H])[H])c6N([H])[H])C5([H])[H])C([H])([H])C4([H])[H])C3([H])[H])c([H])c([H])c2C1([H])[H]

$$$$
67:0:0
     RDKit          3D

 96105  0  0  1  0  0  0  0  0999 V2000
  -27.5080  -21.9710   19.0030 C   0  0  0  0  0  3  0  0  0  0  0  0
  -28.4180  -21.4480   19.9540 C   0  0  0  0  0  0  0  0  0  0  0  0
  -28.8940  -23.6360   20.6150 C   0  0  0  0  0  0  0  0  0  0  0  0
  -28.0520  -24.1620   19.5840 C   0  0  0  0  0  0  0  0  0  0  0  0
  -27.3330  -23.3080   18.8090 N   0  0  0  0  0  0  0  0  0  0  0  0
  -29.0790  -22.2890   20.7950 N   0  0  0  0  0  0  0  0  0  0  0  0
  -29.6790  -24.5240   21.5750 C   0  0  0  0  0  2  0  0  0  0  0  0
  -29.6000  -25.8870   23.7450 C   0  0  0  0  0  1  0  0  0  0  0  0
  -28.8280  -24.9850   22.7740 C   0  0  0  0  0  2  0  0  0  0  0  0
  -28.7510  -19.9350   19.9680 C   0  0  0  0  0  2  0  0  0  0  0  0
  -29.4910  -19.4750   21.1680 N   0  0  0  0  0  4  0  0  0  0  0  0
  -30.1250  -20.2320   21.3700 H   0  0  0  0  0  0  0  0  0  0  0  0
  -28.8390  -19.4350   21.9350 H   0  0  0  0  0  0  0  0  0  0  0  0
  -31.0020  -14.7710   20.2180 C   0  0  0  0  0  0  0  0  0  0  0  0
  -30.6900  -12.5770   19.1010 C   0  0  0  0  0  2  0  0  0  0  0  0
  -29.7080  -12.7200   17.9190 C   0  0  0  0  0  2  0  0  0  0  0  0
  -28.2510  -12.5750   18.4020 C   0  0  0  0  0  2  0  0  0  0  0  0
  -27.9410  -13.4390   19.6550 C   0  0  0  0  0  3  0  0  0  0  0  0
  -29.0340  -13.2760   20.7330 C   0  0  0  0  0  2  0  0  0  0  0  0
  -30.3310  -13.5880   20.1110 N   0  0  0  0  0  0  0  0  0  0  0  0
  -32.0780  -14.9720   19.6440 O   0  0  0  0  0  0  0  0  0  0  0  0
  -30.5170  -17.6010   22.5000 C   0  0  0  0  0  2  0  0  0  0  0  0
  -31.0020  -16.1770   22.2070 C   0  0  0  0  0  2  0  0  0  0  0  0
  -29.7870  -16.9750   20.3200 C   0  0  0  0  0  2  0  0  0  0  0  0
  -30.2990  -18.2080   21.1190 C   0  0  0  0  0  3  0  0  0  0  0  0
  -30.3970  -15.7610   20.9330 N   0  0  0  0  0  0  0  0  0  0  0  0
  -25.5880  -14.0420   20.4960 C   0  0  0  0  0  0  0  0  0  0  0  0
  -24.5290  -13.2640   20.8840 C   0  0  0  0  0  0  0  0  0  0  0  0
  -24.9730  -11.9110   20.7820 C   0  0  0  0  0  0  0  0  0  0  0  0
  -26.6110  -13.1600   20.1860 N   0  0  0  0  0  0  0  0  0  0  0  0
  -26.2480  -11.8720   20.4160 N   0  0  0  0  0  0  0  0  0  0  0  0
  -24.2410  -10.6510   20.9610 C   0  0  0  0  0  0  0  0  0  0  0  0
  -24.6430   -9.6920   21.9180 C   0  0  0  0  0  3  0  0  0  0  0  0
  -23.9110   -8.4980   22.0840 C   0  0  0  0  0  3  0  0  0  0  0  0
  -22.7640   -8.2520   21.2920 C   0  0  0  0  0  0  0  0  0  0  0  0
  -22.3810   -9.1980   20.3250 C   0  0  0  0  0  3  0  0  0  0  0  0
  -23.1140  -10.3850   20.1570 C   0  0  0  0  0  3  0  0  0  0  0  0
  -22.0080   -7.1070   21.3660 O   0  0  0  0  0  0  0  0  0  0  0  0
  -21.8200   -6.4430   22.5530 C   0  0  0  0  0  0  0  0  0  0  0  0
  -21.2270   -7.0660   23.6740 C   0  0  0  0  0  3  0  0  0  0  0  0
  -20.9890   -6.3250   24.8480 C   0  0  0  0  0  3  0  0  0  0  0  0
  -21.3390   -4.9620   24.9030 C   0  0  0  0  0  0  0  0  0  0  0  0
  -21.9220   -4.3380   23.7870 C   0  0  0  0  0  3  0  0  0  0  0  0
  -22.1600   -5.0770   22.6150 C   0  0  0  0  0  0  0  0  0  0  0  0
  -22.7030   -4.4650   21.5350 F   0  0  0  0  0  0  0  0  0  0  0  0
  -21.1030   -4.2480   26.0260 F   0  0  0  0  0  0  0  0  0  0  0  0
  -23.1540  -13.7470   21.2390 C   0  0  0  0  0  0  0  0  0  0  0  0
  -22.4690  -13.0390   22.1310 N   0  0  0  0  0  0  0  0  0  0  0  0
  -22.6970  -14.7860   20.7630 O   0  0  0  0  0  0  0  0  0  0  0  0
  -22.8500  -12.1960   22.5350 H   0  0  0  0  0  0  0  0  0  0  0  0
  -21.5490  -13.3450   22.4130 H   0  0  0  0  0  0  0  0  0  0  0  0
  -25.7620  -15.4170   20.3630 N   0  0  0  0  0  0  0  0  0  0  0  0
  -25.0170  -16.0820   20.5420 H   0  0  0  0  0  0  0  0  0  0  0  0
  -26.6080  -15.8530   20.0240 H   0  0  0  0  0  0  0  0  0  0  0  0
  -28.1010  -25.6310   19.0740 C   0  0  0  0  0  2  0  0  0  0  0  0
  -27.8990  -26.7170   20.0060 O   0  0  0  0  0  0  0  0  0  0  0  0
  -24.4560  -32.0240   23.2500 C   0  0  0  0  0  0  0  0  0  0  0  0
  -26.7460  -27.4890   19.9970 C   0  0  0  0  0  0  0  0  0  0  0  0
  -23.1040  -30.6870   21.6660 C   0  0  0  0  0  3  0  0  0  0  0  0
  -24.4130  -29.1120   20.1360 C   0  0  0  0  0  0  0  0  0  0  0  0
  -25.6230  -30.9500   21.3240 C   0  0  0  0  0  2  0  0  0  0  0  0
  -25.6200  -29.5800   20.6690 C   0  0  0  0  0  0  0  0  0  0  0  0
  -26.7810  -28.7730   20.5990 C   0  0  0  0  0  3  0  0  0  0  0  0
  -25.5180  -27.0430   19.4540 C   0  0  0  0  0  3  0  0  0  0  0  0
  -24.3620  -27.8470   19.5230 C   0  0  0  0  0  3  0  0  0  0  0  0
  -23.2030  -30.0140   20.2690 C   0  0  0  0  0  2  0  0  0  0  0  0
  -24.4170  -31.2340   22.1370 N   0  0  0  0  0  0  0  0  0  0  0  0
  -23.4210  -32.3310   23.8580 O   0  0  0  0  0  0  0  0  0  0  0  0
  -22.4720  -29.6820   22.6570 C   0  0  0  0  0  0  0  0  0  0  0  0
  -21.1530  -29.4630   22.5300 N   0  0  0  0  0  0  0  0  0  0  0  0
  -23.1650  -29.1000   23.4950 O   0  0  0  0  0  0  0  0  0  0  0  0
  -20.6490  -29.9850   21.8260 H   0  0  0  0  0  0  0  0  0  0  0  0
  -17.8340  -28.0970   22.9590 C   0  0  0  0  0  0  0  0  0  0  0  0
  -20.3560  -28.5270   23.3260 C   0  0  0  0  0  3  0  0  0  0  0  0
  -20.5700  -27.0710   22.8540 C   0  0  0  0  0  2  0  0  0  0  0  0
  -19.5400  -26.6180   21.8140 C   0  0  0  0  0  2  0  0  0  0  0  0
  -18.1210  -26.7200   22.3810 C   0  0  0  0  0  2  0  0  0  0  0  0
  -18.8850  -28.9500   23.3870 C   0  0  0  0  0  0  0  0  0  0  0  0
  -18.5650  -30.2340   23.8830 C   0  0  0  0  0  3  0  0  0  0  0  0
  -17.2270  -30.6660   23.9540 C   0  0  0  0  0  3  0  0  0  0  0  0
  -16.1900  -29.8100   23.5410 C   0  0  0  0  0  3  0  0  0  0  0  0
  -16.4940  -28.5280   23.0510 C   0  0  0  0  0  3  0  0  0  0  0  0
  -25.8000  -32.6000   23.7960 C   0  0  0  0  0  3  0  0  0  0  0  0
  -25.5680  -34.0060   24.1550 N   0  0  0  0  0  0  0  0  0  0  0  0
  -25.9090  -35.0530   23.3920 C   0  0  0  0  0  0  0  0  0  0  0  0
  -26.5240  -34.9350   22.3280 O   0  0  0  0  0  0  0  0  0  0  0  0
  -25.0130  -34.1760   24.9810 H   0  0  0  0  0  0  0  0  0  0  0  0
  -24.2350  -36.9150   23.1460 C   0  0  0  0  0  1  0  0  0  0  0  0
  -25.5010  -36.4560   23.8860 C   0  0  0  0  0  3  0  0  0  0  0  0
  -27.7120  -37.2440   24.6070 C   0  0  0  0  0  1  0  0  0  0  0  0
  -26.5660  -37.4700   23.7290 N   0  0  0  0  0  0  0  0  0  0  0  0
  -26.2050  -38.4010   23.9200 H   0  0  0  0  0  0  0  0  0  0  0  0
  -26.3680  -31.7950   25.0290 C   0  0  1  0  0  0  0  0  0  0  0  0
  -25.3280  -31.5590   26.1480 C   0  0  0  0  0  1  0  0  0  0  0  0
  -26.8990  -30.4140   24.5830 C   0  0  0  0  0  1  0  0  0  0  0  0
  -27.5690  -32.5530   25.6430 C   0  0  0  0  0  1  0  0  0  0  0  0
  1  2  1  0
  2 10  1  0
  2  6  2  0
  3  6  1  0
  3  7  1  0
  4  3  2  0
  5  1  2  0
  5  4  1  0
  7  9  1  0
  9  8  1  0
 10 11  1  0
 11 12  1  0
 11 13  1  0
 14 26  1  0
 15 20  1  0
 16 17  1  0
 16 15  1  0
 18 17  1  0
 18 30  1  0
 18 19  1  0
 20 14  1  0
 20 19  1  0
 21 14  2  0
 23 22  1  0
 24 26  1  0
 24 25  1  0
 25 11  1  0
 25 22  1  0
 26 23  1  0
 27 28  2  0
 28 47  1  0
 29 28  1  0
 29 32  1  0
 30 31  1  0
 30 27  1  0
 31 29  2  0
 32 33  1  0
 33 34  2  0
 35 38  1  0
 35 34  1  0
 36 35  2  0
 37 36  1  0
 37 32  2  0
 38 39  1  0
 39 44  2  0
 39 40  1  0
 40 41  2  0
 41 42  1  0
 42 46  1  0
 43 42  2  0
 44 43  1  0
 45 44  1  0
 47 48  1  0
 48 51  1  0
 48 50  1  0
 49 47  2  0
 52 27  1  0
 52 53  1  0
 54 52  1  0
 55  4  1  0
 55 56  1  0
 57 68  2  0
 58 56  1  0
 58 63  1  0
 59 67  1  0
 59 69  1  0
 60 66  1  0
 60 62  1  0
 61 67  1  0
 62 61  1  0
 63 62  2  0
 64 65  1  0
 64 58  2  0
 65 60  2  0
 66 59  1  0
 67 57  1  0
 69 71  2  0
 70 69  1  0
 72 70  1  0
 73 82  2  0
 73 78  1  0
 74 70  1  0
 74 78  1  0
 75 74  1  0
 76 77  1  0
 76 75  1  0
 77 73  1  0
 78 79  2  0
 79 80  1  0
 81 80  2  0
 82 81  1  0
 83 57  1  0
 83 84  1  0
 83 93  1  0
 84 87  1  0
 85 89  1  0
 85 84  1  0
 86 85  2  0
 89 88  1  0
 91 89  1  0
 91 92  1  0
 91 90  1  0
 93 96  1  1
 93 94  1  0
 95 93  1  0
M  ISO  4  14 100  26 100  55 101  56 101
M  END
>  <TORSDO>  (68) 
F 21

>  <SCORE>  (68) 
-13.009

>  <name>  (68) 
67

>  <ligand_id>  (68) 
67

>  <original_smiles>  (68) 
[H]c1nc(C([H])([H])Oc2c([H])c([H])c3c(c2[H])C([H])([H])N(C(=O)C([H])(N([H])C(=O)C([H])(N([H])C([H])([H])[H])C([H])([H])[H])C(C([H])([H])[H])(C([H])([H])[H])C([H])([H])[H])C([H])(C(=O)N([H])C2([H])c4c([H])c([H])c([H])c([H])c4C([H])([H])C([H])([H])C2([H])[H])C3([H])[H])c(C([H])([H])C([H])([H])C([H])([H])[H])nc1C([H])([H])[N+]([H])([H])C1([H])C([H])([H])N(C(=O)N2C([H])([H])C([H])([H])C([H])([H])C([H])(n3nc(-c4c([H])c([H])c(Oc5c([H])c([H])c(F)c([H])c5F)c([H])c4[H])c(C(=O)N([H])[H])c3N([H])[H])C2([H])[H])C([H])([H])C1([H])[H]

>  <smiles>  (68) 
[H]c1nc(C([H])([H])Oc2c([H])c([H])c3c(c2[H])C([H])([H])N(C(=O)C([H])(N([H])C(=O)C([H])(N([H])C([H])([H])[H])C([H])([H])[H])C(C([H])([H])[H])(C([H])([H])[H])C([H])([H])[H])C([H])(C(=O)N([H])C2([H])c4c([H])c([H])c([H])c([H])c4C([H])([H])C([H])([H])C2([H])[H])C3([H])[H])c(C([H])([H])C([H])([H])C([H])([H])[H])nc1C([H])([H])[N+]([H])([H])C1([H])C([H])([H])N(C(=O)N2C([H])([H])C([H])([H])C([H])([H])C([H])(n3nc(-c4c([H])c([H])c(Oc5c([H])c([H])c(F)c([H])c5F)c([H])c4[H])c(C(=O)N([H])[H])c3N([H])[H])C2([H])[H])C([H])([H])C1([H])[H]

$$$$
68:0:0
     RDKit          3D

 89 98  0  0  1  0  0  0  0  0999 V2000
  -29.5530  -22.1370   21.5000 C   0  0  0  0  0  0  0  0  0  0  0  0
  -29.8820  -20.7650   21.4430 C   0  0  0  0  0  0  0  0  0  0  0  0
  -28.7120  -22.5140   20.3800 C   0  0  0  0  0  0  0  0  0  0  0  0
  -30.8470  -19.8660   22.1350 C   0  0  0  0  0  2  0  0  0  0  0  0
  -31.2020  -18.7220   21.1330 C   0  0  0  0  0  2  0  0  0  0  0  0
  -30.0190  -18.4910   20.1410 C   0  0  0  0  0  3  0  0  0  0  0  0
  -30.0550  -23.0990   22.5440 C   0  0  0  0  0  1  0  0  0  0  0  0
  -28.6390  -21.1780   19.7410 N   0  0  0  0  0  0  0  0  0  0  0  0
  -29.3050  -20.0270   20.4350 N   0  0  0  0  0  0  0  0  0  0  0  0
  -30.3690  -15.4970   20.2100 C   0  0  0  0  0  0  0  0  0  0  0  0
  -30.3720  -13.0130   19.3560 C   0  0  0  0  0  2  0  0  0  0  0  0
  -29.4470  -12.7190   18.1460 C   0  0  0  0  0  2  0  0  0  0  0  0
  -28.0190  -12.4070   18.6160 C   0  0  0  0  0  2  0  0  0  0  0  0
  -27.5540  -13.3890   19.7170 C   0  0  0  0  0  3  0  0  0  0  0  0
  -28.6110  -13.6180   20.8220 C   0  0  0  0  0  2  0  0  0  0  0  0
  -29.8060  -14.1720   20.1610 N   0  0  0  0  0  0  0  0  0  0  0  0
  -31.5880  -15.4520   19.9770 O   0  0  0  0  0  0  0  0  0  0  0  0
  -29.6460  -16.8280   20.3220 N   0  0  0  0  0  0  0  0  0  0  0  0
  -28.6580  -16.6910   20.4800 H   0  0  0  0  0  0  0  0  0  0  0  0
  -25.1990  -13.9210   20.5240 C   0  0  0  0  0  0  0  0  0  0  0  0
  -24.1470  -13.1350   20.8950 C   0  0  0  0  0  0  0  0  0  0  0  0
  -24.6190  -11.7880   20.8400 C   0  0  0  0  0  0  0  0  0  0  0  0
  -26.2410  -13.0550   20.2500 N   0  0  0  0  0  0  0  0  0  0  0  0
  -25.9070  -11.7630   20.5110 N   0  0  0  0  0  0  0  0  0  0  0  0
  -23.8980  -10.5200   21.0240 C   0  0  0  0  0  0  0  0  0  0  0  0
  -24.3270   -9.5540   21.9600 C   0  0  0  0  0  3  0  0  0  0  0  0
  -23.6020   -8.3550   22.1340 C   0  0  0  0  0  3  0  0  0  0  0  0
  -22.4340   -8.1140   21.3720 C   0  0  0  0  0  0  0  0  0  0  0  0
  -22.0230   -9.0700   20.4270 C   0  0  0  0  0  3  0  0  0  0  0  0
  -22.7490  -10.2590   20.2500 C   0  0  0  0  0  3  0  0  0  0  0  0
  -21.6820   -6.9670   21.4560 O   0  0  0  0  0  0  0  0  0  0  0  0
  -21.6090   -6.2360   22.6150 C   0  0  0  0  0  0  0  0  0  0  0  0
  -21.1350   -6.7980   23.8200 C   0  0  0  0  0  3  0  0  0  0  0  0
  -21.0100   -5.9920   24.9700 C   0  0  0  0  0  3  0  0  0  0  0  0
  -21.3500   -4.6270   24.9150 C   0  0  0  0  0  0  0  0  0  0  0  0
  -21.8170   -4.0660   23.7140 C   0  0  0  0  0  3  0  0  0  0  0  0
  -21.9430   -4.8680   22.5670 C   0  0  0  0  0  0  0  0  0  0  0  0
  -22.3740   -4.3170   21.4060 F   0  0  0  0  0  0  0  0  0  0  0  0
  -21.2230   -3.8520   26.0180 F   0  0  0  0  0  0  0  0  0  0  0  0
  -22.7520  -13.6050   21.1860 C   0  0  0  0  0  0  0  0  0  0  0  0
  -22.0360  -12.9000   22.0540 N   0  0  0  0  0  0  0  0  0  0  0  0
  -22.3070  -14.6340   20.6790 O   0  0  0  0  0  0  0  0  0  0  0  0
  -22.4100  -12.0680   22.4850 H   0  0  0  0  0  0  0  0  0  0  0  0
  -21.1010  -13.1990   22.2940 H   0  0  0  0  0  0  0  0  0  0  0  0
  -25.3530  -15.2950   20.3640 N   0  0  0  0  0  0  0  0  0  0  0  0
  -24.5860  -15.9430   20.5170 H   0  0  0  0  0  0  0  0  0  0  0  0
  -26.1890  -15.7470   20.0180 H   0  0  0  0  0  0  0  0  0  0  0  0
  -27.9290  -24.1070   19.9890 C   0  0  0  0  0  2  0  0  0  0  0  0
  -28.1730  -25.7470   20.3460 O   0  0  0  0  0  0  0  0  0  0  0  0
  -24.6590  -31.8820   23.2520 C   0  0  0  0  0  0  0  0  0  0  0  0
  -27.2010  -26.9110   20.2520 C   0  0  0  0  0  0  0  0  0  0  0  0
  -23.4690  -30.4880   21.6110 C   0  0  0  0  0  3  0  0  0  0  0  0
  -24.9190  -28.8620   20.1940 C   0  0  0  0  0  0  0  0  0  0  0  0
  -26.0420  -30.6620   21.4830 C   0  0  0  0  0  2  0  0  0  0  0  0
  -26.1070  -29.2430   20.8270 C   0  0  0  0  0  0  0  0  0  0  0  0
  -27.2370  -28.2890   20.8320 C   0  0  0  0  0  3  0  0  0  0  0  0
  -25.9830  -26.7140   19.5590 C   0  0  0  0  0  3  0  0  0  0  0  0
  -24.8870  -27.6220   19.5370 C   0  0  0  0  0  3  0  0  0  0  0  0
  -23.7050  -29.7990   20.2370 C   0  0  0  0  0  2  0  0  0  0  0  0
  -24.7460  -31.0400   22.1690 N   0  0  0  0  0  0  0  0  0  0  0  0
  -23.5680  -32.1800   23.7650 O   0  0  0  0  0  0  0  0  0  0  0  0
  -22.7600  -29.5030   22.5770 C   0  0  0  0  0  0  0  0  0  0  0  0
  -21.4280  -29.3460   22.4470 N   0  0  0  0  0  0  0  0  0  0  0  0
  -23.4150  -28.8780   23.4150 O   0  0  0  0  0  0  0  0  0  0  0  0
  -20.9500  -29.9010   21.7520 H   0  0  0  0  0  0  0  0  0  0  0  0
  -18.0400  -28.1400   22.9470 C   0  0  0  0  0  0  0  0  0  0  0  0
  -20.6000  -28.4120   23.2180 C   0  0  0  0  0  3  0  0  0  0  0  0
  -20.7030  -26.9760   22.6500 C   0  0  0  0  0  2  0  0  0  0  0  0
  -19.6060  -26.6500   21.6320 C   0  0  0  0  0  2  0  0  0  0  0  0
  -18.2210  -26.7930   22.2690 C   0  0  0  0  0  2  0  0  0  0  0  0
  -19.1560  -28.9070   23.3790 C   0  0  0  0  0  0  0  0  0  0  0  0
  -18.9300  -30.1650   23.9760 C   0  0  0  0  0  3  0  0  0  0  0  0
  -17.6230  -30.6600   24.1450 C   0  0  0  0  0  3  0  0  0  0  0  0
  -16.5210  -29.8910   23.7260 C   0  0  0  0  0  3  0  0  0  0  0  0
  -16.7310  -28.6340   23.1340 C   0  0  0  0  0  3  0  0  0  0  0  0
  -25.9270  -32.5250   23.8920 C   0  0  0  0  0  3  0  0  0  0  0  0
  -25.6110  -33.9270   24.2220 N   0  0  0  0  0  0  0  0  0  0  0  0
  -25.9250  -34.9860   23.4640 C   0  0  0  0  0  0  0  0  0  0  0  0
  -26.5720  -34.8850   22.4180 O   0  0  0  0  0  0  0  0  0  0  0  0
  -25.0310  -34.0770   25.0350 H   0  0  0  0  0  0  0  0  0  0  0  0
  -24.1730  -36.7750   23.1840 C   0  0  0  0  0  1  0  0  0  0  0  0
  -25.4520  -36.3770   23.9370 C   0  0  0  0  0  3  0  0  0  0  0  0
  -27.6140  -37.2850   24.6710 C   0  0  0  0  0  1  0  0  0  0  0  0
  -26.4710  -37.4360   23.7720 N   0  0  0  0  0  0  0  0  0  0  0  0
  -26.0660  -38.3540   23.9290 H   0  0  0  0  0  0  0  0  0  0  0  0
  -26.4180  -31.7650   25.1860 C   0  0  1  0  0  0  0  0  0  0  0  0
  -25.3070  -31.5460   26.2410 C   0  0  0  0  0  1  0  0  0  0  0  0
  -26.9990  -30.3780   24.8280 C   0  0  0  0  0  1  0  0  0  0  0  0
  -27.5650  -32.5590   25.8540 C   0  0  0  0  0  1  0  0  0  0  0  0
  1  7  1  0
  2  1  2  0
  2  4  1  0
  3  1  1  0
  5  4  1  0
  6 18  1  0
  6  9  1  0
  6  5  1  0
  8  3  2  0
  8  9  1  0
  9  2  1  0
 10 18  1  0
 11 16  1  0
 12 13  1  0
 12 11  1  0
 14 13  1  0
 14 23  1  0
 14 15  1  0
 16 10  1  0
 16 15  1  0
 17 10  2  0
 18 19  1  0
 20 21  2  0
 21 40  1  0
 22 21  1  0
 22 25  1  0
 23 24  1  0
 23 20  1  0
 24 22  2  0
 25 26  1  0
 26 27  2  0
 28 31  1  0
 28 27  1  0
 29 28  2  0
 30 29  1  0
 30 25  2  0
 31 32  1  0
 32 33  1  0
 33 34  2  0
 35 34  1  0
 35 39  1  0
 36 35  2  0
 37 32  2  0
 37 36  1  0
 38 37  1  0
 40 41  1  0
 41 44  1  0
 41 43  1  0
 42 40  2  0
 45 46  1  0
 45 20  1  0
 47 45  1  0
 48 49  1  0
 48  3  1  0
 50 61  2  0
 51 49  1  0
 51 56  1  0
 52 60  1  0
 52 62  1  0
 53 59  1  0
 53 55  1  0
 54 60  1  0
 55 56  2  0
 55 54  1  0
 57 51  2  0
 58 57  1  0
 58 53  2  0
 59 52  1  0
 60 50  1  0
 62 64  2  0
 63 62  1  0
 65 63  1  0
 66 75  2  0
 66 71  1  0
 67 63  1  0
 67 71  1  0
 68 67  1  0
 69 70  1  0
 69 68  1  0
 70 66  1  0
 71 72  2  0
 72 73  1  0
 74 73  2  0
 75 74  1  0
 76 50  1  0
 76 77  1  0
 76 86  1  0
 77 80  1  0
 78 82  1  0
 78 77  1  0
 79 78  2  0
 82 81  1  0
 84 85  1  0
 84 82  1  0
 84 83  1  0
 86 89  1  1
 86 87  1  0
 88 86  1  0
M  ISO  4  10 100  18 100  48 101  49 101
M  END
>  <TORSDO>  (69) 
F 17

>  <SCORE>  (69) 
-16.985

>  <name>  (69) 
68

>  <ligand_id>  (69) 
68

>  <original_smiles>  (69) 
[H]c1c([H])c([H])c2c(c1[H])C([H])([H])C([H])([H])C([H])([H])C2([H])N([H])C(=O)C1([H])N(C(=O)C([H])(N([H])C(=O)C([H])(N([H])C([H])([H])[H])C([H])([H])[H])C(C([H])([H])[H])(C([H])([H])[H])C([H])([H])[H])C([H])([H])c2c([H])c(OC([H])([H])c3nn4c(c3C([H])([H])[H])C([H])([H])C([H])([H])C4([H])N([H])C(=O)N3C([H])([H])C([H])([H])C([H])([H])C([H])(n4nc(-c5c([H])c([H])c(Oc6c([H])c([H])c(F)c([H])c6F)c([H])c5[H])c(C(=O)N([H])[H])c4N([H])[H])C3([H])[H])c([H])c([H])c2C1([H])[H]

>  <smiles>  (69) 
[H]c1c([H])c([H])c2c(c1[H])C([H])([H])C([H])([H])C([H])([H])C2([H])N([H])C(=O)C1([H])N(C(=O)C([H])(N([H])C(=O)C([H])(N([H])C([H])([H])[H])C([H])([H])[H])C(C([H])([H])[H])(C([H])([H])[H])C([H])([H])[H])C([H])([H])c2c([H])c(OC([H])([H])c3nn4c(c3C([H])([H])[H])C([H])([H])C([H])([H])C4([H])N([H])C(=O)N3C([H])([H])C([H])([H])C([H])([H])C([H])(n4nc(-c5c([H])c([H])c(Oc6c([H])c([H])c(F)c([H])c6F)c([H])c5[H])c(C(=O)N([H])[H])c4N([H])[H])C3([H])[H])c([H])c([H])c2C1([H])[H]

$$$$
69:0:0
     RDKit          3D

 92102  0  0  1  0  0  0  0  0999 V2000
  -29.1020  -22.0590   22.0040 C   0  0  0  0  0  3  0  0  0  0  0  0
  -29.0920  -23.3540   22.5810 C   0  0  0  0  0  0  0  0  0  0  0  0
  -28.7810  -21.8560   20.6550 C   0  0  0  0  0  3  0  0  0  0  0  0
  -28.3950  -24.4420   20.6110 C   0  0  0  0  0  0  0  0  0  0  0  0
  -28.7190  -24.4880   21.9080 N   0  0  0  0  0  0  0  0  0  0  0  0
  -28.4680  -23.1290   19.9860 N   0  0  0  0  0  0  0  0  0  0  0  0
  -28.8720  -20.4080   20.0980 N   0  0  0  0  0  0  0  0  0  0  0  0
  -28.6730  -20.4110   19.1010 H   0  0  0  0  0  0  0  0  0  0  0  0
  -30.3580  -15.2500   20.0640 C   0  0  0  0  0  0  0  0  0  0  0  0
  -30.2980  -12.7850   19.2020 C   0  0  0  0  0  2  0  0  0  0  0  0
  -29.3580  -12.5460   17.9960 C   0  0  0  0  0  2  0  0  0  0  0  0
  -27.9250  -12.2610   18.4760 C   0  0  0  0  0  2  0  0  0  0  0  0
  -27.5000  -13.2170   19.6210 C   0  0  0  0  0  3  0  0  0  0  0  0
  -28.5780  -13.4170   20.7070 C   0  0  0  0  0  2  0  0  0  0  0  0
  -29.7750  -13.9400   20.0310 N   0  0  0  0  0  0  0  0  0  0  0  0
  -31.5470  -15.2140   19.7100 O   0  0  0  0  0  0  0  0  0  0  0  0
  -28.6310  -17.4930   19.8720 C   0  0  0  0  0  2  0  0  0  0  0  0
  -30.4340  -17.9560   20.6150 C   0  0  0  0  0  2  0  0  0  0  0  0
  -29.0720  -18.8640   20.6680 C   0  0  0  0  0  3  0  0  0  0  0  0
  -29.7460  -16.5670   20.4300 N   0  0  0  0  0  0  0  0  0  0  0  0
  -25.1720  -13.7320   20.5190 C   0  0  0  0  0  0  0  0  0  0  0  0
  -24.1330  -12.9390   20.9190 C   0  0  0  0  0  0  0  0  0  0  0  0
  -24.6010  -11.5910   20.8090 C   0  0  0  0  0  0  0  0  0  0  0  0
  -26.2020  -12.8740   20.1840 N   0  0  0  0  0  0  0  0  0  0  0  0
  -25.8740  -11.5760   20.4260 N   0  0  0  0  0  0  0  0  0  0  0  0
  -23.8850  -10.3190   20.9880 C   0  0  0  0  0  0  0  0  0  0  0  0
  -24.3520   -9.3250   21.8760 C   0  0  0  0  0  3  0  0  0  0  0  0
  -23.6330   -8.1240   22.0540 C   0  0  0  0  0  3  0  0  0  0  0  0
  -22.4300   -7.9060   21.3440 C   0  0  0  0  0  0  0  0  0  0  0  0
  -21.9790   -8.8910   20.4470 C   0  0  0  0  0  3  0  0  0  0  0  0
  -22.6990  -10.0830   20.2670 C   0  0  0  0  0  3  0  0  0  0  0  0
  -21.6810   -6.7580   21.4290 O   0  0  0  0  0  0  0  0  0  0  0  0
  -21.6800   -5.9770   22.5570 C   0  0  0  0  0  0  0  0  0  0  0  0
  -21.2660   -6.4810   23.8100 C   0  0  0  0  0  3  0  0  0  0  0  0
  -21.2090   -5.6230   24.9300 C   0  0  0  0  0  3  0  0  0  0  0  0
  -21.5660   -4.2690   24.8010 C   0  0  0  0  0  0  0  0  0  0  0  0
  -21.9730   -3.7660   23.5540 C   0  0  0  0  0  3  0  0  0  0  0  0
  -22.0290   -4.6160   22.4370 C   0  0  0  0  0  0  0  0  0  0  0  0
  -22.4010   -4.1150   21.2320 F   0  0  0  0  0  0  0  0  0  0  0  0
  -21.5080   -3.4500   25.8790 F   0  0  0  0  0  0  0  0  0  0  0  0
  -22.7500  -13.4050   21.2800 C   0  0  0  0  0  0  0  0  0  0  0  0
  -22.0690  -12.6870   22.1630 N   0  0  0  0  0  0  0  0  0  0  0  0
  -22.2850  -14.4430   20.8140 O   0  0  0  0  0  0  0  0  0  0  0  0
  -22.4680  -11.8530   22.5680 H   0  0  0  0  0  0  0  0  0  0  0  0
  -21.1480  -12.9860   22.4400 H   0  0  0  0  0  0  0  0  0  0  0  0
  -25.3270  -15.1100   20.3790 N   0  0  0  0  0  0  0  0  0  0  0  0
  -24.5840  -15.7720   20.5740 H   0  0  0  0  0  0  0  0  0  0  0  0
  -26.1670  -15.5440   20.0100 H   0  0  0  0  0  0  0  0  0  0  0  0
  -31.0180  -22.9230   24.3030 C   0  0  0  0  0  2  0  0  0  0  0  0
  -29.7750  -22.5110   25.0640 C   0  0  0  0  0  2  0  0  0  0  0  0
  -29.6810  -23.5700   23.9770 C   0  0  0  0  0  3  0  0  0  0  0  0
  -28.3210  -25.7990   19.9470 O   0  0  0  0  0  0  0  0  0  0  0  0
  -24.6560  -31.6450   23.1030 C   0  0  0  0  0  0  0  0  0  0  0  0
  -27.2820  -26.8720   20.0210 C   0  0  0  0  0  0  0  0  0  0  0  0
  -23.4710  -30.2770   21.4330 C   0  0  0  0  0  3  0  0  0  0  0  0
  -24.9490  -28.7270   19.9650 C   0  0  0  0  0  0  0  0  0  0  0  0
  -26.0340  -30.5370   21.2760 C   0  0  0  0  0  2  0  0  0  0  0  0
  -26.1320  -29.1430   20.5950 C   0  0  0  0  0  0  0  0  0  0  0  0
  -27.2920  -28.2420   20.5930 C   0  0  0  0  0  3  0  0  0  0  0  0
  -26.0740  -26.6290   19.3140 C   0  0  0  0  0  3  0  0  0  0  0  0
  -24.9500  -27.4970   19.2930 C   0  0  0  0  0  3  0  0  0  0  0  0
  -23.7130  -29.6290   20.0400 C   0  0  0  0  0  2  0  0  0  0  0  0
  -24.7410  -30.8440   21.9930 N   0  0  0  0  0  0  0  0  0  0  0  0
  -23.5680  -31.9030   23.6450 O   0  0  0  0  0  0  0  0  0  0  0  0
  -22.8000  -29.2400   22.3740 C   0  0  0  0  0  0  0  0  0  0  0  0
  -21.4730  -29.0350   22.2390 N   0  0  0  0  0  0  0  0  0  0  0  0
  -23.4800  -28.6210   23.1950 O   0  0  0  0  0  0  0  0  0  0  0  0
  -20.9760  -29.5860   21.5550 H   0  0  0  0  0  0  0  0  0  0  0  0
  -18.1400  -27.6750   22.6880 C   0  0  0  0  0  0  0  0  0  0  0  0
  -20.6810  -28.0540   22.9930 C   0  0  0  0  0  3  0  0  0  0  0  0
  -20.8540  -26.6310   22.4150 C   0  0  0  0  0  2  0  0  0  0  0  0
  -19.7860  -26.2650   21.3790 C   0  0  0  0  0  2  0  0  0  0  0  0
  -18.3900  -26.3420   22.0030 C   0  0  0  0  0  2  0  0  0  0  0  0
  -19.2160  -28.4850   23.1390 C   0  0  0  0  0  0  0  0  0  0  0  0
  -18.9290  -29.7290   23.7410 C   0  0  0  0  0  3  0  0  0  0  0  0
  -17.5980  -30.1650   23.8930 C   0  0  0  0  0  3  0  0  0  0  0  0
  -16.5360  -29.3510   23.4590 C   0  0  0  0  0  3  0  0  0  0  0  0
  -16.8080  -28.1080   22.8590 C   0  0  0  0  0  3  0  0  0  0  0  0
  -25.9260  -32.2910   23.7370 C   0  0  0  0  0  3  0  0  0  0  0  0
  -25.5820  -33.6710   24.1270 N   0  0  0  0  0  0  0  0  0  0  0  0
  -25.8820  -34.7650   23.4130 C   0  0  0  0  0  0  0  0  0  0  0  0
  -26.5450  -34.7200   22.3710 O   0  0  0  0  0  0  0  0  0  0  0  0
  -24.9800  -33.7730   24.9300 H   0  0  0  0  0  0  0  0  0  0  0  0
  -24.1210  -36.5490   23.1510 C   0  0  0  0  0  1  0  0  0  0  0  0
  -25.3750  -36.1280   23.9350 C   0  0  0  0  0  3  0  0  0  0  0  0
  -27.5020  -37.0100   24.7950 C   0  0  0  0  0  1  0  0  0  0  0  0
  -26.3920  -37.2030   23.8630 N   0  0  0  0  0  0  0  0  0  0  0  0
  -25.9720  -38.1090   24.0500 H   0  0  0  0  0  0  0  0  0  0  0  0
  -26.4640  -31.4900   24.9880 C   0  0  1  0  0  0  0  0  0  0  0  0
  -25.3760  -31.2090   26.0520 C   0  0  0  0  0  1  0  0  0  0  0  0
  -27.0730  -30.1310   24.5660 C   0  0  0  0  0  1  0  0  0  0  0  0
  -27.6130  -32.2760   25.6630 C   0  0  0  0  0  1  0  0  0  0  0  0
  1  2  2  0
  2 51  1  0
  3  7  1  0
  3  1  1  0
  4  5  2  0
  5  2  1  0
  6  4  2  0
  6  3  1  0
  8  7  1  0
  9 20  1  0
 10 15  1  0
 11 12  1  0
 11 10  1  0
 13 12  1  0
 13 24  1  0
 13 14  1  0
 15  9  1  0
 15 14  1  0
 16  9  2  0
 17 20  1  0
 17 19  1  0
 18 19  1  0
 19  7  1  0
 20 18  1  0
 21 22  2  0
 22 41  1  0
 23 22  1  0
 23 26  1  0
 24 25  1  0
 24 21  1  0
 25 23  2  0
 26 27  1  0
 27 28  2  0
 29 32  1  0
 29 28  1  0
 30 29  2  0
 31 30  1  0
 31 26  2  0
 32 33  1  0
 33 34  1  0
 34 35  2  0
 36 35  1  0
 36 40  1  0
 37 36  2  0
 38 33  2  0
 38 37  1  0
 39 38  1  0
 41 42  1  0
 42 45  1  0
 42 44  1  0
 43 41  2  0
 46 21  1  0
 46 47  1  0
 48 46  1  0
 49 50  1  0
 51 49  1  0
 51 50  1  0
 52 54  1  0
 52  4  1  0
 53 64  2  0
 54 59  1  0
 55 63  1  0
 55 65  1  0
 56 62  1  0
 56 58  1  0
 57 63  1  0
 58 57  1  0
 59 58  2  0
 60 54  2  0
 61 60  1  0
 61 56  2  0
 62 55  1  0
 63 53  1  0
 65 67  2  0
 66 65  1  0
 68 66  1  0
 69 78  2  0
 69 74  1  0
 70 66  1  0
 70 74  1  0
 71 70  1  0
 72 73  1  0
 72 71  1  0
 73 69  1  0
 74 75  2  0
 75 76  1  0
 77 76  2  0
 78 77  1  0
 79 53  1  0
 79 80  1  0
 79 89  1  0
 80 83  1  0
 81 85  1  0
 81 80  1  0
 82 81  2  0
 85 84  1  0
 87 85  1  0
 87 88  1  0
 87 86  1  0
 89 92  1  1
 89 90  1  0
 91 89  1  0
M  ISO  4   4 101   9 100  20 100  52 101
M  END
>  <TORSDO>  (70) 
F 17

>  <SCORE>  (70) 
-12.864

>  <name>  (70) 
69

>  <ligand_id>  (70) 
69

>  <original_smiles>  (70) 
[H]c1c(N([H])C2([H])C([H])([H])N(C(=O)N3C([H])([H])C([H])([H])C([H])([H])C([H])(n4nc(-c5c([H])c([H])c(Oc6c([H])c([H])c(F)c([H])c6F)c([H])c5[H])c(C(=O)N([H])[H])c4N([H])[H])C3([H])[H])C2([H])[H])nc(Oc2c([H])c([H])c3c(c2[H])C([H])([H])N(C(=O)C([H])(N([H])C(=O)C([H])(N([H])C([H])([H])[H])C([H])([H])[H])C(C([H])([H])[H])(C([H])([H])[H])C([H])([H])[H])C([H])(C(=O)N([H])C2([H])c4c([H])c([H])c([H])c([H])c4C([H])([H])C([H])([H])C2([H])[H])C3([H])[H])nc1C1([H])C([H])([H])C1([H])[H]

>  <smiles>  (70) 
[H]c1c(N([H])C2([H])C([H])([H])N(C(=O)N3C([H])([H])C([H])([H])C([H])([H])C([H])(n4nc(-c5c([H])c([H])c(Oc6c([H])c([H])c(F)c([H])c6F)c([H])c5[H])c(C(=O)N([H])[H])c4N([H])[H])C3([H])[H])C2([H])[H])nc(Oc2c([H])c([H])c3c(c2[H])C([H])([H])N(C(=O)C([H])(N([H])C(=O)C([H])(N([H])C([H])([H])[H])C([H])([H])[H])C(C([H])([H])[H])(C([H])([H])[H])C([H])([H])[H])C([H])(C(=O)N([H])C2([H])c4c([H])c([H])c([H])c([H])c4C([H])([H])C([H])([H])C2([H])[H])C3([H])[H])nc1C1([H])C([H])([H])C1([H])[H]

$$$$
70:0:0
     RDKit          3D

 96105  0  0  1  0  0  0  0  0999 V2000
  -30.3560  -21.9630   18.3550 C   0  0  0  0  0  2  0  0  0  0  0  0
  -30.6450  -20.9990   19.5310 C   0  0  0  0  0  2  0  0  0  0  0  0
  -28.3160  -21.6300   20.1070 C   0  0  0  0  0  2  0  0  0  0  0  0
  -29.7210  -23.3370   18.7420 C   0  0  0  0  0  3  0  0  0  0  0  0
  -28.8000  -23.2480   20.0040 C   0  0  0  0  0  3  0  0  0  0  0  0
  -29.4010  -20.4710   20.1560 N   0  0  1  0  0  4  0  0  0  0  0  0
  -29.6160  -20.4360   21.1410 H   0  0  0  0  0  0  0  0  0  0  0  0
  -29.9010  -24.0420   16.2550 C   0  0  0  0  0  1  0  0  0  0  0  0
  -29.0170  -23.9580   17.5080 C   0  0  0  0  0  2  0  0  0  0  0  0
  -27.7620  -24.5900   20.1430 C   0  0  0  0  0  2  0  0  0  0  0  0
  -28.0740  -26.1290   20.0980 O   0  0  0  0  0  0  0  0  0  0  0  0
  -24.5600  -31.8730   23.1630 C   0  0  0  0  0  0  0  0  0  0  0  0
  -27.0290  -27.1300   20.0740 C   0  0  0  0  0  0  0  0  0  0  0  0
  -23.3160  -30.4900   21.5480 C   0  0  0  0  0  3  0  0  0  0  0  0
  -24.7210  -28.9080   20.0910 C   0  0  0  0  0  0  0  0  0  0  0  0
  -25.8710  -30.7310   21.3340 C   0  0  0  0  0  2  0  0  0  0  0  0
  -25.9170  -29.3380   20.6780 C   0  0  0  0  0  0  0  0  0  0  0  0
  -27.0740  -28.4670   20.6490 C   0  0  0  0  0  3  0  0  0  0  0  0
  -25.8060  -26.8120   19.4430 C   0  0  0  0  0  3  0  0  0  0  0  0
  -24.6790  -27.6600   19.4580 C   0  0  0  0  0  3  0  0  0  0  0  0
  -23.5030  -29.8170   20.1640 C   0  0  0  0  0  2  0  0  0  0  0  0
  -24.6040  -31.0530   22.0690 N   0  0  0  0  0  0  0  0  0  0  0  0
  -23.4870  -32.1660   23.7130 O   0  0  0  0  0  0  0  0  0  0  0  0
  -22.6490  -29.4850   22.5210 C   0  0  0  0  0  0  0  0  0  0  0  0
  -21.3190  -29.3150   22.4130 N   0  0  0  0  0  0  0  0  0  0  0  0
  -23.3300  -28.8630   23.3380 O   0  0  0  0  0  0  0  0  0  0  0  0
  -20.8250  -29.8690   21.7270 H   0  0  0  0  0  0  0  0  0  0  0  0
  -17.9440  -28.1160   22.9610 C   0  0  0  0  0  0  0  0  0  0  0  0
  -20.5050  -28.3820   23.1990 C   0  0  0  0  0  3  0  0  0  0  0  0
  -20.6030  -26.9460   22.6350 C   0  0  0  0  0  2  0  0  0  0  0  0
  -19.4920  -26.6150   21.6350 C   0  0  0  0  0  2  0  0  0  0  0  0
  -18.1150  -26.7630   22.2920 C   0  0  0  0  0  2  0  0  0  0  0  0
  -19.0660  -28.8830   23.3740 C   0  0  0  0  0  0  0  0  0  0  0  0
  -18.8510  -30.1480   23.9620 C   0  0  0  0  0  3  0  0  0  0  0  0
  -17.5470  -30.6470   24.1410 C   0  0  0  0  0  3  0  0  0  0  0  0
  -16.4400  -29.8770   23.7450 C   0  0  0  0  0  3  0  0  0  0  0  0
  -16.6390  -28.6130   23.1600 C   0  0  0  0  0  3  0  0  0  0  0  0
  -25.8550  -32.4980   23.7640 C   0  0  0  0  0  3  0  0  0  0  0  0
  -26.3980  -31.7120   25.0210 C   0  0  1  0  0  0  0  0  0  0  0  0
  -25.3270  -31.4630   26.1090 C   0  0  0  0  0  1  0  0  0  0  0  0
  -26.9720  -30.3390   24.6050 C   0  0  0  0  0  1  0  0  0  0  0  0
  -27.5630  -32.4990   25.6670 C   0  0  0  0  0  1  0  0  0  0  0  0
  -25.5540  -33.8930   24.1230 N   0  0  0  0  0  0  0  0  0  0  0  0
  -25.8690  -34.9610   23.3780 C   0  0  0  0  0  0  0  0  0  0  0  0
  -26.5130  -34.8750   22.3280 O   0  0  0  0  0  0  0  0  0  0  0  0
  -24.9800  -34.0330   24.9410 H   0  0  0  0  0  0  0  0  0  0  0  0
  -24.1450  -36.7730   23.1010 C   0  0  0  0  0  1  0  0  0  0  0  0
  -25.4000  -36.3430   23.8750 C   0  0  0  0  0  3  0  0  0  0  0  0
  -27.5530  -37.2050   24.6830 C   0  0  0  0  0  1  0  0  0  0  0  0
  -26.4360  -37.3930   23.7630 N   0  0  0  0  0  0  0  0  0  0  0  0
  -26.0370  -38.3120   23.9340 H   0  0  0  0  0  0  0  0  0  0  0  0
  -29.1310  -18.9270   19.7910 C   0  0  0  0  0  2  0  0  0  0  0  0
  -30.3570  -14.9340   19.6670 C   0  0  0  0  0  0  0  0  0  0  0  0
  -30.0590  -12.6520   18.5870 C   0  0  0  0  0  2  0  0  0  0  0  0
  -28.9930  -12.6910   17.4670 C   0  0  0  0  0  2  0  0  0  0  0  0
  -27.5890  -12.4520   18.0530 C   0  0  0  0  0  2  0  0  0  0  0  0
  -27.3320  -13.3050   19.3210 C   0  0  0  0  0  3  0  0  0  0  0  0
  -28.5070  -13.2480   20.3170 C   0  0  0  0  0  2  0  0  0  0  0  0
  -29.7160  -13.6900   19.6040 N   0  0  0  0  0  0  0  0  0  0  0  0
  -31.4240  -15.0460   19.0530 O   0  0  0  0  0  0  0  0  0  0  0  0
  -30.2010  -15.7310   21.8320 C   0  0  0  0  0  2  0  0  0  0  0  0
  -31.6580  -16.1890   22.1860 C   0  0  0  0  0  2  0  0  0  0  0  0
  -31.6070  -17.9140   20.3620 C   0  0  0  0  0  2  0  0  0  0  0  0
  -30.0760  -17.6560   20.4100 C   0  0  0  0  0  3  0  0  0  0  0  0
  -29.8500  -16.0460   20.4200 N   0  0  0  0  0  0  0  0  0  0  0  0
  -32.3740  -16.8490   21.0580 N   0  0  0  0  0  4  0  0  0  0  0  0
  -32.5600  -16.1380   20.3600 H   0  0  0  0  0  0  0  0  0  0  0  0
  -33.2670  -17.2030   21.3640 H   0  0  0  0  0  0  0  0  0  0  0  0
  -25.0460  -13.8440   20.3360 C   0  0  0  0  0  0  0  0  0  0  0  0
  -24.0360  -13.0520   20.8070 C   0  0  0  0  0  0  0  0  0  0  0  0
  -24.5040  -11.7060   20.6930 C   0  0  0  0  0  0  0  0  0  0  0  0
  -26.0610  -12.9820   19.9580 N   0  0  0  0  0  0  0  0  0  0  0  0
  -25.7520  -11.6880   20.2370 N   0  0  0  0  0  0  0  0  0  0  0  0
  -23.8120  -10.4330   20.9380 C   0  0  0  0  0  0  0  0  0  0  0  0
  -24.3080   -9.4870   21.8600 C   0  0  0  0  0  3  0  0  0  0  0  0
  -23.6130   -8.2790   22.0910 C   0  0  0  0  0  3  0  0  0  0  0  0
  -22.4100   -8.0100   21.4000 C   0  0  0  0  0  0  0  0  0  0  0  0
  -21.9320   -8.9460   20.4640 C   0  0  0  0  0  3  0  0  0  0  0  0
  -22.6270  -10.1440   20.2320 C   0  0  0  0  0  3  0  0  0  0  0  0
  -21.6800   -6.8540   21.5420 O   0  0  0  0  0  0  0  0  0  0  0  0
  -21.6650   -6.1500   22.7190 C   0  0  0  0  0  0  0  0  0  0  0  0
  -21.2240   -6.7320   23.9290 C   0  0  0  0  0  3  0  0  0  0  0  0
  -21.1600   -5.9540   25.1010 C   0  0  0  0  0  3  0  0  0  0  0  0
  -21.5250   -4.5940   25.0660 C   0  0  0  0  0  0  0  0  0  0  0  0
  -21.9570   -4.0130   23.8620 C   0  0  0  0  0  3  0  0  0  0  0  0
  -22.0250   -4.7880   22.6920 C   0  0  0  0  0  0  0  0  0  0  0  0
  -22.4230   -4.2160   21.5300 F   0  0  0  0  0  0  0  0  0  0  0  0
  -21.4550   -3.8450   26.1920 F   0  0  0  0  0  0  0  0  0  0  0  0
  -22.6760  -13.5090   21.2420 C   0  0  0  0  0  0  0  0  0  0  0  0
  -22.0620  -12.8050   22.1860 N   0  0  0  0  0  0  0  0  0  0  0  0
  -22.1670  -14.5290   20.7770 O   0  0  0  0  0  0  0  0  0  0  0  0
  -22.4910  -11.9840   22.5870 H   0  0  0  0  0  0  0  0  0  0  0  0
  -21.1510  -13.0940   22.5150 H   0  0  0  0  0  0  0  0  0  0  0  0
  -25.1810  -15.2210   20.1750 N   0  0  0  0  0  0  0  0  0  0  0  0
  -24.4250  -15.8650   20.3830 H   0  0  0  0  0  0  0  0  0  0  0  0
  -25.9910  -15.6770   19.7760 H   0  0  0  0  0  0  0  0  0  0  0  0
  1  4  1  0
  1  2  1  0
  2  6  1  0
  3  6  1  0
  4  9  1  0
  4  5  1  0
  5  3  1  0
  5 10  1  0
  6  7  1  1
  8  9  1  0
 11 10  1  0
 12 23  2  0
 13 11  1  0
 13 18  1  0
 14 22  1  0
 14 24  1  0
 15 21  1  0
 15 17  1  0
 16 22  1  0
 17 16  1  0
 18 17  2  0
 19 20  1  0
 19 13  2  0
 20 15  2  0
 21 14  1  0
 22 12  1  0
 24 26  2  0
 25 24  1  0
 27 25  1  0
 28 37  2  0
 28 33  1  0
 29 25  1  0
 29 33  1  0
 30 29  1  0
 31 32  1  0
 31 30  1  0
 32 28  1  0
 33 34  2  0
 34 35  1  0
 36 35  2  0
 37 36  1  0
 38 12  1  0
 38 43  1  0
 38 39  1  0
 39 42  1  1
 39 40  1  0
 41 39  1  0
 43 46  1  0
 44 48  1  0
 44 43  1  0
 45 44  2  0
 48 47  1  0
 50 48  1  0
 50 51  1  0
 50 49  1  0
 52  6  1  0
 53 65  1  0
 54 59  1  0
 55 56  1  0
 55 54  1  0
 57 56  1  0
 57 72  1  0
 57 58  1  0
 59 53  1  0
 59 58  1  0
 60 53  2  0
 61 62  1  0
 63 64  1  0
 63 66  1  0
 64 52  1  0
 64 65  1  0
 65 61  1  0
 66 68  1  0
 66 62  1  0
 67 66  1  0
 69 70  2  0
 70 89  1  0
 71 70  1  0
 71 74  1  0
 72 73  1  0
 72 69  1  0
 73 71  2  0
 74 75  1  0
 75 76  2  0
 77 80  1  0
 77 76  1  0
 78 77  2  0
 79 78  1  0
 79 74  2  0
 80 81  1  0
 81 82  1  0
 82 83  2  0
 84 83  1  0
 84 88  1  0
 85 84  2  0
 86 81  2  0
 86 85  1  0
 87 86  1  0
 89 90  1  0
 90 93  1  0
 90 92  1  0
 91 89  2  0
 94 69  1  0
 94 95  1  0
 96 94  1  0
M  ISO  4  10 101  11 101  53 100  65 100
M  END
>  <TORSDO>  (71) 
F 19

>  <SCORE>  (71) 
-13.387

>  <name>  (71) 
70

>  <ligand_id>  (71) 
70

>  <original_smiles>  (71) 
[H]c1c([H])c([H])c2c(c1[H])C([H])([H])C([H])([H])C([H])([H])C2([H])N([H])C(=O)C1([H])N(C(=O)C([H])(N([H])C(=O)C([H])(N([H])C([H])([H])[H])C([H])([H])[H])C(C([H])([H])[H])(C([H])([H])[H])C([H])([H])[H])C([H])([H])c2c([H])c(OC([H])([H])C3([H])C([H])(C([H])([H])C([H])([H])[H])C([H])([H])C([H])([H])[N+]([H])(C([H])([H])C4([H])N(C(=O)N5C([H])([H])C([H])([H])C([H])([H])C([H])(n6nc(-c7c([H])c([H])c(Oc8c([H])c([H])c(F)c([H])c8F)c([H])c7[H])c(C(=O)N([H])[H])c6N([H])[H])C5([H])[H])C([H])([H])C([H])([H])[N+]([H])([H])C4([H])[H])C3([H])[H])c([H])c([H])c2C1([H])[H]

>  <smiles>  (71) 
[H]c1c([H])c([H])c2c(c1[H])C([H])([H])C([H])([H])C([H])([H])C2([H])N([H])C(=O)C1([H])N(C(=O)C([H])(N([H])C(=O)C([H])(N([H])C([H])([H])[H])C([H])([H])[H])C(C([H])([H])[H])(C([H])([H])[H])C([H])([H])[H])C([H])([H])c2c([H])c(OC([H])([H])C3([H])C([H])(C([H])([H])C([H])([H])[H])C([H])([H])C([H])([H])[N+]([H])(C([H])([H])C4([H])N(C(=O)N5C([H])([H])C([H])([H])C([H])([H])C([H])(n6nc(-c7c([H])c([H])c(Oc8c([H])c([H])c(F)c([H])c8F)c([H])c7[H])c(C(=O)N([H])[H])c6N([H])[H])C5([H])[H])C([H])([H])C([H])([H])[N+]([H])([H])C4([H])[H])C3([H])[H])c([H])c([H])c2C1([H])[H]

$$$$
71:0:0
     RDKit          3D

 89 98  0  0  1  0  0  0  0  0999 V2000
  -29.7370  -22.2500   18.8670 C   0  0  0  0  0  3  0  0  0  0  0  0
  -28.7340  -20.8730   20.5660 C   0  0  0  0  0  3  0  0  0  0  0  0
  -30.3720  -21.0860   18.4070 C   0  0  0  0  0  3  0  0  0  0  0  0
  -28.8810  -22.2090   19.9860 C   0  0  0  0  0  0  0  0  0  0  0  0
  -29.4230  -19.7010   20.0280 C   0  0  0  0  0  0  0  0  0  0  0  0
  -30.2340  -19.8630   18.9640 N   0  0  0  0  0  0  0  0  0  0  0  0
  -30.5600  -14.8380   20.3340 C   0  0  0  0  0  0  0  0  0  0  0  0
  -30.3450  -12.5370   19.3770 C   0  0  0  0  0  2  0  0  0  0  0  0
  -29.4140  -12.5440   18.1440 C   0  0  0  0  0  2  0  0  0  0  0  0
  -27.9500  -12.3600   18.5790 C   0  0  0  0  0  2  0  0  0  0  0  0
  -27.5530  -13.2880   19.7550 C   0  0  0  0  0  3  0  0  0  0  0  0
  -28.6070  -13.2920   20.8840 C   0  0  0  0  0  2  0  0  0  0  0  0
  -29.9050  -13.6250   20.2840 N   0  0  0  0  0  0  0  0  0  0  0  0
  -31.7540  -14.8790   20.0170 O   0  0  0  0  0  0  0  0  0  0  0  0
  -29.2640  -16.9310   19.5580 C   0  0  0  0  0  2  0  0  0  0  0  0
  -30.5140  -17.2980   21.0990 C   0  0  0  0  0  2  0  0  0  0  0  0
  -29.3560  -18.1670   20.5140 C   0  0  0  0  0  3  0  0  0  0  0  0
  -29.8610  -16.0260   20.6030 N   0  0  0  0  0  0  0  0  0  0  0  0
  -25.1730  -13.8700   20.5020 C   0  0  0  0  0  0  0  0  0  0  0  0
  -24.1110  -13.0980   20.8750 C   0  0  0  0  0  0  0  0  0  0  0  0
  -24.5750  -11.7450   20.8430 C   0  0  0  0  0  0  0  0  0  0  0  0
  -26.2160  -12.9940   20.2580 N   0  0  0  0  0  0  0  0  0  0  0  0
  -25.8630  -11.7090   20.5290 N   0  0  0  0  0  0  0  0  0  0  0  0
  -23.8470  -10.4830   21.0340 C   0  0  0  0  0  0  0  0  0  0  0  0
  -24.2760   -9.5120   21.9670 C   0  0  0  0  0  3  0  0  0  0  0  0
  -23.5430   -8.3200   22.1460 C   0  0  0  0  0  3  0  0  0  0  0  0
  -22.3690   -8.0860   21.3940 C   0  0  0  0  0  0  0  0  0  0  0  0
  -21.9590   -9.0450   20.4510 C   0  0  0  0  0  3  0  0  0  0  0  0
  -22.6910  -10.2300   20.2680 C   0  0  0  0  0  3  0  0  0  0  0  0
  -21.6110   -6.9430   21.4820 O   0  0  0  0  0  0  0  0  0  0  0  0
  -21.5640   -6.2000   22.6350 C   0  0  0  0  0  0  0  0  0  0  0  0
  -21.1410   -6.7540   23.8620 C   0  0  0  0  0  3  0  0  0  0  0  0
  -21.0410   -5.9380   25.0060 C   0  0  0  0  0  3  0  0  0  0  0  0
  -21.3530   -4.5680   24.9230 C   0  0  0  0  0  0  0  0  0  0  0  0
  -21.7700   -4.0120   23.7000 C   0  0  0  0  0  3  0  0  0  0  0  0
  -21.8720   -4.8250   22.5590 C   0  0  0  0  0  0  0  0  0  0  0  0
  -22.2540   -4.2820   21.3780 F   0  0  0  0  0  0  0  0  0  0  0  0
  -21.2500   -3.7810   26.0200 F   0  0  0  0  0  0  0  0  0  0  0  0
  -22.7140  -13.5740   21.1500 C   0  0  0  0  0  0  0  0  0  0  0  0
  -21.9860  -12.8770   22.0150 N   0  0  0  0  0  0  0  0  0  0  0  0
  -22.2780  -14.6030   20.6300 O   0  0  0  0  0  0  0  0  0  0  0  0
  -22.3530  -12.0460   22.4540 H   0  0  0  0  0  0  0  0  0  0  0  0
  -21.0490  -13.1790   22.2440 H   0  0  0  0  0  0  0  0  0  0  0  0
  -25.3330  -15.2420   20.3250 N   0  0  0  0  0  0  0  0  0  0  0  0
  -24.5610  -15.8910   20.4440 H   0  0  0  0  0  0  0  0  0  0  0  0
  -26.1810  -15.6880   19.9990 H   0  0  0  0  0  0  0  0  0  0  0  0
  -28.2070  -23.5750   20.5110 C   0  0  0  0  0  2  0  0  0  0  0  0
  -28.4000  -24.9890   19.7060 C   0  0  0  0  0  2  0  0  0  0  0  0
  -28.3130  -26.3750   20.3040 O   0  0  0  0  0  0  0  0  0  0  0  0
  -24.6050  -31.8670   23.2350 C   0  0  0  0  0  0  0  0  0  0  0  0
  -27.2090  -27.2530   20.1980 C   0  0  0  0  0  0  0  0  0  0  0  0
  -23.4120  -30.4690   21.5870 C   0  0  0  0  0  3  0  0  0  0  0  0
  -24.8690  -28.9180   20.1650 C   0  0  0  0  0  0  0  0  0  0  0  0
  -25.9510  -30.7830   21.4100 C   0  0  0  0  0  2  0  0  0  0  0  0
  -26.0360  -29.3920   20.7750 C   0  0  0  0  0  0  0  0  0  0  0  0
  -27.2070  -28.5650   20.7880 C   0  0  0  0  0  3  0  0  0  0  0  0
  -26.0210  -26.8490   19.5540 C   0  0  0  0  0  3  0  0  0  0  0  0
  -24.8670  -27.6580   19.5450 C   0  0  0  0  0  3  0  0  0  0  0  0
  -23.6360  -29.7960   20.2070 C   0  0  0  0  0  2  0  0  0  0  0  0
  -24.6750  -31.0560   22.1380 N   0  0  0  0  0  0  0  0  0  0  0  0
  -23.5180  -32.1450   23.7640 O   0  0  0  0  0  0  0  0  0  0  0  0
  -22.7400  -29.4530   22.5450 C   0  0  0  0  0  0  0  0  0  0  0  0
  -21.4110  -29.2860   22.4210 N   0  0  0  0  0  0  0  0  0  0  0  0
  -23.4150  -28.8230   23.3620 O   0  0  0  0  0  0  0  0  0  0  0  0
  -20.9240  -29.8450   21.7380 H   0  0  0  0  0  0  0  0  0  0  0  0
  -18.0290  -28.0990   22.9150 C   0  0  0  0  0  0  0  0  0  0  0  0
  -20.5890  -28.3470   23.1890 C   0  0  0  0  0  3  0  0  0  0  0  0
  -20.6860  -26.9160   22.6060 C   0  0  0  0  0  2  0  0  0  0  0  0
  -19.5830  -26.6060   21.5900 C   0  0  0  0  0  2  0  0  0  0  0  0
  -18.2010  -26.7520   22.2330 C   0  0  0  0  0  2  0  0  0  0  0  0
  -19.1510  -28.8530   23.3510 C   0  0  0  0  0  0  0  0  0  0  0  0
  -18.9340  -30.1130   23.9500 C   0  0  0  0  0  3  0  0  0  0  0  0
  -17.6310  -30.6210   24.1140 C   0  0  0  0  0  3  0  0  0  0  0  0
  -16.5250  -29.8630   23.6950 C   0  0  0  0  0  3  0  0  0  0  0  0
  -16.7240  -28.6030   23.1010 C   0  0  0  0  0  3  0  0  0  0  0  0
  -25.8820  -32.5020   23.8640 C   0  0  0  0  0  3  0  0  0  0  0  0
  -25.5740  -33.9030   24.1930 N   0  0  0  0  0  0  0  0  0  0  0  0
  -25.9090  -34.9530   23.4320 C   0  0  0  0  0  0  0  0  0  0  0  0
  -26.5800  -34.8450   22.4010 O   0  0  0  0  0  0  0  0  0  0  0  0
  -24.9810  -34.0590   24.9950 H   0  0  0  0  0  0  0  0  0  0  0  0
  -24.1920  -36.7530   23.0630 C   0  0  0  0  0  1  0  0  0  0  0  0
  -25.4260  -36.3450   23.8840 C   0  0  0  0  0  3  0  0  0  0  0  0
  -27.5610  -37.2270   24.7200 C   0  0  0  0  0  1  0  0  0  0  0  0
  -26.4630  -37.3950   23.7710 N   0  0  0  0  0  0  0  0  0  0  0  0
  -26.0580  -38.3160   23.9140 H   0  0  0  0  0  0  0  0  0  0  0  0
  -26.3910  -31.7310   25.1430 C   0  0  1  0  0  0  0  0  0  0  0  0
  -25.2950  -31.4970   26.2090 C   0  0  0  0  0  1  0  0  0  0  0  0
  -26.9720  -30.3510   24.7540 C   0  0  0  0  0  1  0  0  0  0  0  0
  -27.5450  -32.5190   25.8100 C   0  0  0  0  0  1  0  0  0  0  0  0
  1  4  1  0
  3  1  2  0
  3  6  1  0
  4 47  1  0
  4  2  2  0
  5  2  1  0
  6  5  2  0
  7 18  1  0
  8 13  1  0
  9 10  1  0
  9  8  1  0
 11 10  1  0
 11 22  1  0
 11 12  1  0
 13  7  1  0
 13 12  1  0
 14  7  2  0
 15 17  1  0
 15 18  1  0
 17  5  1  0
 17 16  1  0
 18 16  1  0
 19 20  2  0
 20 39  1  0
 21 20  1  0
 21 24  1  0
 22 19  1  0
 22 23  1  0
 23 21  2  0
 24 25  1  0
 25 26  2  0
 27 30  1  0
 27 26  1  0
 28 27  2  0
 29 28  1  0
 29 24  2  0
 30 31  1  0
 31 32  1  0
 32 33  2  0
 34 33  1  0
 34 38  1  0
 35 34  2  0
 36 31  2  0
 36 35  1  0
 37 36  1  0
 39 40  1  0
 40 43  1  0
 40 42  1  0
 41 39  2  0
 44 45  1  0
 44 19  1  0
 46 44  1  0
 48 49  1  0
 48 47  1  0
 50 61  2  0
 51 49  1  0
 51 56  1  0
 52 60  1  0
 52 62  1  0
 53 59  1  0
 53 55  1  0
 54 60  1  0
 55 56  2  0
 55 54  1  0
 57 51  2  0
 58 57  1  0
 58 53  2  0
 59 52  1  0
 60 50  1  0
 62 64  2  0
 63 62  1  0
 65 63  1  0
 66 75  2  0
 66 71  1  0
 67 63  1  0
 67 71  1  0
 68 67  1  0
 69 70  1  0
 69 68  1  0
 70 66  1  0
 71 72  2  0
 72 73  1  0
 74 73  2  0
 75 74  1  0
 76 50  1  0
 76 77  1  0
 76 86  1  0
 77 80  1  0
 78 82  1  0
 78 77  1  0
 79 78  2  0
 82 81  1  0
 84 82  1  0
 84 85  1  0
 84 83  1  0
 86 89  1  1
 86 87  1  0
 88 86  1  0
M  ISO  4   7 100  18 100  48 101  49 101
M  END
>  <TORSDO>  (72) 
F 18

>  <SCORE>  (72) 
-14.714

>  <name>  (72) 
71

>  <ligand_id>  (72) 
71

>  <original_smiles>  (72) 
[H]c1nc(C2([H])C([H])([H])N(C(=O)N3C([H])([H])C([H])([H])C([H])([H])C([H])(n4nc(-c5c([H])c([H])c(Oc6c([H])c([H])c(F)c([H])c6F)c([H])c5[H])c(C(=O)N([H])[H])c4N([H])[H])C3([H])[H])C2([H])[H])c([H])c(C([H])([H])C([H])([H])Oc2c([H])c([H])c3c(c2[H])C([H])([H])N(C(=O)C([H])(N([H])C(=O)C([H])(N([H])C([H])([H])[H])C([H])([H])[H])C(C([H])([H])[H])(C([H])([H])[H])C([H])([H])[H])C([H])(C(=O)N([H])C2([H])c4c([H])c([H])c([H])c([H])c4C([H])([H])C([H])([H])C2([H])[H])C3([H])[H])c1[H]

>  <smiles>  (72) 
[H]c1nc(C2([H])C([H])([H])N(C(=O)N3C([H])([H])C([H])([H])C([H])([H])C([H])(n4nc(-c5c([H])c([H])c(Oc6c([H])c([H])c(F)c([H])c6F)c([H])c5[H])c(C(=O)N([H])[H])c4N([H])[H])C3([H])[H])C2([H])[H])c([H])c(C([H])([H])C([H])([H])Oc2c([H])c([H])c3c(c2[H])C([H])([H])N(C(=O)C([H])(N([H])C(=O)C([H])(N([H])C([H])([H])[H])C([H])([H])[H])C(C([H])([H])[H])(C([H])([H])[H])C([H])([H])[H])C([H])(C(=O)N([H])C2([H])c4c([H])c([H])c([H])c([H])c4C([H])([H])C([H])([H])C2([H])[H])C3([H])[H])c1[H]

$$$$
72:0:0
     RDKit          3D

 94104  0  0  1  0  0  0  0  0999 V2000
  -29.4250  -22.6790   22.1730 C   0  0  0  0  0  3  0  0  0  0  0  0
  -29.7510  -21.6300   22.9730 C   0  0  0  0  0  0  0  0  0  0  0  0
  -29.3390  -20.8110   20.9110 C   0  0  0  0  0  3  0  0  0  0  0  0
  -29.1000  -22.2210   20.9140 N   0  0  0  0  0  0  0  0  0  0  0  0
  -29.6960  -20.5340   22.1730 N   0  0  0  0  0  0  0  0  0  0  0  0
  -29.9320  -19.6010   22.4890 H   0  0  0  0  0  0  0  0  0  0  0  0
  -30.7790  -14.9010   19.9030 C   0  0  0  0  0  0  0  0  0  0  0  0
  -30.4630  -12.5890   18.9460 C   0  0  0  0  0  2  0  0  0  0  0  0
  -29.4660  -12.5720   17.7690 C   0  0  0  0  0  2  0  0  0  0  0  0
  -28.0300  -12.3800   18.2930 C   0  0  0  0  0  2  0  0  0  0  0  0
  -27.7080  -13.3040   19.4980 C   0  0  0  0  0  3  0  0  0  0  0  0
  -28.8350  -13.3250   20.5540 C   0  0  0  0  0  2  0  0  0  0  0  0
  -30.0650  -13.7070   19.8520 N   0  0  0  0  0  0  0  0  0  0  0  0
  -31.9760  -14.8230   19.6020 O   0  0  0  0  0  0  0  0  0  0  0  0
  -30.7760  -18.8120   19.7640 C   0  0  0  0  0  2  0  0  0  0  0  0
  -28.5080  -18.2390   20.4470 C   0  0  0  0  0  2  0  0  0  0  0  0
  -31.1050  -17.3970   20.4500 C   0  0  0  0  0  2  0  0  0  0  0  0
  -28.8520  -16.7470   19.9160 C   0  0  0  0  0  2  0  0  0  0  0  0
  -29.3700  -19.4970   19.9720 C   0  0  0  0  0  3  0  0  0  0  0  0
  -30.2300  -16.2000   20.1510 N   0  0  0  0  0  0  0  0  0  0  0  0
  -25.3930  -13.8920   20.4140 C   0  0  0  0  0  0  0  0  0  0  0  0
  -24.3460  -13.1210   20.8320 C   0  0  0  0  0  0  0  0  0  0  0  0
  -24.7880  -11.7650   20.7320 C   0  0  0  0  0  0  0  0  0  0  0  0
  -26.4060  -13.0090   20.0810 N   0  0  0  0  0  0  0  0  0  0  0  0
  -26.0560  -11.7230   20.3390 N   0  0  0  0  0  0  0  0  0  0  0  0
  -24.0550  -10.5080   20.9270 C   0  0  0  0  0  0  0  0  0  0  0  0
  -24.4900   -9.5360   21.8550 C   0  0  0  0  0  3  0  0  0  0  0  0
  -23.7570   -8.3460   22.0440 C   0  0  0  0  0  3  0  0  0  0  0  0
  -22.5730   -8.1180   21.3030 C   0  0  0  0  0  0  0  0  0  0  0  0
  -22.1550   -9.0770   20.3640 C   0  0  0  0  0  3  0  0  0  0  0  0
  -22.8890  -10.2600   20.1740 C   0  0  0  0  0  3  0  0  0  0  0  0
  -21.8110   -6.9780   21.4000 O   0  0  0  0  0  0  0  0  0  0  0  0
  -21.7240   -6.2680   22.5710 C   0  0  0  0  0  0  0  0  0  0  0  0
  -21.2600   -6.8580   23.7670 C   0  0  0  0  0  3  0  0  0  0  0  0
  -21.1190   -6.0760   24.9300 C   0  0  0  0  0  3  0  0  0  0  0  0
  -21.4330   -4.7040   24.8980 C   0  0  0  0  0  0  0  0  0  0  0  0
  -21.8880   -4.1120   23.7060 C   0  0  0  0  0  3  0  0  0  0  0  0
  -22.0310   -4.8930   22.5460 C   0  0  0  0  0  0  0  0  0  0  0  0
  -22.4530   -4.3140   21.3960 F   0  0  0  0  0  0  0  0  0  0  0  0
  -21.2890   -3.9490   26.0120 F   0  0  0  0  0  0  0  0  0  0  0  0
  -22.9750  -13.6080   21.1980 C   0  0  0  0  0  0  0  0  0  0  0  0
  -22.2920  -12.9090   22.0970 N   0  0  0  0  0  0  0  0  0  0  0  0
  -22.5200  -14.6480   20.7220 O   0  0  0  0  0  0  0  0  0  0  0  0
  -22.6690  -12.0680   22.5070 H   0  0  0  0  0  0  0  0  0  0  0  0
  -21.3750  -13.2240   22.3800 H   0  0  0  0  0  0  0  0  0  0  0  0
  -25.5540  -15.2660   20.2600 N   0  0  0  0  0  0  0  0  0  0  0  0
  -24.7940  -15.9140   20.4320 H   0  0  0  0  0  0  0  0  0  0  0  0
  -26.3690  -15.7070   19.8550 H   0  0  0  0  0  0  0  0  0  0  0  0
  -30.1550  -22.8480   25.2540 C   0  0  0  0  0  2  0  0  0  0  0  0
  -31.4560  -22.1940   24.8550 C   0  0  0  0  0  2  0  0  0  0  0  0
  -30.1440  -21.5930   24.4110 C   0  0  0  0  0  3  0  0  0  0  0  0
  -28.7000  -23.3510   19.8940 C   0  0  0  0  0  2  0  0  0  0  0  0
  -27.9690  -24.7630   20.4340 C   0  0  0  0  0  2  0  0  0  0  0  0
  -28.2810  -26.2310   20.0880 O   0  0  0  0  0  0  0  0  0  0  0  0
  -24.6490  -31.8230   23.1810 C   0  0  0  0  0  0  0  0  0  0  0  0
  -27.2220  -27.1910   20.0780 C   0  0  0  0  0  0  0  0  0  0  0  0
  -23.4400  -30.4370   21.5400 C   0  0  0  0  0  3  0  0  0  0  0  0
  -24.8820  -28.8910   20.0900 C   0  0  0  0  0  0  0  0  0  0  0  0
  -25.9890  -30.7270   21.3560 C   0  0  0  0  0  2  0  0  0  0  0  0
  -26.0640  -29.3460   20.6900 C   0  0  0  0  0  0  0  0  0  0  0  0
  -27.2390  -28.5120   20.6670 C   0  0  0  0  0  3  0  0  0  0  0  0
  -26.0200  -26.8350   19.4300 C   0  0  0  0  0  3  0  0  0  0  0  0
  -24.8700  -27.6460   19.4480 C   0  0  0  0  0  3  0  0  0  0  0  0
  -23.6510  -29.7770   20.1540 C   0  0  0  0  0  2  0  0  0  0  0  0
  -24.7140  -31.0150   22.0800 N   0  0  0  0  0  0  0  0  0  0  0  0
  -23.5660  -32.0970   23.7200 O   0  0  0  0  0  0  0  0  0  0  0  0
  -22.7780  -29.4150   22.4970 C   0  0  0  0  0  0  0  0  0  0  0  0
  -21.4570  -29.2070   22.3490 N   0  0  0  0  0  0  0  0  0  0  0  0
  -23.4540  -28.8100   23.3330 O   0  0  0  0  0  0  0  0  0  0  0  0
  -20.9700  -29.7460   21.6470 H   0  0  0  0  0  0  0  0  0  0  0  0
  -18.1110  -27.8890   22.7670 C   0  0  0  0  0  0  0  0  0  0  0  0
  -20.6470  -28.2570   23.1150 C   0  0  0  0  0  3  0  0  0  0  0  0
  -20.8250  -26.8170   22.5800 C   0  0  0  0  0  2  0  0  0  0  0  0
  -19.7720  -26.4270   21.5370 C   0  0  0  0  0  2  0  0  0  0  0  0
  -18.3630  -26.5330   22.1300 C   0  0  0  0  0  2  0  0  0  0  0  0
  -19.1830  -28.7050   23.2150 C   0  0  0  0  0  0  0  0  0  0  0  0
  -18.8930  -29.9700   23.7700 C   0  0  0  0  0  3  0  0  0  0  0  0
  -17.5650  -30.4210   23.8800 C   0  0  0  0  0  3  0  0  0  0  0  0
  -16.5060  -29.6040   23.4470 C   0  0  0  0  0  3  0  0  0  0  0  0
  -16.7810  -28.3390   22.8970 C   0  0  0  0  0  3  0  0  0  0  0  0
  -25.9290  -32.4550   23.8030 C   0  0  0  0  0  3  0  0  0  0  0  0
  -26.4590  -31.6690   25.0660 C   0  0  1  0  0  0  0  0  0  0  0  0
  -25.3710  -31.4010   26.1330 C   0  0  0  0  0  1  0  0  0  0  0  0
  -27.0570  -30.3050   24.6540 C   0  0  0  0  0  1  0  0  0  0  0  0
  -27.6020  -32.4680   25.7350 C   0  0  0  0  0  1  0  0  0  0  0  0
  -25.6120  -33.8470   24.1590 N   0  0  0  0  0  0  0  0  0  0  0  0
  -25.9250  -34.9160   23.4160 C   0  0  0  0  0  0  0  0  0  0  0  0
  -26.5820  -34.8360   22.3740 O   0  0  0  0  0  0  0  0  0  0  0  0
  -25.0270  -33.9830   24.9700 H   0  0  0  0  0  0  0  0  0  0  0  0
  -24.1760  -36.7010   23.1220 C   0  0  0  0  0  1  0  0  0  0  0  0
  -25.4360  -36.2950   23.9050 C   0  0  0  0  0  3  0  0  0  0  0  0
  -27.5780  -37.1840   24.7110 C   0  0  0  0  0  1  0  0  0  0  0  0
  -26.4590  -37.3570   23.7890 N   0  0  0  0  0  0  0  0  0  0  0  0
  -26.0480  -38.2730   23.9560 H   0  0  0  0  0  0  0  0  0  0  0  0
  1  2  2  0
  2 51  1  0
  3  4  1  0
  3  5  1  0
  4  1  1  0
  5  6  1  0
  5  2  1  0
  7 20  1  0
  8 13  1  0
  9 10  1  0
  9  8  1  0
 11 10  1  0
 11 24  1  0
 11 12  1  0
 13  7  1  0
 13 12  1  0
 14  7  2  0
 15 17  1  0
 18 20  1  0
 18 16  1  0
 19 15  1  0
 19 16  1  0
 19  3  1  0
 20 17  1  0
 21 22  2  0
 22 41  1  0
 23 22  1  0
 23 26  1  0
 24 25  1  0
 24 21  1  0
 25 23  2  0
 26 27  1  0
 27 28  2  0
 29 32  1  0
 29 28  1  0
 30 29  2  0
 31 30  1  0
 31 26  2  0
 32 33  1  0
 33 34  1  0
 34 35  2  0
 36 35  1  0
 36 40  1  0
 37 36  2  0
 38 33  2  0
 38 37  1  0
 39 38  1  0
 41 42  1  0
 42 45  1  0
 42 44  1  0
 43 41  2  0
 46 21  1  0
 46 47  1  0
 48 46  1  0
 50 49  1  0
 51 50  1  0
 51 49  1  0
 52 53  1  0
 52  4  1  0
 54 53  1  0
 55 66  2  0
 56 54  1  0
 56 61  1  0
 57 65  1  0
 57 67  1  0
 58 64  1  0
 58 60  1  0
 59 65  1  0
 60 59  1  0
 61 60  2  0
 62 63  1  0
 62 56  2  0
 63 58  2  0
 64 57  1  0
 65 55  1  0
 67 69  2  0
 68 67  1  0
 70 68  1  0
 71 80  2  0
 71 76  1  0
 72 68  1  0
 72 76  1  0
 73 72  1  0
 74 75  1  0
 74 73  1  0
 75 71  1  0
 76 77  2  0
 77 78  1  0
 79 78  2  0
 80 79  1  0
 81 55  1  0
 81 86  1  0
 81 82  1  0
 82 85  1  1
 82 83  1  0
 84 82  1  0
 86 89  1  0
 87 91  1  0
 87 86  1  0
 88 87  2  0
 91 90  1  0
 93 91  1  0
 93 94  1  0
 93 92  1  0
M  ISO  4   7 100  20 100  53 101  54 101
M  END
>  <TORSDO>  (73) 
F 19

>  <SCORE>  (73) 
-13.693

>  <name>  (73) 
72

>  <ligand_id>  (73) 
72

>  <original_smiles>  (73) 
[H]c1c([H])c([H])c2c(c1[H])C([H])([H])C([H])([H])C([H])([H])C2([H])N([H])C(=O)C1([H])N(C(=O)C([H])(N([H])C(=O)C([H])(N([H])C([H])([H])[H])C([H])([H])[H])C(C([H])([H])[H])(C([H])([H])[H])C([H])([H])[H])C([H])([H])c2c([H])c(OC([H])([H])C([H])([H])n3c([H])c(C4([H])C([H])([H])C4([H])[H])[n+]([H])c3C3([H])C([H])([H])C([H])([H])N(C(=O)N4C([H])([H])C([H])([H])C([H])([H])C([H])(n5nc(-c6c([H])c([H])c(Oc7c([H])c([H])c(F)c([H])c7F)c([H])c6[H])c(C(=O)N([H])[H])c5N([H])[H])C4([H])[H])C([H])([H])C3([H])[H])c([H])c([H])c2C1([H])[H]

>  <smiles>  (73) 
[H]c1c([H])c([H])c2c(c1[H])C([H])([H])C([H])([H])C([H])([H])C2([H])N([H])C(=O)C1([H])N(C(=O)C([H])(N([H])C(=O)C([H])(N([H])C([H])([H])[H])C([H])([H])[H])C(C([H])([H])[H])(C([H])([H])[H])C([H])([H])[H])C([H])([H])c2c([H])c(OC([H])([H])C([H])([H])n3c([H])c(C4([H])C([H])([H])C4([H])[H])[n+]([H])c3C3([H])C([H])([H])C([H])([H])N(C(=O)N4C([H])([H])C([H])([H])C([H])([H])C([H])(n5nc(-c6c([H])c([H])c(Oc7c([H])c([H])c(F)c([H])c7F)c([H])c6[H])c(C(=O)N([H])[H])c5N([H])[H])C4([H])[H])C([H])([H])C3([H])[H])c([H])c([H])c2C1([H])[H]

$$$$
73:0:0
     RDKit          3D

 92102  0  0  1  0  0  0  0  0999 V2000
  -30.3950  -23.5930   20.6680 C   0  0  0  0  0  3  0  0  0  0  0  0
  -29.2590  -22.9340   20.2920 C   0  0  0  0  0  0  0  0  0  0  0  0
  -31.0140  -21.4610   20.6430 C   0  0  0  0  0  3  0  0  0  0  0  0
  -29.6880  -21.3980   20.3010 N   0  0  0  0  0  0  0  0  0  0  0  0
  -31.3880  -22.7140   20.8620 N   0  0  0  0  0  0  0  0  0  0  0  0
  -32.3280  -22.9770   21.1280 H   0  0  0  0  0  0  0  0  0  0  0  0
  -30.5030  -15.4550   19.8670 C   0  0  0  0  0  0  0  0  0  0  0  0
  -30.4230  -13.0140   18.9340 C   0  0  0  0  0  2  0  0  0  0  0  0
  -29.4220  -12.7900   17.7720 C   0  0  0  0  0  2  0  0  0  0  0  0
  -28.0230  -12.4690   18.3200 C   0  0  0  0  0  2  0  0  0  0  0  0
  -27.6380  -13.3950   19.4990 C   0  0  0  0  0  3  0  0  0  0  0  0
  -28.7670  -13.5790   20.5390 C   0  0  0  0  0  2  0  0  0  0  0  0
  -29.9220  -14.1450   19.8160 N   0  0  0  0  0  0  0  0  0  0  0  0
  -31.6860  -15.4200   19.4840 O   0  0  0  0  0  0  0  0  0  0  0  0
  -28.9220  -18.8540   21.3840 C   0  0  0  0  0  2  0  0  0  0  0  0
  -28.9010  -17.2530   21.1080 C   0  0  0  0  0  2  0  0  0  0  0  0
  -30.0960  -18.3080   19.4940 C   0  0  0  0  0  2  0  0  0  0  0  0
  -29.2270  -19.7140   20.1110 C   0  0  0  0  0  3  0  0  0  0  0  0
  -29.8160  -16.7980   20.0210 N   0  0  0  0  0  0  0  0  0  0  0  0
  -25.3420  -13.8780   20.4860 C   0  0  0  0  0  0  0  0  0  0  0  0
  -24.3220  -13.0690   20.9030 C   0  0  0  0  0  0  0  0  0  0  0  0
  -24.7960  -11.7270   20.7620 C   0  0  0  0  0  0  0  0  0  0  0  0
  -26.3660  -13.0290   20.1050 N   0  0  0  0  0  0  0  0  0  0  0  0
  -26.0580  -11.7270   20.3380 N   0  0  0  0  0  0  0  0  0  0  0  0
  -24.0940  -10.4510   20.9480 C   0  0  0  0  0  0  0  0  0  0  0  0
  -24.5490   -9.4830   21.8720 C   0  0  0  0  0  3  0  0  0  0  0  0
  -23.8420   -8.2740   22.0480 C   0  0  0  0  0  3  0  0  0  0  0  0
  -22.6690   -8.0210   21.2990 C   0  0  0  0  0  0  0  0  0  0  0  0
  -22.2330   -8.9770   20.3640 C   0  0  0  0  0  3  0  0  0  0  0  0
  -22.9400  -10.1780   20.1870 C   0  0  0  0  0  3  0  0  0  0  0  0
  -21.9340   -6.8630   21.3840 O   0  0  0  0  0  0  0  0  0  0  0  0
  -21.8230   -6.1670   22.5610 C   0  0  0  0  0  0  0  0  0  0  0  0
  -21.2890   -6.7560   23.7270 C   0  0  0  0  0  3  0  0  0  0  0  0
  -21.1250   -5.9840   24.8950 C   0  0  0  0  0  3  0  0  0  0  0  0
  -21.4860   -4.6240   24.8970 C   0  0  0  0  0  0  0  0  0  0  0  0
  -22.0130   -4.0330   23.7350 C   0  0  0  0  0  3  0  0  0  0  0  0
  -22.1790   -4.8020   22.5690 C   0  0  0  0  0  0  0  0  0  0  0  0
  -22.6660   -4.2230   21.4470 F   0  0  0  0  0  0  0  0  0  0  0  0
  -21.3240   -3.8810   26.0160 F   0  0  0  0  0  0  0  0  0  0  0  0
  -22.9500  -13.5190   21.3120 C   0  0  0  0  0  0  0  0  0  0  0  0
  -22.3070  -12.7830   22.2100 N   0  0  0  0  0  0  0  0  0  0  0  0
  -22.4620  -14.5580   20.8700 O   0  0  0  0  0  0  0  0  0  0  0  0
  -22.7170  -11.9440   22.5910 H   0  0  0  0  0  0  0  0  0  0  0  0
  -21.3900  -13.0710   22.5260 H   0  0  0  0  0  0  0  0  0  0  0  0
  -25.4750  -15.2570   20.3670 N   0  0  0  0  0  0  0  0  0  0  0  0
  -24.7110  -15.8890   20.5830 H   0  0  0  0  0  0  0  0  0  0  0  0
  -26.2810  -15.7270   19.9780 H   0  0  0  0  0  0  0  0  0  0  0  0
  -33.5390  -20.7390   20.9910 C   0  0  0  0  0  2  0  0  0  0  0  0
  -33.0760  -20.1490   19.6840 C   0  0  0  0  0  2  0  0  0  0  0  0
  -32.0680  -20.4040   20.7920 C   0  0  0  0  0  3  0  0  0  0  0  0
  -28.0670  -24.1870   20.0420 C   0  0  0  0  0  2  0  0  0  0  0  0
  -28.2680  -25.8470   20.2300 O   0  0  0  0  0  0  0  0  0  0  0  0
  -24.7140  -31.8440   23.2590 C   0  0  0  0  0  0  0  0  0  0  0  0
  -27.2640  -26.9690   20.1780 C   0  0  0  0  0  0  0  0  0  0  0  0
  -23.5280  -30.4850   21.5830 C   0  0  0  0  0  3  0  0  0  0  0  0
  -24.9810  -28.8920   20.1440 C   0  0  0  0  0  0  0  0  0  0  0  0
  -26.0990  -30.6720   21.4690 C   0  0  0  0  0  2  0  0  0  0  0  0
  -26.1670  -29.2700   20.7860 C   0  0  0  0  0  0  0  0  0  0  0  0
  -27.3010  -28.3320   20.7750 C   0  0  0  0  0  3  0  0  0  0  0  0
  -26.0490  -26.7520   19.4910 C   0  0  0  0  0  3  0  0  0  0  0  0
  -24.9510  -27.6550   19.4750 C   0  0  0  0  0  3  0  0  0  0  0  0
  -23.7680  -29.8240   20.1970 C   0  0  0  0  0  2  0  0  0  0  0  0
  -24.8020  -31.0280   22.1570 N   0  0  0  0  0  0  0  0  0  0  0  0
  -23.6200  -32.1310   23.7730 O   0  0  0  0  0  0  0  0  0  0  0  0
  -22.8160  -29.4800   22.5250 C   0  0  0  0  0  0  0  0  0  0  0  0
  -21.4870  -29.3150   22.3760 N   0  0  0  0  0  0  0  0  0  0  0  0
  -23.4660  -28.8440   23.3600 O   0  0  0  0  0  0  0  0  0  0  0  0
  -21.0140  -29.8790   21.6840 H   0  0  0  0  0  0  0  0  0  0  0  0
  -18.0970  -28.1020   22.8230 C   0  0  0  0  0  0  0  0  0  0  0  0
  -20.6540  -28.3660   23.1220 C   0  0  0  0  0  3  0  0  0  0  0  0
  -20.7630  -26.9430   22.5230 C   0  0  0  0  0  2  0  0  0  0  0  0
  -19.6730  -26.6390   21.4900 C   0  0  0  0  0  2  0  0  0  0  0  0
  -18.2830  -26.7680   22.1210 C   0  0  0  0  0  2  0  0  0  0  0  0
  -19.2090  -28.8600   23.2780 C   0  0  0  0  0  0  0  0  0  0  0  0
  -18.9780  -30.1070   23.8980 C   0  0  0  0  0  3  0  0  0  0  0  0
  -17.6690  -30.5980   24.0640 C   0  0  0  0  0  3  0  0  0  0  0  0
  -16.5720  -29.8380   23.6220 C   0  0  0  0  0  3  0  0  0  0  0  0
  -16.7860  -28.5920   23.0090 C   0  0  0  0  0  3  0  0  0  0  0  0
  -25.9800  -32.4680   23.9190 C   0  0  0  0  0  3  0  0  0  0  0  0
  -25.6790  -33.8740   24.2430 N   0  0  0  0  0  0  0  0  0  0  0  0
  -26.0110  -34.9270   23.4860 C   0  0  0  0  0  0  0  0  0  0  0  0
  -26.6650  -34.8170   22.4440 O   0  0  0  0  0  0  0  0  0  0  0  0
  -25.0960  -34.0350   25.0520 H   0  0  0  0  0  0  0  0  0  0  0  0
  -24.2770  -36.7300   23.1890 C   0  0  0  0  0  1  0  0  0  0  0  0
  -25.5480  -36.3240   23.9520 C   0  0  0  0  0  3  0  0  0  0  0  0
  -27.7100  -37.2190   24.6990 C   0  0  0  0  0  1  0  0  0  0  0  0
  -26.5790  -37.3730   23.7890 N   0  0  0  0  0  0  0  0  0  0  0  0
  -26.1780  -38.2970   23.9320 H   0  0  0  0  0  0  0  0  0  0  0  0
  -26.4440  -31.7010   25.2180 C   0  0  1  0  0  0  0  0  0  0  0  0
  -25.3150  -31.4910   26.2550 C   0  0  0  0  0  1  0  0  0  0  0  0
  -27.0160  -30.3100   24.8650 C   0  0  0  0  0  1  0  0  0  0  0  0
  -27.5870  -32.4830   25.9080 C   0  0  0  0  0  1  0  0  0  0  0  0
  1  5  1  0
  2  4  1  0
  2  1  2  0
  3 50  1  0
  3  5  1  0
  4  3  1  0
  5  6  1  0
  7 19  1  0
  8 13  1  0
  9 10  1  0
  9  8  1  0
 11 10  1  0
 11 23  1  0
 11 12  1  0
 13  7  1  0
 13 12  1  0
 14  7  2  0
 16 15  1  0
 17 19  1  0
 18 17  1  0
 18  4  1  0
 18 15  1  0
 19 16  1  0
 20 21  2  0
 21 40  1  0
 22 21  1  0
 22 25  1  0
 23 24  1  0
 23 20  1  0
 24 22  2  0
 25 26  1  0
 26 27  2  0
 28 31  1  0
 28 27  1  0
 29 28  2  0
 30 29  1  0
 30 25  2  0
 31 32  1  0
 32 37  2  0
 32 33  1  0
 33 34  2  0
 34 35  1  0
 35 39  1  0
 36 35  2  0
 37 36  1  0
 38 37  1  0
 40 41  1  0
 41 44  1  0
 41 43  1  0
 42 40  2  0
 45 20  1  0
 45 46  1  0
 47 45  1  0
 49 50  1  0
 49 48  1  0
 50 48  1  0
 51 52  1  0
 51  2  1  0
 53 64  2  0
 54 52  1  0
 54 59  1  0
 55 63  1  0
 55 65  1  0
 56 62  1  0
 56 58  1  0
 57 63  1  0
 58 57  1  0
 59 58  2  0
 60 54  2  0
 61 60  1  0
 61 56  2  0
 62 55  1  0
 63 53  1  0
 65 67  2  0
 66 65  1  0
 68 66  1  0
 69 78  2  0
 69 74  1  0
 70 66  1  0
 70 74  1  0
 71 70  1  0
 72 73  1  0
 72 71  1  0
 73 69  1  0
 74 75  2  0
 75 76  1  0
 77 76  2  0
 78 77  1  0
 79 53  1  0
 79 80  1  0
 79 89  1  0
 80 83  1  0
 81 85  1  0
 81 80  1  0
 82 81  2  0
 85 84  1  0
 87 88  1  0
 87 85  1  0
 87 86  1  0
 89 92  1  1
 89 90  1  0
 91 89  1  0
M  ISO  4   7 100  19 100  51 101  52 101
M  END
>  <TORSDO>  (74) 
F 18

>  <SCORE>  (74) 
-15.266

>  <name>  (74) 
73

>  <ligand_id>  (74) 
73

>  <original_smiles>  (74) 
[H]c1c([H])c([H])c2c(c1[H])C([H])([H])C([H])([H])C([H])([H])C2([H])N([H])C(=O)C1([H])N(C(=O)C([H])(N([H])C(=O)C([H])(N([H])C([H])([H])[H])C([H])([H])[H])C(C([H])([H])[H])(C([H])([H])[H])C([H])([H])[H])C([H])([H])c2c([H])c(OC([H])([H])c3c([H])[n+]([H])c(C4([H])C([H])([H])C4([H])[H])n3C3([H])C([H])([H])N(C(=O)N4C([H])([H])C([H])([H])C([H])([H])C([H])(n5nc(-c6c([H])c([H])c(Oc7c([H])c([H])c(F)c([H])c7F)c([H])c6[H])c(C(=O)N([H])[H])c5N([H])[H])C4([H])[H])C([H])([H])C3([H])[H])c([H])c([H])c2C1([H])[H]

>  <smiles>  (74) 
[H]c1c([H])c([H])c2c(c1[H])C([H])([H])C([H])([H])C([H])([H])C2([H])N([H])C(=O)C1([H])N(C(=O)C([H])(N([H])C(=O)C([H])(N([H])C([H])([H])[H])C([H])([H])[H])C(C([H])([H])[H])(C([H])([H])[H])C([H])([H])[H])C([H])([H])c2c([H])c(OC([H])([H])c3c([H])[n+]([H])c(C4([H])C([H])([H])C4([H])[H])n3C3([H])C([H])([H])N(C(=O)N4C([H])([H])C([H])([H])C([H])([H])C([H])(n5nc(-c6c([H])c([H])c(Oc7c([H])c([H])c(F)c([H])c7F)c([H])c6[H])c(C(=O)N([H])[H])c5N([H])[H])C4([H])[H])C([H])([H])C3([H])[H])c([H])c([H])c2C1([H])[H]

$$$$
74:0:0
     RDKit          3D

 93102  0  0  1  0  0  0  0  0999 V2000
  -31.1640  -24.6110   21.2820 C   0  0  0  0  0  2  0  0  0  0  0  0
  -30.7180  -23.9140   19.9970 C   0  0  0  0  0  2  0  0  0  0  0  0
  -29.6840  -24.9560   21.4790 C   0  0  0  0  0  3  0  0  0  0  0  0
  -29.3760  -23.7890   20.5810 N   0  0  2  0  0  4  0  0  0  0  0  0
  -28.6490  -24.0020   19.9110 H   0  0  0  0  0  0  0  0  0  0  0  0
  -29.2100  -26.4090   21.1160 C   0  0  0  0  0  2  0  0  0  0  0  0
  -28.3350  -26.5610   19.9940 O   0  0  0  0  0  0  0  0  0  0  0  0
  -24.5930  -31.8540   23.1920 C   0  0  0  0  0  0  0  0  0  0  0  0
  -27.2320  -27.3980   20.0840 C   0  0  0  0  0  0  0  0  0  0  0  0
  -23.3860  -30.4640   21.5440 C   0  0  0  0  0  3  0  0  0  0  0  0
  -24.8430  -28.9350   20.1130 C   0  0  0  0  0  0  0  0  0  0  0  0
  -25.9200  -30.8050   21.3610 C   0  0  0  0  0  2  0  0  0  0  0  0
  -26.0040  -29.4340   20.7150 C   0  0  0  0  0  0  0  0  0  0  0  0
  -27.2040  -28.6720   20.7110 C   0  0  0  0  0  3  0  0  0  0  0  0
  -26.0570  -26.9320   19.4630 C   0  0  0  0  0  3  0  0  0  0  0  0
  -24.8630  -27.6780   19.4860 C   0  0  0  0  0  3  0  0  0  0  0  0
  -23.5960  -29.7940   20.1630 C   0  0  0  0  0  2  0  0  0  0  0  0
  -24.6490  -31.0580   22.0890 N   0  0  0  0  0  0  0  0  0  0  0  0
  -23.5100  -32.1270   23.7320 O   0  0  0  0  0  0  0  0  0  0  0  0
  -22.7350  -29.4340   22.4950 C   0  0  0  0  0  0  0  0  0  0  0  0
  -21.4050  -29.2660   22.3790 N   0  0  0  0  0  0  0  0  0  0  0  0
  -23.4200  -28.7890   23.2920 O   0  0  0  0  0  0  0  0  0  0  0  0
  -20.9140  -29.8320   21.7020 H   0  0  0  0  0  0  0  0  0  0  0  0
  -18.0250  -28.0990   22.9100 C   0  0  0  0  0  0  0  0  0  0  0  0
  -20.5900  -28.3290   23.1500 C   0  0  0  0  0  3  0  0  0  0  0  0
  -20.6690  -26.9010   22.5560 C   0  0  0  0  0  2  0  0  0  0  0  0
  -19.5490  -26.6050   21.5550 C   0  0  0  0  0  2  0  0  0  0  0  0
  -18.1770  -26.7560   22.2170 C   0  0  0  0  0  2  0  0  0  0  0  0
  -19.1560  -28.8430   23.3360 C   0  0  0  0  0  0  0  0  0  0  0  0
  -18.9590  -30.1020   23.9470 C   0  0  0  0  0  3  0  0  0  0  0  0
  -17.6610  -30.6110   24.1360 C   0  0  0  0  0  3  0  0  0  0  0  0
  -16.5450  -29.8640   23.7260 C   0  0  0  0  0  3  0  0  0  0  0  0
  -16.7270  -28.6090   23.1170 C   0  0  0  0  0  3  0  0  0  0  0  0
  -25.8790  -32.4820   23.8120 C   0  0  0  0  0  3  0  0  0  0  0  0
  -26.4090  -31.6930   25.0730 C   0  0  1  0  0  0  0  0  0  0  0  0
  -25.3230  -31.4330   26.1470 C   0  0  0  0  0  1  0  0  0  0  0  0
  -26.9930  -30.3190   24.6660 C   0  0  0  0  0  1  0  0  0  0  0  0
  -27.5680  -32.4810   25.7280 C   0  0  0  0  0  1  0  0  0  0  0  0
  -25.5660  -33.8750   24.1610 N   0  0  0  0  0  0  0  0  0  0  0  0
  -25.8930  -34.9390   23.4110 C   0  0  0  0  0  0  0  0  0  0  0  0
  -26.5560  -34.8450   22.3750 O   0  0  0  0  0  0  0  0  0  0  0  0
  -24.9720  -34.0180   24.9630 H   0  0  0  0  0  0  0  0  0  0  0  0
  -24.1530  -36.7260   23.0850 C   0  0  0  0  0  1  0  0  0  0  0  0
  -25.4030  -36.3220   23.8830 C   0  0  0  0  0  3  0  0  0  0  0  0
  -27.5460  -37.1980   24.6990 C   0  0  0  0  0  1  0  0  0  0  0  0
  -26.4330  -37.3760   23.7690 N   0  0  0  0  0  0  0  0  0  0  0  0
  -26.0320  -38.2960   23.9300 H   0  0  0  0  0  0  0  0  0  0  0  0
  -29.1140  -22.4850   21.3090 C   0  0  0  0  0  2  0  0  0  0  0  0
  -29.0490  -21.1260   20.4950 C   0  0  0  0  0  2  0  0  0  0  0  0
  -29.8320  -19.9630   21.2110 C   0  0  0  0  0  2  0  0  0  0  0  0
  -30.7780  -14.4900   19.9790 C   0  0  0  0  0  0  0  0  0  0  0  0
  -30.3630  -12.2830   18.9430 C   0  0  0  0  0  2  0  0  0  0  0  0
  -29.3800  -12.4700   17.7690 C   0  0  0  0  0  2  0  0  0  0  0  0
  -27.9340  -12.3250   18.2860 C   0  0  0  0  0  2  0  0  0  0  0  0
  -27.6520  -13.2240   19.5220 C   0  0  0  0  0  3  0  0  0  0  0  0
  -28.7670  -13.0650   20.5850 C   0  0  0  0  0  2  0  0  0  0  0  0
  -30.0590  -13.3280   19.9360 N   0  0  0  0  0  0  0  0  0  0  0  0
  -31.9120  -14.5810   19.5020 O   0  0  0  0  0  0  0  0  0  0  0  0
  -29.9300  -16.1240   21.5920 C   0  0  0  0  0  2  0  0  0  0  0  0
  -29.8780  -16.6170   19.1150 C   0  0  0  0  0  2  0  0  0  0  0  0
  -30.2760  -17.6220   21.7840 C   0  0  0  0  0  2  0  0  0  0  0  0
  -30.1280  -18.1320   19.4370 C   0  0  0  0  0  2  0  0  0  0  0  0
  -30.0700  -15.6280   20.2120 N   0  0  0  0  0  0  0  0  0  0  0  0
  -29.6350  -18.5240   20.7880 N   0  0  2  0  0  4  0  0  0  0  0  0
  -28.6400  -18.3340   20.8130 H   0  0  0  0  0  0  0  0  0  0  0  0
  -25.3130  -13.8690   20.3810 C   0  0  0  0  0  0  0  0  0  0  0  0
  -24.2460  -13.1150   20.7900 C   0  0  0  0  0  0  0  0  0  0  0  0
  -24.6770  -11.7550   20.7170 C   0  0  0  0  0  0  0  0  0  0  0  0
  -26.3230  -12.9710   20.0790 N   0  0  0  0  0  0  0  0  0  0  0  0
  -25.9470  -11.6930   20.3390 N   0  0  0  0  0  0  0  0  0  0  0  0
  -23.9370  -10.5050   20.9270 C   0  0  0  0  0  0  0  0  0  0  0  0
  -24.3730   -9.5290   21.8520 C   0  0  0  0  0  3  0  0  0  0  0  0
  -23.6290   -8.3460   22.0510 C   0  0  0  0  0  3  0  0  0  0  0  0
  -22.4370   -8.1280   21.3210 C   0  0  0  0  0  0  0  0  0  0  0  0
  -22.0200   -9.0890   20.3830 C   0  0  0  0  0  3  0  0  0  0  0  0
  -22.7630  -10.2650   20.1840 C   0  0  0  0  0  3  0  0  0  0  0  0
  -21.6680   -6.9940   21.4290 O   0  0  0  0  0  0  0  0  0  0  0  0
  -21.6070   -6.2740   22.5950 C   0  0  0  0  0  0  0  0  0  0  0  0
  -21.1920   -6.8610   23.8110 C   0  0  0  0  0  3  0  0  0  0  0  0
  -21.0720   -6.0690   24.9700 C   0  0  0  0  0  3  0  0  0  0  0  0
  -21.3610   -4.6940   24.9150 C   0  0  0  0  0  0  0  0  0  0  0  0
  -21.7700   -4.1060   23.7060 C   0  0  0  0  0  3  0  0  0  0  0  0
  -21.8910   -4.8940   22.5480 C   0  0  0  0  0  0  0  0  0  0  0  0
  -22.2670   -4.3210   21.3800 F   0  0  0  0  0  0  0  0  0  0  0  0
  -21.2390   -3.9310   26.0250 F   0  0  0  0  0  0  0  0  0  0  0  0
  -22.8740  -13.6210   21.1360 C   0  0  0  0  0  0  0  0  0  0  0  0
  -22.1720  -12.9400   22.0350 N   0  0  0  0  0  0  0  0  0  0  0  0
  -22.4340  -14.6610   20.6480 O   0  0  0  0  0  0  0  0  0  0  0  0
  -22.5390  -12.1080   22.4700 H   0  0  0  0  0  0  0  0  0  0  0  0
  -21.2520  -13.2710   22.2880 H   0  0  0  0  0  0  0  0  0  0  0  0
  -25.5000  -15.2370   20.2130 N   0  0  0  0  0  0  0  0  0  0  0  0
  -24.7600  -15.9080   20.3800 H   0  0  0  0  0  0  0  0  0  0  0  0
  -26.3380  -15.6510   19.8290 H   0  0  0  0  0  0  0  0  0  0  0  0
  1  3  1  0
  2  4  1  0
  2  1  1  0
  3  6  1  0
  4 48  1  0
  4  3  1  0
  4  5  1  6
  7  9  1  0
  7  6  1  0
  8 19  2  0
  9 14  1  0
 10 18  1  0
 10 20  1  0
 11 17  1  0
 11 13  1  0
 12 18  1  0
 13 12  1  0
 14 13  2  0
 15 16  1  0
 15  9  2  0
 16 11  2  0
 17 10  1  0
 18  8  1  0
 20 22  2  0
 21 20  1  0
 23 21  1  0
 24 33  2  0
 24 29  1  0
 25 21  1  0
 25 29  1  0
 26 25  1  0
 27 28  1  0
 27 26  1  0
 28 24  1  0
 29 30  2  0
 30 31  1  0
 32 31  2  0
 33 32  1  0
 34  8  1  0
 34 39  1  0
 34 35  1  0
 35 38  1  1
 35 36  1  0
 37 35  1  0
 39 42  1  0
 40 44  1  0
 40 39  1  0
 41 40  2  0
 44 43  1  0
 46 44  1  0
 46 47  1  0
 46 45  1  0
 49 50  1  0
 49 48  1  0
 51 63  1  0
 52 57  1  0
 53 54  1  0
 53 52  1  0
 55 54  1  0
 55 69  1  0
 55 56  1  0
 57 51  1  0
 57 56  1  0
 58 51  2  0
 59 61  1  0
 60 62  1  0
 60 63  1  0
 62 64  1  0
 63 59  1  0
 64 65  1  6
 64 50  1  0
 64 61  1  0
 66 67  2  0
 67 86  1  0
 68 67  1  0
 68 71  1  0
 69 70  1  0
 69 66  1  0
 70 68  2  0
 71 72  1  0
 72 73  2  0
 74 77  1  0
 74 73  1  0
 75 74  2  0
 76 75  1  0
 76 71  2  0
 77 78  1  0
 78 79  1  0
 79 80  2  0
 81 80  1  0
 81 85  1  0
 82 81  2  0
 83 78  2  0
 83 82  1  0
 84 83  1  0
 86 87  1  0
 87 90  1  0
 87 89  1  0
 88 86  2  0
 91 92  1  0
 91 66  1  0
 93 91  1  0
M  ISO  4   6 101   7 101  51 100  63 100
M  END
>  <TORSDO>  (75) 
F 20

>  <SCORE>  (75) 
-13.698

>  <name>  (75) 
74

>  <ligand_id>  (75) 
74

>  <original_smiles>  (75) 
[H]c1c([H])c([H])c2c(c1[H])C([H])([H])C([H])([H])C([H])([H])C2([H])N([H])C(=O)C1([H])N(C(=O)C([H])(N([H])C(=O)C([H])(N([H])C([H])([H])[H])C([H])([H])[H])C(C([H])([H])[H])(C([H])([H])[H])C([H])([H])[H])C([H])([H])c2c([H])c(OC([H])([H])C3([H])C([H])([H])C([H])([H])[N+]3([H])C([H])([H])C([H])([H])C([H])([H])[N+]3([H])C([H])([H])C([H])([H])N(C(=O)N4C([H])([H])C([H])([H])C([H])([H])C([H])(n5nc(-c6c([H])c([H])c(Oc7c([H])c([H])c(F)c([H])c7F)c([H])c6[H])c(C(=O)N([H])[H])c5N([H])[H])C4([H])[H])C([H])([H])C3([H])[H])c([H])c([H])c2C1([H])[H]

>  <smiles>  (75) 
[H]c1c([H])c([H])c2c(c1[H])C([H])([H])C([H])([H])C([H])([H])C2([H])N([H])C(=O)C1([H])N(C(=O)C([H])(N([H])C(=O)C([H])(N([H])C([H])([H])[H])C([H])([H])[H])C(C([H])([H])[H])(C([H])([H])[H])C([H])([H])[H])C([H])([H])c2c([H])c(OC([H])([H])C3([H])C([H])([H])C([H])([H])[N+]3([H])C([H])([H])C([H])([H])C([H])([H])[N+]3([H])C([H])([H])C([H])([H])N(C(=O)N4C([H])([H])C([H])([H])C([H])([H])C([H])(n5nc(-c6c([H])c([H])c(Oc7c([H])c([H])c(F)c([H])c7F)c([H])c6[H])c(C(=O)N([H])[H])c5N([H])[H])C4([H])[H])C([H])([H])C3([H])[H])c([H])c([H])c2C1([H])[H]

$$$$
75:0:0
     RDKit          3D

105114  0  0  1  0  0  0  0  0999 V2000
  -27.7080  -22.0010   21.9380 N   0  0  0  0  0  4  0  0  0  0  0  0
  -26.8580  -22.4490   21.6410 H   0  0  0  0  0  0  0  0  0  0  0  0
  -27.5150  -21.6040   22.8430 H   0  0  0  0  0  0  0  0  0  0  0  0
  -28.7630  -23.0430   22.0650 C   0  0  0  0  0  2  0  0  0  0  0  0
  -27.7490  -26.5740   20.8880 C   0  0  0  0  0  3  0  0  0  0  0  0
  -27.9230  -25.4560   21.7190 C   0  0  0  0  0  0  0  0  0  0  0  0
  -28.5320  -24.2910   21.1830 C   0  0  0  0  0  0  0  0  0  0  0  0
  -28.1600  -26.5190   19.5400 C   0  0  0  0  0  0  0  0  0  0  0  0
  -28.9440  -24.3530   19.8230 C   0  0  0  0  0  0  0  0  0  0  0  0
  -27.4440  -25.5430   23.1600 C   0  0  0  0  0  1  0  0  0  0  0  0
  -28.7660  -25.4330   19.0270 N   0  0  0  0  0  0  0  0  0  0  0  0
  -29.6600  -22.9720   19.0730 Cl  0  0  0  0  0  0  0  0  0  0  0  0
  -27.9460  -27.5580   18.6460 O   0  0  0  0  0  0  0  0  0  0  0  0
  -24.8630  -31.4020   23.7050 C   0  0  0  0  0  0  0  0  0  0  0  0
  -26.8850  -28.3750   18.9450 C   0  0  0  0  0  0  0  0  0  0  0  0
  -23.4070  -30.7120   21.8300 C   0  0  0  0  0  3  0  0  0  0  0  0
  -24.6040  -29.8070   19.7670 C   0  0  0  0  0  0  0  0  0  0  0  0
  -25.9110  -31.1020   21.4630 C   0  0  0  0  0  2  0  0  0  0  0  0
  -25.8480  -30.0720   20.3570 C   0  0  0  0  0  0  0  0  0  0  0  0
  -26.9960  -29.3710   19.9380 C   0  0  0  0  0  3  0  0  0  0  0  0
  -25.6350  -28.1340   18.3410 C   0  0  0  0  0  3  0  0  0  0  0  0
  -24.4920  -28.8400   18.7510 C   0  0  0  0  0  3  0  0  0  0  0  0
  -23.4160  -30.5820   20.2820 C   0  0  0  0  0  2  0  0  0  0  0  0
  -24.7520  -31.0640   22.3890 N   0  0  0  0  0  0  0  0  0  0  0  0
  -23.8670  -31.4710   24.4390 O   0  0  0  0  0  0  0  0  0  0  0  0
  -22.8120  -29.4190   22.4310 C   0  0  0  0  0  0  0  0  0  0  0  0
  -21.4890  -29.2450   22.2800 N   0  0  0  0  0  0  0  0  0  0  0  0
  -23.5290  -28.5860   22.9920 O   0  0  0  0  0  0  0  0  0  0  0  0
  -20.9590  -29.9690   21.8120 H   0  0  0  0  0  0  0  0  0  0  0  0
  -18.1920  -27.7690   22.2960 C   0  0  0  0  0  0  0  0  0  0  0  0
  -20.7240  -28.0830   22.7230 C   0  0  0  0  0  3  0  0  0  0  0  0
  -20.9290  -26.8890   21.7620 C   0  0  0  0  0  2  0  0  0  0  0  0
  -19.8620  -26.7810   20.6680 C   0  0  0  0  0  2  0  0  0  0  0  0
  -18.4580  -26.6780   21.2720 C   0  0  0  0  0  2  0  0  0  0  0  0
  -19.2520  -28.4410   22.9610 C   0  0  0  0  0  0  0  0  0  0  0  0
  -18.9430  -29.4780   23.8710 C   0  0  0  0  0  3  0  0  0  0  0  0
  -17.6070  -29.8430   24.1180 C   0  0  0  0  0  3  0  0  0  0  0  0
  -16.5620  -29.1700   23.4650 C   0  0  0  0  0  3  0  0  0  0  0  0
  -16.8550  -28.1320   22.5600 C   0  0  0  0  0  3  0  0  0  0  0  0
  -26.2450  -31.7470   24.3420 C   0  0  0  0  0  3  0  0  0  0  0  0
  -26.0930  -33.0160   25.0660 N   0  0  0  0  0  0  0  0  0  0  0  0
  -26.5430  -34.2000   24.6250 C   0  0  0  0  0  0  0  0  0  0  0  0
  -27.1980  -34.3260   23.5870 O   0  0  0  0  0  0  0  0  0  0  0  0
  -25.5170  -32.9990   25.8960 H   0  0  0  0  0  0  0  0  0  0  0  0
  -25.0460  -36.2150   24.8160 C   0  0  0  0  0  1  0  0  0  0  0  0
  -26.2090  -35.4470   25.4680 C   0  0  0  0  0  3  0  0  0  0  0  0
  -28.4070  -35.7880   26.5030 C   0  0  0  0  0  1  0  0  0  0  0  0
  -27.3630  -36.3550   25.6540 N   0  0  0  0  0  0  0  0  0  0  0  0
  -27.0650  -37.2360   26.0680 H   0  0  0  0  0  0  0  0  0  0  0  0
  -26.7850  -30.6210   25.3060 C   0  0  1  0  0  0  0  0  0  0  0  0
  -25.7620  -30.1630   26.3720 C   0  0  0  0  0  1  0  0  0  0  0  0
  -27.2130  -29.3750   24.4960 C   0  0  0  0  0  1  0  0  0  0  0  0
  -28.0470  -31.1260   26.0460 C   0  0  0  0  0  1  0  0  0  0  0  0
  -28.0070  -20.9170   20.9730 C   0  0  0  0  0  2  0  0  0  0  0  0
  -28.6370  -19.6360   21.5860 C   0  0  0  0  0  2  0  0  0  0  0  0
  -30.0780  -17.9010   20.5320 C   0  0  0  0  0  0  0  0  0  0  0  0
  -29.0090  -18.7190   20.5010 N   0  0  0  0  0  0  0  0  0  0  0  0
  -30.4570  -17.3860   21.5840 O   0  0  0  0  0  0  0  0  0  0  0  0
  -28.6430  -18.9700   19.5940 H   0  0  0  0  0  0  0  0  0  0  0  0
  -32.7920  -16.7970   17.8620 C   0  0  0  0  0  2  0  0  0  0  0  0
  -32.1060  -17.2920   16.5730 C   0  0  0  0  0  2  0  0  0  0  0  0
  -30.2180  -18.1470   17.9480 C   0  0  0  0  0  2  0  0  0  0  0  0
  -30.9620  -17.7850   19.2550 C   0  0  0  0  0  3  0  0  0  0  0  0
  -31.7650  -16.4800   18.9920 C   0  0  0  0  0  3  0  0  0  0  0  0
  -30.4200  -18.7980   15.5970 C   0  0  0  0  0  1  0  0  0  0  0  0
  -31.1560  -18.4110   16.8230 N   0  0  2  0  0  4  0  0  0  0  0  0
  -31.7190  -19.2090   17.0820 H   0  0  0  0  0  0  0  0  0  0  0  0
  -32.9340  -14.6210   20.0610 C   0  0  0  0  0  0  0  0  0  0  0  0
  -32.4680  -12.2790   19.4830 C   0  0  0  0  0  2  0  0  0  0  0  0
  -31.6040  -12.1890   18.2160 C   0  0  0  0  0  2  0  0  0  0  0  0
  -30.1070  -12.2060   18.5810 C   0  0  0  0  0  2  0  0  0  0  0  0
  -29.7440  -13.3810   19.5250 C   0  0  0  0  0  3  0  0  0  0  0  0
  -30.7500  -13.5100   20.6990 C   0  0  0  0  0  2  0  0  0  0  0  0
  -32.1170  -13.5370   20.1540 N   0  0  0  0  0  0  0  0  0  0  0  0
  -34.1090  -14.5600   19.7090 O   0  0  0  0  0  0  0  0  0  0  0  0
  -32.3670  -15.8250   20.1690 N   0  0  0  0  0  0  0  0  0  0  0  0
  -32.9770  -16.4590   20.6660 H   0  0  0  0  0  0  0  0  0  0  0  0
  -27.4430  -14.3500   20.1380 C   0  0  0  0  0  0  0  0  0  0  0  0
  -26.2760  -13.7480   20.5150 C   0  0  0  0  0  0  0  0  0  0  0  0
  -26.5520  -12.3440   20.5610 C   0  0  0  0  0  0  0  0  0  0  0  0
  -28.3650  -13.3230   19.9810 N   0  0  0  0  0  0  0  0  0  0  0  0
  -27.8320  -12.1170   20.2940 N   0  0  0  0  0  0  0  0  0  0  0  0
  -25.6600  -11.2020   20.7730 C   0  0  0  0  0  0  0  0  0  0  0  0
  -25.8360  -10.3250   21.8670 C   0  0  0  0  0  3  0  0  0  0  0  0
  -24.9570   -9.2390   22.0640 C   0  0  0  0  0  3  0  0  0  0  0  0
  -23.8870   -9.0230   21.1630 C   0  0  0  0  0  0  0  0  0  0  0  0
  -23.7280   -9.8850   20.0640 C   0  0  0  0  0  3  0  0  0  0  0  0
  -24.6080  -10.9620   19.8680 C   0  0  0  0  0  3  0  0  0  0  0  0
  -22.9920   -7.9870   21.2640 O   0  0  0  0  0  0  0  0  0  0  0  0
  -22.5020   -7.5740   22.4770 C   0  0  0  0  0  0  0  0  0  0  0  0
  -21.8630   -8.4670   23.3630 C   0  0  0  0  0  3  0  0  0  0  0  0
  -21.3160   -7.9900   24.5720 C   0  0  0  0  0  3  0  0  0  0  0  0
  -21.3910   -6.6180   24.8860 C   0  0  0  0  0  0  0  0  0  0  0  0
  -22.0210   -5.7270   24.0010 C   0  0  0  0  0  3  0  0  0  0  0  0
  -22.5720   -6.2040   22.7990 C   0  0  0  0  0  0  0  0  0  0  0  0
  -23.1610   -5.3370   21.9400 F   0  0  0  0  0  0  0  0  0  0  0  0
  -20.8560   -6.1590   26.0400 F   0  0  0  0  0  0  0  0  0  0  0  0
  -24.9460  -14.4140   20.7130 C   0  0  0  0  0  0  0  0  0  0  0  0
  -24.1170  -13.8890   21.6080 N   0  0  0  0  0  0  0  0  0  0  0  0
  -24.6510  -15.4420   20.0990 O   0  0  0  0  0  0  0  0  0  0  0  0
  -24.3620  -13.0560   22.1260 H   0  0  0  0  0  0  0  0  0  0  0  0
  -23.2150  -14.3170   21.7700 H   0  0  0  0  0  0  0  0  0  0  0  0
  -27.7840  -15.6790   19.8740 N   0  0  0  0  0  0  0  0  0  0  0  0
  -27.0100  -16.3260   19.7690 H   0  0  0  0  0  0  0  0  0  0  0  0
  -28.5190  -15.8720   19.2100 H   0  0  0  0  0  0  0  0  0  0  0  0
  1  4  1  0
  1  3  1  0
  2  1  1  0
  5  6  2  0
  6 10  1  0
  7  6  1  0
  7  4  1  0
  8  5  1  0
  9  7  2  0
 11  8  2  0
 11  9  1  0
 12  9  1  0
 13 15  1  0
 13  8  1  0
 14 25  2  0
 15 20  1  0
 16 24  1  0
 16 26  1  0
 17 23  1  0
 17 19  1  0
 18 24  1  0
 19 18  1  0
 20 19  2  0
 21 22  1  0
 21 15  2  0
 22 17  2  0
 23 16  1  0
 24 14  1  0
 26 28  2  0
 27 26  1  0
 29 27  1  0
 30 39  2  0
 30 35  1  0
 31 27  1  0
 31 35  1  0
 32 31  1  0
 33 34  1  0
 33 32  1  0
 34 30  1  0
 35 36  2  0
 36 37  1  0
 38 37  2  0
 39 38  1  0
 40 14  1  0
 40 41  1  0
 40 50  1  0
 41 44  1  0
 42 41  1  0
 42 46  1  0
 43 42  2  0
 46 45  1  0
 46 48  1  0
 48 49  1  0
 48 47  1  0
 50 53  1  1
 50 51  1  0
 52 50  1  0
 54 55  1  0
 54  1  1  0
 56 58  2  0
 57 56  1  0
 57 55  1  0
 59 57  1  0
 60 64  1  0
 61 66  1  0
 61 60  1  0
 62 63  1  0
 63 56  1  0
 64 63  1  0
 64 76  1  0
 65 66  1  0
 66 67  1  1
 66 62  1  0
 68 74  1  0
 68 76  1  0
 69 74  1  0
 70 71  1  0
 70 69  1  0
 72 71  1  0
 72 81  1  0
 72 73  1  0
 74 73  1  0
 75 68  2  0
 76 77  1  0
 78 79  2  0
 79 80  1  0
 79 98  1  0
 80 83  1  0
 81 78  1  0
 81 82  1  0
 82 80  2  0
 83 84  1  0
 84 85  2  0
 86 89  1  0
 86 85  1  0
 87 86  2  0
 88 87  1  0
 88 83  2  0
 89 90  1  0
 90 95  2  0
 90 91  1  0
 91 92  2  0
 92 93  1  0
 93 97  1  0
 94 93  2  0
 95 94  1  0
 96 95  1  0
 98 99  1  0
 99102  1  0
 99101  1  0
100 98  2  0
103 78  1  0
104103  1  0
105103  1  0
M  ISO  4   8 101  13 101  68 100  76 100
M  END
>  <TORSDO>  (76) 
F 22

>  <SCORE>  (76) 
-7.244

>  <name>  (76) 
75

>  <ligand_id>  (76) 
75

>  <original_smiles>  (76) 
[H]c1c([H])c([H])c2c(c1[H])C([H])([H])C([H])([H])C([H])([H])C2([H])N([H])C(=O)C1([H])N(C(=O)C([H])(N([H])C(=O)C([H])(N([H])C([H])([H])[H])C([H])([H])[H])C(C([H])([H])[H])(C([H])([H])[H])C([H])([H])[H])C([H])([H])c2c([H])c(Oc3nc(Cl)c(C([H])([H])[N+]([H])([H])C([H])([H])C([H])([H])N([H])C(=O)C4([H])C([H])(N([H])C(=O)N5C([H])([H])C([H])([H])C([H])([H])C([H])(n6nc(-c7c([H])c([H])c(Oc8c([H])c([H])c(F)c([H])c8F)c([H])c7[H])c(C(=O)N([H])[H])c6N([H])[H])C5([H])[H])C([H])([H])C([H])([H])[N+]([H])(C([H])([H])[H])C4([H])[H])c(C([H])([H])[H])c3[H])c([H])c([H])c2C1([H])[H]

>  <smiles>  (76) 
[H]c1c([H])c([H])c2c(c1[H])C([H])([H])C([H])([H])C([H])([H])C2([H])N([H])C(=O)C1([H])N(C(=O)C([H])(N([H])C(=O)C([H])(N([H])C([H])([H])[H])C([H])([H])[H])C(C([H])([H])[H])(C([H])([H])[H])C([H])([H])[H])C([H])([H])c2c([H])c(Oc3nc(Cl)c(C([H])([H])[N+]([H])([H])C([H])([H])C([H])([H])N([H])C(=O)C4([H])C([H])(N([H])C(=O)N5C([H])([H])C([H])([H])C([H])([H])C([H])(n6nc(-c7c([H])c([H])c(Oc8c([H])c([H])c(F)c([H])c8F)c([H])c7[H])c(C(=O)N([H])[H])c6N([H])[H])C5([H])[H])C([H])([H])C([H])([H])[N+]([H])(C([H])([H])[H])C4([H])[H])c(C([H])([H])[H])c3[H])c([H])c([H])c2C1([H])[H]

$$$$
76:0:0
     RDKit          3D

 92101  0  0  1  0  0  0  0  0999 V2000
  -29.6230  -22.7860   19.6440 C   0  0  0  0  0  3  0  0  0  0  0  0
  -28.7160  -23.9180   19.7720 C   0  0  0  0  0  0  0  0  0  0  0  0
  -29.2070  -21.4500   19.9990 C   0  0  0  0  0  0  0  0  0  0  0  0
  -27.1700  -22.3790   20.5510 C   0  0  0  0  0  0  0  0  0  0  0  0
  -25.7520  -22.1100   21.0140 C   0  0  0  0  0  1  0  0  0  0  0  0
  -27.4800  -23.6460   20.2470 N   0  0  0  0  0  0  0  0  0  0  0  0
  -27.9540  -21.3010   20.4460 N   0  0  0  0  0  0  0  0  0  0  0  0
  -30.0080  -20.2380   19.9020 N   0  0  0  0  0  0  0  0  0  0  0  0
  -30.9610  -20.3690   19.5850 H   0  0  0  0  0  0  0  0  0  0  0  0
  -30.9560  -15.1060   19.9950 C   0  0  0  0  0  0  0  0  0  0  0  0
  -30.7010  -12.8380   18.9670 C   0  0  0  0  0  2  0  0  0  0  0  0
  -29.7090  -12.9170   17.7850 C   0  0  0  0  0  2  0  0  0  0  0  0
  -28.2550  -12.7550   18.2720 C   0  0  0  0  0  2  0  0  0  0  0  0
  -27.9410  -13.6250   19.5190 C   0  0  0  0  0  3  0  0  0  0  0  0
  -29.0480  -13.4960   20.5870 C   0  0  0  0  0  2  0  0  0  0  0  0
  -30.3100  -13.8840   19.9430 N   0  0  0  0  0  0  0  0  0  0  0  0
  -32.1170  -15.1770   19.5750 O   0  0  0  0  0  0  0  0  0  0  0  0
  -29.5970  -18.2440   21.5170 C   0  0  0  0  0  2  0  0  0  0  0  0
  -29.5500  -16.6890   21.3970 C   0  0  0  0  0  2  0  0  0  0  0  0
  -30.4090  -17.5990   19.4100 C   0  0  0  0  0  2  0  0  0  0  0  0
  -29.5710  -18.7830   20.0840 C   0  0  0  0  0  3  0  0  0  0  0  0
  -30.2140  -16.2850   20.1480 N   0  0  0  0  0  0  0  0  0  0  0  0
  -25.5980  -14.2280   20.3750 C   0  0  0  0  0  0  0  0  0  0  0  0
  -24.5340  -13.4580   20.7570 C   0  0  0  0  0  0  0  0  0  0  0  0
  -24.9750  -12.1020   20.6620 C   0  0  0  0  0  0  0  0  0  0  0  0
  -26.6170  -13.3420   20.0620 N   0  0  0  0  0  0  0  0  0  0  0  0
  -26.2510  -12.0550   20.2970 N   0  0  0  0  0  0  0  0  0  0  0  0
  -24.2370  -10.8450   20.8440 C   0  0  0  0  0  0  0  0  0  0  0  0
  -24.6360   -9.8830   21.7970 C   0  0  0  0  0  3  0  0  0  0  0  0
  -23.8980   -8.6930   21.9650 C   0  0  0  0  0  3  0  0  0  0  0  0
  -22.7460   -8.4540   21.1790 C   0  0  0  0  0  0  0  0  0  0  0  0
  -22.3660   -9.4050   20.2150 C   0  0  0  0  0  3  0  0  0  0  0  0
  -23.1050  -10.5880   20.0460 C   0  0  0  0  0  3  0  0  0  0  0  0
  -21.9820   -7.3130   21.2560 O   0  0  0  0  0  0  0  0  0  0  0  0
  -21.8260   -6.6330   22.4350 C   0  0  0  0  0  0  0  0  0  0  0  0
  -21.2680   -7.2420   23.5800 C   0  0  0  0  0  3  0  0  0  0  0  0
  -21.0620   -6.4850   24.7510 C   0  0  0  0  0  3  0  0  0  0  0  0
  -21.3990   -5.1180   24.7730 C   0  0  0  0  0  0  0  0  0  0  0  0
  -21.9460   -4.5070   23.6310 C   0  0  0  0  0  3  0  0  0  0  0  0
  -22.1550   -5.2620   22.4640 C   0  0  0  0  0  0  0  0  0  0  0  0
  -22.6630   -4.6640   21.3590 F   0  0  0  0  0  0  0  0  0  0  0  0
  -21.1930   -4.3870   25.8940 F   0  0  0  0  0  0  0  0  0  0  0  0
  -23.1580  -13.9480   21.0990 C   0  0  0  0  0  0  0  0  0  0  0  0
  -22.4630  -13.2540   21.9920 N   0  0  0  0  0  0  0  0  0  0  0  0
  -22.7110  -14.9860   20.6110 O   0  0  0  0  0  0  0  0  0  0  0  0
  -22.8310  -12.4120   22.4090 H   0  0  0  0  0  0  0  0  0  0  0  0
  -21.5450  -13.5740   22.2650 H   0  0  0  0  0  0  0  0  0  0  0  0
  -25.7700  -15.6020   20.2510 N   0  0  0  0  0  0  0  0  0  0  0  0
  -25.0210  -16.2470   20.4780 H   0  0  0  0  0  0  0  0  0  0  0  0
  -26.6380  -16.0640   20.0160 H   0  0  0  0  0  0  0  0  0  0  0  0
  -28.9620  -25.3970   19.1670 C   0  0  0  0  0  2  0  0  0  0  0  0
  -28.7230  -26.7070   19.8880 O   0  0  0  0  0  0  0  0  0  0  0  0
  -24.6700  -31.8370   23.0370 C   0  0  0  0  0  0  0  0  0  0  0  0
  -27.5580  -27.5140   19.8110 C   0  0  0  0  0  0  0  0  0  0  0  0
  -23.5560  -30.4310   21.3420 C   0  0  0  0  0  3  0  0  0  0  0  0
  -25.1000  -29.0250   19.8510 C   0  0  0  0  0  0  0  0  0  0  0  0
  -26.0760  -30.8970   21.1810 C   0  0  0  0  0  2  0  0  0  0  0  0
  -26.2380  -29.5480   20.4740 C   0  0  0  0  0  0  0  0  0  0  0  0
  -27.4620  -28.8030   20.4460 C   0  0  0  0  0  3  0  0  0  0  0  0
  -26.3930  -27.0570   19.1600 C   0  0  0  0  0  3  0  0  0  0  0  0
  -25.1870  -27.7910   19.1810 C   0  0  0  0  0  3  0  0  0  0  0  0
  -23.8100  -29.8210   19.9370 C   0  0  0  0  0  2  0  0  0  0  0  0
  -24.7860  -31.0750   21.9100 N   0  0  0  0  0  0  0  0  0  0  0  0
  -23.5720  -32.0270   23.5800 O   0  0  0  0  0  0  0  0  0  0  0  0
  -22.9570  -29.3430   22.2670 C   0  0  0  0  0  0  0  0  0  0  0  0
  -21.6400  -29.1030   22.1480 N   0  0  0  0  0  0  0  0  0  0  0  0
  -23.6770  -28.7190   23.0520 O   0  0  0  0  0  0  0  0  0  0  0  0
  -21.1150  -29.6640   21.4930 H   0  0  0  0  0  0  0  0  0  0  0  0
  -18.3310  -27.7270   22.6580 C   0  0  0  0  0  0  0  0  0  0  0  0
  -20.8810  -28.0900   22.8850 C   0  0  0  0  0  3  0  0  0  0  0  0
  -21.0320  -26.6980   22.2300 C   0  0  0  0  0  2  0  0  0  0  0  0
  -19.9220  -26.3790   21.2230 C   0  0  0  0  0  2  0  0  0  0  0  0
  -18.5510  -26.4260   21.9030 C   0  0  0  0  0  2  0  0  0  0  0  0
  -19.4250  -28.5160   23.1030 C   0  0  0  0  0  0  0  0  0  0  0  0
  -19.1630  -29.7330   23.7690 C   0  0  0  0  0  3  0  0  0  0  0  0
  -17.8410  -30.1610   23.9940 C   0  0  0  0  0  3  0  0  0  0  0  0
  -16.7630  -29.3710   23.5630 C   0  0  0  0  0  3  0  0  0  0  0  0
  -17.0090  -28.1540   22.8990 C   0  0  0  0  0  3  0  0  0  0  0  0
  -25.9110  -32.5290   23.6850 C   0  0  0  0  0  3  0  0  0  0  0  0
  -25.5220  -33.8980   24.0510 N   0  0  0  0  0  0  0  0  0  0  0  0
  -25.8050  -34.9930   23.3330 C   0  0  0  0  0  0  0  0  0  0  0  0
  -26.4930  -34.9620   22.3110 O   0  0  0  0  0  0  0  0  0  0  0  0
  -24.9190  -33.9980   24.8550 H   0  0  0  0  0  0  0  0  0  0  0  0
  -23.9920  -36.7020   23.0050 C   0  0  0  0  0  1  0  0  0  0  0  0
  -25.2340  -36.3350   23.8310 C   0  0  0  0  0  3  0  0  0  0  0  0
  -27.2970  -37.3050   24.7440 C   0  0  0  0  0  1  0  0  0  0  0  0
  -26.2100  -37.4460   23.7790 N   0  0  0  0  0  0  0  0  0  0  0  0
  -25.7490  -38.3370   23.9460 H   0  0  0  0  0  0  0  0  0  0  0  0
  -26.4610  -31.7590   24.9490 C   0  0  1  0  0  0  0  0  0  0  0  0
  -25.3720  -31.4410   25.9990 C   0  0  0  0  0  1  0  0  0  0  0  0
  -27.1200  -30.4240   24.5330 C   0  0  0  0  0  1  0  0  0  0  0  0
  -27.5600  -32.6020   25.6380 C   0  0  0  0  0  1  0  0  0  0  0  0
  1  2  2  0
  1  3  1  0
  2  6  1  0
  3  7  2  0
  4  5  1  0
  6  4  2  0
  7  4  1  0
  8  3  1  0
  9  8  1  0
 10 22  1  0
 11 16  1  0
 12 13  1  0
 12 11  1  0
 14 13  1  0
 14 26  1  0
 14 15  1  0
 16 10  1  0
 16 15  1  0
 17 10  2  0
 19 18  1  0
 20 21  1  0
 20 22  1  0
 21  8  1  0
 21 18  1  0
 22 19  1  0
 23 24  2  0
 24 43  1  0
 25 24  1  0
 25 28  1  0
 26 27  1  0
 26 23  1  0
 27 25  2  0
 28 29  1  0
 29 30  2  0
 31 34  1  0
 31 30  1  0
 32 31  2  0
 33 32  1  0
 33 28  2  0
 34 35  1  0
 35 40  2  0
 35 36  1  0
 36 37  2  0
 37 38  1  0
 38 42  1  0
 39 38  2  0
 40 39  1  0
 41 40  1  0
 43 44  1  0
 44 47  1  0
 44 46  1  0
 45 43  2  0
 48 23  1  0
 48 49  1  0
 50 48  1  0
 51  2  1  0
 51 52  1  0
 53 64  2  0
 54 52  1  0
 54 59  1  0
 55 63  1  0
 55 65  1  0
 56 62  1  0
 56 58  1  0
 57 63  1  0
 58 57  1  0
 59 58  2  0
 60 61  1  0
 60 54  2  0
 61 56  2  0
 62 55  1  0
 63 53  1  0
 65 67  2  0
 66 65  1  0
 68 66  1  0
 69 78  2  0
 69 74  1  0
 70 66  1  0
 70 74  1  0
 71 70  1  0
 72 73  1  0
 72 71  1  0
 73 69  1  0
 74 75  2  0
 75 76  1  0
 77 76  2  0
 78 77  1  0
 79 53  1  0
 79 80  1  0
 79 89  1  0
 80 83  1  0
 81 85  1  0
 81 80  1  0
 82 81  2  0
 85 84  1  0
 87 85  1  0
 87 88  1  0
 87 86  1  0
 89 92  1  1
 89 90  1  0
 91 89  1  0
M  ISO  4  10 100  22 100  51 101  52 101
M  END
>  <TORSDO>  (77) 
F 17

>  <SCORE>  (77) 
-12.179

>  <name>  (77) 
76

>  <ligand_id>  (77) 
76

>  <original_smiles>  (77) 
[H]c1c(N([H])C2([H])C([H])([H])N(C(=O)N3C([H])([H])C([H])([H])C([H])([H])C([H])(n4nc(-c5c([H])c([H])c(Oc6c([H])c([H])c(F)c([H])c6F)c([H])c5[H])c(C(=O)N([H])[H])c4N([H])[H])C3([H])[H])C([H])([H])C2([H])[H])nc(C([H])([H])[H])nc1C([H])([H])Oc1c([H])c([H])c2c(c1[H])C([H])([H])N(C(=O)C([H])(N([H])C(=O)C([H])(N([H])C([H])([H])[H])C([H])([H])[H])C(C([H])([H])[H])(C([H])([H])[H])C([H])([H])[H])C([H])(C(=O)N([H])C1([H])c3c([H])c([H])c([H])c([H])c3C([H])([H])C([H])([H])C1([H])[H])C2([H])[H]

>  <smiles>  (77) 
[H]c1c(N([H])C2([H])C([H])([H])N(C(=O)N3C([H])([H])C([H])([H])C([H])([H])C([H])(n4nc(-c5c([H])c([H])c(Oc6c([H])c([H])c(F)c([H])c6F)c([H])c5[H])c(C(=O)N([H])[H])c4N([H])[H])C3([H])[H])C([H])([H])C2([H])[H])nc(C([H])([H])[H])nc1C([H])([H])Oc1c([H])c([H])c2c(c1[H])C([H])([H])N(C(=O)C([H])(N([H])C(=O)C([H])(N([H])C([H])([H])[H])C([H])([H])[H])C(C([H])([H])[H])(C([H])([H])[H])C([H])([H])[H])C([H])(C(=O)N([H])C1([H])c3c([H])c([H])c([H])c([H])c3C([H])([H])C([H])([H])C1([H])[H])C2([H])[H]

$$$$
77:0:0
     RDKit          3D

 92101  0  0  1  0  0  0  0  0999 V2000
  -29.3300  -22.5920   19.2400 C   0  0  0  0  0  0  0  0  0  0  0  0
  -28.6760  -23.8440   19.6450 C   0  0  0  0  0  0  0  0  0  0  0  0
  -29.1190  -21.3540   19.9910 C   0  0  0  0  0  0  0  0  0  0  0  0
  -27.7300  -22.6030   21.3540 C   0  0  0  0  0  0  0  0  0  0  0  0
  -26.8030  -22.6030   22.5510 C   0  0  0  0  0  1  0  0  0  0  0  0
  -27.8710  -23.7790   20.7300 N   0  0  0  0  0  0  0  0  0  0  0  0
  -28.2950  -21.4250   21.0520 N   0  0  0  0  0  0  0  0  0  0  0  0
  -29.7140  -20.0380   19.7030 N   0  0  0  0  0  0  0  0  0  0  0  0
  -30.1280  -22.5800   18.1430 F   0  0  0  0  0  0  0  0  0  0  0  0
  -30.3050  -20.0550   18.8800 H   0  0  0  0  0  0  0  0  0  0  0  0
  -30.8560  -15.3360   20.4600 C   0  0  0  0  0  0  0  0  0  0  0  0
  -30.7820  -12.9450   19.6720 C   0  0  0  0  0  2  0  0  0  0  0  0
  -29.9340  -12.8510   18.3820 C   0  0  0  0  0  2  0  0  0  0  0  0
  -28.4450  -12.6710   18.7280 C   0  0  0  0  0  2  0  0  0  0  0  0
  -27.9670  -13.6510   19.8310 C   0  0  0  0  0  3  0  0  0  0  0  0
  -28.9460  -13.7260   21.0200 C   0  0  0  0  0  2  0  0  0  0  0  0
  -30.2560  -14.0850   20.4670 N   0  0  0  0  0  0  0  0  0  0  0  0
  -32.0710  -15.3910   20.2440 O   0  0  0  0  0  0  0  0  0  0  0  0
  -29.5170  -17.3460   19.4350 C   0  0  0  0  0  2  0  0  0  0  0  0
  -30.6310  -17.8610   21.0360 C   0  0  0  0  0  2  0  0  0  0  0  0
  -29.4620  -18.6420   20.3340 C   0  0  0  0  0  3  0  0  0  0  0  0
  -30.0960  -16.5260   20.5660 N   0  0  0  0  0  0  0  0  0  0  0  0
  -25.5580  -14.2560   20.4470 C   0  0  0  0  0  0  0  0  0  0  0  0
  -24.4690  -13.4930   20.7670 C   0  0  0  0  0  0  0  0  0  0  0  0
  -24.9220  -12.1380   20.7650 C   0  0  0  0  0  0  0  0  0  0  0  0
  -26.6040  -13.3680   20.2610 N   0  0  0  0  0  0  0  0  0  0  0  0
  -26.2270  -12.0880   20.5200 N   0  0  0  0  0  0  0  0  0  0  0  0
  -24.1760  -10.8820   20.9230 C   0  0  0  0  0  0  0  0  0  0  0  0
  -24.5550   -9.9080   21.8720 C   0  0  0  0  0  3  0  0  0  0  0  0
  -23.8090   -8.7180   22.0170 C   0  0  0  0  0  3  0  0  0  0  0  0
  -22.6650   -8.4950   21.2150 C   0  0  0  0  0  0  0  0  0  0  0  0
  -22.3050   -9.4580   20.2560 C   0  0  0  0  0  3  0  0  0  0  0  0
  -23.0510  -10.6390   20.1090 C   0  0  0  0  0  3  0  0  0  0  0  0
  -21.8940   -7.3590   21.2700 O   0  0  0  0  0  0  0  0  0  0  0  0
  -21.8070   -6.6060   22.4120 C   0  0  0  0  0  0  0  0  0  0  0  0
  -21.3290   -7.1430   23.6270 C   0  0  0  0  0  3  0  0  0  0  0  0
  -21.1900   -6.3120   24.7580 C   0  0  0  0  0  3  0  0  0  0  0  0
  -21.5200   -4.9470   24.6740 C   0  0  0  0  0  0  0  0  0  0  0  0
  -21.9910   -4.4090   23.4620 C   0  0  0  0  0  3  0  0  0  0  0  0
  -22.1310   -5.2360   22.3340 C   0  0  0  0  0  0  0  0  0  0  0  0
  -22.5670   -4.7070   21.1650 F   0  0  0  0  0  0  0  0  0  0  0  0
  -21.3780   -4.1480   25.7580 F   0  0  0  0  0  0  0  0  0  0  0  0
  -23.0650  -13.9850   20.9620 C   0  0  0  0  0  0  0  0  0  0  0  0
  -22.2830  -13.3020   21.7890 N   0  0  0  0  0  0  0  0  0  0  0  0
  -22.6670  -15.0130   20.4140 O   0  0  0  0  0  0  0  0  0  0  0  0
  -22.6110  -12.4700   22.2580 H   0  0  0  0  0  0  0  0  0  0  0  0
  -21.3400  -13.6220   21.9610 H   0  0  0  0  0  0  0  0  0  0  0  0
  -25.7450  -15.6240   20.2790 N   0  0  0  0  0  0  0  0  0  0  0  0
  -24.9830  -16.2870   20.3780 H   0  0  0  0  0  0  0  0  0  0  0  0
  -26.6250  -16.0630   20.0450 H   0  0  0  0  0  0  0  0  0  0  0  0
  -28.7230  -25.2670   18.8470 C   0  0  0  0  0  2  0  0  0  0  0  0
  -28.6010  -26.6740   19.4620 O   0  0  0  0  0  0  0  0  0  0  0  0
  -24.6360  -31.7290   22.9610 C   0  0  0  0  0  0  0  0  0  0  0  0
  -27.4400  -27.5120   19.4680 C   0  0  0  0  0  0  0  0  0  0  0  0
  -23.4780  -30.3790   21.2500 C   0  0  0  0  0  3  0  0  0  0  0  0
  -24.9820  -29.0290   19.6620 C   0  0  0  0  0  0  0  0  0  0  0  0
  -25.9930  -30.8570   21.0260 C   0  0  0  0  0  2  0  0  0  0  0  0
  -26.1410  -29.5300   20.2650 C   0  0  0  0  0  0  0  0  0  0  0  0
  -27.3640  -28.7810   20.1610 C   0  0  0  0  0  3  0  0  0  0  0  0
  -26.2450  -27.0920   18.8480 C   0  0  0  0  0  3  0  0  0  0  0  0
  -25.0410  -27.8230   18.9440 C   0  0  0  0  0  3  0  0  0  0  0  0
  -23.6930  -29.8190   19.8190 C   0  0  0  0  0  2  0  0  0  0  0  0
  -24.7230  -31.0070   21.8020 N   0  0  0  0  0  0  0  0  0  0  0  0
  -23.5540  -31.8890   23.5440 O   0  0  0  0  0  0  0  0  0  0  0  0
  -22.9110  -29.2550   22.1530 C   0  0  0  0  0  0  0  0  0  0  0  0
  -21.5940  -29.0050   22.0600 N   0  0  0  0  0  0  0  0  0  0  0  0
  -23.6570  -28.6120   22.8950 O   0  0  0  0  0  0  0  0  0  0  0  0
  -21.0460  -29.5820   21.4380 H   0  0  0  0  0  0  0  0  0  0  0  0
  -18.3120  -27.5680   22.5970 C   0  0  0  0  0  0  0  0  0  0  0  0
  -20.8640  -27.9570   22.7770 C   0  0  0  0  0  3  0  0  0  0  0  0
  -21.0140  -26.5890   22.0700 C   0  0  0  0  0  2  0  0  0  0  0  0
  -19.8840  -26.2920   21.0790 C   0  0  0  0  0  2  0  0  0  0  0  0
  -18.5310  -26.2970   21.7940 C   0  0  0  0  0  2  0  0  0  0  0  0
  -19.4060  -28.3560   23.0440 C   0  0  0  0  0  0  0  0  0  0  0  0
  -19.1440  -29.5470   23.7550 C   0  0  0  0  0  3  0  0  0  0  0  0
  -17.8220  -29.9470   24.0290 C   0  0  0  0  0  3  0  0  0  0  0  0
  -16.7430  -29.1570   23.5950 C   0  0  0  0  0  3  0  0  0  0  0  0
  -16.9900  -27.9700   22.8840 C   0  0  0  0  0  3  0  0  0  0  0  0
  -25.8890  -32.4060   23.5990 C   0  0  0  0  0  3  0  0  0  0  0  0
  -25.4970  -33.7560   24.0290 N   0  0  0  0  0  0  0  0  0  0  0  0
  -25.7730  -34.8810   23.3580 C   0  0  0  0  0  0  0  0  0  0  0  0
  -26.4480  -34.8960   22.3260 O   0  0  0  0  0  0  0  0  0  0  0  0
  -24.8910  -33.8130   24.8350 H   0  0  0  0  0  0  0  0  0  0  0  0
  -23.9490  -36.6040   23.1350 C   0  0  0  0  0  1  0  0  0  0  0  0
  -25.2100  -36.2020   23.9190 C   0  0  0  0  0  3  0  0  0  0  0  0
  -27.2890  -37.1440   24.8320 C   0  0  0  0  0  1  0  0  0  0  0  0
  -26.1830  -37.3170   23.8920 N   0  0  0  0  0  0  0  0  0  0  0  0
  -25.7240  -38.2000   24.0980 H   0  0  0  0  0  0  0  0  0  0  0  0
  -26.4800  -31.5920   24.8140 C   0  0  1  0  0  0  0  0  0  0  0  0
  -25.4290  -31.2270   25.8900 C   0  0  0  0  0  1  0  0  0  0  0  0
  -27.1290  -30.2760   24.3270 C   0  0  0  0  0  1  0  0  0  0  0  0
  -27.6010  -32.4100   25.4990 C   0  0  0  0  0  1  0  0  0  0  0  0
  1  2  2  0
  1  3  1  0
  2  6  1  0
  3  7  2  0
  4  5  1  0
  6  4  2  0
  7  4  1  0
  8  3  1  0
  9  1  1  0
 10  8  1  0
 11 17  1  0
 11 22  1  0
 12 17  1  0
 13 14  1  0
 13 12  1  0
 15 14  1  0
 15 26  1  0
 15 16  1  0
 17 16  1  0
 18 11  2  0
 19 21  1  0
 19 22  1  0
 21  8  1  0
 21 20  1  0
 22 20  1  0
 23 24  2  0
 24 43  1  0
 25 24  1  0
 25 28  1  0
 26 23  1  0
 26 27  1  0
 27 25  2  0
 28 29  1  0
 29 30  2  0
 31 34  1  0
 31 30  1  0
 32 31  2  0
 33 32  1  0
 33 28  2  0
 34 35  1  0
 35 36  1  0
 36 37  2  0
 38 37  1  0
 38 42  1  0
 39 38  2  0
 40 35  2  0
 40 39  1  0
 41 40  1  0
 43 44  1  0
 44 47  1  0
 44 46  1  0
 45 43  2  0
 48 49  1  0
 48 23  1  0
 50 48  1  0
 51 52  1  0
 51  2  1  0
 52 54  1  0
 53 64  2  0
 54 59  1  0
 55 63  1  0
 55 65  1  0
 56 62  1  0
 56 58  1  0
 57 63  1  0
 58 57  1  0
 59 58  2  0
 60 61  1  0
 60 54  2  0
 61 56  2  0
 62 55  1  0
 63 53  1  0
 65 67  2  0
 66 65  1  0
 68 66  1  0
 69 78  2  0
 69 74  1  0
 70 66  1  0
 70 74  1  0
 71 70  1  0
 72 73  1  0
 72 71  1  0
 73 69  1  0
 74 75  2  0
 75 76  1  0
 77 76  2  0
 78 77  1  0
 79 53  1  0
 79 80  1  0
 79 89  1  0
 80 83  1  0
 81 85  1  0
 81 80  1  0
 82 81  2  0
 85 84  1  0
 87 85  1  0
 87 88  1  0
 87 86  1  0
 89 92  1  1
 89 90  1  0
 91 89  1  0
M  ISO  4  11 100  22 100  51 101  52 101
M  END
>  <TORSDO>  (78) 
F 17

>  <SCORE>  (78) 
-12.303

>  <name>  (78) 
77

>  <ligand_id>  (78) 
77

>  <original_smiles>  (78) 
[H]c1c([H])c([H])c2c(c1[H])C([H])([H])C([H])([H])C([H])([H])C2([H])N([H])C(=O)C1([H])N(C(=O)C([H])(N([H])C(=O)C([H])(N([H])C([H])([H])[H])C([H])([H])[H])C(C([H])([H])[H])(C([H])([H])[H])C([H])([H])[H])C([H])([H])c2c([H])c(OC([H])([H])c3nc(C([H])([H])[H])nc(N([H])C4([H])C([H])([H])N(C(=O)N5C([H])([H])C([H])([H])C([H])([H])C([H])(n6nc(-c7c([H])c([H])c(Oc8c([H])c([H])c(F)c([H])c8F)c([H])c7[H])c(C(=O)N([H])[H])c6N([H])[H])C5([H])[H])C4([H])[H])c3F)c([H])c([H])c2C1([H])[H]

>  <smiles>  (78) 
[H]c1c([H])c([H])c2c(c1[H])C([H])([H])C([H])([H])C([H])([H])C2([H])N([H])C(=O)C1([H])N(C(=O)C([H])(N([H])C(=O)C([H])(N([H])C([H])([H])[H])C([H])([H])[H])C(C([H])([H])[H])(C([H])([H])[H])C([H])([H])[H])C([H])([H])c2c([H])c(OC([H])([H])c3nc(C([H])([H])[H])nc(N([H])C4([H])C([H])([H])N(C(=O)N5C([H])([H])C([H])([H])C([H])([H])C([H])(n6nc(-c7c([H])c([H])c(Oc8c([H])c([H])c(F)c([H])c8F)c([H])c7[H])c(C(=O)N([H])[H])c6N([H])[H])C5([H])[H])C4([H])[H])c3F)c([H])c([H])c2C1([H])[H]

$$$$
78:0:0
     RDKit          3D

 93101  0  0  1  0  0  0  0  0999 V2000
  -28.7120  -21.9690   19.6040 C   0  0  0  0  0  2  0  0  0  0  0  0
  -28.6180  -23.1250   20.5310 N   0  0  0  0  0  4  0  0  0  0  0  0
  -27.7290  -23.0710   21.0050 H   0  0  0  0  0  0  0  0  0  0  0  0
  -29.3430  -23.0690   21.2310 H   0  0  0  0  0  0  0  0  0  0  0  0
  -28.6980  -24.4380   19.8380 C   0  0  0  0  0  2  0  0  0  0  0  0
  -28.5160  -25.6400   20.7850 C   0  0  0  0  0  2  0  0  0  0  0  0
  -28.5480  -26.8700   20.0560 O   0  0  0  0  0  0  0  0  0  0  0  0
  -24.5690  -31.8540   23.1660 C   0  0  0  0  0  0  0  0  0  0  0  0
  -27.3590  -27.5580   20.0460 C   0  0  0  0  0  0  0  0  0  0  0  0
  -23.4110  -30.4500   21.4890 C   0  0  0  0  0  3  0  0  0  0  0  0
  -24.9200  -28.9790   20.0500 C   0  0  0  0  0  0  0  0  0  0  0  0
  -25.9240  -30.8890   21.3140 C   0  0  0  0  0  2  0  0  0  0  0  0
  -26.0560  -29.5320   20.6560 C   0  0  0  0  0  0  0  0  0  0  0  0
  -27.2800  -28.8320   20.6480 C   0  0  0  0  0  3  0  0  0  0  0  0
  -26.2130  -27.0090   19.4320 C   0  0  0  0  0  3  0  0  0  0  0  0
  -24.9950  -27.7180   19.4320 C   0  0  0  0  0  3  0  0  0  0  0  0
  -23.6490  -29.7970   20.0990 C   0  0  0  0  0  2  0  0  0  0  0  0
  -24.6520  -31.0780   22.0490 N   0  0  0  0  0  0  0  0  0  0  0  0
  -23.4780  -32.0870   23.7030 O   0  0  0  0  0  0  0  0  0  0  0  0
  -22.7790  -29.3960   22.4250 C   0  0  0  0  0  0  0  0  0  0  0  0
  -21.4580  -29.1990   22.2960 N   0  0  0  0  0  0  0  0  0  0  0  0
  -23.4750  -28.7560   23.2170 O   0  0  0  0  0  0  0  0  0  0  0  0
  -20.9580  -29.7670   21.6250 H   0  0  0  0  0  0  0  0  0  0  0  0
  -18.0950  -27.9710   22.7840 C   0  0  0  0  0  0  0  0  0  0  0  0
  -20.6540  -28.2320   23.0410 C   0  0  0  0  0  3  0  0  0  0  0  0
  -20.7590  -26.8220   22.4150 C   0  0  0  0  0  2  0  0  0  0  0  0
  -19.6490  -26.5290   21.4020 C   0  0  0  0  0  2  0  0  0  0  0  0
  -18.2720  -26.6440   22.0640 C   0  0  0  0  0  2  0  0  0  0  0  0
  -19.2140  -28.7240   23.2290 C   0  0  0  0  0  0  0  0  0  0  0  0
  -18.9950  -29.9670   23.8610 C   0  0  0  0  0  3  0  0  0  0  0  0
  -17.6890  -30.4570   24.0530 C   0  0  0  0  0  3  0  0  0  0  0  0
  -16.5850  -29.7000   23.6250 C   0  0  0  0  0  3  0  0  0  0  0  0
  -16.7890  -28.4580   22.9970 C   0  0  0  0  0  3  0  0  0  0  0  0
  -25.8360  -32.5030   23.8100 C   0  0  0  0  0  3  0  0  0  0  0  0
  -25.4980  -33.8940   24.1430 N   0  0  0  0  0  0  0  0  0  0  0  0
  -25.8300  -34.9550   23.3950 C   0  0  0  0  0  0  0  0  0  0  0  0
  -26.5210  -34.8680   22.3770 O   0  0  0  0  0  0  0  0  0  0  0  0
  -24.8880  -34.0370   24.9350 H   0  0  0  0  0  0  0  0  0  0  0  0
  -24.0820  -36.7220   23.0070 C   0  0  0  0  0  1  0  0  0  0  0  0
  -25.3070  -36.3320   23.8490 C   0  0  0  0  0  3  0  0  0  0  0  0
  -27.4040  -37.2440   24.7440 C   0  0  0  0  0  1  0  0  0  0  0  0
  -26.3260  -37.4010   23.7710 N   0  0  0  0  0  0  0  0  0  0  0  0
  -25.9010  -38.3140   23.9130 H   0  0  0  0  0  0  0  0  0  0  0  0
  -26.3500  -31.7310   25.0860 C   0  0  1  0  0  0  0  0  0  0  0  0
  -25.2460  -31.4670   26.1340 C   0  0  0  0  0  1  0  0  0  0  0  0
  -26.9650  -30.3680   24.6880 C   0  0  0  0  0  1  0  0  0  0  0  0
  -27.4750  -32.5440   25.7720 C   0  0  0  0  0  1  0  0  0  0  0  0
  -27.4270  -20.5760   21.3540 C   0  0  0  0  0  1  0  0  0  0  0  0
  -28.5190  -20.5740   20.2620 C   0  0  0  0  0  3  0  0  0  0  0  0
  -29.8350  -19.8860   20.7320 C   0  0  0  0  0  2  0  0  0  0  0  0
  -31.2060  -14.5140   20.0520 C   0  0  0  0  0  0  0  0  0  0  0  0
  -30.8700  -12.3190   18.9840 C   0  0  0  0  0  2  0  0  0  0  0  0
  -29.8950  -12.5000   17.7990 C   0  0  0  0  0  2  0  0  0  0  0  0
  -28.4270  -12.4110   18.2660 C   0  0  0  0  0  2  0  0  0  0  0  0
  -28.1380  -13.2880   19.5130 C   0  0  0  0  0  3  0  0  0  0  0  0
  -29.2170  -13.0550   20.5960 C   0  0  0  0  0  2  0  0  0  0  0  0
  -30.5310  -13.3330   19.9920 N   0  0  0  0  0  0  0  0  0  0  0  0
  -32.3360  -14.6630   19.5770 O   0  0  0  0  0  0  0  0  0  0  0  0
  -29.9780  -16.1020   21.5290 C   0  0  0  0  0  2  0  0  0  0  0  0
  -30.1200  -16.4630   19.0560 C   0  0  0  0  0  2  0  0  0  0  0  0
  -30.2410  -17.6160   21.7240 C   0  0  0  0  0  2  0  0  0  0  0  0
  -30.4410  -17.9400   19.3210 C   0  0  0  0  0  2  0  0  0  0  0  0
  -30.4010  -15.5920   20.2120 N   0  0  0  0  0  0  0  0  0  0  0  0
  -29.7740  -18.4060   20.5590 N   0  0  2  0  0  4  0  0  0  0  0  0
  -28.7950  -18.1800   20.4670 H   0  0  0  0  0  0  0  0  0  0  0  0
  -25.7800  -13.9900   20.2640 C   0  0  0  0  0  0  0  0  0  0  0  0
  -24.6980  -13.2580   20.6770 C   0  0  0  0  0  0  0  0  0  0  0  0
  -25.1180  -11.8940   20.6630 C   0  0  0  0  0  0  0  0  0  0  0  0
  -26.7910  -13.0690   20.0270 N   0  0  0  0  0  0  0  0  0  0  0  0
  -26.3970  -11.8070   20.3220 N   0  0  0  0  0  0  0  0  0  0  0  0
  -24.3640  -10.6570   20.8940 C   0  0  0  0  0  0  0  0  0  0  0  0
  -24.7360   -9.7450   21.9050 C   0  0  0  0  0  3  0  0  0  0  0  0
  -23.9860   -8.5700   22.1210 C   0  0  0  0  0  3  0  0  0  0  0  0
  -22.8480   -8.3010   21.3250 C   0  0  0  0  0  0  0  0  0  0  0  0
  -22.4940   -9.2000   20.3050 C   0  0  0  0  0  3  0  0  0  0  0  0
  -23.2440  -10.3660   20.0880 C   0  0  0  0  0  3  0  0  0  0  0  0
  -22.0710   -7.1740   21.4480 O   0  0  0  0  0  0  0  0  0  0  0  0
  -21.8870   -6.5560   22.6590 C   0  0  0  0  0  0  0  0  0  0  0  0
  -21.3290   -7.2340   23.7650 C   0  0  0  0  0  3  0  0  0  0  0  0
  -21.0920   -6.5400   24.9670 C   0  0  0  0  0  3  0  0  0  0  0  0
  -21.4020   -5.1700   25.0660 C   0  0  0  0  0  0  0  0  0  0  0  0
  -21.9540   -4.4930   23.9640 C   0  0  0  0  0  3  0  0  0  0  0  0
  -22.1920   -5.1840   22.7630 C   0  0  0  0  0  0  0  0  0  0  0  0
  -22.7030   -4.5220   21.6970 F   0  0  0  0  0  0  0  0  0  0  0  0
  -21.1680   -4.5020   26.2190 F   0  0  0  0  0  0  0  0  0  0  0  0
  -23.3240  -13.7820   20.9750 C   0  0  0  0  0  0  0  0  0  0  0  0
  -22.6120  -13.1460   21.9000 N   0  0  0  0  0  0  0  0  0  0  0  0
  -22.8880  -14.7920   20.4230 O   0  0  0  0  0  0  0  0  0  0  0  0
  -22.9780  -12.3310   22.3710 H   0  0  0  0  0  0  0  0  0  0  0  0
  -21.6920  -13.4810   22.1470 H   0  0  0  0  0  0  0  0  0  0  0  0
  -25.9790  -15.3500   20.0500 N   0  0  0  0  0  0  0  0  0  0  0  0
  -25.2100  -16.0100   20.1060 H   0  0  0  0  0  0  0  0  0  0  0  0
  -26.7960  -15.7300   19.5920 H   0  0  0  0  0  0  0  0  0  0  0  0
  1 49  1  0
  1  2  1  0
  2  3  1  0
  2  4  1  0
  5  2  1  0
  5  6  1  0
  7  6  1  0
  8 19  2  0
  9  7  1  0
  9 14  1  0
 10 18  1  0
 10 20  1  0
 11 17  1  0
 11 13  1  0
 12 18  1  0
 13 12  1  0
 14 13  2  0
 15  9  2  0
 16 15  1  0
 16 11  2  0
 17 10  1  0
 18  8  1  0
 20 22  2  0
 21 20  1  0
 23 21  1  0
 24 33  2  0
 24 29  1  0
 25 21  1  0
 25 29  1  0
 26 25  1  0
 27 28  1  0
 27 26  1  0
 28 24  1  0
 29 30  2  0
 30 31  1  0
 32 31  2  0
 33 32  1  0
 34  8  1  0
 34 35  1  0
 34 44  1  0
 35 38  1  0
 36 40  1  0
 36 35  1  0
 37 36  2  0
 40 39  1  0
 42 40  1  0
 42 43  1  0
 42 41  1  0
 44 47  1  1
 44 45  1  0
 46 44  1  0
 49 50  1  0
 49 48  1  0
 51 63  1  0
 52 57  1  0
 53 54  1  0
 53 52  1  0
 55 54  1  0
 55 69  1  0
 55 56  1  0
 57 51  1  0
 57 56  1  0
 58 51  2  0
 59 61  1  0
 60 62  1  0
 60 63  1  0
 62 64  1  0
 63 59  1  0
 64 50  1  0
 64 61  1  0
 64 65  1  6
 66 67  2  0
 67 86  1  0
 68 67  1  0
 68 71  1  0
 69 66  1  0
 69 70  1  0
 70 68  2  0
 71 72  1  0
 72 73  2  0
 74 77  1  0
 74 73  1  0
 75 74  2  0
 76 75  1  0
 76 71  2  0
 77 78  1  0
 78 83  2  0
 78 79  1  0
 79 80  2  0
 80 81  1  0
 81 85  1  0
 82 81  2  0
 83 82  1  0
 84 83  1  0
 86 87  1  0
 87 90  1  0
 87 89  1  0
 88 86  2  0
 91 92  1  0
 91 66  1  0
 93 91  1  0
M  ISO  4   6 101   7 101  51 100  63 100
M  END
>  <TORSDO>  (79) 
F 21

>  <SCORE>  (79) 
-11.527

>  <name>  (79) 
78

>  <ligand_id>  (79) 
78

>  <original_smiles>  (79) 
[H]c1c([H])c([H])c2c(c1[H])C([H])([H])C([H])([H])C([H])([H])C2([H])N([H])C(=O)C1([H])N(C(=O)C([H])(N([H])C(=O)C([H])(N([H])C([H])([H])[H])C([H])([H])[H])C(C([H])([H])[H])(C([H])([H])[H])C([H])([H])[H])C([H])([H])c2c([H])c(OC([H])([H])C([H])([H])[N+]([H])([H])C([H])([H])C([H])(C([H])([H])[H])C([H])([H])[N+]3([H])C([H])([H])C([H])([H])N(C(=O)N4C([H])([H])C([H])([H])C([H])([H])C([H])(n5nc(-c6c([H])c([H])c(Oc7c([H])c([H])c(F)c([H])c7F)c([H])c6[H])c(C(=O)N([H])[H])c5N([H])[H])C4([H])[H])C([H])([H])C3([H])[H])c([H])c([H])c2C1([H])[H]

>  <smiles>  (79) 
[H]c1c([H])c([H])c2c(c1[H])C([H])([H])C([H])([H])C([H])([H])C2([H])N([H])C(=O)C1([H])N(C(=O)C([H])(N([H])C(=O)C([H])(N([H])C([H])([H])[H])C([H])([H])[H])C(C([H])([H])[H])(C([H])([H])[H])C([H])([H])[H])C([H])([H])c2c([H])c(OC([H])([H])C([H])([H])[N+]([H])([H])C([H])([H])C([H])(C([H])([H])[H])C([H])([H])[N+]3([H])C([H])([H])C([H])([H])N(C(=O)N4C([H])([H])C([H])([H])C([H])([H])C([H])(n5nc(-c6c([H])c([H])c(Oc7c([H])c([H])c(F)c([H])c7F)c([H])c6[H])c(C(=O)N([H])[H])c5N([H])[H])C4([H])[H])C([H])([H])C3([H])[H])c([H])c([H])c2C1([H])[H]

$$$$
79:0:0
     RDKit          3D

 89 98  0  0  1  0  0  0  0  0999 V2000
  -27.9620  -21.9090   20.3410 C   0  0  0  0  0  2  0  0  0  0  0  0
  -29.8680  -22.4450   20.2180 C   0  0  0  0  0  2  0  0  0  0  0  0
  -28.6170  -23.3360   20.6140 C   0  0  0  0  0  3  0  0  0  0  0  0
  -29.2150  -21.1700   20.7050 N   0  0  2  0  0  4  0  0  0  0  0  0
  -29.2730  -21.1250   21.7110 H   0  0  0  0  0  0  0  0  0  0  0  0
  -30.5180  -18.7240   20.8710 C   0  0  0  0  0  2  0  0  0  0  0  0
  -28.6530  -18.5020   20.0740 C   0  0  0  0  0  2  0  0  0  0  0  0
  -29.9120  -17.5220   20.0300 C   0  0  0  0  0  3  0  0  0  0  0  0
  -29.6080  -19.7740   20.0730 C   0  0  0  0  0  3  0  0  0  0  0  0
  -30.5460  -14.8970   20.3390 C   0  0  0  0  0  0  0  0  0  0  0  0
  -30.3810  -12.5730   19.3780 C   0  0  0  0  0  2  0  0  0  0  0  0
  -29.4470  -12.5950   18.1470 C   0  0  0  0  0  2  0  0  0  0  0  0
  -27.9800  -12.4070   18.5750 C   0  0  0  0  0  2  0  0  0  0  0  0
  -27.5930  -13.3100   19.7770 C   0  0  0  0  0  3  0  0  0  0  0  0
  -28.6520  -13.2670   20.9030 C   0  0  0  0  0  2  0  0  0  0  0  0
  -29.9390  -13.6480   20.3080 N   0  0  0  0  0  0  0  0  0  0  0  0
  -31.7210  -14.9820   19.9670 O   0  0  0  0  0  0  0  0  0  0  0  0
  -29.7770  -16.0570   20.5680 N   0  0  0  0  0  0  0  0  0  0  0  0
  -28.8600  -15.8400   20.9320 H   0  0  0  0  0  0  0  0  0  0  0  0
  -25.2090  -13.8980   20.5050 C   0  0  0  0  0  0  0  0  0  0  0  0
  -24.1430  -13.1260   20.8780 C   0  0  0  0  0  0  0  0  0  0  0  0
  -24.6050  -11.7750   20.8500 C   0  0  0  0  0  0  0  0  0  0  0  0
  -26.2510  -13.0180   20.2690 N   0  0  0  0  0  0  0  0  0  0  0  0
  -25.8960  -11.7350   20.5410 N   0  0  0  0  0  0  0  0  0  0  0  0
  -23.8760  -10.5140   21.0440 C   0  0  0  0  0  0  0  0  0  0  0  0
  -24.3130   -9.5410   21.9690 C   0  0  0  0  0  3  0  0  0  0  0  0
  -23.5830   -8.3470   22.1510 C   0  0  0  0  0  3  0  0  0  0  0  0
  -22.4020   -8.1150   21.4060 C   0  0  0  0  0  0  0  0  0  0  0  0
  -21.9840   -9.0770   20.4700 C   0  0  0  0  0  3  0  0  0  0  0  0
  -22.7140  -10.2630   20.2860 C   0  0  0  0  0  3  0  0  0  0  0  0
  -21.6430   -6.9740   21.4980 O   0  0  0  0  0  0  0  0  0  0  0  0
  -21.6100   -6.2220   22.6460 C   0  0  0  0  0  0  0  0  0  0  0  0
  -21.2140   -6.7710   23.8850 C   0  0  0  0  0  3  0  0  0  0  0  0
  -21.1260   -5.9460   25.0240 C   0  0  0  0  0  3  0  0  0  0  0  0
  -21.4230   -4.5750   24.9250 C   0  0  0  0  0  0  0  0  0  0  0  0
  -21.8130   -4.0250   23.6910 C   0  0  0  0  0  3  0  0  0  0  0  0
  -21.9020   -4.8460   22.5540 C   0  0  0  0  0  0  0  0  0  0  0  0
  -22.2560   -4.3080   21.3630 F   0  0  0  0  0  0  0  0  0  0  0  0
  -21.3330   -3.7800   26.0180 F   0  0  0  0  0  0  0  0  0  0  0  0
  -22.7460  -13.6070   21.1450 C   0  0  0  0  0  0  0  0  0  0  0  0
  -22.0160  -12.9150   22.0130 N   0  0  0  0  0  0  0  0  0  0  0  0
  -22.3110  -14.6300   20.6200 O   0  0  0  0  0  0  0  0  0  0  0  0
  -22.3810  -12.0870   22.4600 H   0  0  0  0  0  0  0  0  0  0  0  0
  -21.0790  -13.2190   22.2350 H   0  0  0  0  0  0  0  0  0  0  0  0
  -25.3740  -15.2680   20.3210 N   0  0  0  0  0  0  0  0  0  0  0  0
  -24.6020  -15.9190   20.4210 H   0  0  0  0  0  0  0  0  0  0  0  0
  -26.2110  -15.7020   19.9540 H   0  0  0  0  0  0  0  0  0  0  0  0
  -28.0340  -24.7330   19.9160 C   0  0  0  0  0  2  0  0  0  0  0  0
  -28.2350  -26.2190   20.2970 O   0  0  0  0  0  0  0  0  0  0  0  0
  -24.6120  -31.8820   23.2390 C   0  0  0  0  0  0  0  0  0  0  0  0
  -27.1800  -27.1940   20.1930 C   0  0  0  0  0  0  0  0  0  0  0  0
  -23.4060  -30.4880   21.6030 C   0  0  0  0  0  3  0  0  0  0  0  0
  -24.8500  -28.9250   20.1680 C   0  0  0  0  0  0  0  0  0  0  0  0
  -25.9580  -30.7570   21.4340 C   0  0  0  0  0  2  0  0  0  0  0  0
  -26.0270  -29.3690   20.7820 C   0  0  0  0  0  0  0  0  0  0  0  0
  -27.1910  -28.5150   20.7870 C   0  0  0  0  0  3  0  0  0  0  0  0
  -25.9860  -26.8640   19.5090 C   0  0  0  0  0  3  0  0  0  0  0  0
  -24.8400  -27.6850   19.5170 C   0  0  0  0  0  3  0  0  0  0  0  0
  -23.6210  -29.8170   20.2210 C   0  0  0  0  0  2  0  0  0  0  0  0
  -24.6780  -31.0640   22.1470 N   0  0  0  0  0  0  0  0  0  0  0  0
  -23.5280  -32.1660   23.7710 O   0  0  0  0  0  0  0  0  0  0  0  0
  -22.7320  -29.4770   22.5640 C   0  0  0  0  0  0  0  0  0  0  0  0
  -21.4050  -29.3050   22.4390 N   0  0  0  0  0  0  0  0  0  0  0  0
  -23.4060  -28.8510   23.3860 O   0  0  0  0  0  0  0  0  0  0  0  0
  -20.9180  -29.8620   21.7500 H   0  0  0  0  0  0  0  0  0  0  0  0
  -18.0250  -28.1000   22.9380 C   0  0  0  0  0  0  0  0  0  0  0  0
  -20.5830  -28.3710   23.2120 C   0  0  0  0  0  3  0  0  0  0  0  0
  -20.6900  -26.9350   22.6450 C   0  0  0  0  0  2  0  0  0  0  0  0
  -19.5920  -26.6040   21.6290 C   0  0  0  0  0  2  0  0  0  0  0  0
  -18.2070  -26.7490   22.2680 C   0  0  0  0  0  2  0  0  0  0  0  0
  -19.1410  -28.8680   23.3670 C   0  0  0  0  0  0  0  0  0  0  0  0
  -18.9160  -30.1320   23.9550 C   0  0  0  0  0  3  0  0  0  0  0  0
  -17.6080  -30.6290   24.1160 C   0  0  0  0  0  3  0  0  0  0  0  0
  -16.5080  -29.8590   23.7030 C   0  0  0  0  0  3  0  0  0  0  0  0
  -16.7180  -28.5960   23.1190 C   0  0  0  0  0  3  0  0  0  0  0  0
  -25.8940  -32.5150   23.8620 C   0  0  0  0  0  3  0  0  0  0  0  0
  -25.5840  -33.9150   24.1910 N   0  0  0  0  0  0  0  0  0  0  0  0
  -25.9110  -34.9690   23.4320 C   0  0  0  0  0  0  0  0  0  0  0  0
  -26.5720  -34.8660   22.3960 O   0  0  0  0  0  0  0  0  0  0  0  0
  -24.9960  -34.0690   24.9980 H   0  0  0  0  0  0  0  0  0  0  0  0
  -24.1800  -36.7650   23.1000 C   0  0  0  0  0  1  0  0  0  0  0  0
  -25.4310  -36.3580   23.8960 C   0  0  0  0  0  3  0  0  0  0  0  0
  -27.5760  -37.2430   24.7000 C   0  0  0  0  0  1  0  0  0  0  0  0
  -26.4630  -37.4110   23.7710 N   0  0  0  0  0  0  0  0  0  0  0  0
  -26.0590  -38.3310   23.9220 H   0  0  0  0  0  0  0  0  0  0  0  0
  -26.4050  -31.7470   25.1430 C   0  0  1  0  0  0  0  0  0  0  0  0
  -25.3100  -31.5190   26.2110 C   0  0  0  0  0  1  0  0  0  0  0  0
  -26.9830  -30.3640   24.7630 C   0  0  0  0  0  1  0  0  0  0  0  0
  -27.5580  -32.5400   25.8010 C   0  0  0  0  0  1  0  0  0  0  0  0
  1  3  1  0
  1  4  1  0
  2  3  1  0
  2  4  1  0
  3 48  1  0
  4  5  1  1
  8  7  1  0
  8 18  1  0
  8  6  1  0
  9  7  1  0
  9  4  1  0
  9  6  1  0
 10 18  1  0
 11 16  1  0
 12 13  1  0
 12 11  1  0
 14 13  1  0
 14 23  1  0
 14 15  1  0
 16 10  1  0
 16 15  1  0
 17 10  2  0
 18 19  1  0
 20 21  2  0
 21 40  1  0
 22 21  1  0
 22 25  1  0
 23 20  1  0
 23 24  1  0
 24 22  2  0
 25 26  1  0
 26 27  2  0
 28 31  1  0
 28 27  1  0
 29 28  2  0
 30 29  1  0
 30 25  2  0
 31 32  1  0
 32 33  1  0
 33 34  2  0
 35 34  1  0
 35 39  1  0
 36 35  2  0
 37 32  2  0
 37 36  1  0
 38 37  1  0
 40 41  1  0
 41 44  1  0
 41 43  1  0
 42 40  2  0
 45 46  1  0
 45 20  1  0
 47 45  1  0
 48 49  1  0
 50 61  2  0
 51 49  1  0
 51 56  1  0
 52 60  1  0
 52 62  1  0
 53 59  1  0
 53 55  1  0
 54 60  1  0
 55 56  2  0
 55 54  1  0
 57 58  1  0
 57 51  2  0
 58 53  2  0
 59 52  1  0
 60 50  1  0
 62 64  2  0
 63 62  1  0
 65 63  1  0
 66 75  2  0
 66 71  1  0
 67 63  1  0
 67 71  1  0
 68 67  1  0
 69 70  1  0
 69 68  1  0
 70 66  1  0
 71 72  2  0
 72 73  1  0
 74 73  2  0
 75 74  1  0
 76 50  1  0
 76 77  1  0
 76 86  1  0
 77 80  1  0
 78 82  1  0
 78 77  1  0
 79 78  2  0
 82 81  1  0
 84 82  1  0
 84 85  1  0
 84 83  1  0
 86 89  1  1
 86 87  1  0
 88 86  1  0
M  ISO  4  10 100  18 100  48 101  49 101
M  END
>  <TORSDO>  (80) 
F 18

>  <SCORE>  (80) 
-14.619

>  <name>  (80) 
79

>  <ligand_id>  (80) 
79

>  <original_smiles>  (80) 
[H]c1c([H])c([H])c2c(c1[H])C([H])([H])C([H])([H])C([H])([H])C2([H])N([H])C(=O)C1([H])N(C(=O)C([H])(N([H])C(=O)C([H])(N([H])C([H])([H])[H])C([H])([H])[H])C(C([H])([H])[H])(C([H])([H])[H])C([H])([H])[H])C([H])([H])c2c([H])c(OC([H])([H])C3([H])C([H])([H])[N+]([H])(C4([H])C([H])([H])C([H])(N([H])C(=O)N5C([H])([H])C([H])([H])C([H])([H])C([H])(n6nc(-c7c([H])c([H])c(Oc8c([H])c([H])c(F)c([H])c8F)c([H])c7[H])c(C(=O)N([H])[H])c6N([H])[H])C5([H])[H])C4([H])[H])C3([H])[H])c([H])c([H])c2C1([H])[H]

>  <smiles>  (80) 
[H]c1c([H])c([H])c2c(c1[H])C([H])([H])C([H])([H])C([H])([H])C2([H])N([H])C(=O)C1([H])N(C(=O)C([H])(N([H])C(=O)C([H])(N([H])C([H])([H])[H])C([H])([H])[H])C(C([H])([H])[H])(C([H])([H])[H])C([H])([H])[H])C([H])([H])c2c([H])c(OC([H])([H])C3([H])C([H])([H])[N+]([H])(C4([H])C([H])([H])C([H])(N([H])C(=O)N5C([H])([H])C([H])([H])C([H])([H])C([H])(n6nc(-c7c([H])c([H])c(Oc8c([H])c([H])c(F)c([H])c8F)c([H])c7[H])c(C(=O)N([H])[H])c6N([H])[H])C5([H])[H])C4([H])[H])C3([H])[H])c([H])c([H])c2C1([H])[H]

$$$$
80:0:0
     RDKit          3D

 94103  0  0  1  0  0  0  0  0999 V2000
  -29.1860  -24.4140   19.5880 C   0  0  0  0  0  0  0  0  0  0  0  0
  -28.7670  -23.1100   19.4030 C   0  0  0  0  0  0  0  0  0  0  0  0
  -30.7150  -23.1170   20.4050 C   0  0  0  0  0  0  0  0  0  0  0  0
  -27.5260  -22.5830   18.7450 C   0  0  0  0  0  1  0  0  0  0  0  0
  -31.9990  -22.6550   21.0160 C   0  0  0  0  0  1  0  0  0  0  0  0
  -30.3990  -24.4020   20.2700 N   0  0  0  0  0  0  0  0  0  0  0  0
  -29.7980  -22.2820   19.8690 N   0  0  0  0  0  0  0  0  0  0  0  0
  -28.6060  -25.7080   19.0600 C   0  0  0  0  0  2  0  0  0  0  0  0
  -28.3760  -26.6880   20.0870 O   0  0  0  0  0  0  0  0  0  0  0  0
  -24.6050  -31.8610   23.2130 C   0  0  0  0  0  0  0  0  0  0  0  0
  -27.1950  -27.4050   20.0880 C   0  0  0  0  0  0  0  0  0  0  0  0
  -23.3820  -30.4760   21.5720 C   0  0  0  0  0  3  0  0  0  0  0  0
  -24.8130  -28.9360   20.1370 C   0  0  0  0  0  0  0  0  0  0  0  0
  -25.9120  -30.8140   21.3640 C   0  0  0  0  0  2  0  0  0  0  0  0
  -25.9820  -29.4470   20.7140 C   0  0  0  0  0  0  0  0  0  0  0  0
  -27.1750  -28.6880   20.6880 C   0  0  0  0  0  3  0  0  0  0  0  0
  -25.9870  -26.8940   19.5540 C   0  0  0  0  0  3  0  0  0  0  0  0
  -24.8090  -27.6580   19.5600 C   0  0  0  0  0  3  0  0  0  0  0  0
  -23.5810  -29.8080   20.1870 C   0  0  0  0  0  2  0  0  0  0  0  0
  -24.6520  -31.0650   22.1080 N   0  0  0  0  0  0  0  0  0  0  0  0
  -23.5280  -32.1380   23.7590 O   0  0  0  0  0  0  0  0  0  0  0  0
  -22.7300  -29.4500   22.5270 C   0  0  0  0  0  0  0  0  0  0  0  0
  -21.4060  -29.2690   22.3980 N   0  0  0  0  0  0  0  0  0  0  0  0
  -23.4120  -28.8230   23.3440 O   0  0  0  0  0  0  0  0  0  0  0  0
  -20.9190  -29.8310   21.7140 H   0  0  0  0  0  0  0  0  0  0  0  0
  -18.0340  -28.0600   22.8730 C   0  0  0  0  0  0  0  0  0  0  0  0
  -20.5870  -28.3340   23.1680 C   0  0  0  0  0  3  0  0  0  0  0  0
  -20.7020  -26.8980   22.6090 C   0  0  0  0  0  2  0  0  0  0  0  0
  -19.6120  -26.5590   21.5850 C   0  0  0  0  0  2  0  0  0  0  0  0
  -18.2230  -26.7060   22.2120 C   0  0  0  0  0  2  0  0  0  0  0  0
  -19.1440  -28.8320   23.3080 C   0  0  0  0  0  0  0  0  0  0  0  0
  -18.9120  -30.0980   23.8870 C   0  0  0  0  0  3  0  0  0  0  0  0
  -17.6040  -30.5960   24.0320 C   0  0  0  0  0  3  0  0  0  0  0  0
  -16.5080  -29.8220   23.6110 C   0  0  0  0  0  3  0  0  0  0  0  0
  -16.7240  -28.5550   23.0390 C   0  0  0  0  0  3  0  0  0  0  0  0
  -25.8970  -32.4820   23.8280 C   0  0  0  0  0  3  0  0  0  0  0  0
  -26.4230  -31.6980   25.0930 C   0  0  1  0  0  0  0  0  0  0  0  0
  -25.3410  -31.4660   26.1730 C   0  0  0  0  0  1  0  0  0  0  0  0
  -26.9900  -30.3200   24.6860 C   0  0  0  0  0  1  0  0  0  0  0  0
  -27.5880  -32.4800   25.7420 C   0  0  0  0  0  1  0  0  0  0  0  0
  -25.5980  -33.8780   24.1710 N   0  0  0  0  0  0  0  0  0  0  0  0
  -25.9230  -34.9320   23.4100 C   0  0  0  0  0  0  0  0  0  0  0  0
  -26.5800  -34.8310   22.3700 O   0  0  0  0  0  0  0  0  0  0  0  0
  -25.0170  -34.0310   24.9820 H   0  0  0  0  0  0  0  0  0  0  0  0
  -24.1920  -36.7270   23.0840 C   0  0  0  0  0  1  0  0  0  0  0  0
  -25.4440  -36.3200   23.8770 C   0  0  0  0  0  3  0  0  0  0  0  0
  -27.5940  -37.1970   24.6750 C   0  0  0  0  0  1  0  0  0  0  0  0
  -26.4750  -37.3730   23.7530 N   0  0  0  0  0  0  0  0  0  0  0  0
  -26.0730  -38.2910   23.9150 H   0  0  0  0  0  0  0  0  0  0  0  0
  -29.9170  -20.8300   19.6900 C   0  0  0  0  0  2  0  0  0  0  0  0
  -29.4800  -19.9410   20.8870 C   0  0  0  0  0  2  0  0  0  0  0  0
  -30.7770  -14.4710   20.0750 C   0  0  0  0  0  0  0  0  0  0  0  0
  -30.3690  -12.3330   18.9260 C   0  0  0  0  0  2  0  0  0  0  0  0
  -29.3710  -12.5770   17.7740 C   0  0  0  0  0  2  0  0  0  0  0  0
  -27.9260  -12.4370   18.2870 C   0  0  0  0  0  2  0  0  0  0  0  0
  -27.6600  -13.2610   19.5770 C   0  0  0  0  0  3  0  0  0  0  0  0
  -28.7760  -13.0400   20.6240 C   0  0  0  0  0  2  0  0  0  0  0  0
  -30.0630  -13.3160   19.9740 N   0  0  0  0  0  0  0  0  0  0  0  0
  -31.9210  -14.5890   19.6280 O   0  0  0  0  0  0  0  0  0  0  0  0
  -29.7400  -16.4620   19.2650 C   0  0  0  0  0  2  0  0  0  0  0  0
  -30.5190  -16.2910   21.6360 C   0  0  0  0  0  2  0  0  0  0  0  0
  -29.0700  -17.8040   19.6260 C   0  0  0  0  0  2  0  0  0  0  0  0
  -29.8500  -17.6660   21.8970 C   0  0  0  0  0  2  0  0  0  0  0  0
  -30.0780  -15.5850   20.4120 N   0  0  0  0  0  0  0  0  0  0  0  0
  -29.8440  -18.5040   20.6740 N   0  0  2  0  0  4  0  0  0  0  0  0
  -30.8020  -18.5210   20.3580 H   0  0  0  0  0  0  0  0  0  0  0  0
  -25.3160  -13.8710   20.4380 C   0  0  0  0  0  0  0  0  0  0  0  0
  -24.2630  -13.1000   20.8460 C   0  0  0  0  0  0  0  0  0  0  0  0
  -24.7100  -11.7460   20.7620 C   0  0  0  0  0  0  0  0  0  0  0  0
  -26.3360  -12.9870   20.1290 N   0  0  0  0  0  0  0  0  0  0  0  0
  -25.9800  -11.7030   20.3840 N   0  0  0  0  0  0  0  0  0  0  0  0
  -23.9830  -10.4850   20.9610 C   0  0  0  0  0  0  0  0  0  0  0  0
  -24.4350   -9.5100   21.8770 C   0  0  0  0  0  3  0  0  0  0  0  0
  -23.7070   -8.3140   22.0650 C   0  0  0  0  0  3  0  0  0  0  0  0
  -22.5150   -8.0880   21.3370 C   0  0  0  0  0  0  0  0  0  0  0  0
  -22.0830   -9.0530   20.4090 C   0  0  0  0  0  3  0  0  0  0  0  0
  -22.8130  -10.2370   20.2190 C   0  0  0  0  0  3  0  0  0  0  0  0
  -21.7580   -6.9440   21.4370 O   0  0  0  0  0  0  0  0  0  0  0  0
  -21.7040   -6.2160   22.5990 C   0  0  0  0  0  0  0  0  0  0  0  0
  -21.2820   -6.7890   23.8190 C   0  0  0  0  0  3  0  0  0  0  0  0
  -21.1700   -5.9880   24.9710 C   0  0  0  0  0  3  0  0  0  0  0  0
  -21.4720   -4.6140   24.9070 C   0  0  0  0  0  0  0  0  0  0  0  0
  -21.8870   -4.0390   23.6930 C   0  0  0  0  0  3  0  0  0  0  0  0
  -21.9980   -4.8390   22.5410 C   0  0  0  0  0  0  0  0  0  0  0  0
  -22.3770   -4.2760   21.3670 F   0  0  0  0  0  0  0  0  0  0  0  0
  -21.3580   -3.8430   26.0120 F   0  0  0  0  0  0  0  0  0  0  0  0
  -22.8860  -13.5840   21.2050 C   0  0  0  0  0  0  0  0  0  0  0  0
  -22.2020  -12.8780   22.0980 N   0  0  0  0  0  0  0  0  0  0  0  0
  -22.4300  -14.6230   20.7290 O   0  0  0  0  0  0  0  0  0  0  0  0
  -22.5840  -12.0390   22.5090 H   0  0  0  0  0  0  0  0  0  0  0  0
  -21.2820  -13.1870   22.3790 H   0  0  0  0  0  0  0  0  0  0  0  0
  -25.4860  -15.2440   20.2810 N   0  0  0  0  0  0  0  0  0  0  0  0
  -24.7360  -15.9060   20.4440 H   0  0  0  0  0  0  0  0  0  0  0  0
  -26.3200  -15.6740   19.9060 H   0  0  0  0  0  0  0  0  0  0  0  0
  1  6  1  0
  2  1  2  0
  2  7  1  0
  3  5  1  0
  4  2  1  0
  6  3  2  0
  7  3  1  0
  8  1  1  0
  8  9  1  0
  9 11  1  0
 10 21  2  0
 11 16  1  0
 12 20  1  0
 12 22  1  0
 13 19  1  0
 13 15  1  0
 14 20  1  0
 15 14  1  0
 16 15  2  0
 17 18  1  0
 17 11  2  0
 18 13  2  0
 19 12  1  0
 20 10  1  0
 22 24  2  0
 23 22  1  0
 25 23  1  0
 26 35  2  0
 26 31  1  0
 27 23  1  0
 27 31  1  0
 28 27  1  0
 29 30  1  0
 29 28  1  0
 30 26  1  0
 31 32  2  0
 32 33  1  0
 34 33  2  0
 35 34  1  0
 36 10  1  0
 36 41  1  0
 36 37  1  0
 37 40  1  1
 37 38  1  0
 39 37  1  0
 41 44  1  0
 42 46  1  0
 42 41  1  0
 43 42  2  0
 46 45  1  0
 48 46  1  0
 48 49  1  0
 48 47  1  0
 50  7  1  0
 50 51  1  0
 52 64  1  0
 53 58  1  0
 54 55  1  0
 54 53  1  0
 56 55  1  0
 56 70  1  0
 56 57  1  0
 58 52  1  0
 58 57  1  0
 59 52  2  0
 60 62  1  0
 60 64  1  0
 61 63  1  0
 62 65  1  0
 64 61  1  0
 65 51  1  0
 65 63  1  0
 65 66  1  6
 67 68  2  0
 68 87  1  0
 69 68  1  0
 69 72  1  0
 70 71  1  0
 70 67  1  0
 71 69  2  0
 72 73  1  0
 73 74  2  0
 75 78  1  0
 75 74  1  0
 76 75  2  0
 77 76  1  0
 77 72  2  0
 78 79  1  0
 79 80  1  0
 80 81  2  0
 82 81  1  0
 82 86  1  0
 83 82  2  0
 84 79  2  0
 84 83  1  0
 85 84  1  0
 87 88  1  0
 88 91  1  0
 88 90  1  0
 89 87  2  0
 92 67  1  0
 92 93  1  0
 94 92  1  0
M  ISO  4   8 101   9 101  52 100  64 100
M  END
>  <TORSDO>  (81) 
F 19

>  <SCORE>  (81) 
-13.902

>  <name>  (81) 
80

>  <ligand_id>  (81) 
80

>  <original_smiles>  (81) 
[H]c1c([H])c([H])c2c(c1[H])C([H])([H])C([H])([H])C([H])([H])C2([H])N([H])C(=O)C1([H])N(C(=O)C([H])(N([H])C(=O)C([H])(N([H])C([H])([H])[H])C([H])([H])[H])C(C([H])([H])[H])(C([H])([H])[H])C([H])([H])[H])C([H])([H])c2c([H])c(OC([H])([H])c3nc(C([H])([H])[H])n(C([H])([H])C([H])([H])[N+]4([H])C([H])([H])C([H])([H])N(C(=O)N5C([H])([H])C([H])([H])C([H])([H])C([H])(n6nc(-c7c([H])c([H])c(Oc8c([H])c([H])c(F)c([H])c8F)c([H])c7[H])c(C(=O)N([H])[H])c6N([H])[H])C5([H])[H])C([H])([H])C4([H])[H])c3C([H])([H])[H])c([H])c([H])c2C1([H])[H]

>  <smiles>  (81) 
[H]c1c([H])c([H])c2c(c1[H])C([H])([H])C([H])([H])C([H])([H])C2([H])N([H])C(=O)C1([H])N(C(=O)C([H])(N([H])C(=O)C([H])(N([H])C([H])([H])[H])C([H])([H])[H])C(C([H])([H])[H])(C([H])([H])[H])C([H])([H])[H])C([H])([H])c2c([H])c(OC([H])([H])c3nc(C([H])([H])[H])n(C([H])([H])C([H])([H])[N+]4([H])C([H])([H])C([H])([H])N(C(=O)N5C([H])([H])C([H])([H])C([H])([H])C([H])(n6nc(-c7c([H])c([H])c(Oc8c([H])c([H])c(F)c([H])c8F)c([H])c7[H])c(C(=O)N([H])[H])c6N([H])[H])C5([H])[H])C([H])([H])C4([H])[H])c3C([H])([H])[H])c([H])c([H])c2C1([H])[H]

$$$$
81:0:0
     RDKit          3D

 89 97  0  0  1  0  0  0  0  0999 V2000
  -28.9450  -20.2720   20.4940 N   0  0  0  0  0  4  0  0  0  0  0  0
  -29.2230  -20.4410   21.4460 H   0  0  0  0  0  0  0  0  0  0  0  0
  -27.9740  -19.9990   20.5170 H   0  0  0  0  0  0  0  0  0  0  0  0
  -29.7610  -18.9690   20.0550 C   0  0  0  0  0  2  0  0  0  0  0  0
  -30.5950  -14.9730   19.6890 C   0  0  0  0  0  0  0  0  0  0  0  0
  -30.2310  -12.7170   18.5720 C   0  0  0  0  0  2  0  0  0  0  0  0
  -29.1410  -12.7890   17.4780 C   0  0  0  0  0  2  0  0  0  0  0  0
  -27.7620  -12.5320   18.0990 C   0  0  0  0  0  2  0  0  0  0  0  0
  -27.5290  -13.4080   19.3550 C   0  0  0  0  0  3  0  0  0  0  0  0
  -28.7190  -13.3210   20.3400 C   0  0  0  0  0  2  0  0  0  0  0  0
  -29.9250  -13.7460   19.6170 N   0  0  0  0  0  0  0  0  0  0  0  0
  -31.6620  -15.0470   19.0640 O   0  0  0  0  0  0  0  0  0  0  0  0
  -30.3440  -17.1540   22.7180 C   0  0  0  0  0  2  0  0  0  0  0  0
  -29.0150  -17.4750   22.0560 C   0  0  0  0  0  2  0  0  0  0  0  0
  -30.9380  -16.0610   21.8260 C   0  0  0  0  0  2  0  0  0  0  0  0
  -29.3330  -17.3960   20.5540 C   0  0  0  0  0  3  0  0  0  0  0  0
  -30.2120  -16.0600   20.5390 N   0  0  0  0  0  0  0  0  0  0  0  0
  -25.2730  -13.9900   20.4160 C   0  0  0  0  0  0  0  0  0  0  0  0
  -24.2370  -13.2160   20.8580 C   0  0  0  0  0  0  0  0  0  0  0  0
  -24.6460  -11.8600   20.6720 C   0  0  0  0  0  0  0  0  0  0  0  0
  -26.2510  -13.1080   19.9890 N   0  0  0  0  0  0  0  0  0  0  0  0
  -25.8870  -11.8150   20.2030 N   0  0  0  0  0  0  0  0  0  0  0  0
  -23.9060  -10.6050   20.8590 C   0  0  0  0  0  0  0  0  0  0  0  0
  -24.3720   -9.5940   21.7270 C   0  0  0  0  0  3  0  0  0  0  0  0
  -23.6300   -8.4080   21.9090 C   0  0  0  0  0  3  0  0  0  0  0  0
  -22.4080   -8.2240   21.2190 C   0  0  0  0  0  0  0  0  0  0  0  0
  -21.9600   -9.2240   20.3390 C   0  0  0  0  0  3  0  0  0  0  0  0
  -22.7020  -10.4010   20.1550 C   0  0  0  0  0  3  0  0  0  0  0  0
  -21.6320   -7.0920   21.3110 O   0  0  0  0  0  0  0  0  0  0  0  0
  -21.5740   -6.3540   22.4630 C   0  0  0  0  0  0  0  0  0  0  0  0
  -21.1670   -6.9200   23.6930 C   0  0  0  0  0  3  0  0  0  0  0  0
  -21.0530   -6.1100   24.8390 C   0  0  0  0  0  3  0  0  0  0  0  0
  -21.3360   -4.7330   24.7600 C   0  0  0  0  0  0  0  0  0  0  0  0
  -21.7380   -4.1660   23.5380 C   0  0  0  0  0  3  0  0  0  0  0  0
  -21.8500   -4.9730   22.3930 C   0  0  0  0  0  0  0  0  0  0  0  0
  -22.2160   -4.4180   21.2130 F   0  0  0  0  0  0  0  0  0  0  0  0
  -21.2200   -3.9510   25.8600 F   0  0  0  0  0  0  0  0  0  0  0  0
  -22.9010  -13.7050   21.3420 C   0  0  0  0  0  0  0  0  0  0  0  0
  -22.2830  -12.9720   22.2620 N   0  0  0  0  0  0  0  0  0  0  0  0
  -22.4250  -14.7660   20.9440 O   0  0  0  0  0  0  0  0  0  0  0  0
  -22.6720  -12.0970   22.5770 H   0  0  0  0  0  0  0  0  0  0  0  0
  -21.4100  -13.2910   22.6570 H   0  0  0  0  0  0  0  0  0  0  0  0
  -25.4640  -15.3660   20.3140 N   0  0  0  0  0  0  0  0  0  0  0  0
  -24.7490  -16.0380   20.5760 H   0  0  0  0  0  0  0  0  0  0  0  0
  -26.2770  -15.7950   19.8920 H   0  0  0  0  0  0  0  0  0  0  0  0
  -28.9450  -21.6910   19.7750 C   0  0  0  0  0  2  0  0  0  0  0  0
  -28.6200  -23.1730   20.5460 C   0  0  0  0  0  2  0  0  0  0  0  0
  -28.0390  -24.5950   19.8290 C   0  0  0  0  0  2  0  0  0  0  0  0
  -28.2310  -26.1000   20.2390 O   0  0  0  0  0  0  0  0  0  0  0  0
  -24.7010  -31.8750   23.1720 C   0  0  0  0  0  0  0  0  0  0  0  0
  -27.2060  -27.1130   20.1300 C   0  0  0  0  0  0  0  0  0  0  0  0
  -23.4860  -30.4740   21.5560 C   0  0  0  0  0  3  0  0  0  0  0  0
  -24.9080  -28.9010   20.1150 C   0  0  0  0  0  0  0  0  0  0  0  0
  -26.0400  -30.7250   21.3690 C   0  0  0  0  0  2  0  0  0  0  0  0
  -26.0980  -29.3270   20.7190 C   0  0  0  0  0  0  0  0  0  0  0  0
  -27.2430  -28.4470   20.7180 C   0  0  0  0  0  3  0  0  0  0  0  0
  -26.0010  -26.8150   19.4530 C   0  0  0  0  0  3  0  0  0  0  0  0
  -24.8770  -27.6630   19.4630 C   0  0  0  0  0  3  0  0  0  0  0  0
  -23.6900  -29.8010   20.1740 C   0  0  0  0  0  2  0  0  0  0  0  0
  -24.7640  -31.0470   22.0850 N   0  0  0  0  0  0  0  0  0  0  0  0
  -23.6210  -32.1610   23.7130 O   0  0  0  0  0  0  0  0  0  0  0  0
  -22.8170  -29.4680   22.5300 C   0  0  0  0  0  0  0  0  0  0  0  0
  -21.4890  -29.2930   22.4150 N   0  0  0  0  0  0  0  0  0  0  0  0
  -23.4950  -28.8510   23.3540 O   0  0  0  0  0  0  0  0  0  0  0  0
  -20.9970  -29.8380   21.7200 H   0  0  0  0  0  0  0  0  0  0  0  0
  -18.1100  -28.1030   22.9630 C   0  0  0  0  0  0  0  0  0  0  0  0
  -20.6740  -28.3670   23.2070 C   0  0  0  0  0  3  0  0  0  0  0  0
  -20.7710  -26.9310   22.6390 C   0  0  0  0  0  2  0  0  0  0  0  0
  -19.6570  -26.6040   21.6390 C   0  0  0  0  0  2  0  0  0  0  0  0
  -18.2810  -26.7510   22.2890 C   0  0  0  0  0  2  0  0  0  0  0  0
  -19.2320  -28.8690   23.3780 C   0  0  0  0  0  0  0  0  0  0  0  0
  -19.0110  -30.1370   23.9640 C   0  0  0  0  0  3  0  0  0  0  0  0
  -17.7060  -30.6330   24.1400 C   0  0  0  0  0  3  0  0  0  0  0  0
  -16.6000  -29.8640   23.7400 C   0  0  0  0  0  3  0  0  0  0  0  0
  -16.8050  -28.6020   23.1520 C   0  0  0  0  0  3  0  0  0  0  0  0
  -25.9870  -32.5120   23.7810 C   0  0  0  0  0  3  0  0  0  0  0  0
  -26.5270  -31.7300   25.0400 C   0  0  1  0  0  0  0  0  0  0  0  0
  -25.4520  -31.4670   26.1230 C   0  0  0  0  0  1  0  0  0  0  0  0
  -27.1140  -30.3600   24.6270 C   0  0  0  0  0  1  0  0  0  0  0  0
  -27.6890  -32.5230   25.6840 C   0  0  0  0  0  1  0  0  0  0  0  0
  -25.6690  -33.9060   24.1320 N   0  0  0  0  0  0  0  0  0  0  0  0
  -25.9840  -34.9720   23.3820 C   0  0  0  0  0  0  0  0  0  0  0  0
  -26.6320  -34.8830   22.3360 O   0  0  0  0  0  0  0  0  0  0  0  0
  -25.0730  -34.0450   24.9340 H   0  0  0  0  0  0  0  0  0  0  0  0
  -24.2390  -36.7660   23.0940 C   0  0  0  0  0  1  0  0  0  0  0  0
  -25.5030  -36.3550   23.8660 C   0  0  0  0  0  3  0  0  0  0  0  0
  -27.6560  -37.2470   24.6450 C   0  0  0  0  0  1  0  0  0  0  0  0
  -26.5270  -37.4150   23.7340 N   0  0  0  0  0  0  0  0  0  0  0  0
  -26.1200  -38.3320   23.8990 H   0  0  0  0  0  0  0  0  0  0  0  0
  1  3  1  0
  1  2  1  0
  4  1  1  0
  5 17  1  0
  6 11  1  0
  7  8  1  0
  7  6  1  0
  9  8  1  0
  9 21  1  0
  9 10  1  0
 11  5  1  0
 11 10  1  0
 12  5  2  0
 14 13  1  0
 15 13  1  0
 16  4  1  0
 16 14  1  0
 17 16  1  0
 17 15  1  0
 18 19  2  0
 19 38  1  0
 20 19  1  0
 20 23  1  0
 21 22  1  0
 21 18  1  0
 22 20  2  0
 23 24  1  0
 24 25  2  0
 26 29  1  0
 26 25  1  0
 27 26  2  0
 28 27  1  0
 28 23  2  0
 29 30  1  0
 30 31  1  0
 31 32  2  0
 33 32  1  0
 33 37  1  0
 34 33  2  0
 35 30  2  0
 35 34  1  0
 36 35  1  0
 38 39  1  0
 39 41  1  0
 39 42  1  0
 40 38  2  0
 43 18  1  0
 43 44  1  0
 45 43  1  0
 46  1  1  0
 46 47  1  0
 48 49  1  0
 48 47  1  0
 50 61  2  0
 51 49  1  0
 51 56  1  0
 52 60  1  0
 52 62  1  0
 53 59  1  0
 53 55  1  0
 54 60  1  0
 55 54  1  0
 56 55  2  0
 57 58  1  0
 57 51  2  0
 58 53  2  0
 59 52  1  0
 60 50  1  0
 62 64  2  0
 63 62  1  0
 65 63  1  0
 66 75  2  0
 66 71  1  0
 67 63  1  0
 67 71  1  0
 68 67  1  0
 69 70  1  0
 69 68  1  0
 70 66  1  0
 71 72  2  0
 72 73  1  0
 74 73  2  0
 75 74  1  0
 76 50  1  0
 76 81  1  0
 76 77  1  0
 77 80  1  1
 77 78  1  0
 79 77  1  0
 81 84  1  0
 82 86  1  0
 82 81  1  0
 83 82  2  0
 86 85  1  0
 88 86  1  0
 88 89  1  0
 88 87  1  0
M  ISO  4   5 100  17 100  48 101  49 101
M  END
>  <TORSDO>  (82) 
F 20

>  <SCORE>  (82) 
-12.932

>  <name>  (82) 
81

>  <ligand_id>  (82) 
81

>  <original_smiles>  (82) 
[H]c1c([H])c([H])c2c(c1[H])C([H])([H])C([H])([H])C([H])([H])C2([H])N([H])C(=O)C1([H])N(C(=O)C([H])(N([H])C(=O)C([H])(N([H])C([H])([H])[H])C([H])([H])[H])C(C([H])([H])[H])(C([H])([H])[H])C([H])([H])[H])C([H])([H])c2c([H])c(OC([H])([H])C([H])([H])C([H])([H])[N+]([H])([H])C([H])([H])C3([H])N(C(=O)N4C([H])([H])C([H])([H])C([H])([H])C([H])(n5nc(-c6c([H])c([H])c(Oc7c([H])c([H])c(F)c([H])c7F)c([H])c6[H])c(C(=O)N([H])[H])c5N([H])[H])C4([H])[H])C([H])([H])C([H])([H])C3([H])[H])c([H])c([H])c2C1([H])[H]

>  <smiles>  (82) 
[H]c1c([H])c([H])c2c(c1[H])C([H])([H])C([H])([H])C([H])([H])C2([H])N([H])C(=O)C1([H])N(C(=O)C([H])(N([H])C(=O)C([H])(N([H])C([H])([H])[H])C([H])([H])[H])C(C([H])([H])[H])(C([H])([H])[H])C([H])([H])[H])C([H])([H])c2c([H])c(OC([H])([H])C([H])([H])C([H])([H])[N+]([H])([H])C([H])([H])C3([H])N(C(=O)N4C([H])([H])C([H])([H])C([H])([H])C([H])(n5nc(-c6c([H])c([H])c(Oc7c([H])c([H])c(F)c([H])c7F)c([H])c6[H])c(C(=O)N([H])[H])c5N([H])[H])C4([H])[H])C([H])([H])C([H])([H])C3([H])[H])c([H])c([H])c2C1([H])[H]

$$$$
82:0:0
     RDKit          3D

 93102  0  0  1  0  0  0  0  0999 V2000
  -30.5800  -22.2680   20.5250 C   0  0  0  0  0  2  0  0  0  0  0  0
  -31.9490  -20.1690   20.0700 C   0  0  0  0  0  2  0  0  0  0  0  0
  -30.5610  -20.7730   20.1420 C   0  0  0  0  0  3  0  0  0  0  0  0
  -30.9910  -19.6380   21.1010 C   0  0  0  0  0  3  0  0  0  0  0  0
  -30.6160  -14.4740   20.1860 C   0  0  0  0  0  0  0  0  0  0  0  0
  -30.2100  -12.4070   18.9090 C   0  0  0  0  0  2  0  0  0  0  0  0
  -29.2080  -12.6700   17.7670 C   0  0  0  0  0  2  0  0  0  0  0  0
  -27.7530  -12.5210   18.2650 C   0  0  0  0  0  2  0  0  0  0  0  0
  -27.4850  -13.2830   19.5900 C   0  0  0  0  0  3  0  0  0  0  0  0
  -28.6000  -13.0080   20.6240 C   0  0  0  0  0  2  0  0  0  0  0  0
  -29.8950  -13.3360   20.0030 N   0  0  0  0  0  0  0  0  0  0  0  0
  -31.6830  -14.6910   19.6020 O   0  0  0  0  0  0  0  0  0  0  0  0
  -29.0430  -16.2940   20.6620 C   0  0  0  0  0  2  0  0  0  0  0  0
  -31.0520  -15.9870   22.0290 C   0  0  0  0  0  2  0  0  0  0  0  0
  -29.2860  -17.7910   21.0180 C   0  0  0  0  0  2  0  0  0  0  0  0
  -31.6710  -17.2960   21.4830 C   0  0  0  0  0  2  0  0  0  0  0  0
  -30.1320  -15.3790   21.0680 N   0  0  0  0  0  0  0  0  0  0  0  0
  -30.6980  -18.2040   20.8010 N   0  0  2  0  0  4  0  0  0  0  0  0
  -30.8620  -18.0790   19.8120 H   0  0  0  0  0  0  0  0  0  0  0  0
  -25.1150  -13.8530   20.4200 C   0  0  0  0  0  0  0  0  0  0  0  0
  -24.0750  -13.0640   20.8360 C   0  0  0  0  0  0  0  0  0  0  0  0
  -24.5530  -11.7190   20.7670 C   0  0  0  0  0  0  0  0  0  0  0  0
  -26.1590  -12.9880   20.1300 N   0  0  0  0  0  0  0  0  0  0  0  0
  -25.8240  -11.6990   20.3920 N   0  0  0  0  0  0  0  0  0  0  0  0
  -23.8570  -10.4440   20.9750 C   0  0  0  0  0  0  0  0  0  0  0  0
  -24.3320   -9.4800   21.8920 C   0  0  0  0  0  3  0  0  0  0  0  0
  -23.6320   -8.2710   22.0870 C   0  0  0  0  0  3  0  0  0  0  0  0
  -22.4410   -8.0180   21.3660 C   0  0  0  0  0  0  0  0  0  0  0  0
  -21.9850   -8.9710   20.4350 C   0  0  0  0  0  3  0  0  0  0  0  0
  -22.6880  -10.1710   20.2400 C   0  0  0  0  0  3  0  0  0  0  0  0
  -21.7060   -6.8620   21.4740 O   0  0  0  0  0  0  0  0  0  0  0  0
  -21.6910   -6.1200   22.6280 C   0  0  0  0  0  0  0  0  0  0  0  0
  -21.2750   -6.6700   23.8610 C   0  0  0  0  0  3  0  0  0  0  0  0
  -21.2070   -5.8540   25.0070 C   0  0  0  0  0  3  0  0  0  0  0  0
  -21.5470   -4.4910   24.9240 C   0  0  0  0  0  0  0  0  0  0  0  0
  -21.9570   -3.9400   23.6960 C   0  0  0  0  0  3  0  0  0  0  0  0
  -22.0260   -4.7540   22.5510 C   0  0  0  0  0  0  0  0  0  0  0  0
  -22.4000   -4.2120   21.3660 F   0  0  0  0  0  0  0  0  0  0  0  0
  -21.4760   -3.7060   26.0230 F   0  0  0  0  0  0  0  0  0  0  0  0
  -22.6860  -13.5200   21.1820 C   0  0  0  0  0  0  0  0  0  0  0  0
  -22.0060  -12.8050   22.0710 N   0  0  0  0  0  0  0  0  0  0  0  0
  -22.2120  -14.5440   20.6960 O   0  0  0  0  0  0  0  0  0  0  0  0
  -22.4030  -11.9760   22.4880 H   0  0  0  0  0  0  0  0  0  0  0  0
  -21.0740  -13.0920   22.3360 H   0  0  0  0  0  0  0  0  0  0  0  0
  -25.2520  -15.2260   20.2450 N   0  0  0  0  0  0  0  0  0  0  0  0
  -24.4720  -15.8620   20.3710 H   0  0  0  0  0  0  0  0  0  0  0  0
  -26.0620  -15.6720   19.8360 H   0  0  0  0  0  0  0  0  0  0  0  0
  -29.3750  -23.0580   20.1500 N   0  0  0  0  0  4  0  0  0  0  0  0
  -28.6020  -22.7430   20.7150 H   0  0  0  0  0  0  0  0  0  0  0  0
  -29.1530  -22.8450   19.1910 H   0  0  0  0  0  0  0  0  0  0  0  0
  -29.5330  -24.5420   20.2980 C   0  0  0  0  0  2  0  0  0  0  0  0
  -28.2850  -25.3490   19.8550 C   0  0  0  0  0  2  0  0  0  0  0  0
  -28.3600  -26.7470   20.2150 O   0  0  0  0  0  0  0  0  0  0  0  0
  -24.5780  -31.9480   23.3230 C   0  0  0  0  0  0  0  0  0  0  0  0
  -27.1830  -27.4820   20.2080 C   0  0  0  0  0  0  0  0  0  0  0  0
  -23.3540  -30.5640   21.6740 C   0  0  0  0  0  3  0  0  0  0  0  0
  -24.7920  -29.0170   20.2420 C   0  0  0  0  0  0  0  0  0  0  0  0
  -25.8840  -30.8930   21.4800 C   0  0  0  0  0  2  0  0  0  0  0  0
  -25.9560  -29.5220   20.8370 C   0  0  0  0  0  0  0  0  0  0  0  0
  -27.1480  -28.7600   20.8250 C   0  0  0  0  0  3  0  0  0  0  0  0
  -25.9940  -27.0020   19.6040 C   0  0  0  0  0  3  0  0  0  0  0  0
  -24.8090  -27.7570   19.6240 C   0  0  0  0  0  3  0  0  0  0  0  0
  -23.5560  -29.8870   20.2910 C   0  0  0  0  0  2  0  0  0  0  0  0
  -24.6220  -31.1520   22.2150 N   0  0  0  0  0  0  0  0  0  0  0  0
  -23.5020  -32.2270   23.8690 O   0  0  0  0  0  0  0  0  0  0  0  0
  -22.6960  -29.5480   22.6350 C   0  0  0  0  0  0  0  0  0  0  0  0
  -21.3730  -29.3620   22.4950 N   0  0  0  0  0  0  0  0  0  0  0  0
  -23.3730  -28.9300   23.4620 O   0  0  0  0  0  0  0  0  0  0  0  0
  -20.8940  -29.9070   21.7930 H   0  0  0  0  0  0  0  0  0  0  0  0
  -18.0000  -28.1480   22.9500 C   0  0  0  0  0  0  0  0  0  0  0  0
  -20.5510  -28.4280   23.2620 C   0  0  0  0  0  3  0  0  0  0  0  0
  -20.6770  -26.9930   22.7020 C   0  0  0  0  0  2  0  0  0  0  0  0
  -19.5940  -26.6520   21.6730 C   0  0  0  0  0  2  0  0  0  0  0  0
  -18.1980  -26.7930   22.2890 C   0  0  0  0  0  2  0  0  0  0  0  0
  -19.1070  -28.9200   23.3920 C   0  0  0  0  0  0  0  0  0  0  0  0
  -18.8740  -30.1870   23.9700 C   0  0  0  0  0  3  0  0  0  0  0  0
  -17.5650  -30.6820   24.1160 C   0  0  0  0  0  3  0  0  0  0  0  0
  -16.4710  -29.9070   23.6920 C   0  0  0  0  0  3  0  0  0  0  0  0
  -16.6890  -28.6430   23.1140 C   0  0  0  0  0  3  0  0  0  0  0  0
  -25.8730  -32.5640   23.9400 C   0  0  0  0  0  3  0  0  0  0  0  0
  -26.3810  -31.7970   25.2240 C   0  0  1  0  0  0  0  0  0  0  0  0
  -25.2870  -31.5840   26.2960 C   0  0  0  0  0  1  0  0  0  0  0  0
  -26.9480  -30.4090   24.8420 C   0  0  0  0  0  1  0  0  0  0  0  0
  -27.5330  -32.5880   25.8880 C   0  0  0  0  0  1  0  0  0  0  0  0
  -25.5880  -33.9690   24.2570 N   0  0  0  0  0  0  0  0  0  0  0  0
  -25.9160  -35.0080   23.4800 C   0  0  0  0  0  0  0  0  0  0  0  0
  -26.5630  -34.8870   22.4360 O   0  0  0  0  0  0  0  0  0  0  0  0
  -25.0290  -34.1440   25.0780 H   0  0  0  0  0  0  0  0  0  0  0  0
  -24.1840  -36.8030   23.1520 C   0  0  0  0  0  1  0  0  0  0  0  0
  -25.4480  -36.4040   23.9310 C   0  0  0  0  0  3  0  0  0  0  0  0
  -27.6050  -37.2940   24.6880 C   0  0  0  0  0  1  0  0  0  0  0  0
  -26.4780  -37.4550   23.7760 N   0  0  0  0  0  0  0  0  0  0  0  0
  -26.0770  -38.3770   23.9300 H   0  0  0  0  0  0  0  0  0  0  0  0
  2  3  1  0
  3  1  1  0
  3  4  1  0
  4  2  1  0
  5 17  1  0
  6 11  1  0
  7  8  1  0
  7  6  1  0
  9  8  1  0
  9 23  1  0
  9 10  1  0
 11  5  1  0
 11 10  1  0
 12  5  2  0
 13 15  1  0
 13 17  1  0
 16 14  1  0
 17 14  1  0
 18 19  1  6
 18 15  1  0
 18  4  1  0
 18 16  1  0
 20 21  2  0
 21 40  1  0
 22 21  1  0
 22 25  1  0
 23 24  1  0
 23 20  1  0
 24 22  2  0
 25 26  1  0
 26 27  2  0
 28 31  1  0
 28 27  1  0
 29 28  2  0
 30 29  1  0
 30 25  2  0
 31 32  1  0
 32 33  1  0
 33 34  2  0
 35 34  1  0
 35 39  1  0
 36 35  2  0
 37 32  2  0
 37 36  1  0
 38 37  1  0
 40 41  1  0
 41 44  1  0
 41 43  1  0
 42 40  2  0
 45 46  1  0
 45 20  1  0
 47 45  1  0
 48 51  1  0
 48  1  1  0
 48 49  1  0
 50 48  1  0
 52 53  1  0
 52 51  1  0
 54 65  2  0
 55 53  1  0
 55 60  1  0
 56 64  1  0
 56 66  1  0
 57 63  1  0
 57 59  1  0
 58 64  1  0
 59 58  1  0
 60 59  2  0
 61 62  1  0
 61 55  2  0
 62 57  2  0
 63 56  1  0
 64 54  1  0
 66 68  2  0
 67 66  1  0
 69 67  1  0
 70 79  2  0
 70 75  1  0
 71 67  1  0
 71 75  1  0
 72 71  1  0
 73 74  1  0
 73 72  1  0
 74 70  1  0
 75 76  2  0
 76 77  1  0
 78 77  2  0
 79 78  1  0
 80 54  1  0
 80 85  1  0
 80 81  1  0
 81 84  1  1
 81 82  1  0
 83 81  1  0
 85 88  1  0
 86 90  1  0
 86 85  1  0
 87 86  2  0
 90 89  1  0
 92 93  1  0
 92 90  1  0
 92 91  1  0
M  ISO  4   5 100  17 100  52 101  53 101
M  END
>  <TORSDO>  (83) 
F 20

>  <SCORE>  (83) 
-13.515

>  <name>  (83) 
82

>  <ligand_id>  (83) 
82

>  <original_smiles>  (83) 
[H]c1c([H])c([H])c2c(c1[H])C([H])([H])C([H])([H])C([H])([H])C2([H])N([H])C(=O)C1([H])N(C(=O)C([H])(N([H])C(=O)C([H])(N([H])C([H])([H])[H])C([H])([H])[H])C(C([H])([H])[H])(C([H])([H])[H])C([H])([H])[H])C([H])([H])c2c([H])c(OC([H])([H])C([H])([H])[N+]([H])([H])C([H])([H])C3([H])C([H])([H])C3([H])[N+]3([H])C([H])([H])C([H])([H])N(C(=O)N4C([H])([H])C([H])([H])C([H])([H])C([H])(n5nc(-c6c([H])c([H])c(Oc7c([H])c([H])c(F)c([H])c7F)c([H])c6[H])c(C(=O)N([H])[H])c5N([H])[H])C4([H])[H])C([H])([H])C3([H])[H])c([H])c([H])c2C1([H])[H]

>  <smiles>  (83) 
[H]c1c([H])c([H])c2c(c1[H])C([H])([H])C([H])([H])C([H])([H])C2([H])N([H])C(=O)C1([H])N(C(=O)C([H])(N([H])C(=O)C([H])(N([H])C([H])([H])[H])C([H])([H])[H])C(C([H])([H])[H])(C([H])([H])[H])C([H])([H])[H])C([H])([H])c2c([H])c(OC([H])([H])C([H])([H])[N+]([H])([H])C([H])([H])C3([H])C([H])([H])C3([H])[N+]3([H])C([H])([H])C([H])([H])N(C(=O)N4C([H])([H])C([H])([H])C([H])([H])C([H])(n5nc(-c6c([H])c([H])c(Oc7c([H])c([H])c(F)c([H])c7F)c([H])c6[H])c(C(=O)N([H])[H])c5N([H])[H])C4([H])[H])C([H])([H])C3([H])[H])c([H])c([H])c2C1([H])[H]

$$$$
83:0:0
     RDKit          3D

 98108  0  0  1  0  0  0  0  0999 V2000
  -30.7330  -24.6190   18.5950 C   0  0  0  0  0  3  0  0  0  0  0  0
  -32.3750  -23.1580   19.3160 C   0  0  0  0  0  0  0  0  0  0  0  0
  -29.9480  -24.3040   19.7220 C   0  0  0  0  0  0  0  0  0  0  0  0
  -31.5780  -22.8260   20.4480 C   0  0  0  0  0  0  0  0  0  0  0  0
  -31.9370  -24.0410   18.3860 N   0  0  0  0  0  0  0  0  0  0  0  0
  -30.3630  -23.3970   20.6440 N   0  0  0  0  0  0  0  0  0  0  0  0
  -34.9340  -22.7380   19.9070 C   0  0  0  0  0  2  0  0  0  0  0  0
  -34.8390  -23.5390   18.6380 C   0  0  0  0  0  2  0  0  0  0  0  0
  -33.7250  -22.5840   19.0070 C   0  0  0  0  0  3  0  0  0  0  0  0
  -32.0090  -21.8350   21.5240 C   0  0  0  0  0  2  0  0  0  0  0  0
  -31.0660  -20.7080   21.6560 N   0  0  0  0  0  4  0  0  0  0  0  0
  -30.2230  -20.9370   21.1530 H   0  0  0  0  0  0  0  0  0  0  0  0
  -30.8280  -20.6580   22.6310 H   0  0  0  0  0  0  0  0  0  0  0  0
  -31.5830  -19.3810   21.2470 C   0  0  0  0  0  2  0  0  0  0  0  0
  -30.7730  -18.2420   21.9040 C   0  0  0  0  0  2  0  0  0  0  0  0
  -31.0620  -13.9510   19.3630 C   0  0  0  0  0  0  0  0  0  0  0  0
  -30.3350  -11.9340   18.1330 C   0  0  0  0  0  2  0  0  0  0  0  0
  -29.2160  -12.2570   17.1250 C   0  0  0  0  0  2  0  0  0  0  0  0
  -27.8330  -12.1470   17.7890 C   0  0  0  0  0  2  0  0  0  0  0  0
  -27.7640  -12.9530   19.1130 C   0  0  0  0  0  3  0  0  0  0  0  0
  -28.9760  -12.6510   20.0170 C   0  0  0  0  0  2  0  0  0  0  0  0
  -30.2270  -12.8750   19.2620 N   0  0  0  0  0  0  0  0  0  0  0  0
  -31.9220  -14.2030   18.5120 O   0  0  0  0  0  0  0  0  0  0  0  0
  -30.7780  -15.7480   22.5600 C   0  0  0  0  0  2  0  0  0  0  0  0
  -31.0750  -14.4660   21.7910 C   0  0  0  0  0  2  0  0  0  0  0  0
  -31.0290  -16.2660   20.2320 C   0  0  0  0  0  2  0  0  0  0  0  0
  -31.3270  -16.8300   21.6330 C   0  0  0  0  0  3  0  0  0  0  0  0
  -30.8420  -14.8120   20.3830 N   0  0  0  0  0  0  0  0  0  0  0  0
  -25.5680  -13.6360   20.2790 C   0  0  0  0  0  0  0  0  0  0  0  0
  -24.5430  -12.8960   20.8090 C   0  0  0  0  0  0  0  0  0  0  0  0
  -24.9140  -11.5280   20.6370 C   0  0  0  0  0  0  0  0  0  0  0  0
  -26.5030  -12.7200   19.8210 N   0  0  0  0  0  0  0  0  0  0  0  0
  -26.1220  -11.4440   20.0940 N   0  0  0  0  0  0  0  0  0  0  0  0
  -24.1620  -10.2930   20.9030 C   0  0  0  0  0  0  0  0  0  0  0  0
  -24.5990   -9.3530   21.8630 C   0  0  0  0  0  3  0  0  0  0  0  0
  -23.8480   -8.1840   22.1150 C   0  0  0  0  0  3  0  0  0  0  0  0
  -22.6430   -7.9490   21.4070 C   0  0  0  0  0  0  0  0  0  0  0  0
  -22.2260   -8.8770   20.4370 C   0  0  0  0  0  3  0  0  0  0  0  0
  -22.9790  -10.0360   20.1840 C   0  0  0  0  0  3  0  0  0  0  0  0
  -21.8630   -6.8290   21.5650 O   0  0  0  0  0  0  0  0  0  0  0  0
  -21.7120   -6.2210   22.7860 C   0  0  0  0  0  0  0  0  0  0  0  0
  -21.1860   -6.9110   23.9010 C   0  0  0  0  0  3  0  0  0  0  0  0
  -20.9850   -6.2290   25.1190 C   0  0  0  0  0  3  0  0  0  0  0  0
  -21.3000   -4.8610   25.2180 C   0  0  0  0  0  0  0  0  0  0  0  0
  -21.8190   -4.1720   24.1090 C   0  0  0  0  0  3  0  0  0  0  0  0
  -22.0230   -4.8510   22.8940 C   0  0  0  0  0  0  0  0  0  0  0  0
  -22.5030   -4.1780   21.8210 F   0  0  0  0  0  0  0  0  0  0  0  0
  -21.0990   -4.2040   26.3850 F   0  0  0  0  0  0  0  0  0  0  0  0
  -23.2480  -13.4280   21.3500 C   0  0  0  0  0  0  0  0  0  0  0  0
  -22.6730  -12.7590   22.3430 N   0  0  0  0  0  0  0  0  0  0  0  0
  -22.7570  -14.4740   20.9240 O   0  0  0  0  0  0  0  0  0  0  0  0
  -23.0800  -11.9140   22.7130 H   0  0  0  0  0  0  0  0  0  0  0  0
  -21.8110  -13.1040   22.7420 H   0  0  0  0  0  0  0  0  0  0  0  0
  -25.7690  -15.0060   20.1400 N   0  0  0  0  0  0  0  0  0  0  0  0
  -25.0580  -15.6750   20.4170 H   0  0  0  0  0  0  0  0  0  0  0  0
  -26.5730  -15.4410   19.7030 H   0  0  0  0  0  0  0  0  0  0  0  0
  -28.5800  -24.9340   19.9200 C   0  0  0  0  0  2  0  0  0  0  0  0
  -28.6380  -26.3190   20.2830 O   0  0  0  0  0  0  0  0  0  0  0  0
  -24.6950  -31.4940   23.1840 C   0  0  0  0  0  0  0  0  0  0  0  0
  -27.4530  -27.0290   20.2240 C   0  0  0  0  0  0  0  0  0  0  0  0
  -23.5500  -30.0730   21.5170 C   0  0  0  0  0  3  0  0  0  0  0  0
  -25.0530  -28.5300   20.1560 C   0  0  0  0  0  0  0  0  0  0  0  0
  -26.0820  -30.4280   21.4100 C   0  0  0  0  0  2  0  0  0  0  0  0
  -26.1890  -29.0550   20.7810 C   0  0  0  0  0  0  0  0  0  0  0  0
  -27.3910  -28.3100   20.8160 C   0  0  0  0  0  3  0  0  0  0  0  0
  -26.2910  -26.5160   19.5930 C   0  0  0  0  0  3  0  0  0  0  0  0
  -25.0990  -27.2580   19.5650 C   0  0  0  0  0  3  0  0  0  0  0  0
  -23.8080  -29.3870   20.1510 C   0  0  0  0  0  2  0  0  0  0  0  0
  -24.7910  -30.6810   22.0950 N   0  0  0  0  0  0  0  0  0  0  0  0
  -23.5930  -31.7710   23.6820 O   0  0  0  0  0  0  0  0  0  0  0  0
  -22.8690  -29.0580   22.4630 C   0  0  0  0  0  0  0  0  0  0  0  0
  -21.5520  -28.8620   22.2800 N   0  0  0  0  0  0  0  0  0  0  0  0
  -23.5220  -28.4490   23.3120 O   0  0  0  0  0  0  0  0  0  0  0  0
  -21.0920  -29.4010   21.5590 H   0  0  0  0  0  0  0  0  0  0  0  0
  -18.1600  -27.6830   22.6680 C   0  0  0  0  0  0  0  0  0  0  0  0
  -20.7080  -27.9300   23.0250 C   0  0  0  0  0  3  0  0  0  0  0  0
  -20.8270  -26.4980   22.4520 C   0  0  0  0  0  2  0  0  0  0  0  0
  -19.7560  -26.1790   21.4050 C   0  0  0  0  0  2  0  0  0  0  0  0
  -18.3540  -26.3300   22.0030 C   0  0  0  0  0  2  0  0  0  0  0  0
  -19.2670  -28.4410   23.1330 C   0  0  0  0  0  0  0  0  0  0  0  0
  -19.0340  -29.7090   23.7090 C   0  0  0  0  0  3  0  0  0  0  0  0
  -17.7260  -30.2140   23.8350 C   0  0  0  0  0  3  0  0  0  0  0  0
  -16.6320  -29.4510   23.3890 C   0  0  0  0  0  3  0  0  0  0  0  0
  -16.8510  -28.1890   22.8070 C   0  0  0  0  0  3  0  0  0  0  0  0
  -25.9560  -32.1300   23.8440 C   0  0  0  0  0  3  0  0  0  0  0  0
  -25.6320  -33.5280   24.1600 N   0  0  0  0  0  0  0  0  0  0  0  0
  -25.9340  -34.5740   23.3780 C   0  0  0  0  0  0  0  0  0  0  0  0
  -26.5870  -34.4650   22.3370 O   0  0  0  0  0  0  0  0  0  0  0  0
  -25.0530  -33.6850   24.9710 H   0  0  0  0  0  0  0  0  0  0  0  0
  -24.1450  -36.3080   23.0540 C   0  0  0  0  0  1  0  0  0  0  0  0
  -25.4290  -35.9600   23.8230 C   0  0  0  0  0  3  0  0  0  0  0  0
  -27.5650  -36.9240   24.5520 C   0  0  0  0  0  1  0  0  0  0  0  0
  -26.4280  -37.0350   23.6410 N   0  0  0  0  0  0  0  0  0  0  0  0
  -26.0040  -37.9480   23.7750 H   0  0  0  0  0  0  0  0  0  0  0  0
  -26.4380  -31.3630   25.1350 C   0  0  1  0  0  0  0  0  0  0  0  0
  -25.3120  -31.1120   26.1650 C   0  0  0  0  0  1  0  0  0  0  0  0
  -27.0480  -29.9930   24.7600 C   0  0  0  0  0  1  0  0  0  0  0  0
  -27.5590  -32.1670   25.8340 C   0  0  0  0  0  1  0  0  0  0  0  0
  1  3  1  0
  2  4  2  0
  3 57  1  0
  3  6  2  0
  4  6  1  0
  4 10  1  0
  5  1  2  0
  5  2  1  0
  8  9  1  0
  8  7  1  0
  9  2  1  0
  9  7  1  0
 10 11  1  0
 11 13  1  0
 12 11  1  0
 14 11  1  0
 14 15  1  0
 16 28  1  0
 17 22  1  0
 18 19  1  0
 18 17  1  0
 20 19  1  0
 20 32  1  0
 20 21  1  0
 22 16  1  0
 22 21  1  0
 23 16  2  0
 25 24  1  0
 26 28  1  0
 26 27  1  0
 27 15  1  0
 27 24  1  0
 28 25  1  0
 29 30  2  0
 30 49  1  0
 31 30  1  0
 31 34  1  0
 32 33  1  0
 32 29  1  0
 33 31  2  0
 34 35  1  0
 35 36  2  0
 37 40  1  0
 37 36  1  0
 38 37  2  0
 39 38  1  0
 39 34  2  0
 40 41  1  0
 41 46  2  0
 41 42  1  0
 42 43  2  0
 43 44  1  0
 44 48  1  0
 45 44  2  0
 46 45  1  0
 47 46  1  0
 49 50  1  0
 50 52  1  0
 50 53  1  0
 51 49  2  0
 54 29  1  0
 54 55  1  0
 56 54  1  0
 57 58  1  0
 59 70  2  0
 60 58  1  0
 60 65  1  0
 61 69  1  0
 61 71  1  0
 62 64  1  0
 63 69  1  0
 64 65  2  0
 64 63  1  0
 66 60  2  0
 67 66  1  0
 67 62  2  0
 68 62  1  0
 68 61  1  0
 69 59  1  0
 71 73  2  0
 72 71  1  0
 74 72  1  0
 75 84  2  0
 75 80  1  0
 76 72  1  0
 76 80  1  0
 77 76  1  0
 78 79  1  0
 78 77  1  0
 79 75  1  0
 80 81  2  0
 81 82  1  0
 83 82  2  0
 84 83  1  0
 85 59  1  0
 85 86  1  0
 85 95  1  0
 86 89  1  0
 87 91  1  0
 87 86  1  0
 88 87  2  0
 91 90  1  0
 93 94  1  0
 93 91  1  0
 93 92  1  0
 95 98  1  1
 95 96  1  0
 97 95  1  0
M  ISO  4  16 100  28 100  57 101  58 101
M  END
>  <TORSDO>  (84) 
F 22

>  <SCORE>  (84) 
-10.057

>  <name>  (84) 
83

>  <ligand_id>  (84) 
83

>  <original_smiles>  (84) 
[H]c1nc(C2([H])C([H])([H])C2([H])[H])c(C([H])([H])[N+]([H])([H])C([H])([H])C([H])([H])C2([H])C([H])([H])N(C(=O)N3C([H])([H])C([H])([H])C([H])([H])C([H])(n4nc(-c5c([H])c([H])c(Oc6c([H])c([H])c(F)c([H])c6F)c([H])c5[H])c(C(=O)N([H])[H])c4N([H])[H])C3([H])[H])C([H])([H])C2([H])[H])nc1C([H])([H])Oc1c([H])c([H])c2c(c1[H])C([H])([H])N(C(=O)C([H])(N([H])C(=O)C([H])(N([H])C([H])([H])[H])C([H])([H])[H])C(C([H])([H])[H])(C([H])([H])[H])C([H])([H])[H])C([H])(C(=O)N([H])C1([H])c3c([H])c([H])c([H])c([H])c3C([H])([H])C([H])([H])C1([H])[H])C2([H])[H]

>  <smiles>  (84) 
[H]c1nc(C2([H])C([H])([H])C2([H])[H])c(C([H])([H])[N+]([H])([H])C([H])([H])C([H])([H])C2([H])C([H])([H])N(C(=O)N3C([H])([H])C([H])([H])C([H])([H])C([H])(n4nc(-c5c([H])c([H])c(Oc6c([H])c([H])c(F)c([H])c6F)c([H])c5[H])c(C(=O)N([H])[H])c4N([H])[H])C3([H])[H])C([H])([H])C2([H])[H])nc1C([H])([H])Oc1c([H])c([H])c2c(c1[H])C([H])([H])N(C(=O)C([H])(N([H])C(=O)C([H])(N([H])C([H])([H])[H])C([H])([H])[H])C(C([H])([H])[H])(C([H])([H])[H])C([H])([H])[H])C([H])(C(=O)N([H])C1([H])c3c([H])c([H])c([H])c([H])c3C([H])([H])C([H])([H])C1([H])[H])C2([H])[H]

$$$$
84:0:0
     RDKit          3D

 99110  0  0  1  0  0  0  0  0999 V2000
  -33.5570  -23.4980   20.4040 C   0  0  0  0  0  2  0  0  0  0  0  0
  -33.0790  -24.8830   19.9490 C   0  0  0  0  0  2  0  0  0  0  0  0
  -32.4800  -22.8850   19.4930 C   0  0  0  0  0  3  0  0  0  0  0  0
  -31.7300  -24.2250   19.6110 C   0  0  0  0  0  3  0  0  0  0  0  0
  -31.5350  -21.2700   21.2220 C   0  0  0  0  0  3  0  0  0  0  0  0
  -30.9860  -19.5380   19.1830 C   0  0  0  0  0  3  0  0  0  0  0  0
  -30.9630  -20.0230   21.5640 C   0  0  0  0  0  0  0  0  0  0  0  0
  -30.6880  -19.1260   20.5000 C   0  0  0  0  0  0  0  0  0  0  0  0
  -31.8160  -21.5720   19.8810 C   0  0  0  0  0  0  0  0  0  0  0  0
  -31.5360  -20.7270   18.8740 N   0  0  0  0  0  0  0  0  0  0  0  0
  -31.0430  -14.5940   20.2980 C   0  0  0  0  0  0  0  0  0  0  0  0
  -30.6770  -12.4700   19.1290 C   0  0  0  0  0  2  0  0  0  0  0  0
  -29.7150  -12.7300   17.9530 C   0  0  0  0  0  2  0  0  0  0  0  0
  -28.2480  -12.6110   18.4140 C   0  0  0  0  0  2  0  0  0  0  0  0
  -27.9530  -13.4270   19.7000 C   0  0  0  0  0  3  0  0  0  0  0  0
  -29.0280  -13.1690   20.7790 C   0  0  0  0  0  2  0  0  0  0  0  0
  -30.3450  -13.4370   20.1810 N   0  0  0  0  0  0  0  0  0  0  0  0
  -32.1890  -14.7440   19.8600 O   0  0  0  0  0  0  0  0  0  0  0  0
  -30.0080  -16.6660   19.6690 C   0  0  0  0  0  2  0  0  0  0  0  0
  -30.9240  -16.7070   21.5320 C   0  0  0  0  0  2  0  0  0  0  0  0
  -30.1150  -17.7300   20.7490 C   0  0  0  0  0  3  0  0  0  0  0  0
  -30.3190  -15.6560   20.6960 N   0  0  0  0  0  0  0  0  0  0  0  0
  -25.5790  -14.0610   20.4660 C   0  0  0  0  0  0  0  0  0  0  0  0
  -24.5060  -13.2970   20.8430 C   0  0  0  0  0  0  0  0  0  0  0  0
  -24.9480  -11.9410   20.7810 C   0  0  0  0  0  0  0  0  0  0  0  0
  -26.6070  -13.1680   20.2020 N   0  0  0  0  0  0  0  0  0  0  0  0
  -26.2300  -11.8870   20.4480 N   0  0  0  0  0  0  0  0  0  0  0  0
  -24.2090  -10.6850   20.9640 C   0  0  0  0  0  0  0  0  0  0  0  0
  -24.6030   -9.7300   21.9280 C   0  0  0  0  0  3  0  0  0  0  0  0
  -23.8660   -8.5390   22.0970 C   0  0  0  0  0  3  0  0  0  0  0  0
  -22.7210   -8.2930   21.3020 C   0  0  0  0  0  0  0  0  0  0  0  0
  -22.3470   -9.2360   20.3290 C   0  0  0  0  0  3  0  0  0  0  0  0
  -23.0840  -10.4190   20.1570 C   0  0  0  0  0  3  0  0  0  0  0  0
  -21.9590   -7.1530   21.3790 O   0  0  0  0  0  0  0  0  0  0  0  0
  -21.8010   -6.4720   22.5600 C   0  0  0  0  0  0  0  0  0  0  0  0
  -21.2550   -7.0870   23.7070 C   0  0  0  0  0  3  0  0  0  0  0  0
  -21.0450   -6.3320   24.8790 C   0  0  0  0  0  3  0  0  0  0  0  0
  -21.3690   -4.9630   24.9020 C   0  0  0  0  0  0  0  0  0  0  0  0
  -21.9080   -4.3470   23.7580 C   0  0  0  0  0  3  0  0  0  0  0  0
  -22.1200   -5.1000   22.5890 C   0  0  0  0  0  0  0  0  0  0  0  0
  -22.6200   -4.4970   21.4840 F   0  0  0  0  0  0  0  0  0  0  0  0
  -21.1610   -4.2350   26.0240 F   0  0  0  0  0  0  0  0  0  0  0  0
  -23.1220  -13.7880   21.1510 C   0  0  0  0  0  0  0  0  0  0  0  0
  -22.4080  -13.0960   22.0330 N   0  0  0  0  0  0  0  0  0  0  0  0
  -22.6820  -14.8210   20.6460 O   0  0  0  0  0  0  0  0  0  0  0  0
  -22.7760  -12.2590   22.4620 H   0  0  0  0  0  0  0  0  0  0  0  0
  -21.4800  -13.4080   22.2830 H   0  0  0  0  0  0  0  0  0  0  0  0
  -25.7610  -15.4320   20.3080 N   0  0  0  0  0  0  0  0  0  0  0  0
  -25.0120  -16.1000   20.4520 H   0  0  0  0  0  0  0  0  0  0  0  0
  -26.6250  -15.8630   20.0060 H   0  0  0  0  0  0  0  0  0  0  0  0
  -30.1850  -20.7790   23.9500 C   0  0  0  0  0  2  0  0  0  0  0  0
  -31.5370  -20.1350   24.1620 C   0  0  0  0  0  2  0  0  0  0  0  0
  -30.6600  -19.6960   23.0090 C   0  0  0  0  0  3  0  0  0  0  0  0
  -31.0980  -24.7100   18.3600 N   0  0  0  0  0  4  0  0  0  0  0  0
  -30.4700  -24.0110   17.9930 H   0  0  0  0  0  0  0  0  0  0  0  0
  -31.8160  -24.8460   17.6650 H   0  0  0  0  0  0  0  0  0  0  0  0
  -30.3630  -25.9820   18.5310 C   0  0  0  0  0  2  0  0  0  0  0  0
  -28.9260  -25.7810   19.0470 C   0  0  0  0  0  2  0  0  0  0  0  0
  -28.6580  -26.8510   19.9470 O   0  0  0  0  0  0  0  0  0  0  0  0
  -24.6530  -31.7160   23.1820 C   0  0  0  0  0  0  0  0  0  0  0  0
  -27.4220  -27.4570   19.9670 C   0  0  0  0  0  0  0  0  0  0  0  0
  -23.4820  -30.3280   21.5000 C   0  0  0  0  0  3  0  0  0  0  0  0
  -24.9730  -28.8650   20.0390 C   0  0  0  0  0  0  0  0  0  0  0  0
  -25.9940  -30.7620   21.3120 C   0  0  0  0  0  2  0  0  0  0  0  0
  -26.1130  -29.4110   20.6390 C   0  0  0  0  0  0  0  0  0  0  0  0
  -27.3340  -28.7090   20.6080 C   0  0  0  0  0  3  0  0  0  0  0  0
  -26.2560  -26.8980   19.3920 C   0  0  0  0  0  3  0  0  0  0  0  0
  -25.0370  -27.6030   19.4210 C   0  0  0  0  0  3  0  0  0  0  0  0
  -23.7070  -29.6890   20.1040 C   0  0  0  0  0  2  0  0  0  0  0  0
  -24.7280  -30.9490   22.0570 N   0  0  0  0  0  0  0  0  0  0  0  0
  -23.5660  -31.9460   23.7270 O   0  0  0  0  0  0  0  0  0  0  0  0
  -22.8580  -29.2660   22.4320 C   0  0  0  0  0  0  0  0  0  0  0  0
  -21.5420  -29.0440   22.2850 N   0  0  0  0  0  0  0  0  0  0  0  0
  -23.5540  -28.6460   23.2400 O   0  0  0  0  0  0  0  0  0  0  0  0
  -21.0410  -29.5970   21.6050 H   0  0  0  0  0  0  0  0  0  0  0  0
  -18.2060  -27.7230   22.7060 C   0  0  0  0  0  0  0  0  0  0  0  0
  -20.7480  -28.0630   23.0260 C   0  0  0  0  0  3  0  0  0  0  0  0
  -20.9110  -26.6480   22.4250 C   0  0  0  0  0  2  0  0  0  0  0  0
  -19.8370  -26.3070   21.3870 C   0  0  0  0  0  2  0  0  0  0  0  0
  -18.4400  -26.3920   22.0110 C   0  0  0  0  0  2  0  0  0  0  0  0
  -19.2910  -28.5150   23.1680 C   0  0  0  0  0  0  0  0  0  0  0  0
  -19.0200  -29.7600   23.7760 C   0  0  0  0  0  3  0  0  0  0  0  0
  -17.6960  -30.2150   23.9260 C   0  0  0  0  0  3  0  0  0  0  0  0
  -16.6250  -29.4190   23.4820 C   0  0  0  0  0  3  0  0  0  0  0  0
  -16.8810  -28.1760   22.8770 C   0  0  0  0  0  3  0  0  0  0  0  0
  -25.9250  -32.3590   23.8190 C   0  0  0  0  0  3  0  0  0  0  0  0
  -25.5940  -33.7490   24.1580 N   0  0  0  0  0  0  0  0  0  0  0  0
  -25.9260  -34.8120   23.4130 C   0  0  0  0  0  0  0  0  0  0  0  0
  -26.6160  -34.7250   22.3930 O   0  0  0  0  0  0  0  0  0  0  0  0
  -24.9830  -33.8890   24.9490 H   0  0  0  0  0  0  0  0  0  0  0  0
  -24.1750  -36.5800   23.0430 C   0  0  0  0  0  1  0  0  0  0  0  0
  -25.4110  -36.1890   23.8720 C   0  0  0  0  0  3  0  0  0  0  0  0
  -27.5170  -37.1010   24.7430 C   0  0  0  0  0  1  0  0  0  0  0  0
  -26.4300  -37.2580   23.7810 N   0  0  0  0  0  0  0  0  0  0  0  0
  -26.0080  -38.1720   23.9270 H   0  0  0  0  0  0  0  0  0  0  0  0
  -26.4440  -31.5820   25.0910 C   0  0  1  0  0  0  0  0  0  0  0  0
  -25.3480  -31.3150   26.1480 C   0  0  0  0  0  1  0  0  0  0  0  0
  -27.0500  -30.2180   24.6860 C   0  0  0  0  0  1  0  0  0  0  0  0
  -27.5780  -32.3860   25.7700 C   0  0  0  0  0  1  0  0  0  0  0  0
  2  1  1  0
  3  4  1  0
  3  9  1  0
  3  1  1  0
  4 54  1  0
  4  2  1  0
  5  7  1  0
  6  8  1  0
  7 53  1  0
  8  7  2  0
  9  5  2  0
 10  6  2  0
 10  9  1  0
 11 22  1  0
 12 17  1  0
 13 14  1  0
 13 12  1  0
 15 14  1  0
 15 26  1  0
 15 16  1  0
 17 11  1  0
 17 16  1  0
 18 11  2  0
 19 22  1  0
 19 21  1  0
 21  8  1  0
 21 20  1  0
 22 20  1  0
 23 24  2  0
 24 43  1  0
 25 24  1  0
 25 28  1  0
 26 27  1  0
 26 23  1  0
 27 25  2  0
 28 29  1  0
 29 30  2  0
 31 34  1  0
 31 30  1  0
 32 31  2  0
 33 32  1  0
 33 28  2  0
 34 35  1  0
 35 40  2  0
 35 36  1  0
 36 37  2  0
 37 38  1  0
 38 42  1  0
 39 38  2  0
 40 39  1  0
 41 40  1  0
 43 44  1  0
 44 47  1  0
 44 46  1  0
 45 43  2  0
 48 49  1  0
 48 23  1  0
 50 48  1  0
 51 52  1  0
 53 51  1  0
 53 52  1  0
 54 57  1  0
 55 54  1  0
 56 54  1  0
 57 58  1  0
 58 59  1  0
 59 61  1  0
 60 71  2  0
 61 66  1  0
 62 70  1  0
 62 72  1  0
 63 69  1  0
 63 65  1  0
 64 70  1  0
 65 64  1  0
 66 65  2  0
 67 68  1  0
 67 61  2  0
 68 63  2  0
 69 62  1  0
 70 60  1  0
 72 74  2  0
 73 72  1  0
 75 73  1  0
 76 85  2  0
 76 81  1  0
 77 73  1  0
 77 81  1  0
 78 77  1  0
 79 80  1  0
 79 78  1  0
 80 76  1  0
 81 82  2  0
 82 83  1  0
 84 83  2  0
 85 84  1  0
 86 60  1  0
 86 87  1  0
 86 96  1  0
 87 90  1  0
 88 92  1  0
 88 87  1  0
 89 88  2  0
 92 91  1  0
 94 92  1  0
 94 95  1  0
 94 93  1  0
 96 99  1  1
 96 97  1  0
 98 96  1  0
M  ISO  4  11 100  22 100  58 101  59 101
M  END
>  <TORSDO>  (85) 
F 21

>  <SCORE>  (85) 
-12.610

>  <name>  (85) 
84

>  <ligand_id>  (85) 
84

>  <original_smiles>  (85) 
[H]c1nc(C2([H])C([H])([H])C([H])([H])C2([H])[N+]([H])([H])C([H])([H])C([H])([H])Oc2c([H])c([H])c3c(c2[H])C([H])([H])N(C(=O)C([H])(N([H])C(=O)C([H])(N([H])C([H])([H])[H])C([H])([H])[H])C(C([H])([H])[H])(C([H])([H])[H])C([H])([H])[H])C([H])(C(=O)N([H])C2([H])c4c([H])c([H])c([H])c([H])c4C([H])([H])C([H])([H])C2([H])[H])C3([H])[H])c([H])c(C2([H])C([H])([H])C2([H])[H])c1C1([H])C([H])([H])N(C(=O)N2C([H])([H])C([H])([H])C([H])([H])C([H])(n3nc(-c4c([H])c([H])c(Oc5c([H])c([H])c(F)c([H])c5F)c([H])c4[H])c(C(=O)N([H])[H])c3N([H])[H])C2([H])[H])C1([H])[H]

>  <smiles>  (85) 
[H]c1nc(C2([H])C([H])([H])C([H])([H])C2([H])[N+]([H])([H])C([H])([H])C([H])([H])Oc2c([H])c([H])c3c(c2[H])C([H])([H])N(C(=O)C([H])(N([H])C(=O)C([H])(N([H])C([H])([H])[H])C([H])([H])[H])C(C([H])([H])[H])(C([H])([H])[H])C([H])([H])[H])C([H])(C(=O)N([H])C2([H])c4c([H])c([H])c([H])c([H])c4C([H])([H])C([H])([H])C2([H])[H])C3([H])[H])c([H])c(C2([H])C([H])([H])C2([H])[H])c1C1([H])C([H])([H])N(C(=O)N2C([H])([H])C([H])([H])C([H])([H])C([H])(n3nc(-c4c([H])c([H])c(Oc5c([H])c([H])c(F)c([H])c5F)c([H])c4[H])c(C(=O)N([H])[H])c3N([H])[H])C2([H])[H])C1([H])[H]

$$$$
85:0:0
     RDKit          3D

 94103  0  0  1  0  0  0  0  0999 V2000
  -28.1770  -21.4720   19.8340 C   0  0  0  0  0  3  0  0  0  0  0  0
  -27.8190  -22.8530   19.8610 C   0  0  0  0  0  0  0  0  0  0  0  0
  -29.5230  -21.0680   19.6570 C   0  0  0  0  0  0  0  0  0  0  0  0
  -28.8160  -23.8590   19.7280 C   0  0  0  0  0  0  0  0  0  0  0  0
  -30.4630  -22.1380   19.6720 C   0  0  0  0  0  0  0  0  0  0  0  0
  -26.3450  -23.2130   19.9180 C   0  0  0  0  0  1  0  0  0  0  0  0
  -31.9540  -21.8840   19.5450 C   0  0  0  0  0  1  0  0  0  0  0  0
  -30.1190  -23.4640   19.7060 N   0  0  0  0  0  0  0  0  0  0  0  0
  -29.8760  -19.6050   19.1600 C   0  0  0  0  0  2  0  0  0  0  0  0
  -30.8440  -14.6960   19.5680 C   0  0  0  0  0  0  0  0  0  0  0  0
  -30.3550  -12.5040   18.4850 C   0  0  0  0  0  2  0  0  0  0  0  0
  -29.2670  -12.6690   17.4040 C   0  0  0  0  0  2  0  0  0  0  0  0
  -27.8680  -12.5090   18.0290 C   0  0  0  0  0  2  0  0  0  0  0  0
  -27.6960  -13.3570   19.3180 C   0  0  0  0  0  3  0  0  0  0  0  0
  -28.8970  -13.1780   20.2760 C   0  0  0  0  0  2  0  0  0  0  0  0
  -30.1070  -13.5320   19.5240 N   0  0  0  0  0  0  0  0  0  0  0  0
  -31.9530  -14.7170   19.0270 O   0  0  0  0  0  0  0  0  0  0  0  0
  -29.2790  -16.3020   20.8850 C   0  0  0  0  0  2  0  0  0  0  0  0
  -30.8030  -17.2290   19.3970 C   0  0  0  0  0  2  0  0  0  0  0  0
  -29.1170  -17.8610   20.8810 C   0  0  0  0  0  3  0  0  0  0  0  0
  -29.1040  -18.4550   22.2940 C   0  0  0  0  0  1  0  0  0  0  0  0
  -30.2530  -15.9190   19.8550 N   0  0  0  0  0  0  0  0  0  0  0  0
  -30.2180  -18.4370   20.0760 N   0  0  2  0  0  4  0  0  0  0  0  0
  -30.9240  -18.7510   20.7230 H   0  0  0  0  0  0  0  0  0  0  0  0
  -25.4650  -13.9780   20.4270 C   0  0  0  0  0  0  0  0  0  0  0  0
  -24.4280  -13.2170   20.8950 C   0  0  0  0  0  0  0  0  0  0  0  0
  -24.8160  -11.8560   20.6910 C   0  0  0  0  0  0  0  0  0  0  0  0
  -26.4220  -13.0830   19.9780 N   0  0  0  0  0  0  0  0  0  0  0  0
  -26.0460  -11.7970   20.1970 N   0  0  0  0  0  0  0  0  0  0  0  0
  -24.0610  -10.6110   20.8790 C   0  0  0  0  0  0  0  0  0  0  0  0
  -24.5360   -9.5790   21.7180 C   0  0  0  0  0  3  0  0  0  0  0  0
  -23.7810   -8.4000   21.8970 C   0  0  0  0  0  3  0  0  0  0  0  0
  -22.5400   -8.2450   21.2370 C   0  0  0  0  0  0  0  0  0  0  0  0
  -22.0840   -9.2650   20.3830 C   0  0  0  0  0  3  0  0  0  0  0  0
  -22.8380  -10.4350   20.2010 C   0  0  0  0  0  3  0  0  0  0  0  0
  -21.7490   -7.1250   21.3340 O   0  0  0  0  0  0  0  0  0  0  0  0
  -21.7160   -6.3640   22.4760 C   0  0  0  0  0  0  0  0  0  0  0  0
  -21.3580   -6.9150   23.7270 C   0  0  0  0  0  3  0  0  0  0  0  0
  -21.2700   -6.0850   24.8620 C   0  0  0  0  0  3  0  0  0  0  0  0
  -21.5270   -4.7050   24.7500 C   0  0  0  0  0  0  0  0  0  0  0  0
  -21.8800   -4.1540   23.5050 C   0  0  0  0  0  3  0  0  0  0  0  0
  -21.9710   -4.9810   22.3710 C   0  0  0  0  0  0  0  0  0  0  0  0
  -22.2890   -4.4400   21.1700 F   0  0  0  0  0  0  0  0  0  0  0  0
  -21.4370   -3.9070   25.8390 F   0  0  0  0  0  0  0  0  0  0  0  0
  -23.1110  -13.7200   21.4060 C   0  0  0  0  0  0  0  0  0  0  0  0
  -22.4880  -12.9880   22.3230 N   0  0  0  0  0  0  0  0  0  0  0  0
  -22.6440  -14.7940   21.0260 O   0  0  0  0  0  0  0  0  0  0  0  0
  -22.8710  -12.1090   22.6380 H   0  0  0  0  0  0  0  0  0  0  0  0
  -21.6110  -13.3050   22.7080 H   0  0  0  0  0  0  0  0  0  0  0  0
  -25.6610  -15.3510   20.3180 N   0  0  0  0  0  0  0  0  0  0  0  0
  -24.9280  -16.0210   20.5210 H   0  0  0  0  0  0  0  0  0  0  0  0
  -26.4380  -15.7640   19.8230 H   0  0  0  0  0  0  0  0  0  0  0  0
  -28.5020  -25.3400   19.2490 C   0  0  0  0  0  2  0  0  0  0  0  0
  -28.2550  -26.4570   20.1800 O   0  0  0  0  0  0  0  0  0  0  0  0
  -24.5790  -31.8530   23.1880 C   0  0  0  0  0  0  0  0  0  0  0  0
  -27.1240  -27.2860   20.0870 C   0  0  0  0  0  0  0  0  0  0  0  0
  -23.3420  -30.4580   21.5680 C   0  0  0  0  0  3  0  0  0  0  0  0
  -24.7640  -28.9030   20.1190 C   0  0  0  0  0  0  0  0  0  0  0  0
  -25.8790  -30.7630   21.3520 C   0  0  0  0  0  2  0  0  0  0  0  0
  -25.9390  -29.3850   20.7040 C   0  0  0  0  0  0  0  0  0  0  0  0
  -27.1170  -28.5820   20.6880 C   0  0  0  0  0  3  0  0  0  0  0  0
  -25.9240  -26.8570   19.4710 C   0  0  0  0  0  3  0  0  0  0  0  0
  -24.7570  -27.6440   19.5000 C   0  0  0  0  0  3  0  0  0  0  0  0
  -23.5330  -29.7840   20.1840 C   0  0  0  0  0  2  0  0  0  0  0  0
  -24.6180  -31.0430   22.0910 N   0  0  0  0  0  0  0  0  0  0  0  0
  -23.5070  -32.1410   23.7380 O   0  0  0  0  0  0  0  0  0  0  0  0
  -22.6880  -29.4480   22.5400 C   0  0  0  0  0  0  0  0  0  0  0  0
  -21.3660  -29.2480   22.4080 N   0  0  0  0  0  0  0  0  0  0  0  0
  -23.3710  -28.8470   23.3730 O   0  0  0  0  0  0  0  0  0  0  0  0
  -20.8760  -29.7810   21.7030 H   0  0  0  0  0  0  0  0  0  0  0  0
  -18.0120  -27.9710   22.8480 C   0  0  0  0  0  0  0  0  0  0  0  0
  -20.5520  -28.3160   23.1880 C   0  0  0  0  0  3  0  0  0  0  0  0
  -20.7160  -26.8700   22.6640 C   0  0  0  0  0  2  0  0  0  0  0  0
  -19.6560  -26.4800   21.6320 C   0  0  0  0  0  2  0  0  0  0  0  0
  -18.2510  -26.6050   22.2290 C   0  0  0  0  0  2  0  0  0  0  0  0
  -19.0930  -28.7810   23.2840 C   0  0  0  0  0  0  0  0  0  0  0  0
  -18.8180  -30.0580   23.8200 C   0  0  0  0  0  3  0  0  0  0  0  0
  -17.4930  -30.5230   23.9330 C   0  0  0  0  0  3  0  0  0  0  0  0
  -16.4260  -29.7090   23.5160 C   0  0  0  0  0  3  0  0  0  0  0  0
  -16.6850  -28.4370   22.9770 C   0  0  0  0  0  3  0  0  0  0  0  0
  -25.8790  -32.4770   23.7890 C   0  0  0  0  0  3  0  0  0  0  0  0
  -25.5870  -33.8790   24.1200 N   0  0  0  0  0  0  0  0  0  0  0  0
  -25.9050  -34.9260   23.3460 C   0  0  0  0  0  0  0  0  0  0  0  0
  -26.5460  -34.8120   22.2980 O   0  0  0  0  0  0  0  0  0  0  0  0
  -25.0140  -34.0440   24.9350 H   0  0  0  0  0  0  0  0  0  0  0  0
  -24.1760  -36.7260   23.0320 C   0  0  0  0  0  1  0  0  0  0  0  0
  -25.4390  -36.3200   23.8090 C   0  0  0  0  0  3  0  0  0  0  0  0
  -27.6010  -37.1990   24.5730 C   0  0  0  0  0  1  0  0  0  0  0  0
  -26.4720  -37.3670   23.6600 N   0  0  0  0  0  0  0  0  0  0  0  0
  -26.0740  -38.2900   23.8130 H   0  0  0  0  0  0  0  0  0  0  0  0
  -26.4070  -31.7060   25.0610 C   0  0  1  0  0  0  0  0  0  0  0  0
  -25.3240  -31.4780   26.1420 C   0  0  0  0  0  1  0  0  0  0  0  0
  -26.9760  -30.3230   24.6680 C   0  0  0  0  0  1  0  0  0  0  0  0
  -27.5700  -32.4930   25.7060 C   0  0  0  0  0  1  0  0  0  0  0  0
  1  2  1  0
  2  6  1  0
  3  5  1  0
  3  1  2  0
  4  2  2  0
  5  8  2  0
  7  5  1  0
  8  4  1  0
  9  3  1  0
  9 23  1  0
 10 22  1  0
 11 16  1  0
 12 13  1  0
 12 11  1  0
 14 13  1  0
 14 28  1  0
 14 15  1  0
 16 10  1  0
 16 15  1  0
 17 10  2  0
 19 22  1  0
 19 23  1  0
 20 18  1  0
 20 21  1  0
 22 18  1  0
 23 24  1  1
 23 20  1  0
 25 26  2  0
 26 45  1  0
 27 30  1  0
 27 26  1  0
 28 29  1  0
 28 25  1  0
 29 27  2  0
 30 31  1  0
 31 32  2  0
 33 36  1  0
 33 32  1  0
 34 33  2  0
 35 34  1  0
 35 30  2  0
 36 37  1  0
 37 38  1  0
 38 39  2  0
 40 39  1  0
 40 44  1  0
 41 40  2  0
 42 37  2  0
 42 41  1  0
 43 42  1  0
 45 46  1  0
 46 48  1  0
 46 49  1  0
 47 45  2  0
 50 25  1  0
 50 51  1  0
 52 50  1  0
 53  4  1  0
 53 54  1  0
 55 66  2  0
 56 54  1  0
 56 61  1  0
 57 65  1  0
 57 67  1  0
 58 64  1  0
 58 60  1  0
 59 65  1  0
 60 59  1  0
 61 60  2  0
 62 63  1  0
 62 56  2  0
 63 58  2  0
 64 57  1  0
 65 55  1  0
 67 69  2  0
 68 67  1  0
 70 68  1  0
 71 80  2  0
 71 76  1  0
 72 68  1  0
 72 76  1  0
 73 72  1  0
 74 75  1  0
 74 73  1  0
 75 71  1  0
 76 77  2  0
 77 78  1  0
 79 78  2  0
 80 79  1  0
 81 55  1  0
 81 82  1  0
 81 91  1  0
 82 85  1  0
 83 87  1  0
 83 82  1  0
 84 83  2  0
 87 86  1  0
 89 87  1  0
 89 90  1  0
 89 88  1  0
 91 94  1  1
 91 92  1  0
 93 91  1  0
M  ISO  4  10 100  22 100  53 101  54 101
M  END
>  <TORSDO>  (86) 
F 18

>  <SCORE>  (86) 
-11.528

>  <name>  (86) 
85

>  <ligand_id>  (86) 
85

>  <original_smiles>  (86) 
[H]c1c([H])c([H])c2c(c1[H])C([H])([H])C([H])([H])C([H])([H])C2([H])N([H])C(=O)C1([H])N(C(=O)C([H])(N([H])C(=O)C([H])(N([H])C([H])([H])[H])C([H])([H])[H])C(C([H])([H])[H])(C([H])([H])[H])C([H])([H])[H])C([H])([H])c2c([H])c(OC([H])([H])c3nc(C([H])([H])[H])c(C([H])([H])[N+]4([H])C([H])([H])N(C(=O)N5C([H])([H])C([H])([H])C([H])([H])C([H])(n6nc(-c7c([H])c([H])c(Oc8c([H])c([H])c(F)c([H])c8F)c([H])c7[H])c(C(=O)N([H])[H])c6N([H])[H])C5([H])[H])C([H])([H])C4([H])C([H])([H])[H])c([H])c3C([H])([H])[H])c([H])c([H])c2C1([H])[H]

>  <smiles>  (86) 
[H]c1c([H])c([H])c2c(c1[H])C([H])([H])C([H])([H])C([H])([H])C2([H])N([H])C(=O)C1([H])N(C(=O)C([H])(N([H])C(=O)C([H])(N([H])C([H])([H])[H])C([H])([H])[H])C(C([H])([H])[H])(C([H])([H])[H])C([H])([H])[H])C([H])([H])c2c([H])c(OC([H])([H])c3nc(C([H])([H])[H])c(C([H])([H])[N+]4([H])C([H])([H])N(C(=O)N5C([H])([H])C([H])([H])C([H])([H])C([H])(n6nc(-c7c([H])c([H])c(Oc8c([H])c([H])c(F)c([H])c8F)c([H])c7[H])c(C(=O)N([H])[H])c6N([H])[H])C5([H])[H])C([H])([H])C4([H])C([H])([H])[H])c([H])c3C([H])([H])[H])c([H])c([H])c2C1([H])[H]

$$$$
86:0:0
     RDKit          3D

 92101  0  0  1  0  0  0  0  0999 V2000
  -27.8740  -21.1900   20.6410 C   0  0  0  0  0  2  0  0  0  0  0  0
  -28.1330  -19.6740   20.8270 C   0  0  0  0  0  2  0  0  0  0  0  0
  -30.1260  -20.6940   21.2500 C   0  0  0  0  0  2  0  0  0  0  0  0
  -29.2470  -21.8820   20.7370 C   0  0  0  0  0  3  0  0  0  0  0  0
  -29.5620  -19.5070   20.5750 N   0  0  0  0  0  0  0  0  0  0  0  0
  -29.2360  -23.1120   21.6060 N   0  0  0  0  0  4  0  0  0  0  0  0
  -29.9980  -22.9770   22.2530 H   0  0  0  0  0  0  0  0  0  0  0  0
  -28.4040  -23.1280   22.1740 H   0  0  0  0  0  0  0  0  0  0  0  0
  -29.4780  -24.4790   20.9940 C   0  0  0  0  0  3  0  0  0  0  0  0
  -28.2080  -25.3040   20.5920 C   0  0  0  0  0  3  0  0  0  0  0  0
  -28.4350  -26.7250   20.3170 O   0  0  0  0  0  0  0  0  0  0  0  0
  -24.5580  -31.9680   23.2460 C   0  0  0  0  0  0  0  0  0  0  0  0
  -27.2920  -27.5150   20.2290 C   0  0  0  0  0  0  0  0  0  0  0  0
  -23.3960  -30.5610   21.5800 C   0  0  0  0  0  3  0  0  0  0  0  0
  -24.8920  -29.0470   20.1700 C   0  0  0  0  0  0  0  0  0  0  0  0
  -25.9280  -30.9400   21.4300 C   0  0  0  0  0  2  0  0  0  0  0  0
  -26.0410  -29.5710   20.7770 C   0  0  0  0  0  0  0  0  0  0  0  0
  -27.2450  -28.8210   20.7900 C   0  0  0  0  0  3  0  0  0  0  0  0
  -26.1230  -27.0260   19.6010 C   0  0  0  0  0  3  0  0  0  0  0  0
  -24.9350  -27.7770   19.5720 C   0  0  0  0  0  3  0  0  0  0  0  0
  -23.6390  -29.8940   20.2000 C   0  0  0  0  0  2  0  0  0  0  0  0
  -24.6450  -31.1710   22.1430 N   0  0  0  0  0  0  0  0  0  0  0  0
  -23.4640  -32.2250   23.7690 O   0  0  0  0  0  0  0  0  0  0  0  0
  -22.7380  -29.5280   22.5240 C   0  0  0  0  0  0  0  0  0  0  0  0
  -21.4150  -29.3360   22.3760 N   0  0  0  0  0  0  0  0  0  0  0  0
  -23.4140  -28.9010   23.3430 O   0  0  0  0  0  0  0  0  0  0  0  0
  -20.9270  -29.8960   21.6910 H   0  0  0  0  0  0  0  0  0  0  0  0
  -18.0400  -28.1340   22.8460 C   0  0  0  0  0  0  0  0  0  0  0  0
  -20.5960  -28.3870   23.1320 C   0  0  0  0  0  3  0  0  0  0  0  0
  -20.7000  -26.9650   22.5350 C   0  0  0  0  0  2  0  0  0  0  0  0
  -19.6020  -26.6590   21.5090 C   0  0  0  0  0  2  0  0  0  0  0  0
  -18.2160  -26.7980   22.1450 C   0  0  0  0  0  2  0  0  0  0  0  0
  -19.1570  -28.8890   23.2930 C   0  0  0  0  0  0  0  0  0  0  0  0
  -18.9360  -30.1430   23.9010 C   0  0  0  0  0  3  0  0  0  0  0  0
  -17.6310  -30.6420   24.0700 C   0  0  0  0  0  3  0  0  0  0  0  0
  -16.5290  -29.8840   23.6410 C   0  0  0  0  0  3  0  0  0  0  0  0
  -16.7340  -28.6320   23.0350 C   0  0  0  0  0  3  0  0  0  0  0  0
  -25.8250  -32.6110   23.8900 C   0  0  0  0  0  3  0  0  0  0  0  0
  -26.3130  -31.8570   25.1860 C   0  0  1  0  0  0  0  0  0  0  0  0
  -25.1920  -31.6170   26.2230 C   0  0  0  0  0  1  0  0  0  0  0  0
  -26.9220  -30.4810   24.8260 C   0  0  0  0  0  1  0  0  0  0  0  0
  -27.4360  -32.6700   25.8730 C   0  0  0  0  0  1  0  0  0  0  0  0
  -25.5050  -34.0120   24.1940 N   0  0  0  0  0  0  0  0  0  0  0  0
  -25.8630  -35.0570   23.4350 C   0  0  0  0  0  0  0  0  0  0  0  0
  -26.5700  -34.9420   22.4290 O   0  0  0  0  0  0  0  0  0  0  0  0
  -24.8860  -34.1750   24.9750 H   0  0  0  0  0  0  0  0  0  0  0  0
  -24.1670  -36.8560   22.9790 C   0  0  0  0  0  1  0  0  0  0  0  0
  -25.3600  -36.4490   23.8590 C   0  0  0  0  0  3  0  0  0  0  0  0
  -27.4450  -37.3330   24.8080 C   0  0  0  0  0  1  0  0  0  0  0  0
  -26.4030  -37.4970   23.7980 N   0  0  0  0  0  0  0  0  0  0  0  0
  -25.9930  -38.4200   23.9110 H   0  0  0  0  0  0  0  0  0  0  0  0
  -30.1430  -18.1700   20.9010 C   0  0  0  0  0  2  0  0  0  0  0  0
  -30.9670  -14.7830   20.2860 C   0  0  0  0  0  0  0  0  0  0  0  0
  -30.7280  -12.5160   19.3330 C   0  0  0  0  0  2  0  0  0  0  0  0
  -29.8160  -12.6110   18.0940 C   0  0  0  0  0  2  0  0  0  0  0  0
  -28.3320  -12.4900   18.4980 C   0  0  0  0  0  2  0  0  0  0  0  0
  -27.9520  -13.4020   19.6970 C   0  0  0  0  0  3  0  0  0  0  0  0
  -28.9900  -13.3130   20.8370 C   0  0  0  0  0  2  0  0  0  0  0  0
  -30.3100  -13.5860   20.2560 N   0  0  0  0  0  0  0  0  0  0  0  0
  -32.1870  -14.8430   20.1200 O   0  0  0  0  0  0  0  0  0  0  0  0
  -29.2150  -17.1560   18.6350 C   0  0  0  0  0  2  0  0  0  0  0  0
  -30.5640  -16.4680   18.4760 C   0  0  0  0  0  2  0  0  0  0  0  0
  -29.4240  -16.9940   20.1470 C   0  0  0  0  0  3  0  0  0  0  0  0
  -30.2350  -15.7960   19.7370 N   0  0  0  0  0  0  0  0  0  0  0  0
  -25.5580  -14.0450   20.3740 C   0  0  0  0  0  0  0  0  0  0  0  0
  -24.4750  -13.2900   20.7340 C   0  0  0  0  0  0  0  0  0  0  0  0
  -24.9230  -11.9310   20.7310 C   0  0  0  0  0  0  0  0  0  0  0  0
  -26.5940  -13.1480   20.1680 N   0  0  0  0  0  0  0  0  0  0  0  0
  -26.2170  -11.8740   20.4460 N   0  0  0  0  0  0  0  0  0  0  0  0
  -24.1800  -10.6790   20.9250 C   0  0  0  0  0  0  0  0  0  0  0  0
  -24.5660   -9.7360   21.9030 C   0  0  0  0  0  3  0  0  0  0  0  0
  -23.8270   -8.5480   22.0820 C   0  0  0  0  0  3  0  0  0  0  0  0
  -22.6880   -8.2920   21.2830 C   0  0  0  0  0  0  0  0  0  0  0  0
  -22.3200   -9.2250   20.2960 C   0  0  0  0  0  3  0  0  0  0  0  0
  -23.0580  -10.4050   20.1140 C   0  0  0  0  0  3  0  0  0  0  0  0
  -21.9240   -7.1540   21.3680 O   0  0  0  0  0  0  0  0  0  0  0  0
  -21.7890   -6.4670   22.5480 C   0  0  0  0  0  0  0  0  0  0  0  0
  -21.2400   -7.0660   23.7030 C   0  0  0  0  0  3  0  0  0  0  0  0
  -21.0520   -6.3020   24.8710 C   0  0  0  0  0  3  0  0  0  0  0  0
  -21.4070   -4.9390   24.8870 C   0  0  0  0  0  0  0  0  0  0  0  0
  -21.9540   -4.3400   23.7390 C   0  0  0  0  0  3  0  0  0  0  0  0
  -22.1410   -5.1020   22.5710 C   0  0  0  0  0  0  0  0  0  0  0  0
  -22.6450   -4.5130   21.4590 F   0  0  0  0  0  0  0  0  0  0  0  0
  -21.2230   -4.2030   26.0080 F   0  0  0  0  0  0  0  0  0  0  0  0
  -23.0790  -13.7820   20.9730 C   0  0  0  0  0  0  0  0  0  0  0  0
  -22.3320  -13.1100   21.8390 N   0  0  0  0  0  0  0  0  0  0  0  0
  -22.6570  -14.8000   20.4240 O   0  0  0  0  0  0  0  0  0  0  0  0
  -22.6950  -12.2930   22.3070 H   0  0  0  0  0  0  0  0  0  0  0  0
  -21.3940  -13.4250   22.0450 H   0  0  0  0  0  0  0  0  0  0  0  0
  -25.7470  -15.4100   20.1790 N   0  0  0  0  0  0  0  0  0  0  0  0
  -24.9880  -16.0790   20.2400 H   0  0  0  0  0  0  0  0  0  0  0  0
  -26.6020  -15.8120   19.8170 H   0  0  0  0  0  0  0  0  0  0  0  0
  1  4  1  0
  1  2  1  0
  4  3  1  0
  4  6  1  0
  5  2  1  0
  5 52  1  0
  5  3  1  0
  6  8  1  0
  6  7  1  0
  9  6  1  0
 10  9  2  0
 11 10  1  0
 12 23  2  0
 13 11  1  0
 13 18  1  0
 14 22  1  0
 14 24  1  0
 15 21  1  0
 15 17  1  0
 16 22  1  0
 17 18  2  0
 17 16  1  0
 19 13  2  0
 20 19  1  0
 20 15  2  0
 21 14  1  0
 22 12  1  0
 24 26  2  0
 25 24  1  0
 27 25  1  0
 28 37  2  0
 28 33  1  0
 29 25  1  0
 29 33  1  0
 30 29  1  0
 31 32  1  0
 31 30  1  0
 32 28  1  0
 33 34  2  0
 34 35  1  0
 36 35  2  0
 37 36  1  0
 38 12  1  0
 38 43  1  0
 38 39  1  0
 39 42  1  1
 39 40  1  0
 41 39  1  0
 43 46  1  0
 44 48  1  0
 44 43  1  0
 45 44  2  0
 48 47  1  0
 50 48  1  0
 50 51  1  0
 50 49  1  0
 54 59  1  0
 55 56  1  0
 55 54  1  0
 57 56  1  0
 57 68  1  0
 57 58  1  0
 59 53  1  0
 59 58  1  0
 60 53  2  0
 61 63  1  0
 62 61  1  0
 62 64  1  0
 63 52  1  0
 64 63  1  0
 64 53  1  0
 65 66  2  0
 66 85  1  0
 67 66  1  0
 67 70  1  0
 68 65  1  0
 68 69  1  0
 69 67  2  0
 70 71  1  0
 71 72  2  0
 73 76  1  0
 73 72  1  0
 74 73  2  0
 75 74  1  0
 75 70  2  0
 76 77  1  0
 77 82  2  0
 77 78  1  0
 78 79  2  0
 79 80  1  0
 80 84  1  0
 81 80  2  0
 82 81  1  0
 83 82  1  0
 85 86  1  0
 86 89  1  0
 86 88  1  0
 87 85  2  0
 90 91  1  0
 90 65  1  0
 92 90  1  0
M  ISO  4  10 101  11 101  53 100  64 100
M  END
>  <TORSDO>  (87) 
F 20

>  <SCORE>  (87) 
-13.239

>  <name>  (87) 
86

>  <ligand_id>  (87) 
86

>  <original_smiles>  (87) 
[H]c1c([H])c([H])c2c(c1[H])C([H])([H])C([H])([H])C([H])([H])C2([H])N([H])C(=O)C1([H])N(C(=O)C([H])(N([H])C(=O)C([H])(N([H])C([H])([H])[H])C([H])([H])[H])C(C([H])([H])[H])(C([H])([H])[H])C([H])([H])[H])C([H])([H])c2c([H])c(OC([H])([H])C([H])([H])[N+]([H])([H])C3([H])C([H])([H])N(C([H])([H])C4([H])N(C(=O)N5C([H])([H])C([H])([H])C([H])([H])C([H])(n6nc(-c7c([H])c([H])c(Oc8c([H])c([H])c(F)c([H])c8F)c([H])c7[H])c(C(=O)N([H])[H])c6N([H])[H])C5([H])[H])C([H])([H])C4([H])[H])C([H])([H])C3([H])[H])c([H])c([H])c2C1([H])[H]

>  <smiles>  (87) 
[H]c1c([H])c([H])c2c(c1[H])C([H])([H])C([H])([H])C([H])([H])C2([H])N([H])C(=O)C1([H])N(C(=O)C([H])(N([H])C(=O)C([H])(N([H])C([H])([H])[H])C([H])([H])[H])C(C([H])([H])[H])(C([H])([H])[H])C([H])([H])[H])C([H])([H])c2c([H])c(OC([H])([H])C([H])([H])[N+]([H])([H])C3([H])C([H])([H])N(C([H])([H])C4([H])N(C(=O)N5C([H])([H])C([H])([H])C([H])([H])C([H])(n6nc(-c7c([H])c([H])c(Oc8c([H])c([H])c(F)c([H])c8F)c([H])c7[H])c(C(=O)N([H])[H])c6N([H])[H])C5([H])[H])C([H])([H])C4([H])[H])C([H])([H])C3([H])[H])c([H])c([H])c2C1([H])[H]

$$$$
87:0:0
     RDKit          3D

 91 99  0  0  1  0  0  0  0  0999 V2000
  -28.7560  -22.6560   20.7400 N   0  0  0  0  0  4  0  0  0  0  0  0
  -27.7720  -22.4790   20.8820 H   0  0  0  0  0  0  0  0  0  0  0  0
  -29.1610  -22.7550   21.6580 H   0  0  0  0  0  0  0  0  0  0  0  0
  -30.8330  -21.5820   19.8010 C   0  0  0  0  0  1  0  0  0  0  0  0
  -29.3360  -21.3970   20.1190 C   0  0  0  0  0  3  0  0  0  0  0  0
  -29.1140  -20.1050   21.0240 C   0  0  0  0  0  2  0  0  0  0  0  0
  -30.7400  -14.6270   20.0720 C   0  0  0  0  0  0  0  0  0  0  0  0
  -30.3780  -12.4380   18.9750 C   0  0  0  0  0  2  0  0  0  0  0  0
  -29.3860  -12.6160   17.8080 C   0  0  0  0  0  2  0  0  0  0  0  0
  -27.9370  -12.4630   18.3100 C   0  0  0  0  0  2  0  0  0  0  0  0
  -27.6490  -13.3050   19.5830 C   0  0  0  0  0  3  0  0  0  0  0  0
  -28.7630  -13.1450   20.6420 C   0  0  0  0  0  2  0  0  0  0  0  0
  -30.0410  -13.4540   19.9900 N   0  0  0  0  0  0  0  0  0  0  0  0
  -31.8990  -14.7050   19.6490 O   0  0  0  0  0  0  0  0  0  0  0  0
  -30.6710  -16.6040   21.4730 C   0  0  0  0  0  2  0  0  0  0  0  0
  -29.7160  -16.6810   19.2800 C   0  0  0  0  0  2  0  0  0  0  0  0
  -29.8980  -17.9170   21.8060 C   0  0  0  0  0  2  0  0  0  0  0  0
  -28.9850  -18.0090   19.6730 C   0  0  0  0  0  2  0  0  0  0  0  0
  -30.0660  -15.7760   20.4060 N   0  0  0  0  0  0  0  0  0  0  0  0
  -29.7590  -18.8050   20.6380 N   0  0  0  0  0  0  0  0  0  0  0  0
  -25.2970  -13.8900   20.4290 C   0  0  0  0  0  0  0  0  0  0  0  0
  -24.2470  -13.1100   20.8340 C   0  0  0  0  0  0  0  0  0  0  0  0
  -24.7060  -11.7600   20.7580 C   0  0  0  0  0  0  0  0  0  0  0  0
  -26.3270  -13.0140   20.1310 N   0  0  0  0  0  0  0  0  0  0  0  0
  -25.9810  -11.7270   20.3900 N   0  0  0  0  0  0  0  0  0  0  0  0
  -23.9880  -10.4940   20.9600 C   0  0  0  0  0  0  0  0  0  0  0  0
  -24.4390   -9.5290   21.8870 C   0  0  0  0  0  3  0  0  0  0  0  0
  -23.7200   -8.3280   22.0770 C   0  0  0  0  0  3  0  0  0  0  0  0
  -22.5360   -8.0860   21.3400 C   0  0  0  0  0  0  0  0  0  0  0  0
  -22.1040   -9.0420   20.4030 C   0  0  0  0  0  3  0  0  0  0  0  0
  -22.8240  -10.2330   20.2110 C   0  0  0  0  0  3  0  0  0  0  0  0
  -21.7860   -6.9390   21.4400 O   0  0  0  0  0  0  0  0  0  0  0  0
  -21.7260   -6.2180   22.6050 C   0  0  0  0  0  0  0  0  0  0  0  0
  -21.2770   -6.7920   23.8160 C   0  0  0  0  0  3  0  0  0  0  0  0
  -21.1660   -5.9960   24.9730 C   0  0  0  0  0  3  0  0  0  0  0  0
  -21.4930   -4.6280   24.9220 C   0  0  0  0  0  0  0  0  0  0  0  0
  -21.9350   -4.0540   23.7180 C   0  0  0  0  0  3  0  0  0  0  0  0
  -22.0490   -4.8470   22.5620 C   0  0  0  0  0  0  0  0  0  0  0  0
  -22.4550   -4.2830   21.3990 F   0  0  0  0  0  0  0  0  0  0  0  0
  -21.3790   -3.8620   26.0320 F   0  0  0  0  0  0  0  0  0  0  0  0
  -22.8650  -13.5840   21.1790 C   0  0  0  0  0  0  0  0  0  0  0  0
  -22.1780  -12.8740   22.0670 N   0  0  0  0  0  0  0  0  0  0  0  0
  -22.4040  -14.6180   20.6960 O   0  0  0  0  0  0  0  0  0  0  0  0
  -22.5640  -12.0370   22.4780 H   0  0  0  0  0  0  0  0  0  0  0  0
  -21.2530  -13.1720   22.3420 H   0  0  0  0  0  0  0  0  0  0  0  0
  -25.4530  -15.2630   20.2680 N   0  0  0  0  0  0  0  0  0  0  0  0
  -24.6960  -15.9170   20.4340 H   0  0  0  0  0  0  0  0  0  0  0  0
  -26.2980  -15.7090   19.9330 H   0  0  0  0  0  0  0  0  0  0  0  0
  -28.8850  -23.9890   20.0210 C   0  0  0  0  0  2  0  0  0  0  0  0
  -28.1920  -25.2060   20.7580 C   0  0  0  0  0  2  0  0  0  0  0  0
  -28.3850  -26.5600   20.2160 O   0  0  0  0  0  0  0  0  0  0  0  0
  -24.6020  -31.8930   23.2170 C   0  0  0  0  0  0  0  0  0  0  0  0
  -27.2590  -27.3790   20.1870 C   0  0  0  0  0  0  0  0  0  0  0  0
  -23.4110  -30.4760   21.5790 C   0  0  0  0  0  3  0  0  0  0  0  0
  -24.8770  -28.9340   20.1640 C   0  0  0  0  0  0  0  0  0  0  0  0
  -25.9430  -30.8280   21.3930 C   0  0  0  0  0  2  0  0  0  0  0  0
  -26.0370  -29.4490   20.7570 C   0  0  0  0  0  0  0  0  0  0  0  0
  -27.2350  -28.6830   20.7590 C   0  0  0  0  0  3  0  0  0  0  0  0
  -26.0840  -26.9060   19.5670 C   0  0  0  0  0  3  0  0  0  0  0  0
  -24.9000  -27.6670   19.5610 C   0  0  0  0  0  3  0  0  0  0  0  0
  -23.6320  -29.7940   20.2030 C   0  0  0  0  0  2  0  0  0  0  0  0
  -24.6710  -31.0830   22.1200 N   0  0  0  0  0  0  0  0  0  0  0  0
  -23.5160  -32.1630   23.7500 O   0  0  0  0  0  0  0  0  0  0  0  0
  -22.7590  -29.4570   22.5430 C   0  0  0  0  0  0  0  0  0  0  0  0
  -21.4340  -29.2700   22.4170 N   0  0  0  0  0  0  0  0  0  0  0  0
  -23.4420  -28.8370   23.3620 O   0  0  0  0  0  0  0  0  0  0  0  0
  -20.9430  -29.8220   21.7280 H   0  0  0  0  0  0  0  0  0  0  0  0
  -18.0640  -28.0550   22.9120 C   0  0  0  0  0  0  0  0  0  0  0  0
  -20.6200  -28.3330   23.1910 C   0  0  0  0  0  3  0  0  0  0  0  0
  -20.7330  -26.8980   22.6240 C   0  0  0  0  0  2  0  0  0  0  0  0
  -19.6370  -26.5620   21.6080 C   0  0  0  0  0  2  0  0  0  0  0  0
  -18.2520  -26.7020   22.2470 C   0  0  0  0  0  2  0  0  0  0  0  0
  -19.1770  -28.8270   23.3420 C   0  0  0  0  0  0  0  0  0  0  0  0
  -18.9480  -30.0930   23.9240 C   0  0  0  0  0  3  0  0  0  0  0  0
  -17.6390  -30.5860   24.0810 C   0  0  0  0  0  3  0  0  0  0  0  0
  -16.5410  -29.8120   23.6690 C   0  0  0  0  0  3  0  0  0  0  0  0
  -16.7550  -28.5480   23.0900 C   0  0  0  0  0  3  0  0  0  0  0  0
  -25.8800  -32.5370   23.8370 C   0  0  0  0  0  3  0  0  0  0  0  0
  -26.4060  -31.7690   25.1120 C   0  0  1  0  0  0  0  0  0  0  0  0
  -25.3180  -31.5170   26.1810 C   0  0  0  0  0  1  0  0  0  0  0  0
  -27.0020  -30.3980   24.7150 C   0  0  0  0  0  1  0  0  0  0  0  0
  -27.5510  -32.5730   25.7720 C   0  0  0  0  0  1  0  0  0  0  0  0
  -25.5570  -33.9310   24.1690 N   0  0  0  0  0  0  0  0  0  0  0  0
  -25.8810  -34.9890   23.4130 C   0  0  0  0  0  0  0  0  0  0  0  0
  -26.5520  -34.8920   22.3820 O   0  0  0  0  0  0  0  0  0  0  0  0
  -24.9590  -34.0790   24.9690 H   0  0  0  0  0  0  0  0  0  0  0  0
  -24.1390  -36.7680   23.0540 C   0  0  0  0  0  1  0  0  0  0  0  0
  -25.3790  -36.3710   23.8710 C   0  0  0  0  0  3  0  0  0  0  0  0
  -27.5020  -37.2710   24.7160 C   0  0  0  0  0  1  0  0  0  0  0  0
  -26.4030  -37.4330   23.7670 N   0  0  0  0  0  0  0  0  0  0  0  0
  -25.9890  -38.3490   23.9140 H   0  0  0  0  0  0  0  0  0  0  0  0
  1  2  1  0
  1  3  1  0
  5  4  1  0
  5  1  1  0
  5  6  1  0
  7 19  1  0
  8 13  1  0
  9 10  1  0
  9  8  1  0
 11 10  1  0
 11 24  1  0
 11 12  1  0
 13  7  1  0
 13 12  1  0
 14  7  2  0
 15 17  1  0
 16 18  1  0
 16 19  1  0
 18 20  1  0
 19 15  1  0
 20  6  1  0
 20 17  1  0
 21 22  2  0
 22 41  1  0
 23 22  1  0
 23 26  1  0
 24 25  1  0
 24 21  1  0
 25 23  2  0
 26 27  1  0
 27 28  2  0
 29 32  1  0
 29 28  1  0
 30 29  2  0
 31 30  1  0
 31 26  2  0
 32 33  1  0
 33 34  1  0
 34 35  2  0
 36 35  1  0
 36 40  1  0
 37 36  2  0
 38 33  2  0
 38 37  1  0
 39 38  1  0
 41 42  1  0
 42 45  1  0
 42 44  1  0
 43 41  2  0
 46 21  1  0
 46 47  1  0
 48 46  1  0
 49  1  1  0
 49 50  1  0
 51 50  1  0
 52 63  2  0
 53 51  1  0
 53 58  1  0
 54 62  1  0
 54 64  1  0
 55 61  1  0
 55 57  1  0
 56 62  1  0
 57 58  2  0
 57 56  1  0
 59 53  2  0
 60 59  1  0
 60 55  2  0
 61 54  1  0
 62 52  1  0
 64 66  2  0
 65 64  1  0
 67 65  1  0
 68 77  2  0
 68 73  1  0
 69 65  1  0
 69 73  1  0
 70 69  1  0
 71 72  1  0
 71 70  1  0
 72 68  1  0
 73 74  2  0
 74 75  1  0
 76 75  2  0
 77 76  1  0
 78 52  1  0
 78 83  1  0
 78 79  1  0
 79 82  1  1
 79 80  1  0
 81 79  1  0
 83 86  1  0
 84 88  1  0
 84 83  1  0
 85 84  2  0
 88 87  1  0
 90 88  1  0
 90 91  1  0
 90 89  1  0
M  ISO  4   7 100  19 100  50 101  51 101
M  END
>  <TORSDO>  (88) 
F 20

>  <SCORE>  (88) 
-13.546

>  <name>  (88) 
87

>  <ligand_id>  (88) 
87

>  <original_smiles>  (88) 
[H]c1c([H])c([H])c2c(c1[H])C([H])([H])C([H])([H])C([H])([H])C2([H])N([H])C(=O)C1([H])N(C(=O)C([H])(N([H])C(=O)C([H])(N([H])C([H])([H])[H])C([H])([H])[H])C(C([H])([H])[H])(C([H])([H])[H])C([H])([H])[H])C([H])([H])c2c([H])c(OC([H])([H])C([H])([H])[N+]([H])([H])C([H])(C([H])([H])[H])C([H])([H])N3C([H])([H])C([H])([H])N(C(=O)N4C([H])([H])C([H])([H])C([H])([H])C([H])(n5nc(-c6c([H])c([H])c(Oc7c([H])c([H])c(F)c([H])c7F)c([H])c6[H])c(C(=O)N([H])[H])c5N([H])[H])C4([H])[H])C([H])([H])C3([H])[H])c([H])c([H])c2C1([H])[H]

>  <smiles>  (88) 
[H]c1c([H])c([H])c2c(c1[H])C([H])([H])C([H])([H])C([H])([H])C2([H])N([H])C(=O)C1([H])N(C(=O)C([H])(N([H])C(=O)C([H])(N([H])C([H])([H])[H])C([H])([H])[H])C(C([H])([H])[H])(C([H])([H])[H])C([H])([H])[H])C([H])([H])c2c([H])c(OC([H])([H])C([H])([H])[N+]([H])([H])C([H])(C([H])([H])[H])C([H])([H])N3C([H])([H])C([H])([H])N(C(=O)N4C([H])([H])C([H])([H])C([H])([H])C([H])(n5nc(-c6c([H])c([H])c(Oc7c([H])c([H])c(F)c([H])c7F)c([H])c6[H])c(C(=O)N([H])[H])c5N([H])[H])C4([H])[H])C([H])([H])C3([H])[H])c([H])c([H])c2C1([H])[H]

$$$$
88:0:0
     RDKit          3D

 95105  0  0  1  0  0  0  0  0999 V2000
  -27.6520  -21.4790   20.8550 C   0  0  0  0  0  2  0  0  0  0  0  0
  -27.5450  -18.0790   19.7040 C   0  0  0  0  0  2  0  0  0  0  0  0
  -26.8430  -19.4320   19.7560 C   0  0  0  0  0  2  0  0  0  0  0  0
  -29.2110  -19.7760   19.8440 C   0  0  0  0  0  2  0  0  0  0  0  0
  -28.9070  -18.3490   20.3360 C   0  0  0  0  0  3  0  0  0  0  0  0
  -27.9010  -20.4760   19.7780 N   0  0  2  0  0  4  0  0  0  0  0  0
  -27.8420  -20.9320   18.8810 H   0  0  0  0  0  0  0  0  0  0  0  0
  -29.9440  -17.2490   20.0150 C   0  0  0  0  0  2  0  0  0  0  0  0
  -31.0140  -14.3150   19.6740 C   0  0  0  0  0  0  0  0  0  0  0  0
  -30.5130  -12.2110   18.4780 C   0  0  0  0  0  2  0  0  0  0  0  0
  -29.4450  -12.4040   17.3850 C   0  0  0  0  0  2  0  0  0  0  0  0
  -28.0260  -12.2850   17.9740 C   0  0  0  0  0  2  0  0  0  0  0  0
  -27.8350  -13.1540   19.2430 C   0  0  0  0  0  3  0  0  0  0  0  0
  -28.9900  -12.9150   20.2380 C   0  0  0  0  0  2  0  0  0  0  0  0
  -30.2660  -13.1880   19.5460 N   0  0  0  0  0  0  0  0  0  0  0  0
  -31.9510  -14.6000   18.9190 O   0  0  0  0  0  0  0  0  0  0  0  0
  -30.6610  -16.2910   22.3760 C   0  0  0  0  0  2  0  0  0  0  0  0
  -31.8270  -15.6090   21.6700 C   0  0  0  0  0  2  0  0  0  0  0  0
  -29.8960  -16.1200   21.0670 C   0  0  0  0  0  3  0  0  0  0  0  0
  -30.8090  -14.9870   20.8220 N   0  0  0  0  0  0  0  0  0  0  0  0
  -25.5550  -13.8260   20.2370 C   0  0  0  0  0  0  0  0  0  0  0  0
  -24.5050  -13.0830   20.7050 C   0  0  0  0  0  0  0  0  0  0  0  0
  -24.8980  -11.7170   20.5660 C   0  0  0  0  0  0  0  0  0  0  0  0
  -26.5300  -12.9170   19.8600 N   0  0  0  0  0  0  0  0  0  0  0  0
  -26.1420  -11.6400   20.1080 N   0  0  0  0  0  0  0  0  0  0  0  0
  -24.1440  -10.4780   20.7860 C   0  0  0  0  0  0  0  0  0  0  0  0
  -24.5380   -9.5360   21.7620 C   0  0  0  0  0  3  0  0  0  0  0  0
  -23.7840   -8.3610   21.9690 C   0  0  0  0  0  3  0  0  0  0  0  0
  -22.6220   -8.1180   21.1970 C   0  0  0  0  0  0  0  0  0  0  0  0
  -22.2480   -9.0480   20.2110 C   0  0  0  0  0  3  0  0  0  0  0  0
  -23.0020  -10.2140   20.0040 C   0  0  0  0  0  3  0  0  0  0  0  0
  -21.8430   -6.9930   21.3090 O   0  0  0  0  0  0  0  0  0  0  0  0
  -21.6340   -6.3810   22.5190 C   0  0  0  0  0  0  0  0  0  0  0  0
  -21.0680   -7.0680   23.6140 C   0  0  0  0  0  3  0  0  0  0  0  0
  -20.8070   -6.3830   24.8180 C   0  0  0  0  0  3  0  0  0  0  0  0
  -21.1020   -5.0110   24.9240 C   0  0  0  0  0  0  0  0  0  0  0  0
  -21.6620   -4.3230   23.8340 C   0  0  0  0  0  3  0  0  0  0  0  0
  -21.9250   -5.0070   22.6330 C   0  0  0  0  0  0  0  0  0  0  0  0
  -22.4450   -4.3350   21.5780 F   0  0  0  0  0  0  0  0  0  0  0  0
  -20.8440   -4.3490   26.0770 F   0  0  0  0  0  0  0  0  0  0  0  0
  -23.1720  -13.6040   21.1600 C   0  0  0  0  0  0  0  0  0  0  0  0
  -22.5460  -12.9270   22.1170 N   0  0  0  0  0  0  0  0  0  0  0  0
  -22.6980  -14.6420   20.7020 O   0  0  0  0  0  0  0  0  0  0  0  0
  -22.9420  -12.0830   22.5010 H   0  0  0  0  0  0  0  0  0  0  0  0
  -21.6570  -13.2570   22.4670 H   0  0  0  0  0  0  0  0  0  0  0  0
  -25.7520  -15.1920   20.0760 N   0  0  0  0  0  0  0  0  0  0  0  0
  -25.0040  -15.8600   20.2330 H   0  0  0  0  0  0  0  0  0  0  0  0
  -26.5350  -15.5770   19.5680 H   0  0  0  0  0  0  0  0  0  0  0  0
  -28.2370  -23.7730   21.7700 C   0  0  0  0  0  2  0  0  0  0  0  0
  -28.4560  -23.4920   19.4210 C   0  0  0  0  0  3  0  0  0  0  0  0
  -28.1700  -22.9090   20.6650 C   0  0  0  0  0  0  0  0  0  0  0  0
  -28.6720  -25.5340   20.4020 C   0  0  0  0  0  0  0  0  0  0  0  0
  -28.4830  -25.0910   21.6370 N   0  0  0  0  0  0  0  0  0  0  0  0
  -28.7240  -24.8040   19.2940 N   0  0  0  0  0  0  0  0  0  0  0  0
  -28.7580  -26.8720   20.2430 O   0  0  0  0  0  0  0  0  0  0  0  0
  -24.6940  -31.8950   23.2730 C   0  0  0  0  0  0  0  0  0  0  0  0
  -27.5540  -27.5500   20.2500 C   0  0  0  0  0  0  0  0  0  0  0  0
  -23.5770  -30.4740   21.5850 C   0  0  0  0  0  3  0  0  0  0  0  0
  -25.1150  -28.9830   20.2040 C   0  0  0  0  0  0  0  0  0  0  0  0
  -26.0970  -30.8980   21.4730 C   0  0  0  0  0  2  0  0  0  0  0  0
  -26.2390  -29.5330   20.8320 C   0  0  0  0  0  0  0  0  0  0  0  0
  -27.4600  -28.8220   20.8580 C   0  0  0  0  0  3  0  0  0  0  0  0
  -26.4090  -27.0160   19.6120 C   0  0  0  0  0  3  0  0  0  0  0  0
  -25.1920  -27.7190   19.5960 C   0  0  0  0  0  3  0  0  0  0  0  0
  -23.8490  -29.8090   20.2100 C   0  0  0  0  0  2  0  0  0  0  0  0
  -24.8050  -31.1030   22.1690 N   0  0  0  0  0  0  0  0  0  0  0  0
  -23.5900  -32.1380   23.7780 O   0  0  0  0  0  0  0  0  0  0  0  0
  -22.9220  -29.4290   22.5170 C   0  0  0  0  0  0  0  0  0  0  0  0
  -21.6100  -29.2100   22.3390 N   0  0  0  0  0  0  0  0  0  0  0  0
  -23.5940  -28.8210   23.3550 O   0  0  0  0  0  0  0  0  0  0  0  0
  -21.1300  -29.7560   21.6370 H   0  0  0  0  0  0  0  0  0  0  0  0
  -18.2480  -27.9490   22.7310 C   0  0  0  0  0  0  0  0  0  0  0  0
  -20.7920  -28.2470   23.0760 C   0  0  0  0  0  3  0  0  0  0  0  0
  -20.9360  -26.8260   22.4860 C   0  0  0  0  0  2  0  0  0  0  0  0
  -19.8680  -26.4970   21.4380 C   0  0  0  0  0  2  0  0  0  0  0  0
  -18.4670  -26.6090   22.0450 C   0  0  0  0  0  2  0  0  0  0  0  0
  -19.3410  -28.7250   23.2000 C   0  0  0  0  0  0  0  0  0  0  0  0
  -19.0840  -29.9770   23.7980 C   0  0  0  0  0  3  0  0  0  0  0  0
  -17.7660  -30.4540   23.9320 C   0  0  0  0  0  3  0  0  0  0  0  0
  -16.6880  -29.6740   23.4800 C   0  0  0  0  0  3  0  0  0  0  0  0
  -16.9290  -28.4240   22.8850 C   0  0  0  0  0  3  0  0  0  0  0  0
  -25.9450  -32.5520   23.9360 C   0  0  0  0  0  3  0  0  0  0  0  0
  -26.4250  -31.8020   25.2390 C   0  0  1  0  0  0  0  0  0  0  0  0
  -25.2910  -31.5280   26.2530 C   0  0  0  0  0  1  0  0  0  0  0  0
  -27.0730  -30.4440   24.8780 C   0  0  0  0  0  1  0  0  0  0  0  0
  -27.5150  -32.6350   25.9520 C   0  0  0  0  0  1  0  0  0  0  0  0
  -25.6030  -33.9480   24.2350 N   0  0  0  0  0  0  0  0  0  0  0  0
  -25.9450  -34.9940   23.4700 C   0  0  0  0  0  0  0  0  0  0  0  0
  -26.6520  -34.8860   22.4650 O   0  0  0  0  0  0  0  0  0  0  0  0
  -24.9770  -34.1060   25.0110 H   0  0  0  0  0  0  0  0  0  0  0  0
  -24.1970  -36.7480   23.0270 C   0  0  0  0  0  1  0  0  0  0  0  0
  -25.4170  -36.3800   23.8870 C   0  0  0  0  0  3  0  0  0  0  0  0
  -27.5060  -37.3180   24.7750 C   0  0  0  0  0  1  0  0  0  0  0  0
  -26.4350  -37.4490   23.7910 N   0  0  0  0  0  0  0  0  0  0  0  0
  -26.0070  -38.3650   23.9080 H   0  0  0  0  0  0  0  0  0  0  0  0
  2  3  1  0
  2  5  1  0
  3  6  1  0
  4  5  1  0
  5  8  1  0
  6  4  1  0
  6  1  1  0
  6  7  1  6
  9 20  1  0
 10 15  1  0
 11 12  1  0
 11 10  1  0
 13 12  1  0
 13 24  1  0
 13 14  1  0
 15  9  1  0
 15 14  1  0
 16  9  2  0
 18 17  1  0
 19  8  1  0
 19 17  1  0
 20 19  1  0
 20 18  1  0
 21 22  2  0
 22 41  1  0
 23 22  1  0
 23 26  1  0
 24 25  1  0
 24 21  1  0
 25 23  2  0
 26 27  1  0
 27 28  2  0
 29 32  1  0
 29 28  1  0
 30 29  2  0
 31 30  1  0
 31 26  2  0
 32 33  1  0
 33 38  2  0
 33 34  1  0
 34 35  2  0
 35 36  1  0
 36 40  1  0
 37 36  2  0
 38 37  1  0
 39 38  1  0
 41 42  1  0
 42 45  1  0
 42 44  1  0
 43 41  2  0
 46 47  1  0
 46 21  1  0
 48 46  1  0
 50 51  2  0
 51  1  1  0
 51 49  1  0
 52 53  2  0
 53 49  1  0
 54 50  1  0
 54 52  2  0
 55 57  1  0
 55 52  1  0
 56 67  2  0
 57 62  1  0
 58 66  1  0
 58 68  1  0
 59 65  1  0
 59 61  1  0
 60 66  1  0
 61 62  2  0
 61 60  1  0
 63 57  2  0
 64 63  1  0
 64 59  2  0
 65 58  1  0
 66 56  1  0
 68 70  2  0
 69 68  1  0
 71 69  1  0
 72 81  2  0
 72 77  1  0
 73 69  1  0
 73 77  1  0
 74 73  1  0
 75 76  1  0
 75 74  1  0
 76 72  1  0
 77 78  2  0
 78 79  1  0
 80 79  2  0
 81 80  1  0
 82 56  1  0
 82 87  1  0
 82 83  1  0
 83 86  1  1
 83 84  1  0
 85 83  1  0
 87 90  1  0
 88 92  1  0
 88 87  1  0
 89 88  2  0
 92 91  1  0
 94 92  1  0
 94 95  1  0
 94 93  1  0
M  ISO  4   9 100  20 100  52 101  55 101
M  END
>  <TORSDO>  (89) 
F 19

>  <SCORE>  (89) 
-12.603

>  <name>  (89) 
88

>  <ligand_id>  (89) 
88

>  <original_smiles>  (89) 
[H]c1nc(Oc2c([H])c([H])c3c(c2[H])C([H])([H])N(C(=O)C([H])(N([H])C(=O)C([H])(N([H])C([H])([H])[H])C([H])([H])[H])C(C([H])([H])[H])(C([H])([H])[H])C([H])([H])[H])C([H])(C(=O)N([H])C2([H])c4c([H])c([H])c([H])c([H])c4C([H])([H])C([H])([H])C2([H])[H])C3([H])[H])nc([H])c1C([H])([H])[N+]1([H])C([H])([H])C([H])([H])C([H])(C([H])([H])C2([H])N(C(=O)N3C([H])([H])C([H])([H])C([H])([H])C([H])(n4nc(-c5c([H])c([H])c(Oc6c([H])c([H])c(F)c([H])c6F)c([H])c5[H])c(C(=O)N([H])[H])c4N([H])[H])C3([H])[H])C([H])([H])C2([H])[H])C1([H])[H]

>  <smiles>  (89) 
[H]c1nc(Oc2c([H])c([H])c3c(c2[H])C([H])([H])N(C(=O)C([H])(N([H])C(=O)C([H])(N([H])C([H])([H])[H])C([H])([H])[H])C(C([H])([H])[H])(C([H])([H])[H])C([H])([H])[H])C([H])(C(=O)N([H])C2([H])c4c([H])c([H])c([H])c([H])c4C([H])([H])C([H])([H])C2([H])[H])C3([H])[H])nc([H])c1C([H])([H])[N+]1([H])C([H])([H])C([H])([H])C([H])(C([H])([H])C2([H])N(C(=O)N3C([H])([H])C([H])([H])C([H])([H])C([H])(n4nc(-c5c([H])c([H])c(Oc6c([H])c([H])c(F)c([H])c6F)c([H])c5[H])c(C(=O)N([H])[H])c4N([H])[H])C3([H])[H])C([H])([H])C2([H])[H])C1([H])[H]

$$$$
89:0:0
     RDKit          3D

 92101  0  0  1  0  0  0  0  0999 V2000
  -28.1190  -21.0500   20.1870 C   0  0  0  0  0  3  0  0  0  0  0  0
  -29.4010  -22.3560   21.3800 C   0  0  0  0  0  3  0  0  0  0  0  0
  -29.1550  -21.0200   21.1710 C   0  0  0  0  0  0  0  0  0  0  0  0
  -27.7290  -22.2860   19.8810 N   0  0  0  0  0  0  0  0  0  0  0  0
  -28.4980  -23.0980   20.6400 N   0  0  0  0  0  0  0  0  0  0  0  0
  -29.7920  -19.8750   21.9610 C   0  0  0  0  0  2  0  0  0  0  0  0
  -31.0060  -14.6210   19.9480 C   0  0  0  0  0  0  0  0  0  0  0  0
  -30.5700  -12.4710   18.8060 C   0  0  0  0  0  2  0  0  0  0  0  0
  -29.5550  -12.6520   17.6590 C   0  0  0  0  0  2  0  0  0  0  0  0
  -28.1150  -12.4960   18.1840 C   0  0  0  0  0  2  0  0  0  0  0  0
  -27.8580  -13.3560   19.4460 C   0  0  0  0  0  3  0  0  0  0  0  0
  -28.9840  -13.1680   20.4950 C   0  0  0  0  0  2  0  0  0  0  0  0
  -30.2650  -13.4750   19.8440 N   0  0  0  0  0  0  0  0  0  0  0  0
  -32.1040  -14.7130   19.3910 O   0  0  0  0  0  0  0  0  0  0  0  0
  -29.3080  -16.3950   20.2480 C   0  0  0  0  0  2  0  0  0  0  0  0
  -31.5620  -16.5200   21.3350 C   0  0  0  0  0  2  0  0  0  0  0  0
  -28.9810  -17.7870   20.8650 C   0  0  0  0  0  2  0  0  0  0  0  0
  -31.0470  -17.7620   22.0870 C   0  0  0  0  0  2  0  0  0  0  0  0
  -30.5330  -15.6790   20.6820 N   0  0  0  0  0  0  0  0  0  0  0  0
  -30.1540  -18.6040   21.2520 N   0  0  2  0  0  4  0  0  0  0  0  0
  -30.6700  -18.8540   20.4220 H   0  0  0  0  0  0  0  0  0  0  0  0
  -25.5440  -14.0100   20.3600 C   0  0  0  0  0  0  0  0  0  0  0  0
  -24.4870  -13.2560   20.7910 C   0  0  0  0  0  0  0  0  0  0  0  0
  -24.9080  -11.8950   20.6840 C   0  0  0  0  0  0  0  0  0  0  0  0
  -26.5420  -13.1090   20.0220 N   0  0  0  0  0  0  0  0  0  0  0  0
  -26.1690  -11.8300   20.2780 N   0  0  0  0  0  0  0  0  0  0  0  0
  -24.1640  -10.6460   20.8800 C   0  0  0  0  0  0  0  0  0  0  0  0
  -24.5810   -9.6830   21.8240 C   0  0  0  0  0  3  0  0  0  0  0  0
  -23.8390   -8.4960   22.0080 C   0  0  0  0  0  3  0  0  0  0  0  0
  -22.6700   -8.2650   21.2470 C   0  0  0  0  0  0  0  0  0  0  0  0
  -22.2740   -9.2160   20.2910 C   0  0  0  0  0  3  0  0  0  0  0  0
  -23.0140  -10.3950   20.1050 C   0  0  0  0  0  3  0  0  0  0  0  0
  -21.9000   -7.1300   21.3420 O   0  0  0  0  0  0  0  0  0  0  0  0
  -21.7540   -6.4580   22.5290 C   0  0  0  0  0  0  0  0  0  0  0  0
  -21.2340   -7.0860   23.6820 C   0  0  0  0  0  3  0  0  0  0  0  0
  -21.0390   -6.3400   24.8610 C   0  0  0  0  0  3  0  0  0  0  0  0
  -21.3490   -4.9670   24.8860 C   0  0  0  0  0  0  0  0  0  0  0  0
  -21.8600   -4.3390   23.7360 C   0  0  0  0  0  3  0  0  0  0  0  0
  -22.0610   -5.0830   22.5600 C   0  0  0  0  0  0  0  0  0  0  0  0
  -22.5340   -4.4690   21.4490 F   0  0  0  0  0  0  0  0  0  0  0  0
  -21.1530   -4.2480   26.0150 F   0  0  0  0  0  0  0  0  0  0  0  0
  -23.1270  -13.7590   21.1780 C   0  0  0  0  0  0  0  0  0  0  0  0
  -22.4490  -13.0590   22.0820 N   0  0  0  0  0  0  0  0  0  0  0  0
  -22.6730  -14.8040   20.7130 O   0  0  0  0  0  0  0  0  0  0  0  0
  -22.8290  -12.2110   22.4750 H   0  0  0  0  0  0  0  0  0  0  0  0
  -21.5400  -13.3790   22.3830 H   0  0  0  0  0  0  0  0  0  0  0  0
  -25.7270  -15.3810   20.2020 N   0  0  0  0  0  0  0  0  0  0  0  0
  -24.9560  -16.0260   20.3190 H   0  0  0  0  0  0  0  0  0  0  0  0
  -26.4990  -15.7790   19.6860 H   0  0  0  0  0  0  0  0  0  0  0  0
  -28.2070  -24.5330   20.7510 C   0  0  0  0  0  2  0  0  0  0  0  0
  -28.4850  -25.3820   19.4920 C   0  0  0  0  0  2  0  0  0  0  0  0
  -28.4090  -26.7890   19.7870 O   0  0  0  0  0  0  0  0  0  0  0  0
  -24.5560  -31.7900   23.0870 C   0  0  0  0  0  0  0  0  0  0  0  0
  -27.1930  -27.4480   19.8370 C   0  0  0  0  0  0  0  0  0  0  0  0
  -23.3340  -30.4220   21.4260 C   0  0  0  0  0  3  0  0  0  0  0  0
  -24.7760  -28.9290   19.9430 C   0  0  0  0  0  0  0  0  0  0  0  0
  -25.8510  -30.8060   21.1930 C   0  0  0  0  0  2  0  0  0  0  0  0
  -25.9380  -29.4480   20.5230 C   0  0  0  0  0  0  0  0  0  0  0  0
  -27.1450  -28.7140   20.4660 C   0  0  0  0  0  3  0  0  0  0  0  0
  -26.0050  -26.9360   19.2660 C   0  0  0  0  0  3  0  0  0  0  0  0
  -24.8030  -27.6700   19.3140 C   0  0  0  0  0  3  0  0  0  0  0  0
  -23.5270  -29.7750   20.0290 C   0  0  0  0  0  2  0  0  0  0  0  0
  -24.6000  -31.0200   21.9620 N   0  0  0  0  0  0  0  0  0  0  0  0
  -23.4810  -32.0400   23.6520 O   0  0  0  0  0  0  0  0  0  0  0  0
  -22.6980  -29.3770   22.3710 C   0  0  0  0  0  0  0  0  0  0  0  0
  -21.3730  -29.1900   22.2520 N   0  0  0  0  0  0  0  0  0  0  0  0
  -23.3940  -28.7380   23.1650 O   0  0  0  0  0  0  0  0  0  0  0  0
  -20.8720  -29.7560   21.5830 H   0  0  0  0  0  0  0  0  0  0  0  0
  -18.0160  -27.9480   22.7440 C   0  0  0  0  0  0  0  0  0  0  0  0
  -20.5720  -28.2290   23.0100 C   0  0  0  0  0  3  0  0  0  0  0  0
  -20.6870  -26.8060   22.4100 C   0  0  0  0  0  2  0  0  0  0  0  0
  -19.5860  -26.4930   21.3930 C   0  0  0  0  0  2  0  0  0  0  0  0
  -18.2050  -26.6120   22.0440 C   0  0  0  0  0  2  0  0  0  0  0  0
  -19.1280  -28.7130   23.1840 C   0  0  0  0  0  0  0  0  0  0  0  0
  -18.8970  -29.9660   23.7940 C   0  0  0  0  0  3  0  0  0  0  0  0
  -17.5880  -30.4480   23.9750 C   0  0  0  0  0  3  0  0  0  0  0  0
  -16.4900  -29.6780   23.5530 C   0  0  0  0  0  3  0  0  0  0  0  0
  -16.7060  -28.4310   22.9390 C   0  0  0  0  0  3  0  0  0  0  0  0
  -25.8480  -32.4100   23.7070 C   0  0  0  0  0  3  0  0  0  0  0  0
  -26.3940  -31.6020   24.9490 C   0  0  1  0  0  0  0  0  0  0  0  0
  -25.3230  -31.3210   26.0280 C   0  0  0  0  0  1  0  0  0  0  0  0
  -26.9710  -30.2410   24.4960 C   0  0  0  0  0  1  0  0  0  0  0  0
  -27.5510  -32.3820   25.6170 C   0  0  0  0  0  1  0  0  0  0  0  0
  -25.5370  -33.7960   24.0840 N   0  0  0  0  0  0  0  0  0  0  0  0
  -25.8670  -34.8740   23.3600 C   0  0  0  0  0  0  0  0  0  0  0  0
  -26.5360  -34.8050   22.3250 O   0  0  0  0  0  0  0  0  0  0  0  0
  -24.9410  -33.9220   24.8900 H   0  0  0  0  0  0  0  0  0  0  0  0
  -24.1440  -36.6800   23.0570 C   0  0  0  0  0  1  0  0  0  0  0  0
  -25.3770  -36.2450   23.8630 C   0  0  0  0  0  3  0  0  0  0  0  0
  -27.5060  -37.0960   24.7440 C   0  0  0  0  0  1  0  0  0  0  0  0
  -26.4140  -37.2990   23.7970 N   0  0  0  0  0  0  0  0  0  0  0  0
  -26.0070  -38.2150   23.9720 H   0  0  0  0  0  0  0  0  0  0  0  0
  1  3  1  0
  3  2  2  0
  3  6  1  0
  4  1  2  0
  4  5  1  0
  5 50  1  0
  5  2  1  0
  7 19  1  0
  8 13  1  0
  9 10  1  0
  9  8  1  0
 11 10  1  0
 11 25  1  0
 11 12  1  0
 13  7  1  0
 13 12  1  0
 14  7  2  0
 15 19  1  0
 15 17  1  0
 16 18  1  0
 17 20  1  0
 19 16  1  0
 20  6  1  0
 20 18  1  0
 20 21  1  6
 22 23  2  0
 23 42  1  0
 24 23  1  0
 24 27  1  0
 25 26  1  0
 25 22  1  0
 26 24  2  0
 27 28  1  0
 28 29  2  0
 30 33  1  0
 30 29  1  0
 31 30  2  0
 32 31  1  0
 32 27  2  0
 33 34  1  0
 34 39  2  0
 34 35  1  0
 35 36  2  0
 36 37  1  0
 37 41  1  0
 38 37  2  0
 39 38  1  0
 40 39  1  0
 42 43  1  0
 43 46  1  0
 43 45  1  0
 44 42  2  0
 47 48  1  0
 47 22  1  0
 49 47  1  0
 51 52  1  0
 51 50  1  0
 52 54  1  0
 53 64  2  0
 54 59  1  0
 55 63  1  0
 55 65  1  0
 56 62  1  0
 56 58  1  0
 57 63  1  0
 58 57  1  0
 59 58  2  0
 60 61  1  0
 60 54  2  0
 61 56  2  0
 62 55  1  0
 63 53  1  0
 65 67  2  0
 66 65  1  0
 68 66  1  0
 69 78  2  0
 69 74  1  0
 70 66  1  0
 70 74  1  0
 71 70  1  0
 72 73  1  0
 72 71  1  0
 73 69  1  0
 74 75  2  0
 75 76  1  0
 77 76  2  0
 78 77  1  0
 79 53  1  0
 79 84  1  0
 79 80  1  0
 80 83  1  1
 80 81  1  0
 82 80  1  0
 84 87  1  0
 85 89  1  0
 85 84  1  0
 86 85  2  0
 89 88  1  0
 91 89  1  0
 91 92  1  0
 91 90  1  0
M  ISO  4   7 100  19 100  51 101  52 101
M  END
>  <TORSDO>  (90) 
F 19

>  <SCORE>  (90) 
-13.424

>  <name>  (90) 
89

>  <ligand_id>  (90) 
89

>  <original_smiles>  (90) 
[H]c1nn(C([H])([H])C([H])([H])Oc2c([H])c([H])c3c(c2[H])C([H])([H])N(C(=O)C([H])(N([H])C(=O)C([H])(N([H])C([H])([H])[H])C([H])([H])[H])C(C([H])([H])[H])(C([H])([H])[H])C([H])([H])[H])C([H])(C(=O)N([H])C2([H])c4c([H])c([H])c([H])c([H])c4C([H])([H])C([H])([H])C2([H])[H])C3([H])[H])c([H])c1C([H])([H])[N+]1([H])C([H])([H])C([H])([H])N(C(=O)N2C([H])([H])C([H])([H])C([H])([H])C([H])(n3nc(-c4c([H])c([H])c(Oc5c([H])c([H])c(F)c([H])c5F)c([H])c4[H])c(C(=O)N([H])[H])c3N([H])[H])C2([H])[H])C([H])([H])C1([H])[H]

>  <smiles>  (90) 
[H]c1nn(C([H])([H])C([H])([H])Oc2c([H])c([H])c3c(c2[H])C([H])([H])N(C(=O)C([H])(N([H])C(=O)C([H])(N([H])C([H])([H])[H])C([H])([H])[H])C(C([H])([H])[H])(C([H])([H])[H])C([H])([H])[H])C([H])(C(=O)N([H])C2([H])c4c([H])c([H])c([H])c([H])c4C([H])([H])C([H])([H])C2([H])[H])C3([H])[H])c([H])c1C([H])([H])[N+]1([H])C([H])([H])C([H])([H])N(C(=O)N2C([H])([H])C([H])([H])C([H])([H])C([H])(n3nc(-c4c([H])c([H])c(Oc5c([H])c([H])c(F)c([H])c5F)c([H])c4[H])c(C(=O)N([H])[H])c3N([H])[H])C2([H])[H])C([H])([H])C1([H])[H]

$$$$
90:0:0
     RDKit          3D

 96105  0  0  1  0  0  0  0  0999 V2000
  -31.4570  -24.7090   18.0600 C   0  0  0  0  0  3  0  0  0  0  0  0
  -31.1860  -23.3290   18.2570 C   0  0  0  0  0  3  0  0  0  0  0  0
  -30.8270  -25.4010   19.0570 C   0  0  0  0  0  3  0  0  0  0  0  0
  -30.4210  -23.2360   19.3850 C   0  0  0  0  0  0  0  0  0  0  0  0
  -30.1370  -24.5050   19.8680 N   0  0  0  0  0  0  0  0  0  0  0  0
  -31.1760  -21.1100   20.1970 C   0  0  0  0  0  2  0  0  0  0  0  0
  -28.8480  -21.3750   19.4730 C   0  0  0  0  0  2  0  0  0  0  0  0
  -30.7890  -19.8750   21.0250 C   0  0  0  0  0  2  0  0  0  0  0  0
  -28.4700  -20.1100   20.2870 C   0  0  0  0  0  2  0  0  0  0  0  0
  -30.0550  -22.0290   19.9890 N   0  0  0  0  0  0  0  0  0  0  0  0
  -29.6250  -19.1800   20.4190 N   0  0  2  0  0  4  0  0  0  0  0  0
  -29.9010  -18.9800   19.4680 H   0  0  0  0  0  0  0  0  0  0  0  0
  -29.2540  -17.8550   21.0150 C   0  0  0  0  0  2  0  0  0  0  0  0
  -31.1860  -16.9700   22.5070 C   0  0  0  0  0  1  0  0  0  0  0  0
  -30.4260  -16.8340   21.1680 C   0  0  0  0  0  3  0  0  0  0  0  0
  -30.5860  -14.4490   20.4560 C   0  0  0  0  0  0  0  0  0  0  0  0
  -30.2730  -12.3050   19.2950 C   0  0  0  0  0  2  0  0  0  0  0  0
  -29.3290  -12.5020   18.0940 C   0  0  0  0  0  2  0  0  0  0  0  0
  -27.8550  -12.3580   18.5280 C   0  0  0  0  0  2  0  0  0  0  0  0
  -27.5150  -13.1940   19.7900 C   0  0  0  0  0  3  0  0  0  0  0  0
  -28.5750  -12.9910   20.8960 C   0  0  0  0  0  2  0  0  0  0  0  0
  -29.8990  -13.2850   20.3230 N   0  0  0  0  0  0  0  0  0  0  0  0
  -31.6850  -14.6420   19.9350 O   0  0  0  0  0  0  0  0  0  0  0  0
  -29.9420  -15.4460   21.0880 N   0  0  0  0  0  0  0  0  0  0  0  0
  -29.0340  -15.2300   21.4720 H   0  0  0  0  0  0  0  0  0  0  0  0
  -25.1100  -13.7760   20.5030 C   0  0  0  0  0  0  0  0  0  0  0  0
  -24.0530  -12.9940   20.8840 C   0  0  0  0  0  0  0  0  0  0  0  0
  -24.5320  -11.6470   20.8630 C   0  0  0  0  0  0  0  0  0  0  0  0
  -26.1660  -12.9070   20.2750 N   0  0  0  0  0  0  0  0  0  0  0  0
  -25.8200  -11.6220   20.5480 N   0  0  0  0  0  0  0  0  0  0  0  0
  -23.8230  -10.3750   21.0660 C   0  0  0  0  0  0  0  0  0  0  0  0
  -24.2770   -9.4180   22.0000 C   0  0  0  0  0  3  0  0  0  0  0  0
  -23.5700   -8.2120   22.1910 C   0  0  0  0  0  3  0  0  0  0  0  0
  -22.3950   -7.9550   21.4470 C   0  0  0  0  0  0  0  0  0  0  0  0
  -21.9600   -8.9010   20.5030 C   0  0  0  0  0  3  0  0  0  0  0  0
  -22.6690  -10.0990   20.3100 C   0  0  0  0  0  3  0  0  0  0  0  0
  -21.6600   -6.7990   21.5450 O   0  0  0  0  0  0  0  0  0  0  0  0
  -21.6450   -6.0500   22.6940 C   0  0  0  0  0  0  0  0  0  0  0  0
  -21.2400   -6.5920   23.9330 C   0  0  0  0  0  3  0  0  0  0  0  0
  -21.1710   -5.7710   25.0740 C   0  0  0  0  0  3  0  0  0  0  0  0
  -21.4990   -4.4040   24.9810 C   0  0  0  0  0  0  0  0  0  0  0  0
  -21.8950   -3.8580   23.7470 C   0  0  0  0  0  3  0  0  0  0  0  0
  -21.9650   -4.6790   22.6070 C   0  0  0  0  0  0  0  0  0  0  0  0
  -22.3280   -4.1430   21.4160 F   0  0  0  0  0  0  0  0  0  0  0  0
  -21.4270   -3.6120   26.0760 F   0  0  0  0  0  0  0  0  0  0  0  0
  -22.6490  -13.4540   21.1560 C   0  0  0  0  0  0  0  0  0  0  0  0
  -21.9300  -12.7580   22.0290 N   0  0  0  0  0  0  0  0  0  0  0  0
  -22.1970  -14.4710   20.6300 O   0  0  0  0  0  0  0  0  0  0  0  0
  -22.3060  -11.9370   22.4800 H   0  0  0  0  0  0  0  0  0  0  0  0
  -20.9890  -13.0520   22.2500 H   0  0  0  0  0  0  0  0  0  0  0  0
  -25.2560  -15.1470   20.3100 N   0  0  0  0  0  0  0  0  0  0  0  0
  -24.4780  -15.7930   20.3930 H   0  0  0  0  0  0  0  0  0  0  0  0
  -26.0860  -15.5790   19.9200 H   0  0  0  0  0  0  0  0  0  0  0  0
  -29.3180  -24.8380   21.0360 C   0  0  0  0  0  2  0  0  0  0  0  0
  -28.9670  -26.3390   21.1570 C   0  0  0  0  0  2  0  0  0  0  0  0
  -28.3160  -26.7380   19.9560 O   0  0  0  0  0  0  0  0  0  0  0  0
  -24.5770  -31.8860   23.2070 C   0  0  0  0  0  0  0  0  0  0  0  0
  -27.1690  -27.4730   20.0770 C   0  0  0  0  0  0  0  0  0  0  0  0
  -23.3440  -30.4970   21.5710 C   0  0  0  0  0  3  0  0  0  0  0  0
  -24.7770  -28.9580   20.1300 C   0  0  0  0  0  0  0  0  0  0  0  0
  -25.8660  -30.8510   21.3470 C   0  0  0  0  0  2  0  0  0  0  0  0
  -25.9390  -29.4800   20.7140 C   0  0  0  0  0  0  0  0  0  0  0  0
  -27.1400  -28.7390   20.7020 C   0  0  0  0  0  3  0  0  0  0  0  0
  -25.9990  -26.9600   19.4860 C   0  0  0  0  0  3  0  0  0  0  0  0
  -24.7970  -27.6910   19.5210 C   0  0  0  0  0  3  0  0  0  0  0  0
  -23.5370  -29.8210   20.1870 C   0  0  0  0  0  2  0  0  0  0  0  0
  -24.6130  -31.0920   22.1000 N   0  0  0  0  0  0  0  0  0  0  0  0
  -23.5040  -32.1600   23.7620 O   0  0  0  0  0  0  0  0  0  0  0  0
  -22.7020  -29.4720   22.5330 C   0  0  0  0  0  0  0  0  0  0  0  0
  -21.3750  -29.2940   22.4200 N   0  0  0  0  0  0  0  0  0  0  0  0
  -23.3920  -28.8390   23.3360 O   0  0  0  0  0  0  0  0  0  0  0  0
  -20.8800  -29.8580   21.7430 H   0  0  0  0  0  0  0  0  0  0  0  0
  -18.0020  -28.1160   22.9460 C   0  0  0  0  0  0  0  0  0  0  0  0
  -20.5630  -28.3570   23.1940 C   0  0  0  0  0  3  0  0  0  0  0  0
  -20.6520  -26.9290   22.6100 C   0  0  0  0  0  2  0  0  0  0  0  0
  -19.5380  -26.6170   21.6050 C   0  0  0  0  0  2  0  0  0  0  0  0
  -18.1640  -26.7680   22.2640 C   0  0  0  0  0  2  0  0  0  0  0  0
  -19.1290  -28.8690   23.3700 C   0  0  0  0  0  0  0  0  0  0  0  0
  -18.9250  -30.1310   23.9670 C   0  0  0  0  0  3  0  0  0  0  0  0
  -17.6250  -30.6410   24.1460 C   0  0  0  0  0  3  0  0  0  0  0  0
  -16.5130  -29.8840   23.7410 C   0  0  0  0  0  3  0  0  0  0  0  0
  -16.7020  -28.6240   23.1470 C   0  0  0  0  0  3  0  0  0  0  0  0
  -25.8740  -32.5060   23.8140 C   0  0  0  0  0  3  0  0  0  0  0  0
  -25.5760  -33.9010   24.1600 N   0  0  0  0  0  0  0  0  0  0  0  0
  -25.9080  -34.9590   23.4070 C   0  0  0  0  0  0  0  0  0  0  0  0
  -26.5710  -34.8610   22.3710 O   0  0  0  0  0  0  0  0  0  0  0  0
  -24.9850  -34.0520   24.9650 H   0  0  0  0  0  0  0  0  0  0  0  0
  -24.1900  -36.7630   23.0740 C   0  0  0  0  0  1  0  0  0  0  0  0
  -25.4300  -36.3440   23.8800 C   0  0  0  0  0  3  0  0  0  0  0  0
  -27.5730  -37.2040   24.7140 C   0  0  0  0  0  1  0  0  0  0  0  0
  -26.4680  -37.3920   23.7760 N   0  0  0  0  0  0  0  0  0  0  0  0
  -26.0680  -38.3130   23.9390 H   0  0  0  0  0  0  0  0  0  0  0  0
  -26.4120  -31.7190   25.0710 C   0  0  1  0  0  0  0  0  0  0  0  0
  -25.3350  -31.4700   26.1530 C   0  0  0  0  0  1  0  0  0  0  0  0
  -26.9860  -30.3450   24.6500 C   0  0  0  0  0  1  0  0  0  0  0  0
  -27.5740  -32.5040   25.7250 C   0  0  0  0  0  1  0  0  0  0  0  0
  1  2  1  0
  1  3  2  0
  2  4  2  0
  3  5  1  0
  4  5  1  0
  4 10  1  0
  5 54  1  0
  6  8  1  0
  7 10  1  0
  7  9  1  0
  9 11  1  0
 10  6  1  0
 11 13  1  0
 11  8  1  0
 11 12  1  6
 13 15  1  0
 15 14  1  0
 16 24  1  0
 17 22  1  0
 18 19  1  0
 18 17  1  0
 20 19  1  0
 20 29  1  0
 20 21  1  0
 22 16  1  0
 22 21  1  0
 23 16  2  0
 24 15  1  0
 24 25  1  0
 26 27  2  0
 27 46  1  0
 28 27  1  0
 28 31  1  0
 29 26  1  0
 29 30  1  0
 30 28  2  0
 31 32  1  0
 32 33  2  0
 34 37  1  0
 34 33  1  0
 35 34  2  0
 36 35  1  0
 36 31  2  0
 37 38  1  0
 38 39  1  0
 39 40  2  0
 41 40  1  0
 41 45  1  0
 42 41  2  0
 43 38  2  0
 43 42  1  0
 44 43  1  0
 46 47  1  0
 47 50  1  0
 47 49  1  0
 48 46  2  0
 51 52  1  0
 51 26  1  0
 53 51  1  0
 54 55  1  0
 56 58  1  0
 56 55  1  0
 57 68  2  0
 58 63  1  0
 59 67  1  0
 59 69  1  0
 60 66  1  0
 60 62  1  0
 61 67  1  0
 62 61  1  0
 63 62  2  0
 64 65  1  0
 64 58  2  0
 65 60  2  0
 66 59  1  0
 67 57  1  0
 69 71  2  0
 70 69  1  0
 72 70  1  0
 73 82  2  0
 73 78  1  0
 74 70  1  0
 74 78  1  0
 75 74  1  0
 76 77  1  0
 76 75  1  0
 77 73  1  0
 78 79  2  0
 79 80  1  0
 81 80  2  0
 82 81  1  0
 83 57  1  0
 83 84  1  0
 83 93  1  0
 84 87  1  0
 85 89  1  0
 85 84  1  0
 86 85  2  0
 89 88  1  0
 91 89  1  0
 91 92  1  0
 91 90  1  0
 93 96  1  1
 93 94  1  0
 95 93  1  0
M  ISO  4  16 100  24 100  55 101  56 101
M  END
>  <TORSDO>  (91) 
F 21

>  <SCORE>  (91) 
-13.342

>  <name>  (91) 
90

>  <ligand_id>  (91) 
90

>  <original_smiles>  (91) 
[H]c1c([H])c([H])c2c(c1[H])C([H])([H])C([H])([H])C([H])([H])C2([H])N([H])C(=O)C1([H])N(C(=O)C([H])(N([H])C(=O)C([H])(N([H])C([H])([H])[H])C([H])([H])[H])C(C([H])([H])[H])(C([H])([H])[H])C([H])([H])[H])C([H])([H])c2c([H])c(OC([H])([H])C([H])([H])n3c([H])c([H])c([H])c3N3C([H])([H])C([H])([H])[N+]([H])(C([H])([H])C([H])(N([H])C(=O)N4C([H])([H])C([H])([H])C([H])([H])C([H])(n5nc(-c6c([H])c([H])c(Oc7c([H])c([H])c(F)c([H])c7F)c([H])c6[H])c(C(=O)N([H])[H])c5N([H])[H])C4([H])[H])C([H])([H])[H])C([H])([H])C3([H])[H])c([H])c([H])c2C1([H])[H]

>  <smiles>  (91) 
[H]c1c([H])c([H])c2c(c1[H])C([H])([H])C([H])([H])C([H])([H])C2([H])N([H])C(=O)C1([H])N(C(=O)C([H])(N([H])C(=O)C([H])(N([H])C([H])([H])[H])C([H])([H])[H])C(C([H])([H])[H])(C([H])([H])[H])C([H])([H])[H])C([H])([H])c2c([H])c(OC([H])([H])C([H])([H])n3c([H])c([H])c([H])c3N3C([H])([H])C([H])([H])[N+]([H])(C([H])([H])C([H])(N([H])C(=O)N4C([H])([H])C([H])([H])C([H])([H])C([H])(n5nc(-c6c([H])c([H])c(Oc7c([H])c([H])c(F)c([H])c7F)c([H])c6[H])c(C(=O)N([H])[H])c5N([H])[H])C4([H])[H])C([H])([H])[H])C([H])([H])C3([H])[H])c([H])c([H])c2C1([H])[H]

$$$$
91:0:0
     RDKit          3D

 90 99  0  0  1  0  0  0  0  0999 V2000
  -30.6620  -14.8470   20.3640 C   0  0  0  0  0  0  0  0  0  0  0  0
  -30.4220  -12.5410   19.4020 C   0  0  0  0  0  2  0  0  0  0  0  0
  -29.5150  -12.5570   18.1540 C   0  0  0  0  0  2  0  0  0  0  0  0
  -28.0380  -12.3990   18.5620 C   0  0  0  0  0  2  0  0  0  0  0  0
  -27.6410  -13.3230   19.7470 C   0  0  0  0  0  3  0  0  0  0  0  0
  -28.6820  -13.2860   20.8860 C   0  0  0  0  0  2  0  0  0  0  0  0
  -29.9700  -13.6490   20.2840 N   0  0  0  0  0  0  0  0  0  0  0  0
  -31.8740  -14.8020   20.1330 O   0  0  0  0  0  0  0  0  0  0  0  0
  -27.7460  -22.7380   20.3730 C   0  0  0  0  0  3  0  0  0  0  0  0
  -27.9410  -21.3190   20.5430 C   0  0  0  0  0  3  0  0  0  0  0  0
  -28.7990  -23.5680   19.8920 C   0  0  0  0  0  0  0  0  0  0  0  0
  -29.1880  -20.7010   20.2230 C   0  0  0  0  0  0  0  0  0  0  0  0
  -30.7120  -18.6260   19.8560 C   0  0  0  0  0  2  0  0  0  0  0  0
  -28.4850  -18.2300   20.7700 C   0  0  0  0  0  2  0  0  0  0  0  0
  -30.5550  -17.1500   19.2900 C   0  0  0  0  0  2  0  0  0  0  0  0
  -29.0610  -16.7720   21.1570 C   0  0  0  0  0  2  0  0  0  0  0  0
  -29.9840  -22.9140   19.6320 N   0  0  0  0  0  0  0  0  0  0  0  0
  -30.1690  -21.5660   19.7970 N   0  0  0  0  0  0  0  0  0  0  0  0
  -29.4550  -19.2550   20.3030 N   0  0  0  0  0  0  0  0  0  0  0  0
  -30.0110  -16.0950   20.2120 N   0  0  0  0  0  0  0  0  0  0  0  0
  -25.2490  -13.9360   20.4200 C   0  0  0  0  0  0  0  0  0  0  0  0
  -24.1710  -13.1750   20.7800 C   0  0  0  0  0  0  0  0  0  0  0  0
  -24.6260  -11.8200   20.7830 C   0  0  0  0  0  0  0  0  0  0  0  0
  -26.2910  -13.0460   20.2210 N   0  0  0  0  0  0  0  0  0  0  0  0
  -25.9240  -11.7690   20.5050 N   0  0  0  0  0  0  0  0  0  0  0  0
  -23.8850  -10.5670   20.9770 C   0  0  0  0  0  0  0  0  0  0  0  0
  -24.3000   -9.6010   21.9200 C   0  0  0  0  0  3  0  0  0  0  0  0
  -23.5600   -8.4140   22.1020 C   0  0  0  0  0  3  0  0  0  0  0  0
  -22.3880   -8.1830   21.3430 C   0  0  0  0  0  0  0  0  0  0  0  0
  -21.9920   -9.1380   20.3890 C   0  0  0  0  0  3  0  0  0  0  0  0
  -22.7340  -10.3160   20.2040 C   0  0  0  0  0  3  0  0  0  0  0  0
  -21.6200   -7.0480   21.4340 O   0  0  0  0  0  0  0  0  0  0  0  0
  -21.5660   -6.3060   22.5870 C   0  0  0  0  0  0  0  0  0  0  0  0
  -21.1650   -6.8690   23.8180 C   0  0  0  0  0  3  0  0  0  0  0  0
  -21.0580   -6.0550   24.9640 C   0  0  0  0  0  3  0  0  0  0  0  0
  -21.3410   -4.6790   24.8790 C   0  0  0  0  0  0  0  0  0  0  0  0
  -21.7350   -4.1150   23.6530 C   0  0  0  0  0  3  0  0  0  0  0  0
  -21.8440   -4.9270   22.5090 C   0  0  0  0  0  0  0  0  0  0  0  0
  -22.2040   -4.3740   21.3260 F   0  0  0  0  0  0  0  0  0  0  0  0
  -21.2310   -3.8950   25.9770 F   0  0  0  0  0  0  0  0  0  0  0  0
  -22.7720  -13.6670   21.0090 C   0  0  0  0  0  0  0  0  0  0  0  0
  -22.0210  -12.9970   21.8750 N   0  0  0  0  0  0  0  0  0  0  0  0
  -22.3540  -14.6840   20.4540 O   0  0  0  0  0  0  0  0  0  0  0  0
  -22.3710  -12.1760   22.3450 H   0  0  0  0  0  0  0  0  0  0  0  0
  -21.0820  -13.3120   22.0710 H   0  0  0  0  0  0  0  0  0  0  0  0
  -25.4280  -15.3010   20.2200 N   0  0  0  0  0  0  0  0  0  0  0  0
  -24.6610  -15.9610   20.2920 H   0  0  0  0  0  0  0  0  0  0  0  0
  -26.2810  -15.7200   19.8740 H   0  0  0  0  0  0  0  0  0  0  0  0
  -28.5870  -25.0650   19.3010 C   0  0  0  0  0  2  0  0  0  0  0  0
  -28.4640  -26.3610   20.0850 O   0  0  0  0  0  0  0  0  0  0  0  0
  -24.6580  -31.8150   23.0700 C   0  0  0  0  0  0  0  0  0  0  0  0
  -27.3560  -27.2530   19.9870 C   0  0  0  0  0  0  0  0  0  0  0  0
  -23.4930  -30.4140   21.4110 C   0  0  0  0  0  3  0  0  0  0  0  0
  -24.9780  -28.8960   19.9760 C   0  0  0  0  0  0  0  0  0  0  0  0
  -26.0370  -30.7510   21.2560 C   0  0  0  0  0  2  0  0  0  0  0  0
  -26.1410  -29.3760   20.5920 C   0  0  0  0  0  0  0  0  0  0  0  0
  -27.3270  -28.5650   20.5880 C   0  0  0  0  0  3  0  0  0  0  0  0
  -26.1570  -26.8500   19.3550 C   0  0  0  0  0  3  0  0  0  0  0  0
  -24.9940  -27.6430   19.3490 C   0  0  0  0  0  3  0  0  0  0  0  0
  -23.7300  -29.7580   20.0260 C   0  0  0  0  0  2  0  0  0  0  0  0
  -24.7480  -31.0130   21.9680 N   0  0  0  0  0  0  0  0  0  0  0  0
  -23.5650  -32.0720   23.5970 O   0  0  0  0  0  0  0  0  0  0  0  0
  -22.8360  -29.3790   22.3570 C   0  0  0  0  0  0  0  0  0  0  0  0
  -21.5070  -29.2080   22.2440 N   0  0  0  0  0  0  0  0  0  0  0  0
  -23.5220  -28.7340   23.1550 O   0  0  0  0  0  0  0  0  0  0  0  0
  -21.0110  -29.7800   21.5750 H   0  0  0  0  0  0  0  0  0  0  0  0
  -18.1300  -28.0220   22.7860 C   0  0  0  0  0  0  0  0  0  0  0  0
  -20.6950  -28.2550   23.0060 C   0  0  0  0  0  3  0  0  0  0  0  0
  -20.7720  -26.8390   22.3880 C   0  0  0  0  0  2  0  0  0  0  0  0
  -19.6460  -26.5540   21.3880 C   0  0  0  0  0  2  0  0  0  0  0  0
  -18.2800  -26.6910   22.0660 C   0  0  0  0  0  2  0  0  0  0  0  0
  -19.2640  -28.7630   23.2120 C   0  0  0  0  0  0  0  0  0  0  0  0
  -19.0670  -30.0090   23.8470 C   0  0  0  0  0  3  0  0  0  0  0  0
  -17.7710  -30.5130   24.0580 C   0  0  0  0  0  3  0  0  0  0  0  0
  -16.6510  -29.7700   23.6470 C   0  0  0  0  0  3  0  0  0  0  0  0
  -16.8320  -28.5250   23.0160 C   0  0  0  0  0  3  0  0  0  0  0  0
  -25.9230  -32.4680   23.7090 C   0  0  0  0  0  3  0  0  0  0  0  0
  -25.5720  -33.8450   24.0850 N   0  0  0  0  0  0  0  0  0  0  0  0
  -25.8600  -34.9330   23.3570 C   0  0  0  0  0  0  0  0  0  0  0  0
  -26.5170  -34.8830   22.3140 O   0  0  0  0  0  0  0  0  0  0  0  0
  -24.9850  -33.9550   24.8990 H   0  0  0  0  0  0  0  0  0  0  0  0
  -24.0670  -36.6780   23.0920 C   0  0  0  0  0  1  0  0  0  0  0  0
  -25.3370  -36.2900   23.8660 C   0  0  0  0  0  3  0  0  0  0  0  0
  -27.4580  -37.2210   24.6810 C   0  0  0  0  0  1  0  0  0  0  0  0
  -26.3320  -37.3800   23.7660 N   0  0  0  0  0  0  0  0  0  0  0  0
  -25.8990  -38.2820   23.9500 H   0  0  0  0  0  0  0  0  0  0  0  0
  -26.4640  -31.6740   24.9610 C   0  0  1  0  0  0  0  0  0  0  0  0
  -25.3830  -31.3770   26.0260 C   0  0  0  0  0  1  0  0  0  0  0  0
  -27.0820  -30.3230   24.5310 C   0  0  0  0  0  1  0  0  0  0  0  0
  -27.5970  -32.4780   25.6410 C   0  0  0  0  0  1  0  0  0  0  0  0
  2  7  1  0
  3  4  1  0
  3  2  1  0
  5  4  1  0
  5 24  1  0
  5  6  1  0
  7  1  1  0
  7  6  1  0
  8  1  2  0
  9 10  1  0
 11  9  2  0
 12 19  1  0
 12 10  2  0
 13 19  1  0
 14 16  1  0
 15 13  1  0
 15 20  1  0
 17 18  2  0
 17 11  1  0
 18 12  1  0
 19 14  1  0
 20  1  1  0
 20 16  1  0
 21 22  2  0
 22 23  1  0
 22 41  1  0
 23 26  1  0
 24 21  1  0
 24 25  1  0
 25 23  2  0
 26 27  1  0
 27 28  2  0
 29 32  1  0
 29 28  1  0
 30 29  2  0
 31 30  1  0
 31 26  2  0
 32 33  1  0
 33 34  1  0
 34 35  2  0
 36 35  1  0
 36 40  1  0
 37 36  2  0
 38 33  2  0
 38 37  1  0
 39 38  1  0
 41 42  1  0
 42 45  1  0
 42 44  1  0
 43 41  2  0
 46 47  1  0
 46 21  1  0
 48 46  1  0
 49 11  1  0
 49 50  1  0
 51 62  2  0
 52 50  1  0
 52 57  1  0
 53 61  1  0
 53 63  1  0
 54 60  1  0
 54 56  1  0
 55 61  1  0
 56 55  1  0
 57 56  2  0
 58 52  2  0
 59 58  1  0
 59 54  2  0
 60 53  1  0
 61 51  1  0
 63 65  2  0
 64 63  1  0
 66 64  1  0
 67 76  2  0
 67 72  1  0
 68 64  1  0
 68 72  1  0
 69 68  1  0
 70 71  1  0
 70 69  1  0
 71 67  1  0
 72 73  2  0
 73 74  1  0
 75 74  2  0
 76 75  1  0
 77 51  1  0
 77 78  1  0
 77 87  1  0
 78 81  1  0
 79 83  1  0
 79 78  1  0
 80 79  2  0
 83 82  1  0
 85 83  1  0
 85 86  1  0
 85 84  1  0
 87 90  1  1
 87 88  1  0
 89 87  1  0
M  ISO  4   1 100  20 100  49 101  50 101
M  END
>  <TORSDO>  (92) 
F 16

>  <SCORE>  (92) 
-15.238

>  <name>  (92) 
91

>  <ligand_id>  (92) 
91

>  <original_smiles>  (92) 
[H]c1c(N2C([H])([H])C([H])([H])N(C(=O)N3C([H])([H])C([H])([H])C([H])([H])C([H])(n4nc(-c5c([H])c([H])c(Oc6c([H])c([H])c(F)c([H])c6F)c([H])c5[H])c(C(=O)N([H])[H])c4N([H])[H])C3([H])[H])C([H])([H])C2([H])[H])nnc(C([H])([H])Oc2c([H])c([H])c3c(c2[H])C([H])([H])N(C(=O)C([H])(N([H])C(=O)C([H])(N([H])C([H])([H])[H])C([H])([H])[H])C(C([H])([H])[H])(C([H])([H])[H])C([H])([H])[H])C([H])(C(=O)N([H])C2([H])c4c([H])c([H])c([H])c([H])c4C([H])([H])C([H])([H])C2([H])[H])C3([H])[H])c1[H]

>  <smiles>  (92) 
[H]c1c(N2C([H])([H])C([H])([H])N(C(=O)N3C([H])([H])C([H])([H])C([H])([H])C([H])(n4nc(-c5c([H])c([H])c(Oc6c([H])c([H])c(F)c([H])c6F)c([H])c5[H])c(C(=O)N([H])[H])c4N([H])[H])C3([H])[H])C([H])([H])C2([H])[H])nnc(C([H])([H])Oc2c([H])c([H])c3c(c2[H])C([H])([H])N(C(=O)C([H])(N([H])C(=O)C([H])(N([H])C([H])([H])[H])C([H])([H])[H])C(C([H])([H])[H])(C([H])([H])[H])C([H])([H])[H])C([H])(C(=O)N([H])C2([H])c4c([H])c([H])c([H])c([H])c4C([H])([H])C([H])([H])C2([H])[H])C3([H])[H])c1[H]

$$$$
92:0:0
     RDKit          3D

 90 99  0  0  1  0  0  0  0  0999 V2000
  -30.1040  -23.7080   21.0140 C   0  0  0  0  0  3  0  0  0  0  0  0
  -30.8970  -22.5810   21.2820 C   0  0  0  0  0  3  0  0  0  0  0  0
  -28.8490  -23.5140   20.4280 C   0  0  0  0  0  0  0  0  0  0  0  0
  -29.3130  -21.1140   20.4650 C   0  0  0  0  0  0  0  0  0  0  0  0
  -30.5130  -21.3160   20.9970 N   0  0  0  0  0  0  0  0  0  0  0  0
  -28.4890  -22.1830   20.1620 N   0  0  0  0  0  0  0  0  0  0  0  0
  -29.5720  -19.5740   18.4430 C   0  0  0  0  0  1  0  0  0  0  0  0
  -29.0490  -19.6210   19.8880 C   0  0  0  0  0  3  0  0  0  0  0  0
  -30.6190  -14.8280   20.3240 C   0  0  0  0  0  0  0  0  0  0  0  0
  -30.3510  -12.5270   19.3590 C   0  0  0  0  0  2  0  0  0  0  0  0
  -29.4260  -12.5620   18.1240 C   0  0  0  0  0  2  0  0  0  0  0  0
  -27.9600  -12.3880   18.5590 C   0  0  0  0  0  2  0  0  0  0  0  0
  -27.5800  -13.2980   19.7580 C   0  0  0  0  0  3  0  0  0  0  0  0
  -28.6420  -13.2780   20.8810 C   0  0  0  0  0  2  0  0  0  0  0  0
  -29.9280  -13.6270   20.2690 N   0  0  0  0  0  0  0  0  0  0  0  0
  -31.8060  -14.8180   19.9910 O   0  0  0  0  0  0  0  0  0  0  0  0
  -30.7430  -17.3930   20.5730 C   0  0  0  0  0  2  0  0  0  0  0  0
  -28.8090  -16.7970   20.2090 C   0  0  0  0  0  2  0  0  0  0  0  0
  -29.4010  -18.2000   20.6640 C   0  0  0  0  0  3  0  0  0  0  0  0
  -30.0330  -16.0690   20.6570 N   0  0  0  0  0  0  0  0  0  0  0  0
  -25.2000  -13.8790   20.5010 C   0  0  0  0  0  0  0  0  0  0  0  0
  -24.1380  -13.1050   20.8790 C   0  0  0  0  0  0  0  0  0  0  0  0
  -24.6030  -11.7550   20.8520 C   0  0  0  0  0  0  0  0  0  0  0  0
  -26.2440  -13.0020   20.2610 N   0  0  0  0  0  0  0  0  0  0  0  0
  -25.8930  -11.7190   20.5370 N   0  0  0  0  0  0  0  0  0  0  0  0
  -23.8770  -10.4930   21.0470 C   0  0  0  0  0  0  0  0  0  0  0  0
  -24.3210   -9.5170   21.9670 C   0  0  0  0  0  3  0  0  0  0  0  0
  -23.5910   -8.3230   22.1520 C   0  0  0  0  0  3  0  0  0  0  0  0
  -22.4030   -8.0970   21.4180 C   0  0  0  0  0  0  0  0  0  0  0  0
  -21.9770   -9.0610   20.4870 C   0  0  0  0  0  3  0  0  0  0  0  0
  -22.7080  -10.2460   20.2990 C   0  0  0  0  0  3  0  0  0  0  0  0
  -21.6440   -6.9570   21.5130 O   0  0  0  0  0  0  0  0  0  0  0  0
  -21.6250   -6.1960   22.6550 C   0  0  0  0  0  0  0  0  0  0  0  0
  -21.2500   -6.7380   23.9040 C   0  0  0  0  0  3  0  0  0  0  0  0
  -21.1760   -5.9060   25.0390 C   0  0  0  0  0  3  0  0  0  0  0  0
  -21.4720   -4.5330   24.9270 C   0  0  0  0  0  0  0  0  0  0  0  0
  -21.8410   -3.9920   23.6840 C   0  0  0  0  0  3  0  0  0  0  0  0
  -21.9140   -4.8210   22.5510 C   0  0  0  0  0  0  0  0  0  0  0  0
  -22.2500   -4.2890   21.3500 F   0  0  0  0  0  0  0  0  0  0  0  0
  -21.3940   -3.7330   26.0150 F   0  0  0  0  0  0  0  0  0  0  0  0
  -22.7420  -13.5840   21.1500 C   0  0  0  0  0  0  0  0  0  0  0  0
  -22.0140  -12.8980   22.0230 N   0  0  0  0  0  0  0  0  0  0  0  0
  -22.3040  -14.6060   20.6220 O   0  0  0  0  0  0  0  0  0  0  0  0
  -22.3820  -12.0730   22.4750 H   0  0  0  0  0  0  0  0  0  0  0  0
  -21.0780  -13.2040   22.2470 H   0  0  0  0  0  0  0  0  0  0  0  0
  -25.3550  -15.2490   20.3120 N   0  0  0  0  0  0  0  0  0  0  0  0
  -24.5780  -15.8930   20.4140 H   0  0  0  0  0  0  0  0  0  0  0  0
  -26.1850  -15.6850   19.9360 H   0  0  0  0  0  0  0  0  0  0  0  0
  -27.8820  -24.7670   20.0930 C   0  0  0  0  0  2  0  0  0  0  0  0
  -28.2330  -26.2490   20.2810 O   0  0  0  0  0  0  0  0  0  0  0  0
  -24.6270  -31.8870   23.2370 C   0  0  0  0  0  0  0  0  0  0  0  0
  -27.1820  -27.2160   20.1940 C   0  0  0  0  0  0  0  0  0  0  0  0
  -23.4170  -30.4990   21.6000 C   0  0  0  0  0  3  0  0  0  0  0  0
  -24.8570  -28.9360   20.1670 C   0  0  0  0  0  0  0  0  0  0  0  0
  -25.9690  -30.7710   21.4260 C   0  0  0  0  0  2  0  0  0  0  0  0
  -26.0360  -29.3850   20.7750 C   0  0  0  0  0  0  0  0  0  0  0  0
  -27.2020  -28.5390   20.7740 C   0  0  0  0  0  3  0  0  0  0  0  0
  -25.9780  -26.8610   19.5430 C   0  0  0  0  0  3  0  0  0  0  0  0
  -24.8370  -27.6850   19.5370 C   0  0  0  0  0  3  0  0  0  0  0  0
  -23.6320  -29.8300   20.2170 C   0  0  0  0  0  2  0  0  0  0  0  0
  -24.6910  -31.0710   22.1430 N   0  0  0  0  0  0  0  0  0  0  0  0
  -23.5430  -32.1720   23.7690 O   0  0  0  0  0  0  0  0  0  0  0  0
  -22.7420  -29.4870   22.5590 C   0  0  0  0  0  0  0  0  0  0  0  0
  -21.4120  -29.3220   22.4360 N   0  0  0  0  0  0  0  0  0  0  0  0
  -23.4150  -28.8540   23.3780 O   0  0  0  0  0  0  0  0  0  0  0  0
  -20.9270  -29.8830   21.7490 H   0  0  0  0  0  0  0  0  0  0  0  0
  -18.0260  -28.1420   22.9440 C   0  0  0  0  0  0  0  0  0  0  0  0
  -20.5870  -28.3900   23.2080 C   0  0  0  0  0  3  0  0  0  0  0  0
  -20.6810  -26.9570   22.6340 C   0  0  0  0  0  2  0  0  0  0  0  0
  -19.5750  -26.6390   21.6230 C   0  0  0  0  0  2  0  0  0  0  0  0
  -18.1950  -26.7920   22.2690 C   0  0  0  0  0  2  0  0  0  0  0  0
  -19.1500  -28.8990   23.3720 C   0  0  0  0  0  0  0  0  0  0  0  0
  -18.9380  -30.1610   23.9670 C   0  0  0  0  0  3  0  0  0  0  0  0
  -17.6360  -30.6690   24.1360 C   0  0  0  0  0  3  0  0  0  0  0  0
  -16.5270  -29.9100   23.7240 C   0  0  0  0  0  3  0  0  0  0  0  0
  -16.7240  -28.6480   23.1340 C   0  0  0  0  0  3  0  0  0  0  0  0
  -25.9100  -32.5160   23.8610 C   0  0  0  0  0  3  0  0  0  0  0  0
  -25.6020  -33.9140   24.1990 N   0  0  0  0  0  0  0  0  0  0  0  0
  -25.9230  -34.9710   23.4400 C   0  0  0  0  0  0  0  0  0  0  0  0
  -26.5780  -34.8710   22.3990 O   0  0  0  0  0  0  0  0  0  0  0  0
  -25.0230  -34.0660   25.0110 H   0  0  0  0  0  0  0  0  0  0  0  0
  -24.1860  -36.7630   23.1260 C   0  0  0  0  0  1  0  0  0  0  0  0
  -25.4450  -36.3590   23.9100 C   0  0  0  0  0  3  0  0  0  0  0  0
  -27.5970  -37.2440   24.6930 C   0  0  0  0  0  1  0  0  0  0  0  0
  -26.4740  -37.4140   23.7750 N   0  0  0  0  0  0  0  0  0  0  0  0
  -26.0710  -38.3330   23.9340 H   0  0  0  0  0  0  0  0  0  0  0  0
  -26.4220  -31.7410   25.1370 C   0  0  1  0  0  0  0  0  0  0  0  0
  -25.3290  -31.5050   26.2040 C   0  0  0  0  0  1  0  0  0  0  0  0
  -26.9990  -30.3600   24.7430 C   0  0  0  0  0  1  0  0  0  0  0  0
  -27.5800  -32.5270   25.7970 C   0  0  0  0  0  1  0  0  0  0  0  0
  1  2  2  0
  3  1  1  0
  4  5  2  0
  5  2  1  0
  6  3  2  0
  6  4  1  0
  8  7  1  0
  8  4  1  0
  9 20  1  0
 10 15  1  0
 11 12  1  0
 11 10  1  0
 13 12  1  0
 13 24  1  0
 13 14  1  0
 15  9  1  0
 15 14  1  0
 16  9  2  0
 17 20  1  0
 17 19  1  0
 18 20  1  0
 18 19  1  0
 19  8  1  0
 21 22  2  0
 22 41  1  0
 23 22  1  0
 23 26  1  0
 24 21  1  0
 24 25  1  0
 25 23  2  0
 26 27  1  0
 27 28  2  0
 29 32  1  0
 29 28  1  0
 30 29  2  0
 31 30  1  0
 31 26  2  0
 32 33  1  0
 33 34  1  0
 34 35  2  0
 36 35  1  0
 36 40  1  0
 37 36  2  0
 38 33  2  0
 38 37  1  0
 39 38  1  0
 41 42  1  0
 42 45  1  0
 42 44  1  0
 43 41  2  0
 46 47  1  0
 46 21  1  0
 48 46  1  0
 49 50  1  0
 49  3  1  0
 51 62  2  0
 52 50  1  0
 52 57  1  0
 53 61  1  0
 53 63  1  0
 54 60  1  0
 54 56  1  0
 55 61  1  0
 56 55  1  0
 57 56  2  0
 58 52  2  0
 59 58  1  0
 59 54  2  0
 60 53  1  0
 61 51  1  0
 63 65  2  0
 64 63  1  0
 66 64  1  0
 67 76  2  0
 67 72  1  0
 68 64  1  0
 68 72  1  0
 69 68  1  0
 70 71  1  0
 70 69  1  0
 71 67  1  0
 72 73  2  0
 73 74  1  0
 75 74  2  0
 76 75  1  0
 77 51  1  0
 77 78  1  0
 77 87  1  0
 78 81  1  0
 79 83  1  0
 79 78  1  0
 80 79  2  0
 83 82  1  0
 85 83  1  0
 85 86  1  0
 85 84  1  0
 87 90  1  1
 87 88  1  0
 89 87  1  0
M  ISO  4   9 100  20 100  49 101  50 101
M  END
>  <TORSDO>  (93) 
F 18

>  <SCORE>  (93) 
-14.825

>  <name>  (93) 
92

>  <ligand_id>  (93) 
92

>  <original_smiles>  (93) 
[H]c1nc(C([H])(C([H])([H])[H])C2([H])C([H])([H])N(C(=O)N3C([H])([H])C([H])([H])C([H])([H])C([H])(n4nc(-c5c([H])c([H])c(Oc6c([H])c([H])c(F)c([H])c6F)c([H])c5[H])c(C(=O)N([H])[H])c4N([H])[H])C3([H])[H])C2([H])[H])nc(C([H])([H])Oc2c([H])c([H])c3c(c2[H])C([H])([H])N(C(=O)C([H])(N([H])C(=O)C([H])(N([H])C([H])([H])[H])C([H])([H])[H])C(C([H])([H])[H])(C([H])([H])[H])C([H])([H])[H])C([H])(C(=O)N([H])C2([H])c4c([H])c([H])c([H])c([H])c4C([H])([H])C([H])([H])C2([H])[H])C3([H])[H])c1[H]

>  <smiles>  (93) 
[H]c1nc(C([H])(C([H])([H])[H])C2([H])C([H])([H])N(C(=O)N3C([H])([H])C([H])([H])C([H])([H])C([H])(n4nc(-c5c([H])c([H])c(Oc6c([H])c([H])c(F)c([H])c6F)c([H])c5[H])c(C(=O)N([H])[H])c4N([H])[H])C3([H])[H])C2([H])[H])nc(C([H])([H])Oc2c([H])c([H])c3c(c2[H])C([H])([H])N(C(=O)C([H])(N([H])C(=O)C([H])(N([H])C([H])([H])[H])C([H])([H])[H])C(C([H])([H])[H])(C([H])([H])[H])C([H])([H])[H])C([H])(C(=O)N([H])C2([H])c4c([H])c([H])c([H])c([H])c4C([H])([H])C([H])([H])C2([H])[H])C3([H])[H])c1[H]

$$$$
93:0:0
     RDKit          3D

 94104  0  0  1  0  0  0  0  0999 V2000
  -30.4580  -14.4220   19.9790 C   0  0  0  0  0  0  0  0  0  0  0  0
  -30.2340  -11.9900   19.3140 C   0  0  0  0  0  2  0  0  0  0  0  0
  -29.2740  -11.8360   18.1140 C   0  0  0  0  0  2  0  0  0  0  0  0
  -27.8180  -11.7180   18.6030 C   0  0  0  0  0  2  0  0  0  0  0  0
  -27.4640  -12.7750   19.6820 C   0  0  0  0  0  3  0  0  0  0  0  0
  -28.5480  -12.8960   20.7720 C   0  0  0  0  0  2  0  0  0  0  0  0
  -29.8070  -13.1950   20.0810 N   0  0  0  0  0  0  0  0  0  0  0  0
  -31.6550  -14.3900   19.6710 O   0  0  0  0  0  0  0  0  0  0  0  0
  -30.5220  -22.3510   20.2520 C   0  0  0  0  0  3  0  0  0  0  0  0
  -31.3450  -21.4670   20.8850 C   0  0  0  0  0  0  0  0  0  0  0  0
  -29.7570  -20.2660   19.8310 C   0  0  0  0  0  3  0  0  0  0  0  0
  -30.0800  -18.0670   18.6610 C   0  0  0  0  0  2  0  0  0  0  0  0
  -28.8400  -18.0810   20.6590 C   0  0  0  0  0  2  0  0  0  0  0  0
  -29.7010  -16.4880   18.6120 C   0  0  0  0  0  2  0  0  0  0  0  0
  -29.6600  -16.7010   20.9550 C   0  0  0  0  0  2  0  0  0  0  0  0
  -29.5140  -21.6700   19.6060 N   0  0  0  0  0  0  0  0  0  0  0  0
  -30.8470  -20.2310   20.6090 N   0  0  0  0  0  0  0  0  0  0  0  0
  -29.2450  -18.9780   19.5140 N   0  0  0  0  0  0  0  0  0  0  0  0
  -29.7420  -15.6570   19.8760 N   0  0  0  0  0  0  0  0  0  0  0  0
  -31.2720  -19.3790   20.9410 H   0  0  0  0  0  0  0  0  0  0  0  0
  -25.1960  -13.5050   20.6110 C   0  0  0  0  0  0  0  0  0  0  0  0
  -24.0860  -12.8040   20.9920 C   0  0  0  0  0  0  0  0  0  0  0  0
  -24.4200  -11.4220   20.8400 C   0  0  0  0  0  0  0  0  0  0  0  0
  -26.1360  -12.5580   20.2460 N   0  0  0  0  0  0  0  0  0  0  0  0
  -25.6830  -11.2940   20.4500 N   0  0  0  0  0  0  0  0  0  0  0  0
  -23.5900  -10.2180   20.9890 C   0  0  0  0  0  0  0  0  0  0  0  0
  -23.9650   -9.1620   21.8480 C   0  0  0  0  0  3  0  0  0  0  0  0
  -23.1400   -8.0260   21.9890 C   0  0  0  0  0  3  0  0  0  0  0  0
  -21.9250   -7.9370   21.2700 C   0  0  0  0  0  0  0  0  0  0  0  0
  -21.5670   -8.9800   20.3980 C   0  0  0  0  0  3  0  0  0  0  0  0
  -22.3910  -10.1080   20.2550 C   0  0  0  0  0  3  0  0  0  0  0  0
  -21.0720   -6.8610   21.3250 O   0  0  0  0  0  0  0  0  0  0  0  0
  -20.9930   -6.0620   22.4370 C   0  0  0  0  0  0  0  0  0  0  0  0
  -20.6430   -6.5800   23.7030 C   0  0  0  0  0  3  0  0  0  0  0  0
  -20.5030   -5.7120   24.8040 C   0  0  0  0  0  3  0  0  0  0  0  0
  -20.7050   -4.3290   24.6420 C   0  0  0  0  0  0  0  0  0  0  0  0
  -21.0480   -3.8100   23.3800 C   0  0  0  0  0  3  0  0  0  0  0  0
  -21.1880   -4.6740   22.2810 C   0  0  0  0  0  0  0  0  0  0  0  0
  -21.4980   -4.1680   21.0640 F   0  0  0  0  0  0  0  0  0  0  0  0
  -20.5640   -3.4940   25.6970 F   0  0  0  0  0  0  0  0  0  0  0  0
  -22.7560  -13.3810   21.3780 C   0  0  0  0  0  0  0  0  0  0  0  0
  -22.0180  -12.6980   22.2450 N   0  0  0  0  0  0  0  0  0  0  0  0
  -22.3850  -14.4730   20.9460 O   0  0  0  0  0  0  0  0  0  0  0  0
  -22.3330  -11.8130   22.6150 H   0  0  0  0  0  0  0  0  0  0  0  0
  -21.1260  -13.0660   22.5440 H   0  0  0  0  0  0  0  0  0  0  0  0
  -25.4810  -14.8640   20.5160 N   0  0  0  0  0  0  0  0  0  0  0  0
  -24.7930  -15.5820   20.7170 H   0  0  0  0  0  0  0  0  0  0  0  0
  -26.3600  -15.2390   20.1810 H   0  0  0  0  0  0  0  0  0  0  0  0
  -33.3840  -22.9490   21.6300 C   0  0  0  0  0  2  0  0  0  0  0  0
  -33.9350  -21.6690   21.0440 C   0  0  0  0  0  2  0  0  0  0  0  0
  -32.5790  -21.6730   21.7030 C   0  0  0  0  0  3  0  0  0  0  0  0
  -28.5340  -22.6130   18.7870 C   0  0  0  0  0  2  0  0  0  0  0  0
  -27.9630  -24.1090   19.3730 C   0  0  0  0  0  2  0  0  0  0  0  0
  -28.1420  -25.5880   18.9030 O   0  0  0  0  0  0  0  0  0  0  0  0
  -24.7970  -30.9940   22.6810 C   0  0  0  0  0  0  0  0  0  0  0  0
  -27.0970  -26.5700   19.0610 C   0  0  0  0  0  0  0  0  0  0  0  0
  -23.4660  -29.7610   21.0140 C   0  0  0  0  0  3  0  0  0  0  0  0
  -24.7920  -28.3140   19.3540 C   0  0  0  0  0  0  0  0  0  0  0  0
  -26.0050  -30.0310   20.6870 C   0  0  0  0  0  2  0  0  0  0  0  0
  -26.0180  -28.7040   19.9100 C   0  0  0  0  0  0  0  0  0  0  0  0
  -27.1730  -27.8510   19.7440 C   0  0  0  0  0  3  0  0  0  0  0  0
  -25.8460  -26.2850   18.4770 C   0  0  0  0  0  3  0  0  0  0  0  0
  -24.7170  -27.1200   18.6220 C   0  0  0  0  0  3  0  0  0  0  0  0
  -23.5810  -29.2080   19.5680 C   0  0  0  0  0  2  0  0  0  0  0  0
  -24.7800  -30.2790   21.5150 N   0  0  0  0  0  0  0  0  0  0  0  0
  -23.7550  -31.2310   23.3130 O   0  0  0  0  0  0  0  0  0  0  0  0
  -22.8480  -28.6730   21.9270 C   0  0  0  0  0  0  0  0  0  0  0  0
  -21.5130  -28.5270   21.8910 N   0  0  0  0  0  0  0  0  0  0  0  0
  -23.5710  -27.9650   22.6340 O   0  0  0  0  0  0  0  0  0  0  0  0
  -20.9830  -29.1520   21.2980 H   0  0  0  0  0  0  0  0  0  0  0  0
  -18.1590  -27.3210   22.5490 C   0  0  0  0  0  0  0  0  0  0  0  0
  -20.7370  -27.5290   22.6330 C   0  0  0  0  0  3  0  0  0  0  0  0
  -20.7650  -26.1570   21.9180 C   0  0  0  0  0  2  0  0  0  0  0  0
  -19.5810  -25.9470   20.9690 C   0  0  0  0  0  2  0  0  0  0  0  0
  -18.2570  -26.0420   21.7320 C   0  0  0  0  0  2  0  0  0  0  0  0
  -19.3220  -28.0270   22.9580 C   0  0  0  0  0  0  0  0  0  0  0  0
  -19.1730  -29.2270   23.6860 C   0  0  0  0  0  3  0  0  0  0  0  0
  -17.8940  -29.7200   24.0070 C   0  0  0  0  0  3  0  0  0  0  0  0
  -16.7470  -29.0090   23.6120 C   0  0  0  0  0  3  0  0  0  0  0  0
  -16.8800  -27.8120   22.8880 C   0  0  0  0  0  3  0  0  0  0  0  0
  -26.1230  -31.5660   23.2690 C   0  0  0  0  0  3  0  0  0  0  0  0
  -25.8370  -32.9070   23.8030 N   0  0  0  0  0  0  0  0  0  0  0  0
  -26.1470  -34.0570   23.1890 C   0  0  0  0  0  0  0  0  0  0  0  0
  -26.7740  -34.0980   22.1260 O   0  0  0  0  0  0  0  0  0  0  0  0
  -25.2780  -32.9480   24.6420 H   0  0  0  0  0  0  0  0  0  0  0  0
  -24.4420  -35.9070   23.1490 C   0  0  0  0  0  1  0  0  0  0  0  0
  -25.6950  -35.3700   23.8580 C   0  0  0  0  0  3  0  0  0  0  0  0
  -27.8620  -36.1000   24.7570 C   0  0  0  0  0  1  0  0  0  0  0  0
  -26.7420  -36.4150   23.8740 N   0  0  0  0  0  0  0  0  0  0  0  0
  -26.3520  -37.3090   24.1610 H   0  0  0  0  0  0  0  0  0  0  0  0
  -26.7460  -30.6500   24.3940 C   0  0  1  0  0  0  0  0  0  0  0  0
  -25.7510  -30.2760   25.5190 C   0  0  0  0  0  1  0  0  0  0  0  0
  -27.2890  -29.3330   23.7940 C   0  0  0  0  0  1  0  0  0  0  0  0
  -27.9540  -31.3680   25.0430 C   0  0  0  0  0  1  0  0  0  0  0  0
  1  7  1  0
  2  7  1  0
  3  4  1  0
  3  2  1  0
  5  4  1  0
  5 24  1  0
  5  6  1  0
  7  6  1  0
  8  1  2  0
  9 10  2  0
 10 51  1  0
 11 16  1  0
 11 17  1  0
 13 15  1  0
 14 12  1  0
 14 19  1  0
 16  9  1  0
 17 10  1  0
 17 20  1  0
 18 12  1  0
 18 11  1  0
 18 13  1  0
 19  1  1  0
 19 15  1  0
 21 22  2  0
 22 41  1  0
 23 26  1  0
 23 22  1  0
 24 25  1  0
 24 21  1  0
 25 23  2  0
 26 27  1  0
 27 28  2  0
 29 32  1  0
 29 28  1  0
 30 29  2  0
 31 30  1  0
 31 26  2  0
 32 33  1  0
 33 34  1  0
 34 35  2  0
 36 35  1  0
 36 40  1  0
 37 36  2  0
 38 33  2  0
 38 37  1  0
 39 38  1  0
 41 42  1  0
 42 45  1  0
 42 44  1  0
 43 41  2  0
 46 21  1  0
 46 47  1  0
 48 46  1  0
 49 51  1  0
 50 49  1  0
 50 51  1  0
 52 53  1  0
 52 16  1  0
 54 56  1  0
 54 53  1  0
 55 66  2  0
 56 61  1  0
 57 65  1  0
 57 67  1  0
 58 64  1  0
 58 60  1  0
 59 65  1  0
 60 59  1  0
 61 60  2  0
 62 63  1  0
 62 56  2  0
 63 58  2  0
 64 57  1  0
 65 55  1  0
 67 69  2  0
 68 67  1  0
 70 68  1  0
 71 80  2  0
 71 76  1  0
 72 68  1  0
 72 76  1  0
 73 72  1  0
 74 75  1  0
 74 73  1  0
 75 71  1  0
 76 77  2  0
 77 78  1  0
 79 78  2  0
 80 79  1  0
 81 55  1  0
 81 82  1  0
 81 91  1  0
 82 85  1  0
 83 82  1  0
 83 87  1  0
 84 83  2  0
 87 86  1  0
 87 89  1  0
 89 90  1  0
 89 88  1  0
 91 94  1  1
 91 92  1  0
 93 91  1  0
M  ISO  4   1 100  19 100  53 101  54 101
M  END
>  <TORSDO>  (94) 
F 18

>  <SCORE>  (94) 
-9.153

>  <name>  (94) 
93

>  <ligand_id>  (94) 
93

>  <original_smiles>  (94) 
[H]c1c([H])c([H])c2c(c1[H])C([H])([H])C([H])([H])C([H])([H])C2([H])N([H])C(=O)C1([H])N(C(=O)C([H])(N([H])C(=O)C([H])(N([H])C([H])([H])[H])C([H])([H])[H])C(C([H])([H])[H])(C([H])([H])[H])C([H])([H])[H])C([H])([H])c2c([H])c(OC([H])([H])C([H])([H])n3c([H])c(C4([H])C([H])([H])C4([H])[H])[n+]([H])c3N3C([H])([H])C([H])([H])N(C(=O)N4C([H])([H])C([H])([H])C([H])([H])C([H])(n5nc(-c6c([H])c([H])c(Oc7c([H])c([H])c(F)c([H])c7F)c([H])c6[H])c(C(=O)N([H])[H])c5N([H])[H])C4([H])[H])C([H])([H])C3([H])[H])c([H])c([H])c2C1([H])[H]

>  <smiles>  (94) 
[H]c1c([H])c([H])c2c(c1[H])C([H])([H])C([H])([H])C([H])([H])C2([H])N([H])C(=O)C1([H])N(C(=O)C([H])(N([H])C(=O)C([H])(N([H])C([H])([H])[H])C([H])([H])[H])C(C([H])([H])[H])(C([H])([H])[H])C([H])([H])[H])C([H])([H])c2c([H])c(OC([H])([H])C([H])([H])n3c([H])c(C4([H])C([H])([H])C4([H])[H])[n+]([H])c3N3C([H])([H])C([H])([H])N(C(=O)N4C([H])([H])C([H])([H])C([H])([H])C([H])(n5nc(-c6c([H])c([H])c(Oc7c([H])c([H])c(F)c([H])c7F)c([H])c6[H])c(C(=O)N([H])[H])c5N([H])[H])C4([H])[H])C([H])([H])C3([H])[H])c([H])c([H])c2C1([H])[H]

$$$$
94:0:0
     RDKit          3D

 91 99  0  0  1  0  0  0  0  0999 V2000
  -29.3220  -18.3320   20.5410 C   0  0  0  0  0  0  0  0  0  0  0  0
  -28.4940  -20.6540   21.0530 C   0  0  0  0  0  2  0  0  0  0  0  0
  -30.6930  -20.4680   20.1280 C   0  0  0  0  0  2  0  0  0  0  0  0
  -28.0950  -21.8260   20.1080 C   0  0  0  0  0  2  0  0  0  0  0  0
  -30.4510  -21.7650   19.2590 C   0  0  0  0  0  2  0  0  0  0  0  0
  -29.4810  -19.7090   20.4810 N   0  0  0  0  0  0  0  0  0  0  0  0
  -29.2290  -22.6080   19.5290 N   0  0  2  0  0  4  0  0  0  0  0  0
  -28.2360  -17.8410   20.8630 O   0  0  0  0  0  0  0  0  0  0  0  0
  -28.9100  -22.7770   18.5850 H   0  0  0  0  0  0  0  0  0  0  0  0
  -30.4670  -17.2970   20.2450 C   0  0  0  0  0  2  0  0  0  0  0  0
  -30.8140  -14.7460   20.1110 C   0  0  0  0  0  0  0  0  0  0  0  0
  -30.4980  -12.5330   19.0350 C   0  0  0  0  0  2  0  0  0  0  0  0
  -29.5190  -12.7020   17.8540 C   0  0  0  0  0  2  0  0  0  0  0  0
  -28.0590  -12.5620   18.3300 C   0  0  0  0  0  2  0  0  0  0  0  0
  -27.7600  -13.4080   19.5970 C   0  0  0  0  0  3  0  0  0  0  0  0
  -28.8560  -13.2330   20.6730 C   0  0  0  0  0  2  0  0  0  0  0  0
  -30.1480  -13.5500   20.0470 N   0  0  0  0  0  0  0  0  0  0  0  0
  -31.9610  -14.8650   19.6760 O   0  0  0  0  0  0  0  0  0  0  0  0
  -30.0940  -15.8510   20.4590 N   0  0  0  0  0  0  0  0  0  0  0  0
  -29.1560  -15.7040   20.8060 H   0  0  0  0  0  0  0  0  0  0  0  0
  -25.3960  -14.0260   20.3910 C   0  0  0  0  0  0  0  0  0  0  0  0
  -24.3340  -13.2620   20.7920 C   0  0  0  0  0  0  0  0  0  0  0  0
  -24.7800  -11.9060   20.7410 C   0  0  0  0  0  0  0  0  0  0  0  0
  -26.4260  -13.1360   20.1240 N   0  0  0  0  0  0  0  0  0  0  0  0
  -26.0600  -11.8550   20.3920 N   0  0  0  0  0  0  0  0  0  0  0  0
  -24.0450  -10.6510   20.9490 C   0  0  0  0  0  0  0  0  0  0  0  0
  -24.4830   -9.6850   21.8830 C   0  0  0  0  0  3  0  0  0  0  0  0
  -23.7490   -8.4950   22.0780 C   0  0  0  0  0  3  0  0  0  0  0  0
  -22.5640   -8.2630   21.3390 C   0  0  0  0  0  0  0  0  0  0  0  0
  -22.1470   -9.2150   20.3930 C   0  0  0  0  0  3  0  0  0  0  0  0
  -22.8810  -10.3980   20.1970 C   0  0  0  0  0  3  0  0  0  0  0  0
  -21.8010   -7.1250   21.4430 O   0  0  0  0  0  0  0  0  0  0  0  0
  -21.7480   -6.3970   22.6050 C   0  0  0  0  0  0  0  0  0  0  0  0
  -21.2820   -6.9590   23.8140 C   0  0  0  0  0  3  0  0  0  0  0  0
  -21.1780   -6.1570   24.9690 C   0  0  0  0  0  3  0  0  0  0  0  0
  -21.5310   -4.7950   24.9140 C   0  0  0  0  0  0  0  0  0  0  0  0
  -21.9900   -4.2330   23.7100 C   0  0  0  0  0  3  0  0  0  0  0  0
  -22.0950   -5.0320   22.5570 C   0  0  0  0  0  0  0  0  0  0  0  0
  -22.5170   -4.4820   21.3940 F   0  0  0  0  0  0  0  0  0  0  0  0
  -21.4250   -4.0220   26.0200 F   0  0  0  0  0  0  0  0  0  0  0  0
  -22.9510  -13.7530   21.1120 C   0  0  0  0  0  0  0  0  0  0  0  0
  -22.2500  -13.0680   22.0080 N   0  0  0  0  0  0  0  0  0  0  0  0
  -22.5030  -14.7800   20.6030 O   0  0  0  0  0  0  0  0  0  0  0  0
  -22.6290  -12.2390   22.4430 H   0  0  0  0  0  0  0  0  0  0  0  0
  -21.3250  -13.3770   22.2660 H   0  0  0  0  0  0  0  0  0  0  0  0
  -25.5690  -15.3950   20.2170 N   0  0  0  0  0  0  0  0  0  0  0  0
  -24.8140  -16.0570   20.3620 H   0  0  0  0  0  0  0  0  0  0  0  0
  -26.4240  -15.8390   19.9050 H   0  0  0  0  0  0  0  0  0  0  0  0
  -29.4380  -24.0420   20.0270 C   0  0  0  0  0  3  0  0  0  0  0  0
  -28.3140  -25.0990   19.6230 C   0  0  0  0  0  3  0  0  0  0  0  0
  -28.4790  -26.5450   19.9220 O   0  0  0  0  0  0  0  0  0  0  0  0
  -24.4870  -31.6570   23.0920 C   0  0  0  0  0  0  0  0  0  0  0  0
  -27.3320  -27.3600   19.8740 C   0  0  0  0  0  0  0  0  0  0  0  0
  -23.3720  -30.2990   21.3610 C   0  0  0  0  0  3  0  0  0  0  0  0
  -24.9080  -28.8810   19.8920 C   0  0  0  0  0  0  0  0  0  0  0  0
  -25.9010  -30.7230   21.2480 C   0  0  0  0  0  2  0  0  0  0  0  0
  -26.0470  -29.3820   20.5370 C   0  0  0  0  0  0  0  0  0  0  0  0
  -27.2620  -28.6340   20.5180 C   0  0  0  0  0  3  0  0  0  0  0  0
  -26.1670  -26.9190   19.2010 C   0  0  0  0  0  3  0  0  0  0  0  0
  -24.9710  -27.6550   19.2170 C   0  0  0  0  0  3  0  0  0  0  0  0
  -23.6380  -29.7050   19.9550 C   0  0  0  0  0  2  0  0  0  0  0  0
  -24.6040  -30.9080   21.9580 N   0  0  0  0  0  0  0  0  0  0  0  0
  -23.3840  -31.8660   23.6160 O   0  0  0  0  0  0  0  0  0  0  0  0
  -22.7310  -29.2100   22.2540 C   0  0  0  0  0  0  0  0  0  0  0  0
  -21.4070  -29.0180   22.1170 N   0  0  0  0  0  0  0  0  0  0  0  0
  -23.4230  -28.5430   23.0280 O   0  0  0  0  0  0  0  0  0  0  0  0
  -20.9070  -29.6100   21.4680 H   0  0  0  0  0  0  0  0  0  0  0  0
  -18.0410  -27.7920   22.6090 C   0  0  0  0  0  0  0  0  0  0  0  0
  -20.6050  -28.0200   22.8290 C   0  0  0  0  0  3  0  0  0  0  0  0
  -20.6850  -26.6420   22.1330 C   0  0  0  0  0  2  0  0  0  0  0  0
  -19.5540  -26.4090   21.1250 C   0  0  0  0  0  2  0  0  0  0  0  0
  -18.1910  -26.5040   21.8180 C   0  0  0  0  0  2  0  0  0  0  0  0
  -19.1740  -28.5120   23.0700 C   0  0  0  0  0  0  0  0  0  0  0  0
  -18.9770  -29.7210   23.7710 C   0  0  0  0  0  3  0  0  0  0  0  0
  -17.6810  -30.2100   24.0160 C   0  0  0  0  0  3  0  0  0  0  0  0
  -16.5620  -29.4850   23.5690 C   0  0  0  0  0  3  0  0  0  0  0  0
  -16.7430  -28.2780   22.8710 C   0  0  0  0  0  3  0  0  0  0  0  0
  -25.7320  -32.3060   23.7730 C   0  0  0  0  0  3  0  0  0  0  0  0
  -26.2200  -31.5200   25.0520 C   0  0  1  0  0  0  0  0  0  0  0  0
  -25.0950  -31.2370   26.0740 C   0  0  0  0  0  1  0  0  0  0  0  0
  -26.8470  -30.1640   24.6550 C   0  0  0  0  0  1  0  0  0  0  0  0
  -27.3260  -32.3260   25.7710 C   0  0  0  0  0  1  0  0  0  0  0  0
  -25.3780  -33.6900   24.1170 N   0  0  0  0  0  0  0  0  0  0  0  0
  -25.7000  -34.7640   23.3840 C   0  0  0  0  0  0  0  0  0  0  0  0
  -26.3960  -34.6950   22.3680 O   0  0  0  0  0  0  0  0  0  0  0  0
  -24.7610  -33.8130   24.9060 H   0  0  0  0  0  0  0  0  0  0  0  0
  -23.9340  -36.5160   23.0210 C   0  0  0  0  0  1  0  0  0  0  0  0
  -25.1670  -36.1310   23.8530 C   0  0  0  0  0  3  0  0  0  0  0  0
  -27.2510  -37.0660   24.7570 C   0  0  0  0  0  1  0  0  0  0  0  0
  -26.1740  -37.2130   23.7800 N   0  0  0  0  0  0  0  0  0  0  0  0
  -25.7390  -38.1200   23.9230 H   0  0  0  0  0  0  0  0  0  0  0  0
  1  8  2  0
  3  6  1  0
  4  2  1  0
  5  7  1  0
  5  3  1  0
  6  1  1  0
  6  2  1  0
  7 49  1  0
  7  4  1  0
  7  9  1  6
 10 19  1  0
 10  1  1  0
 11 19  1  0
 12 17  1  0
 13 14  1  0
 13 12  1  0
 15 14  1  0
 15 24  1  0
 15 16  1  0
 17 11  1  0
 17 16  1  0
 18 11  2  0
 19 20  1  0
 21 22  2  0
 22 41  1  0
 23 22  1  0
 23 26  1  0
 24 21  1  0
 24 25  1  0
 25 23  2  0
 26 27  1  0
 27 28  2  0
 29 32  1  0
 29 28  1  0
 30 29  2  0
 31 30  1  0
 31 26  2  0
 32 33  1  0
 33 34  1  0
 34 35  2  0
 36 35  1  0
 36 40  1  0
 37 36  2  0
 38 33  2  0
 38 37  1  0
 39 38  1  0
 41 42  1  0
 42 45  1  0
 42 44  1  0
 43 41  2  0
 46 47  1  0
 46 21  1  0
 48 46  1  0
 50 51  1  0
 50 49  2  0
 52 63  2  0
 53 51  1  0
 53 58  1  0
 54 62  1  0
 54 64  1  0
 55 61  1  0
 55 57  1  0
 56 62  1  0
 57 56  1  0
 58 57  2  0
 59 60  1  0
 59 53  2  0
 60 55  2  0
 61 54  1  0
 62 52  1  0
 64 66  2  0
 65 64  1  0
 67 65  1  0
 68 77  2  0
 68 73  1  0
 69 65  1  0
 69 73  1  0
 70 69  1  0
 71 72  1  0
 71 70  1  0
 72 68  1  0
 73 74  2  0
 74 75  1  0
 76 75  2  0
 77 76  1  0
 78 52  1  0
 78 83  1  0
 78 79  1  0
 79 82  1  1
 79 80  1  0
 81 79  1  0
 83 86  1  0
 84 88  1  0
 84 83  1  0
 85 84  2  0
 88 87  1  0
 90 88  1  0
 90 91  1  0
 90 89  1  0
M  ISO  4  11 100  19 100  50 101  51 101
M  END
>  <TORSDO>  (95) 
F 19

>  <SCORE>  (95) 
-13.823

>  <name>  (95) 
94

>  <ligand_id>  (95) 
94

>  <original_smiles>  (95) 
[H]c1c([H])c([H])c2c(c1[H])C([H])([H])C([H])([H])C([H])([H])C2([H])N([H])C(=O)C1([H])N(C(=O)C([H])(N([H])C(=O)C([H])(N([H])C([H])([H])[H])C([H])([H])[H])C(C([H])([H])[H])(C([H])([H])[H])C([H])([H])[H])C([H])([H])c2c([H])c(OC([H])([H])C([H])([H])[N+]3([H])C([H])([H])C([H])([H])N(C(=O)C([H])([H])N([H])C(=O)N4C([H])([H])C([H])([H])C([H])([H])C([H])(n5nc(-c6c([H])c([H])c(Oc7c([H])c([H])c(F)c([H])c7F)c([H])c6[H])c(C(=O)N([H])[H])c5N([H])[H])C4([H])[H])C([H])([H])C3([H])[H])c([H])c([H])c2C1([H])[H]

>  <smiles>  (95) 
[H]c1c([H])c([H])c2c(c1[H])C([H])([H])C([H])([H])C([H])([H])C2([H])N([H])C(=O)C1([H])N(C(=O)C([H])(N([H])C(=O)C([H])(N([H])C([H])([H])[H])C([H])([H])[H])C(C([H])([H])[H])(C([H])([H])[H])C([H])([H])[H])C([H])([H])c2c([H])c(OC([H])([H])C([H])([H])[N+]3([H])C([H])([H])C([H])([H])N(C(=O)C([H])([H])N([H])C(=O)N4C([H])([H])C([H])([H])C([H])([H])C([H])(n5nc(-c6c([H])c([H])c(Oc7c([H])c([H])c(F)c([H])c7F)c([H])c6[H])c(C(=O)N([H])[H])c5N([H])[H])C4([H])[H])C([H])([H])C3([H])[H])c([H])c([H])c2C1([H])[H]

$$$$
95:0:0
     RDKit          3D

 93102  0  0  1  0  0  0  0  0999 V2000
  -29.6250  -20.6660   20.1550 N   0  0  0  0  0  4  0  0  0  0  0  0
  -29.7580  -20.6140   21.1530 H   0  0  0  0  0  0  0  0  0  0  0  0
  -30.5200  -20.9330   19.7770 H   0  0  0  0  0  0  0  0  0  0  0  0
  -29.0740  -19.2040   18.1380 C   0  0  0  0  0  1  0  0  0  0  0  0
  -29.3320  -19.1800   19.6530 C   0  0  0  0  0  3  0  0  0  0  0  0
  -30.6800  -15.1580   19.5290 C   0  0  0  0  0  0  0  0  0  0  0  0
  -30.4300  -12.8440   18.5080 C   0  0  0  0  0  2  0  0  0  0  0  0
  -29.3550  -12.8270   17.3970 C   0  0  0  0  0  2  0  0  0  0  0  0
  -27.9510  -12.5960   17.9860 C   0  0  0  0  0  2  0  0  0  0  0  0
  -27.6880  -13.4720   19.2380 C   0  0  0  0  0  3  0  0  0  0  0  0
  -28.8680  -13.4420   20.2260 C   0  0  0  0  0  2  0  0  0  0  0  0
  -30.0600  -13.9030   19.4960 N   0  0  0  0  0  0  0  0  0  0  0  0
  -31.7960  -15.2380   19.0090 O   0  0  0  0  0  0  0  0  0  0  0  0
  -31.5380  -16.8390   22.2790 C   0  0  0  0  0  2  0  0  0  0  0  0
  -30.4960  -17.6940   21.5540 C   0  0  0  0  0  3  0  0  0  0  0  0
  -30.3650  -17.9000   20.0460 C   0  0  0  0  0  3  0  0  0  0  0  0
  -29.6550  -16.4250   21.4360 C   0  0  0  0  0  3  0  0  0  0  0  0
  -30.0090  -16.3380   19.9950 N   0  0  0  0  0  0  0  0  0  0  0  0
  -30.4760  -15.8660   22.5250 N   0  0  0  0  0  4  0  0  0  0  0  0
  -30.0400  -16.0250   23.4190 H   0  0  0  0  0  0  0  0  0  0  0  0
  -30.7540  -14.9010   22.4430 H   0  0  0  0  0  0  0  0  0  0  0  0
  -25.4280  -14.0160   20.3110 C   0  0  0  0  0  0  0  0  0  0  0  0
  -24.4090  -13.2260   20.7670 C   0  0  0  0  0  0  0  0  0  0  0  0
  -24.8500  -11.8780   20.6000 C   0  0  0  0  0  0  0  0  0  0  0  0
  -26.4190  -13.1490   19.8840 N   0  0  0  0  0  0  0  0  0  0  0  0
  -26.0910  -11.8530   20.1260 N   0  0  0  0  0  0  0  0  0  0  0  0
  -24.1360  -10.6110   20.8090 C   0  0  0  0  0  0  0  0  0  0  0  0
  -24.5870   -9.6540   21.7460 C   0  0  0  0  0  3  0  0  0  0  0  0
  -23.8720   -8.4520   21.9440 C   0  0  0  0  0  3  0  0  0  0  0  0
  -22.6930   -8.1970   21.2050 C   0  0  0  0  0  0  0  0  0  0  0  0
  -22.2590   -9.1420   20.2590 C   0  0  0  0  0  3  0  0  0  0  0  0
  -22.9740  -10.3360   20.0600 C   0  0  0  0  0  3  0  0  0  0  0  0
  -21.9490   -7.0460   21.3130 O   0  0  0  0  0  0  0  0  0  0  0  0
  -21.8070   -6.3900   22.5100 C   0  0  0  0  0  0  0  0  0  0  0  0
  -21.2560   -7.0230   23.6460 C   0  0  0  0  0  3  0  0  0  0  0  0
  -21.0600   -6.2900   24.8340 C   0  0  0  0  0  3  0  0  0  0  0  0
  -21.4070   -4.9260   24.8870 C   0  0  0  0  0  0  0  0  0  0  0  0
  -21.9500   -4.2940   23.7540 C   0  0  0  0  0  3  0  0  0  0  0  0
  -22.1470   -5.0240   22.5690 C   0  0  0  0  0  0  0  0  0  0  0  0
  -22.6510   -4.4040   21.4740 F   0  0  0  0  0  0  0  0  0  0  0  0
  -21.2140   -4.2190   26.0260 F   0  0  0  0  0  0  0  0  0  0  0  0
  -23.0600  -13.6960   21.2340 C   0  0  0  0  0  0  0  0  0  0  0  0
  -22.4520  -12.9860   22.1770 N   0  0  0  0  0  0  0  0  0  0  0  0
  -22.5580  -14.7300   20.7950 O   0  0  0  0  0  0  0  0  0  0  0  0
  -22.8700  -12.1510   22.5610 H   0  0  0  0  0  0  0  0  0  0  0  0
  -21.5480  -13.2810   22.5230 H   0  0  0  0  0  0  0  0  0  0  0  0
  -25.5880  -15.3940   20.2000 N   0  0  0  0  0  0  0  0  0  0  0  0
  -24.8500  -16.0390   20.4580 H   0  0  0  0  0  0  0  0  0  0  0  0
  -26.3750  -15.8480   19.7550 H   0  0  0  0  0  0  0  0  0  0  0  0
  -28.6510  -21.8980   19.9100 C   0  0  0  0  0  2  0  0  0  0  0  0
  -28.9640  -23.4960   20.3700 C   0  0  0  0  0  3  0  0  0  0  0  0
  -27.9820  -24.8160   20.0020 C   0  0  0  0  0  3  0  0  0  0  0  0
  -28.2000  -26.3170   20.3460 O   0  0  0  0  0  0  0  0  0  0  0  0
  -24.5640  -31.9750   23.3200 C   0  0  0  0  0  0  0  0  0  0  0  0
  -27.1300  -27.2830   20.2710 C   0  0  0  0  0  0  0  0  0  0  0  0
  -23.3500  -30.5770   21.6920 C   0  0  0  0  0  3  0  0  0  0  0  0
  -24.7910  -29.0100   20.2490 C   0  0  0  0  0  0  0  0  0  0  0  0
  -25.8990  -30.8530   21.5010 C   0  0  0  0  0  2  0  0  0  0  0  0
  -25.9710  -29.4630   20.8510 C   0  0  0  0  0  0  0  0  0  0  0  0
  -27.1430  -28.6170   20.8450 C   0  0  0  0  0  3  0  0  0  0  0  0
  -25.9250  -26.9270   19.6290 C   0  0  0  0  0  3  0  0  0  0  0  0
  -24.7810  -27.7560   19.6200 C   0  0  0  0  0  3  0  0  0  0  0  0
  -23.5590  -29.9010   20.3100 C   0  0  0  0  0  2  0  0  0  0  0  0
  -24.6250  -31.1550   22.2270 N   0  0  0  0  0  0  0  0  0  0  0  0
  -23.4820  -32.2590   23.8590 O   0  0  0  0  0  0  0  0  0  0  0  0
  -22.6830  -29.5680   22.6590 C   0  0  0  0  0  0  0  0  0  0  0  0
  -21.3640  -29.3530   22.5070 N   0  0  0  0  0  0  0  0  0  0  0  0
  -23.3540  -28.9800   23.5120 O   0  0  0  0  0  0  0  0  0  0  0  0
  -20.8800  -29.8790   21.7940 H   0  0  0  0  0  0  0  0  0  0  0  0
  -18.0150  -28.0450   22.9350 C   0  0  0  0  0  0  0  0  0  0  0  0
  -20.5510  -28.4090   23.2790 C   0  0  0  0  0  3  0  0  0  0  0  0
  -20.7260  -26.9670   22.7500 C   0  0  0  0  0  2  0  0  0  0  0  0
  -19.6710  -26.5740   21.7110 C   0  0  0  0  0  2  0  0  0  0  0  0
  -18.2640  -26.6850   22.3040 C   0  0  0  0  0  2  0  0  0  0  0  0
  -19.0890  -28.8610   23.3780 C   0  0  0  0  0  0  0  0  0  0  0  0
  -18.8040  -30.1300   23.9280 C   0  0  0  0  0  3  0  0  0  0  0  0
  -17.4770  -30.5830   24.0410 C   0  0  0  0  0  3  0  0  0  0  0  0
  -16.4160  -29.7660   23.6140 C   0  0  0  0  0  3  0  0  0  0  0  0
  -16.6860  -28.4990   23.0660 C   0  0  0  0  0  3  0  0  0  0  0  0
  -25.8470  -32.6090   23.9380 C   0  0  0  0  0  3  0  0  0  0  0  0
  -26.3310  -31.8760   25.2490 C   0  0  1  0  0  0  0  0  0  0  0  0
  -25.2150  -31.6810   26.3040 C   0  0  0  0  0  1  0  0  0  0  0  0
  -26.9100  -30.4800   24.9180 C   0  0  0  0  0  1  0  0  0  0  0  0
  -27.4760  -32.6820   25.9060 C   0  0  0  0  0  1  0  0  0  0  0  0
  -25.5560  -34.0230   24.2190 N   0  0  0  0  0  0  0  0  0  0  0  0
  -25.8880  -35.0450   23.4180 C   0  0  0  0  0  0  0  0  0  0  0  0
  -26.5380  -34.8960   22.3800 O   0  0  0  0  0  0  0  0  0  0  0  0
  -24.9730  -34.2110   25.0210 H   0  0  0  0  0  0  0  0  0  0  0  0
  -24.1800  -36.8540   23.0250 C   0  0  0  0  0  1  0  0  0  0  0  0
  -25.4270  -36.4570   23.8330 C   0  0  0  0  0  3  0  0  0  0  0  0
  -27.5820  -37.3460   24.6070 C   0  0  0  0  0  1  0  0  0  0  0  0
  -26.4720  -37.4910   23.6700 N   0  0  0  0  0  0  0  0  0  0  0  0
  -26.0790  -38.4220   23.7830 H   0  0  0  0  0  0  0  0  0  0  0  0
  1  2  1  0
  3  1  1  0
  5  4  1  0
  5  1  1  0
  6 18  1  0
  7 12  1  0
  8  9  1  0
  8  7  1  0
 10  9  1  0
 10 25  1  0
 10 11  1  0
 12  6  1  0
 12 11  1  0
 13  6  2  0
 14 19  1  0
 15 14  1  0
 16  5  1  0
 16 15  1  0
 17 18  1  0
 17 15  1  0
 17 19  1  0
 18 16  1  0
 19 20  1  0
 21 19  1  0
 22 23  2  0
 23 42  1  0
 24 23  1  0
 24 27  1  0
 25 26  1  0
 25 22  1  0
 26 24  2  0
 27 28  1  0
 28 29  2  0
 30 33  1  0
 30 29  1  0
 31 30  2  0
 32 31  1  0
 32 27  2  0
 33 34  1  0
 34 39  2  0
 34 35  1  0
 35 36  2  0
 36 37  1  0
 37 41  1  0
 38 37  2  0
 39 38  1  0
 40 39  1  0
 42 43  1  0
 43 46  1  0
 43 45  1  0
 44 42  2  0
 47 22  1  0
 47 48  1  0
 49 47  1  0
 50  1  1  0
 50 51  1  0
 52 53  1  0
 52 51  2  0
 54 65  2  0
 55 53  1  0
 55 60  1  0
 56 64  1  0
 56 66  1  0
 57 63  1  0
 57 59  1  0
 58 64  1  0
 59 58  1  0
 60 59  2  0
 61 55  2  0
 62 61  1  0
 62 57  2  0
 63 56  1  0
 64 54  1  0
 66 68  2  0
 67 66  1  0
 69 67  1  0
 70 79  2  0
 70 75  1  0
 71 67  1  0
 71 75  1  0
 72 71  1  0
 73 74  1  0
 73 72  1  0
 74 70  1  0
 75 76  2  0
 76 77  1  0
 78 77  2  0
 79 78  1  0
 80 54  1  0
 80 85  1  0
 80 81  1  0
 81 84  1  1
 81 82  1  0
 83 81  1  0
 85 88  1  0
 86 90  1  0
 86 85  1  0
 87 86  2  0
 90 89  1  0
 92 93  1  0
 92 90  1  0
 92 91  1  0
M  ISO  4   6 100  18 100  52 101  53 101
M  END
>  <TORSDO>  (96) 
F 20

>  <SCORE>  (96) 
-11.827

>  <name>  (96) 
95

>  <ligand_id>  (96) 
95

>  <original_smiles>  (96) 
[H]c1c([H])c([H])c2c(c1[H])C([H])([H])C([H])([H])C([H])([H])C2([H])N([H])C(=O)C1([H])N(C(=O)C([H])(N([H])C(=O)C([H])(N([H])C([H])([H])[H])C([H])([H])[H])C(C([H])([H])[H])(C([H])([H])[H])C([H])([H])[H])C([H])([H])c2c([H])c(OC([H])([H])C([H])([H])C([H])([H])[N+]([H])([H])C([H])(C([H])([H])[H])C3([H])N(C(=O)N4C([H])([H])C([H])([H])C([H])([H])C([H])(n5nc(-c6c([H])c([H])c(Oc7c([H])c([H])c(F)c([H])c7F)c([H])c6[H])c(C(=O)N([H])[H])c5N([H])[H])C4([H])[H])C4([H])C3([H])C([H])([H])[N+]4([H])[H])c([H])c([H])c2C1([H])[H]

>  <smiles>  (96) 
[H]c1c([H])c([H])c2c(c1[H])C([H])([H])C([H])([H])C([H])([H])C2([H])N([H])C(=O)C1([H])N(C(=O)C([H])(N([H])C(=O)C([H])(N([H])C([H])([H])[H])C([H])([H])[H])C(C([H])([H])[H])(C([H])([H])[H])C([H])([H])[H])C([H])([H])c2c([H])c(OC([H])([H])C([H])([H])C([H])([H])[N+]([H])([H])C([H])(C([H])([H])[H])C3([H])N(C(=O)N4C([H])([H])C([H])([H])C([H])([H])C([H])(n5nc(-c6c([H])c([H])c(Oc7c([H])c([H])c(F)c([H])c7F)c([H])c6[H])c(C(=O)N([H])[H])c5N([H])[H])C4([H])[H])C4([H])C3([H])C([H])([H])[N+]4([H])[H])c([H])c([H])c2C1([H])[H]

$$$$
96:0:0
     RDKit          3D

 89 98  0  0  1  0  0  0  0  0999 V2000
  -28.5200  -21.5710   20.5670 C   0  0  0  0  0  3  0  0  0  0  0  0
  -29.1920  -20.3590   19.9840 C   0  0  0  0  0  0  0  0  0  0  0  0
  -28.6570  -22.9810   20.0450 C   0  0  0  0  0  0  0  0  0  0  0  0
  -30.0090  -21.9350   18.4420 C   0  0  0  0  0  0  0  0  0  0  0  0
  -30.7870  -22.1100   17.1500 C   0  0  0  0  0  1  0  0  0  0  0  0
  -29.9460  -20.6740   18.9070 N   0  0  0  0  0  0  0  0  0  0  0  0
  -29.4300  -23.0450   18.9370 N   0  0  0  0  0  0  0  0  0  0  0  0
  -30.4450  -15.1440   20.2830 C   0  0  0  0  0  0  0  0  0  0  0  0
  -30.3800  -12.7420   19.3810 C   0  0  0  0  0  2  0  0  0  0  0  0
  -29.4600  -12.6380   18.1440 C   0  0  0  0  0  2  0  0  0  0  0  0
  -27.9920  -12.4260   18.5650 C   0  0  0  0  0  2  0  0  0  0  0  0
  -27.5730  -13.3390   19.7510 C   0  0  0  0  0  3  0  0  0  0  0  0
  -28.6290  -13.3920   20.8710 C   0  0  0  0  0  2  0  0  0  0  0  0
  -29.8700  -13.8590   20.2440 N   0  0  0  0  0  0  0  0  0  0  0  0
  -31.6600  -15.1670   20.0280 O   0  0  0  0  0  0  0  0  0  0  0  0
  -29.2620  -17.4020   19.3780 C   0  0  0  0  0  2  0  0  0  0  0  0
  -30.1880  -17.6930   21.1190 C   0  0  0  0  0  2  0  0  0  0  0  0
  -29.1720  -18.6810   20.3550 C   0  0  0  0  0  3  0  0  0  0  0  0
  -29.6980  -16.3900   20.4530 N   0  0  0  0  0  0  0  0  0  0  0  0
  -25.2030  -13.8870   20.5180 C   0  0  0  0  0  0  0  0  0  0  0  0
  -24.1460  -13.1030   20.8900 C   0  0  0  0  0  0  0  0  0  0  0  0
  -24.6160  -11.7550   20.8480 C   0  0  0  0  0  0  0  0  0  0  0  0
  -26.2460  -13.0150   20.2610 N   0  0  0  0  0  0  0  0  0  0  0  0
  -25.9060  -11.7270   20.5270 N   0  0  0  0  0  0  0  0  0  0  0  0
  -23.8920  -10.4890   21.0330 C   0  0  0  0  0  0  0  0  0  0  0  0
  -24.3150   -9.5220   21.9720 C   0  0  0  0  0  3  0  0  0  0  0  0
  -23.5850   -8.3270   22.1470 C   0  0  0  0  0  3  0  0  0  0  0  0
  -22.4180   -8.0900   21.3800 C   0  0  0  0  0  0  0  0  0  0  0  0
  -22.0160   -9.0450   20.4280 C   0  0  0  0  0  3  0  0  0  0  0  0
  -22.7470  -10.2310   20.2530 C   0  0  0  0  0  3  0  0  0  0  0  0
  -21.6640   -6.9460   21.4600 O   0  0  0  0  0  0  0  0  0  0  0  0
  -21.5850   -6.2140   22.6180 C   0  0  0  0  0  0  0  0  0  0  0  0
  -21.1010   -6.7770   23.8200 C   0  0  0  0  0  3  0  0  0  0  0  0
  -20.9700   -5.9730   24.9720 C   0  0  0  0  0  3  0  0  0  0  0  0
  -21.3140   -4.6100   24.9210 C   0  0  0  0  0  0  0  0  0  0  0  0
  -21.7920   -4.0470   23.7240 C   0  0  0  0  0  3  0  0  0  0  0  0
  -21.9230   -4.8470   22.5760 C   0  0  0  0  0  0  0  0  0  0  0  0
  -22.3640   -4.2940   21.4190 F   0  0  0  0  0  0  0  0  0  0  0  0
  -21.1820   -3.8340   26.0240 F   0  0  0  0  0  0  0  0  0  0  0  0
  -22.7480  -13.5760   21.1680 C   0  0  0  0  0  0  0  0  0  0  0  0
  -22.0200  -12.8730   22.0270 N   0  0  0  0  0  0  0  0  0  0  0  0
  -22.3100  -14.6050   20.6580 O   0  0  0  0  0  0  0  0  0  0  0  0
  -22.3890  -12.0500   22.4780 H   0  0  0  0  0  0  0  0  0  0  0  0
  -21.0790  -13.1720   22.2450 H   0  0  0  0  0  0  0  0  0  0  0  0
  -25.3490  -15.2600   20.3470 N   0  0  0  0  0  0  0  0  0  0  0  0
  -24.5570  -15.8870   20.4330 H   0  0  0  0  0  0  0  0  0  0  0  0
  -26.1820  -15.7160   19.9970 H   0  0  0  0  0  0  0  0  0  0  0  0
  -27.8890  -24.4340   20.5310 C   0  0  0  0  0  2  0  0  0  0  0  0
  -28.2080  -25.9900   20.2320 O   0  0  0  0  0  0  0  0  0  0  0  0
  -24.6070  -31.8740   23.2120 C   0  0  0  0  0  0  0  0  0  0  0  0
  -27.1870  -27.0510   20.2270 C   0  0  0  0  0  0  0  0  0  0  0  0
  -23.4210  -30.4680   21.5770 C   0  0  0  0  0  3  0  0  0  0  0  0
  -24.8770  -28.8710   20.1740 C   0  0  0  0  0  0  0  0  0  0  0  0
  -25.9820  -30.7090   21.4250 C   0  0  0  0  0  2  0  0  0  0  0  0
  -26.0610  -29.3000   20.7870 C   0  0  0  0  0  0  0  0  0  0  0  0
  -27.2200  -28.4110   20.7860 C   0  0  0  0  0  3  0  0  0  0  0  0
  -25.9770  -26.7600   19.5650 C   0  0  0  0  0  3  0  0  0  0  0  0
  -24.8540  -27.6200   19.5400 C   0  0  0  0  0  3  0  0  0  0  0  0
  -23.6530  -29.7810   20.2050 C   0  0  0  0  0  2  0  0  0  0  0  0
  -24.6900  -31.0420   22.1250 N   0  0  0  0  0  0  0  0  0  0  0  0
  -23.5170  -32.1600   23.7300 O   0  0  0  0  0  0  0  0  0  0  0  0
  -22.7320  -29.4700   22.5470 C   0  0  0  0  0  0  0  0  0  0  0  0
  -21.4030  -29.3030   22.4200 N   0  0  0  0  0  0  0  0  0  0  0  0
  -23.3960  -28.8470   23.3790 O   0  0  0  0  0  0  0  0  0  0  0  0
  -20.9230  -29.8620   21.7290 H   0  0  0  0  0  0  0  0  0  0  0  0
  -18.0160  -28.1150   22.9380 C   0  0  0  0  0  0  0  0  0  0  0  0
  -20.5780  -28.3710   23.1930 C   0  0  0  0  0  3  0  0  0  0  0  0
  -20.6710  -26.9390   22.6190 C   0  0  0  0  0  2  0  0  0  0  0  0
  -19.5630  -26.6180   21.6100 C   0  0  0  0  0  2  0  0  0  0  0  0
  -18.1850  -26.7650   22.2610 C   0  0  0  0  0  2  0  0  0  0  0  0
  -19.1390  -28.8760   23.3620 C   0  0  0  0  0  0  0  0  0  0  0  0
  -18.9210  -30.1350   23.9620 C   0  0  0  0  0  3  0  0  0  0  0  0
  -17.6170  -30.6340   24.1390 C   0  0  0  0  0  3  0  0  0  0  0  0
  -16.5110  -29.8720   23.7240 C   0  0  0  0  0  3  0  0  0  0  0  0
  -16.7110  -28.6150   23.1290 C   0  0  0  0  0  3  0  0  0  0  0  0
  -25.8760  -32.5190   23.8450 C   0  0  0  0  0  3  0  0  0  0  0  0
  -25.5570  -33.9220   24.1640 N   0  0  0  0  0  0  0  0  0  0  0  0
  -25.8970  -34.9750   23.4120 C   0  0  0  0  0  0  0  0  0  0  0  0
  -26.5750  -34.8690   22.3860 O   0  0  0  0  0  0  0  0  0  0  0  0
  -24.9580  -34.0780   24.9610 H   0  0  0  0  0  0  0  0  0  0  0  0
  -24.1790  -36.7790   23.0350 C   0  0  0  0  0  1  0  0  0  0  0  0
  -25.4060  -36.3670   23.8640 C   0  0  0  0  0  3  0  0  0  0  0  0
  -27.5300  -37.2490   24.7300 C   0  0  0  0  0  1  0  0  0  0  0  0
  -26.4430  -37.4180   23.7680 N   0  0  0  0  0  0  0  0  0  0  0  0
  -26.0390  -38.3400   23.9020 H   0  0  0  0  0  0  0  0  0  0  0  0
  -26.3700  -31.7630   25.1410 C   0  0  1  0  0  0  0  0  0  0  0  0
  -25.2620  -31.5450   26.1960 C   0  0  0  0  0  1  0  0  0  0  0  0
  -26.9530  -30.3770   24.7780 C   0  0  0  0  0  1  0  0  0  0  0  0
  -27.5130  -32.5630   25.8110 C   0  0  0  0  0  1  0  0  0  0  0  0
  2  1  2  0
  3 48  1  0
  3  1  1  0
  4  6  2  0
  4  7  1  0
  5  4  1  0
  6  2  1  0
  7  3  2  0
  8 19  1  0
  9 14  1  0
 10 11  1  0
 10  9  1  0
 12 11  1  0
 12 23  1  0
 12 13  1  0
 14  8  1  0
 14 13  1  0
 15  8  2  0
 16 18  1  0
 16 19  1  0
 18  2  1  0
 18 17  1  0
 19 17  1  0
 20 21  2  0
 21 40  1  0
 22 21  1  0
 22 25  1  0
 23 20  1  0
 23 24  1  0
 24 22  2  0
 25 26  1  0
 26 27  2  0
 28 31  1  0
 28 27  1  0
 29 28  2  0
 30 29  1  0
 30 25  2  0
 31 32  1  0
 32 33  1  0
 33 34  2  0
 35 34  1  0
 35 39  1  0
 36 35  2  0
 37 32  2  0
 37 36  1  0
 38 37  1  0
 40 41  1  0
 41 44  1  0
 41 43  1  0
 42 40  2  0
 45 46  1  0
 45 20  1  0
 47 45  1  0
 49 48  1  0
 50 61  2  0
 51 49  1  0
 51 56  1  0
 52 60  1  0
 52 62  1  0
 53 59  1  0
 53 55  1  0
 54 60  1  0
 55 54  1  0
 56 55  2  0
 57 51  2  0
 58 57  1  0
 58 53  2  0
 59 52  1  0
 60 50  1  0
 62 64  2  0
 63 62  1  0
 65 63  1  0
 66 75  2  0
 66 71  1  0
 67 63  1  0
 67 71  1  0
 68 67  1  0
 69 70  1  0
 69 68  1  0
 70 66  1  0
 71 72  2  0
 72 73  1  0
 74 73  2  0
 75 74  1  0
 76 50  1  0
 76 77  1  0
 76 86  1  0
 77 80  1  0
 78 82  1  0
 78 77  1  0
 79 78  2  0
 82 81  1  0
 84 82  1  0
 84 85  1  0
 84 83  1  0
 86 89  1  1
 86 87  1  0
 88 86  1  0
M  ISO  4   8 100  19 100  48 101  49 101
M  END
>  <TORSDO>  (97) 
F 17

>  <SCORE>  (97) 
-16.286

>  <name>  (97) 
96

>  <ligand_id>  (97) 
96

>  <original_smiles>  (97) 
[H]c1c(C([H])([H])Oc2c([H])c([H])c3c(c2[H])C([H])([H])N(C(=O)C([H])(N([H])C(=O)C([H])(N([H])C([H])([H])[H])C([H])([H])[H])C(C([H])([H])[H])(C([H])([H])[H])C([H])([H])[H])C([H])(C(=O)N([H])C2([H])c4c([H])c([H])c([H])c([H])c4C([H])([H])C([H])([H])C2([H])[H])C3([H])[H])nc(C([H])([H])[H])nc1C1([H])C([H])([H])N(C(=O)N2C([H])([H])C([H])([H])C([H])([H])C([H])(n3nc(-c4c([H])c([H])c(Oc5c([H])c([H])c(F)c([H])c5F)c([H])c4[H])c(C(=O)N([H])[H])c3N([H])[H])C2([H])[H])C1([H])[H]

>  <smiles>  (97) 
[H]c1c(C([H])([H])Oc2c([H])c([H])c3c(c2[H])C([H])([H])N(C(=O)C([H])(N([H])C(=O)C([H])(N([H])C([H])([H])[H])C([H])([H])[H])C(C([H])([H])[H])(C([H])([H])[H])C([H])([H])[H])C([H])(C(=O)N([H])C2([H])c4c([H])c([H])c([H])c([H])c4C([H])([H])C([H])([H])C2([H])[H])C3([H])[H])nc(C([H])([H])[H])nc1C1([H])C([H])([H])N(C(=O)N2C([H])([H])C([H])([H])C([H])([H])C([H])(n3nc(-c4c([H])c([H])c(Oc5c([H])c([H])c(F)c([H])c5F)c([H])c4[H])c(C(=O)N([H])[H])c3N([H])[H])C2([H])[H])C1([H])[H]

$$$$
97:0:0
     RDKit          3D

 94103  0  0  1  0  0  0  0  0999 V2000
  -28.6790  -21.3890   19.9330 C   0  0  0  0  0  3  0  0  0  0  0  0
  -28.9980  -22.0790   18.5770 C   0  0  0  0  0  3  0  0  0  0  0  0
  -28.9960  -23.0130   20.4690 C   0  0  0  0  0  3  0  0  0  0  0  0
  -29.6050  -23.2660   19.1830 O   0  0  0  0  0  0  0  0  0  0  0  0
  -30.6020  -15.1860   19.9810 C   0  0  0  0  0  0  0  0  0  0  0  0
  -30.4100  -12.8310   18.9900 C   0  0  0  0  0  2  0  0  0  0  0  0
  -29.4080  -12.7510   17.8140 C   0  0  0  0  0  2  0  0  0  0  0  0
  -27.9820  -12.5060   18.3390 C   0  0  0  0  0  2  0  0  0  0  0  0
  -27.6340  -13.4180   19.5440 C   0  0  0  0  0  3  0  0  0  0  0  0
  -28.7560  -13.4710   20.6010 C   0  0  0  0  0  2  0  0  0  0  0  0
  -29.9630  -13.9340   19.9050 N   0  0  0  0  0  0  0  0  0  0  0  0
  -31.8020  -15.1640   19.6790 O   0  0  0  0  0  0  0  0  0  0  0  0
  -29.9420  -17.4510   18.9230 C   0  0  0  0  0  2  0  0  0  0  0  0
  -30.1380  -17.5140   21.1940 C   0  0  0  0  0  2  0  0  0  0  0  0
  -29.1680  -18.8970   18.9490 C   0  0  0  0  0  2  0  0  0  0  0  0
  -29.4430  -19.0340   21.2320 C   0  0  0  0  0  2  0  0  0  0  0  0
  -29.9140  -16.4760   20.0850 N   0  0  0  0  0  0  0  0  0  0  0  0
  -29.5040  -19.9580   20.0100 N   0  0  2  0  0  4  0  0  0  0  0  0
  -30.4750  -20.1950   19.8800 H   0  0  0  0  0  0  0  0  0  0  0  0
  -25.3160  -13.9640   20.4630 C   0  0  0  0  0  0  0  0  0  0  0  0
  -24.2750  -13.1770   20.8690 C   0  0  0  0  0  0  0  0  0  0  0  0
  -24.7330  -11.8270   20.7640 C   0  0  0  0  0  0  0  0  0  0  0  0
  -26.3370  -13.0950   20.1240 N   0  0  0  0  0  0  0  0  0  0  0  0
  -26.0040  -11.8010   20.3750 N   0  0  0  0  0  0  0  0  0  0  0  0
  -24.0150  -10.5600   20.9560 C   0  0  0  0  0  0  0  0  0  0  0  0
  -24.4550   -9.5940   21.8860 C   0  0  0  0  0  3  0  0  0  0  0  0
  -23.7330   -8.3930   22.0660 C   0  0  0  0  0  3  0  0  0  0  0  0
  -22.5570   -8.1520   21.3170 C   0  0  0  0  0  0  0  0  0  0  0  0
  -22.1370   -9.1090   20.3750 C   0  0  0  0  0  3  0  0  0  0  0  0
  -22.8590  -10.2990   20.1930 C   0  0  0  0  0  3  0  0  0  0  0  0
  -21.8070   -7.0050   21.4060 O   0  0  0  0  0  0  0  0  0  0  0  0
  -21.7110   -6.2980   22.5780 C   0  0  0  0  0  0  0  0  0  0  0  0
  -21.1690   -6.8680   23.7500 C   0  0  0  0  0  3  0  0  0  0  0  0
  -21.0240   -6.0840   24.9130 C   0  0  0  0  0  3  0  0  0  0  0  0
  -21.4110   -4.7310   24.9030 C   0  0  0  0  0  0  0  0  0  0  0  0
  -21.9470   -4.1600   23.7350 C   0  0  0  0  0  3  0  0  0  0  0  0
  -22.0930   -4.9400   22.5740 C   0  0  0  0  0  0  0  0  0  0  0  0
  -22.5890   -4.3800   21.4450 F   0  0  0  0  0  0  0  0  0  0  0  0
  -21.2660   -3.9750   26.0160 F   0  0  0  0  0  0  0  0  0  0  0  0
  -22.8980  -13.6480   21.2370 C   0  0  0  0  0  0  0  0  0  0  0  0
  -22.2210  -12.9270   22.1230 N   0  0  0  0  0  0  0  0  0  0  0  0
  -22.4350  -14.6890   20.7740 O   0  0  0  0  0  0  0  0  0  0  0  0
  -22.6110  -12.0850   22.5190 H   0  0  0  0  0  0  0  0  0  0  0  0
  -21.2990  -13.2230   22.4120 H   0  0  0  0  0  0  0  0  0  0  0  0
  -25.4750  -15.3400   20.3240 N   0  0  0  0  0  0  0  0  0  0  0  0
  -24.7220  -15.9920   20.5160 H   0  0  0  0  0  0  0  0  0  0  0  0
  -26.3110  -15.7910   19.9780 H   0  0  0  0  0  0  0  0  0  0  0  0
  -27.8690  -22.4850   17.6210 C   0  0  0  0  0  2  0  0  0  0  0  0
  -28.3210  -23.5450   16.7040 N   0  0  0  0  0  4  0  0  0  0  0  0
  -28.6730  -24.3220   17.2350 H   0  0  0  0  0  0  0  0  0  0  0  0
  -27.5610  -23.8600   16.1280 H   0  0  0  0  0  0  0  0  0  0  0  0
  -29.0560  -23.2120   16.1060 H   0  0  0  0  0  0  0  0  0  0  0  0
  -28.0030  -24.4530   20.6210 C   0  0  0  0  0  2  0  0  0  0  0  0
  -28.3090  -26.0300   20.7270 O   0  0  0  0  0  0  0  0  0  0  0  0
  -24.6640  -31.9870   23.3960 C   0  0  0  0  0  0  0  0  0  0  0  0
  -27.2920  -27.0840   20.6080 C   0  0  0  0  0  0  0  0  0  0  0  0
  -23.5160  -30.5560   21.7550 C   0  0  0  0  0  3  0  0  0  0  0  0
  -25.0000  -28.9190   20.4310 C   0  0  0  0  0  0  0  0  0  0  0  0
  -26.0840  -30.7690   21.6890 C   0  0  0  0  0  2  0  0  0  0  0  0
  -26.1670  -29.3500   21.0760 C   0  0  0  0  0  0  0  0  0  0  0  0
  -27.3130  -28.4510   21.1400 C   0  0  0  0  0  3  0  0  0  0  0  0
  -26.0990  -26.7850   19.9110 C   0  0  0  0  0  3  0  0  0  0  0  0
  -24.9870  -27.6530   19.8310 C   0  0  0  0  0  3  0  0  0  0  0  0
  -23.7860  -29.8390   20.4060 C   0  0  0  0  0  2  0  0  0  0  0  0
  -24.7740  -31.1290   22.3340 N   0  0  0  0  0  0  0  0  0  0  0  0
  -23.5600  -32.2970   23.8710 O   0  0  0  0  0  0  0  0  0  0  0  0
  -22.7870  -29.5860   22.7200 C   0  0  0  0  0  0  0  0  0  0  0  0
  -21.4640  -29.4140   22.5430 N   0  0  0  0  0  0  0  0  0  0  0  0
  -23.4170  -28.9870   23.5960 O   0  0  0  0  0  0  0  0  0  0  0  0
  -21.0110  -29.9470   21.8130 H   0  0  0  0  0  0  0  0  0  0  0  0
  -18.0570  -28.2490   22.9590 C   0  0  0  0  0  0  0  0  0  0  0  0
  -20.6070  -28.5040   23.3090 C   0  0  0  0  0  3  0  0  0  0  0  0
  -20.7180  -27.0560   22.7770 C   0  0  0  0  0  2  0  0  0  0  0  0
  -19.6500  -26.7130   21.7330 C   0  0  0  0  0  2  0  0  0  0  0  0
  -18.2470  -26.8820   22.3230 C   0  0  0  0  0  2  0  0  0  0  0  0
  -19.1650  -29.0170   23.4070 C   0  0  0  0  0  0  0  0  0  0  0  0
  -18.9310  -30.2940   23.9620 C   0  0  0  0  0  3  0  0  0  0  0  0
  -17.6230  -30.8030   24.0730 C   0  0  0  0  0  3  0  0  0  0  0  0
  -16.5300  -30.0340   23.6390 C   0  0  0  0  0  3  0  0  0  0  0  0
  -16.7470  -28.7580   23.0890 C   0  0  0  0  0  3  0  0  0  0  0  0
  -25.9200  -32.6350   24.0540 C   0  0  0  0  0  3  0  0  0  0  0  0
  -26.3680  -31.9070   25.3810 C   0  0  1  0  0  0  0  0  0  0  0  0
  -25.2190  -31.6930   26.3950 C   0  0  0  0  0  1  0  0  0  0  0  0
  -26.9800  -30.5220   25.0710 C   0  0  0  0  0  1  0  0  0  0  0  0
  -27.4760  -32.7300   26.0810 C   0  0  0  0  0  1  0  0  0  0  0  0
  -25.6050  -34.0470   24.3300 N   0  0  0  0  0  0  0  0  0  0  0  0
  -25.9400  -35.0760   23.5390 C   0  0  0  0  0  0  0  0  0  0  0  0
  -26.6100  -34.9350   22.5130 O   0  0  0  0  0  0  0  0  0  0  0  0
  -25.0090  -34.2290   25.1250 H   0  0  0  0  0  0  0  0  0  0  0  0
  -24.2010  -36.8540   23.1470 C   0  0  0  0  0  1  0  0  0  0  0  0
  -25.4570  -36.4820   23.9510 C   0  0  0  0  0  3  0  0  0  0  0  0
  -27.5940  -37.4160   24.7210 C   0  0  0  0  0  1  0  0  0  0  0  0
  -26.4850  -37.5320   23.7780 N   0  0  0  0  0  0  0  0  0  0  0  0
  -26.0760  -38.4570   23.8810 H   0  0  0  0  0  0  0  0  0  0  0  0
  1 18  1  0
  1  3  1  0
  2  4  1  0
  2  1  1  0
  3 53  1  0
  4  3  1  0
  5 17  1  0
  6 11  1  0
  7  8  1  0
  7  6  1  0
  8  9  1  0
  9 23  1  0
  9 10  1  0
 11  5  1  0
 11 10  1  0
 12  5  2  0
 13 15  1  0
 13 17  1  0
 14 16  1  0
 15 18  1  0
 17 14  1  0
 18 16  1  0
 18 19  1  6
 20 21  2  0
 21 40  1  0
 22 21  1  0
 22 25  1  0
 23 24  1  0
 23 20  1  0
 24 22  2  0
 25 26  1  0
 26 27  2  0
 28 31  1  0
 28 27  1  0
 29 28  2  0
 30 29  1  0
 30 25  2  0
 31 32  1  0
 32 33  1  0
 33 34  2  0
 35 34  1  0
 35 39  1  0
 36 35  2  0
 37 32  2  0
 37 36  1  0
 38 37  1  0
 40 41  1  0
 41 44  1  0
 41 43  1  0
 42 40  2  0
 45 20  1  0
 45 46  1  0
 47 45  1  0
 48  2  1  0
 49 50  1  0
 49 48  1  0
 51 49  1  0
 52 49  1  0
 53 54  1  0
 55 66  2  0
 55 81  1  0
 56 54  1  0
 56 61  1  0
 57 65  1  0
 57 67  1  0
 58 60  1  0
 59 65  1  0
 60 61  2  0
 60 59  1  0
 62 56  2  0
 63 62  1  0
 63 58  2  0
 64 58  1  0
 64 57  1  0
 65 55  1  0
 67 69  2  0
 68 67  1  0
 68 72  1  0
 70 68  1  0
 71 80  2  0
 71 76  1  0
 72 76  1  0
 73 72  1  0
 74 75  1  0
 74 73  1  0
 75 71  1  0
 76 77  2  0
 77 78  1  0
 79 78  2  0
 80 79  1  0
 81 86  1  0
 81 82  1  0
 82 85  1  1
 82 83  1  0
 84 82  1  0
 86 89  1  0
 87 91  1  0
 87 86  1  0
 88 87  2  0
 90 91  1  0
 93 94  1  0
 93 91  1  0
 93 92  1  0
M  ISO  4   5 100  17 100  53 101  54 101
M  END
>  <TORSDO>  (98) 
F 19

>  <SCORE>  (98) 
-14.118

>  <name>  (98) 
97

>  <ligand_id>  (98) 
97

>  <original_smiles>  (98) 
[H]c1c([H])c([H])c2c(c1[H])C([H])([H])C([H])([H])C([H])([H])C2([H])N([H])C(=O)C1([H])N(C(=O)C([H])(N([H])C(=O)C([H])(N([H])C([H])([H])[H])C([H])([H])[H])C(C([H])([H])[H])(C([H])([H])[H])C([H])([H])[H])C([H])([H])c2c([H])c(OC([H])([H])C3([H])OC([H])(C([H])([H])[N+]([H])([H])[H])C3([H])[N+]3([H])C([H])([H])C([H])([H])N(C(=O)N4C([H])([H])C([H])([H])C([H])([H])C([H])(n5nc(-c6c([H])c([H])c(Oc7c([H])c([H])c(F)c([H])c7F)c([H])c6[H])c(C(=O)N([H])[H])c5N([H])[H])C4([H])[H])C([H])([H])C3([H])[H])c([H])c([H])c2C1([H])[H]

>  <smiles>  (98) 
[H]c1c([H])c([H])c2c(c1[H])C([H])([H])C([H])([H])C([H])([H])C2([H])N([H])C(=O)C1([H])N(C(=O)C([H])(N([H])C(=O)C([H])(N([H])C([H])([H])[H])C([H])([H])[H])C(C([H])([H])[H])(C([H])([H])[H])C([H])([H])[H])C([H])([H])c2c([H])c(OC([H])([H])C3([H])OC([H])(C([H])([H])[N+]([H])([H])[H])C3([H])[N+]3([H])C([H])([H])C([H])([H])N(C(=O)N4C([H])([H])C([H])([H])C([H])([H])C([H])(n5nc(-c6c([H])c([H])c(Oc7c([H])c([H])c(F)c([H])c7F)c([H])c6[H])c(C(=O)N([H])[H])c5N([H])[H])C4([H])[H])C([H])([H])C3([H])[H])c([H])c([H])c2C1([H])[H]

$$$$
98:0:0
     RDKit          3D

 97106  0  0  1  0  0  0  0  0999 V2000
  -29.8760  -20.7580   21.3840 C   0  0  0  0  0  3  0  0  0  0  0  0
  -27.8770  -21.2850   19.5800 C   0  0  0  0  0  3  0  0  0  0  0  0
  -29.6850  -22.0930   20.9690 C   0  0  0  0  0  0  0  0  0  0  0  0
  -28.6650  -22.3610   20.0280 C   0  0  0  0  0  0  0  0  0  0  0  0
  -29.0250  -19.7610   20.8810 C   0  0  0  0  0  0  0  0  0  0  0  0
  -28.0390  -20.0150   20.0060 N   0  0  0  0  0  0  0  0  0  0  0  0
  -29.1680  -18.4460   21.3070 N   0  0  0  0  0  0  0  0  0  0  0  0
  -28.3750  -23.9520   19.4120 Cl  0  0  0  0  0  0  0  0  0  0  0  0
  -28.2770  -18.0740   21.6070 H   0  0  0  0  0  0  0  0  0  0  0  0
  -30.7940  -14.5340   19.7710 C   0  0  0  0  0  0  0  0  0  0  0  0
  -30.5380  -12.1810   19.0750 C   0  0  0  0  0  2  0  0  0  0  0  0
  -29.5850  -12.0850   17.8680 C   0  0  0  0  0  2  0  0  0  0  0  0
  -28.1210  -11.9870   18.3370 C   0  0  0  0  0  2  0  0  0  0  0  0
  -27.7590  -13.0610   19.3980 C   0  0  0  0  0  3  0  0  0  0  0  0
  -28.8290  -13.1070   20.5150 C   0  0  0  0  0  2  0  0  0  0  0  0
  -30.1390  -13.3430   19.8830 N   0  0  0  0  0  0  0  0  0  0  0  0
  -31.8580  -14.6480   19.1560 O   0  0  0  0  0  0  0  0  0  0  0  0
  -30.9860  -16.8600   20.6510 C   0  0  0  0  0  2  0  0  0  0  0  0
  -29.0040  -16.2390   20.1440 C   0  0  0  0  0  2  0  0  0  0  0  0
  -29.7060  -17.5840   20.2610 C   0  0  0  0  0  3  0  0  0  0  0  0
  -30.2830  -15.5840   20.4440 N   0  0  0  0  0  0  0  0  0  0  0  0
  -25.4310  -13.7860   20.2220 C   0  0  0  0  0  0  0  0  0  0  0  0
  -24.3430  -13.0650   20.6290 C   0  0  0  0  0  0  0  0  0  0  0  0
  -24.7300  -11.6910   20.5560 C   0  0  0  0  0  0  0  0  0  0  0  0
  -26.4180  -12.8550   19.9340 N   0  0  0  0  0  0  0  0  0  0  0  0
  -25.9960  -11.5900   20.1820 N   0  0  0  0  0  0  0  0  0  0  0  0
  -23.9490  -10.4640   20.7600 C   0  0  0  0  0  0  0  0  0  0  0  0
  -24.3950   -9.4420   21.6270 C   0  0  0  0  0  3  0  0  0  0  0  0
  -23.6180   -8.2800   21.8200 C   0  0  0  0  0  3  0  0  0  0  0  0
  -22.3820   -8.1340   21.1480 C   0  0  0  0  0  0  0  0  0  0  0  0
  -21.9520   -9.1440   20.2710 C   0  0  0  0  0  3  0  0  0  0  0  0
  -22.7300  -10.2990   20.0740 C   0  0  0  0  0  3  0  0  0  0  0  0
  -21.5720   -7.0300   21.2560 O   0  0  0  0  0  0  0  0  0  0  0  0
  -21.5080   -6.2940   22.4140 C   0  0  0  0  0  0  0  0  0  0  0  0
  -21.1710   -6.8830   23.6510 C   0  0  0  0  0  3  0  0  0  0  0  0
  -21.0490   -6.0810   24.8040 C   0  0  0  0  0  3  0  0  0  0  0  0
  -21.2550   -4.6920   24.7190 C   0  0  0  0  0  0  0  0  0  0  0  0
  -21.5870   -4.1020   23.4870 C   0  0  0  0  0  3  0  0  0  0  0  0
  -21.7110   -4.9010   22.3390 C   0  0  0  0  0  0  0  0  0  0  0  0
  -22.0100   -4.3260   21.1470 F   0  0  0  0  0  0  0  0  0  0  0  0
  -21.1310   -3.9200   25.8230 F   0  0  0  0  0  0  0  0  0  0  0  0
  -22.9850  -13.6090   20.9740 C   0  0  0  0  0  0  0  0  0  0  0  0
  -22.2900  -12.9700   21.9080 N   0  0  0  0  0  0  0  0  0  0  0  0
  -22.5560  -14.6350   20.4480 O   0  0  0  0  0  0  0  0  0  0  0  0
  -22.6590  -12.1460   22.3570 H   0  0  0  0  0  0  0  0  0  0  0  0
  -21.3890  -13.3270   22.1960 H   0  0  0  0  0  0  0  0  0  0  0  0
  -25.6560  -15.1500   20.0570 N   0  0  0  0  0  0  0  0  0  0  0  0
  -24.9280  -15.8410   20.2050 H   0  0  0  0  0  0  0  0  0  0  0  0
  -26.5210  -15.5540   19.7210 H   0  0  0  0  0  0  0  0  0  0  0  0
  -30.5710  -23.1930   21.5260 C   0  0  0  0  0  2  0  0  0  0  0  0
  -30.8380  -24.2230   20.5030 N   0  0  0  0  0  4  0  0  0  0  0  0
  -29.9520  -24.4220   20.0570 H   0  0  0  0  0  0  0  0  0  0  0  0
  -31.4290  -23.7870   19.8120 H   0  0  0  0  0  0  0  0  0  0  0  0
  -30.8650  -25.9770   22.3050 C   0  0  0  0  0  1  0  0  0  0  0  0
  -31.4920  -25.4740   20.9800 C   0  0  0  0  0  3  0  0  0  0  0  0
  -31.5280  -26.5290   19.8360 C   0  0  0  0  0  2  0  0  0  0  0  0
  -31.0800  -27.8250   20.2430 O   0  0  0  0  0  0  0  0  0  0  0  0
  -25.7220  -30.6000   23.9770 C   0  0  0  0  0  0  0  0  0  0  0  0
  -29.7240  -28.0830   20.2600 C   0  0  0  0  0  0  0  0  0  0  0  0
  -25.0680  -29.3250   21.9630 C   0  0  0  0  0  3  0  0  0  0  0  0
  -26.9680  -28.6990   20.3850 C   0  0  0  0  0  0  0  0  0  0  0  0
  -27.3440  -30.4850   22.0930 C   0  0  0  0  0  2  0  0  0  0  0  0
  -27.8800  -29.4080   21.1740 C   0  0  0  0  0  0  0  0  0  0  0  0
  -29.2570  -29.1120   21.1060 C   0  0  0  0  0  3  0  0  0  0  0  0
  -28.7890  -27.3760   19.4670 C   0  0  0  0  0  3  0  0  0  0  0  0
  -27.4160  -27.6810   19.5290 C   0  0  0  0  0  3  0  0  0  0  0  0
  -25.5130  -29.0910   20.4960 C   0  0  0  0  0  2  0  0  0  0  0  0
  -26.0570  -30.1390   22.7400 N   0  0  0  0  0  0  0  0  0  0  0  0
  -24.6000  -30.3930   24.4570 O   0  0  0  0  0  0  0  0  0  0  0  0
  -24.7640  -27.9540   22.6090 C   0  0  0  0  0  0  0  0  0  0  0  0
  -23.6680  -27.3180   22.1660 N   0  0  0  0  0  0  0  0  0  0  0  0
  -25.5160  -27.4750   23.4630 O   0  0  0  0  0  0  0  0  0  0  0  0
  -23.1030  -27.7800   21.4650 H   0  0  0  0  0  0  0  0  0  0  0  0
  -21.1910  -24.7600   21.5560 C   0  0  0  0  0  0  0  0  0  0  0  0
  -23.1990  -26.0040   22.6050 C   0  0  0  0  0  3  0  0  0  0  0  0
  -24.0740  -24.8750   22.0120 C   0  0  0  0  0  2  0  0  0  0  0  0
  -23.5290  -24.3150   20.6950 C   0  0  0  0  0  2  0  0  0  0  0  0
  -22.1190  -23.7540   20.8980 C   0  0  0  0  0  2  0  0  0  0  0  0
  -21.7000  -25.8270   22.3440 C   0  0  0  0  0  0  0  0  0  0  0  0
  -20.7960  -26.7550   22.9060 C   0  0  0  0  0  3  0  0  0  0  0  0
  -19.4100  -26.6320   22.6920 C   0  0  0  0  0  3  0  0  0  0  0  0
  -18.9110  -25.5650   21.9240 C   0  0  0  0  0  3  0  0  0  0  0  0
  -19.7990  -24.6300   21.3640 C   0  0  0  0  0  3  0  0  0  0  0  0
  -26.7230  -31.4340   24.8370 C   0  0  0  0  0  3  0  0  0  0  0  0
  -26.9200  -30.8560   26.2910 C   0  0  1  0  0  0  0  0  0  0  0  0
  -25.5930  -30.6270   27.0510 C   0  0  0  0  0  1  0  0  0  0  0  0
  -27.6770  -29.5090   26.2420 C   0  0  0  0  0  1  0  0  0  0  0  0
  -27.7910  -31.8240   27.1270 C   0  0  0  0  0  1  0  0  0  0  0  0
  -26.2200  -32.8120   24.8860 N   0  0  0  0  0  0  0  0  0  0  0  0
  -26.6970  -33.8220   24.1480 C   0  0  0  0  0  0  0  0  0  0  0  0
  -27.6680  -33.7020   23.3950 O   0  0  0  0  0  0  0  0  0  0  0  0
  -25.3880  -32.9700   25.4360 H   0  0  0  0  0  0  0  0  0  0  0  0
  -25.0570  -35.3770   23.0490 C   0  0  0  0  0  1  0  0  0  0  0  0
  -25.9830  -35.1810   24.2600 C   0  0  0  0  0  3  0  0  0  0  0  0
  -27.6840  -36.3290   25.6090 C   0  0  0  0  0  1  0  0  0  0  0  0
  -26.9140  -36.3260   24.3680 N   0  0  0  0  0  0  0  0  0  0  0  0
  -26.4100  -37.2070   24.3070 H   0  0  0  0  0  0  0  0  0  0  0  0
  2  6  2  0
  2  4  1  0
  3  1  1  0
  3 50  1  0
  4  3  2  0
  5  7  1  0
  5  1  2  0
  6  5  1  0
  7  9  1  0
  8  4  1  0
 10 16  1  0
 10 21  1  0
 11 16  1  0
 12 13  1  0
 12 11  1  0
 14 13  1  0
 14 25  1  0
 14 15  1  0
 16 15  1  0
 17 10  2  0
 19 20  1  0
 19 21  1  0
 20 18  1  0
 20  7  1  0
 21 18  1  0
 22 23  2  0
 23 42  1  0
 24 23  1  0
 24 27  1  0
 25 26  1  0
 25 22  1  0
 26 24  2  0
 27 28  1  0
 28 29  2  0
 30 33  1  0
 30 29  1  0
 31 30  2  0
 32 31  1  0
 32 27  2  0
 33 34  1  0
 34 35  1  0
 35 36  2  0
 37 36  1  0
 37 41  1  0
 38 37  2  0
 39 34  2  0
 39 38  1  0
 40 39  1  0
 42 43  1  0
 43 46  1  0
 43 45  1  0
 44 42  2  0
 47 48  1  0
 47 22  1  0
 49 47  1  0
 51 55  1  0
 51 50  1  0
 52 51  1  0
 53 51  1  0
 55 54  1  0
 56 57  1  0
 56 55  1  0
 57 59  1  0
 58 69  2  0
 59 64  1  0
 60 70  1  0
 60 68  1  0
 61 67  1  0
 61 63  1  0
 62 68  1  0
 63 62  1  0
 64 63  2  0
 65 66  1  0
 65 59  2  0
 66 61  2  0
 67 60  1  0
 68 58  1  0
 70 72  2  0
 71 70  1  0
 73 71  1  0
 74 79  1  0
 75 71  1  0
 76 75  1  0
 77 78  1  0
 77 76  1  0
 78 74  1  0
 79 75  1  0
 79 80  2  0
 81 80  1  0
 82 81  2  0
 83 74  2  0
 83 82  1  0
 84 58  1  0
 84 89  1  0
 84 85  1  0
 85 86  1  1
 85 88  1  0
 87 85  1  0
 89 92  1  0
 90 94  1  0
 90 89  1  0
 91 90  2  0
 94 93  1  0
 94 96  1  0
 96 95  1  0
 97 96  1  0
M  ISO  4  10 100  21 100  56 101  57 101
M  END
>  <TORSDO>  (99) 
F 20

>  <SCORE>  (99) 
-9.545

>  <name>  (99) 
98

>  <ligand_id>  (99) 
98

>  <original_smiles>  (99) 
[H]c1nc(N([H])C2([H])C([H])([H])N(C(=O)N3C([H])([H])C([H])([H])C([H])([H])C([H])(n4nc(-c5c([H])c([H])c(Oc6c([H])c([H])c(F)c([H])c6F)c([H])c5[H])c(C(=O)N([H])[H])c4N([H])[H])C3([H])[H])C2([H])[H])c([H])c(C([H])([H])[N+]([H])([H])C([H])(C([H])([H])[H])C([H])([H])Oc2c([H])c([H])c3c(c2[H])C([H])([H])N(C(=O)C([H])(N([H])C(=O)C([H])(N([H])C([H])([H])[H])C([H])([H])[H])C(C([H])([H])[H])(C([H])([H])[H])C([H])([H])[H])C([H])(C(=O)N([H])C2([H])c4c([H])c([H])c([H])c([H])c4C([H])([H])C([H])([H])C2([H])[H])C3([H])[H])c1Cl

>  <smiles>  (99) 
[H]c1nc(N([H])C2([H])C([H])([H])N(C(=O)N3C([H])([H])C([H])([H])C([H])([H])C([H])(n4nc(-c5c([H])c([H])c(Oc6c([H])c([H])c(F)c([H])c6F)c([H])c5[H])c(C(=O)N([H])[H])c4N([H])[H])C3([H])[H])C2([H])[H])c([H])c(C([H])([H])[N+]([H])([H])C([H])(C([H])([H])[H])C([H])([H])Oc2c([H])c([H])c3c(c2[H])C([H])([H])N(C(=O)C([H])(N([H])C(=O)C([H])(N([H])C([H])([H])[H])C([H])([H])[H])C(C([H])([H])[H])(C([H])([H])[H])C([H])([H])[H])C([H])(C(=O)N([H])C2([H])c4c([H])c([H])c([H])c([H])c4C([H])([H])C([H])([H])C2([H])[H])C3([H])[H])c1Cl

$$$$
