0:0:0
     RDKit          3D

 87 96  0  0  1  0  0  0  0  0999 V2000
  -30.4560  -15.4290   20.2350 C   0  0  0  0  0  0  0  0  0  0  0  0
  -30.4390  -12.9110   19.4880 C   0  0  0  0  0  2  0  0  0  0  0  0
  -29.5670  -12.5980   18.2440 C   0  0  0  0  0  2  0  0  0  0  0  0
  -28.1140  -12.3230   18.6600 C   0  0  0  0  0  2  0  0  0  0  0  0
  -27.6190  -13.3430   19.7120 C   0  0  0  0  0  3  0  0  0  0  0  0
  -28.6310  -13.5940   20.8540 C   0  0  0  0  0  2  0  0  0  0  0  0
  -29.8650  -14.1120   20.2270 N   0  0  0  0  0  0  0  0  0  0  0  0
  -31.6700  -15.3300   19.9900 O   0  0  0  0  0  0  0  0  0  0  0  0
  -29.3120  -19.4160   20.1970 C   0  0  0  0  0  0  0  0  0  0  0  0
  -30.1730  -18.1260   19.7660 C   0  0  0  0  0  0  0  0  0  0  0  0
  -29.3990  -20.8820   19.8670 C   0  0  0  0  0  3  0  0  0  0  0  0
  -27.3530  -17.7310   20.5580 C   0  0  0  0  0  2  0  0  0  0  0  0
  -28.3780  -18.6850   21.1040 C   0  0  0  0  0  3  0  0  0  0  0  0
  -28.6410  -17.1310   21.1120 C   0  0  0  0  0  3  0  0  0  0  0  0
  -29.7760  -16.7940   20.2660 N   0  0  0  0  0  0  0  0  0  0  0  0
  -31.1530  -18.2400   19.0250 O   0  0  0  0  0  0  0  0  0  0  0  0
  -25.2350  -13.9180   20.3870 C   0  0  0  0  0  0  0  0  0  0  0  0
  -24.1620  -13.1600   20.7530 C   0  0  0  0  0  0  0  0  0  0  0  0
  -24.6240  -11.8090   20.7740 C   0  0  0  0  0  0  0  0  0  0  0  0
  -26.2820  -13.0370   20.2010 N   0  0  0  0  0  0  0  0  0  0  0  0
  -25.9240  -11.7600   20.5000 N   0  0  0  0  0  0  0  0  0  0  0  0
  -23.8810  -10.5580   20.9780 C   0  0  0  0  0  0  0  0  0  0  0  0
  -24.2950   -9.5990   21.9280 C   0  0  0  0  0  3  0  0  0  0  0  0
  -23.5490   -8.4160   22.1220 C   0  0  0  0  0  3  0  0  0  0  0  0
  -22.3760   -8.1840   21.3650 C   0  0  0  0  0  0  0  0  0  0  0  0
  -21.9820   -9.1330   20.4050 C   0  0  0  0  0  3  0  0  0  0  0  0
  -22.7270  -10.3070   20.2100 C   0  0  0  0  0  3  0  0  0  0  0  0
  -21.6040   -7.0530   21.4670 O   0  0  0  0  0  0  0  0  0  0  0  0
  -21.5580   -6.3140   22.6220 C   0  0  0  0  0  0  0  0  0  0  0  0
  -21.1810   -6.8870   23.8570 C   0  0  0  0  0  3  0  0  0  0  0  0
  -21.0800   -6.0770   25.0060 C   0  0  0  0  0  3  0  0  0  0  0  0
  -21.3440   -4.6970   24.9210 C   0  0  0  0  0  0  0  0  0  0  0  0
  -21.7150   -4.1250   23.6920 C   0  0  0  0  0  3  0  0  0  0  0  0
  -21.8180   -4.9310   22.5450 C   0  0  0  0  0  0  0  0  0  0  0  0
  -22.1540   -4.3720   21.3580 F   0  0  0  0  0  0  0  0  0  0  0  0
  -21.2400   -3.9180   26.0230 F   0  0  0  0  0  0  0  0  0  0  0  0
  -22.7620  -13.6570   20.9680 C   0  0  0  0  0  0  0  0  0  0  0  0
  -22.0080  -13.0020   21.8430 N   0  0  0  0  0  0  0  0  0  0  0  0
  -22.3480  -14.6640   20.3960 O   0  0  0  0  0  0  0  0  0  0  0  0
  -22.3580  -12.1890   22.3280 H   0  0  0  0  0  0  0  0  0  0  0  0
  -21.0690  -13.3190   22.0330 H   0  0  0  0  0  0  0  0  0  0  0  0
  -25.4000  -15.2790   20.1650 N   0  0  0  0  0  0  0  0  0  0  0  0
  -24.6270  -15.9310   20.2350 H   0  0  0  0  0  0  0  0  0  0  0  0
  -26.2610  -15.7090   19.8560 H   0  0  0  0  0  0  0  0  0  0  0  0
  -28.7540  -22.4860   20.3360 C   0  0  0  0  0  2  0  0  0  0  0  0
  -28.3800  -24.1140   19.5300 C   0  0  0  0  0  2  0  0  0  0  0  0
  -28.3360  -25.7590   19.9270 O   0  0  0  0  0  0  0  0  0  0  0  0
  -24.5880  -31.6590   22.9240 C   0  0  0  0  0  0  0  0  0  0  0  0
  -27.2950  -26.8530   19.8270 C   0  0  0  0  0  0  0  0  0  0  0  0
  -23.4380  -30.2480   21.2660 C   0  0  0  0  0  3  0  0  0  0  0  0
  -24.9370  -28.7030   19.8120 C   0  0  0  0  0  0  0  0  0  0  0  0
  -25.9990  -30.5250   21.1250 C   0  0  0  0  0  2  0  0  0  0  0  0
  -26.1130  -29.1230   20.4450 C   0  0  0  0  0  0  0  0  0  0  0  0
  -27.2770  -28.2190   20.4300 C   0  0  0  0  0  3  0  0  0  0  0  0
  -26.0850  -26.6070   19.1370 C   0  0  0  0  0  3  0  0  0  0  0  0
  -24.9520  -27.4690   19.1370 C   0  0  0  0  0  3  0  0  0  0  0  0
  -23.6890  -29.5890   19.8790 C   0  0  0  0  0  2  0  0  0  0  0  0
  -24.6970  -30.8400   21.8250 N   0  0  0  0  0  0  0  0  0  0  0  0
  -23.4910  -31.9080   23.4490 O   0  0  0  0  0  0  0  0  0  0  0  0
  -22.7740  -29.2220   22.2220 C   0  0  0  0  0  0  0  0  0  0  0  0
  -21.4420  -29.0480   22.1250 N   0  0  0  0  0  0  0  0  0  0  0  0
  -23.4640  -28.5820   23.0180 O   0  0  0  0  0  0  0  0  0  0  0  0
  -20.9350  -29.6160   21.4600 H   0  0  0  0  0  0  0  0  0  0  0  0
  -18.0840  -27.7950   22.7000 C   0  0  0  0  0  0  0  0  0  0  0  0
  -20.6500  -28.0780   22.8890 C   0  0  0  0  0  3  0  0  0  0  0  0
  -20.7430  -26.6670   22.2610 C   0  0  0  0  0  2  0  0  0  0  0  0
  -19.6120  -26.3710   21.2720 C   0  0  0  0  0  2  0  0  0  0  0  0
  -18.2510  -26.4750   21.9650 C   0  0  0  0  0  2  0  0  0  0  0  0
  -19.2090  -28.5550   23.1190 C   0  0  0  0  0  0  0  0  0  0  0  0
  -18.9950  -29.7880   23.7720 C   0  0  0  0  0  3  0  0  0  0  0  0
  -17.6900  -30.2620   24.0070 C   0  0  0  0  0  3  0  0  0  0  0  0
  -16.5820  -29.5010   23.6000 C   0  0  0  0  0  3  0  0  0  0  0  0
  -16.7790  -28.2680   22.9520 C   0  0  0  0  0  3  0  0  0  0  0  0
  -25.8370  -32.3360   23.5650 C   0  0  0  0  0  3  0  0  0  0  0  0
  -25.4510  -33.6930   23.9940 N   0  0  0  0  0  0  0  0  0  0  0  0
  -25.7180  -34.8190   23.3170 C   0  0  0  0  0  0  0  0  0  0  0  0
  -26.3750  -34.8270   22.2750 O   0  0  0  0  0  0  0  0  0  0  0  0
  -24.8600  -33.7540   24.8090 H   0  0  0  0  0  0  0  0  0  0  0  0
  -23.8950  -36.5490   23.1300 C   0  0  0  0  0  1  0  0  0  0  0  0
  -25.1720  -36.1460   23.8860 C   0  0  0  0  0  3  0  0  0  0  0  0
  -27.2760  -37.0810   24.7420 C   0  0  0  0  0  1  0  0  0  0  0  0
  -26.1480  -37.2570   23.8330 N   0  0  0  0  0  0  0  0  0  0  0  0
  -25.6990  -38.1420   24.0510 H   0  0  0  0  0  0  0  0  0  0  0  0
  -26.4160  -31.5290   24.7940 C   0  0  1  0  0  0  0  0  0  0  0  0
  -25.3580  -31.1880   25.8710 C   0  0  0  0  0  1  0  0  0  0  0  0
  -27.0560  -30.2000   24.3320 C   0  0  0  0  0  1  0  0  0  0  0  0
  -27.5420  -32.3440   25.4730 C   0  0  0  0  0  1  0  0  0  0  0  0
  1 15  1  0
  2  7  1  0
  3  4  1  0
  3  2  1  0
  5  4  1  0
  5 20  1  0
  5  6  1  0
  7  1  1  0
  7  6  1  0
  8  1  2  0
  9 13  1  0
 10  9  1  0
 10 15  1  0
 11  9  2  0
 11 45  1  0
 13 12  1  0
 13 14  1  0
 14 12  1  0
 15 14  1  0
 16 10  2  0
 17 18  2  0
 18 19  1  0
 18 37  1  0
 19 22  1  0
 20 17  1  0
 20 21  1  0
 21 19  2  0
 22 23  1  0
 23 24  2  0
 25 28  1  0
 25 24  1  0
 26 25  2  0
 27 26  1  0
 27 22  2  0
 28 29  1  0
 29 30  1  0
 30 31  2  0
 32 31  1  0
 32 36  1  0
 33 32  2  0
 34 29  2  0
 34 33  1  0
 35 34  1  0
 37 38  1  0
 38 41  1  0
 38 40  1  0
 39 37  2  0
 42 43  1  0
 42 17  1  0
 44 42  1  0
 46 47  1  0
 46 45  1  0
 48 59  2  0
 49 47  1  0
 49 54  1  0
 50 58  1  0
 50 60  1  0
 51 57  1  0
 51 53  1  0
 52 58  1  0
 53 52  1  0
 54 53  2  0
 55 49  2  0
 56 55  1  0
 56 51  2  0
 57 50  1  0
 58 48  1  0
 60 62  2  0
 61 60  1  0
 63 61  1  0
 64 73  2  0
 64 69  1  0
 65 61  1  0
 65 69  1  0
 66 65  1  0
 67 68  1  0
 67 66  1  0
 68 64  1  0
 69 70  2  0
 70 71  1  0
 72 71  2  0
 73 72  1  0
 74 48  1  0
 74 75  1  0
 74 84  1  0
 75 78  1  0
 76 80  1  0
 76 75  1  0
 77 76  2  0
 80 79  1  0
 82 80  1  0
 82 83  1  0
 82 81  1  0
 84 87  1  1
 84 85  1  0
 86 84  1  0
M  ISO  4   1 100  15 100  46 101  47 101
M  END
>  <TORSDO>  (1) 
F 17

>  <SCORE>  (1) 
-14.828

>  <name>  (1) 
0

>  <ligand_id>  (1) 
0

>  <original_smiles>  (1) 
[H]C(=C1C(=O)N(C(=O)N2C([H])([H])C([H])([H])C([H])([H])C([H])(n3nc(-c4c([H])c([H])c(Oc5c([H])c([H])c(F)c([H])c5F)c([H])c4[H])c(C(=O)N([H])[H])c3N([H])[H])C2([H])[H])C2([H])C([H])([H])C12[H])C([H])([H])C([H])([H])Oc1c([H])c([H])c2c(c1[H])C([H])([H])N(C(=O)C([H])(N([H])C(=O)C([H])(N([H])C([H])([H])[H])C([H])([H])[H])C(C([H])([H])[H])(C([H])([H])[H])C([H])([H])[H])C([H])(C(=O)N([H])C1([H])c3c([H])c([H])c([H])c([H])c3C([H])([H])C([H])([H])C1([H])[H])C2([H])[H]

>  <smiles>  (1) 
[H]C(=C1C(=O)N(C(=O)N2C([H])([H])C([H])([H])C([H])([H])C([H])(n3nc(-c4c([H])c([H])c(Oc5c([H])c([H])c(F)c([H])c5F)c([H])c4[H])c(C(=O)N([H])[H])c3N([H])[H])C2([H])[H])C2([H])C([H])([H])C12[H])C([H])([H])C([H])([H])Oc1c([H])c([H])c2c(c1[H])C([H])([H])N(C(=O)C([H])(N([H])C(=O)C([H])(N([H])C([H])([H])[H])C([H])([H])[H])C(C([H])([H])[H])(C([H])([H])[H])C([H])([H])[H])C([H])(C(=O)N([H])C1([H])c3c([H])c([H])c([H])c([H])c3C([H])([H])C([H])([H])C1([H])[H])C2([H])[H]

$$$$
1:0:0
     RDKit          3D

 99109  0  0  1  0  0  0  0  0999 V2000
  -29.5430  -22.3270   19.5690 C   0  0  0  0  0  3  0  0  0  0  0  0
  -30.2500  -22.9530   18.4970 C   0  0  0  0  0  3  0  0  0  0  0  0
  -29.6300  -20.8250   19.5160 C   0  0  0  0  0  0  0  0  0  0  0  0
  -30.5140  -20.9900   17.3840 C   0  0  0  0  0  0  0  0  0  0  0  0
  -30.6710  -22.2940   17.4040 N   0  0  0  0  0  0  0  0  0  0  0  0
  -30.0730  -20.2590   18.3830 N   0  0  0  0  0  0  0  0  0  0  0  0
  -29.3880  -19.7140   20.4390 N   0  0  0  0  0  0  0  0  0  0  0  0
  -29.1050  -19.9820   21.3760 H   0  0  0  0  0  0  0  0  0  0  0  0
  -30.5430  -14.9100   20.3230 C   0  0  0  0  0  0  0  0  0  0  0  0
  -30.3810  -12.5910   19.3330 C   0  0  0  0  0  2  0  0  0  0  0  0
  -29.4380  -12.6040   18.1090 C   0  0  0  0  0  2  0  0  0  0  0  0
  -27.9730  -12.4100   18.5470 C   0  0  0  0  0  2  0  0  0  0  0  0
  -27.5900  -13.3070   19.7550 C   0  0  0  0  0  3  0  0  0  0  0  0
  -28.6560  -13.2710   20.8700 C   0  0  0  0  0  2  0  0  0  0  0  0
  -29.9300  -13.6650   20.2590 N   0  0  0  0  0  0  0  0  0  0  0  0
  -31.7390  -14.9820   20.0200 O   0  0  0  0  0  0  0  0  0  0  0  0
  -30.1260  -17.2660   21.4480 C   0  0  0  0  0  2  0  0  0  0  0  0
  -29.2570  -17.0980   19.5820 C   0  0  0  0  0  2  0  0  0  0  0  0
  -30.0220  -18.2880   20.2630 C   0  0  0  0  0  3  0  0  0  0  0  0
  -29.7860  -16.0820   20.5710 N   0  0  0  0  0  0  0  0  0  0  0  0
  -25.2100  -13.8800   20.4980 C   0  0  0  0  0  0  0  0  0  0  0  0
  -24.1470  -13.1020   20.8690 C   0  0  0  0  0  0  0  0  0  0  0  0
  -24.6170  -11.7530   20.8370 C   0  0  0  0  0  0  0  0  0  0  0  0
  -26.2550  -13.0050   20.2560 N   0  0  0  0  0  0  0  0  0  0  0  0
  -25.9070  -11.7200   20.5250 N   0  0  0  0  0  0  0  0  0  0  0  0
  -23.8940  -10.4870   21.0290 C   0  0  0  0  0  0  0  0  0  0  0  0
  -24.3240   -9.5230   21.9660 C   0  0  0  0  0  3  0  0  0  0  0  0
  -23.6000   -8.3250   22.1460 C   0  0  0  0  0  3  0  0  0  0  0  0
  -22.4300   -8.0830   21.3870 C   0  0  0  0  0  0  0  0  0  0  0  0
  -22.0170   -9.0360   20.4380 C   0  0  0  0  0  3  0  0  0  0  0  0
  -22.7440  -10.2250   20.2580 C   0  0  0  0  0  3  0  0  0  0  0  0
  -21.6770   -6.9370   21.4760 O   0  0  0  0  0  0  0  0  0  0  0  0
  -21.6250   -6.1980   22.6300 C   0  0  0  0  0  0  0  0  0  0  0  0
  -21.1780   -6.7510   23.8510 C   0  0  0  0  0  3  0  0  0  0  0  0
  -21.0760   -5.9380   24.9970 C   0  0  0  0  0  3  0  0  0  0  0  0
  -21.4070   -4.5710   24.9230 C   0  0  0  0  0  0  0  0  0  0  0  0
  -21.8450   -4.0170   23.7090 C   0  0  0  0  0  3  0  0  0  0  0  0
  -21.9500   -4.8280   22.5650 C   0  0  0  0  0  0  0  0  0  0  0  0
  -22.3530   -4.2850   21.3910 F   0  0  0  0  0  0  0  0  0  0  0  0
  -21.3010   -3.7880   26.0220 F   0  0  0  0  0  0  0  0  0  0  0  0
  -22.7500  -13.5740   21.1440 C   0  0  0  0  0  0  0  0  0  0  0  0
  -22.0240  -12.8710   22.0050 N   0  0  0  0  0  0  0  0  0  0  0  0
  -22.3110  -14.6010   20.6280 O   0  0  0  0  0  0  0  0  0  0  0  0
  -22.3950  -12.0400   22.4440 H   0  0  0  0  0  0  0  0  0  0  0  0
  -21.0870  -13.1680   22.2330 H   0  0  0  0  0  0  0  0  0  0  0  0
  -25.3710  -15.2510   20.3240 N   0  0  0  0  0  0  0  0  0  0  0  0
  -24.6100  -15.9090   20.4500 H   0  0  0  0  0  0  0  0  0  0  0  0
  -26.2360  -15.6920   20.0350 H   0  0  0  0  0  0  0  0  0  0  0  0
  -30.4190  -20.6390   14.7960 C   0  0  0  0  0  2  0  0  0  0  0  0
  -30.0260  -19.3310   15.4240 C   0  0  0  0  0  2  0  0  0  0  0  0
  -30.9680  -20.2650   16.1560 C   0  0  0  0  0  3  0  0  0  0  0  0
  -28.8860  -23.3820   20.6130 C   0  0  0  0  0  2  0  0  0  0  0  0
  -27.9760  -24.7200   20.1500 C   0  0  0  0  0  2  0  0  0  0  0  0
  -28.2640  -26.2280   20.3180 O   0  0  0  0  0  0  0  0  0  0  0  0
  -24.5870  -31.8820   23.2340 C   0  0  0  0  0  0  0  0  0  0  0  0
  -27.2020  -27.1940   20.2310 C   0  0  0  0  0  0  0  0  0  0  0  0
  -23.4000  -30.4770   21.5920 C   0  0  0  0  0  3  0  0  0  0  0  0
  -24.8620  -28.9090   20.1800 C   0  0  0  0  0  0  0  0  0  0  0  0
  -25.9530  -30.7580   21.4420 C   0  0  0  0  0  2  0  0  0  0  0  0
  -26.0360  -29.3670   20.7940 C   0  0  0  0  0  0  0  0  0  0  0  0
  -27.2070  -28.5250   20.8040 C   0  0  0  0  0  3  0  0  0  0  0  0
  -26.0040  -26.8340   19.5740 C   0  0  0  0  0  3  0  0  0  0  0  0
  -24.8580  -27.6550   19.5550 C   0  0  0  0  0  3  0  0  0  0  0  0
  -23.6300  -29.7980   20.2170 C   0  0  0  0  0  2  0  0  0  0  0  0
  -24.6660  -31.0600   22.1440 N   0  0  0  0  0  0  0  0  0  0  0  0
  -23.4980  -32.1640   23.7550 O   0  0  0  0  0  0  0  0  0  0  0  0
  -22.7210  -29.4700   22.5520 C   0  0  0  0  0  0  0  0  0  0  0  0
  -21.3950  -29.2900   22.4120 N   0  0  0  0  0  0  0  0  0  0  0  0
  -23.3880  -28.8520   23.3850 O   0  0  0  0  0  0  0  0  0  0  0  0
  -20.9140  -29.8420   21.7150 H   0  0  0  0  0  0  0  0  0  0  0  0
  -18.0140  -28.0770   22.8810 C   0  0  0  0  0  0  0  0  0  0  0  0
  -20.5680  -28.3550   23.1790 C   0  0  0  0  0  3  0  0  0  0  0  0
  -20.6840  -26.9180   22.6180 C   0  0  0  0  0  2  0  0  0  0  0  0
  -19.5970  -26.5820   21.5920 C   0  0  0  0  0  2  0  0  0  0  0  0
  -18.2060  -26.7240   22.2170 C   0  0  0  0  0  2  0  0  0  0  0  0
  -19.1240  -28.8490   23.3180 C   0  0  0  0  0  0  0  0  0  0  0  0
  -18.8890  -30.1140   23.9000 C   0  0  0  0  0  3  0  0  0  0  0  0
  -17.5790  -30.6080   24.0470 C   0  0  0  0  0  3  0  0  0  0  0  0
  -16.4840  -29.8330   23.6260 C   0  0  0  0  0  3  0  0  0  0  0  0
  -16.7030  -28.5690   23.0490 C   0  0  0  0  0  3  0  0  0  0  0  0
  -25.8610  -32.5200   23.8670 C   0  0  0  0  0  3  0  0  0  0  0  0
  -25.5460  -33.9210   24.1890 N   0  0  0  0  0  0  0  0  0  0  0  0
  -25.8810  -34.9730   23.4290 C   0  0  0  0  0  0  0  0  0  0  0  0
  -26.5550  -34.8660   22.4010 O   0  0  0  0  0  0  0  0  0  0  0  0
  -24.9470  -34.0770   24.9860 H   0  0  0  0  0  0  0  0  0  0  0  0
  -24.1570  -36.7690   23.0620 C   0  0  0  0  0  1  0  0  0  0  0  0
  -25.3930  -36.3630   23.8820 C   0  0  0  0  0  3  0  0  0  0  0  0
  -27.5210  -37.2510   24.7270 C   0  0  0  0  0  1  0  0  0  0  0  0
  -26.4280  -37.4160   23.7730 N   0  0  0  0  0  0  0  0  0  0  0  0
  -26.0200  -38.3360   23.9130 H   0  0  0  0  0  0  0  0  0  0  0  0
  -26.3600  -31.7590   25.1570 C   0  0  1  0  0  0  0  0  0  0  0  0
  -25.2550  -31.5310   26.2140 C   0  0  0  0  0  1  0  0  0  0  0  0
  -26.9470  -30.3770   24.7880 C   0  0  0  0  0  1  0  0  0  0  0  0
  -27.5050  -32.5580   25.8260 C   0  0  0  0  0  1  0  0  0  0  0  0
  -30.7060  -24.4130   18.4590 C   0  0  0  0  0  2  0  0  0  0  0  0
  -31.3100  -26.0800   16.7100 C   0  0  0  0  0  1  0  0  0  0  0  0
  -30.4720  -24.9330   17.1040 N   0  0  0  0  0  4  0  0  0  0  0  0
  -30.6850  -24.1180   16.5400 H   0  0  0  0  0  0  0  0  0  0  0  0
  -29.4960  -25.1360   16.9850 H   0  0  0  0  0  0  0  0  0  0  0  0
  1 52  1  0
  2 95  1  0
  2  1  1  0
  3  1  1  0
  3  7  1  0
  4  5  2  0
  4  6  1  0
  5  2  1  0
  6  3  2  0
  7  8  1  0
  9 20  1  0
 10 15  1  0
 11 12  1  0
 11 10  1  0
 13 12  1  0
 13 24  1  0
 13 14  1  0
 15  9  1  0
 15 14  1  0
 16  9  2  0
 18 19  1  0
 18 20  1  0
 19  7  1  0
 19 17  1  0
 20 17  1  0
 21 22  2  0
 22 41  1  0
 23 22  1  0
 23 26  1  0
 24 21  1  0
 24 25  1  0
 25 23  2  0
 26 27  1  0
 27 28  2  0
 29 32  1  0
 29 28  1  0
 30 29  2  0
 31 30  1  0
 31 26  2  0
 32 33  1  0
 33 34  1  0
 34 35  2  0
 36 35  1  0
 36 40  1  0
 37 36  2  0
 38 33  2  0
 38 37  1  0
 39 38  1  0
 41 42  1  0
 42 45  1  0
 42 44  1  0
 43 41  2  0
 46 47  1  0
 46 21  1  0
 48 46  1  0
 49 50  1  0
 49 51  1  0
 50 51  1  0
 51  4  1  0
 53 54  1  0
 53 52  1  0
 55 66  2  0
 56 54  1  0
 56 61  1  0
 57 65  1  0
 57 67  1  0
 58 64  1  0
 58 60  1  0
 59 65  1  0
 60 61  2  0
 60 59  1  0
 62 56  2  0
 63 62  1  0
 63 58  2  0
 64 57  1  0
 65 55  1  0
 67 69  2  0
 68 67  1  0
 70 68  1  0
 71 80  2  0
 71 76  1  0
 72 68  1  0
 72 76  1  0
 73 72  1  0
 74 75  1  0
 74 73  1  0
 75 71  1  0
 76 77  2  0
 77 78  1  0
 79 78  2  0
 80 79  1  0
 81 55  1  0
 81 82  1  0
 81 91  1  0
 82 85  1  0
 83 87  1  0
 83 82  1  0
 84 83  2  0
 87 86  1  0
 89 87  1  0
 89 90  1  0
 89 88  1  0
 91 94  1  1
 91 92  1  0
 93 91  1  0
 96 97  1  0
 97 95  1  0
 98 97  1  0
 99 97  1  0
M  ISO  4   9 100  20 100  53 101  54 101
M  END
>  <TORSDO>  (2) 
F 21

>  <SCORE>  (2) 
-13.742

>  <name>  (2) 
1

>  <ligand_id>  (2) 
1

>  <original_smiles>  (2) 
[H]c1c([H])c([H])c2c(c1[H])C([H])([H])C([H])([H])C([H])([H])C2([H])N([H])C(=O)C1([H])N(C(=O)C([H])(N([H])C(=O)C([H])(N([H])C([H])([H])[H])C([H])([H])[H])C(C([H])([H])[H])(C([H])([H])[H])C([H])([H])[H])C([H])([H])c2c([H])c(OC([H])([H])C([H])([H])c3c(N([H])C4([H])C([H])([H])N(C(=O)N5C([H])([H])C([H])([H])C([H])([H])C([H])(n6nc(-c7c([H])c([H])c(Oc8c([H])c([H])c(F)c([H])c8F)c([H])c7[H])c(C(=O)N([H])[H])c6N([H])[H])C5([H])[H])C4([H])[H])nc(C4([H])C([H])([H])C4([H])[H])nc3C([H])([H])[N+]([H])([H])C([H])([H])[H])c([H])c([H])c2C1([H])[H]

>  <smiles>  (2) 
[H]c1c([H])c([H])c2c(c1[H])C([H])([H])C([H])([H])C([H])([H])C2([H])N([H])C(=O)C1([H])N(C(=O)C([H])(N([H])C(=O)C([H])(N([H])C([H])([H])[H])C([H])([H])[H])C(C([H])([H])[H])(C([H])([H])[H])C([H])([H])[H])C([H])([H])c2c([H])c(OC([H])([H])C([H])([H])c3c(N([H])C4([H])C([H])([H])N(C(=O)N5C([H])([H])C([H])([H])C([H])([H])C([H])(n6nc(-c7c([H])c([H])c(Oc8c([H])c([H])c(F)c([H])c8F)c([H])c7[H])c(C(=O)N([H])[H])c6N([H])[H])C5([H])[H])C4([H])[H])nc(C4([H])C([H])([H])C4([H])[H])nc3C([H])([H])[N+]([H])([H])C([H])([H])[H])c([H])c([H])c2C1([H])[H]

$$$$
2:0:0
     RDKit          3D

 96105  0  0  1  0  0  0  0  0999 V2000
  -29.0650  -22.5640   22.7880 C   0  0  0  0  0  2  0  0  0  0  0  0
  -30.6330  -22.0780   20.9130 C   0  0  0  0  0  2  0  0  0  0  0  0
  -29.5050  -24.0470   22.7470 C   0  0  0  0  0  2  0  0  0  0  0  0
  -31.0480  -23.5620   20.9100 C   0  0  0  0  0  2  0  0  0  0  0  0
  -30.1810  -21.6060   22.3120 C   0  0  0  0  0  3  0  0  0  0  0  0
  -29.9630  -24.4610   21.3900 N   0  0  2  0  0  4  0  0  0  0  0  0
  -29.1850  -24.3480   20.7550 H   0  0  0  0  0  0  0  0  0  0  0  0
  -29.7170  -20.1250   22.3140 C   0  0  0  0  0  2  0  0  0  0  0  0
  -30.8180  -19.1790   22.0010 N   0  0  0  0  0  4  0  0  0  0  0  0
  -31.5120  -19.2050   22.7320 H   0  0  0  0  0  0  0  0  0  0  0  0
  -31.2640  -19.4840   21.1520 H   0  0  0  0  0  0  0  0  0  0  0  0
  -30.3960  -17.7760   21.7760 C   0  0  0  0  0  2  0  0  0  0  0  0
  -31.3810  -14.6460   20.1660 C   0  0  0  0  0  0  0  0  0  0  0  0
  -30.9930  -12.4170   19.2190 C   0  0  0  0  0  2  0  0  0  0  0  0
  -30.0730  -12.5530   17.9900 C   0  0  0  0  0  2  0  0  0  0  0  0
  -28.5950  -12.4750   18.4220 C   0  0  0  0  0  2  0  0  0  0  0  0
  -28.2590  -13.4040   19.6200 C   0  0  0  0  0  3  0  0  0  0  0  0
  -29.3190  -13.3150   20.7440 C   0  0  0  0  0  2  0  0  0  0  0  0
  -30.6450  -13.5050   20.1400 N   0  0  0  0  0  0  0  0  0  0  0  0
  -32.5780  -14.6700   19.8750 O   0  0  0  0  0  0  0  0  0  0  0  0
  -30.6960  -17.5540   18.5620 C   0  0  0  0  0  2  0  0  0  0  0  0
  -31.7830  -17.8260   19.5880 C   0  0  0  0  0  2  0  0  0  0  0  0
  -29.9860  -16.3000   19.0820 C   0  0  0  0  0  2  0  0  0  0  0  0
  -31.3640  -17.0170   20.8300 C   0  0  0  0  0  3  0  0  0  0  0  0
  -30.6970  -15.8160   20.2860 N   0  0  0  0  0  0  0  0  0  0  0  0
  -25.8990  -14.1040   20.3570 C   0  0  0  0  0  0  0  0  0  0  0  0
  -24.8080  -13.3700   20.7330 C   0  0  0  0  0  0  0  0  0  0  0  0
  -25.2250  -12.0040   20.7070 C   0  0  0  0  0  0  0  0  0  0  0  0
  -26.9100  -13.1850   20.1250 N   0  0  0  0  0  0  0  0  0  0  0  0
  -26.5110  -11.9180   20.3990 N   0  0  0  0  0  0  0  0  0  0  0  0
  -24.4610  -10.7670   20.8980 C   0  0  0  0  0  0  0  0  0  0  0  0
  -24.8240   -9.8190   21.8820 C   0  0  0  0  0  3  0  0  0  0  0  0
  -24.0620   -8.6440   22.0570 C   0  0  0  0  0  3  0  0  0  0  0  0
  -22.9240   -8.4110   21.2500 C   0  0  0  0  0  0  0  0  0  0  0  0
  -22.5830   -9.3450   20.2550 C   0  0  0  0  0  3  0  0  0  0  0  0
  -23.3450  -10.5110   20.0780 C   0  0  0  0  0  3  0  0  0  0  0  0
  -22.1360   -7.2890   21.3330 O   0  0  0  0  0  0  0  0  0  0  0  0
  -21.9420   -6.6350   22.5220 C   0  0  0  0  0  0  0  0  0  0  0  0
  -21.3870   -7.2840   23.6470 C   0  0  0  0  0  3  0  0  0  0  0  0
  -21.1390   -6.5570   24.8280 C   0  0  0  0  0  3  0  0  0  0  0  0
  -21.4380   -5.1820   24.8850 C   0  0  0  0  0  0  0  0  0  0  0  0
  -21.9830   -4.5330   23.7640 C   0  0  0  0  0  3  0  0  0  0  0  0
  -22.2330   -5.2570   22.5860 C   0  0  0  0  0  0  0  0  0  0  0  0
  -22.7390   -4.6220   21.5010 F   0  0  0  0  0  0  0  0  0  0  0  0
  -21.1940   -4.4800   26.0170 F   0  0  0  0  0  0  0  0  0  0  0  0
  -23.4270  -13.8940   21.0080 C   0  0  0  0  0  0  0  0  0  0  0  0
  -22.6850  -13.2290   21.8870 N   0  0  0  0  0  0  0  0  0  0  0  0
  -23.0180  -14.9270   20.4800 O   0  0  0  0  0  0  0  0  0  0  0  0
  -23.0250  -12.3910   22.3330 H   0  0  0  0  0  0  0  0  0  0  0  0
  -21.7610  -13.5670   22.1180 H   0  0  0  0  0  0  0  0  0  0  0  0
  -26.1110  -15.4670   20.1750 N   0  0  0  0  0  0  0  0  0  0  0  0
  -25.3680  -16.1510   20.2710 H   0  0  0  0  0  0  0  0  0  0  0  0
  -26.9810  -15.8690   19.8590 H   0  0  0  0  0  0  0  0  0  0  0  0
  -30.3860  -25.8910   21.2970 C   0  0  0  0  0  2  0  0  0  0  0  0
  -29.2490  -26.9370   21.3140 C   0  0  0  0  0  2  0  0  0  0  0  0
  -28.4530  -26.8930   20.1230 O   0  0  0  0  0  0  0  0  0  0  0  0
  -24.6030  -31.9850   23.3070 C   0  0  0  0  0  0  0  0  0  0  0  0
  -27.3050  -27.6600   20.1460 C   0  0  0  0  0  0  0  0  0  0  0  0
  -23.4000  -30.5820   21.6580 C   0  0  0  0  0  3  0  0  0  0  0  0
  -24.8690  -29.1000   20.1850 C   0  0  0  0  0  0  0  0  0  0  0  0
  -25.9070  -31.0100   21.4220 C   0  0  0  0  0  2  0  0  0  0  0  0
  -26.0160  -29.6470   20.7740 C   0  0  0  0  0  0  0  0  0  0  0  0
  -27.2330  -28.9340   20.7590 C   0  0  0  0  0  3  0  0  0  0  0  0
  -26.1480  -27.1320   19.5370 C   0  0  0  0  0  3  0  0  0  0  0  0
  -24.9290  -27.8410   19.5610 C   0  0  0  0  0  3  0  0  0  0  0  0
  -23.6060  -29.9310   20.2610 C   0  0  0  0  0  2  0  0  0  0  0  0
  -24.6560  -31.2050   22.1910 N   0  0  0  0  0  0  0  0  0  0  0  0
  -23.5260  -32.2220   23.8700 O   0  0  0  0  0  0  0  0  0  0  0  0
  -22.7880  -29.5320   22.6120 C   0  0  0  0  0  0  0  0  0  0  0  0
  -21.4710  -29.3030   22.4830 N   0  0  0  0  0  0  0  0  0  0  0  0
  -23.4940  -28.9270   23.4230 O   0  0  0  0  0  0  0  0  0  0  0  0
  -20.9630  -29.8410   21.7960 H   0  0  0  0  0  0  0  0  0  0  0  0
  -18.1440  -27.9750   22.9500 C   0  0  0  0  0  0  0  0  0  0  0  0
  -20.6860  -28.3340   23.2470 C   0  0  0  0  0  3  0  0  0  0  0  0
  -20.8510  -26.9070   22.6730 C   0  0  0  0  0  2  0  0  0  0  0  0
  -19.7730  -26.5440   21.6470 C   0  0  0  0  0  2  0  0  0  0  0  0
  -18.3800  -26.6330   22.2770 C   0  0  0  0  0  2  0  0  0  0  0  0
  -19.2280  -28.7800   23.3920 C   0  0  0  0  0  0  0  0  0  0  0  0
  -18.9530  -30.0320   23.9820 C   0  0  0  0  0  3  0  0  0  0  0  0
  -17.6290  -30.4840   24.1340 C   0  0  0  0  0  3  0  0  0  0  0  0
  -16.5600  -29.6770   23.7070 C   0  0  0  0  0  3  0  0  0  0  0  0
  -16.8180  -28.4240   23.1230 C   0  0  0  0  0  3  0  0  0  0  0  0
  -25.8880  -32.6290   23.9170 C   0  0  0  0  0  3  0  0  0  0  0  0
  -25.5720  -34.0290   24.2310 N   0  0  0  0  0  0  0  0  0  0  0  0
  -25.9130  -35.0740   23.4650 C   0  0  0  0  0  0  0  0  0  0  0  0
  -26.6000  -34.9630   22.4440 O   0  0  0  0  0  0  0  0  0  0  0  0
  -24.9600  -34.1890   25.0170 H   0  0  0  0  0  0  0  0  0  0  0  0
  -24.1860  -36.8560   23.0590 C   0  0  0  0  0  1  0  0  0  0  0  0
  -25.4120  -36.4640   23.9000 C   0  0  0  0  0  3  0  0  0  0  0  0
  -27.5350  -37.3510   24.7570 C   0  0  0  0  0  1  0  0  0  0  0  0
  -26.4410  -37.5230   23.8050 N   0  0  0  0  0  0  0  0  0  0  0  0
  -26.0260  -38.4370   23.9630 H   0  0  0  0  0  0  0  0  0  0  0  0
  -26.4150  -31.8730   25.1980 C   0  0  1  0  0  0  0  0  0  0  0  0
  -25.3260  -31.6290   26.2680 C   0  0  0  0  0  1  0  0  0  0  0  0
  -27.0140  -30.5020   24.8070 C   0  0  0  0  0  1  0  0  0  0  0  0
  -27.5570  -32.6850   25.8530 C   0  0  0  0  0  1  0  0  0  0  0  0
  2  5  1  0
  3  1  1  0
  4  2  1  0
  4  6  1  0
  5  8  1  0
  5  1  1  0
  6  3  1  0
  6  7  1  6
  9  8  1  0
  9 10  1  0
 11  9  1  0
 12  9  1  0
 13 25  1  0
 14 19  1  0
 15 16  1  0
 15 14  1  0
 17 16  1  0
 17 29  1  0
 17 18  1  0
 19 13  1  0
 19 18  1  0
 20 13  2  0
 21 23  1  0
 21 22  1  0
 22 24  1  0
 23 25  1  0
 24 12  1  0
 25 24  1  0
 26 27  2  0
 27 46  1  0
 28 27  1  0
 28 31  1  0
 29 26  1  0
 29 30  1  0
 30 28  2  0
 31 32  1  0
 32 33  2  0
 34 37  1  0
 34 33  1  0
 35 34  2  0
 36 35  1  0
 36 31  2  0
 37 38  1  0
 38 43  2  0
 38 39  1  0
 39 40  2  0
 40 41  1  0
 41 45  1  0
 42 41  2  0
 43 42  1  0
 44 43  1  0
 46 47  1  0
 47 50  1  0
 47 49  1  0
 48 46  2  0
 51 52  1  0
 51 26  1  0
 53 51  1  0
 54 55  1  0
 54  6  1  0
 56 58  1  0
 56 55  1  0
 57 68  2  0
 58 63  1  0
 59 67  1  0
 59 69  1  0
 60 66  1  0
 60 62  1  0
 61 67  1  0
 62 61  1  0
 63 62  2  0
 64 65  1  0
 64 58  2  0
 65 60  2  0
 66 59  1  0
 67 57  1  0
 69 71  2  0
 70 69  1  0
 72 70  1  0
 73 82  2  0
 73 78  1  0
 74 70  1  0
 74 78  1  0
 75 74  1  0
 76 77  1  0
 76 75  1  0
 77 73  1  0
 78 79  2  0
 79 80  1  0
 81 80  2  0
 82 81  1  0
 83 57  1  0
 83 84  1  0
 83 93  1  0
 84 87  1  0
 85 89  1  0
 85 84  1  0
 86 85  2  0
 89 88  1  0
 91 89  1  0
 91 92  1  0
 91 90  1  0
 93 96  1  1
 93 94  1  0
 95 93  1  0
M  ISO  4  13 100  25 100  55 101  56 101
M  END
>  <TORSDO>  (3) 
F 21

>  <SCORE>  (3) 
-12.513

>  <name>  (3) 
2

>  <ligand_id>  (3) 
2

>  <original_smiles>  (3) 
[H]c1c([H])c([H])c2c(c1[H])C([H])([H])C([H])([H])C([H])([H])C2([H])N([H])C(=O)C1([H])N(C(=O)C([H])(N([H])C(=O)C([H])(N([H])C([H])([H])[H])C([H])([H])[H])C(C([H])([H])[H])(C([H])([H])[H])C([H])([H])[H])C([H])([H])c2c([H])c(OC([H])([H])C([H])([H])[N+]3([H])C([H])([H])C([H])([H])C([H])(C([H])([H])[N+]([H])([H])C([H])([H])C4([H])N(C(=O)N5C([H])([H])C([H])([H])C([H])([H])C([H])(n6nc(-c7c([H])c([H])c(Oc8c([H])c([H])c(F)c([H])c8F)c([H])c7[H])c(C(=O)N([H])[H])c6N([H])[H])C5([H])[H])C([H])([H])C([H])([H])C4([H])[H])C([H])([H])C3([H])[H])c([H])c([H])c2C1([H])[H]

>  <smiles>  (3) 
[H]c1c([H])c([H])c2c(c1[H])C([H])([H])C([H])([H])C([H])([H])C2([H])N([H])C(=O)C1([H])N(C(=O)C([H])(N([H])C(=O)C([H])(N([H])C([H])([H])[H])C([H])([H])[H])C(C([H])([H])[H])(C([H])([H])[H])C([H])([H])[H])C([H])([H])c2c([H])c(OC([H])([H])C([H])([H])[N+]3([H])C([H])([H])C([H])([H])C([H])(C([H])([H])[N+]([H])([H])C([H])([H])C4([H])N(C(=O)N5C([H])([H])C([H])([H])C([H])([H])C([H])(n6nc(-c7c([H])c([H])c(Oc8c([H])c([H])c(F)c([H])c8F)c([H])c7[H])c(C(=O)N([H])[H])c6N([H])[H])C5([H])[H])C([H])([H])C([H])([H])C4([H])[H])C([H])([H])C3([H])[H])c([H])c([H])c2C1([H])[H]

$$$$
3:0:0
     RDKit          3D

 93102  0  0  1  0  0  0  0  0999 V2000
  -27.6580  -23.9160   21.9680 C   0  0  0  0  0  3  0  0  0  0  0  0
  -28.7360  -22.9520   20.2590 C   0  0  0  0  0  0  0  0  0  0  0  0
  -28.2130  -25.2410   20.2540 C   0  0  0  0  0  0  0  0  0  0  0  0
  -26.9830  -23.7710   23.3150 C   0  0  0  0  0  1  0  0  0  0  0  0
  -28.1890  -22.8050   21.4600 N   0  0  0  0  0  0  0  0  0  0  0  0
  -27.6300  -25.1360   21.4410 N   0  0  0  0  0  0  0  0  0  0  0  0
  -28.7970  -24.1730   19.6140 N   0  0  0  0  0  0  0  0  0  0  0  0
  -28.2970  -26.5580   19.7350 O   0  0  0  0  0  0  0  0  0  0  0  0
  -24.6970  -31.9660   23.1530 C   0  0  0  0  0  0  0  0  0  0  0  0
  -27.2070  -27.4720   19.8440 C   0  0  0  0  0  0  0  0  0  0  0  0
  -23.4490  -30.6380   21.4900 C   0  0  0  0  0  3  0  0  0  0  0  0
  -24.8590  -29.1430   19.9580 C   0  0  0  0  0  0  0  0  0  0  0  0
  -25.9880  -30.9480   21.2520 C   0  0  0  0  0  2  0  0  0  0  0  0
  -26.0490  -29.5890   20.5490 C   0  0  0  0  0  0  0  0  0  0  0  0
  -27.2270  -28.7660   20.4800 C   0  0  0  0  0  3  0  0  0  0  0  0
  -25.9950  -27.1100   19.2180 C   0  0  0  0  0  3  0  0  0  0  0  0
  -24.8380  -27.9140   19.2800 C   0  0  0  0  0  3  0  0  0  0  0  0
  -23.6280  -30.0220   20.0770 C   0  0  0  0  0  2  0  0  0  0  0  0
  -24.7330  -31.2020   22.0210 N   0  0  0  0  0  0  0  0  0  0  0  0
  -23.6290  -32.2180   23.7310 O   0  0  0  0  0  0  0  0  0  0  0  0
  -22.8120  -29.5800   22.4270 C   0  0  0  0  0  0  0  0  0  0  0  0
  -21.4850  -29.3920   22.3190 N   0  0  0  0  0  0  0  0  0  0  0  0
  -23.5120  -28.9360   23.2120 O   0  0  0  0  0  0  0  0  0  0  0  0
  -20.9780  -29.9650   21.6590 H   0  0  0  0  0  0  0  0  0  0  0  0
  -18.1320  -28.1340   22.8470 C   0  0  0  0  0  0  0  0  0  0  0  0
  -20.6930  -28.4160   23.0710 C   0  0  0  0  0  3  0  0  0  0  0  0
  -20.7990  -27.0100   22.4370 C   0  0  0  0  0  2  0  0  0  0  0  0
  -19.6780  -26.7130   21.4350 C   0  0  0  0  0  2  0  0  0  0  0  0
  -18.3090  -26.8150   22.1140 C   0  0  0  0  0  2  0  0  0  0  0  0
  -19.2510  -28.8930   23.2820 C   0  0  0  0  0  0  0  0  0  0  0  0
  -19.0300  -30.1270   23.9300 C   0  0  0  0  0  3  0  0  0  0  0  0
  -17.7240  -30.6050   24.1460 C   0  0  0  0  0  3  0  0  0  0  0  0
  -16.6200  -29.8420   23.7260 C   0  0  0  0  0  3  0  0  0  0  0  0
  -16.8240  -28.6090   23.0830 C   0  0  0  0  0  3  0  0  0  0  0  0
  -25.9950  -32.5780   23.7650 C   0  0  0  0  0  3  0  0  0  0  0  0
  -25.7040  -33.9730   24.1260 N   0  0  0  0  0  0  0  0  0  0  0  0
  -26.0330  -35.0380   23.3850 C   0  0  0  0  0  0  0  0  0  0  0  0
  -26.6840  -34.9490   22.3390 O   0  0  0  0  0  0  0  0  0  0  0  0
  -25.1280  -34.1160   24.9430 H   0  0  0  0  0  0  0  0  0  0  0  0
  -24.3250  -36.8620   23.0890 C   0  0  0  0  0  1  0  0  0  0  0  0
  -25.5690  -36.4230   23.8780 C   0  0  0  0  0  3  0  0  0  0  0  0
  -27.7190  -37.2680   24.7110 C   0  0  0  0  0  1  0  0  0  0  0  0
  -26.6140  -37.4660   23.7760 N   0  0  0  0  0  0  0  0  0  0  0  0
  -26.2200  -38.3880   23.9420 H   0  0  0  0  0  0  0  0  0  0  0  0
  -26.5220  -31.7800   25.0210 C   0  0  1  0  0  0  0  0  0  0  0  0
  -25.4440  -31.5350   26.1020 C   0  0  0  0  0  1  0  0  0  0  0  0
  -27.0840  -30.4030   24.5990 C   0  0  0  0  0  1  0  0  0  0  0  0
  -27.6910  -32.5520   25.6780 C   0  0  0  0  0  1  0  0  0  0  0  0
  -29.1950  -21.5540   19.5970 C   0  0  0  0  0  2  0  0  0  0  0  0
  -29.5940  -20.3570   20.4940 N   0  0  0  0  0  4  0  0  0  0  0  0
  -30.5400  -20.5360   20.7820 H   0  0  0  0  0  0  0  0  0  0  0  0
  -29.0280  -20.5030   21.3170 H   0  0  0  0  0  0  0  0  0  0  0  0
  -30.8460  -15.1590   20.2100 C   0  0  0  0  0  0  0  0  0  0  0  0
  -30.7070  -12.8240   19.2870 C   0  0  0  0  0  2  0  0  0  0  0  0
  -29.7860  -12.8020   18.0470 C   0  0  0  0  0  2  0  0  0  0  0  0
  -28.3140  -12.6160   18.4660 C   0  0  0  0  0  2  0  0  0  0  0  0
  -27.9020  -13.5470   19.6380 C   0  0  0  0  0  3  0  0  0  0  0  0
  -28.9470  -13.5530   20.7710 C   0  0  0  0  0  2  0  0  0  0  0  0
  -30.2290  -13.9220   20.1650 N   0  0  0  0  0  0  0  0  0  0  0  0
  -32.0660  -15.2160   20.0240 O   0  0  0  0  0  0  0  0  0  0  0  0
  -29.9980  -18.4440   18.6960 C   0  0  0  0  0  2  0  0  0  0  0  0
  -29.9270  -16.8800   18.6890 C   0  0  0  0  0  2  0  0  0  0  0  0
  -30.0600  -17.6200   20.8860 C   0  0  0  0  0  2  0  0  0  0  0  0
  -29.4400  -18.8620   20.0500 C   0  0  0  0  0  3  0  0  0  0  0  0
  -30.0650  -16.3280   20.0610 N   0  0  0  0  0  0  0  0  0  0  0  0
  -25.5100  -14.1290   20.3410 C   0  0  0  0  0  0  0  0  0  0  0  0
  -24.4450  -13.3540   20.7100 C   0  0  0  0  0  0  0  0  0  0  0  0
  -24.9180  -12.0060   20.7090 C   0  0  0  0  0  0  0  0  0  0  0  0
  -26.5610  -13.2520   20.1270 N   0  0  0  0  0  0  0  0  0  0  0  0
  -26.2130  -11.9720   20.4140 N   0  0  0  0  0  0  0  0  0  0  0  0
  -24.1960  -10.7420   20.9130 C   0  0  0  0  0  0  0  0  0  0  0  0
  -24.5980   -9.8140   21.8980 C   0  0  0  0  0  3  0  0  0  0  0  0
  -23.8770   -8.6150   22.0890 C   0  0  0  0  0  3  0  0  0  0  0  0
  -22.7410   -8.3370   21.2930 C   0  0  0  0  0  0  0  0  0  0  0  0
  -22.3590   -9.2530   20.2980 C   0  0  0  0  0  3  0  0  0  0  0  0
  -23.0800  -10.4430   20.1060 C   0  0  0  0  0  3  0  0  0  0  0  0
  -21.9950   -7.1870   21.3900 O   0  0  0  0  0  0  0  0  0  0  0  0
  -21.8770   -6.5030   22.5740 C   0  0  0  0  0  0  0  0  0  0  0  0
  -21.3270   -7.1030   23.7280 C   0  0  0  0  0  3  0  0  0  0  0  0
  -21.1590   -6.3430   24.9040 C   0  0  0  0  0  3  0  0  0  0  0  0
  -21.5300   -4.9850   24.9240 C   0  0  0  0  0  0  0  0  0  0  0  0
  -22.0710   -4.3860   23.7730 C   0  0  0  0  0  3  0  0  0  0  0  0
  -22.2410   -5.1420   22.6000 C   0  0  0  0  0  0  0  0  0  0  0  0
  -22.7440   -4.5550   21.4880 F   0  0  0  0  0  0  0  0  0  0  0  0
  -21.3620   -4.2520   26.0490 F   0  0  0  0  0  0  0  0  0  0  0  0
  -23.0410  -13.8270   20.9540 C   0  0  0  0  0  0  0  0  0  0  0  0
  -22.3100  -13.1480   21.8310 N   0  0  0  0  0  0  0  0  0  0  0  0
  -22.6020  -14.8350   20.4010 O   0  0  0  0  0  0  0  0  0  0  0  0
  -22.6810  -12.3350   22.3000 H   0  0  0  0  0  0  0  0  0  0  0  0
  -21.3670  -13.4470   22.0370 H   0  0  0  0  0  0  0  0  0  0  0  0
  -25.6690  -15.4980   20.1430 N   0  0  0  0  0  0  0  0  0  0  0  0
  -24.8980  -16.1490   20.2340 H   0  0  0  0  0  0  0  0  0  0  0  0
  -26.5260  -15.9360   19.8320 H   0  0  0  0  0  0  0  0  0  0  0  0
  1  4  1  0
  2  5  2  0
  3  6  2  0
  5  1  1  0
  6  1  1  0
  7  3  2  0
  7  2  1  0
  8 10  1  0
  8  3  1  0
  9 20  2  0
 10 15  1  0
 11 19  1  0
 11 21  1  0
 12 18  1  0
 12 14  1  0
 13 19  1  0
 14 13  1  0
 15 14  2  0
 16 17  1  0
 16 10  2  0
 17 12  2  0
 18 11  1  0
 19  9  1  0
 21 23  2  0
 22 21  1  0
 24 22  1  0
 25 34  2  0
 25 30  1  0
 26 22  1  0
 26 30  1  0
 27 26  1  0
 28 29  1  0
 28 27  1  0
 29 25  1  0
 30 31  2  0
 31 32  1  0
 33 32  2  0
 34 33  1  0
 35  9  1  0
 35 36  1  0
 35 45  1  0
 36 39  1  0
 37 41  1  0
 37 36  1  0
 38 37  2  0
 41 40  1  0
 43 41  1  0
 43 44  1  0
 43 42  1  0
 45 48  1  1
 45 46  1  0
 47 45  1  0
 49  2  1  0
 49 50  1  0
 50 51  1  0
 50 52  1  0
 54 59  1  0
 55 56  1  0
 55 54  1  0
 57 56  1  0
 57 69  1  0
 57 58  1  0
 59 53  1  0
 59 58  1  0
 60 53  2  0
 61 64  1  0
 62 61  1  0
 62 65  1  0
 64 50  1  0
 64 63  1  0
 65 53  1  0
 65 63  1  0
 66 67  2  0
 67 86  1  0
 68 67  1  0
 68 71  1  0
 69 66  1  0
 69 70  1  0
 70 68  2  0
 71 72  1  0
 72 73  2  0
 74 77  1  0
 74 73  1  0
 75 74  2  0
 76 75  1  0
 76 71  2  0
 77 78  1  0
 78 83  2  0
 78 79  1  0
 79 80  2  0
 80 81  1  0
 81 85  1  0
 82 81  2  0
 83 82  1  0
 84 83  1  0
 86 87  1  0
 87 90  1  0
 87 89  1  0
 88 86  2  0
 91 92  1  0
 91 66  1  0
 93 91  1  0
M  ISO  4   3 101   8 101  53 100  65 100
M  END
>  <TORSDO>  (4) 
F 18

>  <SCORE>  (4) 
-12.099

>  <name>  (4) 
3

>  <ligand_id>  (4) 
3

>  <original_smiles>  (4) 
[H]c1c([H])c([H])c2c(c1[H])C([H])([H])C([H])([H])C([H])([H])C2([H])N([H])C(=O)C1([H])N(C(=O)C([H])(N([H])C(=O)C([H])(N([H])C([H])([H])[H])C([H])([H])[H])C(C([H])([H])[H])(C([H])([H])[H])C([H])([H])[H])C([H])([H])c2c([H])c(Oc3nc(C([H])([H])[H])nc(C([H])([H])[N+]([H])([H])C4([H])C([H])([H])N(C(=O)N5C([H])([H])C([H])([H])C([H])([H])C([H])(n6nc(-c7c([H])c([H])c(Oc8c([H])c([H])c(F)c([H])c8F)c([H])c7[H])c(C(=O)N([H])[H])c6N([H])[H])C5([H])[H])C([H])([H])C4([H])[H])n3)c([H])c([H])c2C1([H])[H]

>  <smiles>  (4) 
[H]c1c([H])c([H])c2c(c1[H])C([H])([H])C([H])([H])C([H])([H])C2([H])N([H])C(=O)C1([H])N(C(=O)C([H])(N([H])C(=O)C([H])(N([H])C([H])([H])[H])C([H])([H])[H])C(C([H])([H])[H])(C([H])([H])[H])C([H])([H])[H])C([H])([H])c2c([H])c(Oc3nc(C([H])([H])[H])nc(C([H])([H])[N+]([H])([H])C4([H])C([H])([H])N(C(=O)N5C([H])([H])C([H])([H])C([H])([H])C([H])(n6nc(-c7c([H])c([H])c(Oc8c([H])c([H])c(F)c([H])c8F)c([H])c7[H])c(C(=O)N([H])[H])c6N([H])[H])C5([H])[H])C([H])([H])C4([H])[H])n3)c([H])c([H])c2C1([H])[H]

$$$$
4:0:0
     RDKit          3D

 91 99  0  0  1  0  0  0  0  0999 V2000
  -29.0120  -23.3170   20.0530 C   0  0  0  0  0  3  0  0  0  0  0  0
  -30.3440  -23.6570   20.5250 N   0  0  0  0  0  0  0  0  0  0  0  0
  -30.3130  -23.7710   21.5340 H   0  0  0  0  0  0  0  0  0  0  0  0
  -30.5550  -24.5940   20.1930 H   0  0  0  0  0  0  0  0  0  0  0  0
  -28.7420  -21.7020   20.5210 C   0  0  0  0  0  2  0  0  0  0  0  0
  -29.5510  -20.4730   19.9220 N   0  0  0  0  0  4  0  0  0  0  0  0
  -29.3160  -20.4280   18.9450 H   0  0  0  0  0  0  0  0  0  0  0  0
  -30.5070  -20.7850   19.9570 H   0  0  0  0  0  0  0  0  0  0  0  0
  -30.6060  -15.0490   19.9900 C   0  0  0  0  0  0  0  0  0  0  0  0
  -30.3740  -12.7170   18.9930 C   0  0  0  0  0  2  0  0  0  0  0  0
  -29.3680  -12.6670   17.8210 C   0  0  0  0  0  2  0  0  0  0  0  0
  -27.9410  -12.4270   18.3440 C   0  0  0  0  0  2  0  0  0  0  0  0
  -27.6010  -13.3380   19.5510 C   0  0  0  0  0  3  0  0  0  0  0  0
  -28.7290  -13.3580   20.6090 C   0  0  0  0  0  2  0  0  0  0  0  0
  -29.9480  -13.8110   19.9240 N   0  0  0  0  0  0  0  0  0  0  0  0
  -31.7880  -15.0400   19.6240 O   0  0  0  0  0  0  0  0  0  0  0  0
  -28.2610  -18.1650   20.5060 C   0  0  0  0  0  2  0  0  0  0  0  0
  -28.6520  -16.6570   20.7780 C   0  0  0  0  0  2  0  0  0  0  0  0
  -30.4680  -17.7600   19.8440 C   0  0  0  0  0  2  0  0  0  0  0  0
  -29.5630  -18.9760   20.4870 C   0  0  0  0  0  3  0  0  0  0  0  0
  -29.9580  -16.3280   20.1680 N   0  0  0  0  0  0  0  0  0  0  0  0
  -25.2720  -13.8970   20.4550 C   0  0  0  0  0  0  0  0  0  0  0  0
  -24.2360  -13.1140   20.8770 C   0  0  0  0  0  0  0  0  0  0  0  0
  -24.6970  -11.7650   20.7820 C   0  0  0  0  0  0  0  0  0  0  0  0
  -26.2990  -13.0280   20.1300 N   0  0  0  0  0  0  0  0  0  0  0  0
  -25.9660  -11.7380   20.3910 N   0  0  0  0  0  0  0  0  0  0  0  0
  -23.9820  -10.5000   20.9810 C   0  0  0  0  0  0  0  0  0  0  0  0
  -24.4380   -9.5290   21.8990 C   0  0  0  0  0  3  0  0  0  0  0  0
  -23.7180   -8.3290   22.0870 C   0  0  0  0  0  3  0  0  0  0  0  0
  -22.5300   -8.0920   21.3560 C   0  0  0  0  0  0  0  0  0  0  0  0
  -22.0930   -9.0510   20.4260 C   0  0  0  0  0  3  0  0  0  0  0  0
  -22.8120  -10.2430   20.2350 C   0  0  0  0  0  3  0  0  0  0  0  0
  -21.7800   -6.9450   21.4550 O   0  0  0  0  0  0  0  0  0  0  0  0
  -21.7220   -6.2220   22.6190 C   0  0  0  0  0  0  0  0  0  0  0  0
  -21.2630   -6.7910   23.8270 C   0  0  0  0  0  3  0  0  0  0  0  0
  -21.1540   -5.9930   24.9840 C   0  0  0  0  0  3  0  0  0  0  0  0
  -21.4930   -4.6270   24.9330 C   0  0  0  0  0  0  0  0  0  0  0  0
  -21.9450   -4.0580   23.7290 C   0  0  0  0  0  3  0  0  0  0  0  0
  -22.0570   -4.8530   22.5750 C   0  0  0  0  0  0  0  0  0  0  0  0
  -22.4730   -4.2960   21.4120 F   0  0  0  0  0  0  0  0  0  0  0  0
  -21.3810   -3.8590   26.0410 F   0  0  0  0  0  0  0  0  0  0  0  0
  -22.8590  -13.5860   21.2440 C   0  0  0  0  0  0  0  0  0  0  0  0
  -22.1820  -12.8660   22.1310 N   0  0  0  0  0  0  0  0  0  0  0  0
  -22.3970  -14.6270   20.7820 O   0  0  0  0  0  0  0  0  0  0  0  0
  -22.5710  -12.0230   22.5270 H   0  0  0  0  0  0  0  0  0  0  0  0
  -21.2610  -13.1640   22.4200 H   0  0  0  0  0  0  0  0  0  0  0  0
  -25.4050  -15.2720   20.2930 N   0  0  0  0  0  0  0  0  0  0  0  0
  -24.6300  -15.9050   20.4580 H   0  0  0  0  0  0  0  0  0  0  0  0
  -26.2030  -15.7260   19.8700 H   0  0  0  0  0  0  0  0  0  0  0  0
  -28.0280  -24.6500   20.4360 C   0  0  0  0  0  2  0  0  0  0  0  0
  -28.3000  -26.1840   20.2400 O   0  0  0  0  0  0  0  0  0  0  0  0
  -24.6090  -31.8800   23.1940 C   0  0  0  0  0  0  0  0  0  0  0  0
  -27.2350  -27.1620   20.1980 C   0  0  0  0  0  0  0  0  0  0  0  0
  -23.4280  -30.4710   21.5530 C   0  0  0  0  0  3  0  0  0  0  0  0
  -24.8960  -28.9010   20.1430 C   0  0  0  0  0  0  0  0  0  0  0  0
  -25.9830  -30.7500   21.4030 C   0  0  0  0  0  2  0  0  0  0  0  0
  -26.0690  -29.3550   20.7580 C   0  0  0  0  0  0  0  0  0  0  0  0
  -27.2410  -28.5040   20.7650 C   0  0  0  0  0  3  0  0  0  0  0  0
  -26.0350  -26.8180   19.5370 C   0  0  0  0  0  3  0  0  0  0  0  0
  -24.8920  -27.6470   19.5170 C   0  0  0  0  0  3  0  0  0  0  0  0
  -23.6620  -29.7910   20.1790 C   0  0  0  0  0  2  0  0  0  0  0  0
  -24.6930  -31.0560   22.1040 N   0  0  0  0  0  0  0  0  0  0  0  0
  -23.5170  -32.1590   23.7140 O   0  0  0  0  0  0  0  0  0  0  0  0
  -22.7510  -29.4630   22.5140 C   0  0  0  0  0  0  0  0  0  0  0  0
  -21.4210  -29.3000   22.3960 N   0  0  0  0  0  0  0  0  0  0  0  0
  -23.4240  -28.8280   23.3300 O   0  0  0  0  0  0  0  0  0  0  0  0
  -20.9330  -29.8630   21.7130 H   0  0  0  0  0  0  0  0  0  0  0  0
  -18.0330  -28.1300   22.9320 C   0  0  0  0  0  0  0  0  0  0  0  0
  -20.5980  -28.3640   23.1680 C   0  0  0  0  0  3  0  0  0  0  0  0
  -20.6780  -26.9360   22.5780 C   0  0  0  0  0  2  0  0  0  0  0  0
  -19.5590  -26.6350   21.5750 C   0  0  0  0  0  2  0  0  0  0  0  0
  -18.1870  -26.7860   22.2380 C   0  0  0  0  0  2  0  0  0  0  0  0
  -19.1650  -28.8780   23.3540 C   0  0  0  0  0  0  0  0  0  0  0  0
  -18.9650  -30.1340   23.9650 C   0  0  0  0  0  3  0  0  0  0  0  0
  -17.6670  -30.6440   24.1560 C   0  0  0  0  0  3  0  0  0  0  0  0
  -16.5510  -29.8950   23.7480 C   0  0  0  0  0  3  0  0  0  0  0  0
  -16.7340  -28.6380   23.1420 C   0  0  0  0  0  3  0  0  0  0  0  0
  -25.8780  -32.5270   23.8260 C   0  0  0  0  0  3  0  0  0  0  0  0
  -26.3850  -31.7670   25.1140 C   0  0  1  0  0  0  0  0  0  0  0  0
  -25.2820  -31.5290   26.1720 C   0  0  0  0  0  1  0  0  0  0  0  0
  -26.9810  -30.3900   24.7410 C   0  0  0  0  0  1  0  0  0  0  0  0
  -27.5240  -32.5730   25.7830 C   0  0  0  0  0  1  0  0  0  0  0  0
  -25.5540  -33.9240   24.1540 N   0  0  0  0  0  0  0  0  0  0  0  0
  -25.8850  -34.9830   23.4010 C   0  0  0  0  0  0  0  0  0  0  0  0
  -26.5620  -34.8850   22.3750 O   0  0  0  0  0  0  0  0  0  0  0  0
  -24.9500  -34.0740   24.9480 H   0  0  0  0  0  0  0  0  0  0  0  0
  -24.1540  -36.7750   23.0390 C   0  0  0  0  0  1  0  0  0  0  0  0
  -25.3890  -36.3690   23.8600 C   0  0  0  0  0  3  0  0  0  0  0  0
  -27.5100  -37.2610   24.7190 C   0  0  0  0  0  1  0  0  0  0  0  0
  -26.4190  -37.4260   23.7620 N   0  0  0  0  0  0  0  0  0  0  0  0
  -26.0070  -38.3450   23.9050 H   0  0  0  0  0  0  0  0  0  0  0  0
  1 50  1  0
  1  5  1  0
  1  2  1  0
  2  3  1  0
  4  2  1  0
  6  8  1  0
  6  5  1  0
  7  6  1  0
  9 21  1  0
 10 15  1  0
 11 12  1  0
 11 10  1  0
 13 12  1  0
 13 25  1  0
 13 14  1  0
 15  9  1  0
 15 14  1  0
 16  9  2  0
 17 18  1  0
 19 21  1  0
 19 20  1  0
 20  6  1  0
 20 17  1  0
 21 18  1  0
 22 23  2  0
 23 42  1  0
 24 23  1  0
 24 27  1  0
 25 26  1  0
 25 22  1  0
 26 24  2  0
 27 28  1  0
 28 29  2  0
 30 33  1  0
 30 29  1  0
 31 30  2  0
 32 31  1  0
 32 27  2  0
 33 34  1  0
 34 35  1  0
 35 36  2  0
 37 36  1  0
 37 41  1  0
 38 37  2  0
 39 34  2  0
 39 38  1  0
 40 39  1  0
 42 43  1  0
 43 46  1  0
 43 45  1  0
 44 42  2  0
 47 22  1  0
 47 48  1  0
 49 47  1  0
 51 50  1  0
 52 63  2  0
 53 51  1  0
 53 58  1  0
 54 62  1  0
 54 64  1  0
 55 61  1  0
 55 57  1  0
 56 62  1  0
 57 58  2  0
 57 56  1  0
 59 53  2  0
 60 59  1  0
 60 55  2  0
 61 54  1  0
 62 52  1  0
 64 66  2  0
 65 64  1  0
 67 65  1  0
 68 77  2  0
 68 73  1  0
 69 65  1  0
 69 73  1  0
 70 69  1  0
 71 72  1  0
 71 70  1  0
 72 68  1  0
 73 74  2  0
 74 75  1  0
 76 75  2  0
 77 76  1  0
 78 52  1  0
 78 83  1  0
 78 79  1  0
 79 82  1  1
 79 80  1  0
 81 79  1  0
 83 86  1  0
 84 88  1  0
 84 83  1  0
 85 84  2  0
 88 87  1  0
 90 88  1  0
 90 91  1  0
 90 89  1  0
M  ISO  4   9 100  21 100  50 101  51 101
M  END
>  <TORSDO>  (5) 
F 20

>  <SCORE>  (5) 
-15.355

>  <name>  (5) 
4

>  <ligand_id>  (5) 
4

>  <original_smiles>  (5) 
[H]c1c([H])c([H])c2c(c1[H])C([H])([H])C([H])([H])C([H])([H])C2([H])N([H])C(=O)C1([H])N(C(=O)C([H])(N([H])C(=O)C([H])(N([H])C([H])([H])[H])C([H])([H])[H])C(C([H])([H])[H])(C([H])([H])[H])C([H])([H])[H])C([H])([H])c2c([H])c(OC([H])([H])C([H])(N([H])[H])C([H])([H])[N+]([H])([H])C3([H])C([H])([H])N(C(=O)N4C([H])([H])C([H])([H])C([H])([H])C([H])(n5nc(-c6c([H])c([H])c(Oc7c([H])c([H])c(F)c([H])c7F)c([H])c6[H])c(C(=O)N([H])[H])c5N([H])[H])C4([H])[H])C([H])([H])C3([H])[H])c([H])c([H])c2C1([H])[H]

>  <smiles>  (5) 
[H]c1c([H])c([H])c2c(c1[H])C([H])([H])C([H])([H])C([H])([H])C2([H])N([H])C(=O)C1([H])N(C(=O)C([H])(N([H])C(=O)C([H])(N([H])C([H])([H])[H])C([H])([H])[H])C(C([H])([H])[H])(C([H])([H])[H])C([H])([H])[H])C([H])([H])c2c([H])c(OC([H])([H])C([H])(N([H])[H])C([H])([H])[N+]([H])([H])C3([H])C([H])([H])N(C(=O)N4C([H])([H])C([H])([H])C([H])([H])C([H])(n5nc(-c6c([H])c([H])c(Oc7c([H])c([H])c(F)c([H])c7F)c([H])c6[H])c(C(=O)N([H])[H])c5N([H])[H])C4([H])[H])C([H])([H])C3([H])[H])c([H])c([H])c2C1([H])[H]

$$$$
5:0:0
     RDKit          3D

 91100  0  0  1  0  0  0  0  0999 V2000
  -30.6120  -14.9350   20.3350 C   0  0  0  0  0  0  0  0  0  0  0  0
  -30.4340  -12.5790   19.4460 C   0  0  0  0  0  2  0  0  0  0  0  0
  -29.5280  -12.5270   18.1960 C   0  0  0  0  0  2  0  0  0  0  0  0
  -28.0540  -12.3500   18.6060 C   0  0  0  0  0  2  0  0  0  0  0  0
  -27.6380  -13.3010   19.7610 C   0  0  0  0  0  3  0  0  0  0  0  0
  -28.6760  -13.3410   20.9020 C   0  0  0  0  0  2  0  0  0  0  0  0
  -29.9580  -13.7080   20.2920 N   0  0  0  0  0  0  0  0  0  0  0  0
  -31.8230  -14.9250   20.0920 O   0  0  0  0  0  0  0  0  0  0  0  0
  -28.6030  -21.9920   19.9080 C   0  0  0  0  0  3  0  0  0  0  0  0
  -28.9600  -23.4220   20.0660 C   0  0  0  0  0  0  0  0  0  0  0  0
  -30.2860  -23.5780   20.5300 C   0  0  0  0  0  0  0  0  0  0  0  0
  -29.5370  -20.8840   20.1890 C   0  0  0  0  0  0  0  0  0  0  0  0
  -30.4580  -18.6440   19.3620 C   0  0  0  0  0  3  0  0  0  0  0  0
  -28.8300  -18.5360   21.0930 C   0  0  0  0  0  3  0  0  0  0  0  0
  -30.1440  -17.1030   19.0620 C   0  0  0  0  0  3  0  0  0  0  0  0
  -29.4900  -17.0620   21.3620 C   0  0  0  0  0  3  0  0  0  0  0  0
  -30.8870  -24.9470   20.7780 C   0  0  0  0  0  1  0  0  0  0  0  0
  -31.1210  -22.5330   20.7930 N   0  0  0  0  0  0  0  0  0  0  0  0
  -30.7660  -21.2500   20.6250 N   0  0  0  0  0  0  0  0  0  0  0  0
  -29.3700  -19.4190   20.0120 N   0  0  0  0  0  0  0  0  0  0  0  0
  -29.9060  -16.1690   20.2180 N   0  0  0  0  0  0  0  0  0  0  0  0
  -25.2530  -13.9020   20.4610 C   0  0  0  0  0  0  0  0  0  0  0  0
  -24.1770  -13.1380   20.8200 C   0  0  0  0  0  0  0  0  0  0  0  0
  -24.6320  -11.7830   20.8120 C   0  0  0  0  0  0  0  0  0  0  0  0
  -26.2930  -13.0150   20.2460 N   0  0  0  0  0  0  0  0  0  0  0  0
  -25.9280  -11.7360   20.5240 N   0  0  0  0  0  0  0  0  0  0  0  0
  -23.8940  -10.5280   21.0030 C   0  0  0  0  0  0  0  0  0  0  0  0
  -24.3070   -9.5650   21.9500 C   0  0  0  0  0  3  0  0  0  0  0  0
  -23.5660   -8.3750   22.1300 C   0  0  0  0  0  3  0  0  0  0  0  0
  -22.4010   -8.1420   21.3640 C   0  0  0  0  0  0  0  0  0  0  0  0
  -22.0060   -9.0950   20.4070 C   0  0  0  0  0  3  0  0  0  0  0  0
  -22.7460  -10.2750   20.2240 C   0  0  0  0  0  3  0  0  0  0  0  0
  -21.6330   -7.0050   21.4530 O   0  0  0  0  0  0  0  0  0  0  0  0
  -21.5600   -6.2740   22.6110 C   0  0  0  0  0  0  0  0  0  0  0  0
  -21.1150   -6.8420   23.8250 C   0  0  0  0  0  3  0  0  0  0  0  0
  -20.9920   -6.0380   24.9760 C   0  0  0  0  0  3  0  0  0  0  0  0
  -21.3020   -4.6660   24.9120 C   0  0  0  0  0  0  0  0  0  0  0  0
  -21.7400   -4.0970   23.7030 C   0  0  0  0  0  3  0  0  0  0  0  0
  -21.8650   -4.8990   22.5550 C   0  0  0  0  0  0  0  0  0  0  0  0
  -22.2670   -4.3410   21.3880 F   0  0  0  0  0  0  0  0  0  0  0  0
  -21.1760   -3.8910   26.0140 F   0  0  0  0  0  0  0  0  0  0  0  0
  -22.7790  -13.6280   21.0610 C   0  0  0  0  0  0  0  0  0  0  0  0
  -22.0350  -12.9560   21.9320 N   0  0  0  0  0  0  0  0  0  0  0  0
  -22.3560  -14.6460   20.5130 O   0  0  0  0  0  0  0  0  0  0  0  0
  -22.3900  -12.1350   22.3990 H   0  0  0  0  0  0  0  0  0  0  0  0
  -21.0960  -13.2680   22.1340 H   0  0  0  0  0  0  0  0  0  0  0  0
  -25.4300  -15.2700   20.2720 N   0  0  0  0  0  0  0  0  0  0  0  0
  -24.6690  -15.9330   20.3650 H   0  0  0  0  0  0  0  0  0  0  0  0
  -26.2940  -15.6980   19.9640 H   0  0  0  0  0  0  0  0  0  0  0  0
  -27.9940  -24.7100   19.7550 C   0  0  0  0  0  2  0  0  0  0  0  0
  -28.3200  -26.2110   19.9700 O   0  0  0  0  0  0  0  0  0  0  0  0
  -24.6480  -31.7510   23.1270 C   0  0  0  0  0  0  0  0  0  0  0  0
  -27.2690  -27.1910   19.9270 C   0  0  0  0  0  0  0  0  0  0  0  0
  -23.4690  -30.4170   21.4250 C   0  0  0  0  0  3  0  0  0  0  0  0
  -24.9350  -28.9160   19.9480 C   0  0  0  0  0  0  0  0  0  0  0  0
  -26.0220  -30.7050   21.2920 C   0  0  0  0  0  2  0  0  0  0  0  0
  -26.1080  -29.3440   20.5830 C   0  0  0  0  0  0  0  0  0  0  0  0
  -27.2770  -28.4980   20.5580 C   0  0  0  0  0  3  0  0  0  0  0  0
  -26.0690  -26.8660   19.2540 C   0  0  0  0  0  3  0  0  0  0  0  0
  -24.9270  -27.6900   19.2700 C   0  0  0  0  0  3  0  0  0  0  0  0
  -23.7040  -29.8010   20.0210 C   0  0  0  0  0  2  0  0  0  0  0  0
  -24.7320  -30.9770   22.0040 N   0  0  0  0  0  0  0  0  0  0  0  0
  -23.5550  -32.0080   23.6560 O   0  0  0  0  0  0  0  0  0  0  0  0
  -22.7890  -29.3650   22.3390 C   0  0  0  0  0  0  0  0  0  0  0  0
  -21.4610  -29.1990   22.2000 N   0  0  0  0  0  0  0  0  0  0  0  0
  -23.4600  -28.7030   23.1360 O   0  0  0  0  0  0  0  0  0  0  0  0
  -20.9790  -29.7870   21.5350 H   0  0  0  0  0  0  0  0  0  0  0  0
  -18.0750  -27.9970   22.6550 C   0  0  0  0  0  0  0  0  0  0  0  0
  -20.6360  -28.2310   22.9280 C   0  0  0  0  0  3  0  0  0  0  0  0
  -20.7280  -26.8280   22.2850 C   0  0  0  0  0  2  0  0  0  0  0  0
  -19.6230  -26.5590   21.2600 C   0  0  0  0  0  2  0  0  0  0  0  0
  -18.2430  -26.6810   21.9140 C   0  0  0  0  0  2  0  0  0  0  0  0
  -19.1990  -28.7320   23.1170 C   0  0  0  0  0  0  0  0  0  0  0  0
  -18.9870  -29.9650   23.7720 C   0  0  0  0  0  3  0  0  0  0  0  0
  -17.6850  -30.4620   23.9660 C   0  0  0  0  0  3  0  0  0  0  0  0
  -16.5760  -29.7230   23.5200 C   0  0  0  0  0  3  0  0  0  0  0  0
  -16.7720  -28.4920   22.8700 C   0  0  0  0  0  3  0  0  0  0  0  0
  -25.9170  -32.3670   23.7900 C   0  0  0  0  0  3  0  0  0  0  0  0
  -25.5930  -33.7480   24.1780 N   0  0  0  0  0  0  0  0  0  0  0  0
  -25.9110  -34.8380   23.4640 C   0  0  0  0  0  0  0  0  0  0  0  0
  -26.5740  -34.7840   22.4250 O   0  0  0  0  0  0  0  0  0  0  0  0
  -25.0030  -33.8640   24.9880 H   0  0  0  0  0  0  0  0  0  0  0  0
  -24.1590  -36.6260   23.2050 C   0  0  0  0  0  1  0  0  0  0  0  0
  -25.4140  -36.2010   23.9840 C   0  0  0  0  0  3  0  0  0  0  0  0
  -27.5490  -37.0780   24.8250 C   0  0  0  0  0  1  0  0  0  0  0  0
  -26.4340  -37.2700   23.9010 N   0  0  0  0  0  0  0  0  0  0  0  0
  -26.0200  -38.1790   24.0870 H   0  0  0  0  0  0  0  0  0  0  0  0
  -26.4220  -31.5480   25.0430 C   0  0  1  0  0  0  0  0  0  0  0  0
  -25.3170  -31.2700   26.0900 C   0  0  0  0  0  1  0  0  0  0  0  0
  -27.0110  -30.1870   24.6090 C   0  0  0  0  0  1  0  0  0  0  0  0
  -27.5640  -32.3190   25.7450 C   0  0  0  0  0  1  0  0  0  0  0  0
  2  7  1  0
  3  4  1  0
  3  2  1  0
  5  4  1  0
  5 25  1  0
  5  6  1  0
  7  1  1  0
  7  6  1  0
  8  1  2  0
  9 10  2  0
  9 12  1  0
 10 11  1  0
 11 17  1  0
 11 18  2  0
 12 19  2  0
 13 20  1  0
 14 16  2  0
 15 13  2  0
 15 21  1  0
 19 18  1  0
 20 12  1  0
 20 14  1  0
 21  1  1  0
 21 16  1  0
 22 23  2  0
 23 42  1  0
 24 23  1  0
 24 27  1  0
 25 22  1  0
 25 26  1  0
 26 24  2  0
 27 28  1  0
 28 29  2  0
 30 33  1  0
 30 29  1  0
 31 30  2  0
 32 31  1  0
 32 27  2  0
 33 34  1  0
 34 35  1  0
 35 36  2  0
 37 36  1  0
 37 41  1  0
 38 37  2  0
 39 34  2  0
 39 38  1  0
 40 39  1  0
 42 43  1  0
 43 46  1  0
 43 45  1  0
 44 42  2  0
 47 48  1  0
 47 22  1  0
 49 47  1  0
 50 51  1  0
 50 10  1  0
 52 63  2  0
 53 51  1  0
 53 58  1  0
 54 62  1  0
 54 64  1  0
 55 61  1  0
 55 57  1  0
 56 62  1  0
 57 56  1  0
 58 57  2  0
 59 60  1  0
 59 53  2  0
 60 55  2  0
 61 54  1  0
 62 52  1  0
 64 66  2  0
 65 64  1  0
 67 65  1  0
 68 77  2  0
 68 73  1  0
 69 65  1  0
 69 73  1  0
 70 69  1  0
 71 72  1  0
 71 70  1  0
 72 68  1  0
 73 74  2  0
 74 75  1  0
 76 75  2  0
 77 76  1  0
 78 52  1  0
 78 79  1  0
 78 88  1  0
 79 82  1  0
 80 84  1  0
 80 79  1  0
 81 80  2  0
 84 83  1  0
 86 84  1  0
 86 87  1  0
 86 85  1  0
 88 91  1  1
 88 89  1  0
 90 88  1  0
M  ISO  4   1 100  21 100  50 101  51 101
M  END
>  <TORSDO>  (6) 
F 16

>  <SCORE>  (6) 
-15.053

>  <name>  (6) 
5

>  <ligand_id>  (6) 
5

>  <original_smiles>  (6) 
[H]c1c([H])c([H])c2c(c1[H])C([H])([H])C([H])([H])C([H])([H])C2([H])N([H])C(=O)C1([H])N(C(=O)C([H])(N([H])C(=O)C([H])(N([H])C([H])([H])[H])C([H])([H])[H])C(C([H])([H])[H])(C([H])([H])[H])C([H])([H])[H])C([H])([H])c2c([H])c(OC([H])([H])c3c(C([H])([H])[H])nnc(N4C([H])([H])C([H])([H])N(C(=O)N5C([H])([H])C([H])([H])C([H])([H])C([H])(n6nc(-c7c([H])c([H])c(Oc8c([H])c([H])c(F)c([H])c8F)c([H])c7[H])c(C(=O)N([H])[H])c6N([H])[H])C5([H])[H])C([H])([H])C4([H])[H])c3[H])c([H])c([H])c2C1([H])[H]

>  <smiles>  (6) 
[H]c1c([H])c([H])c2c(c1[H])C([H])([H])C([H])([H])C([H])([H])C2([H])N([H])C(=O)C1([H])N(C(=O)C([H])(N([H])C(=O)C([H])(N([H])C([H])([H])[H])C([H])([H])[H])C(C([H])([H])[H])(C([H])([H])[H])C([H])([H])[H])C([H])([H])c2c([H])c(OC([H])([H])c3c(C([H])([H])[H])nnc(N4C([H])([H])C([H])([H])N(C(=O)N5C([H])([H])C([H])([H])C([H])([H])C([H])(n6nc(-c7c([H])c([H])c(Oc8c([H])c([H])c(F)c([H])c8F)c([H])c7[H])c(C(=O)N([H])[H])c6N([H])[H])C5([H])[H])C([H])([H])C4([H])[H])c3[H])c([H])c([H])c2C1([H])[H]

$$$$
6:0:0
     RDKit          3D

 94104  0  0  1  0  0  0  0  0999 V2000
  -29.5590  -21.9780   21.7280 C   0  0  0  0  0  3  0  0  0  0  0  0
  -28.7700  -21.0680   19.3230 C   0  0  0  0  0  0  0  0  0  0  0  0
  -29.1310  -22.8800   20.7240 C   0  0  0  0  0  0  0  0  0  0  0  0
  -29.2890  -20.1540   20.2910 C   0  0  0  0  0  0  0  0  0  0  0  0
  -30.6070  -18.0100   20.5960 C   0  0  0  0  0  2  0  0  0  0  0  0
  -28.5730  -17.7540   20.3840 C   0  0  0  0  0  2  0  0  0  0  0  0
  -29.7670  -16.8140   20.1050 C   0  0  0  0  0  3  0  0  0  0  0  0
  -29.6490  -20.6380   21.5090 N   0  0  0  0  0  0  0  0  0  0  0  0
  -28.7350  -22.4130   19.5190 N   0  0  0  0  0  0  0  0  0  0  0  0
  -29.5260  -18.7800   19.9620 N   0  0  0  0  0  0  0  0  0  0  0  0
  -30.6270  -14.5420   20.5420 C   0  0  0  0  0  0  0  0  0  0  0  0
  -30.4080  -12.3550   19.4280 C   0  0  0  0  0  2  0  0  0  0  0  0
  -29.4880  -12.5670   18.2060 C   0  0  0  0  0  2  0  0  0  0  0  0
  -28.0010  -12.4360   18.6060 C   0  0  0  0  0  2  0  0  0  0  0  0
  -27.6440  -13.2580   19.8720 C   0  0  0  0  0  3  0  0  0  0  0  0
  -28.6810  -13.0170   20.9980 C   0  0  0  0  0  2  0  0  0  0  0  0
  -30.0130  -13.3310   20.4580 N   0  0  0  0  0  0  0  0  0  0  0  0
  -31.7620  -14.7520   20.1020 O   0  0  0  0  0  0  0  0  0  0  0  0
  -29.8050  -15.5600   20.8770 N   0  0  0  0  0  0  0  0  0  0  0  0
  -28.9320  -15.2800   21.2960 H   0  0  0  0  0  0  0  0  0  0  0  0
  -25.2360  -13.8760   20.5340 C   0  0  0  0  0  0  0  0  0  0  0  0
  -24.1620  -13.1080   20.8940 C   0  0  0  0  0  0  0  0  0  0  0  0
  -24.6190  -11.7550   20.8720 C   0  0  0  0  0  0  0  0  0  0  0  0
  -26.2830  -12.9900   20.3250 N   0  0  0  0  0  0  0  0  0  0  0  0
  -25.9130  -11.7100   20.5830 N   0  0  0  0  0  0  0  0  0  0  0  0
  -23.8850  -10.4950   21.0520 C   0  0  0  0  0  0  0  0  0  0  0  0
  -24.2980   -9.5300   21.9960 C   0  0  0  0  0  3  0  0  0  0  0  0
  -23.5670   -8.3360   22.1670 C   0  0  0  0  0  3  0  0  0  0  0  0
  -22.4050   -8.0990   21.3930 C   0  0  0  0  0  0  0  0  0  0  0  0
  -22.0090   -9.0540   20.4390 C   0  0  0  0  0  3  0  0  0  0  0  0
  -22.7420  -10.2400   20.2660 C   0  0  0  0  0  3  0  0  0  0  0  0
  -21.6480   -6.9570   21.4710 O   0  0  0  0  0  0  0  0  0  0  0  0
  -21.5700   -6.2240   22.6270 C   0  0  0  0  0  0  0  0  0  0  0  0
  -21.1020   -6.7820   23.8370 C   0  0  0  0  0  3  0  0  0  0  0  0
  -20.9740   -5.9720   24.9840 C   0  0  0  0  0  3  0  0  0  0  0  0
  -21.3060   -4.6050   24.9220 C   0  0  0  0  0  0  0  0  0  0  0  0
  -21.7650   -4.0470   23.7180 C   0  0  0  0  0  3  0  0  0  0  0  0
  -21.8940   -4.8540   22.5730 C   0  0  0  0  0  0  0  0  0  0  0  0
  -22.3190   -4.3050   21.4100 F   0  0  0  0  0  0  0  0  0  0  0  0
  -21.1770   -3.8240   26.0210 F   0  0  0  0  0  0  0  0  0  0  0  0
  -22.7610  -13.5900   21.1480 C   0  0  0  0  0  0  0  0  0  0  0  0
  -22.0240  -12.8980   22.0090 N   0  0  0  0  0  0  0  0  0  0  0  0
  -22.3280  -14.6120   20.6190 O   0  0  0  0  0  0  0  0  0  0  0  0
  -22.3840  -12.0670   22.4530 H   0  0  0  0  0  0  0  0  0  0  0  0
  -21.0840  -13.2020   22.2250 H   0  0  0  0  0  0  0  0  0  0  0  0
  -25.4040  -15.2450   20.3500 N   0  0  0  0  0  0  0  0  0  0  0  0
  -24.6230  -15.8880   20.4240 H   0  0  0  0  0  0  0  0  0  0  0  0
  -26.2340  -15.6690   19.9570 H   0  0  0  0  0  0  0  0  0  0  0  0
  -26.9390  -21.0580   17.4350 C   0  0  0  0  0  2  0  0  0  0  0  0
  -27.1910  -19.6220   17.7940 C   0  0  0  0  0  2  0  0  0  0  0  0
  -28.3000  -20.6410   17.9600 C   0  0  0  0  0  3  0  0  0  0  0  0
  -29.2500  -24.4060   20.8980 C   0  0  0  0  0  2  0  0  0  0  0  0
  -28.2060  -25.2480   20.1240 C   0  0  0  0  0  2  0  0  0  0  0  0
  -28.3650  -26.6780   20.2890 O   0  0  0  0  0  0  0  0  0  0  0  0
  -24.5770  -31.9130   23.2590 C   0  0  0  0  0  0  0  0  0  0  0  0
  -27.2170  -27.4480   20.2060 C   0  0  0  0  0  0  0  0  0  0  0  0
  -23.3760  -30.5120   21.6170 C   0  0  0  0  0  3  0  0  0  0  0  0
  -24.8330  -28.9840   20.1870 C   0  0  0  0  0  0  0  0  0  0  0  0
  -25.9060  -30.8680   21.4290 C   0  0  0  0  0  2  0  0  0  0  0  0
  -25.9910  -29.4980   20.7820 C   0  0  0  0  0  0  0  0  0  0  0  0
  -27.1880  -28.7410   20.7840 C   0  0  0  0  0  3  0  0  0  0  0  0
  -26.0440  -26.9710   19.5730 C   0  0  0  0  0  3  0  0  0  0  0  0
  -24.8570  -27.7210   19.5750 C   0  0  0  0  0  3  0  0  0  0  0  0
  -23.5890  -29.8410   20.2330 C   0  0  0  0  0  2  0  0  0  0  0  0
  -24.6380  -31.1110   22.1590 N   0  0  0  0  0  0  0  0  0  0  0  0
  -23.4930  -32.1870   23.7940 O   0  0  0  0  0  0  0  0  0  0  0  0
  -22.7240  -29.4880   22.5730 C   0  0  0  0  0  0  0  0  0  0  0  0
  -21.3990  -29.3070   22.4420 N   0  0  0  0  0  0  0  0  0  0  0  0
  -23.4040  -28.8620   23.3900 O   0  0  0  0  0  0  0  0  0  0  0  0
  -20.9100  -29.8660   21.7570 H   0  0  0  0  0  0  0  0  0  0  0  0
  -18.0180  -28.1330   22.9430 C   0  0  0  0  0  0  0  0  0  0  0  0
  -20.5780  -28.3700   23.2100 C   0  0  0  0  0  3  0  0  0  0  0  0
  -20.6680  -26.9410   22.6260 C   0  0  0  0  0  2  0  0  0  0  0  0
  -19.5630  -26.6330   21.6130 C   0  0  0  0  0  2  0  0  0  0  0  0
  -18.1830  -26.7860   22.2610 C   0  0  0  0  0  2  0  0  0  0  0  0
  -19.1440  -28.8840   23.3740 C   0  0  0  0  0  0  0  0  0  0  0  0
  -18.9380  -30.1470   23.9720 C   0  0  0  0  0  3  0  0  0  0  0  0
  -17.6380  -30.6570   24.1450 C   0  0  0  0  0  3  0  0  0  0  0  0
  -16.5260  -29.9020   23.7310 C   0  0  0  0  0  3  0  0  0  0  0  0
  -16.7170  -28.6430   23.1340 C   0  0  0  0  0  3  0  0  0  0  0  0
  -25.8610  -32.5430   23.8850 C   0  0  0  0  0  3  0  0  0  0  0  0
  -26.3760  -31.7710   25.1610 C   0  0  1  0  0  0  0  0  0  0  0  0
  -25.2810  -31.5300   26.2250 C   0  0  0  0  0  1  0  0  0  0  0  0
  -26.9640  -30.3960   24.7700 C   0  0  0  0  0  1  0  0  0  0  0  0
  -27.5210  -32.5690   25.8280 C   0  0  0  0  0  1  0  0  0  0  0  0
  -25.5510  -33.9410   24.2100 N   0  0  0  0  0  0  0  0  0  0  0  0
  -25.8780  -34.9910   23.4430 C   0  0  0  0  0  0  0  0  0  0  0  0
  -26.5450  -34.8850   22.4100 O   0  0  0  0  0  0  0  0  0  0  0  0
  -24.9550  -34.0990   25.0090 H   0  0  0  0  0  0  0  0  0  0  0  0
  -24.1420  -36.7770   23.0900 C   0  0  0  0  0  1  0  0  0  0  0  0
  -25.3890  -36.3800   23.8960 C   0  0  0  0  0  3  0  0  0  0  0  0
  -27.5250  -37.2770   24.7130 C   0  0  0  0  0  1  0  0  0  0  0  0
  -26.4170  -37.4360   23.7730 N   0  0  0  0  0  0  0  0  0  0  0  0
  -26.0080  -38.3550   23.9170 H   0  0  0  0  0  0  0  0  0  0  0  0
  2  9  2  0
  2  4  1  0
  3 52  1  0
  3  1  2  0
  4  8  2  0
  7  6  1  0
  7  5  1  0
  7 19  1  0
  8  1  1  0
  9  3  1  0
 10  4  1  0
 10  6  1  0
 10  5  1  0
 11 19  1  0
 12 17  1  0
 13 14  1  0
 13 12  1  0
 15 14  1  0
 15 24  1  0
 15 16  1  0
 17 11  1  0
 17 16  1  0
 18 11  2  0
 19 20  1  0
 21 22  2  0
 22 41  1  0
 23 22  1  0
 23 26  1  0
 24 21  1  0
 24 25  1  0
 25 23  2  0
 26 27  1  0
 27 28  2  0
 29 32  1  0
 29 28  1  0
 30 29  2  0
 31 30  1  0
 31 26  2  0
 32 33  1  0
 33 34  1  0
 34 35  2  0
 36 35  1  0
 36 40  1  0
 37 36  2  0
 38 33  2  0
 38 37  1  0
 39 38  1  0
 41 42  1  0
 42 45  1  0
 42 44  1  0
 43 41  2  0
 46 47  1  0
 46 21  1  0
 48 46  1  0
 49 50  1  0
 49 51  1  0
 50 51  1  0
 51  2  1  0
 53 54  1  0
 53 52  1  0
 55 66  2  0
 56 54  1  0
 56 61  1  0
 57 65  1  0
 57 67  1  0
 58 64  1  0
 58 60  1  0
 59 65  1  0
 60 61  2  0
 60 59  1  0
 62 63  1  0
 62 56  2  0
 63 58  2  0
 64 57  1  0
 65 55  1  0
 67 69  2  0
 68 67  1  0
 70 68  1  0
 71 80  2  0
 71 76  1  0
 72 68  1  0
 72 76  1  0
 73 72  1  0
 74 75  1  0
 74 73  1  0
 75 71  1  0
 76 77  2  0
 77 78  1  0
 79 78  2  0
 80 79  1  0
 81 55  1  0
 81 86  1  0
 81 82  1  0
 82 85  1  1
 82 83  1  0
 84 82  1  0
 86 89  1  0
 87 91  1  0
 87 86  1  0
 88 87  2  0
 91 90  1  0
 93 91  1  0
 93 94  1  0
 93 92  1  0
M  ISO  4  11 100  19 100  53 101  54 101
M  END
>  <TORSDO>  (7) 
F 19

>  <SCORE>  (7) 
-14.547

>  <name>  (7) 
6

>  <ligand_id>  (7) 
6

>  <original_smiles>  (7) 
[H]c1nc(N2C([H])([H])C([H])(N([H])C(=O)N3C([H])([H])C([H])([H])C([H])([H])C([H])(n4nc(-c5c([H])c([H])c(Oc6c([H])c([H])c(F)c([H])c6F)c([H])c5[H])c(C(=O)N([H])[H])c4N([H])[H])C3([H])[H])C2([H])[H])c(C2([H])C([H])([H])C2([H])[H])nc1C([H])([H])C([H])([H])Oc1c([H])c([H])c2c(c1[H])C([H])([H])N(C(=O)C([H])(N([H])C(=O)C([H])(N([H])C([H])([H])[H])C([H])([H])[H])C(C([H])([H])[H])(C([H])([H])[H])C([H])([H])[H])C([H])(C(=O)N([H])C1([H])c3c([H])c([H])c([H])c([H])c3C([H])([H])C([H])([H])C1([H])[H])C2([H])[H]

>  <smiles>  (7) 
[H]c1nc(N2C([H])([H])C([H])(N([H])C(=O)N3C([H])([H])C([H])([H])C([H])([H])C([H])(n4nc(-c5c([H])c([H])c(Oc6c([H])c([H])c(F)c([H])c6F)c([H])c5[H])c(C(=O)N([H])[H])c4N([H])[H])C3([H])[H])C2([H])[H])c(C2([H])C([H])([H])C2([H])[H])nc1C([H])([H])C([H])([H])Oc1c([H])c([H])c2c(c1[H])C([H])([H])N(C(=O)C([H])(N([H])C(=O)C([H])(N([H])C([H])([H])[H])C([H])([H])[H])C(C([H])([H])[H])(C([H])([H])[H])C([H])([H])[H])C([H])(C(=O)N([H])C1([H])c3c([H])c([H])c([H])c([H])c3C([H])([H])C([H])([H])C1([H])[H])C2([H])[H]

$$$$
7:0:0
     RDKit          3D

 95104  0  0  1  0  0  0  0  0999 V2000
  -27.2180  -23.6010   20.7950 C   0  0  0  0  0  0  0  0  0  0  0  0
  -28.4040  -22.8280   20.5880 C   0  0  0  0  0  0  0  0  0  0  0  0
  -28.3750  -25.5340   20.2880 C   0  0  0  0  0  0  0  0  0  0  0  0
  -27.2280  -24.9520   20.6700 N   0  0  0  0  0  0  0  0  0  0  0  0
  -29.5420  -23.4990   20.2460 N   0  0  0  0  0  2  0  0  0  0  0  0
  -29.5260  -24.8480   20.0930 N   0  0  0  0  0  0  0  0  0  0  0  0
  -25.1180  -23.7330   22.2480 C   0  0  0  0  0  1  0  0  0  0  0  0
  -25.8400  -23.0190   21.0920 C   0  0  0  0  0  2  0  0  0  0  0  0
  -28.4210  -26.8970   20.0630 O   0  0  0  0  0  0  0  0  0  0  0  0
  -24.6410  -32.0200   23.4000 C   0  0  0  0  0  0  0  0  0  0  0  0
  -27.2650  -27.6830   20.1020 C   0  0  0  0  0  0  0  0  0  0  0  0
  -23.4380  -30.7170   21.6800 C   0  0  0  0  0  3  0  0  0  0  0  0
  -24.8910  -29.2550   20.1690 C   0  0  0  0  0  0  0  0  0  0  0  0
  -25.9730  -31.0530   21.5220 C   0  0  0  0  0  2  0  0  0  0  0  0
  -26.0500  -29.7160   20.8050 C   0  0  0  0  0  0  0  0  0  0  0  0
  -27.2390  -28.9370   20.7700 C   0  0  0  0  0  3  0  0  0  0  0  0
  -26.0940  -27.2790   19.4180 C   0  0  0  0  0  3  0  0  0  0  0  0
  -24.9100  -28.0380   19.4690 C   0  0  0  0  0  3  0  0  0  0  0  0
  -23.6520  -30.1230   20.2620 C   0  0  0  0  0  2  0  0  0  0  0  0
  -24.7010  -31.2790   22.2570 N   0  0  0  0  0  0  0  0  0  0  0  0
  -23.5590  -32.2690   23.9480 O   0  0  0  0  0  0  0  0  0  0  0  0
  -22.7820  -29.6430   22.5800 C   0  0  0  0  0  0  0  0  0  0  0  0
  -21.4640  -29.4470   22.4130 N   0  0  0  0  0  0  0  0  0  0  0  0
  -23.4540  -28.9930   23.3860 O   0  0  0  0  0  0  0  0  0  0  0  0
  -20.9820  -30.0210   21.7350 H   0  0  0  0  0  0  0  0  0  0  0  0
  -18.0870  -28.2200   22.8190 C   0  0  0  0  0  0  0  0  0  0  0  0
  -20.6420  -28.4670   23.1250 C   0  0  0  0  0  3  0  0  0  0  0  0
  -20.7520  -27.0730   22.4660 C   0  0  0  0  0  2  0  0  0  0  0  0
  -19.6570  -26.8080   21.4270 C   0  0  0  0  0  2  0  0  0  0  0  0
  -18.2690  -26.9120   22.0670 C   0  0  0  0  0  2  0  0  0  0  0  0
  -19.1990  -28.9590   23.3000 C   0  0  0  0  0  0  0  0  0  0  0  0
  -18.9750  -30.1840   23.9630 C   0  0  0  0  0  3  0  0  0  0  0  0
  -17.6680  -30.6730   24.1460 C   0  0  0  0  0  3  0  0  0  0  0  0
  -16.5690  -29.9320   23.6790 C   0  0  0  0  0  3  0  0  0  0  0  0
  -16.7770  -28.7050   23.0250 C   0  0  0  0  0  3  0  0  0  0  0  0
  -25.9270  -32.6120   24.0570 C   0  0  0  0  0  3  0  0  0  0  0  0
  -26.3900  -31.8170   25.3400 C   0  0  1  0  0  0  0  0  0  0  0  0
  -25.2610  -31.5920   26.3720 C   0  0  0  0  0  1  0  0  0  0  0  0
  -26.9580  -30.4320   24.9520 C   0  0  0  0  0  1  0  0  0  0  0  0
  -27.5320  -32.5880   26.0470 C   0  0  0  0  0  1  0  0  0  0  0  0
  -25.6470  -34.0150   24.3890 N   0  0  0  0  0  0  0  0  0  0  0  0
  -25.9760  -35.0580   23.6160 C   0  0  0  0  0  0  0  0  0  0  0  0
  -26.6180  -34.9410   22.5690 O   0  0  0  0  0  0  0  0  0  0  0  0
  -25.0760  -34.1800   25.2050 H   0  0  0  0  0  0  0  0  0  0  0  0
  -24.2330  -36.8470   23.3240 C   0  0  0  0  0  1  0  0  0  0  0  0
  -25.5170  -36.4550   24.0740 C   0  0  0  0  0  3  0  0  0  0  0  0
  -27.6900  -37.3530   24.7870 C   0  0  0  0  0  1  0  0  0  0  0  0
  -26.5450  -37.5020   23.8890 N   0  0  0  0  0  0  0  0  0  0  0  0
  -26.1470  -38.4270   24.0330 H   0  0  0  0  0  0  0  0  0  0  0  0
  -28.4090  -21.2600   20.6330 C   0  0  0  0  0  2  0  0  0  0  0  0
  -29.7020  -20.5120   20.8170 N   0  0  0  0  0  4  0  0  0  0  0  0
  -30.3220  -20.7320   20.0570 H   0  0  0  0  0  0  0  0  0  0  0  0
  -30.1230  -20.8860   21.6530 H   0  0  0  0  0  0  0  0  0  0  0  0
  -30.9010  -14.9330   20.2200 C   0  0  0  0  0  0  0  0  0  0  0  0
  -30.6350  -12.7190   19.1260 C   0  0  0  0  0  2  0  0  0  0  0  0
  -29.6500  -12.8130   17.9420 C   0  0  0  0  0  2  0  0  0  0  0  0
  -28.2000  -12.6180   18.4250 C   0  0  0  0  0  2  0  0  0  0  0  0
  -27.8570  -13.4950   19.6550 C   0  0  0  0  0  3  0  0  0  0  0  0
  -28.9540  -13.3990   20.7410 C   0  0  0  0  0  2  0  0  0  0  0  0
  -30.2410  -13.7390   20.1170 N   0  0  0  0  0  0  0  0  0  0  0  0
  -32.0520  -15.0740   19.7970 O   0  0  0  0  0  0  0  0  0  0  0  0
  -30.8110  -18.3350   21.6590 C   0  0  0  0  0  2  0  0  0  0  0  0
  -29.3800  -18.2360   19.6680 C   0  0  0  0  0  2  0  0  0  0  0  0
  -30.6510  -16.7930   21.8760 C   0  0  0  0  0  2  0  0  0  0  0  0
  -29.1860  -16.7040   19.8680 C   0  0  0  0  0  2  0  0  0  0  0  0
  -29.5820  -19.0090   20.9890 C   0  0  0  0  0  3  0  0  0  0  0  0
  -30.2030  -16.0150   20.6960 N   0  0  0  0  0  0  0  0  0  0  0  0
  -25.5010  -14.0750   20.5000 C   0  0  0  0  0  0  0  0  0  0  0  0
  -24.4500  -13.2890   20.8820 C   0  0  0  0  0  0  0  0  0  0  0  0
  -24.9080  -11.9390   20.7770 C   0  0  0  0  0  0  0  0  0  0  0  0
  -26.5340  -13.2020   20.1880 N   0  0  0  0  0  0  0  0  0  0  0  0
  -26.1850  -11.9110   20.4170 N   0  0  0  0  0  0  0  0  0  0  0  0
  -24.1900  -10.6710   20.9450 C   0  0  0  0  0  0  0  0  0  0  0  0
  -24.6040   -9.7120   21.8940 C   0  0  0  0  0  3  0  0  0  0  0  0
  -23.8910   -8.5050   22.0500 C   0  0  0  0  0  3  0  0  0  0  0  0
  -22.7480   -8.2510   21.2540 C   0  0  0  0  0  0  0  0  0  0  0  0
  -22.3530   -9.1990   20.2940 C   0  0  0  0  0  3  0  0  0  0  0  0
  -23.0680  -10.3970   20.1380 C   0  0  0  0  0  3  0  0  0  0  0  0
  -22.0060   -7.0960   21.3180 O   0  0  0  0  0  0  0  0  0  0  0  0
  -21.8380   -6.4140   22.4960 C   0  0  0  0  0  0  0  0  0  0  0  0
  -21.2310   -7.0120   23.6230 C   0  0  0  0  0  3  0  0  0  0  0  0
  -21.0130   -6.2520   24.7900 C   0  0  0  0  0  3  0  0  0  0  0  0
  -21.3930   -4.8970   24.8310 C   0  0  0  0  0  0  0  0  0  0  0  0
  -21.9910   -4.3000   23.7070 C   0  0  0  0  0  3  0  0  0  0  0  0
  -22.2100   -5.0560   22.5420 C   0  0  0  0  0  0  0  0  0  0  0  0
  -22.7680   -4.4700   21.4550 F   0  0  0  0  0  0  0  0  0  0  0  0
  -21.1770   -4.1660   25.9480 F   0  0  0  0  0  0  0  0  0  0  0  0
  -23.0650  -13.7540   21.2290 C   0  0  0  0  0  0  0  0  0  0  0  0
  -22.3730  -13.0220   22.0950 N   0  0  0  0  0  0  0  0  0  0  0  0
  -22.6070  -14.7980   20.7670 O   0  0  0  0  0  0  0  0  0  0  0  0
  -22.7580  -12.1770   22.4900 H   0  0  0  0  0  0  0  0  0  0  0  0
  -21.4450  -13.3110   22.3670 H   0  0  0  0  0  0  0  0  0  0  0  0
  -25.6570  -15.4520   20.3670 N   0  0  0  0  0  0  0  0  0  0  0  0
  -24.8900  -16.0970   20.5250 H   0  0  0  0  0  0  0  0  0  0  0  0
  -26.4800  -15.9000   19.9880 H   0  0  0  0  0  0  0  0  0  0  0  0
  1  8  1  0
  2 50  1  0
  2  1  2  0
  3  4  2  0
  4  1  1  0
  5  2  1  0
  6  5  1  0
  6  3  2  0
  8  7  1  0
  9 11  1  0
  9  3  1  0
 10 21  2  0
 11 16  1  0
 12 20  1  0
 12 22  1  0
 13 19  1  0
 13 15  1  0
 14 20  1  0
 15 14  1  0
 16 15  2  0
 17 18  1  0
 17 11  2  0
 18 13  2  0
 19 12  1  0
 20 10  1  0
 22 24  2  0
 23 22  1  0
 25 23  1  0
 26 35  2  0
 26 31  1  0
 27 23  1  0
 27 31  1  0
 28 27  1  0
 29 30  1  0
 29 28  1  0
 30 26  1  0
 31 32  2  0
 32 33  1  0
 34 33  2  0
 35 34  1  0
 36 10  1  0
 36 41  1  0
 36 37  1  0
 37 40  1  1
 37 38  1  0
 39 37  1  0
 41 44  1  0
 42 46  1  0
 42 41  1  0
 43 42  2  0
 46 45  1  0
 48 49  1  0
 48 46  1  0
 48 47  1  0
 50 51  1  0
 51 53  1  0
 52 51  1  0
 54 67  1  0
 55 60  1  0
 56 57  1  0
 56 55  1  0
 58 57  1  0
 58 71  1  0
 58 59  1  0
 60 54  1  0
 60 59  1  0
 61 54  2  0
 62 64  1  0
 63 65  1  0
 63 66  1  0
 65 67  1  0
 66 51  1  0
 66 62  1  0
 67 64  1  0
 68 69  2  0
 69 88  1  0
 70 69  1  0
 70 73  1  0
 71 72  1  0
 71 68  1  0
 72 70  2  0
 73 74  1  0
 74 75  2  0
 76 79  1  0
 76 75  1  0
 77 76  2  0
 78 77  1  0
 78 73  2  0
 79 80  1  0
 80 85  2  0
 80 81  1  0
 81 82  2  0
 82 83  1  0
 83 87  1  0
 84 83  2  0
 85 84  1  0
 86 85  1  0
 88 89  1  0
 89 92  1  0
 89 91  1  0
 90 88  2  0
 93 68  1  0
 93 94  1  0
 95 93  1  0
M  ISO  4   3 101   9 101  54 100  67 100
M  END
>  <TORSDO>  (8) 
F 19

>  <SCORE>  (8) 
-14.220

>  <name>  (8) 
7

>  <ligand_id>  (8) 
7

>  <original_smiles>  (8) 
[H]c1c([H])c([H])c2c(c1[H])C([H])([H])C([H])([H])C([H])([H])C2([H])N([H])C(=O)C1([H])N(C(=O)C([H])(N([H])C(=O)C([H])(N([H])C([H])([H])[H])C([H])([H])[H])C(C([H])([H])[H])(C([H])([H])[H])C([H])([H])[H])C([H])([H])c2c([H])c(Oc3nnc(C([H])([H])[N+]([H])([H])C4([H])C([H])([H])C([H])([H])N(C(=O)N5C([H])([H])C([H])([H])C([H])([H])C([H])(n6nc(-c7c([H])c([H])c(Oc8c([H])c([H])c(F)c([H])c8F)c([H])c7[H])c(C(=O)N([H])[H])c6N([H])[H])C5([H])[H])C([H])([H])C4([H])[H])c(C([H])([H])C([H])([H])[H])n3)c([H])c([H])c2C1([H])[H]

>  <smiles>  (8) 
[H]c1c([H])c([H])c2c(c1[H])C([H])([H])C([H])([H])C([H])([H])C2([H])N([H])C(=O)C1([H])N(C(=O)C([H])(N([H])C(=O)C([H])(N([H])C([H])([H])[H])C([H])([H])[H])C(C([H])([H])[H])(C([H])([H])[H])C([H])([H])[H])C([H])([H])c2c([H])c(Oc3nnc(C([H])([H])[N+]([H])([H])C4([H])C([H])([H])C([H])([H])N(C(=O)N5C([H])([H])C([H])([H])C([H])([H])C([H])(n6nc(-c7c([H])c([H])c(Oc8c([H])c([H])c(F)c([H])c8F)c([H])c7[H])c(C(=O)N([H])[H])c6N([H])[H])C5([H])[H])C([H])([H])C4([H])[H])c(C([H])([H])C([H])([H])[H])n3)c([H])c([H])c2C1([H])[H]

$$$$
8:0:0
     RDKit          3D

 90 96  0  0  1  0  0  0  0  0999 V2000
  -28.3880  -18.3040   20.3220 C   0  0  0  0  0  3  0  0  0  0  0  0
  -26.7850  -19.3600   19.3300 C   0  0  0  0  0  0  0  0  0  0  0  0
  -27.1880  -18.1400   19.7520 N   0  0  0  0  0  0  0  0  0  0  0  0
  -27.6280  -20.3660   19.4540 N   0  0  0  0  0  2  0  0  0  0  0  0
  -28.6930  -19.9150   20.1640 N   0  0  0  0  0  0  0  0  0  0  0  0
  -31.3240  -14.1020   20.5860 C   0  0  0  0  0  0  0  0  0  0  0  0
  -32.0250  -11.9300   19.3180 C   0  0  0  0  0  2  0  0  0  0  0  0
  -31.1390  -11.7460   18.0120 C   0  0  0  0  0  2  0  0  0  0  0  0
  -29.5990  -11.7410   18.2020 C   0  0  0  0  0  2  0  0  0  0  0  0
  -29.4270  -12.8070   19.1980 C   0  0  0  0  0  3  0  0  0  0  0  0
  -30.1400  -12.2150   20.5120 C   0  0  0  0  0  2  0  0  0  0  0  0
  -31.3560  -12.7690   20.3490 N   0  0  0  0  0  0  0  0  0  0  0  0
  -32.4410  -14.6150   20.2840 O   0  0  0  0  0  0  0  0  0  0  0  0
  -28.2240  -14.5310   21.2450 C   0  0  0  0  0  1  0  0  0  0  0  0
  -30.0900  -16.1550   21.3560 C   0  0  0  0  0  2  0  0  0  0  0  0
  -28.6480  -16.5030   20.9930 C   0  0  0  0  0  2  0  0  0  0  0  0
  -29.9830  -14.7100   21.0350 N   0  0  0  0  0  0  0  0  0  0  0  0
  -26.9090  -14.6380   19.6890 C   0  0  0  0  0  2  0  0  0  0  0  0
  -25.8650  -14.1110   20.9830 C   0  0  0  0  0  3  0  0  0  0  0  0
  -26.2330  -12.4720   21.5020 C   0  0  0  0  0  3  0  0  0  0  0  0
  -28.1840  -13.1460   19.5350 N   0  0  0  0  0  2  0  0  0  0  0  0
  -27.6290  -12.0180   20.8140 N   0  0  0  0  0  2  0  0  0  0  0  0
  -25.1830  -11.2210   21.3010 C   0  0  0  0  0  0  0  0  0  0  0  0
  -25.3690   -9.9620   21.9510 C   0  0  0  0  0  3  0  0  0  0  0  0
  -24.4470   -8.8610   21.9190 C   0  0  0  0  0  3  0  0  0  0  0  0
  -23.2380   -8.9040   21.1870 C   0  0  0  0  0  0  0  0  0  0  0  0
  -23.0720  -10.0630   20.3880 C   0  0  0  0  0  3  0  0  0  0  0  0
  -24.0170  -11.1560   20.4260 C   0  0  0  0  0  3  0  0  0  0  0  0
  -22.2820   -7.8800   21.1860 O   0  0  0  0  0  0  0  0  0  0  0  0
  -22.0890   -7.0170   22.2620 C   0  0  0  0  0  0  0  0  0  0  0  0
  -21.7310   -7.4990   23.5440 C   0  0  0  0  0  3  0  0  0  0  0  0
  -21.5200   -6.6060   24.6180 C   0  0  0  0  0  3  0  0  0  0  0  0
  -21.6500   -5.2180   24.4270 C   0  0  0  0  0  0  0  0  0  0  0  0
  -21.9730   -4.7240   23.1520 C   0  0  0  0  0  3  0  0  0  0  0  0
  -22.1810   -5.6130   22.0770 C   0  0  0  0  0  0  0  0  0  0  0  0
  -22.4700   -5.1010   20.8560 F   0  0  0  0  0  0  0  0  0  0  0  0
  -21.4610   -4.3650   25.4630 F   0  0  0  0  0  0  0  0  0  0  0  0
  -24.4250  -14.4890   21.0410 C   0  0  0  0  0  0  0  0  0  0  0  0
  -23.6410  -13.9150   21.9580 N   0  0  0  0  0  0  0  0  0  0  0  0
  -23.9800  -15.2970   20.2450 O   0  0  0  0  0  0  0  0  0  0  0  0
  -24.0000  -13.2450   22.6190 H   0  0  0  0  0  0  0  0  0  0  0  0
  -22.6650  -14.1700   22.0060 H   0  0  0  0  0  0  0  0  0  0  0  0
  -27.1410  -15.8540   19.1770 N   0  0  0  0  0  0  0  0  0  0  0  0
  -26.7470  -16.6870   19.6110 H   0  0  0  0  0  0  0  0  0  0  0  0
  -27.9540  -16.0560   18.6100 H   0  0  0  0  0  0  0  0  0  0  0  0
  -25.1210  -18.9580   17.4620 C   0  0  0  0  0  1  0  0  0  0  0  0
  -25.3930  -19.5850   18.8340 C   0  0  0  0  0  2  0  0  0  0  0  0
  -29.5580  -21.5300   20.3730 C   0  0  0  0  0  1  0  0  0  0  0  0
  -29.1300  -23.5110   20.3840 C   0  0  0  0  0  1  0  0  0  0  0  0
  -29.7420  -25.2160   20.6560 O   0  0  0  0  0  0  0  0  0  0  0  0
  -26.3330  -31.3490   23.9320 C   0  0  0  0  0  0  0  0  0  0  0  0
  -29.0660  -26.6310   20.6100 C   0  0  0  0  0  0  0  0  0  0  0  0
  -25.4180  -30.2600   21.9360 C   0  0  0  0  0  3  0  0  0  0  0  0
  -27.0530  -28.8750   20.4690 C   0  0  0  0  0  0  0  0  0  0  0  0
  -27.9840  -30.3440   22.2280 C   0  0  0  0  0  2  0  0  0  0  0  0
  -28.1210  -29.0290   21.3590 C   0  0  0  0  0  0  0  0  0  0  0  0
  -29.1430  -27.9350   21.3990 C   0  0  0  0  0  3  0  0  0  0  0  0
  -28.0720  -26.7750   19.6260 C   0  0  0  0  0  3  0  0  0  0  0  0
  -27.0940  -27.8000   19.5740 C   0  0  0  0  0  3  0  0  0  0  0  0
  -25.8640  -29.8430   20.5070 C   0  0  0  0  0  2  0  0  0  0  0  0
  -26.5970  -30.6820   22.7570 N   0  0  0  0  0  0  0  0  0  0  0  0
  -25.1710  -31.5640   24.3180 O   0  0  0  0  0  0  0  0  0  0  0  0
  -24.6040  -29.1180   22.6020 C   0  0  0  0  0  0  0  0  0  0  0  0
  -23.2810  -29.0570   22.3570 N   0  0  0  0  0  0  0  0  0  0  0  0
  -25.1750  -28.2940   23.3220 O   0  0  0  0  0  0  0  0  0  0  0  0
  -22.8720  -29.7740   21.7730 H   0  0  0  0  0  0  0  0  0  0  0  0
  -19.8360  -27.9020   22.3220 C   0  0  0  0  0  0  0  0  0  0  0  0
  -22.3680  -28.0170   22.8500 C   0  0  0  0  0  3  0  0  0  0  0  0
  -22.4930  -26.7250   22.0090 C   0  0  0  0  0  2  0  0  0  0  0  0
  -21.4820  -26.6540   20.8600 C   0  0  0  0  0  2  0  0  0  0  0  0
  -20.0500  -26.7160   21.3980 C   0  0  0  0  0  2  0  0  0  0  0  0
  -20.9240  -28.5230   22.9920 C   0  0  0  0  0  0  0  0  0  0  0  0
  -20.6700  -29.6390   23.8180 C   0  0  0  0  0  3  0  0  0  0  0  0
  -19.3620  -30.1350   23.9790 C   0  0  0  0  0  3  0  0  0  0  0  0
  -18.2880  -29.5090   23.3240 C   0  0  0  0  0  3  0  0  0  0  0  0
  -18.5250  -28.3930   22.5010 C   0  0  0  0  0  3  0  0  0  0  0  0
  -27.4740  -31.8870   24.8470 C   0  0  0  0  0  3  0  0  0  0  0  0
  -27.8870  -30.8680   25.9800 C   0  0  1  0  0  0  0  0  0  0  0  0
  -26.6990  -30.3760   26.8410 C   0  0  0  0  0  1  0  0  0  0  0  0
  -28.5760  -29.6190   25.3860 C   0  0  0  0  0  1  0  0  0  0  0  0
  -28.9230  -31.5260   26.9230 C   0  0  0  0  0  1  0  0  0  0  0  0
  -27.0170  -33.1510   25.4590 N   0  0  0  0  0  0  0  0  0  0  0  0
  -27.5180  -34.3660   25.1960 C   0  0  0  0  0  0  0  0  0  0  0  0
  -28.4700  -34.5360   24.4320 O   0  0  0  0  0  0  0  0  0  0  0  0
  -26.2010  -33.0960   26.0520 H   0  0  0  0  0  0  0  0  0  0  0  0
  -25.9420  -36.3110   24.8980 C   0  0  0  0  0  1  0  0  0  0  0  0
  -26.8660  -35.5820   25.8880 C   0  0  0  0  0  3  0  0  0  0  0  0
  -28.5680  -36.0240   27.6050 C   0  0  0  0  0  1  0  0  0  0  0  0
  -27.8460  -36.5420   26.4460 N   0  0  0  0  0  0  0  0  0  0  0  0
  -27.3880  -37.4080   26.7190 H   0  0  0  0  0  0  0  0  0  0  0  0
  1 16  1  0
  2  4  1  0
  2  3  2  0
  3  1  1  0
  4  5  1  0
  5  1  1  0
  5 48  1  0
  6 17  1  0
  7 12  1  0
  8  9  1  0
  8  7  1  0
  9 10  1  0
 10 21  1  0
 10 11  1  0
 12 11  1  0
 12  6  1  0
 13  6  2  0
 16 15  1  0
 17 14  1  0
 17 15  1  0
 19 18  1  0
 19 38  1  0
 19 20  1  0
 20 22  1  0
 21 22  1  0
 23 20  1  0
 23 24  1  0
 25 24  2  0
 26 25  1  0
 27 28  1  0
 27 26  2  0
 28 23  2  0
 29 26  1  0
 29 30  1  0
 30 31  1  0
 31 32  2  0
 33 32  1  0
 33 37  1  0
 34 33  2  0
 35 30  2  0
 35 34  1  0
 36 35  1  0
 38 39  1  0
 39 42  1  0
 39 41  1  0
 40 38  2  0
 43 44  1  0
 43 18  1  0
 45 43  1  0
 46 47  1  0
 47  2  1  0
 49 50  1  0
 51 62  2  0
 52 50  1  0
 52 57  1  0
 53 63  1  0
 53 61  1  0
 54 60  1  0
 54 56  1  0
 55 61  1  0
 56 57  2  0
 56 55  1  0
 58 52  2  0
 59 58  1  0
 59 54  2  0
 60 53  1  0
 61 51  1  0
 63 65  2  0
 64 63  1  0
 66 64  1  0
 67 76  2  0
 67 72  1  0
 68 64  1  0
 68 72  1  0
 69 68  1  0
 70 71  1  0
 70 69  1  0
 71 67  1  0
 72 73  2  0
 73 74  1  0
 75 74  2  0
 76 75  1  0
 77 51  1  0
 77 82  1  0
 77 78  1  0
 78 79  1  1
 78 81  1  0
 80 78  1  0
 82 85  1  0
 83 82  1  0
 83 87  1  0
 84 83  2  0
 87 86  1  0
 87 89  1  0
 89 90  1  0
 89 88  1  0
M  ISO  4   6 100  17 100  49 101  50 101
M  END
>  <TORSDO>  (9) 
F 19

>  <SCORE>  (9) 
-8.263

>  <name>  (9) 
8

>  <ligand_id>  (9) 
8

>  <original_smiles>  (9) 
[H]c1c([H])c([H])c2c(c1[H])C([H])([H])C([H])([H])C([H])([H])C2([H])N([H])C(=O)C1([H])N(C(=O)C([H])(N([H])C(=O)C([H])(N([H])C([H])([H])[H])C([H])([H])[H])C(C([H])([H])[H])(C([H])([H])[H])C([H])([H])[H])C([H])([H])c2c([H])c(OC([H])([H])C([H])([H])n3nc(C([H])([H])C([H])([H])[H])nc3C3([H])C([H])([H])N(C(=O)N4C([H])([H])C([H])([H])C([H])([H])C([H])(n5nc(-c6c([H])c([H])c(Oc7c([H])c([H])c(F)c([H])c7F)c([H])c6[H])c(C(=O)N([H])[H])c5N([H])[H])C4([H])[H])C3([H])[H])c([H])c([H])c2C1([H])[H]

>  <smiles>  (9) 
[H]c1c([H])c([H])c2c(c1[H])C([H])([H])C([H])([H])C([H])([H])C2([H])N([H])C(=O)C1([H])N(C(=O)C([H])(N([H])C(=O)C([H])(N([H])C([H])([H])[H])C([H])([H])[H])C(C([H])([H])[H])(C([H])([H])[H])C([H])([H])[H])C([H])([H])c2c([H])c(OC([H])([H])C([H])([H])n3nc(C([H])([H])C([H])([H])[H])nc3C3([H])C([H])([H])N(C(=O)N4C([H])([H])C([H])([H])C([H])([H])C([H])(n5nc(-c6c([H])c([H])c(Oc7c([H])c([H])c(F)c([H])c7F)c([H])c6[H])c(C(=O)N([H])[H])c5N([H])[H])C4([H])[H])C3([H])[H])c([H])c([H])c2C1([H])[H]

$$$$
9:0:0
     RDKit          3D

 95104  0  0  1  0  0  0  0  0999 V2000
  -30.0110  -19.2240   20.2310 C   0  0  0  0  0  0  0  0  0  0  0  0
  -28.3080  -20.6660   19.5820 C   0  0  0  0  0  0  0  0  0  0  0  0
  -30.8240  -20.3640   20.5280 C   0  0  0  0  0  0  0  0  0  0  0  0
  -29.1260  -21.8020   19.8250 C   0  0  0  0  0  0  0  0  0  0  0  0
  -26.9050  -20.8030   19.0220 C   0  0  0  0  0  1  0  0  0  0  0  0
  -32.9700  -21.3960   21.2550 C   0  0  0  0  0  1  0  0  0  0  0  0
  -28.7360  -19.3950   19.8010 N   0  0  0  0  0  0  0  0  0  0  0  0
  -30.3740  -21.6410   20.3290 N   0  0  0  0  0  0  0  0  0  0  0  0
  -32.1290  -20.2250   21.0240 N   0  0  0  0  0  0  0  0  0  0  0  0
  -32.4950  -19.3020   21.2370 H   0  0  0  0  0  0  0  0  0  0  0  0
  -30.9810  -14.6320   20.4320 C   0  0  0  0  0  0  0  0  0  0  0  0
  -30.7400  -12.4100   19.3730 C   0  0  0  0  0  2  0  0  0  0  0  0
  -29.8210  -12.5550   18.1410 C   0  0  0  0  0  2  0  0  0  0  0  0
  -28.3360  -12.4320   18.5440 C   0  0  0  0  0  2  0  0  0  0  0  0
  -27.9680  -13.3170   19.7660 C   0  0  0  0  0  3  0  0  0  0  0  0
  -29.0010  -13.1460   20.9020 C   0  0  0  0  0  2  0  0  0  0  0  0
  -30.3320  -13.4350   20.3460 N   0  0  0  0  0  0  0  0  0  0  0  0
  -32.1490  -14.7870   20.0660 O   0  0  0  0  0  0  0  0  0  0  0  0
  -30.5190  -16.8720   21.5690 C   0  0  0  0  0  2  0  0  0  0  0  0
  -29.7070  -16.6120   19.6690 C   0  0  0  0  0  2  0  0  0  0  0  0
  -30.4990  -17.7520   20.3160 C   0  0  0  0  0  3  0  0  0  0  0  0
  -30.1870  -15.6960   20.7270 N   0  0  0  0  0  0  0  0  0  0  0  0
  -25.5690  -13.9680   20.4260 C   0  0  0  0  0  0  0  0  0  0  0  0
  -24.4830  -13.2170   20.7860 C   0  0  0  0  0  0  0  0  0  0  0  0
  -24.9250  -11.8590   20.7820 C   0  0  0  0  0  0  0  0  0  0  0  0
  -26.6050  -13.0690   20.2260 N   0  0  0  0  0  0  0  0  0  0  0  0
  -26.2200  -11.7950   20.4980 N   0  0  0  0  0  0  0  0  0  0  0  0
  -24.1770  -10.6100   20.9740 C   0  0  0  0  0  0  0  0  0  0  0  0
  -24.5630   -9.6620   21.9480 C   0  0  0  0  0  3  0  0  0  0  0  0
  -23.8170   -8.4780   22.1270 C   0  0  0  0  0  3  0  0  0  0  0  0
  -22.6720   -8.2310   21.3320 C   0  0  0  0  0  0  0  0  0  0  0  0
  -22.3070   -9.1680   20.3480 C   0  0  0  0  0  3  0  0  0  0  0  0
  -23.0540  -10.3450   20.1680 C   0  0  0  0  0  3  0  0  0  0  0  0
  -21.9040   -7.0960   21.4170 O   0  0  0  0  0  0  0  0  0  0  0  0
  -21.7930   -6.3890   22.5880 C   0  0  0  0  0  0  0  0  0  0  0  0
  -21.2600   -6.9680   23.7590 C   0  0  0  0  0  3  0  0  0  0  0  0
  -21.0970   -6.1860   24.9210 C   0  0  0  0  0  3  0  0  0  0  0  0
  -21.4590   -4.8250   24.9100 C   0  0  0  0  0  0  0  0  0  0  0  0
  -21.9860   -4.2450   23.7420 C   0  0  0  0  0  3  0  0  0  0  0  0
  -22.1490   -5.0250   22.5840 C   0  0  0  0  0  0  0  0  0  0  0  0
  -22.6370   -4.4570   21.4540 F   0  0  0  0  0  0  0  0  0  0  0  0
  -21.2960   -4.0710   26.0220 F   0  0  0  0  0  0  0  0  0  0  0  0
  -23.0890  -13.7180   21.0270 C   0  0  0  0  0  0  0  0  0  0  0  0
  -22.3390  -13.0530   21.8970 N   0  0  0  0  0  0  0  0  0  0  0  0
  -22.6720  -14.7380   20.4790 O   0  0  0  0  0  0  0  0  0  0  0  0
  -22.6850  -12.2300   22.3660 H   0  0  0  0  0  0  0  0  0  0  0  0
  -21.4010  -13.3730   22.0980 H   0  0  0  0  0  0  0  0  0  0  0  0
  -25.7580  -15.3340   20.2320 N   0  0  0  0  0  0  0  0  0  0  0  0
  -25.0020  -16.0040   20.3170 H   0  0  0  0  0  0  0  0  0  0  0  0
  -26.6300  -15.7540   19.9380 H   0  0  0  0  0  0  0  0  0  0  0  0
  -28.6910  -23.0960   19.4570 N   0  0  0  0  0  0  0  0  0  0  0  0
  -27.7810  -23.0850   19.0080 H   0  0  0  0  0  0  0  0  0  0  0  0
  -28.9070  -24.2900   20.2920 C   0  0  0  0  0  2  0  0  0  0  0  0
  -29.0610  -25.6050   19.4670 C   0  0  0  0  0  2  0  0  0  0  0  0
  -28.7990  -26.8180   20.2140 O   0  0  0  0  0  0  0  0  0  0  0  0
  -24.5670  -31.7300   23.2100 C   0  0  0  0  0  0  0  0  0  0  0  0
  -27.5730  -27.4710   20.1530 C   0  0  0  0  0  0  0  0  0  0  0  0
  -23.5180  -30.3380   21.4560 C   0  0  0  0  0  3  0  0  0  0  0  0
  -25.1140  -28.9010   20.0770 C   0  0  0  0  0  0  0  0  0  0  0  0
  -26.0380  -30.7930   21.4220 C   0  0  0  0  0  2  0  0  0  0  0  0
  -26.2160  -29.4460   20.7470 C   0  0  0  0  0  0  0  0  0  0  0  0
  -27.4440  -28.7390   20.7790 C   0  0  0  0  0  3  0  0  0  0  0  0
  -26.4360  -26.9390   19.4990 C   0  0  0  0  0  3  0  0  0  0  0  0
  -25.2210  -27.6470   19.4540 C   0  0  0  0  0  3  0  0  0  0  0  0
  -23.8360  -29.7080   20.0730 C   0  0  0  0  0  2  0  0  0  0  0  0
  -24.7230  -30.9680   22.0890 N   0  0  0  0  0  0  0  0  0  0  0  0
  -23.4450  -31.9430   23.6890 O   0  0  0  0  0  0  0  0  0  0  0  0
  -22.8510  -29.2630   22.3440 C   0  0  0  0  0  0  0  0  0  0  0  0
  -21.5320  -29.0780   22.1720 N   0  0  0  0  0  0  0  0  0  0  0  0
  -23.5180  -28.5990   23.1420 O   0  0  0  0  0  0  0  0  0  0  0  0
  -21.0540  -29.6660   21.5030 H   0  0  0  0  0  0  0  0  0  0  0  0
  -18.1400  -27.9020   22.5940 C   0  0  0  0  0  0  0  0  0  0  0  0
  -20.7040  -28.0930   22.8670 C   0  0  0  0  0  3  0  0  0  0  0  0
  -20.7780  -26.7140   22.1690 C   0  0  0  0  0  2  0  0  0  0  0  0
  -19.6630  -26.4970   21.1410 C   0  0  0  0  0  2  0  0  0  0  0  0
  -18.2890  -26.6110   21.8080 C   0  0  0  0  0  2  0  0  0  0  0  0
  -19.2740  -28.6060   23.0780 C   0  0  0  0  0  0  0  0  0  0  0  0
  -19.0830  -29.8190   23.7740 C   0  0  0  0  0  3  0  0  0  0  0  0
  -17.7880  -30.3300   23.9880 C   0  0  0  0  0  3  0  0  0  0  0  0
  -16.6690  -29.6200   23.5220 C   0  0  0  0  0  3  0  0  0  0  0  0
  -16.8440  -28.4080   22.8320 C   0  0  0  0  0  3  0  0  0  0  0  0
  -25.7870  -32.3880   23.9280 C   0  0  0  0  0  3  0  0  0  0  0  0
  -26.1860  -31.6580   25.2690 C   0  0  1  0  0  0  0  0  0  0  0  0
  -25.0000  -31.4480   26.2390 C   0  0  0  0  0  1  0  0  0  0  0  0
  -26.8050  -30.2730   24.9710 C   0  0  0  0  0  1  0  0  0  0  0  0
  -27.2720  -32.4760   26.0090 C   0  0  0  0  0  1  0  0  0  0  0  0
  -25.4440  -33.7930   24.1850 N   0  0  0  0  0  0  0  0  0  0  0  0
  -25.8470  -34.8240   23.4320 C   0  0  0  0  0  0  0  0  0  0  0  0
  -26.6180  -34.6940   22.4770 O   0  0  0  0  0  0  0  0  0  0  0  0
  -24.7710  -33.9660   24.9160 H   0  0  0  0  0  0  0  0  0  0  0  0
  -24.1730  -36.6040   22.8380 C   0  0  0  0  0  1  0  0  0  0  0  0
  -25.3140  -36.2220   23.7960 C   0  0  0  0  0  3  0  0  0  0  0  0
  -27.3270  -37.1440   24.8560 C   0  0  0  0  0  1  0  0  0  0  0  0
  -26.3540  -37.2730   23.7750 N   0  0  0  0  0  0  0  0  0  0  0  0
  -25.9360  -38.1970   23.8340 H   0  0  0  0  0  0  0  0  0  0  0  0
  1  3  1  0
  2  7  1  0
  2  4  2  0
  3  9  1  0
  4  8  1  0
  5  2  1  0
  7  1  2  0
  8  3  2  0
  9 10  1  0
  9  6  1  0
 11 22  1  0
 12 17  1  0
 13 14  1  0
 13 12  1  0
 15 14  1  0
 15 26  1  0
 15 16  1  0
 17 11  1  0
 17 16  1  0
 18 11  2  0
 20 21  1  0
 20 22  1  0
 21  1  1  0
 21 19  1  0
 22 19  1  0
 23 24  2  0
 24 43  1  0
 25 24  1  0
 25 28  1  0
 26 23  1  0
 26 27  1  0
 27 25  2  0
 28 29  1  0
 29 30  2  0
 31 34  1  0
 31 30  1  0
 32 31  2  0
 33 32  1  0
 33 28  2  0
 34 35  1  0
 35 36  1  0
 36 37  2  0
 38 37  1  0
 38 42  1  0
 39 38  2  0
 40 35  2  0
 40 39  1  0
 41 40  1  0
 43 44  1  0
 44 47  1  0
 44 46  1  0
 45 43  2  0
 48 49  1  0
 48 23  1  0
 50 48  1  0
 51  4  1  0
 51 53  1  0
 52 51  1  0
 54 55  1  0
 54 53  1  0
 56 67  2  0
 57 55  1  0
 57 62  1  0
 58 66  1  0
 58 68  1  0
 59 61  1  0
 60 66  1  0
 61 62  2  0
 61 60  1  0
 63 57  2  0
 64 63  1  0
 64 59  2  0
 65 59  1  0
 65 58  1  0
 66 56  1  0
 68 70  2  0
 69 68  1  0
 71 69  1  0
 72 81  2  0
 72 77  1  0
 73 69  1  0
 73 77  1  0
 74 73  1  0
 75 76  1  0
 75 74  1  0
 76 72  1  0
 77 78  2  0
 78 79  1  0
 80 79  2  0
 81 80  1  0
 82 56  1  0
 82 87  1  0
 82 83  1  0
 83 86  1  1
 83 84  1  0
 85 83  1  0
 87 90  1  0
 88 92  1  0
 88 87  1  0
 89 88  2  0
 92 91  1  0
 94 92  1  0
 94 95  1  0
 94 93  1  0
M  ISO  4  11 100  22 100  54 101  55 101
M  END
>  <TORSDO>  (10) 
F 19

>  <SCORE>  (10) 
-14.089

>  <name>  (10) 
9

>  <ligand_id>  (10) 
9

>  <original_smiles>  (10) 
[H]c1c([H])c([H])c2c(c1[H])C([H])([H])C([H])([H])C([H])([H])C2([H])N([H])C(=O)C1([H])N(C(=O)C([H])(N([H])C(=O)C([H])(N([H])C([H])([H])[H])C([H])([H])[H])C(C([H])([H])[H])(C([H])([H])[H])C([H])([H])[H])C([H])([H])c2c([H])c(OC([H])([H])C([H])([H])N([H])c3nc(N([H])C([H])([H])[H])c(C4([H])C([H])([H])N(C(=O)N5C([H])([H])C([H])([H])C([H])([H])C([H])(n6nc(-c7c([H])c([H])c(Oc8c([H])c([H])c(F)c([H])c8F)c([H])c7[H])c(C(=O)N([H])[H])c6N([H])[H])C5([H])[H])C4([H])[H])nc3C([H])([H])[H])c([H])c([H])c2C1([H])[H]

>  <smiles>  (10) 
[H]c1c([H])c([H])c2c(c1[H])C([H])([H])C([H])([H])C([H])([H])C2([H])N([H])C(=O)C1([H])N(C(=O)C([H])(N([H])C(=O)C([H])(N([H])C([H])([H])[H])C([H])([H])[H])C(C([H])([H])[H])(C([H])([H])[H])C([H])([H])[H])C([H])([H])c2c([H])c(OC([H])([H])C([H])([H])N([H])c3nc(N([H])C([H])([H])[H])c(C4([H])C([H])([H])N(C(=O)N5C([H])([H])C([H])([H])C([H])([H])C([H])(n6nc(-c7c([H])c([H])c(Oc8c([H])c([H])c(F)c([H])c8F)c([H])c7[H])c(C(=O)N([H])[H])c6N([H])[H])C5([H])[H])C4([H])[H])nc3C([H])([H])[H])c([H])c([H])c2C1([H])[H]

$$$$
10:0:0
     RDKit          3D

 88 97  0  0  1  0  0  0  0  0999 V2000
  -28.3090  -21.7580   19.6500 C   0  0  0  0  0  3  0  0  0  0  0  0
  -28.6570  -23.0670   20.1120 C   0  0  0  0  0  0  0  0  0  0  0  0
  -29.8030  -22.7290   20.8740 N   0  0  0  0  0  0  0  0  0  0  0  0
  -30.0950  -21.4120   20.8640 N   0  0  0  0  0  0  0  0  0  0  0  0
  -29.2060  -20.7030   20.0920 N   0  0  0  0  0  0  0  0  0  0  0  0
  -30.6400  -15.1840   19.9310 C   0  0  0  0  0  0  0  0  0  0  0  0
  -30.4850  -12.8160   18.9630 C   0  0  0  0  0  2  0  0  0  0  0  0
  -29.4820  -12.7100   17.7910 C   0  0  0  0  0  2  0  0  0  0  0  0
  -28.0590  -12.4390   18.3140 C   0  0  0  0  0  2  0  0  0  0  0  0
  -27.6980  -13.3530   19.5130 C   0  0  0  0  0  3  0  0  0  0  0  0
  -28.8260  -13.4100   20.5680 C   0  0  0  0  0  2  0  0  0  0  0  0
  -30.0240  -13.9150   19.8770 N   0  0  0  0  0  0  0  0  0  0  0  0
  -31.8280  -15.1870   19.5780 O   0  0  0  0  0  0  0  0  0  0  0  0
  -28.3680  -18.2750   20.9300 C   0  0  0  0  0  2  0  0  0  0  0  0
  -28.6250  -16.7290   20.6910 C   0  0  0  0  0  2  0  0  0  0  0  0
  -30.4100  -17.9560   19.8580 C   0  0  0  0  0  2  0  0  0  0  0  0
  -29.1840  -19.0820   19.9100 C   0  0  0  0  0  3  0  0  0  0  0  0
  -29.9570  -16.4660   20.1070 N   0  0  0  0  0  0  0  0  0  0  0  0
  -25.3790  -13.8870   20.4480 C   0  0  0  0  0  0  0  0  0  0  0  0
  -24.3450  -13.0940   20.8570 C   0  0  0  0  0  0  0  0  0  0  0  0
  -24.8100  -11.7490   20.7430 C   0  0  0  0  0  0  0  0  0  0  0  0
  -26.4040  -13.0250   20.0980 N   0  0  0  0  0  0  0  0  0  0  0  0
  -26.0780  -11.7290   20.3420 N   0  0  0  0  0  0  0  0  0  0  0  0
  -24.1000  -10.4780   20.9330 C   0  0  0  0  0  0  0  0  0  0  0  0
  -24.5480   -9.5130   21.8620 C   0  0  0  0  0  3  0  0  0  0  0  0
  -23.8350   -8.3090   22.0410 C   0  0  0  0  0  3  0  0  0  0  0  0
  -22.6600   -8.0620   21.2920 C   0  0  0  0  0  0  0  0  0  0  0  0
  -22.2310   -9.0150   20.3530 C   0  0  0  0  0  3  0  0  0  0  0  0
  -22.9450  -10.2110   20.1700 C   0  0  0  0  0  3  0  0  0  0  0  0
  -21.9160   -6.9090   21.3830 O   0  0  0  0  0  0  0  0  0  0  0  0
  -21.8080   -6.2130   22.5590 C   0  0  0  0  0  0  0  0  0  0  0  0
  -21.2660   -6.7980   23.7250 C   0  0  0  0  0  3  0  0  0  0  0  0
  -21.1080   -6.0240   24.8920 C   0  0  0  0  0  3  0  0  0  0  0  0
  -21.4830   -4.6680   24.8950 C   0  0  0  0  0  0  0  0  0  0  0  0
  -22.0170   -4.0830   23.7340 C   0  0  0  0  0  3  0  0  0  0  0  0
  -22.1770   -4.8530   22.5690 C   0  0  0  0  0  0  0  0  0  0  0  0
  -22.6730   -4.2780   21.4470 F   0  0  0  0  0  0  0  0  0  0  0  0
  -21.3230   -3.9210   26.0140 F   0  0  0  0  0  0  0  0  0  0  0  0
  -22.9690  -13.5570   21.2380 C   0  0  0  0  0  0  0  0  0  0  0  0
  -22.3040  -12.8350   22.1320 N   0  0  0  0  0  0  0  0  0  0  0  0
  -22.4940  -14.5950   20.7770 O   0  0  0  0  0  0  0  0  0  0  0  0
  -22.7020  -11.9970   22.5280 H   0  0  0  0  0  0  0  0  0  0  0  0
  -21.3820  -13.1280   22.4240 H   0  0  0  0  0  0  0  0  0  0  0  0
  -25.5190  -15.2640   20.3180 N   0  0  0  0  0  0  0  0  0  0  0  0
  -24.7700  -15.9090   20.5430 H   0  0  0  0  0  0  0  0  0  0  0  0
  -26.3520  -15.7250   19.9810 H   0  0  0  0  0  0  0  0  0  0  0  0
  -27.8600  -24.5530   19.9400 C   0  0  0  0  0  2  0  0  0  0  0  0
  -28.2320  -26.0660   20.2740 O   0  0  0  0  0  0  0  0  0  0  0  0
  -24.6840  -31.8670   23.3210 C   0  0  0  0  0  0  0  0  0  0  0  0
  -27.2250  -27.1300   20.2050 C   0  0  0  0  0  0  0  0  0  0  0  0
  -23.4780  -30.5040   21.6640 C   0  0  0  0  0  3  0  0  0  0  0  0
  -24.9180  -28.9450   20.2030 C   0  0  0  0  0  0  0  0  0  0  0  0
  -26.0390  -30.7400   21.5050 C   0  0  0  0  0  2  0  0  0  0  0  0
  -26.1040  -29.3540   20.8260 C   0  0  0  0  0  0  0  0  0  0  0  0
  -27.2560  -28.4640   20.8110 C   0  0  0  0  0  3  0  0  0  0  0  0
  -26.0120  -26.8580   19.5280 C   0  0  0  0  0  3  0  0  0  0  0  0
  -24.8910  -27.7140   19.5370 C   0  0  0  0  0  3  0  0  0  0  0  0
  -23.6950  -29.8500   20.2740 C   0  0  0  0  0  2  0  0  0  0  0  0
  -24.7550  -31.0600   22.2170 N   0  0  0  0  0  0  0  0  0  0  0  0
  -23.6000  -32.1490   23.8540 O   0  0  0  0  0  0  0  0  0  0  0  0
  -22.7920  -29.4870   22.6110 C   0  0  0  0  0  0  0  0  0  0  0  0
  -21.4640  -29.3090   22.4700 N   0  0  0  0  0  0  0  0  0  0  0  0
  -23.4570  -28.8580   23.4380 O   0  0  0  0  0  0  0  0  0  0  0  0
  -20.9820  -29.8660   21.7790 H   0  0  0  0  0  0  0  0  0  0  0  0
  -18.0880  -28.0760   22.9380 C   0  0  0  0  0  0  0  0  0  0  0  0
  -20.6420  -28.3590   23.2270 C   0  0  0  0  0  3  0  0  0  0  0  0
  -20.7610  -26.9330   22.6400 C   0  0  0  0  0  2  0  0  0  0  0  0
  -19.6700  -26.6100   21.6140 C   0  0  0  0  0  2  0  0  0  0  0  0
  -18.2810  -26.7370   22.2470 C   0  0  0  0  0  2  0  0  0  0  0  0
  -19.1960  -28.8460   23.3830 C   0  0  0  0  0  0  0  0  0  0  0  0
  -18.9590  -30.0980   23.9890 C   0  0  0  0  0  3  0  0  0  0  0  0
  -17.6480  -30.5830   24.1520 C   0  0  0  0  0  3  0  0  0  0  0  0
  -16.5540  -29.8120   23.7210 C   0  0  0  0  0  3  0  0  0  0  0  0
  -16.7750  -28.5590   23.1210 C   0  0  0  0  0  3  0  0  0  0  0  0
  -25.9640  -32.4910   23.9580 C   0  0  0  0  0  3  0  0  0  0  0  0
  -25.6650  -33.8940   24.2870 N   0  0  0  0  0  0  0  0  0  0  0  0
  -25.9780  -34.9450   23.5170 C   0  0  0  0  0  0  0  0  0  0  0  0
  -26.6130  -34.8350   22.4660 O   0  0  0  0  0  0  0  0  0  0  0  0
  -25.0980  -34.0540   25.1070 H   0  0  0  0  0  0  0  0  0  0  0  0
  -24.2270  -36.7340   23.2430 C   0  0  0  0  0  1  0  0  0  0  0  0
  -25.5130  -36.3400   23.9870 C   0  0  0  0  0  3  0  0  0  0  0  0
  -27.6820  -37.2480   24.6950 C   0  0  0  0  0  1  0  0  0  0  0  0
  -26.5340  -37.3940   23.8030 N   0  0  0  0  0  0  0  0  0  0  0  0
  -26.1330  -38.3150   23.9520 H   0  0  0  0  0  0  0  0  0  0  0  0
  -26.4540  -31.7180   25.2450 C   0  0  1  0  0  0  0  0  0  0  0  0
  -25.3420  -31.4970   26.2990 C   0  0  0  0  0  1  0  0  0  0  0  0
  -27.0270  -30.3310   24.8730 C   0  0  0  0  0  1  0  0  0  0  0  0
  -27.6050  -32.5030   25.9180 C   0  0  0  0  0  1  0  0  0  0  0  0
  1  5  1  0
  1  2  2  0
  2  3  1  0
  4  3  2  0
  5  4  1  0
  6 18  1  0
  7 12  1  0
  8  9  1  0
  8  7  1  0
 10  9  1  0
 10 22  1  0
 10 11  1  0
 12  6  1  0
 12 11  1  0
 13  6  2  0
 15 14  1  0
 16 18  1  0
 17 16  1  0
 17  5  1  0
 17 14  1  0
 18 15  1  0
 19 20  2  0
 20 39  1  0
 21 20  1  0
 21 24  1  0
 22 23  1  0
 22 19  1  0
 23 21  2  0
 24 25  1  0
 25 26  2  0
 27 30  1  0
 27 26  1  0
 28 27  2  0
 29 28  1  0
 29 24  2  0
 30 31  1  0
 31 36  2  0
 31 32  1  0
 32 33  2  0
 33 34  1  0
 34 38  1  0
 35 34  2  0
 36 35  1  0
 37 36  1  0
 39 40  1  0
 40 43  1  0
 40 42  1  0
 41 39  2  0
 44 19  1  0
 44 45  1  0
 46 44  1  0
 47  2  1  0
 47 48  1  0
 49 60  2  0
 50 48  1  0
 50 55  1  0
 51 59  1  0
 51 61  1  0
 52 58  1  0
 52 54  1  0
 53 59  1  0
 54 53  1  0
 55 54  2  0
 56 57  1  0
 56 50  2  0
 57 52  2  0
 58 51  1  0
 59 49  1  0
 61 63  2  0
 62 61  1  0
 64 62  1  0
 65 74  2  0
 65 70  1  0
 66 62  1  0
 66 70  1  0
 67 66  1  0
 68 69  1  0
 68 67  1  0
 69 65  1  0
 70 71  2  0
 71 72  1  0
 73 72  2  0
 74 73  1  0
 75 49  1  0
 75 76  1  0
 75 85  1  0
 76 79  1  0
 77 81  1  0
 77 76  1  0
 78 77  2  0
 81 80  1  0
 83 84  1  0
 83 81  1  0
 83 82  1  0
 85 88  1  1
 85 86  1  0
 87 85  1  0
M  ISO  4   6 100  18 100  47 101  48 101
M  END
>  <TORSDO>  (11) 
F 17

>  <SCORE>  (11) 
-15.040

>  <name>  (11) 
10

>  <ligand_id>  (11) 
10

>  <original_smiles>  (11) 
[H]c1c([H])c([H])c2c(c1[H])C([H])([H])C([H])([H])C([H])([H])C2([H])N([H])C(=O)C1([H])N(C(=O)C([H])(N([H])C(=O)C([H])(N([H])C([H])([H])[H])C([H])([H])[H])C(C([H])([H])[H])(C([H])([H])[H])C([H])([H])[H])C([H])([H])c2c([H])c(OC([H])([H])c3nnn(C4([H])C([H])([H])N(C(=O)N5C([H])([H])C([H])([H])C([H])([H])C([H])(n6nc(-c7c([H])c([H])c(Oc8c([H])c([H])c(F)c([H])c8F)c([H])c7[H])c(C(=O)N([H])[H])c6N([H])[H])C5([H])[H])C([H])([H])C4([H])[H])c3[H])c([H])c([H])c2C1([H])[H]

>  <smiles>  (11) 
[H]c1c([H])c([H])c2c(c1[H])C([H])([H])C([H])([H])C([H])([H])C2([H])N([H])C(=O)C1([H])N(C(=O)C([H])(N([H])C(=O)C([H])(N([H])C([H])([H])[H])C([H])([H])[H])C(C([H])([H])[H])(C([H])([H])[H])C([H])([H])[H])C([H])([H])c2c([H])c(OC([H])([H])c3nnn(C4([H])C([H])([H])N(C(=O)N5C([H])([H])C([H])([H])C([H])([H])C([H])(n6nc(-c7c([H])c([H])c(Oc8c([H])c([H])c(F)c([H])c8F)c([H])c7[H])c(C(=O)N([H])[H])c6N([H])[H])C5([H])[H])C([H])([H])C4([H])[H])c3[H])c([H])c([H])c2C1([H])[H]

$$$$
11:0:0
     RDKit          3D

 88 97  0  0  1  0  0  0  0  0999 V2000
  -28.6100  -22.2680   21.5220 C   0  0  0  0  0  2  0  0  0  0  0  0
  -28.8360  -23.1460   20.3060 C   0  0  0  0  0  3  0  0  0  0  0  0
  -28.4350  -21.4850   20.2400 C   0  0  0  0  0  3  0  0  0  0  0  0
  -30.4600  -15.1210   20.3010 C   0  0  0  0  0  0  0  0  0  0  0  0
  -30.3930  -12.7320   19.3910 C   0  0  0  0  0  2  0  0  0  0  0  0
  -29.4560  -12.6320   18.1630 C   0  0  0  0  0  2  0  0  0  0  0  0
  -28.0000  -12.3950   18.6060 C   0  0  0  0  0  2  0  0  0  0  0  0
  -27.5800  -13.3290   19.7700 C   0  0  0  0  0  3  0  0  0  0  0  0
  -28.6400  -13.3850   20.8900 C   0  0  0  0  0  2  0  0  0  0  0  0
  -29.8930  -13.8350   20.2690 N   0  0  0  0  0  0  0  0  0  0  0  0
  -31.6660  -15.1730   20.0250 O   0  0  0  0  0  0  0  0  0  0  0  0
  -30.5850  -19.8200   20.0730 C   0  0  0  0  0  2  0  0  0  0  0  0
  -29.7720  -17.8440   20.3440 C   0  0  0  0  0  0  0  0  0  0  0  0
  -30.9550  -18.5040   20.1000 N   0  0  0  0  0  0  0  0  0  0  0  0
  -28.7450  -18.7790   20.4610 N   0  0  0  0  0  2  0  0  0  0  0  0
  -29.2840  -20.1060   20.2880 N   0  0  0  0  0  0  0  0  0  0  0  0
  -29.6380  -16.2970   20.4520 N   0  0  0  0  0  0  0  0  0  0  0  0
  -28.6890  -16.0290   20.6470 H   0  0  0  0  0  0  0  0  0  0  0  0
  -25.2050  -13.8850   20.5380 C   0  0  0  0  0  0  0  0  0  0  0  0
  -24.1480  -13.1010   20.9080 C   0  0  0  0  0  0  0  0  0  0  0  0
  -24.6190  -11.7530   20.8600 C   0  0  0  0  0  0  0  0  0  0  0  0
  -26.2500  -13.0150   20.2780 N   0  0  0  0  0  0  0  0  0  0  0  0
  -25.9080  -11.7270   20.5390 N   0  0  0  0  0  0  0  0  0  0  0  0
  -23.8970  -10.4860   21.0400 C   0  0  0  0  0  0  0  0  0  0  0  0
  -24.3210   -9.5220   21.9810 C   0  0  0  0  0  3  0  0  0  0  0  0
  -23.5970   -8.3210   22.1510 C   0  0  0  0  0  3  0  0  0  0  0  0
  -22.4370   -8.0770   21.3780 C   0  0  0  0  0  0  0  0  0  0  0  0
  -22.0330   -9.0300   20.4270 C   0  0  0  0  0  3  0  0  0  0  0  0
  -22.7580  -10.2210   20.2560 C   0  0  0  0  0  3  0  0  0  0  0  0
  -21.6860   -6.9280   21.4570 O   0  0  0  0  0  0  0  0  0  0  0  0
  -21.6010   -6.2020   22.6170 C   0  0  0  0  0  0  0  0  0  0  0  0
  -21.0970   -6.7610   23.8110 C   0  0  0  0  0  3  0  0  0  0  0  0
  -20.9630   -5.9590   24.9620 C   0  0  0  0  0  3  0  0  0  0  0  0
  -21.3230   -4.5990   24.9200 C   0  0  0  0  0  0  0  0  0  0  0  0
  -21.8200   -4.0390   23.7300 C   0  0  0  0  0  3  0  0  0  0  0  0
  -21.9560   -4.8380   22.5810 C   0  0  0  0  0  0  0  0  0  0  0  0
  -22.4160   -4.2880   21.4320 F   0  0  0  0  0  0  0  0  0  0  0  0
  -21.1860   -3.8270   26.0230 F   0  0  0  0  0  0  0  0  0  0  0  0
  -22.7510  -13.5710   21.1910 C   0  0  0  0  0  0  0  0  0  0  0  0
  -22.0300  -12.8660   22.0550 N   0  0  0  0  0  0  0  0  0  0  0  0
  -22.3080  -14.5990   20.6800 O   0  0  0  0  0  0  0  0  0  0  0  0
  -22.4030  -12.0330   22.4890 H   0  0  0  0  0  0  0  0  0  0  0  0
  -21.0940  -13.1620   22.2870 H   0  0  0  0  0  0  0  0  0  0  0  0
  -25.3600  -15.2590   20.3710 N   0  0  0  0  0  0  0  0  0  0  0  0
  -24.5810  -15.8990   20.4880 H   0  0  0  0  0  0  0  0  0  0  0  0
  -26.1790  -15.7060   19.9850 H   0  0  0  0  0  0  0  0  0  0  0  0
  -27.8960  -24.5590   20.1030 C   0  0  0  0  0  2  0  0  0  0  0  0
  -28.1880  -26.1100   20.2920 O   0  0  0  0  0  0  0  0  0  0  0  0
  -24.6210  -31.9240   23.2480 C   0  0  0  0  0  0  0  0  0  0  0  0
  -27.1540  -27.1380   20.2230 C   0  0  0  0  0  0  0  0  0  0  0  0
  -23.4090  -30.5310   21.6160 C   0  0  0  0  0  3  0  0  0  0  0  0
  -24.8430  -28.9380   20.1900 C   0  0  0  0  0  0  0  0  0  0  0  0
  -25.9680  -30.7670   21.4470 C   0  0  0  0  0  2  0  0  0  0  0  0
  -26.0310  -29.3670   20.7950 C   0  0  0  0  0  0  0  0  0  0  0  0
  -27.1860  -28.4860   20.7920 C   0  0  0  0  0  3  0  0  0  0  0  0
  -25.9380  -26.8280   19.5750 C   0  0  0  0  0  3  0  0  0  0  0  0
  -24.8140  -27.6850   19.5610 C   0  0  0  0  0  3  0  0  0  0  0  0
  -23.6230  -29.8490   20.2400 C   0  0  0  0  0  2  0  0  0  0  0  0
  -24.6870  -31.0980   22.1580 N   0  0  0  0  0  0  0  0  0  0  0  0
  -23.5380  -32.2170   23.7760 O   0  0  0  0  0  0  0  0  0  0  0  0
  -22.7240  -29.5330   22.5850 C   0  0  0  0  0  0  0  0  0  0  0  0
  -21.3960  -29.3640   22.4580 N   0  0  0  0  0  0  0  0  0  0  0  0
  -23.3920  -28.9130   23.4170 O   0  0  0  0  0  0  0  0  0  0  0  0
  -20.9120  -29.9150   21.7630 H   0  0  0  0  0  0  0  0  0  0  0  0
  -18.0120  -28.1690   22.9690 C   0  0  0  0  0  0  0  0  0  0  0  0
  -20.5720  -28.4320   23.2340 C   0  0  0  0  0  3  0  0  0  0  0  0
  -20.6720  -26.9970   22.6680 C   0  0  0  0  0  2  0  0  0  0  0  0
  -19.5690  -26.6680   21.6560 C   0  0  0  0  0  2  0  0  0  0  0  0
  -18.1880  -26.8170   22.2990 C   0  0  0  0  0  2  0  0  0  0  0  0
  -19.1310  -28.9340   23.3940 C   0  0  0  0  0  0  0  0  0  0  0  0
  -18.9100  -30.1980   23.9830 C   0  0  0  0  0  3  0  0  0  0  0  0
  -17.6050  -30.6980   24.1500 C   0  0  0  0  0  3  0  0  0  0  0  0
  -16.5010  -29.9300   23.7390 C   0  0  0  0  0  3  0  0  0  0  0  0
  -16.7050  -28.6680   23.1550 C   0  0  0  0  0  3  0  0  0  0  0  0
  -25.9030  -32.5570   23.8690 C   0  0  0  0  0  3  0  0  0  0  0  0
  -25.5980  -33.9590   24.1980 N   0  0  0  0  0  0  0  0  0  0  0  0
  -25.9050  -35.0110   23.4270 C   0  0  0  0  0  0  0  0  0  0  0  0
  -26.5400  -34.9030   22.3750 O   0  0  0  0  0  0  0  0  0  0  0  0
  -25.0300  -34.1160   25.0180 H   0  0  0  0  0  0  0  0  0  0  0  0
  -24.1550  -36.7980   23.1420 C   0  0  0  0  0  1  0  0  0  0  0  0
  -25.4360  -36.4030   23.8950 C   0  0  0  0  0  3  0  0  0  0  0  0
  -27.6000  -37.3110   24.6190 C   0  0  0  0  0  1  0  0  0  0  0  0
  -26.4570  -37.4590   23.7220 N   0  0  0  0  0  0  0  0  0  0  0  0
  -26.0530  -38.3800   23.8740 H   0  0  0  0  0  0  0  0  0  0  0  0
  -26.4100  -31.7930   25.1540 C   0  0  1  0  0  0  0  0  0  0  0  0
  -25.3120  -31.5690   26.2200 C   0  0  0  0  0  1  0  0  0  0  0  0
  -26.9870  -30.4080   24.7800 C   0  0  0  0  0  1  0  0  0  0  0  0
  -27.5630  -32.5850   25.8130 C   0  0  0  0  0  1  0  0  0  0  0  0
  2 47  1  0
  2  1  1  0
  3 16  1  0
  3  2  1  0
  3  1  1  0
  4 17  1  0
  5 10  1  0
  6  7  1  0
  6  5  1  0
  8  7  1  0
  8 22  1  0
  8  9  1  0
 10  4  1  0
 10  9  1  0
 11  4  2  0
 12 14  1  0
 13 17  1  0
 13 15  1  0
 14 13  2  0
 16 12  1  0
 16 15  1  0
 17 18  1  0
 19 20  2  0
 20 39  1  0
 21 20  1  0
 21 24  1  0
 22 19  1  0
 22 23  1  0
 23 21  2  0
 24 25  1  0
 25 26  2  0
 27 30  1  0
 27 26  1  0
 28 27  2  0
 29 28  1  0
 29 24  2  0
 30 31  1  0
 31 32  1  0
 32 33  2  0
 34 33  1  0
 34 38  1  0
 35 34  2  0
 36 31  2  0
 36 35  1  0
 37 36  1  0
 39 40  1  0
 40 43  1  0
 40 42  1  0
 41 39  2  0
 44 45  1  0
 44 19  1  0
 46 44  1  0
 47 48  1  0
 49 60  2  0
 50 48  1  0
 50 55  1  0
 51 59  1  0
 51 61  1  0
 52 58  1  0
 52 54  1  0
 53 59  1  0
 54 53  1  0
 55 54  2  0
 56 50  2  0
 57 56  1  0
 57 52  2  0
 58 51  1  0
 59 49  1  0
 61 63  2  0
 62 61  1  0
 64 62  1  0
 65 74  2  0
 65 70  1  0
 66 62  1  0
 66 70  1  0
 67 66  1  0
 68 69  1  0
 68 67  1  0
 69 65  1  0
 70 71  2  0
 71 72  1  0
 73 72  2  0
 74 73  1  0
 75 49  1  0
 75 76  1  0
 75 85  1  0
 76 79  1  0
 77 81  1  0
 77 76  1  0
 78 77  2  0
 81 80  1  0
 83 84  1  0
 83 81  1  0
 83 82  1  0
 85 88  1  1
 85 86  1  0
 87 85  1  0
M  ISO  4   4 100  17 100  47 101  48 101
M  END
>  <TORSDO>  (12) 
F 17

>  <SCORE>  (12) 
-15.812

>  <name>  (12) 
11

>  <ligand_id>  (12) 
11

>  <original_smiles>  (12) 
[H]c1c([H])c([H])c2c(c1[H])C([H])([H])C([H])([H])C([H])([H])C2([H])N([H])C(=O)C1([H])N(C(=O)C([H])(N([H])C(=O)C([H])(N([H])C([H])([H])[H])C([H])([H])[H])C(C([H])([H])[H])(C([H])([H])[H])C([H])([H])[H])C([H])([H])c2c([H])c(OC([H])([H])C3([H])C([H])([H])C3([H])n3nc(N([H])C(=O)N4C([H])([H])C([H])([H])C([H])([H])C([H])(n5nc(-c6c([H])c([H])c(Oc7c([H])c([H])c(F)c([H])c7F)c([H])c6[H])c(C(=O)N([H])[H])c5N([H])[H])C4([H])[H])nc3[H])c([H])c([H])c2C1([H])[H]

>  <smiles>  (12) 
[H]c1c([H])c([H])c2c(c1[H])C([H])([H])C([H])([H])C([H])([H])C2([H])N([H])C(=O)C1([H])N(C(=O)C([H])(N([H])C(=O)C([H])(N([H])C([H])([H])[H])C([H])([H])[H])C(C([H])([H])[H])(C([H])([H])[H])C([H])([H])[H])C([H])([H])c2c([H])c(OC([H])([H])C3([H])C([H])([H])C3([H])n3nc(N([H])C(=O)N4C([H])([H])C([H])([H])C([H])([H])C([H])(n5nc(-c6c([H])c([H])c(Oc7c([H])c([H])c(F)c([H])c7F)c([H])c6[H])c(C(=O)N([H])[H])c5N([H])[H])C4([H])[H])nc3[H])c([H])c([H])c2C1([H])[H]

$$$$
12:0:0
     RDKit          3D

 89 98  0  0  1  0  0  0  0  0999 V2000
  -28.9140  -20.9330   20.0780 C   0  0  0  0  0  3  0  0  0  0  0  0
  -28.4210  -23.2010   19.9080 C   0  0  0  0  0  0  0  0  0  0  0  0
  -26.9850  -20.2510   18.5480 C   0  0  0  0  0  1  0  0  0  0  0  0
  -29.3450  -22.2270   20.4400 N   0  0  0  0  0  0  0  0  0  0  0  0
  -27.4870  -22.5120   19.2420 N   0  0  0  0  0  2  0  0  0  0  0  0
  -27.8210  -21.1640   19.3050 N   0  0  0  0  0  0  0  0  0  0  0  0
  -28.4850  -18.2780   20.6520 C   0  0  0  0  0  2  0  0  0  0  0  0
  -29.4630  -19.3920   20.5420 C   0  0  0  0  0  3  0  0  0  0  0  0
  -29.7140  -17.8000   19.8870 C   0  0  0  0  0  3  0  0  0  0  0  0
  -30.6370  -15.1200   19.9750 C   0  0  0  0  0  0  0  0  0  0  0  0
  -30.4980  -12.7550   19.0230 C   0  0  0  0  0  2  0  0  0  0  0  0
  -29.5000  -12.7250   17.8380 C   0  0  0  0  0  2  0  0  0  0  0  0
  -28.0620  -12.5040   18.3410 C   0  0  0  0  0  2  0  0  0  0  0  0
  -27.7250  -13.3990   19.5620 C   0  0  0  0  0  3  0  0  0  0  0  0
  -28.8390  -13.3900   20.6320 C   0  0  0  0  0  2  0  0  0  0  0  0
  -30.0750  -13.8330   19.9740 N   0  0  0  0  0  0  0  0  0  0  0  0
  -31.7790  -15.2110   19.5080 O   0  0  0  0  0  0  0  0  0  0  0  0
  -29.8710  -16.2810   20.3500 N   0  0  0  0  0  0  0  0  0  0  0  0
  -29.0490  -15.9820   20.8550 H   0  0  0  0  0  0  0  0  0  0  0  0
  -25.3980  -13.9740   20.4520 C   0  0  0  0  0  0  0  0  0  0  0  0
  -24.3490  -13.1990   20.8620 C   0  0  0  0  0  0  0  0  0  0  0  0
  -24.7950  -11.8450   20.7660 C   0  0  0  0  0  0  0  0  0  0  0  0
  -26.4150  -13.0930   20.1250 N   0  0  0  0  0  0  0  0  0  0  0  0
  -26.0660  -11.8050   20.3780 N   0  0  0  0  0  0  0  0  0  0  0  0
  -24.0640  -10.5860   20.9630 C   0  0  0  0  0  0  0  0  0  0  0  0
  -24.5110   -9.6070   21.8790 C   0  0  0  0  0  3  0  0  0  0  0  0
  -23.7800   -8.4150   22.0670 C   0  0  0  0  0  3  0  0  0  0  0  0
  -22.5880   -8.1900   21.3380 C   0  0  0  0  0  0  0  0  0  0  0  0
  -22.1590   -9.1570   20.4100 C   0  0  0  0  0  3  0  0  0  0  0  0
  -22.8910  -10.3420   20.2220 C   0  0  0  0  0  3  0  0  0  0  0  0
  -21.8260   -7.0510   21.4350 O   0  0  0  0  0  0  0  0  0  0  0  0
  -21.7760   -6.3160   22.5920 C   0  0  0  0  0  0  0  0  0  0  0  0
  -21.3130   -6.8670   23.8080 C   0  0  0  0  0  3  0  0  0  0  0  0
  -21.2130   -6.0560   24.9560 C   0  0  0  0  0  3  0  0  0  0  0  0
  -21.5650   -4.6950   24.8890 C   0  0  0  0  0  0  0  0  0  0  0  0
  -22.0200   -4.1430   23.6790 C   0  0  0  0  0  3  0  0  0  0  0  0
  -22.1220   -4.9510   22.5330 C   0  0  0  0  0  0  0  0  0  0  0  0
  -22.5410   -4.4080   21.3650 F   0  0  0  0  0  0  0  0  0  0  0  0
  -21.4610   -3.9130   25.9900 F   0  0  0  0  0  0  0  0  0  0  0  0
  -22.9760  -13.6830   21.2260 C   0  0  0  0  0  0  0  0  0  0  0  0
  -22.2900  -12.9700   22.1110 N   0  0  0  0  0  0  0  0  0  0  0  0
  -22.5240  -14.7290   20.7620 O   0  0  0  0  0  0  0  0  0  0  0  0
  -22.6690  -12.1230   22.5080 H   0  0  0  0  0  0  0  0  0  0  0  0
  -21.3700  -13.2750   22.3960 H   0  0  0  0  0  0  0  0  0  0  0  0
  -25.5650  -15.3470   20.3030 N   0  0  0  0  0  0  0  0  0  0  0  0
  -24.8020  -15.9960   20.4620 H   0  0  0  0  0  0  0  0  0  0  0  0
  -26.3820  -15.7860   19.9000 H   0  0  0  0  0  0  0  0  0  0  0  0
  -28.5480  -24.8300   19.5130 C   0  0  0  0  0  2  0  0  0  0  0  0
  -28.2250  -26.1020   20.3820 O   0  0  0  0  0  0  0  0  0  0  0  0
  -24.6000  -31.8800   23.2060 C   0  0  0  0  0  0  0  0  0  0  0  0
  -27.1920  -27.1120   20.2000 C   0  0  0  0  0  0  0  0  0  0  0  0
  -23.4040  -30.4670   21.5760 C   0  0  0  0  0  3  0  0  0  0  0  0
  -24.8580  -28.8810   20.1500 C   0  0  0  0  0  0  0  0  0  0  0  0
  -25.9570  -30.7240   21.4150 C   0  0  0  0  0  2  0  0  0  0  0  0
  -26.0340  -29.3250   20.7680 C   0  0  0  0  0  0  0  0  0  0  0  0
  -27.1900  -28.4520   20.7850 C   0  0  0  0  0  3  0  0  0  0  0  0
  -25.9960  -26.7850   19.5250 C   0  0  0  0  0  3  0  0  0  0  0  0
  -24.8550  -27.6270   19.5140 C   0  0  0  0  0  3  0  0  0  0  0  0
  -23.6260  -29.7770   20.2010 C   0  0  0  0  0  2  0  0  0  0  0  0
  -24.6730  -31.0480   22.1190 N   0  0  0  0  0  0  0  0  0  0  0  0
  -23.5130  -32.1660   23.7330 O   0  0  0  0  0  0  0  0  0  0  0  0
  -22.7260  -29.4700   22.5500 C   0  0  0  0  0  0  0  0  0  0  0  0
  -21.3970  -29.2990   22.4290 N   0  0  0  0  0  0  0  0  0  0  0  0
  -23.3990  -28.8510   23.3770 O   0  0  0  0  0  0  0  0  0  0  0  0
  -20.9090  -29.8490   21.7360 H   0  0  0  0  0  0  0  0  0  0  0  0
  -18.0160  -28.1090   22.9630 C   0  0  0  0  0  0  0  0  0  0  0  0
  -20.5780  -28.3670   23.2100 C   0  0  0  0  0  3  0  0  0  0  0  0
  -20.6720  -26.9330   22.6370 C   0  0  0  0  0  2  0  0  0  0  0  0
  -19.5620  -26.6110   21.6310 C   0  0  0  0  0  2  0  0  0  0  0  0
  -18.1850  -26.7600   22.2850 C   0  0  0  0  0  2  0  0  0  0  0  0
  -19.1400  -28.8710   23.3830 C   0  0  0  0  0  0  0  0  0  0  0  0
  -18.9260  -30.1320   23.9800 C   0  0  0  0  0  3  0  0  0  0  0  0
  -17.6230  -30.6320   24.1590 C   0  0  0  0  0  3  0  0  0  0  0  0
  -16.5150  -29.8680   23.7550 C   0  0  0  0  0  3  0  0  0  0  0  0
  -16.7120  -28.6080   23.1630 C   0  0  0  0  0  3  0  0  0  0  0  0
  -25.8750  -32.5250   23.8290 C   0  0  0  0  0  3  0  0  0  0  0  0
  -25.5570  -33.9240   24.1560 N   0  0  0  0  0  0  0  0  0  0  0  0
  -25.8860  -34.9810   23.4030 C   0  0  0  0  0  0  0  0  0  0  0  0
  -26.5550  -34.8820   22.3710 O   0  0  0  0  0  0  0  0  0  0  0  0
  -24.9610  -34.0750   24.9570 H   0  0  0  0  0  0  0  0  0  0  0  0
  -24.1630  -36.7830   23.0480 C   0  0  0  0  0  1  0  0  0  0  0  0
  -25.3980  -36.3690   23.8650 C   0  0  0  0  0  3  0  0  0  0  0  0
  -27.5200  -37.2560   24.7260 C   0  0  0  0  0  1  0  0  0  0  0  0
  -26.4330  -37.4230   23.7660 N   0  0  0  0  0  0  0  0  0  0  0  0
  -26.0250  -38.3430   23.9060 H   0  0  0  0  0  0  0  0  0  0  0  0
  -26.3890  -31.7670   25.1160 C   0  0  1  0  0  0  0  0  0  0  0  0
  -25.2910  -31.5320   26.1800 C   0  0  0  0  0  1  0  0  0  0  0  0
  -26.9830  -30.3890   24.7440 C   0  0  0  0  0  1  0  0  0  0  0  0
  -27.5320  -32.5730   25.7780 C   0  0  0  0  0  1  0  0  0  0  0  0
  1  4  1  0
  1  8  1  0
  2  4  2  0
  3  6  1  0
  5  6  1  0
  5  2  1  0
  6  1  1  0
  8  7  1  0
  9 18  1  0
  9  8  1  0
  9  7  1  0
 10 18  1  0
 11 16  1  0
 12 13  1  0
 12 11  1  0
 14 13  1  0
 14 23  1  0
 14 15  1  0
 16 10  1  0
 16 15  1  0
 17 10  2  0
 18 19  1  0
 20 21  2  0
 21 40  1  0
 22 21  1  0
 22 25  1  0
 23 24  1  0
 23 20  1  0
 24 22  2  0
 25 26  1  0
 26 27  2  0
 28 31  1  0
 28 27  1  0
 29 28  2  0
 30 29  1  0
 30 25  2  0
 31 32  1  0
 32 33  1  0
 33 34  2  0
 35 34  1  0
 35 39  1  0
 36 35  2  0
 37 32  2  0
 37 36  1  0
 38 37  1  0
 40 41  1  0
 41 44  1  0
 41 43  1  0
 42 40  2  0
 45 20  1  0
 45 46  1  0
 47 45  1  0
 48  2  1  0
 48 49  1  0
 50 61  2  0
 51 49  1  0
 51 56  1  0
 52 60  1  0
 52 62  1  0
 53 59  1  0
 53 55  1  0
 54 60  1  0
 55 56  2  0
 55 54  1  0
 57 51  2  0
 58 57  1  0
 58 53  2  0
 59 52  1  0
 60 50  1  0
 62 64  2  0
 63 62  1  0
 65 63  1  0
 66 75  2  0
 66 71  1  0
 67 63  1  0
 67 71  1  0
 68 67  1  0
 69 70  1  0
 69 68  1  0
 70 66  1  0
 71 72  2  0
 72 73  1  0
 74 73  2  0
 75 74  1  0
 76 50  1  0
 76 77  1  0
 76 86  1  0
 77 80  1  0
 78 82  1  0
 78 77  1  0
 79 78  2  0
 82 81  1  0
 84 82  1  0
 84 85  1  0
 84 83  1  0
 86 89  1  1
 86 87  1  0
 88 86  1  0
M  ISO  4  10 100  18 100  48 101  49 101
M  END
>  <TORSDO>  (13) 
F 18

>  <SCORE>  (13) 
-14.865

>  <name>  (13) 
12

>  <ligand_id>  (13) 
12

>  <original_smiles>  (13) 
[H]c1c([H])c([H])c2c(c1[H])C([H])([H])C([H])([H])C([H])([H])C2([H])N([H])C(=O)C1([H])N(C(=O)C([H])(N([H])C(=O)C([H])(N([H])C([H])([H])[H])C([H])([H])[H])C(C([H])([H])[H])(C([H])([H])[H])C([H])([H])[H])C([H])([H])c2c([H])c(OC([H])([H])c3nc(C4([H])C([H])([H])C4([H])N([H])C(=O)N4C([H])([H])C([H])([H])C([H])([H])C([H])(n5nc(-c6c([H])c([H])c(Oc7c([H])c([H])c(F)c([H])c7F)c([H])c6[H])c(C(=O)N([H])[H])c5N([H])[H])C4([H])[H])n(C([H])([H])[H])n3)c([H])c([H])c2C1([H])[H]

>  <smiles>  (13) 
[H]c1c([H])c([H])c2c(c1[H])C([H])([H])C([H])([H])C([H])([H])C2([H])N([H])C(=O)C1([H])N(C(=O)C([H])(N([H])C(=O)C([H])(N([H])C([H])([H])[H])C([H])([H])[H])C(C([H])([H])[H])(C([H])([H])[H])C([H])([H])[H])C([H])([H])c2c([H])c(OC([H])([H])c3nc(C4([H])C([H])([H])C4([H])N([H])C(=O)N4C([H])([H])C([H])([H])C([H])([H])C([H])(n5nc(-c6c([H])c([H])c(Oc7c([H])c([H])c(F)c([H])c7F)c([H])c6[H])c(C(=O)N([H])[H])c5N([H])[H])C4([H])[H])n(C([H])([H])[H])n3)c([H])c([H])c2C1([H])[H]

$$$$
13:0:0
     RDKit          3D

 93101  0  0  1  0  0  0  0  0999 V2000
  -30.4360  -21.3170   19.7500 C   0  0  0  0  0  2  0  0  0  0  0  0
  -30.4000  -18.0650   21.7400 C   0  0  0  0  0  3  0  0  0  0  0  0
  -30.5780  -17.5070   20.5000 C   0  0  0  0  0  0  0  0  0  0  0  0
  -30.4060  -19.8110   20.2960 C   0  0  0  0  0  3  0  0  0  0  0  0
  -30.3220  -19.4390   21.5940 N   0  0  0  0  0  0  0  0  0  0  0  0
  -30.5770  -18.6110   19.6230 N   0  0  0  0  0  0  0  0  0  0  0  0
  -30.6730  -18.5480   18.6180 H   0  0  0  0  0  0  0  0  0  0  0  0
  -31.3670  -14.9610   19.9600 C   0  0  0  0  0  0  0  0  0  0  0  0
  -31.0970  -12.6770   18.9460 C   0  0  0  0  0  2  0  0  0  0  0  0
  -30.0950  -12.7720   17.7700 C   0  0  0  0  0  2  0  0  0  0  0  0
  -28.6380  -12.6630   18.2630 C   0  0  0  0  0  2  0  0  0  0  0  0
  -28.3580  -13.5690   19.4890 C   0  0  0  0  0  3  0  0  0  0  0  0
  -29.4570  -13.4040   20.5630 C   0  0  0  0  0  2  0  0  0  0  0  0
  -30.7460  -13.7290   19.9270 N   0  0  0  0  0  0  0  0  0  0  0  0
  -32.5180  -15.0930   19.5270 O   0  0  0  0  0  0  0  0  0  0  0  0
  -30.5560  -16.0180   20.3480 N   0  0  0  0  0  0  0  0  0  0  0  0
  -29.7060  -15.6230   20.7180 H   0  0  0  0  0  0  0  0  0  0  0  0
  -26.0650  -14.3020   20.3830 C   0  0  0  0  0  0  0  0  0  0  0  0
  -24.9590  -13.5910   20.7650 C   0  0  0  0  0  0  0  0  0  0  0  0
  -25.3080  -12.2130   20.6220 C   0  0  0  0  0  0  0  0  0  0  0  0
  -27.0190  -13.3600   20.0330 N   0  0  0  0  0  0  0  0  0  0  0  0
  -26.5730  -12.0940   20.2380 N   0  0  0  0  0  0  0  0  0  0  0  0
  -24.4910  -11.0020   20.7720 C   0  0  0  0  0  0  0  0  0  0  0  0
  -24.8360   -9.9880   21.6940 C   0  0  0  0  0  3  0  0  0  0  0  0
  -24.0250   -8.8420   21.8330 C   0  0  0  0  0  3  0  0  0  0  0  0
  -22.8540   -8.7010   21.0510 C   0  0  0  0  0  0  0  0  0  0  0  0
  -22.5280   -9.7020   20.1200 C   0  0  0  0  0  3  0  0  0  0  0  0
  -23.3390  -10.8400   19.9780 C   0  0  0  0  0  3  0  0  0  0  0  0
  -22.0210   -7.6100   21.1010 O   0  0  0  0  0  0  0  0  0  0  0  0
  -21.8230   -6.9070   22.2630 C   0  0  0  0  0  0  0  0  0  0  0  0
  -21.3050   -7.5200   23.4250 C   0  0  0  0  0  3  0  0  0  0  0  0
  -21.0530   -6.7470   24.5750 C   0  0  0  0  0  3  0  0  0  0  0  0
  -21.3070   -5.3620   24.5630 C   0  0  0  0  0  0  0  0  0  0  0  0
  -21.8180   -4.7500   23.4050 C   0  0  0  0  0  3  0  0  0  0  0  0
  -22.0720   -5.5200   22.2580 C   0  0  0  0  0  0  0  0  0  0  0  0
  -22.5440   -4.9220   21.1380 F   0  0  0  0  0  0  0  0  0  0  0  0
  -21.0570   -4.6170   25.6660 F   0  0  0  0  0  0  0  0  0  0  0  0
  -23.6210  -14.1570   21.1430 C   0  0  0  0  0  0  0  0  0  0  0  0
  -22.9010  -13.4840   22.0330 N   0  0  0  0  0  0  0  0  0  0  0  0
  -23.2280  -15.2300   20.6850 O   0  0  0  0  0  0  0  0  0  0  0  0
  -23.2320  -12.6150   22.4240 H   0  0  0  0  0  0  0  0  0  0  0  0
  -22.0030  -13.8430   22.3280 H   0  0  0  0  0  0  0  0  0  0  0  0
  -26.3310  -15.6640   20.2810 N   0  0  0  0  0  0  0  0  0  0  0  0
  -25.6140  -16.3600   20.4580 H   0  0  0  0  0  0  0  0  0  0  0  0
  -27.1620  -16.0560   19.8570 H   0  0  0  0  0  0  0  0  0  0  0  0
  -31.4750  -21.1560   22.9910 C   0  0  0  0  0  1  0  0  0  0  0  0
  -30.1790  -20.3800   22.7130 C   0  0  0  0  0  2  0  0  0  0  0  0
  -29.3590  -22.3740   20.0140 N   0  0  0  0  0  0  0  0  0  0  0  0
  -28.6250  -22.2150   19.3290 H   0  0  0  0  0  0  0  0  0  0  0  0
  -30.5910  -24.1530   18.7680 C   0  0  0  0  0  1  0  0  0  0  0  0
  -29.6800  -23.8720   19.9730 C   0  0  0  0  0  3  0  0  0  0  0  0
  -28.4420  -24.9420   19.9530 C   0  0  0  0  0  2  0  0  0  0  0  0
  -28.6100  -26.4450   20.0610 O   0  0  0  0  0  0  0  0  0  0  0  0
  -24.6100  -31.7090   23.1360 C   0  0  0  0  0  0  0  0  0  0  0  0
  -27.4640  -27.2870   20.0200 C   0  0  0  0  0  0  0  0  0  0  0  0
  -23.4880  -30.2770   21.4720 C   0  0  0  0  0  3  0  0  0  0  0  0
  -25.0230  -28.8240   20.0250 C   0  0  0  0  0  0  0  0  0  0  0  0
  -26.0150  -30.7150   21.3050 C   0  0  0  0  0  2  0  0  0  0  0  0
  -26.1690  -29.3490   20.6340 C   0  0  0  0  0  0  0  0  0  0  0  0
  -27.3910  -28.5960   20.6170 C   0  0  0  0  0  3  0  0  0  0  0  0
  -26.2830  -26.8350   19.3870 C   0  0  0  0  0  3  0  0  0  0  0  0
  -25.0850  -27.5760   19.3900 C   0  0  0  0  0  3  0  0  0  0  0  0
  -23.7430  -29.6380   20.0820 C   0  0  0  0  0  2  0  0  0  0  0  0
  -24.7230  -30.9200   22.0280 N   0  0  0  0  0  0  0  0  0  0  0  0
  -23.5100  -31.9220   23.6690 O   0  0  0  0  0  0  0  0  0  0  0  0
  -22.8730  -29.2130   22.4130 C   0  0  0  0  0  0  0  0  0  0  0  0
  -21.5590  -28.9630   22.2740 N   0  0  0  0  0  0  0  0  0  0  0  0
  -23.5790  -28.6160   23.2310 O   0  0  0  0  0  0  0  0  0  0  0  0
  -21.0450  -29.5000   21.5900 H   0  0  0  0  0  0  0  0  0  0  0  0
  -18.2540  -27.5560   22.7230 C   0  0  0  0  0  0  0  0  0  0  0  0
  -20.7890  -27.9700   23.0260 C   0  0  0  0  0  3  0  0  0  0  0  0
  -20.9850  -26.5530   22.4410 C   0  0  0  0  0  2  0  0  0  0  0  0
  -19.9180  -26.1720   21.4100 C   0  0  0  0  0  2  0  0  0  0  0  0
  -18.5220  -26.2260   22.0380 C   0  0  0  0  0  2  0  0  0  0  0  0
  -19.3190  -28.3820   23.1730 C   0  0  0  0  0  0  0  0  0  0  0  0
  -19.0150  -29.6220   23.7740 C   0  0  0  0  0  3  0  0  0  0  0  0
  -17.6800  -30.0400   23.9280 C   0  0  0  0  0  3  0  0  0  0  0  0
  -16.6300  -29.2130   23.4940 C   0  0  0  0  0  3  0  0  0  0  0  0
  -16.9180  -27.9730   22.8970 C   0  0  0  0  0  3  0  0  0  0  0  0
  -25.8530  -32.4010   23.7740 C   0  0  0  0  0  3  0  0  0  0  0  0
  -25.4690  -33.7790   24.1170 N   0  0  0  0  0  0  0  0  0  0  0  0
  -25.7570  -34.8580   23.3760 C   0  0  0  0  0  0  0  0  0  0  0  0
  -26.4410  -34.8010   22.3510 O   0  0  0  0  0  0  0  0  0  0  0  0
  -24.8600  -33.8930   24.9140 H   0  0  0  0  0  0  0  0  0  0  0  0
  -23.9460  -36.5680   23.0310 C   0  0  0  0  0  1  0  0  0  0  0  0
  -25.1990  -36.2140   23.8460 C   0  0  0  0  0  3  0  0  0  0  0  0
  -27.2770  -37.1970   24.7110 C   0  0  0  0  0  1  0  0  0  0  0  0
  -26.1790  -37.3190   23.7550 N   0  0  0  0  0  0  0  0  0  0  0  0
  -25.7260  -38.2150   23.9060 H   0  0  0  0  0  0  0  0  0  0  0  0
  -26.3980  -31.6460   25.0480 C   0  0  1  0  0  0  0  0  0  0  0  0
  -25.3080  -31.3380   26.1020 C   0  0  0  0  0  1  0  0  0  0  0  0
  -27.0580  -30.3050   24.6500 C   0  0  0  0  0  1  0  0  0  0  0  0
  -27.4960  -32.4930   25.7310 C   0  0  0  0  0  1  0  0  0  0  0  0
  1 48  1  0
  3  2  2  0
  4  1  1  0
  4  5  1  0
  5  2  1  0
  5 47  1  0
  6  4  1  0
  6  3  1  0
  7  6  1  0
  8 16  1  0
  9 14  1  0
 10 11  1  0
 10  9  1  0
 12 11  1  0
 12 21  1  0
 12 13  1  0
 14  8  1  0
 14 13  1  0
 15  8  2  0
 16  3  1  0
 16 17  1  0
 18 19  2  0
 19 38  1  0
 20 19  1  0
 20 23  1  0
 21 22  1  0
 21 18  1  0
 22 20  2  0
 23 24  1  0
 24 25  2  0
 26 29  1  0
 26 25  1  0
 27 26  2  0
 28 27  1  0
 28 23  2  0
 29 30  1  0
 30 31  1  0
 31 32  2  0
 33 32  1  0
 33 37  1  0
 34 33  2  0
 35 30  2  0
 35 34  1  0
 36 35  1  0
 38 39  1  0
 39 42  1  0
 39 41  1  0
 40 38  2  0
 43 18  1  0
 43 44  1  0
 45 43  1  0
 47 46  1  0
 49 48  1  0
 51 50  1  0
 51 48  1  0
 52 51  1  0
 52 53  1  0
 54 65  2  0
 55 53  1  0
 55 60  1  0
 56 64  1  0
 56 66  1  0
 57 63  1  0
 57 59  1  0
 58 64  1  0
 59 58  1  0
 60 59  2  0
 61 62  1  0
 61 55  2  0
 62 57  2  0
 63 56  1  0
 64 54  1  0
 66 68  2  0
 67 66  1  0
 69 67  1  0
 70 79  2  0
 70 75  1  0
 71 67  1  0
 71 75  1  0
 72 71  1  0
 73 74  1  0
 73 72  1  0
 74 70  1  0
 75 76  2  0
 76 77  1  0
 78 77  2  0
 79 78  1  0
 80 54  1  0
 80 81  1  0
 80 90  1  0
 81 84  1  0
 82 86  1  0
 82 81  1  0
 83 82  2  0
 86 85  1  0
 88 86  1  0
 88 89  1  0
 88 87  1  0
 90 93  1  1
 90 91  1  0
 92 90  1  0
M  ISO  4   8 100  16 100  52 101  53 101
M  END
>  <TORSDO>  (14) 
F 21

>  <SCORE>  (14) 
-11.863

>  <name>  (14) 
13

>  <ligand_id>  (14) 
13

>  <original_smiles>  (14) 
[H]c1c([H])c([H])c2c(c1[H])C([H])([H])C([H])([H])C([H])([H])C2([H])N([H])C(=O)C1([H])N(C(=O)C([H])(N([H])C(=O)C([H])(N([H])C([H])([H])[H])C([H])([H])[H])C(C([H])([H])[H])(C([H])([H])[H])C([H])([H])[H])C([H])([H])c2c([H])c(OC([H])([H])C([H])(N([H])C([H])([H])c3n(C([H])([H])C([H])([H])[H])c([H])c(N([H])C(=O)N4C([H])([H])C([H])([H])C([H])([H])C([H])(n5nc(-c6c([H])c([H])c(Oc7c([H])c([H])c(F)c([H])c7F)c([H])c6[H])c(C(=O)N([H])[H])c5N([H])[H])C4([H])[H])[n+]3[H])C([H])([H])[H])c([H])c([H])c2C1([H])[H]

>  <smiles>  (14) 
[H]c1c([H])c([H])c2c(c1[H])C([H])([H])C([H])([H])C([H])([H])C2([H])N([H])C(=O)C1([H])N(C(=O)C([H])(N([H])C(=O)C([H])(N([H])C([H])([H])[H])C([H])([H])[H])C(C([H])([H])[H])(C([H])([H])[H])C([H])([H])[H])C([H])([H])c2c([H])c(OC([H])([H])C([H])(N([H])C([H])([H])c3n(C([H])([H])C([H])([H])[H])c([H])c(N([H])C(=O)N4C([H])([H])C([H])([H])C([H])([H])C([H])(n5nc(-c6c([H])c([H])c(Oc7c([H])c([H])c(F)c([H])c7F)c([H])c6[H])c(C(=O)N([H])[H])c5N([H])[H])C4([H])[H])[n+]3[H])C([H])([H])[H])c([H])c([H])c2C1([H])[H]

$$$$
14:0:0
     RDKit          3D

 97106  0  0  1  0  0  0  0  0999 V2000
  -30.0620  -20.9670   19.6010 C   0  0  0  0  0  2  0  0  0  0  0  0
  -29.9750  -24.5610   20.7970 C   0  0  0  0  0  2  0  0  0  0  0  0
  -28.2740  -22.9990   19.4190 C   0  0  0  0  0  3  0  0  0  0  0  0
  -29.4520  -22.3970   19.9770 C   0  0  0  0  0  0  0  0  0  0  0  0
  -28.8420  -25.1700   20.1880 C   0  0  0  0  0  0  0  0  0  0  0  0
  -27.2680  -22.1790   18.6360 C   0  0  0  0  0  1  0  0  0  0  0  0
  -30.2730  -23.2230   20.6960 N   0  0  0  0  0  0  0  0  0  0  0  0
  -27.9750  -24.3450   19.5240 N   0  0  0  0  0  0  0  0  0  0  0  0
  -28.7230  -26.5920   20.1550 O   0  0  0  0  0  0  0  0  0  0  0  0
  -24.8920  -31.9050   23.1960 C   0  0  0  0  0  0  0  0  0  0  0  0
  -27.5550  -27.3730   20.1460 C   0  0  0  0  0  0  0  0  0  0  0  0
  -23.7110  -30.5180   21.5280 C   0  0  0  0  0  3  0  0  0  0  0  0
  -25.1830  -28.9800   20.1070 C   0  0  0  0  0  0  0  0  0  0  0  0
  -26.2490  -30.8470   21.3740 C   0  0  0  0  0  2  0  0  0  0  0  0
  -26.3380  -29.4680   20.7280 C   0  0  0  0  0  0  0  0  0  0  0  0
  -27.5220  -28.6730   20.7420 C   0  0  0  0  0  3  0  0  0  0  0  0
  -26.3820  -26.9480   19.4820 C   0  0  0  0  0  3  0  0  0  0  0  0
  -25.2060  -27.7240   19.4780 C   0  0  0  0  0  3  0  0  0  0  0  0
  -23.9420  -29.8490   20.1460 C   0  0  0  0  0  2  0  0  0  0  0  0
  -24.9680  -31.1090   22.0890 N   0  0  0  0  0  0  0  0  0  0  0  0
  -23.8010  -32.1760   23.7200 O   0  0  0  0  0  0  0  0  0  0  0  0
  -23.0410  -29.4910   22.4720 C   0  0  0  0  0  0  0  0  0  0  0  0
  -21.7140  -29.3310   22.3410 N   0  0  0  0  0  0  0  0  0  0  0  0
  -23.7130  -28.8440   23.2800 O   0  0  0  0  0  0  0  0  0  0  0  0
  -21.2310  -29.9040   21.6630 H   0  0  0  0  0  0  0  0  0  0  0  0
  -18.3180  -28.1830   22.8340 C   0  0  0  0  0  0  0  0  0  0  0  0
  -20.8840  -28.3900   23.0940 C   0  0  0  0  0  3  0  0  0  0  0  0
  -20.9550  -26.9720   22.4810 C   0  0  0  0  0  2  0  0  0  0  0  0
  -19.8410  -26.6970   21.4660 C   0  0  0  0  0  2  0  0  0  0  0  0
  -18.4660  -26.8490   22.1250 C   0  0  0  0  0  2  0  0  0  0  0  0
  -19.4540  -28.9150   23.2750 C   0  0  0  0  0  0  0  0  0  0  0  0
  -19.2590  -30.1690   23.8960 C   0  0  0  0  0  3  0  0  0  0  0  0
  -17.9650  -30.6870   24.0850 C   0  0  0  0  0  3  0  0  0  0  0  0
  -16.8450  -29.9510   23.6610 C   0  0  0  0  0  3  0  0  0  0  0  0
  -17.0240  -28.7020   23.0400 C   0  0  0  0  0  3  0  0  0  0  0  0
  -26.1650  -32.5340   23.8390 C   0  0  0  0  0  3  0  0  0  0  0  0
  -26.6940  -31.7220   25.0860 C   0  0  1  0  0  0  0  0  0  0  0  0
  -25.6010  -31.4040   26.1310 C   0  0  0  0  0  1  0  0  0  0  0  0
  -27.3230  -30.3830   24.6350 C   0  0  0  0  0  1  0  0  0  0  0  0
  -27.8150  -32.5220   25.7920 C   0  0  0  0  0  1  0  0  0  0  0  0
  -25.8320  -33.9130   24.2240 N   0  0  0  0  0  0  0  0  0  0  0  0
  -26.1410  -35.0010   23.5040 C   0  0  0  0  0  0  0  0  0  0  0  0
  -26.8050  -34.9480   22.4650 O   0  0  0  0  0  0  0  0  0  0  0  0
  -25.2320  -34.0250   25.0270 H   0  0  0  0  0  0  0  0  0  0  0  0
  -24.3630  -36.7610   23.2550 C   0  0  0  0  0  1  0  0  0  0  0  0
  -25.6350  -36.3620   24.0190 C   0  0  0  0  0  3  0  0  0  0  0  0
  -27.7700  -37.2670   24.8250 C   0  0  0  0  0  1  0  0  0  0  0  0
  -26.6400  -37.4420   23.9140 N   0  0  0  0  0  0  0  0  0  0  0  0
  -26.2180  -38.3470   24.1050 H   0  0  0  0  0  0  0  0  0  0  0  0
  -29.4760  -19.6270   20.0490 N   0  0  0  0  0  4  0  0  0  0  0  0
  -28.5400  -19.5760   19.6810 H   0  0  0  0  0  0  0  0  0  0  0  0
  -29.4140  -19.6880   21.0520 H   0  0  0  0  0  0  0  0  0  0  0  0
  -30.2410  -18.3410   19.6630 C   0  0  0  0  0  2  0  0  0  0  0  0
  -31.1280  -14.7720   19.3650 C   0  0  0  0  0  0  0  0  0  0  0  0
  -30.7940  -12.5160   18.3370 C   0  0  0  0  0  2  0  0  0  0  0  0
  -29.6640  -12.5580   17.2870 C   0  0  0  0  0  2  0  0  0  0  0  0
  -28.2980  -12.3250   17.9570 C   0  0  0  0  0  2  0  0  0  0  0  0
  -28.1030  -13.1990   19.2250 C   0  0  0  0  0  3  0  0  0  0  0  0
  -29.3330  -13.1490   20.1580 C   0  0  0  0  0  2  0  0  0  0  0  0
  -30.5090  -13.5420   19.3700 N   0  0  0  0  0  0  0  0  0  0  0  0
  -32.1030  -14.9670   18.6310 O   0  0  0  0  0  0  0  0  0  0  0  0
  -31.7320  -15.9310   21.3770 C   0  0  0  0  0  2  0  0  0  0  0  0
  -31.2360  -16.8440   22.5240 C   0  0  0  0  0  2  0  0  0  0  0  0
  -28.9490  -16.9430   21.5280 C   0  0  0  0  0  2  0  0  0  0  0  0
  -29.7350  -16.8790   20.1800 C   0  0  0  0  0  3  0  0  0  0  0  0
  -30.7570  -15.7390   20.2830 N   0  0  0  0  0  0  0  0  0  0  0  0
  -29.7800  -16.7110   22.7380 N   0  0  0  0  0  4  0  0  0  0  0  0
  -29.4920  -17.3480   23.4670 H   0  0  0  0  0  0  0  0  0  0  0  0
  -29.5910  -15.7850   23.0870 H   0  0  0  0  0  0  0  0  0  0  0  0
  -25.9180  -13.7050   20.4700 C   0  0  0  0  0  0  0  0  0  0  0  0
  -24.9280  -12.8950   20.9540 C   0  0  0  0  0  0  0  0  0  0  0  0
  -25.3380  -11.5560   20.6670 C   0  0  0  0  0  0  0  0  0  0  0  0
  -26.8710  -12.8580   19.9280 N   0  0  0  0  0  0  0  0  0  0  0  0
  -26.5400  -11.5530   20.1050 N   0  0  0  0  0  0  0  0  0  0  0  0
  -24.6300  -10.2830   20.8510 C   0  0  0  0  0  0  0  0  0  0  0  0
  -25.0900   -9.3050   21.7610 C   0  0  0  0  0  3  0  0  0  0  0  0
  -24.3800   -8.0980   21.9350 C   0  0  0  0  0  3  0  0  0  0  0  0
  -23.1960   -7.8570   21.1980 C   0  0  0  0  0  0  0  0  0  0  0  0
  -22.7520   -8.8250   20.2800 C   0  0  0  0  0  3  0  0  0  0  0  0
  -23.4630  -10.0250   20.1030 C   0  0  0  0  0  3  0  0  0  0  0  0
  -22.4590   -6.7010   21.2830 O   0  0  0  0  0  0  0  0  0  0  0  0
  -22.2770   -6.0490   22.4760 C   0  0  0  0  0  0  0  0  0  0  0  0
  -21.6850   -6.6830   23.5910 C   0  0  0  0  0  3  0  0  0  0  0  0
  -21.4490   -5.9530   24.7720 C   0  0  0  0  0  3  0  0  0  0  0  0
  -21.7990   -4.5930   24.8420 C   0  0  0  0  0  0  0  0  0  0  0  0
  -22.3860   -3.9590   23.7320 C   0  0  0  0  0  3  0  0  0  0  0  0
  -22.6200   -4.6840   22.5520 C   0  0  0  0  0  0  0  0  0  0  0  0
  -23.1670   -4.0620   21.4790 F   0  0  0  0  0  0  0  0  0  0  0  0
  -21.5660   -3.8900   25.9750 F   0  0  0  0  0  0  0  0  0  0  0  0
  -23.6290  -13.3410   21.5560 C   0  0  0  0  0  0  0  0  0  0  0  0
  -23.1010  -12.5820   22.5080 N   0  0  0  0  0  0  0  0  0  0  0  0
  -23.1000  -14.3990   21.2180 O   0  0  0  0  0  0  0  0  0  0  0  0
  -23.5460  -11.7280   22.8060 H   0  0  0  0  0  0  0  0  0  0  0  0
  -22.2360  -12.8650   22.9500 H   0  0  0  0  0  0  0  0  0  0  0  0
  -26.0760  -15.0870   20.4210 N   0  0  0  0  0  0  0  0  0  0  0  0
  -25.3160  -15.6970   20.7030 H   0  0  0  0  0  0  0  0  0  0  0  0
  -26.7490  -15.5460   19.8240 H   0  0  0  0  0  0  0  0  0  0  0  0
  1  4  1  0
  1 50  1  0
  3  6  1  0
  3  8  1  0
  3  4  1  0
  4  7  2  0
  5  2  1  0
  7  2  1  0
  8  5  2  0
  9  5  1  0
 10 21  2  0
 11  9  1  0
 11 16  1  0
 12 20  1  0
 12 22  1  0
 13 19  1  0
 13 15  1  0
 14 20  1  0
 15 16  2  0
 15 14  1  0
 17 11  2  0
 18 17  1  0
 18 13  2  0
 19 12  1  0
 20 10  1  0
 22 24  2  0
 23 22  1  0
 25 23  1  0
 26 35  2  0
 26 31  1  0
 27 23  1  0
 27 31  1  0
 28 27  1  0
 29 30  1  0
 29 28  1  0
 30 26  1  0
 31 32  2  0
 32 33  1  0
 34 33  2  0
 35 34  1  0
 36 10  1  0
 36 41  1  0
 36 37  1  0
 37 40  1  1
 37 38  1  0
 39 37  1  0
 41 44  1  0
 42 46  1  0
 42 41  1  0
 43 42  2  0
 46 45  1  0
 48 46  1  0
 48 49  1  0
 48 47  1  0
 50 52  1  0
 51 50  1  0
 53 50  1  0
 54 60  1  0
 54 66  1  0
 55 60  1  0
 56 57  1  0
 56 55  1  0
 58 57  1  0
 58 73  1  0
 58 59  1  0
 60 59  1  0
 61 54  2  0
 62 63  1  0
 63 67  1  0
 64 67  1  0
 65 53  1  0
 65 66  1  0
 65 64  1  0
 66 62  1  0
 67 69  1  0
 67 68  1  0
 70 71  2  0
 71 90  1  0
 72 75  1  0
 72 71  1  0
 73 74  1  0
 73 70  1  0
 74 72  2  0
 75 76  1  0
 76 77  2  0
 78 81  1  0
 78 77  1  0
 79 78  2  0
 80 79  1  0
 80 75  2  0
 81 82  1  0
 82 87  2  0
 82 83  1  0
 83 84  2  0
 84 85  1  0
 85 89  1  0
 86 85  2  0
 87 86  1  0
 88 87  1  0
 90 91  1  0
 91 93  1  0
 91 94  1  0
 92 90  2  0
 95 70  1  0
 95 96  1  0
 97 95  1  0
M  ISO  4   5 101   9 101  54 100  66 100
M  END
>  <TORSDO>  (15) 
F 19

>  <SCORE>  (15) 
-10.126

>  <name>  (15) 
14

>  <ligand_id>  (15) 
14

>  <original_smiles>  (15) 
[H]c1nc(C([H])([H])[N+]([H])([H])C([H])([H])C2([H])N(C(=O)N3C([H])([H])C([H])([H])C([H])([H])C([H])(n4nc(-c5c([H])c([H])c(Oc6c([H])c([H])c(F)c([H])c6F)c([H])c5[H])c(C(=O)N([H])[H])c4N([H])[H])C3([H])[H])C([H])([H])C([H])([H])[N+]([H])([H])C2([H])[H])c(C([H])([H])[H])nc1Oc1c([H])c([H])c2c(c1[H])C([H])([H])N(C(=O)C([H])(N([H])C(=O)C([H])(N([H])C([H])([H])[H])C([H])([H])[H])C(C([H])([H])[H])(C([H])([H])[H])C([H])([H])[H])C([H])(C(=O)N([H])C1([H])c3c([H])c([H])c([H])c([H])c3C([H])([H])C([H])([H])C1([H])[H])C2([H])[H]

>  <smiles>  (15) 
[H]c1nc(C([H])([H])[N+]([H])([H])C([H])([H])C2([H])N(C(=O)N3C([H])([H])C([H])([H])C([H])([H])C([H])(n4nc(-c5c([H])c([H])c(Oc6c([H])c([H])c(F)c([H])c6F)c([H])c5[H])c(C(=O)N([H])[H])c4N([H])[H])C3([H])[H])C([H])([H])C([H])([H])[N+]([H])([H])C2([H])[H])c(C([H])([H])[H])nc1Oc1c([H])c([H])c2c(c1[H])C([H])([H])N(C(=O)C([H])(N([H])C(=O)C([H])(N([H])C([H])([H])[H])C([H])([H])[H])C(C([H])([H])[H])(C([H])([H])[H])C([H])([H])[H])C([H])(C(=O)N([H])C1([H])c3c([H])c([H])c([H])c([H])c3C([H])([H])C([H])([H])C1([H])[H])C2([H])[H]

$$$$
15:0:0
     RDKit          3D

 93102  0  0  1  0  0  0  0  0999 V2000
  -27.6900  -21.1080   20.6310 C   0  0  0  0  0  2  0  0  0  0  0  0
  -27.9320  -19.5970   20.8060 C   0  0  0  0  0  2  0  0  0  0  0  0
  -29.9930  -20.6580   21.0730 C   0  0  0  0  0  2  0  0  0  0  0  0
  -28.8580  -21.7070   21.3950 C   0  0  0  0  0  3  0  0  0  0  0  0
  -29.3870  -19.3100   20.7520 N   0  0  0  0  0  0  0  0  0  0  0  0
  -30.6700  -18.1280   22.7880 C   0  0  0  0  0  2  0  0  0  0  0  0
  -31.6560  -17.2370   22.0190 C   0  0  0  0  0  2  0  0  0  0  0  0
  -29.7030  -18.0450   21.5880 C   0  0  0  0  0  3  0  0  0  0  0  0
  -30.4410  -16.6120   21.3300 C   0  0  0  0  0  3  0  0  0  0  0  0
  -31.4280  -14.8520   19.7280 C   0  0  0  0  0  0  0  0  0  0  0  0
  -31.0370  -12.6460   18.6150 C   0  0  0  0  0  2  0  0  0  0  0  0
  -29.9550  -12.7080   17.5110 C   0  0  0  0  0  2  0  0  0  0  0  0
  -28.5090  -12.7930   18.0570 C   0  0  0  0  0  2  0  0  0  0  0  0
  -28.3420  -13.5950   19.3670 C   0  0  0  0  0  3  0  0  0  0  0  0
  -29.4980  -13.3210   20.3420 C   0  0  0  0  0  2  0  0  0  0  0  0
  -30.7330  -13.6730   19.6390 N   0  0  0  0  0  0  0  0  0  0  0  0
  -32.5440  -14.9390   19.2100 O   0  0  0  0  0  0  0  0  0  0  0  0
  -30.7220  -16.0100   19.9890 N   0  0  0  0  0  0  0  0  0  0  0  0
  -30.9070  -16.7250   19.2940 H   0  0  0  0  0  0  0  0  0  0  0  0
  -26.0720  -14.3020   20.3540 C   0  0  0  0  0  0  0  0  0  0  0  0
  -24.9920  -13.5790   20.7920 C   0  0  0  0  0  0  0  0  0  0  0  0
  -25.3380  -12.2040   20.6240 C   0  0  0  0  0  0  0  0  0  0  0  0
  -27.0260  -13.3730   19.9730 N   0  0  0  0  0  0  0  0  0  0  0  0
  -26.5900  -12.0970   20.1790 N   0  0  0  0  0  0  0  0  0  0  0  0
  -24.5250  -10.9920   20.7870 C   0  0  0  0  0  0  0  0  0  0  0  0
  -24.9000   -9.9760   21.6980 C   0  0  0  0  0  3  0  0  0  0  0  0
  -24.0970   -8.8260   21.8660 C   0  0  0  0  0  3  0  0  0  0  0  0
  -22.8990   -8.6840   21.1300 C   0  0  0  0  0  0  0  0  0  0  0  0
  -22.5270   -9.6920   20.2150 C   0  0  0  0  0  3  0  0  0  0  0  0
  -23.3340  -10.8320   20.0500 C   0  0  0  0  0  3  0  0  0  0  0  0
  -22.0760   -7.5850   21.2060 O   0  0  0  0  0  0  0  0  0  0  0  0
  -21.9170   -6.8880   22.3750 C   0  0  0  0  0  0  0  0  0  0  0  0
  -21.4850   -7.5050   23.5670 C   0  0  0  0  0  3  0  0  0  0  0  0
  -21.2660   -6.7350   24.7260 C   0  0  0  0  0  3  0  0  0  0  0  0
  -21.4710   -5.3410   24.6940 C   0  0  0  0  0  0  0  0  0  0  0  0
  -21.8970   -4.7210   23.5040 C   0  0  0  0  0  3  0  0  0  0  0  0
  -22.1080   -5.4880   22.3480 C   0  0  0  0  0  0  0  0  0  0  0  0
  -22.4920   -4.8790   21.2000 F   0  0  0  0  0  0  0  0  0  0  0  0
  -21.2530   -4.5990   25.8050 F   0  0  0  0  0  0  0  0  0  0  0  0
  -23.6710  -14.1260   21.2420 C   0  0  0  0  0  0  0  0  0  0  0  0
  -23.0170  -13.4710   22.1900 N   0  0  0  0  0  0  0  0  0  0  0  0
  -23.2330  -15.1790   20.7830 O   0  0  0  0  0  0  0  0  0  0  0  0
  -23.3840  -12.6110   22.5780 H   0  0  0  0  0  0  0  0  0  0  0  0
  -22.1360  -13.8280   22.5190 H   0  0  0  0  0  0  0  0  0  0  0  0
  -26.3100  -15.6730   20.2350 N   0  0  0  0  0  0  0  0  0  0  0  0
  -25.6450  -16.4040   20.4790 H   0  0  0  0  0  0  0  0  0  0  0  0
  -27.1870  -16.0420   19.8770 H   0  0  0  0  0  0  0  0  0  0  0  0
  -29.0840  -23.2160   21.3110 N   0  0  0  0  0  4  0  0  0  0  0  0
  -28.5870  -23.5470   22.1260 H   0  0  0  0  0  0  0  0  0  0  0  0
  -30.0480  -23.4290   21.5120 H   0  0  0  0  0  0  0  0  0  0  0  0
  -28.5740  -24.1080   20.1970 C   0  0  0  0  0  2  0  0  0  0  0  0
  -28.2970  -25.6060   20.6240 C   0  0  0  0  0  2  0  0  0  0  0  0
  -28.2670  -26.6030   19.5550 O   0  0  0  0  0  0  0  0  0  0  0  0
  -24.5910  -31.6410   23.0090 C   0  0  0  0  0  0  0  0  0  0  0  0
  -27.1530  -27.4210   19.5750 C   0  0  0  0  0  0  0  0  0  0  0  0
  -23.3350  -30.3390   21.3240 C   0  0  0  0  0  3  0  0  0  0  0  0
  -24.7530  -28.9220   19.7380 C   0  0  0  0  0  0  0  0  0  0  0  0
  -25.8490  -30.7420   21.0510 C   0  0  0  0  0  2  0  0  0  0  0  0
  -25.9290  -29.4180   20.3110 C   0  0  0  0  0  0  0  0  0  0  0  0
  -27.1380  -28.6820   20.2160 C   0  0  0  0  0  3  0  0  0  0  0  0
  -25.9660  -26.9560   18.9670 C   0  0  0  0  0  3  0  0  0  0  0  0
  -24.7700  -27.6890   19.0590 C   0  0  0  0  0  3  0  0  0  0  0  0
  -23.4990  -29.7570   19.8940 C   0  0  0  0  0  2  0  0  0  0  0  0
  -24.6130  -30.9160   21.8530 N   0  0  0  0  0  0  0  0  0  0  0  0
  -23.5300  -31.8640   23.6100 O   0  0  0  0  0  0  0  0  0  0  0  0
  -22.7280  -29.2490   22.2370 C   0  0  0  0  0  0  0  0  0  0  0  0
  -21.4030  -29.0510   22.1380 N   0  0  0  0  0  0  0  0  0  0  0  0
  -23.4470  -28.5820   22.9870 O   0  0  0  0  0  0  0  0  0  0  0  0
  -20.8830  -29.6390   21.5010 H   0  0  0  0  0  0  0  0  0  0  0  0
  -18.0670  -27.7570   22.6410 C   0  0  0  0  0  0  0  0  0  0  0  0
  -20.6240  -28.0560   22.8750 C   0  0  0  0  0  3  0  0  0  0  0  0
  -20.7460  -26.6610   22.2190 C   0  0  0  0  0  2  0  0  0  0  0  0
  -19.6290  -26.3700   21.2120 C   0  0  0  0  0  2  0  0  0  0  0  0
  -18.2590  -26.4500   21.8910 C   0  0  0  0  0  2  0  0  0  0  0  0
  -19.1780  -28.5190   23.0900 C   0  0  0  0  0  0  0  0  0  0  0  0
  -18.9470  -29.7450   23.7520 C   0  0  0  0  0  3  0  0  0  0  0  0
  -17.6370  -30.2070   23.9720 C   0  0  0  0  0  3  0  0  0  0  0  0
  -16.5400  -29.4410   23.5390 C   0  0  0  0  0  3  0  0  0  0  0  0
  -16.7560  -28.2180   22.8790 C   0  0  0  0  0  3  0  0  0  0  0  0
  -25.8980  -32.2390   23.6160 C   0  0  0  0  0  3  0  0  0  0  0  0
  -26.4910  -31.3690   24.7910 C   0  0  1  0  0  0  0  0  0  0  0  0
  -25.4530  -31.0190   25.8830 C   0  0  0  0  0  1  0  0  0  0  0  0
  -27.0750  -30.0410   24.2560 C   0  0  0  0  0  1  0  0  0  0  0  0
  -27.6660  -32.1230   25.4580 C   0  0  0  0  0  1  0  0  0  0  0  0
  -25.5870  -33.5960   24.0810 N   0  0  0  0  0  0  0  0  0  0  0  0
  -25.8930  -34.7150   23.4100 C   0  0  0  0  0  0  0  0  0  0  0  0
  -26.5410  -34.7120   22.3590 O   0  0  0  0  0  0  0  0  0  0  0  0
  -25.0040  -33.6750   24.9020 H   0  0  0  0  0  0  0  0  0  0  0  0
  -24.1520  -36.5190   23.2400 C   0  0  0  0  0  1  0  0  0  0  0  0
  -25.4050  -36.0520   23.9990 C   0  0  0  0  0  3  0  0  0  0  0  0
  -27.5430  -36.8680   24.8860 C   0  0  0  0  0  1  0  0  0  0  0  0
  -26.4320  -37.1170   23.9700 N   0  0  0  0  0  0  0  0  0  0  0  0
  -26.0250  -38.0190   24.2050 H   0  0  0  0  0  0  0  0  0  0  0  0
  1  2  1  0
  1  4  1  0
  3  4  1  0
  4 48  1  0
  5  2  1  0
  5  3  1  0
  5  8  1  0
  7  6  1  0
  8  6  1  0
  9 18  1  0
  9  8  1  0
  9  7  1  0
 10 18  1  0
 11 16  1  0
 12 13  1  0
 12 11  1  0
 14 13  1  0
 14 23  1  0
 14 15  1  0
 16 10  1  0
 16 15  1  0
 17 10  2  0
 19 18  1  0
 20 21  2  0
 21 40  1  0
 22 25  1  0
 22 21  1  0
 23 24  1  0
 23 20  1  0
 24 22  2  0
 25 26  1  0
 26 27  2  0
 28 31  1  0
 28 27  1  0
 29 28  2  0
 30 29  1  0
 30 25  2  0
 31 32  1  0
 32 33  1  0
 33 34  2  0
 35 34  1  0
 35 39  1  0
 36 35  2  0
 37 32  2  0
 37 36  1  0
 38 37  1  0
 40 41  1  0
 41 44  1  0
 41 43  1  0
 42 40  2  0
 45 20  1  0
 45 46  1  0
 47 45  1  0
 48 50  1  0
 48 49  1  0
 51 52  1  0
 51 48  1  0
 53 55  1  0
 53 52  1  0
 54 65  2  0
 55 60  1  0
 56 64  1  0
 56 66  1  0
 57 63  1  0
 57 59  1  0
 58 64  1  0
 59 58  1  0
 60 59  2  0
 61 62  1  0
 61 55  2  0
 62 57  2  0
 63 56  1  0
 64 54  1  0
 66 68  2  0
 67 66  1  0
 69 67  1  0
 70 79  2  0
 70 75  1  0
 71 67  1  0
 71 75  1  0
 72 71  1  0
 73 74  1  0
 73 72  1  0
 74 70  1  0
 75 76  2  0
 76 77  1  0
 78 77  2  0
 79 78  1  0
 80 54  1  0
 80 85  1  0
 80 81  1  0
 81 84  1  1
 81 82  1  0
 83 81  1  0
 85 88  1  0
 86 90  1  0
 86 85  1  0
 87 86  2  0
 90 89  1  0
 92 90  1  0
 92 93  1  0
 92 91  1  0
M  ISO  4  10 100  18 100  52 101  53 101
M  END
>  <TORSDO>  (16) 
F 20

>  <SCORE>  (16) 
-10.634

>  <name>  (16) 
15

>  <ligand_id>  (16) 
15

>  <original_smiles>  (16) 
[H]c1c([H])c([H])c2c(c1[H])C([H])([H])C([H])([H])C([H])([H])C2([H])N([H])C(=O)C1([H])N(C(=O)C([H])(N([H])C(=O)C([H])(N([H])C([H])([H])[H])C([H])([H])[H])C(C([H])([H])[H])(C([H])([H])[H])C([H])([H])[H])C([H])([H])c2c([H])c(OC([H])([H])C([H])([H])[N+]([H])([H])C3([H])C([H])([H])N(C4([H])C([H])([H])C([H])([H])C4([H])N([H])C(=O)N4C([H])([H])C([H])([H])C([H])([H])C([H])(n5nc(-c6c([H])c([H])c(Oc7c([H])c([H])c(F)c([H])c7F)c([H])c6[H])c(C(=O)N([H])[H])c5N([H])[H])C4([H])[H])C([H])([H])C3([H])[H])c([H])c([H])c2C1([H])[H]

>  <smiles>  (16) 
[H]c1c([H])c([H])c2c(c1[H])C([H])([H])C([H])([H])C([H])([H])C2([H])N([H])C(=O)C1([H])N(C(=O)C([H])(N([H])C(=O)C([H])(N([H])C([H])([H])[H])C([H])([H])[H])C(C([H])([H])[H])(C([H])([H])[H])C([H])([H])[H])C([H])([H])c2c([H])c(OC([H])([H])C([H])([H])[N+]([H])([H])C3([H])C([H])([H])N(C4([H])C([H])([H])C([H])([H])C4([H])N([H])C(=O)N4C([H])([H])C([H])([H])C([H])([H])C([H])(n5nc(-c6c([H])c([H])c(Oc7c([H])c([H])c(F)c([H])c7F)c([H])c6[H])c(C(=O)N([H])[H])c5N([H])[H])C4([H])[H])C([H])([H])C3([H])[H])c([H])c([H])c2C1([H])[H]

$$$$
16:0:0
     RDKit          3D

 88 96  0  0  1  0  0  0  0  0999 V2000
  -29.2030  -21.3570   20.1180 N   0  0  0  0  0  4  0  0  0  0  0  0
  -29.1090  -21.3720   19.1150 H   0  0  0  0  0  0  0  0  0  0  0  0
  -30.1800  -21.5290   20.2950 H   0  0  0  0  0  0  0  0  0  0  0  0
  -28.9850  -19.7550   20.5310 C   0  0  0  0  0  2  0  0  0  0  0  0
  -30.4420  -15.3780   20.2330 C   0  0  0  0  0  0  0  0  0  0  0  0
  -30.4310  -12.9270   19.3690 C   0  0  0  0  0  2  0  0  0  0  0  0
  -29.5080  -12.6860   18.1480 C   0  0  0  0  0  2  0  0  0  0  0  0
  -28.0670  -12.3880   18.6020 C   0  0  0  0  0  2  0  0  0  0  0  0
  -27.6000  -13.3500   19.7190 C   0  0  0  0  0  3  0  0  0  0  0  0
  -28.6540  -13.5540   20.8290 C   0  0  0  0  0  2  0  0  0  0  0  0
  -29.8720  -14.0690   20.1770 N   0  0  0  0  0  0  0  0  0  0  0  0
  -31.6810  -15.3550   20.1490 O   0  0  0  0  0  0  0  0  0  0  0  0
  -29.1390  -17.7170   17.9800 C   0  0  0  0  0  2  0  0  0  0  0  0
  -30.2840  -18.4800   18.6220 C   0  0  0  0  0  2  0  0  0  0  0  0
  -28.7390  -16.6270   18.9890 C   0  0  0  0  0  2  0  0  0  0  0  0
  -29.9880  -18.3150   20.1040 C   0  0  0  0  0  3  0  0  0  0  0  0
  -29.6730  -16.6660   20.1330 N   0  0  0  0  0  0  0  0  0  0  0  0
  -25.2310  -13.9000   20.4680 C   0  0  0  0  0  0  0  0  0  0  0  0
  -24.1750  -13.1160   20.8330 C   0  0  0  0  0  0  0  0  0  0  0  0
  -24.6570  -11.7710   20.8130 C   0  0  0  0  0  0  0  0  0  0  0  0
  -26.2820  -13.0300   20.2370 N   0  0  0  0  0  0  0  0  0  0  0  0
  -25.9500  -11.7460   20.5120 N   0  0  0  0  0  0  0  0  0  0  0  0
  -23.9460  -10.5020   21.0020 C   0  0  0  0  0  0  0  0  0  0  0  0
  -24.3800   -9.5480   21.9480 C   0  0  0  0  0  3  0  0  0  0  0  0
  -23.6640   -8.3450   22.1300 C   0  0  0  0  0  3  0  0  0  0  0  0
  -22.5030   -8.0890   21.3640 C   0  0  0  0  0  0  0  0  0  0  0  0
  -22.0880   -9.0320   20.4060 C   0  0  0  0  0  3  0  0  0  0  0  0
  -22.8040  -10.2270   20.2240 C   0  0  0  0  0  3  0  0  0  0  0  0
  -21.7590   -6.9370   21.4540 O   0  0  0  0  0  0  0  0  0  0  0  0
  -21.7050   -6.2050   22.6120 C   0  0  0  0  0  0  0  0  0  0  0  0
  -21.2510   -6.7640   23.8280 C   0  0  0  0  0  3  0  0  0  0  0  0
  -21.1470   -5.9580   24.9780 C   0  0  0  0  0  3  0  0  0  0  0  0
  -21.4870   -4.5930   24.9150 C   0  0  0  0  0  0  0  0  0  0  0  0
  -21.9350   -4.0330   23.7050 C   0  0  0  0  0  3  0  0  0  0  0  0
  -22.0410   -4.8380   22.5570 C   0  0  0  0  0  0  0  0  0  0  0  0
  -22.4530   -4.2890   21.3890 F   0  0  0  0  0  0  0  0  0  0  0  0
  -21.3800   -3.8160   26.0180 F   0  0  0  0  0  0  0  0  0  0  0  0
  -22.7710  -13.5810   21.0880 C   0  0  0  0  0  0  0  0  0  0  0  0
  -22.0420  -12.8790   21.9490 N   0  0  0  0  0  0  0  0  0  0  0  0
  -22.3300  -14.6020   20.5610 O   0  0  0  0  0  0  0  0  0  0  0  0
  -22.4110  -12.0510   22.3930 H   0  0  0  0  0  0  0  0  0  0  0  0
  -21.1030  -13.1740   22.1700 H   0  0  0  0  0  0  0  0  0  0  0  0
  -25.3830  -15.2720   20.2850 N   0  0  0  0  0  0  0  0  0  0  0  0
  -24.6150  -15.9240   20.4020 H   0  0  0  0  0  0  0  0  0  0  0  0
  -26.2440  -15.7190   20.0020 H   0  0  0  0  0  0  0  0  0  0  0  0
  -28.4410  -22.7500   20.6450 C   0  0  0  0  0  2  0  0  0  0  0  0
  -28.3170  -24.3810   19.8920 C   0  0  0  0  0  2  0  0  0  0  0  0
  -28.2100  -25.9520   20.3860 O   0  0  0  0  0  0  0  0  0  0  0  0
  -24.6030  -31.9000   23.2100 C   0  0  0  0  0  0  0  0  0  0  0  0
  -27.1770  -27.0130   20.2410 C   0  0  0  0  0  0  0  0  0  0  0  0
  -23.4140  -30.4880   21.5800 C   0  0  0  0  0  3  0  0  0  0  0  0
  -24.8650  -28.8740   20.1700 C   0  0  0  0  0  0  0  0  0  0  0  0
  -25.9750  -30.7070   21.4310 C   0  0  0  0  0  2  0  0  0  0  0  0
  -26.0460  -29.2920   20.7930 C   0  0  0  0  0  0  0  0  0  0  0  0
  -27.1900  -28.3800   20.8080 C   0  0  0  0  0  3  0  0  0  0  0  0
  -25.9680  -26.7420   19.5610 C   0  0  0  0  0  3  0  0  0  0  0  0
  -24.8500  -27.6200   19.5340 C   0  0  0  0  0  3  0  0  0  0  0  0
  -23.6440  -29.7910   20.2090 C   0  0  0  0  0  2  0  0  0  0  0  0
  -24.6860  -31.0590   22.1280 N   0  0  0  0  0  0  0  0  0  0  0  0
  -23.5120  -32.1910   23.7280 O   0  0  0  0  0  0  0  0  0  0  0  0
  -22.7190  -29.5020   22.5540 C   0  0  0  0  0  0  0  0  0  0  0  0
  -21.3870  -29.3410   22.4330 N   0  0  0  0  0  0  0  0  0  0  0  0
  -23.3840  -28.8810   23.3870 O   0  0  0  0  0  0  0  0  0  0  0  0
  -20.9030  -29.8940   21.7380 H   0  0  0  0  0  0  0  0  0  0  0  0
  -18.0040  -28.1450   22.9560 C   0  0  0  0  0  0  0  0  0  0  0  0
  -20.5630  -28.4100   23.2110 C   0  0  0  0  0  3  0  0  0  0  0  0
  -20.6610  -26.9750   22.6440 C   0  0  0  0  0  2  0  0  0  0  0  0
  -19.5570  -26.6480   21.6340 C   0  0  0  0  0  2  0  0  0  0  0  0
  -18.1770  -26.7960   22.2810 C   0  0  0  0  0  2  0  0  0  0  0  0
  -19.1240  -28.9110   23.3780 C   0  0  0  0  0  0  0  0  0  0  0  0
  -18.9050  -30.1730   23.9720 C   0  0  0  0  0  3  0  0  0  0  0  0
  -17.6010  -30.6720   24.1450 C   0  0  0  0  0  3  0  0  0  0  0  0
  -16.4950  -29.9050   23.7360 C   0  0  0  0  0  3  0  0  0  0  0  0
  -16.6970  -28.6440   23.1480 C   0  0  0  0  0  3  0  0  0  0  0  0
  -25.8720  -32.5490   23.8410 C   0  0  0  0  0  3  0  0  0  0  0  0
  -26.3710  -31.8000   25.1390 C   0  0  1  0  0  0  0  0  0  0  0  0
  -25.2650  -31.5850   26.1980 C   0  0  0  0  0  1  0  0  0  0  0  0
  -26.9520  -30.4110   24.7840 C   0  0  0  0  0  1  0  0  0  0  0  0
  -27.5200  -32.6010   25.7970 C   0  0  0  0  0  1  0  0  0  0  0  0
  -25.5560  -33.9540   24.1580 N   0  0  0  0  0  0  0  0  0  0  0  0
  -25.9010  -35.0060   23.4060 C   0  0  0  0  0  0  0  0  0  0  0  0
  -26.5830  -34.8980   22.3830 O   0  0  0  0  0  0  0  0  0  0  0  0
  -24.9530  -34.1140   24.9530 H   0  0  0  0  0  0  0  0  0  0  0  0
  -24.1910  -36.8170   23.0290 C   0  0  0  0  0  1  0  0  0  0  0  0
  -25.4180  -36.4010   23.8560 C   0  0  0  0  0  3  0  0  0  0  0  0
  -27.5460  -37.2770   24.7180 C   0  0  0  0  0  1  0  0  0  0  0  0
  -26.4600  -37.4480   23.7570 N   0  0  0  0  0  0  0  0  0  0  0  0
  -26.0560  -38.3700   23.8930 H   0  0  0  0  0  0  0  0  0  0  0  0
  1  3  1  0
  1  4  1  0
  1 46  1  0
  2  1  1  0
  6 11  1  0
  7  8  1  0
  7  6  1  0
  9  8  1  0
  9 21  1  0
  9 10  1  0
 11  5  1  0
 11 10  1  0
 12  5  2  0
 13 14  1  0
 13 15  1  0
 14 16  1  0
 15 17  1  0
 16 17  1  0
 16  4  1  0
 17  5  1  0
 18 19  2  0
 19 38  1  0
 20 19  1  0
 20 23  1  0
 21 18  1  0
 21 22  1  0
 22 20  2  0
 23 24  1  0
 24 25  2  0
 26 29  1  0
 26 25  1  0
 27 26  2  0
 28 27  1  0
 28 23  2  0
 29 30  1  0
 30 31  1  0
 31 32  2  0
 33 32  1  0
 33 37  1  0
 34 33  2  0
 35 30  2  0
 35 34  1  0
 36 35  1  0
 38 39  1  0
 39 42  1  0
 39 41  1  0
 40 38  2  0
 43 44  1  0
 43 18  1  0
 45 43  1  0
 47 48  1  0
 47 46  1  0
 49 60  2  0
 50 48  1  0
 50 55  1  0
 51 59  1  0
 51 61  1  0
 52 58  1  0
 52 54  1  0
 53 59  1  0
 54 55  2  0
 54 53  1  0
 56 50  2  0
 57 56  1  0
 57 52  2  0
 58 51  1  0
 59 49  1  0
 61 63  2  0
 62 61  1  0
 64 62  1  0
 65 74  2  0
 65 70  1  0
 66 62  1  0
 66 70  1  0
 67 66  1  0
 68 69  1  0
 68 67  1  0
 69 65  1  0
 70 71  2  0
 71 72  1  0
 73 72  2  0
 74 73  1  0
 75 49  1  0
 75 80  1  0
 75 76  1  0
 76 79  1  1
 76 77  1  0
 78 76  1  0
 80 83  1  0
 81 85  1  0
 81 80  1  0
 82 81  2  0
 85 84  1  0
 87 85  1  0
 87 88  1  0
 87 86  1  0
M  ISO  4   5 100  17 100  47 101  48 101
M  END
>  <TORSDO>  (17) 
F 19

>  <SCORE>  (17) 
-16.419

>  <name>  (17) 
16

>  <ligand_id>  (17) 
16

>  <original_smiles>  (17) 
[H]c1c([H])c([H])c2c(c1[H])C([H])([H])C([H])([H])C([H])([H])C2([H])N([H])C(=O)C1([H])N(C(=O)C([H])(N([H])C(=O)C([H])(N([H])C([H])([H])[H])C([H])([H])[H])C(C([H])([H])[H])(C([H])([H])[H])C([H])([H])[H])C([H])([H])c2c([H])c(OC([H])([H])C([H])([H])[N+]([H])([H])C([H])([H])C3([H])N(C(=O)N4C([H])([H])C([H])([H])C([H])([H])C([H])(n5nc(-c6c([H])c([H])c(Oc7c([H])c([H])c(F)c([H])c7F)c([H])c6[H])c(C(=O)N([H])[H])c5N([H])[H])C4([H])[H])C([H])([H])C([H])([H])C3([H])[H])c([H])c([H])c2C1([H])[H]

>  <smiles>  (17) 
[H]c1c([H])c([H])c2c(c1[H])C([H])([H])C([H])([H])C([H])([H])C2([H])N([H])C(=O)C1([H])N(C(=O)C([H])(N([H])C(=O)C([H])(N([H])C([H])([H])[H])C([H])([H])[H])C(C([H])([H])[H])(C([H])([H])[H])C([H])([H])[H])C([H])([H])c2c([H])c(OC([H])([H])C([H])([H])[N+]([H])([H])C([H])([H])C3([H])N(C(=O)N4C([H])([H])C([H])([H])C([H])([H])C([H])(n5nc(-c6c([H])c([H])c(Oc7c([H])c([H])c(F)c([H])c7F)c([H])c6[H])c(C(=O)N([H])[H])c5N([H])[H])C4([H])[H])C([H])([H])C([H])([H])C3([H])[H])c([H])c([H])c2C1([H])[H]

$$$$
17:0:0
     RDKit          3D

 88 97  0  0  1  0  0  0  0  0999 V2000
  -29.4420  -22.0990   20.3870 C   0  0  0  0  0  3  0  0  0  0  0  0
  -28.4800  -23.1090   20.0320 C   0  0  0  0  0  0  0  0  0  0  0  0
  -27.3880  -22.2710   19.7290 N   0  0  0  0  0  0  0  0  0  0  0  0
  -27.6250  -20.9720   19.8940 N   0  0  0  0  0  0  0  0  0  0  0  0
  -28.9160  -20.7310   20.2710 N   0  0  0  0  0  0  0  0  0  0  0  0
  -30.7440  -18.8510   20.7280 C   0  0  0  0  0  2  0  0  0  0  0  0
  -29.2790  -19.2280   20.7700 C   0  0  0  0  0  3  0  0  0  0  0  0
  -29.8730  -17.8420   19.9910 C   0  0  0  0  0  3  0  0  0  0  0  0
  -30.5790  -15.1230   20.1410 C   0  0  0  0  0  0  0  0  0  0  0  0
  -30.4680  -12.7470   19.2100 C   0  0  0  0  0  2  0  0  0  0  0  0
  -29.5070  -12.6870   17.9980 C   0  0  0  0  0  2  0  0  0  0  0  0
  -28.0570  -12.4570   18.4650 C   0  0  0  0  0  2  0  0  0  0  0  0
  -27.6760  -13.3680   19.6590 C   0  0  0  0  0  3  0  0  0  0  0  0
  -28.7610  -13.3920   20.7590 C   0  0  0  0  0  2  0  0  0  0  0  0
  -30.0080  -13.8400   20.1270 N   0  0  0  0  0  0  0  0  0  0  0  0
  -31.7470  -15.1940   19.7440 O   0  0  0  0  0  0  0  0  0  0  0  0
  -29.8100  -16.3100   20.4250 N   0  0  0  0  0  0  0  0  0  0  0  0
  -28.9120  -16.0690   20.8200 H   0  0  0  0  0  0  0  0  0  0  0  0
  -25.3180  -13.9310   20.4690 C   0  0  0  0  0  0  0  0  0  0  0  0
  -24.2650  -13.1500   20.8600 C   0  0  0  0  0  0  0  0  0  0  0  0
  -24.7300  -11.8000   20.8010 C   0  0  0  0  0  0  0  0  0  0  0  0
  -26.3540  -13.0570   20.1890 N   0  0  0  0  0  0  0  0  0  0  0  0
  -26.0130  -11.7690   20.4540 N   0  0  0  0  0  0  0  0  0  0  0  0
  -24.0090  -10.5360   20.9970 C   0  0  0  0  0  0  0  0  0  0  0  0
  -24.4500   -9.5680   21.9260 C   0  0  0  0  0  3  0  0  0  0  0  0
  -23.7280   -8.3690   22.1110 C   0  0  0  0  0  3  0  0  0  0  0  0
  -22.5480   -8.1310   21.3660 C   0  0  0  0  0  0  0  0  0  0  0  0
  -22.1240   -9.0860   20.4260 C   0  0  0  0  0  3  0  0  0  0  0  0
  -22.8480  -10.2770   20.2400 C   0  0  0  0  0  3  0  0  0  0  0  0
  -21.7940   -6.9850   21.4610 O   0  0  0  0  0  0  0  0  0  0  0  0
  -21.7430   -6.2520   22.6190 C   0  0  0  0  0  0  0  0  0  0  0  0
  -21.2900   -6.8080   23.8350 C   0  0  0  0  0  3  0  0  0  0  0  0
  -21.1870   -6.0000   24.9850 C   0  0  0  0  0  3  0  0  0  0  0  0
  -21.5270   -4.6360   24.9200 C   0  0  0  0  0  0  0  0  0  0  0  0
  -21.9720   -4.0780   23.7090 C   0  0  0  0  0  3  0  0  0  0  0  0
  -22.0760   -4.8830   22.5610 C   0  0  0  0  0  0  0  0  0  0  0  0
  -22.4860   -4.3350   21.3910 F   0  0  0  0  0  0  0  0  0  0  0  0
  -21.4210   -3.8570   26.0220 F   0  0  0  0  0  0  0  0  0  0  0  0
  -22.8760  -13.6250   21.1730 C   0  0  0  0  0  0  0  0  0  0  0  0
  -22.1690  -12.9170   22.0470 N   0  0  0  0  0  0  0  0  0  0  0  0
  -22.4270  -14.6570   20.6770 O   0  0  0  0  0  0  0  0  0  0  0  0
  -22.5460  -12.0820   22.4700 H   0  0  0  0  0  0  0  0  0  0  0  0
  -21.2380  -13.2170   22.2990 H   0  0  0  0  0  0  0  0  0  0  0  0
  -25.4750  -15.3040   20.3010 N   0  0  0  0  0  0  0  0  0  0  0  0
  -24.7070  -15.9530   20.4330 H   0  0  0  0  0  0  0  0  0  0  0  0
  -26.3010  -15.7440   19.9170 H   0  0  0  0  0  0  0  0  0  0  0  0
  -28.4300  -24.7360   19.5630 C   0  0  0  0  0  2  0  0  0  0  0  0
  -28.2550  -26.1040   20.3400 O   0  0  0  0  0  0  0  0  0  0  0  0
  -24.6160  -31.8880   23.1950 C   0  0  0  0  0  0  0  0  0  0  0  0
  -27.2190  -27.1210   20.1850 C   0  0  0  0  0  0  0  0  0  0  0  0
  -23.4320  -30.4860   21.5520 C   0  0  0  0  0  3  0  0  0  0  0  0
  -24.8920  -28.9060   20.1300 C   0  0  0  0  0  0  0  0  0  0  0  0
  -25.9880  -30.7390   21.4080 C   0  0  0  0  0  2  0  0  0  0  0  0
  -26.0660  -29.3410   20.7540 C   0  0  0  0  0  0  0  0  0  0  0  0
  -27.2220  -28.4630   20.7700 C   0  0  0  0  0  3  0  0  0  0  0  0
  -26.0160  -26.8040   19.5140 C   0  0  0  0  0  3  0  0  0  0  0  0
  -24.8840  -27.6540   19.4940 C   0  0  0  0  0  3  0  0  0  0  0  0
  -23.6640  -29.8050   20.1750 C   0  0  0  0  0  2  0  0  0  0  0  0
  -24.6990  -31.0620   22.1060 N   0  0  0  0  0  0  0  0  0  0  0  0
  -23.5270  -32.1730   23.7150 O   0  0  0  0  0  0  0  0  0  0  0  0
  -22.7450  -29.4840   22.5130 C   0  0  0  0  0  0  0  0  0  0  0  0
  -21.4150  -29.3240   22.3930 N   0  0  0  0  0  0  0  0  0  0  0  0
  -23.4140  -28.8510   23.3350 O   0  0  0  0  0  0  0  0  0  0  0  0
  -20.9320  -29.8860   21.7050 H   0  0  0  0  0  0  0  0  0  0  0  0
  -18.0240  -28.1540   22.9190 C   0  0  0  0  0  0  0  0  0  0  0  0
  -20.5890  -28.3900   23.1630 C   0  0  0  0  0  3  0  0  0  0  0  0
  -20.6690  -26.9610   22.5760 C   0  0  0  0  0  2  0  0  0  0  0  0
  -19.5540  -26.6580   21.5700 C   0  0  0  0  0  2  0  0  0  0  0  0
  -18.1810  -26.8110   22.2270 C   0  0  0  0  0  2  0  0  0  0  0  0
  -19.1540  -28.9020   23.3440 C   0  0  0  0  0  0  0  0  0  0  0  0
  -18.9510  -30.1590   23.9540 C   0  0  0  0  0  3  0  0  0  0  0  0
  -17.6530  -30.6680   24.1420 C   0  0  0  0  0  3  0  0  0  0  0  0
  -16.5380  -29.9180   23.7310 C   0  0  0  0  0  3  0  0  0  0  0  0
  -16.7250  -28.6630   23.1250 C   0  0  0  0  0  3  0  0  0  0  0  0
  -25.8880  -32.5300   23.8300 C   0  0  0  0  0  3  0  0  0  0  0  0
  -25.5710  -33.9310   24.1530 N   0  0  0  0  0  0  0  0  0  0  0  0
  -25.9100  -34.9860   23.4000 C   0  0  0  0  0  0  0  0  0  0  0  0
  -26.5860  -34.8830   22.3740 O   0  0  0  0  0  0  0  0  0  0  0  0
  -24.9700  -34.0850   24.9490 H   0  0  0  0  0  0  0  0  0  0  0  0
  -24.1900  -36.7900   23.0330 C   0  0  0  0  0  1  0  0  0  0  0  0
  -25.4220  -36.3770   23.8560 C   0  0  0  0  0  3  0  0  0  0  0  0
  -27.5460  -37.2610   24.7140 C   0  0  0  0  0  1  0  0  0  0  0  0
  -26.4580  -37.4280   23.7550 N   0  0  0  0  0  0  0  0  0  0  0  0
  -26.0520  -38.3490   23.8920 H   0  0  0  0  0  0  0  0  0  0  0  0
  -26.3860  -31.7720   25.1220 C   0  0  1  0  0  0  0  0  0  0  0  0
  -25.2770  -31.5450   26.1780 C   0  0  0  0  0  1  0  0  0  0  0  0
  -26.9760  -30.3910   24.7580 C   0  0  0  0  0  1  0  0  0  0  0  0
  -27.5280  -32.5730   25.7920 C   0  0  0  0  0  1  0  0  0  0  0  0
  2  1  2  0
  3  4  2  0
  3  2  1  0
  4  5  1  0
  5  1  1  0
  6  7  1  0
  7  5  1  0
  8 17  1  0
  8  6  1  0
  8  7  1  0
  9 17  1  0
 10 15  1  0
 11 12  1  0
 11 10  1  0
 13 12  1  0
 13 22  1  0
 13 14  1  0
 15  9  1  0
 15 14  1  0
 16  9  2  0
 17 18  1  0
 19 20  2  0
 20 39  1  0
 21 20  1  0
 21 24  1  0
 22 23  1  0
 22 19  1  0
 23 21  2  0
 24 25  1  0
 25 26  2  0
 27 30  1  0
 27 26  1  0
 28 27  2  0
 29 28  1  0
 29 24  2  0
 30 31  1  0
 31 32  1  0
 32 33  2  0
 34 33  1  0
 34 38  1  0
 35 34  2  0
 36 31  2  0
 36 35  1  0
 37 36  1  0
 39 40  1  0
 40 43  1  0
 40 42  1  0
 41 39  2  0
 44 45  1  0
 44 19  1  0
 46 44  1  0
 47  2  1  0
 47 48  1  0
 49 60  2  0
 50 48  1  0
 50 55  1  0
 51 59  1  0
 51 61  1  0
 52 58  1  0
 52 54  1  0
 53 59  1  0
 54 55  2  0
 54 53  1  0
 56 50  2  0
 57 56  1  0
 57 52  2  0
 58 51  1  0
 59 49  1  0
 61 63  2  0
 62 61  1  0
 64 62  1  0
 65 74  2  0
 65 70  1  0
 66 62  1  0
 66 70  1  0
 67 66  1  0
 68 69  1  0
 68 67  1  0
 69 65  1  0
 70 71  2  0
 71 72  1  0
 73 72  2  0
 74 73  1  0
 75 49  1  0
 75 76  1  0
 75 85  1  0
 76 79  1  0
 77 81  1  0
 77 76  1  0
 78 77  2  0
 81 80  1  0
 83 81  1  0
 83 84  1  0
 83 82  1  0
 85 88  1  1
 85 86  1  0
 87 85  1  0
M  ISO  4   9 100  17 100  47 101  48 101
M  END
>  <TORSDO>  (18) 
F 18

>  <SCORE>  (18) 
-15.093

>  <name>  (18) 
17

>  <ligand_id>  (18) 
17

>  <original_smiles>  (18) 
[H]c1c([H])c([H])c2c(c1[H])C([H])([H])C([H])([H])C([H])([H])C2([H])N([H])C(=O)C1([H])N(C(=O)C([H])(N([H])C(=O)C([H])(N([H])C([H])([H])[H])C([H])([H])[H])C(C([H])([H])[H])(C([H])([H])[H])C([H])([H])[H])C([H])([H])c2c([H])c(OC([H])([H])c3nnn(C4([H])C([H])([H])C4([H])N([H])C(=O)N4C([H])([H])C([H])([H])C([H])([H])C([H])(n5nc(-c6c([H])c([H])c(Oc7c([H])c([H])c(F)c([H])c7F)c([H])c6[H])c(C(=O)N([H])[H])c5N([H])[H])C4([H])[H])c3[H])c([H])c([H])c2C1([H])[H]

>  <smiles>  (18) 
[H]c1c([H])c([H])c2c(c1[H])C([H])([H])C([H])([H])C([H])([H])C2([H])N([H])C(=O)C1([H])N(C(=O)C([H])(N([H])C(=O)C([H])(N([H])C([H])([H])[H])C([H])([H])[H])C(C([H])([H])[H])(C([H])([H])[H])C([H])([H])[H])C([H])([H])c2c([H])c(OC([H])([H])c3nnn(C4([H])C([H])([H])C4([H])N([H])C(=O)N4C([H])([H])C([H])([H])C([H])([H])C([H])(n5nc(-c6c([H])c([H])c(Oc7c([H])c([H])c(F)c([H])c7F)c([H])c6[H])c(C(=O)N([H])[H])c5N([H])[H])C4([H])[H])c3[H])c([H])c([H])c2C1([H])[H]

$$$$
18:0:0
     RDKit          3D

 95104  0  0  1  0  0  0  0  0999 V2000
  -28.7980  -20.6470   18.4080 C   0  0  0  0  0  2  0  0  0  0  0  0
  -28.6130  -19.2820   20.5510 C   0  0  0  0  0  3  0  0  0  0  0  0
  -28.8720  -18.1060   21.2760 C   0  0  0  0  0  3  0  0  0  0  0  0
  -29.2050  -19.4530   19.2840 C   0  0  0  0  0  0  0  0  0  0  0  0
  -29.7050  -17.1180   20.7250 C   0  0  0  0  0  0  0  0  0  0  0  0
  -30.0750  -18.4270   18.8250 C   0  0  0  0  0  0  0  0  0  0  0  0
  -30.7770  -18.4720   17.4800 C   0  0  0  0  0  1  0  0  0  0  0  0
  -30.3130  -17.2990   19.5320 N   0  0  0  0  0  0  0  0  0  0  0  0
  -30.8040  -14.2220   19.7170 C   0  0  0  0  0  0  0  0  0  0  0  0
  -30.1610  -12.2510   18.3730 C   0  0  0  0  0  2  0  0  0  0  0  0
  -29.0840  -12.6030   17.3320 C   0  0  0  0  0  2  0  0  0  0  0  0
  -27.6790  -12.4690   17.9430 C   0  0  0  0  0  2  0  0  0  0  0  0
  -27.5510  -13.2070   19.3020 C   0  0  0  0  0  3  0  0  0  0  0  0
  -28.7300  -12.8580   20.2400 C   0  0  0  0  0  2  0  0  0  0  0  0
  -29.9960  -13.1390   19.5380 N   0  0  0  0  0  0  0  0  0  0  0  0
  -31.7080  -14.5010   18.9220 O   0  0  0  0  0  0  0  0  0  0  0  0
  -31.0410  -15.8910   22.6230 C   0  0  0  0  0  2  0  0  0  0  0  0
  -32.0010  -15.3590   21.5690 C   0  0  0  0  0  2  0  0  0  0  0  0
  -29.9710  -15.8330   21.5310 C   0  0  0  0  0  3  0  0  0  0  0  0
  -30.8140  -14.7550   20.9530 N   0  0  0  0  0  0  0  0  0  0  0  0
  -25.2650  -13.8270   20.3120 C   0  0  0  0  0  0  0  0  0  0  0  0
  -24.2300  -13.0600   20.7770 C   0  0  0  0  0  0  0  0  0  0  0  0
  -24.6520  -11.7030   20.6390 C   0  0  0  0  0  0  0  0  0  0  0  0
  -26.2570  -12.9380   19.9270 N   0  0  0  0  0  0  0  0  0  0  0  0
  -25.8960  -11.6520   20.1770 N   0  0  0  0  0  0  0  0  0  0  0  0
  -23.9230  -10.4470   20.8670 C   0  0  0  0  0  0  0  0  0  0  0  0
  -24.4330   -9.4390   21.7140 C   0  0  0  0  0  3  0  0  0  0  0  0
  -23.7060   -8.2490   21.9320 C   0  0  0  0  0  3  0  0  0  0  0  0
  -22.4510   -8.0590   21.3040 C   0  0  0  0  0  0  0  0  0  0  0  0
  -21.9580   -9.0560   20.4430 C   0  0  0  0  0  3  0  0  0  0  0  0
  -22.6870  -10.2370   20.2230 C   0  0  0  0  0  3  0  0  0  0  0  0
  -21.6870   -6.9260   21.4370 O   0  0  0  0  0  0  0  0  0  0  0  0
  -21.7460   -6.1450   22.5630 C   0  0  0  0  0  0  0  0  0  0  0  0
  -21.4840   -6.6690   23.8470 C   0  0  0  0  0  3  0  0  0  0  0  0
  -21.4880   -5.8170   24.9690 C   0  0  0  0  0  3  0  0  0  0  0  0
  -21.7420   -4.4410   24.8090 C   0  0  0  0  0  0  0  0  0  0  0  0
  -21.9980   -3.9160   23.5300 C   0  0  0  0  0  3  0  0  0  0  0  0
  -21.9960   -4.7660   22.4100 C   0  0  0  0  0  0  0  0  0  0  0  0
  -22.2210   -4.2510   21.1770 F   0  0  0  0  0  0  0  0  0  0  0  0
  -21.7390   -3.6210   25.8870 F   0  0  0  0  0  0  0  0  0  0  0  0
  -22.8870  -13.5530   21.2350 C   0  0  0  0  0  0  0  0  0  0  0  0
  -22.2610  -12.8440   22.1680 N   0  0  0  0  0  0  0  0  0  0  0  0
  -22.4060  -14.5980   20.8010 O   0  0  0  0  0  0  0  0  0  0  0  0
  -22.6670  -11.9990   22.5410 H   0  0  0  0  0  0  0  0  0  0  0  0
  -21.3650  -13.1530   22.5170 H   0  0  0  0  0  0  0  0  0  0  0  0
  -25.4400  -15.2010   20.1680 N   0  0  0  0  0  0  0  0  0  0  0  0
  -24.7050  -15.8640   20.3910 H   0  0  0  0  0  0  0  0  0  0  0  0
  -26.2530  -15.6390   19.7540 H   0  0  0  0  0  0  0  0  0  0  0  0
  -29.5030  -22.0070   18.6610 C   0  0  0  0  0  2  0  0  0  0  0  0
  -28.8420  -22.8740   19.6740 N   0  0  0  0  0  4  0  0  0  0  0  0
  -29.1560  -22.5920   20.5900 H   0  0  0  0  0  0  0  0  0  0  0  0
  -27.8480  -22.7050   19.6260 H   0  0  0  0  0  0  0  0  0  0  0  0
  -29.0730  -24.3370   19.4650 C   0  0  0  0  0  2  0  0  0  0  0  0
  -28.3720  -25.2420   20.5100 C   0  0  0  0  0  2  0  0  0  0  0  0
  -28.4920  -26.6410   20.1720 O   0  0  0  0  0  0  0  0  0  0  0  0
  -24.7180  -31.8740   23.2150 C   0  0  0  0  0  0  0  0  0  0  0  0
  -27.3270  -27.3830   20.1630 C   0  0  0  0  0  0  0  0  0  0  0  0
  -23.5040  -30.4740   21.5770 C   0  0  0  0  0  3  0  0  0  0  0  0
  -24.9480  -28.9180   20.1570 C   0  0  0  0  0  0  0  0  0  0  0  0
  -26.0340  -30.8070   21.3840 C   0  0  0  0  0  2  0  0  0  0  0  0
  -26.1080  -29.4320   20.7500 C   0  0  0  0  0  0  0  0  0  0  0  0
  -27.3010  -28.6730   20.7470 C   0  0  0  0  0  3  0  0  0  0  0  0
  -26.1520  -26.8930   19.5540 C   0  0  0  0  0  3  0  0  0  0  0  0
  -24.9640  -27.6490   19.5570 C   0  0  0  0  0  3  0  0  0  0  0  0
  -23.7110  -29.7880   20.1990 C   0  0  0  0  0  2  0  0  0  0  0  0
  -24.7700  -31.0670   22.1180 N   0  0  0  0  0  0  0  0  0  0  0  0
  -23.6380  -32.1580   23.7510 O   0  0  0  0  0  0  0  0  0  0  0  0
  -22.8410  -29.4610   22.5390 C   0  0  0  0  0  0  0  0  0  0  0  0
  -21.5130  -29.3040   22.4210 N   0  0  0  0  0  0  0  0  0  0  0  0
  -23.5190  -28.8230   23.3480 O   0  0  0  0  0  0  0  0  0  0  0  0
  -21.0300  -29.8700   21.7390 H   0  0  0  0  0  0  0  0  0  0  0  0
  -18.1210  -28.1670   22.9290 C   0  0  0  0  0  0  0  0  0  0  0  0
  -20.6840  -28.3780   23.1920 C   0  0  0  0  0  3  0  0  0  0  0  0
  -20.7610  -26.9470   22.6110 C   0  0  0  0  0  2  0  0  0  0  0  0
  -19.6490  -26.6460   21.6010 C   0  0  0  0  0  2  0  0  0  0  0  0
  -18.2720  -26.8150   22.2500 C   0  0  0  0  0  2  0  0  0  0  0  0
  -19.2550  -28.9070   23.3560 C   0  0  0  0  0  0  0  0  0  0  0  0
  -19.0630  -30.1760   23.9480 C   0  0  0  0  0  3  0  0  0  0  0  0
  -17.7670  -30.7010   24.1160 C   0  0  0  0  0  3  0  0  0  0  0  0
  -16.6480  -29.9560   23.7090 C   0  0  0  0  0  3  0  0  0  0  0  0
  -16.8260  -28.6910   23.1200 C   0  0  0  0  0  3  0  0  0  0  0  0
  -26.0080  -32.4960   23.8340 C   0  0  0  0  0  3  0  0  0  0  0  0
  -25.7060  -33.8910   24.1800 N   0  0  0  0  0  0  0  0  0  0  0  0
  -26.0420  -34.9510   23.4310 C   0  0  0  0  0  0  0  0  0  0  0  0
  -26.7090  -34.8530   22.3970 O   0  0  0  0  0  0  0  0  0  0  0  0
  -25.1150  -34.0410   24.9850 H   0  0  0  0  0  0  0  0  0  0  0  0
  -24.3220  -36.7520   23.0920 C   0  0  0  0  0  1  0  0  0  0  0  0
  -25.5600  -36.3360   23.9030 C   0  0  0  0  0  3  0  0  0  0  0  0
  -27.6970  -37.1980   24.7440 C   0  0  0  0  0  1  0  0  0  0  0  0
  -26.5960  -37.3860   23.8030 N   0  0  0  0  0  0  0  0  0  0  0  0
  -26.1960  -38.3050   23.9620 H   0  0  0  0  0  0  0  0  0  0  0  0
  -26.5310  -31.7100   25.0980 C   0  0  1  0  0  0  0  0  0  0  0  0
  -25.4460  -31.4610   26.1710 C   0  0  0  0  0  1  0  0  0  0  0  0
  -27.1070  -30.3370   24.6800 C   0  0  0  0  0  1  0  0  0  0  0  0
  -27.6880  -32.4920   25.7600 C   0  0  0  0  0  1  0  0  0  0  0  0
  1 49  1  0
  1  4  1  0
  2  3  1  0
  4  2  2  0
  5  3  2  0
  6  4  1  0
  6  8  2  0
  7  6  1  0
  8  5  1  0
  9 20  1  0
 10 15  1  0
 11 12  1  0
 11 10  1  0
 13 12  1  0
 13 24  1  0
 13 14  1  0
 15  9  1  0
 15 14  1  0
 16  9  2  0
 18 17  1  0
 19  5  1  0
 19 17  1  0
 20 19  1  0
 20 18  1  0
 21 22  2  0
 22 41  1  0
 23 22  1  0
 23 26  1  0
 24 25  1  0
 24 21  1  0
 25 23  2  0
 26 27  1  0
 27 28  2  0
 29 32  1  0
 29 28  1  0
 30 29  2  0
 31 30  1  0
 31 26  2  0
 32 33  1  0
 33 34  1  0
 34 35  2  0
 36 35  1  0
 36 40  1  0
 37 36  2  0
 38 33  2  0
 38 37  1  0
 39 38  1  0
 41 42  1  0
 42 45  1  0
 42 44  1  0
 43 41  2  0
 46 21  1  0
 46 47  1  0
 48 46  1  0
 49 50  1  0
 50 51  1  0
 52 50  1  0
 53 50  1  0
 53 54  1  0
 55 54  1  0
 56 67  2  0
 57 55  1  0
 57 62  1  0
 58 66  1  0
 58 68  1  0
 59 65  1  0
 59 61  1  0
 60 66  1  0
 61 60  1  0
 62 61  2  0
 63 64  1  0
 63 57  2  0
 64 59  2  0
 65 58  1  0
 66 56  1  0
 68 70  2  0
 69 68  1  0
 71 69  1  0
 72 81  2  0
 72 77  1  0
 73 69  1  0
 73 77  1  0
 74 73  1  0
 75 76  1  0
 75 74  1  0
 76 72  1  0
 77 78  2  0
 78 79  1  0
 80 79  2  0
 81 80  1  0
 82 56  1  0
 82 83  1  0
 82 92  1  0
 83 86  1  0
 84 88  1  0
 84 83  1  0
 85 84  2  0
 88 87  1  0
 90 88  1  0
 90 91  1  0
 90 89  1  0
 92 95  1  1
 92 93  1  0
 94 92  1  0
M  ISO  4   9 100  20 100  54 101  55 101
M  END
>  <TORSDO>  (19) 
F 21

>  <SCORE>  (19) 
-10.966

>  <name>  (19) 
18

>  <ligand_id>  (19) 
18

>  <original_smiles>  (19) 
[H]c1c(C2([H])N(C(=O)N3C([H])([H])C([H])([H])C([H])([H])C([H])(n4nc(-c5c([H])c([H])c(Oc6c([H])c([H])c(F)c([H])c6F)c([H])c5[H])c(C(=O)N([H])[H])c4N([H])[H])C3([H])[H])C([H])([H])C2([H])[H])nc(C([H])([H])[H])c(C([H])([H])C([H])([H])[N+]([H])([H])C([H])([H])C([H])([H])Oc2c([H])c([H])c3c(c2[H])C([H])([H])N(C(=O)C([H])(N([H])C(=O)C([H])(N([H])C([H])([H])[H])C([H])([H])[H])C(C([H])([H])[H])(C([H])([H])[H])C([H])([H])[H])C([H])(C(=O)N([H])C2([H])c4c([H])c([H])c([H])c([H])c4C([H])([H])C([H])([H])C2([H])[H])C3([H])[H])c1[H]

>  <smiles>  (19) 
[H]c1c(C2([H])N(C(=O)N3C([H])([H])C([H])([H])C([H])([H])C([H])(n4nc(-c5c([H])c([H])c(Oc6c([H])c([H])c(F)c([H])c6F)c([H])c5[H])c(C(=O)N([H])[H])c4N([H])[H])C3([H])[H])C([H])([H])C2([H])[H])nc(C([H])([H])[H])c(C([H])([H])C([H])([H])[N+]([H])([H])C([H])([H])C([H])([H])Oc2c([H])c([H])c3c(c2[H])C([H])([H])N(C(=O)C([H])(N([H])C(=O)C([H])(N([H])C([H])([H])[H])C([H])([H])[H])C(C([H])([H])[H])(C([H])([H])[H])C([H])([H])[H])C([H])(C(=O)N([H])C2([H])c4c([H])c([H])c([H])c([H])c4C([H])([H])C([H])([H])C2([H])[H])C3([H])[H])c1[H]

$$$$
19:0:0
     RDKit          3D

 93102  0  0  1  0  0  0  0  0999 V2000
  -29.9870  -23.5110   22.1820 C   0  0  0  0  0  0  0  0  0  0  0  0
  -29.1950  -24.2180   20.2310 C   0  0  0  0  0  0  0  0  0  0  0  0
  -29.7300  -22.0610   20.5240 C   0  0  0  0  0  0  0  0  0  0  0  0
  -30.3560  -23.7750   23.6260 C   0  0  0  0  0  1  0  0  0  0  0  0
  -29.5510  -24.5430   21.4740 N   0  0  0  0  0  4  0  0  0  0  0  0
  -30.1100  -22.2570   21.7710 N   0  0  0  0  0  0  0  0  0  0  0  0
  -29.2540  -22.9830   19.6950 N   0  0  0  0  0  2  0  0  0  0  0  0
  -29.8320  -20.7490   20.0550 N   0  0  0  0  0  0  0  0  0  0  0  0
  -29.6130  -20.6300   19.0710 H   0  0  0  0  0  0  0  0  0  0  0  0
  -28.6980  -25.3730   19.3380 C   0  0  0  0  0  2  0  0  0  0  0  0
  -28.5240  -26.6600   20.0010 O   0  0  0  0  0  0  0  0  0  0  0  0
  -24.5580  -31.6960   23.1430 C   0  0  0  0  0  0  0  0  0  0  0  0
  -27.3210  -27.3560   19.9660 C   0  0  0  0  0  0  0  0  0  0  0  0
  -23.4010  -30.3140   21.4510 C   0  0  0  0  0  3  0  0  0  0  0  0
  -24.9000  -28.8510   20.0010 C   0  0  0  0  0  0  0  0  0  0  0  0
  -25.9260  -30.7160   21.3010 C   0  0  0  0  0  2  0  0  0  0  0  0
  -26.0440  -29.3640   20.6230 C   0  0  0  0  0  0  0  0  0  0  0  0
  -27.2520  -28.6240   20.6050 C   0  0  0  0  0  3  0  0  0  0  0  0
  -26.1490  -26.8730   19.3330 C   0  0  0  0  0  3  0  0  0  0  0  0
  -24.9510  -27.6070   19.3560 C   0  0  0  0  0  3  0  0  0  0  0  0
  -23.6400  -29.6840   20.0550 C   0  0  0  0  0  2  0  0  0  0  0  0
  -24.6450  -30.9240   22.0220 N   0  0  0  0  0  0  0  0  0  0  0  0
  -23.4640  -31.9330   23.6750 O   0  0  0  0  0  0  0  0  0  0  0  0
  -22.7600  -29.2520   22.3750 C   0  0  0  0  0  0  0  0  0  0  0  0
  -21.4430  -29.0490   22.2270 N   0  0  0  0  0  0  0  0  0  0  0  0
  -23.4460  -28.6180   23.1810 O   0  0  0  0  0  0  0  0  0  0  0  0
  -20.9540  -29.6080   21.5420 H   0  0  0  0  0  0  0  0  0  0  0  0
  -18.0770  -27.8030   22.6640 C   0  0  0  0  0  0  0  0  0  0  0  0
  -20.6310  -28.0760   22.9580 C   0  0  0  0  0  3  0  0  0  0  0  0
  -20.7540  -26.6700   22.3280 C   0  0  0  0  0  2  0  0  0  0  0  0
  -19.6580  -26.3750   21.2980 C   0  0  0  0  0  2  0  0  0  0  0  0
  -18.2720  -26.4810   21.9400 C   0  0  0  0  0  2  0  0  0  0  0  0
  -19.1860  -28.5600   23.1260 C   0  0  0  0  0  0  0  0  0  0  0  0
  -18.9520  -29.7990   23.7620 C   0  0  0  0  0  3  0  0  0  0  0  0
  -17.6430  -30.2810   23.9410 C   0  0  0  0  0  3  0  0  0  0  0  0
  -16.5470  -29.5190   23.4980 C   0  0  0  0  0  3  0  0  0  0  0  0
  -16.7660  -28.2820   22.8650 C   0  0  0  0  0  3  0  0  0  0  0  0
  -25.8220  -32.3340   23.7950 C   0  0  0  0  0  3  0  0  0  0  0  0
  -26.3320  -31.5460   25.0640 C   0  0  1  0  0  0  0  0  0  0  0  0
  -25.2220  -31.2690   26.1040 C   0  0  0  0  0  1  0  0  0  0  0  0
  -26.9510  -30.1890   24.6550 C   0  0  0  0  0  1  0  0  0  0  0  0
  -27.4510  -32.3510   25.7670 C   0  0  0  0  0  1  0  0  0  0  0  0
  -25.4860  -33.7200   24.1470 N   0  0  0  0  0  0  0  0  0  0  0  0
  -25.8320  -34.7940   23.4250 C   0  0  0  0  0  0  0  0  0  0  0  0
  -26.5380  -34.7240   22.4150 O   0  0  0  0  0  0  0  0  0  0  0  0
  -24.8610  -33.8480   24.9280 H   0  0  0  0  0  0  0  0  0  0  0  0
  -24.1070  -36.5840   23.0390 C   0  0  0  0  0  1  0  0  0  0  0  0
  -25.3100  -36.1650   23.8980 C   0  0  0  0  0  3  0  0  0  0  0  0
  -27.3870  -37.0470   24.8680 C   0  0  0  0  0  1  0  0  0  0  0  0
  -26.3370  -37.2290   23.8690 N   0  0  0  0  0  0  0  0  0  0  0  0
  -25.9140  -38.1410   24.0170 H   0  0  0  0  0  0  0  0  0  0  0  0
  -30.7230  -19.7540   20.7000 C   0  0  0  0  0  2  0  0  0  0  0  0
  -30.9480  -17.6200   22.0430 C   0  0  0  0  0  2  0  0  0  0  0  0
  -30.2250  -18.2950   20.8990 C   0  0  0  0  0  3  0  0  0  0  0  0
  -31.0850  -17.0030   20.6780 C   0  0  0  0  0  3  0  0  0  0  0  0
  -31.1570  -14.5870   19.9390 C   0  0  0  0  0  0  0  0  0  0  0  0
  -30.7730  -12.3730   18.8830 C   0  0  0  0  0  2  0  0  0  0  0  0
  -29.7580  -12.5070   17.7260 C   0  0  0  0  0  2  0  0  0  0  0  0
  -28.3150  -12.3780   18.2510 C   0  0  0  0  0  2  0  0  0  0  0  0
  -28.0560  -13.2900   19.4820 C   0  0  0  0  0  3  0  0  0  0  0  0
  -29.1720  -13.1340   20.5380 C   0  0  0  0  0  2  0  0  0  0  0  0
  -30.4590  -13.4110   19.8840 N   0  0  0  0  0  0  0  0  0  0  0  0
  -32.2380  -14.7210   19.3630 O   0  0  0  0  0  0  0  0  0  0  0  0
  -30.5580  -15.6440   20.5630 N   0  0  0  0  0  0  0  0  0  0  0  0
  -29.6810  -15.4580   21.0200 H   0  0  0  0  0  0  0  0  0  0  0  0
  -25.7580  -13.9730   20.4160 C   0  0  0  0  0  0  0  0  0  0  0  0
  -24.6850  -13.2390   20.8420 C   0  0  0  0  0  0  0  0  0  0  0  0
  -25.0700  -11.8680   20.7150 C   0  0  0  0  0  0  0  0  0  0  0  0
  -26.7320  -13.0540   20.0590 N   0  0  0  0  0  0  0  0  0  0  0  0
  -26.3250  -11.7800   20.2920 N   0  0  0  0  0  0  0  0  0  0  0  0
  -24.2980  -10.6340   20.9100 C   0  0  0  0  0  0  0  0  0  0  0  0
  -24.6940   -9.6560   21.8470 C   0  0  0  0  0  3  0  0  0  0  0  0
  -23.9270   -8.4860   22.0270 C   0  0  0  0  0  3  0  0  0  0  0  0
  -22.7490   -8.2860   21.2710 C   0  0  0  0  0  0  0  0  0  0  0  0
  -22.3710   -9.2540   20.3260 C   0  0  0  0  0  3  0  0  0  0  0  0
  -23.1370  -10.4160   20.1430 C   0  0  0  0  0  3  0  0  0  0  0  0
  -21.9500   -7.1730   21.3660 O   0  0  0  0  0  0  0  0  0  0  0  0
  -21.7860   -6.5040   22.5500 C   0  0  0  0  0  0  0  0  0  0  0  0
  -21.2330   -7.1270   23.6910 C   0  0  0  0  0  3  0  0  0  0  0  0
  -21.0150   -6.3790   24.8660 C   0  0  0  0  0  3  0  0  0  0  0  0
  -21.3420   -5.0100   24.9020 C   0  0  0  0  0  0  0  0  0  0  0  0
  -21.8910   -4.3870   23.7660 C   0  0  0  0  0  3  0  0  0  0  0  0
  -22.1080   -5.1310   22.5940 C   0  0  0  0  0  0  0  0  0  0  0  0
  -22.6150   -4.5200   21.4960 F   0  0  0  0  0  0  0  0  0  0  0  0
  -21.1280   -4.2910   26.0280 F   0  0  0  0  0  0  0  0  0  0  0  0
  -23.3410  -13.7720   21.2540 C   0  0  0  0  0  0  0  0  0  0  0  0
  -22.6500  -13.0770   22.1520 N   0  0  0  0  0  0  0  0  0  0  0  0
  -22.9130  -14.8370   20.8140 O   0  0  0  0  0  0  0  0  0  0  0  0
  -23.0070  -12.2180   22.5430 H   0  0  0  0  0  0  0  0  0  0  0  0
  -21.7520  -13.4230   22.4660 H   0  0  0  0  0  0  0  0  0  0  0  0
  -25.9850  -15.3400   20.2810 N   0  0  0  0  0  0  0  0  0  0  0  0
  -25.2700  -16.0350   20.4710 H   0  0  0  0  0  0  0  0  0  0  0  0
  -26.8410  -15.7400   19.9170 H   0  0  0  0  0  0  0  0  0  0  0  0
  1  4  1  0
  2  5  2  0
  3  6  2  0
  5  1  2  0
  6  1  1  0
  7  2  1  0
  7  3  1  0
  8  3  1  0
  8 52  1  0
  9  8  1  0
 10 11  1  0
 10  2  1  0
 12 23  2  0
 13 11  1  0
 13 18  1  0
 14 22  1  0
 14 24  1  0
 15 21  1  0
 15 17  1  0
 16 22  1  0
 17 16  1  0
 18 17  2  0
 19 20  1  0
 19 13  2  0
 20 15  2  0
 21 14  1  0
 22 12  1  0
 24 26  2  0
 25 24  1  0
 27 25  1  0
 28 37  2  0
 28 33  1  0
 29 25  1  0
 29 33  1  0
 30 29  1  0
 31 32  1  0
 31 30  1  0
 32 28  1  0
 33 34  2  0
 34 35  1  0
 36 35  2  0
 37 36  1  0
 38 12  1  0
 38 43  1  0
 38 39  1  0
 39 42  1  1
 39 40  1  0
 41 39  1  0
 43 46  1  0
 44 48  1  0
 44 43  1  0
 45 44  2  0
 48 47  1  0
 50 48  1  0
 50 51  1  0
 50 49  1  0
 54 52  1  0
 54 53  1  0
 55 64  1  0
 55 54  1  0
 55 53  1  0
 56 64  1  0
 57 62  1  0
 58 59  1  0
 58 57  1  0
 60 59  1  0
 60 69  1  0
 60 61  1  0
 62 56  1  0
 62 61  1  0
 63 56  2  0
 64 65  1  0
 66 67  2  0
 67 86  1  0
 68 67  1  0
 68 71  1  0
 69 70  1  0
 69 66  1  0
 70 68  2  0
 71 72  1  0
 72 73  2  0
 74 77  1  0
 74 73  1  0
 75 74  2  0
 76 75  1  0
 76 71  2  0
 77 78  1  0
 78 83  2  0
 78 79  1  0
 79 80  2  0
 80 81  1  0
 81 85  1  0
 82 81  2  0
 83 82  1  0
 84 83  1  0
 86 87  1  0
 87 90  1  0
 87 89  1  0
 88 86  2  0
 91 66  1  0
 91 92  1  0
 93 91  1  0
M  ISO  4  10 101  11 101  56 100  64 100
M  END
>  <TORSDO>  (20) 
F 19

>  <SCORE>  (20) 
-13.152

>  <name>  (20) 
19

>  <ligand_id>  (20) 
19

>  <original_smiles>  (20) 
[H]c1c([H])c([H])c2c(c1[H])C([H])([H])C([H])([H])C([H])([H])C2([H])N([H])C(=O)C1([H])N(C(=O)C([H])(N([H])C(=O)C([H])(N([H])C([H])([H])[H])C([H])([H])[H])C(C([H])([H])[H])(C([H])([H])[H])C([H])([H])[H])C([H])([H])c2c([H])c(OC([H])([H])c3nc(N([H])C([H])([H])C4([H])C([H])([H])C4([H])N([H])C(=O)N4C([H])([H])C([H])([H])C([H])([H])C([H])(n5nc(-c6c([H])c([H])c(Oc7c([H])c([H])c(F)c([H])c7F)c([H])c6[H])c(C(=O)N([H])[H])c5N([H])[H])C4([H])[H])nc(C([H])([H])[H])n3)c([H])c([H])c2C1([H])[H]

>  <smiles>  (20) 
[H]c1c([H])c([H])c2c(c1[H])C([H])([H])C([H])([H])C([H])([H])C2([H])N([H])C(=O)C1([H])N(C(=O)C([H])(N([H])C(=O)C([H])(N([H])C([H])([H])[H])C([H])([H])[H])C(C([H])([H])[H])(C([H])([H])[H])C([H])([H])[H])C([H])([H])c2c([H])c(OC([H])([H])c3nc(N([H])C([H])([H])C4([H])C([H])([H])C4([H])N([H])C(=O)N4C([H])([H])C([H])([H])C([H])([H])C([H])(n5nc(-c6c([H])c([H])c(Oc7c([H])c([H])c(F)c([H])c7F)c([H])c6[H])c(C(=O)N([H])[H])c5N([H])[H])C4([H])[H])nc(C([H])([H])[H])n3)c([H])c([H])c2C1([H])[H]

$$$$
20:0:0
     RDKit          3D

 92101  0  0  1  0  0  0  0  0999 V2000
  -27.6260  -20.5470   19.7350 C   0  0  0  0  0  3  0  0  0  0  0  0
  -26.8960  -21.6620   19.2700 C   0  0  0  0  0  0  0  0  0  0  0  0
  -28.8350  -21.0230   20.1720 C   0  0  0  0  0  0  0  0  0  0  0  0
  -25.5350  -21.6820   18.6340 C   0  0  0  0  0  1  0  0  0  0  0  0
  -27.5620  -22.7830   19.4440 N   0  0  0  0  0  0  0  0  0  0  0  0
  -28.7660  -22.4970   20.0140 N   0  0  0  0  0  0  0  0  0  0  0  0
  -30.8690  -23.7180   19.4430 C   0  0  0  0  0  1  0  0  0  0  0  0
  -29.5850  -23.7950   20.2790 C   0  0  0  0  0  3  0  0  0  0  0  0
  -28.8310  -25.2600   19.9770 C   0  0  0  0  0  2  0  0  0  0  0  0
  -29.1670  -26.7000   20.4140 O   0  0  0  0  0  0  0  0  0  0  0  0
  -25.1420  -31.6300   24.0840 C   0  0  0  0  0  0  0  0  0  0  0  0
  -28.1100  -27.6690   20.4400 C   0  0  0  0  0  0  0  0  0  0  0  0
  -24.1480  -30.5970   22.0790 C   0  0  0  0  0  3  0  0  0  0  0  0
  -25.7690  -29.3680   20.5210 C   0  0  0  0  0  0  0  0  0  0  0  0
  -26.6980  -30.8970   22.2450 C   0  0  0  0  0  2  0  0  0  0  0  0
  -26.8690  -29.6760   21.3330 C   0  0  0  0  0  0  0  0  0  0  0  0
  -28.0450  -28.8430   21.2860 C   0  0  0  0  0  3  0  0  0  0  0  0
  -26.9900  -27.4740   19.5970 C   0  0  0  0  0  3  0  0  0  0  0  0
  -25.8430  -28.2840   19.6400 C   0  0  0  0  0  3  0  0  0  0  0  0
  -24.5250  -30.2290   20.6200 C   0  0  0  0  0  2  0  0  0  0  0  0
  -25.3440  -31.0520   22.8640 N   0  0  0  0  0  0  0  0  0  0  0  0
  -24.0030  -31.7910   24.5440 O   0  0  0  0  0  0  0  0  0  0  0  0
  -23.4060  -29.4070   22.7360 C   0  0  0  0  0  0  0  0  0  0  0  0
  -22.1160  -29.2290   22.4020 N   0  0  0  0  0  0  0  0  0  0  0  0
  -23.9990  -28.6500   23.5100 O   0  0  0  0  0  0  0  0  0  0  0  0
  -21.6960  -29.8940   21.7680 H   0  0  0  0  0  0  0  0  0  0  0  0
  -18.7250  -27.9580   22.3360 C   0  0  0  0  0  0  0  0  0  0  0  0
  -21.2470  -28.1440   22.8690 C   0  0  0  0  0  3  0  0  0  0  0  0
  -21.4190  -26.8780   21.9990 C   0  0  0  0  0  2  0  0  0  0  0  0
  -20.4110  -26.7920   20.8490 C   0  0  0  0  0  2  0  0  0  0  0  0
  -18.9780  -26.7960   21.3920 C   0  0  0  0  0  2  0  0  0  0  0  0
  -19.7930  -28.6010   23.0170 C   0  0  0  0  0  0  0  0  0  0  0  0
  -19.5050  -29.6960   23.8600 C   0  0  0  0  0  3  0  0  0  0  0  0
  -18.1830  -30.1530   24.0240 C   0  0  0  0  0  3  0  0  0  0  0  0
  -17.1290  -29.5040   23.3570 C   0  0  0  0  0  3  0  0  0  0  0  0
  -17.3990  -28.4040   22.5220 C   0  0  0  0  0  3  0  0  0  0  0  0
  -26.3360  -32.1290   24.9550 C   0  0  0  0  0  3  0  0  0  0  0  0
  -26.4750  -31.3510   26.3210 C   0  0  1  0  0  0  0  0  0  0  0  0
  -25.1550  -31.2610   27.1210 C   0  0  0  0  0  1  0  0  0  0  0  0
  -26.9790  -29.9080   26.0860 C   0  0  0  0  0  1  0  0  0  0  0  0
  -27.5300  -32.0450   27.2130 C   0  0  0  0  0  1  0  0  0  0  0  0
  -26.1370  -33.5650   25.2000 N   0  0  0  0  0  0  0  0  0  0  0  0
  -26.7190  -34.5460   24.4980 C   0  0  0  0  0  0  0  0  0  0  0  0
  -27.5430  -34.3320   23.6060 O   0  0  0  0  0  0  0  0  0  0  0  0
  -25.4370  -33.8130   25.8820 H   0  0  0  0  0  0  0  0  0  0  0  0
  -25.3230  -36.5220   23.8040 C   0  0  0  0  0  1  0  0  0  0  0  0
  -26.3290  -35.9970   24.8420 C   0  0  0  0  0  3  0  0  0  0  0  0
  -28.3460  -36.6690   26.0720 C   0  0  0  0  0  1  0  0  0  0  0  0
  -27.4830  -36.9170   24.9190 N   0  0  0  0  0  0  0  0  0  0  0  0
  -27.1730  -37.8830   24.9580 H   0  0  0  0  0  0  0  0  0  0  0  0
  -29.8400  -20.0800   20.6490 N   0  0  0  0  0  0  0  0  0  0  0  0
  -30.7710  -20.4240   20.8640 H   0  0  0  0  0  0  0  0  0  0  0  0
  -31.1500  -15.3190   20.6910 C   0  0  0  0  0  0  0  0  0  0  0  0
  -31.0510  -12.9910   19.7460 C   0  0  0  0  0  2  0  0  0  0  0  0
  -30.1910  -12.9680   18.4640 C   0  0  0  0  0  2  0  0  0  0  0  0
  -28.7030  -12.7760   18.8100 C   0  0  0  0  0  2  0  0  0  0  0  0
  -28.2340  -13.7000   19.9680 C   0  0  0  0  0  3  0  0  0  0  0  0
  -29.2250  -13.7100   21.1520 C   0  0  0  0  0  2  0  0  0  0  0  0
  -30.5310  -14.0860   20.6040 N   0  0  0  0  0  0  0  0  0  0  0  0
  -32.3670  -15.3720   20.4900 O   0  0  0  0  0  0  0  0  0  0  0  0
  -30.8490  -17.7220   19.8050 C   0  0  0  0  0  2  0  0  0  0  0  0
  -29.9000  -17.4960   21.5750 C   0  0  0  0  0  2  0  0  0  0  0  0
  -29.6890  -18.5550   20.4300 C   0  0  0  0  0  3  0  0  0  0  0  0
  -30.3870  -16.4980   20.5550 N   0  0  0  0  0  0  0  0  0  0  0  0
  -25.8300  -14.2680   20.6420 C   0  0  0  0  0  0  0  0  0  0  0  0
  -24.7430  -13.4870   20.9230 C   0  0  0  0  0  0  0  0  0  0  0  0
  -25.1950  -12.1360   20.8400 C   0  0  0  0  0  0  0  0  0  0  0  0
  -26.8710  -13.3920   20.3950 N   0  0  0  0  0  0  0  0  0  0  0  0
  -26.4970  -12.1000   20.5810 N   0  0  0  0  0  0  0  0  0  0  0  0
  -24.4500  -10.8730   20.9340 C   0  0  0  0  0  0  0  0  0  0  0  0
  -24.8110   -9.8680   21.8560 C   0  0  0  0  0  3  0  0  0  0  0  0
  -24.0660   -8.6730   21.9420 C   0  0  0  0  0  3  0  0  0  0  0  0
  -22.9440   -8.4720   21.1020 C   0  0  0  0  0  0  0  0  0  0  0  0
  -22.6020   -9.4670   20.1700 C   0  0  0  0  0  3  0  0  0  0  0  0
  -23.3480  -10.6550   20.0840 C   0  0  0  0  0  3  0  0  0  0  0  0
  -22.1770   -7.3330   21.0970 O   0  0  0  0  0  0  0  0  0  0  0  0
  -21.9440   -6.6160   22.2430 C   0  0  0  0  0  0  0  0  0  0  0  0
  -21.3000   -7.1880   23.3620 C   0  0  0  0  0  3  0  0  0  0  0  0
  -21.0200   -6.3960   24.4940 C   0  0  0  0  0  3  0  0  0  0  0  0
  -21.3720   -5.0330   24.5040 C   0  0  0  0  0  0  0  0  0  0  0  0
  -22.0050   -4.4610   23.3870 C   0  0  0  0  0  3  0  0  0  0  0  0
  -22.2880   -5.2500   22.2600 C   0  0  0  0  0  0  0  0  0  0  0  0
  -22.8800   -4.6880   21.1780 F   0  0  0  0  0  0  0  0  0  0  0  0
  -21.0950   -4.2690   25.5860 F   0  0  0  0  0  0  0  0  0  0  0  0
  -23.3400  -13.9660   21.1590 C   0  0  0  0  0  0  0  0  0  0  0  0
  -22.5770  -13.2500   21.9760 N   0  0  0  0  0  0  0  0  0  0  0  0
  -22.9300  -15.0120   20.6560 O   0  0  0  0  0  0  0  0  0  0  0  0
  -22.9190  -12.4030   22.4070 H   0  0  0  0  0  0  0  0  0  0  0  0
  -21.6340  -13.5520   22.1740 H   0  0  0  0  0  0  0  0  0  0  0  0
  -26.0180  -15.6450   20.5480 N   0  0  0  0  0  0  0  0  0  0  0  0
  -25.2620  -16.3060   20.6800 H   0  0  0  0  0  0  0  0  0  0  0  0
  -26.8980  -16.0890   20.3140 H   0  0  0  0  0  0  0  0  0  0  0  0
  1  3  2  0
  2  5  2  0
  2  1  1  0
  3 51  1  0
  4  2  1  0
  5  6  1  0
  6  3  1  0
  6  8  1  0
  8  7  1  0
  9  8  1  0
  9 10  1  0
 10 12  1  0
 11 22  2  0
 12 17  1  0
 13 23  1  0
 13 21  1  0
 14 20  1  0
 14 16  1  0
 15 21  1  0
 16 15  1  0
 17 16  2  0
 18 19  1  0
 18 12  2  0
 19 14  2  0
 20 13  1  0
 21 11  1  0
 23 25  2  0
 24 23  1  0
 26 24  1  0
 27 36  2  0
 27 32  1  0
 28 24  1  0
 28 32  1  0
 29 28  1  0
 30 31  1  0
 30 29  1  0
 31 27  1  0
 32 33  2  0
 33 34  1  0
 35 34  2  0
 36 35  1  0
 37 11  1  0
 37 42  1  0
 37 38  1  0
 38 39  1  1
 38 41  1  0
 40 38  1  0
 42 45  1  0
 43 47  1  0
 43 42  1  0
 44 43  2  0
 47 46  1  0
 47 49  1  0
 49 50  1  0
 49 48  1  0
 51 52  1  0
 54 59  1  0
 55 56  1  0
 55 54  1  0
 57 56  1  0
 57 68  1  0
 57 58  1  0
 59 53  1  0
 59 58  1  0
 60 53  2  0
 61 63  1  0
 61 64  1  0
 63 51  1  0
 63 62  1  0
 64 53  1  0
 64 62  1  0
 65 66  2  0
 66 85  1  0
 67 66  1  0
 67 70  1  0
 68 69  1  0
 68 65  1  0
 69 67  2  0
 70 71  1  0
 71 72  2  0
 73 72  1  0
 74 73  2  0
 75 74  1  0
 75 70  2  0
 76 73  1  0
 76 77  1  0
 77 82  2  0
 77 78  1  0
 78 79  2  0
 79 80  1  0
 80 84  1  0
 81 80  2  0
 82 81  1  0
 83 82  1  0
 85 86  1  0
 86 89  1  0
 86 88  1  0
 87 85  2  0
 90 65  1  0
 90 91  1  0
 92 90  1  0
M  ISO  4   9 101  10 101  53 100  64 100
M  END
>  <TORSDO>  (21) 
F 19

>  <SCORE>  (21) 
-11.521

>  <name>  (21) 
20

>  <ligand_id>  (21) 
20

>  <original_smiles>  (21) 
[H]c1c([H])c([H])c2c(c1[H])C([H])([H])C([H])([H])C([H])([H])C2([H])N([H])C(=O)C1([H])N(C(=O)C([H])(N([H])C(=O)C([H])(N([H])C([H])([H])[H])C([H])([H])[H])C(C([H])([H])[H])(C([H])([H])[H])C([H])([H])[H])C([H])([H])c2c([H])c(OC([H])([H])C([H])(n3nc(C([H])([H])[H])c([H])c3N([H])C3([H])C([H])([H])N(C(=O)N4C([H])([H])C([H])([H])C([H])([H])C([H])(n5nc(-c6c([H])c([H])c(Oc7c([H])c([H])c(F)c([H])c7F)c([H])c6[H])c(C(=O)N([H])[H])c5N([H])[H])C4([H])[H])C3([H])[H])C([H])([H])[H])c([H])c([H])c2C1([H])[H]

>  <smiles>  (21) 
[H]c1c([H])c([H])c2c(c1[H])C([H])([H])C([H])([H])C([H])([H])C2([H])N([H])C(=O)C1([H])N(C(=O)C([H])(N([H])C(=O)C([H])(N([H])C([H])([H])[H])C([H])([H])[H])C(C([H])([H])[H])(C([H])([H])[H])C([H])([H])[H])C([H])([H])c2c([H])c(OC([H])([H])C([H])(n3nc(C([H])([H])[H])c([H])c3N([H])C3([H])C([H])([H])N(C(=O)N4C([H])([H])C([H])([H])C([H])([H])C([H])(n5nc(-c6c([H])c([H])c(Oc7c([H])c([H])c(F)c([H])c7F)c([H])c6[H])c(C(=O)N([H])[H])c5N([H])[H])C4([H])[H])C3([H])[H])C([H])([H])[H])c([H])c([H])c2C1([H])[H]

$$$$
21:0:0
     RDKit          3D

 95104  0  0  1  0  0  0  0  0999 V2000
  -27.7470  -20.3640   20.4780 C   0  0  0  0  0  2  0  0  0  0  0  0
  -30.0270  -21.1710   19.9810 C   0  0  0  0  0  2  0  0  0  0  0  0
  -27.1980  -21.8220   20.3270 C   0  0  0  0  0  2  0  0  0  0  0  0
  -29.5140  -22.6150   19.8050 C   0  0  0  0  0  2  0  0  0  0  0  0
  -28.9660  -20.1460   19.5500 C   0  0  0  0  0  3  0  0  0  0  0  0
  -28.2270  -22.9070   20.5230 N   0  0  1  0  0  4  0  0  0  0  0  0
  -28.4560  -22.8720   21.5080 H   0  0  0  0  0  0  0  0  0  0  0  0
  -30.9070  -14.6730   21.0290 C   0  0  0  0  0  0  0  0  0  0  0  0
  -30.7870  -12.4620   20.0120 C   0  0  0  0  0  2  0  0  0  0  0  0
  -29.9420  -12.6050   18.7250 C   0  0  0  0  0  2  0  0  0  0  0  0
  -28.4490  -12.4080   19.0560 C   0  0  0  0  0  2  0  0  0  0  0  0
  -27.9770  -13.3440   20.1980 C   0  0  0  0  0  3  0  0  0  0  0  0
  -28.9210  -13.1880   21.4170 C   0  0  0  0  0  2  0  0  0  0  0  0
  -30.2970  -13.4660   20.9640 N   0  0  0  0  0  0  0  0  0  0  0  0
  -32.1190  -14.8400   20.8790 O   0  0  0  0  0  0  0  0  0  0  0  0
  -30.6770  -16.9570   18.8780 C   0  0  0  0  0  0  0  0  0  0  0  0
  -30.3140  -18.2170   18.4940 C   0  0  0  0  0  0  0  0  0  0  0  0
  -30.0520  -16.8290   20.1700 C   0  0  0  0  0  0  0  0  0  0  0  0
  -31.5480  -16.0300   18.0370 C   0  0  0  0  0  1  0  0  0  0  0  0
  -30.6680  -18.9340   17.2270 C   0  0  0  0  0  1  0  0  0  0  0  0
  -29.3480  -17.9040   20.5090 N   0  0  0  0  0  0  0  0  0  0  0  0
  -29.5230  -18.7790   19.4960 N   0  0  0  0  0  0  0  0  0  0  0  0
  -30.0410  -15.6980   21.0190 N   0  0  0  0  0  0  0  0  0  0  0  0
  -29.1340  -15.4860   21.4040 H   0  0  0  0  0  0  0  0  0  0  0  0
  -25.5230  -13.9880   20.6740 C   0  0  0  0  0  0  0  0  0  0  0  0
  -24.4190  -13.2250   20.9540 C   0  0  0  0  0  0  0  0  0  0  0  0
  -24.8750  -11.8730   20.9950 C   0  0  0  0  0  0  0  0  0  0  0  0
  -26.5800  -13.0940   20.5590 N   0  0  0  0  0  0  0  0  0  0  0  0
  -26.1850  -11.8220   20.8130 N   0  0  0  0  0  0  0  0  0  0  0  0
  -24.1380  -10.6120   21.1380 C   0  0  0  0  0  0  0  0  0  0  0  0
  -24.5090   -9.6470   22.1000 C   0  0  0  0  0  3  0  0  0  0  0  0
  -23.7730   -8.4510   22.2300 C   0  0  0  0  0  3  0  0  0  0  0  0
  -22.6560   -8.2120   21.3980 C   0  0  0  0  0  0  0  0  0  0  0  0
  -22.3040   -9.1650   20.4270 C   0  0  0  0  0  3  0  0  0  0  0  0
  -23.0410  -10.3510   20.2940 C   0  0  0  0  0  3  0  0  0  0  0  0
  -21.8960   -7.0670   21.4370 O   0  0  0  0  0  0  0  0  0  0  0  0
  -21.7600   -6.3370   22.5880 C   0  0  0  0  0  0  0  0  0  0  0  0
  -21.2050   -6.8900   23.7640 C   0  0  0  0  0  3  0  0  0  0  0  0
  -21.0200   -6.0770   24.9010 C   0  0  0  0  0  3  0  0  0  0  0  0
  -21.3790   -4.7150   24.8620 C   0  0  0  0  0  0  0  0  0  0  0  0
  -21.9260   -4.1650   23.6910 C   0  0  0  0  0  3  0  0  0  0  0  0
  -22.1110   -4.9730   22.5560 C   0  0  0  0  0  0  0  0  0  0  0  0
  -22.6200   -4.4320   21.4220 F   0  0  0  0  0  0  0  0  0  0  0  0
  -21.1910   -3.9350   25.9530 F   0  0  0  0  0  0  0  0  0  0  0  0
  -23.0050  -13.7110   21.0780 C   0  0  0  0  0  0  0  0  0  0  0  0
  -22.2020  -13.0530   21.9060 N   0  0  0  0  0  0  0  0  0  0  0  0
  -22.6150  -14.7120   20.4810 O   0  0  0  0  0  0  0  0  0  0  0  0
  -22.5260  -12.2640   22.4420 H   0  0  0  0  0  0  0  0  0  0  0  0
  -21.2480  -13.3640   22.0230 H   0  0  0  0  0  0  0  0  0  0  0  0
  -25.6970  -15.3540   20.4810 N   0  0  0  0  0  0  0  0  0  0  0  0
  -24.9100  -15.9930   20.5280 H   0  0  0  0  0  0  0  0  0  0  0  0
  -26.5530  -15.8090   20.1920 H   0  0  0  0  0  0  0  0  0  0  0  0
  -27.6600  -24.3080   20.3450 C   0  0  0  0  0  2  0  0  0  0  0  0
  -28.6490  -25.4160   19.8000 C   0  0  0  0  0  2  0  0  0  0  0  0
  -28.5800  -26.7690   20.3200 O   0  0  0  0  0  0  0  0  0  0  0  0
  -24.6640  -31.9280   23.2820 C   0  0  0  0  0  0  0  0  0  0  0  0
  -27.4230  -27.5140   20.2440 C   0  0  0  0  0  0  0  0  0  0  0  0
  -23.5270  -30.5250   21.5940 C   0  0  0  0  0  3  0  0  0  0  0  0
  -25.0380  -29.0270   20.1930 C   0  0  0  0  0  0  0  0  0  0  0  0
  -26.0470  -30.9190   21.4640 C   0  0  0  0  0  2  0  0  0  0  0  0
  -26.1690  -29.5400   20.8400 C   0  0  0  0  0  0  0  0  0  0  0  0
  -27.3600  -28.7790   20.8900 C   0  0  0  0  0  3  0  0  0  0  0  0
  -26.2870  -27.0460   19.5580 C   0  0  0  0  0  3  0  0  0  0  0  0
  -25.0900  -27.7790   19.5510 C   0  0  0  0  0  3  0  0  0  0  0  0
  -23.7870  -29.8670   20.2110 C   0  0  0  0  0  2  0  0  0  0  0  0
  -24.7660  -31.1410   22.1750 N   0  0  0  0  0  0  0  0  0  0  0  0
  -23.5670  -32.1740   23.7980 O   0  0  0  0  0  0  0  0  0  0  0  0
  -22.8620  -29.4890   22.5290 C   0  0  0  0  0  0  0  0  0  0  0  0
  -21.5400  -29.3110   22.3900 N   0  0  0  0  0  0  0  0  0  0  0  0
  -23.5390  -28.8470   23.3430 O   0  0  0  0  0  0  0  0  0  0  0  0
  -21.0500  -29.8820   21.7150 H   0  0  0  0  0  0  0  0  0  0  0  0
  -18.1540  -28.1440   22.8670 C   0  0  0  0  0  0  0  0  0  0  0  0
  -20.7160  -28.3610   23.1400 C   0  0  0  0  0  3  0  0  0  0  0  0
  -20.7940  -26.9430   22.5280 C   0  0  0  0  0  2  0  0  0  0  0  0
  -19.6920  -26.6730   21.4970 C   0  0  0  0  0  2  0  0  0  0  0  0
  -18.3110  -26.8190   22.1410 C   0  0  0  0  0  2  0  0  0  0  0  0
  -19.2850  -28.8750   23.3240 C   0  0  0  0  0  0  0  0  0  0  0  0
  -19.0830  -30.1160   23.9670 C   0  0  0  0  0  3  0  0  0  0  0  0
  -17.7860  -30.6300   24.1470 C   0  0  0  0  0  3  0  0  0  0  0  0
  -16.6710  -29.8990   23.7030 C   0  0  0  0  0  3  0  0  0  0  0  0
  -16.8570  -28.6560   23.0710 C   0  0  0  0  0  3  0  0  0  0  0  0
  -25.9210  -32.5750   23.9430 C   0  0  0  0  0  3  0  0  0  0  0  0
  -25.5980  -33.9780   24.2310 N   0  0  0  0  0  0  0  0  0  0  0  0
  -25.9770  -35.0150   23.4710 C   0  0  0  0  0  0  0  0  0  0  0  0
  -26.6890  -34.8890   22.4740 O   0  0  0  0  0  0  0  0  0  0  0  0
  -24.9450  -34.1470   24.9810 H   0  0  0  0  0  0  0  0  0  0  0  0
  -24.2720  -36.8060   23.0120 C   0  0  0  0  0  1  0  0  0  0  0  0
  -25.4780  -36.4140   23.8800 C   0  0  0  0  0  3  0  0  0  0  0  0
  -27.5850  -37.3070   24.7740 C   0  0  0  0  0  1  0  0  0  0  0  0
  -26.5200  -37.4600   23.7880 N   0  0  0  0  0  0  0  0  0  0  0  0
  -26.1130  -38.3860   23.8970 H   0  0  0  0  0  0  0  0  0  0  0  0
  -26.3930  -31.8240   25.2460 C   0  0  1  0  0  0  0  0  0  0  0  0
  -25.2680  -31.6080   26.2860 C   0  0  0  0  0  1  0  0  0  0  0  0
  -26.9800  -30.4380   24.8890 C   0  0  0  0  0  1  0  0  0  0  0  0
  -27.5280  -32.6340   25.9180 C   0  0  0  0  0  1  0  0  0  0  0  0
  3  1  1  0
  3  6  1  0
  4  2  1  0
  4  6  1  0
  5 22  1  0
  5  2  1  0
  5  1  1  0
  6  7  1  1
  9 14  1  0
 10 11  1  0
 10  9  1  0
 12 11  1  0
 12 28  1  0
 12 13  1  0
 14  8  1  0
 14 13  1  0
 15  8  2  0
 16 18  1  0
 17 16  2  0
 17 22  1  0
 18 21  2  0
 18 23  1  0
 19 16  1  0
 20 17  1  0
 22 21  1  0
 23  8  1  0
 23 24  1  0
 25 26  2  0
 26 27  1  0
 26 45  1  0
 27 30  1  0
 28 25  1  0
 28 29  1  0
 29 27  2  0
 30 31  1  0
 31 32  2  0
 33 36  1  0
 33 32  1  0
 34 33  2  0
 35 34  1  0
 35 30  2  0
 36 37  1  0
 37 38  1  0
 38 39  2  0
 40 39  1  0
 40 44  1  0
 41 40  2  0
 42 37  2  0
 42 41  1  0
 43 42  1  0
 45 46  1  0
 46 49  1  0
 46 48  1  0
 47 45  2  0
 50 51  1  0
 50 25  1  0
 52 50  1  0
 53  6  1  0
 54 55  1  0
 54 53  1  0
 56 67  2  0
 57 55  1  0
 57 62  1  0
 58 66  1  0
 58 68  1  0
 59 65  1  0
 59 61  1  0
 60 66  1  0
 61 62  2  0
 61 60  1  0
 63 57  2  0
 64 63  1  0
 64 59  2  0
 65 58  1  0
 66 56  1  0
 68 70  2  0
 69 68  1  0
 71 69  1  0
 72 81  2  0
 72 77  1  0
 73 69  1  0
 73 77  1  0
 74 73  1  0
 75 76  1  0
 75 74  1  0
 76 72  1  0
 77 78  2  0
 78 79  1  0
 80 79  2  0
 81 80  1  0
 82 56  1  0
 82 83  1  0
 82 92  1  0
 83 86  1  0
 84 88  1  0
 84 83  1  0
 85 84  2  0
 88 87  1  0
 90 88  1  0
 90 91  1  0
 90 89  1  0
 92 95  1  1
 92 93  1  0
 94 92  1  0
M  ISO  4   8 100  23 100  54 101  55 101
M  END
>  <TORSDO>  (22) 
F 18

>  <SCORE>  (22) 
-14.221

>  <name>  (22) 
21

>  <ligand_id>  (22) 
21

>  <original_smiles>  (22) 
[H]c1c([H])c([H])c2c(c1[H])C([H])([H])C([H])([H])C([H])([H])C2([H])N([H])C(=O)C1([H])N(C(=O)C([H])(N([H])C(=O)C([H])(N([H])C([H])([H])[H])C([H])([H])[H])C(C([H])([H])[H])(C([H])([H])[H])C([H])([H])[H])C([H])([H])c2c([H])c(OC([H])([H])C([H])([H])[N+]3([H])C([H])([H])C([H])([H])C([H])(n4nc(N([H])C(=O)N5C([H])([H])C([H])([H])C([H])([H])C([H])(n6nc(-c7c([H])c([H])c(Oc8c([H])c([H])c(F)c([H])c8F)c([H])c7[H])c(C(=O)N([H])[H])c6N([H])[H])C5([H])[H])c(C([H])([H])[H])c4C([H])([H])[H])C([H])([H])C3([H])[H])c([H])c([H])c2C1([H])[H]

>  <smiles>  (22) 
[H]c1c([H])c([H])c2c(c1[H])C([H])([H])C([H])([H])C([H])([H])C2([H])N([H])C(=O)C1([H])N(C(=O)C([H])(N([H])C(=O)C([H])(N([H])C([H])([H])[H])C([H])([H])[H])C(C([H])([H])[H])(C([H])([H])[H])C([H])([H])[H])C([H])([H])c2c([H])c(OC([H])([H])C([H])([H])[N+]3([H])C([H])([H])C([H])([H])C([H])(n4nc(N([H])C(=O)N5C([H])([H])C([H])([H])C([H])([H])C([H])(n6nc(-c7c([H])c([H])c(Oc8c([H])c([H])c(F)c([H])c8F)c([H])c7[H])c(C(=O)N([H])[H])c6N([H])[H])C5([H])[H])c(C([H])([H])[H])c4C([H])([H])[H])C([H])([H])C3([H])[H])c([H])c([H])c2C1([H])[H]

$$$$
22:0:0
     RDKit          3D

 91101  0  0  1  0  0  0  0  0999 V2000
  -30.7770  -20.5850   18.7740 C   0  0  0  0  0  3  0  0  0  0  0  0
  -29.7150  -20.5240   19.7270 C   0  0  0  0  0  0  0  0  0  0  0  0
  -29.2650  -22.0600   19.7200 C   0  0  0  0  0  3  0  0  0  0  0  0
  -27.9990  -23.8510   18.4650 C   0  0  0  0  0  2  0  0  0  0  0  0
  -29.3900  -23.6140   17.8550 C   0  0  0  0  0  2  0  0  0  0  0  0
  -28.1960  -23.5930   19.9750 C   0  0  1  0  0  0  0  0  0  0  0  0
  -26.9350  -23.1710   20.7420 C   0  0  0  0  0  1  0  0  0  0  0  0
  -30.8440  -21.6850   18.0560 N   0  0  0  0  0  2  0  0  0  0  0  0
  -29.8850  -22.4640   18.5650 N   0  0  0  0  0  0  0  0  0  0  0  0
  -30.5540  -15.6230   19.5140 C   0  0  0  0  0  0  0  0  0  0  0  0
  -30.4770  -13.1410   18.4600 C   0  0  0  0  0  2  0  0  0  0  0  0
  -29.3880  -12.8390   17.3820 C   0  0  0  0  0  2  0  0  0  0  0  0
  -28.0470  -12.4510   18.0230 C   0  0  0  0  0  2  0  0  0  0  0  0
  -27.7430  -13.3560   19.2340 C   0  0  0  0  0  3  0  0  0  0  0  0
  -28.9480  -13.5200   20.1820 C   0  0  0  0  0  2  0  0  0  0  0  0
  -30.0170  -14.2450   19.4300 N   0  0  0  0  0  0  0  0  0  0  0  0
  -31.6840  -15.5980   18.9850 O   0  0  0  0  0  0  0  0  0  0  0  0
  -29.8390  -17.5460   22.4300 C   0  0  0  0  0  2  0  0  0  0  0  0
  -29.9870  -18.8990   21.7790 C   0  0  0  0  0  2  0  0  0  0  0  0
  -29.3430  -16.5680   21.3660 C   0  0  0  0  0  2  0  0  0  0  0  0
  -29.5920  -18.7420   20.3150 C   0  0  0  0  0  3  0  0  0  0  0  0
  -29.8590  -16.9490   20.0320 N   0  0  0  0  0  0  0  0  0  0  0  0
  -25.5760  -13.8530   20.4640 C   0  0  0  0  0  0  0  0  0  0  0  0
  -24.5660  -13.0630   20.9310 C   0  0  0  0  0  0  0  0  0  0  0  0
  -24.9650  -11.7150   20.6690 C   0  0  0  0  0  0  0  0  0  0  0  0
  -26.5210  -12.9920   19.9370 N   0  0  0  0  0  0  0  0  0  0  0  0
  -26.1800  -11.6900   20.1260 N   0  0  0  0  0  0  0  0  0  0  0  0
  -24.2280  -10.4560   20.8490 C   0  0  0  0  0  0  0  0  0  0  0  0
  -24.6920   -9.4450   21.7190 C   0  0  0  0  0  3  0  0  0  0  0  0
  -23.9530   -8.2540   21.8910 C   0  0  0  0  0  3  0  0  0  0  0  0
  -22.7360   -8.0660   21.1940 C   0  0  0  0  0  0  0  0  0  0  0  0
  -22.2900   -9.0670   20.3120 C   0  0  0  0  0  3  0  0  0  0  0  0
  -23.0300  -10.2490   20.1380 C   0  0  0  0  0  3  0  0  0  0  0  0
  -21.9650   -6.9320   21.2790 O   0  0  0  0  0  0  0  0  0  0  0  0
  -21.8560   -6.2220   22.4480 C   0  0  0  0  0  0  0  0  0  0  0  0
  -21.3540   -6.8060   23.6320 C   0  0  0  0  0  3  0  0  0  0  0  0
  -21.1930   -6.0200   24.7910 C   0  0  0  0  0  3  0  0  0  0  0  0
  -21.5240   -4.6530   24.7670 C   0  0  0  0  0  0  0  0  0  0  0  0
  -22.0180   -4.0670   23.5880 C   0  0  0  0  0  3  0  0  0  0  0  0
  -22.1810   -4.8500   22.4310 C   0  0  0  0  0  0  0  0  0  0  0  0
  -22.6370   -4.2760   21.2920 F   0  0  0  0  0  0  0  0  0  0  0  0
  -21.3620   -3.8960   25.8780 F   0  0  0  0  0  0  0  0  0  0  0  0
  -23.2570  -13.5370   21.4910 C   0  0  0  0  0  0  0  0  0  0  0  0
  -22.6720  -12.7800   22.4100 N   0  0  0  0  0  0  0  0  0  0  0  0
  -22.7700  -14.6150   21.1480 O   0  0  0  0  0  0  0  0  0  0  0  0
  -23.0820  -11.9060   22.7050 H   0  0  0  0  0  0  0  0  0  0  0  0
  -21.7990  -13.0760   22.8250 H   0  0  0  0  0  0  0  0  0  0  0  0
  -25.7610  -15.2330   20.4090 N   0  0  0  0  0  0  0  0  0  0  0  0
  -25.0500  -15.8850   20.7230 H   0  0  0  0  0  0  0  0  0  0  0  0
  -26.5460  -15.6870   19.9630 H   0  0  0  0  0  0  0  0  0  0  0  0
  -28.4060  -25.3320   20.3160 O   0  0  0  0  0  0  0  0  0  0  0  0
  -24.8180  -31.7070   23.0880 C   0  0  0  0  0  0  0  0  0  0  0  0
  -27.4430  -26.5730   20.2220 C   0  0  0  0  0  0  0  0  0  0  0  0
  -23.6820  -30.2870   21.4370 C   0  0  0  0  0  3  0  0  0  0  0  0
  -25.1730  -28.6300   20.0870 C   0  0  0  0  0  0  0  0  0  0  0  0
  -26.2680  -30.4260   21.3900 C   0  0  0  0  0  2  0  0  0  0  0  0
  -26.3550  -28.9850   20.7480 C   0  0  0  0  0  0  0  0  0  0  0  0
  -27.4740  -27.9890   20.7790 C   0  0  0  0  0  3  0  0  0  0  0  0
  -26.2140  -26.4420   19.5170 C   0  0  0  0  0  3  0  0  0  0  0  0
  -25.1440  -27.3820   19.4490 C   0  0  0  0  0  3  0  0  0  0  0  0
  -23.9650  -29.5800   20.0820 C   0  0  0  0  0  2  0  0  0  0  0  0
  -24.9460  -30.8400   22.0240 N   0  0  0  0  0  0  0  0  0  0  0  0
  -23.7080  -32.0100   23.5590 O   0  0  0  0  0  0  0  0  0  0  0  0
  -22.9380  -29.3190   22.3970 C   0  0  0  0  0  0  0  0  0  0  0  0
  -21.5990  -29.2170   22.2830 N   0  0  0  0  0  0  0  0  0  0  0  0
  -23.5770  -28.6580   23.2190 O   0  0  0  0  0  0  0  0  0  0  0  0
  -21.1340  -29.7990   21.6000 H   0  0  0  0  0  0  0  0  0  0  0  0
  -18.1660  -28.1680   22.8630 C   0  0  0  0  0  0  0  0  0  0  0  0
  -20.7450  -28.2970   23.0480 C   0  0  0  0  0  3  0  0  0  0  0  0
  -20.7520  -26.8830   22.4230 C   0  0  0  0  0  2  0  0  0  0  0  0
  -19.6040  -26.6540   21.4350 C   0  0  0  0  0  2  0  0  0  0  0  0
  -18.2520  -26.8410   22.1290 C   0  0  0  0  0  2  0  0  0  0  0  0
  -19.3350  -28.8590   23.2810 C   0  0  0  0  0  0  0  0  0  0  0  0
  -19.1960  -30.1020   23.9360 C   0  0  0  0  0  3  0  0  0  0  0  0
  -17.9230  -30.6540   24.1730 C   0  0  0  0  0  3  0  0  0  0  0  0
  -16.7700  -29.9610   23.7670 C   0  0  0  0  0  3  0  0  0  0  0  0
  -16.8930  -28.7180   23.1190 C   0  0  0  0  0  3  0  0  0  0  0  0
  -26.0580  -32.3700   23.7590 C   0  0  0  0  0  3  0  0  0  0  0  0
  -25.6940  -33.7510   24.1360 N   0  0  0  0  0  0  0  0  0  0  0  0
  -25.9950  -34.8500   23.4310 C   0  0  0  0  0  0  0  0  0  0  0  0
  -26.6630  -34.8100   22.3950 O   0  0  0  0  0  0  0  0  0  0  0  0
  -25.0980  -33.8530   24.9440 H   0  0  0  0  0  0  0  0  0  0  0  0
  -24.2120  -36.6140   23.1770 C   0  0  0  0  0  1  0  0  0  0  0  0
  -25.4770  -36.2070   23.9520 C   0  0  0  0  0  3  0  0  0  0  0  0
  -27.5930  -37.1280   24.7940 C   0  0  0  0  0  1  0  0  0  0  0  0
  -26.4760  -37.2950   23.8670 N   0  0  0  0  0  0  0  0  0  0  0  0
  -26.0440  -38.1970   24.0510 H   0  0  0  0  0  0  0  0  0  0  0  0
  -26.5610  -31.5860   25.0330 C   0  0  1  0  0  0  0  0  0  0  0  0
  -25.4490  -31.2950   26.0690 C   0  0  0  0  0  1  0  0  0  0  0  0
  -27.1940  -30.2320   24.6390 C   0  0  0  0  0  1  0  0  0  0  0  0
  -27.6740  -32.3970   25.7400 C   0  0  0  0  0  1  0  0  0  0  0  0
  1  2  2  0
  3  2  1  0
  3  6  1  0
  4  6  1  0
  5  4  1  0
  6 51  1  0
  6  7  1  1
  8  9  1  0
  8  1  1  0
  9  5  1  0
  9  3  1  0
 10 22  1  0
 11 16  1  0
 12 13  1  0
 12 11  1  0
 14 13  1  0
 14 26  1  0
 14 15  1  0
 16 10  1  0
 16 15  1  0
 17 10  2  0
 19 18  1  0
 20 18  1  0
 21  2  1  0
 21 19  1  0
 22 21  1  0
 22 20  1  0
 23 24  2  0
 24 43  1  0
 25 28  1  0
 25 24  1  0
 26 27  1  0
 26 23  1  0
 27 25  2  0
 28 29  1  0
 29 30  2  0
 31 34  1  0
 31 30  1  0
 32 31  2  0
 33 32  1  0
 33 28  2  0
 34 35  1  0
 35 36  1  0
 36 37  2  0
 38 37  1  0
 38 42  1  0
 39 38  2  0
 40 35  2  0
 40 39  1  0
 41 40  1  0
 43 44  1  0
 44 46  1  0
 44 47  1  0
 45 43  2  0
 48 23  1  0
 48 49  1  0
 50 48  1  0
 52 63  2  0
 53 51  1  0
 53 58  1  0
 54 62  1  0
 54 64  1  0
 55 57  1  0
 56 62  1  0
 57 58  2  0
 57 56  1  0
 59 53  2  0
 60 59  1  0
 60 55  2  0
 61 55  1  0
 61 54  1  0
 62 52  1  0
 64 66  2  0
 65 64  1  0
 67 65  1  0
 68 77  2  0
 68 73  1  0
 69 65  1  0
 69 73  1  0
 70 69  1  0
 71 72  1  0
 71 70  1  0
 72 68  1  0
 73 74  2  0
 74 75  1  0
 76 75  2  0
 77 76  1  0
 78 52  1  0
 78 79  1  0
 78 88  1  0
 79 82  1  0
 80 84  1  0
 80 79  1  0
 81 80  2  0
 84 83  1  0
 86 84  1  0
 86 87  1  0
 86 85  1  0
 88 91  1  1
 88 89  1  0
 90 88  1  0
M  ISO  4   6 101  10 100  22 100  51 101
M  END
>  <TORSDO>  (23) 
F 16

>  <SCORE>  (23) 
-13.840

>  <name>  (23) 
22

>  <ligand_id>  (23) 
22

>  <original_smiles>  (23) 
[H]c1nn2c(c1C1([H])N(C(=O)N3C([H])([H])C([H])([H])C([H])([H])C([H])(n4nc(-c5c([H])c([H])c(Oc6c([H])c([H])c(F)c([H])c6F)c([H])c5[H])c(C(=O)N([H])[H])c4N([H])[H])C3([H])[H])C([H])([H])C([H])([H])C1([H])[H])C(Oc1c([H])c([H])c3c(c1[H])C([H])([H])N(C(=O)C([H])(N([H])C(=O)C([H])(N([H])C([H])([H])[H])C([H])([H])[H])C(C([H])([H])[H])(C([H])([H])[H])C([H])([H])[H])C([H])(C(=O)N([H])C1([H])c4c([H])c([H])c([H])c([H])c4C([H])([H])C([H])([H])C1([H])[H])C3([H])[H])(C([H])([H])[H])C([H])([H])C2([H])[H]

>  <smiles>  (23) 
[H]c1nn2c(c1C1([H])N(C(=O)N3C([H])([H])C([H])([H])C([H])([H])C([H])(n4nc(-c5c([H])c([H])c(Oc6c([H])c([H])c(F)c([H])c6F)c([H])c5[H])c(C(=O)N([H])[H])c4N([H])[H])C3([H])[H])C([H])([H])C([H])([H])C1([H])[H])C(Oc1c([H])c([H])c3c(c1[H])C([H])([H])N(C(=O)C([H])(N([H])C(=O)C([H])(N([H])C([H])([H])[H])C([H])([H])[H])C(C([H])([H])[H])(C([H])([H])[H])C([H])([H])[H])C([H])(C(=O)N([H])C1([H])c4c([H])c([H])c([H])c([H])c4C([H])([H])C([H])([H])C1([H])[H])C3([H])[H])(C([H])([H])[H])C([H])([H])C2([H])[H]

$$$$
23:0:0
     RDKit          3D

 94101  0  0  1  0  0  0  0  0999 V2000
  -21.6450  -25.5150   22.5210 C   0  0  0  0  0  2  0  0  0  0  0  0
  -21.5760  -27.7960   22.8920 C   0  0  0  0  0  2  0  0  0  0  0  0
  -22.7190  -25.3930   21.1770 C   0  0  0  0  0  0  0  0  0  0  0  0
  -23.6190  -27.5990   21.2070 C   0  0  0  0  0  3  0  0  0  0  0  0
  -21.1070  -24.3590   23.7640 C   0  0  0  0  0  1  0  0  0  0  0  0
  -20.5000  -28.9440   23.2170 C   0  0  0  0  0  1  0  0  0  0  0  0
  -22.6150  -28.2800   22.0300 N   0  0  0  0  0  2  0  0  0  0  0  0
  -23.4850  -26.3430   20.7230 N   0  0  0  0  0  0  0  0  0  0  0  0
  -24.9520  -28.2340   20.8050 O   0  0  0  0  0  0  0  0  0  0  0  0
  -27.6070  -32.0920   25.2270 C   0  0  0  0  0  0  0  0  0  0  0  0
  -25.0920  -29.6290   20.6100 C   0  0  0  0  0  3  0  0  0  0  0  0
  -25.2660  -31.6130   24.8570 C   0  0  0  0  0  3  0  0  0  0  0  0
  -24.3570  -31.3790   22.4390 C   0  0  0  0  0  0  0  0  0  0  0  0
  -26.6730  -32.2510   22.8780 C   0  0  0  0  0  2  0  0  0  0  0  0
  -25.7030  -31.3980   22.0390 C   0  0  0  0  0  0  0  0  0  0  0  0
  -26.1160  -30.3840   21.1810 C   0  0  0  0  0  3  0  0  0  0  0  0
  -23.8410  -30.1270   20.4400 C   0  0  0  0  0  2  0  0  0  0  0  0
  -23.4000  -30.7670   21.5960 C   0  0  0  0  0  3  0  0  0  0  0  0
  -24.1040  -31.9520   23.8390 C   0  0  0  0  0  2  0  0  0  0  0  0
  -26.5620  -32.1040   24.3450 N   0  0  0  0  0  0  0  0  0  0  0  0
  -27.4800  -31.7490   26.4220 O   0  0  0  0  0  0  0  0  0  0  0  0
  -25.5430  -30.0650   24.9600 C   0  0  0  0  0  0  0  0  0  0  0  0
  -25.9220  -29.4820   26.0980 N   0  0  0  0  0  0  0  0  0  0  0  0
  -25.5910  -29.4040   23.9550 O   0  0  0  0  0  0  0  0  0  0  0  0
  -26.7480  -29.9370   26.4950 H   0  0  0  0  0  0  0  0  0  0  0  0
  -26.1640  -28.1420   29.2920 C   0  0  0  0  0  0  0  0  0  0  0  0
  -26.0490  -28.1010   26.3710 C   0  0  0  0  0  3  0  0  0  0  0  0
  -24.7010  -27.3270   26.0420 C   0  0  0  0  0  1  0  0  0  0  0  0
  -23.0650  -27.3790   29.1710 C   0  0  0  0  0  1  0  0  0  0  0  0
  -24.5520  -27.7160   29.9610 C   0  0  0  0  0  2  0  0  0  0  0  0
  -26.6750  -28.3080   27.8760 C   0  0  0  0  0  0  0  0  0  0  0  0
  -27.9260  -29.0020   27.7270 C   0  0  0  0  0  3  0  0  0  0  0  0
  -28.7920  -29.4520   28.7090 C   0  0  0  0  0  3  0  0  0  0  0  0
  -28.5060  -28.9970   29.9860 C   0  0  0  0  0  3  0  0  0  0  0  0
  -27.2480  -28.3500   30.2320 C   0  0  0  0  0  3  0  0  0  0  0  0
  -29.0210  -32.5300   24.7700 C   0  0  0  0  0  3  0  0  0  0  0  0
  -30.1420  -31.4140   24.8740 C   0  0  1  0  0  0  0  0  0  0  0  0
  -30.3350  -30.8320   26.2940 C   0  0  0  0  0  1  0  0  0  0  0  0
  -29.8380  -30.2220   23.9380 C   0  0  0  0  0  1  0  0  0  0  0  0
  -31.4890  -32.0140   24.4090 C   0  0  0  0  0  1  0  0  0  0  0  0
  -29.3540  -33.6740   25.6200 N   0  0  0  0  0  0  0  0  0  0  0  0
  -29.1250  -34.9460   25.2860 C   0  0  0  0  0  0  0  0  0  0  0  0
  -28.7110  -35.2790   24.1730 O   0  0  0  0  0  0  0  0  0  0  0  0
  -29.6390  -33.4710   26.5660 H   0  0  0  0  0  0  0  0  0  0  0  0
  -28.0830  -36.4710   26.9950 C   0  0  0  0  0  1  0  0  0  0  0  0
  -29.4050  -36.0170   26.3520 C   0  0  0  0  0  3  0  0  0  0  0  0
  -31.5040  -36.8830   25.4280 C   0  0  0  0  0  1  0  0  0  0  0  0
  -30.1330  -37.1890   25.8250 N   0  0  0  0  0  0  0  0  0  0  0  0
  -30.1570  -37.9370   26.5120 H   0  0  0  0  0  0  0  0  0  0  0  0
  -23.1170  -24.8470   19.3980 C   0  0  0  0  0  2  0  0  0  0  0  0
  -24.2480  -25.3010   18.0170 N   0  0  0  0  0  4  0  0  0  0  0  0
  -25.1770  -25.1900   18.3540 H   0  0  0  0  0  0  0  0  0  0  0  0
  -24.3100  -26.2980   17.9080 H   0  0  0  0  0  0  0  0  0  0  0  0
  -24.3360  -24.8090   16.2880 C   0  0  0  0  0  1  0  0  0  0  0  0
  -26.4000  -25.4810   10.4970 C   0  0  0  0  0  0  0  0  0  0  0  0
  -26.3460  -26.5810    8.0520 C   0  0  0  0  0  2  0  0  0  0  0  0
  -25.6560  -27.9770    7.8400 C   0  0  0  0  0  2  0  0  0  0  0  0
  -24.1330  -27.8750    7.9480 C   0  0  0  0  0  2  0  0  0  0  0  0
  -23.7660  -26.9110    9.0970 C   0  0  0  0  0  3  0  0  0  0  0  0
  -24.4190  -25.5400    8.9240 C   0  0  0  0  0  2  0  0  0  0  0  0
  -25.7740  -25.8290    9.2530 N   0  0  0  0  0  0  0  0  0  0  0  0
  -27.6260  -25.4060   10.1980 O   0  0  0  0  0  0  0  0  0  0  0  0
  -25.1000  -26.0730   13.2300 C   0  0  0  0  0  3  0  0  0  0  0  0
  -25.6050  -24.1840   13.1430 C   0  0  0  0  0  3  0  0  0  0  0  0
  -25.3600  -25.0990   14.5880 C   0  0  0  0  0  2  0  0  0  0  0  0
  -25.7340  -25.2730   11.9560 N   0  0  0  0  0  0  0  0  0  0  0  0
  -21.7670  -26.4450   10.5140 C   0  0  0  0  0  0  0  0  0  0  0  0
  -20.4460  -26.3530   10.2640 C   0  0  0  0  0  0  0  0  0  0  0  0
  -20.3240  -26.5860    8.8640 C   0  0  0  0  0  0  0  0  0  0  0  0
  -22.3690  -26.7300    9.3170 N   0  0  0  0  0  0  0  0  0  0  0  0
  -21.5070  -26.7290    8.2840 N   0  0  0  0  0  0  0  0  0  0  0  0
  -19.1390  -26.7570    8.0490 C   0  0  0  0  0  0  0  0  0  0  0  0
  -18.9720  -26.0440    6.8450 C   0  0  0  0  0  3  0  0  0  0  0  0
  -17.8050  -26.2290    6.0800 C   0  0  0  0  0  3  0  0  0  0  0  0
  -16.8040  -27.1250    6.5270 C   0  0  0  0  0  0  0  0  0  0  0  0
  -16.9950  -27.8500    7.7150 C   0  0  0  0  0  3  0  0  0  0  0  0
  -18.1580  -27.6720    8.4710 C   0  0  0  0  0  3  0  0  0  0  0  0
  -15.6440  -27.3810    5.8410 O   0  0  0  0  0  0  0  0  0  0  0  0
  -15.1410  -26.4830    4.9390 C   0  0  0  0  0  0  0  0  0  0  0  0
  -14.8150  -25.1580    5.3020 C   0  0  0  0  0  3  0  0  0  0  0  0
  -14.2350  -24.2940    4.3520 C   0  0  0  0  0  3  0  0  0  0  0  0
  -13.9740  -24.7540    3.0480 C   0  0  0  0  0  0  0  0  0  0  0  0
  -14.3000  -26.0730    2.6860 C   0  0  0  0  0  3  0  0  0  0  0  0
  -14.8810  -26.9350    3.6320 C   0  0  0  0  0  0  0  0  0  0  0  0
  -15.1760  -28.2120    3.2850 F   0  0  0  0  0  0  0  0  0  0  0  0
  -13.4060  -23.9260    2.1410 F   0  0  0  0  0  0  0  0  0  0  0  0
  -19.3650  -26.1870   11.2900 C   0  0  0  0  0  0  0  0  0  0  0  0
  -18.2600  -25.5560   10.9090 N   0  0  0  0  0  0  0  0  0  0  0  0
  -19.5230  -26.5660   12.4530 O   0  0  0  0  0  0  0  0  0  0  0  0
  -18.1500  -25.2300    9.9620 H   0  0  0  0  0  0  0  0  0  0  0  0
  -17.5150  -25.4010   11.5720 H   0  0  0  0  0  0  0  0  0  0  0  0
  -22.4890  -26.3500   11.6700 N   0  0  0  0  0  0  0  0  0  0  0  0
  -22.0570  -26.1280   12.5600 H   0  0  0  0  0  0  0  0  0  0  0  0
  -23.4960  -26.4380   11.7050 H   0  0  0  0  0  0  0  0  0  0  0  0
  1  5  1  0
  2  6  1  0
  3  1  1  0
  4  8  1  0
  4  7  1  0
  7  2  1  0
  8  3  2  0
  9  4  1  0
 10 21  2  0
 11  9  1  0
 11 16  1  0
 12 22  1  0
 13 19  1  0
 14 20  1  0
 15 13  1  0
 15 14  1  0
 16 15  2  0
 17 11  1  0
 17 18  1  0
 18 13  2  0
 19 12  1  0
 20 12  1  0
 20 10  1  0
 22 23  1  0
 23 27  1  0
 23 25  1  0
 24 22  2  0
 26 30  1  0
 26 35  1  0
 27 28  1  0
 27 31  1  0
 29 30  1  0
 31 26  2  0
 32 31  1  0
 32 33  2  0
 33 34  1  0
 34 35  2  0
 36 37  1  0
 36 10  1  0
 36 41  1  0
 37 38  1  1
 39 37  1  0
 40 37  1  0
 41 44  1  0
 42 41  1  0
 42 46  1  0
 43 42  2  0
 46 45  1  0
 47 48  1  0
 48 46  1  0
 48 49  1  0
 50  3  1  0
 51 52  1  0
 51 50  1  0
 53 51  1  0
 54 51  1  0
 55 66  1  0
 56 61  1  0
 57 58  1  0
 57 56  1  0
 59 58  1  0
 59 70  1  0
 60 59  1  0
 60 61  1  0
 61 55  1  0
 62 55  2  0
 63 65  1  0
 64 63  1  0
 64 65  1  0
 66 64  1  0
 66 63  1  0
 67 92  1  0
 68 67  2  0
 68 87  1  0
 69 68  1  0
 70 67  1  0
 71 69  2  0
 71 70  1  0
 72 77  1  0
 72 69  1  0
 73 72  2  0
 74 75  2  0
 74 73  1  0
 75 76  1  0
 76 77  2  0
 78 75  1  0
 79 80  1  0
 79 78  1  0
 81 80  2  0
 82 81  1  0
 83 82  2  0
 83 84  1  0
 84 79  2  0
 85 84  1  0
 86 82  1  0
 87 89  2  0
 88 87  1  0
 88 91  1  0
 90 88  1  0
 92 94  1  0
 92 93  1  0
M  ISO  4   4 101   9 101  55 100  66 100
M  END
>  <TORSDO>  (24) 
F 19

>  <SCORE>  (24) 
-2.431

>  <name>  (24) 
23

>  <ligand_id>  (24) 
23

>  <original_smiles>  (24) 
[H]c1c([H])c([H])c2c(c1[H])C([H])([H])C([H])([H])C([H])([H])C2([H])N([H])C(=O)C1([H])N(C(=O)C([H])(N([H])C(=O)C([H])(N([H])C([H])([H])[H])C([H])([H])[H])C(C([H])([H])[H])(C([H])([H])[H])C([H])([H])[H])C([H])([H])c2c([H])c(Oc3nc(C([H])([H])[H])c(C([H])([H])[H])c(C([H])([H])[N+]([H])([H])C([H])([H])C4([H])C([H])([H])N(C(=O)N5C([H])([H])C([H])([H])C([H])([H])C([H])(n6nc(-c7c([H])c([H])c(Oc8c([H])c([H])c(F)c([H])c8F)c([H])c7[H])c(C(=O)N([H])[H])c6N([H])[H])C5([H])[H])C4([H])[H])n3)c([H])c([H])c2C1([H])[H]

>  <smiles>  (24) 
[H]c1c([H])c([H])c2c(c1[H])C([H])([H])C([H])([H])C([H])([H])C2([H])N([H])C(=O)C1([H])N(C(=O)C([H])(N([H])C(=O)C([H])(N([H])C([H])([H])[H])C([H])([H])[H])C(C([H])([H])[H])(C([H])([H])[H])C([H])([H])[H])C([H])([H])c2c([H])c(Oc3nc(C([H])([H])[H])c(C([H])([H])[H])c(C([H])([H])[N+]([H])([H])C([H])([H])C4([H])C([H])([H])N(C(=O)N5C([H])([H])C([H])([H])C([H])([H])C([H])(n6nc(-c7c([H])c([H])c(Oc8c([H])c([H])c(F)c([H])c8F)c([H])c7[H])c(C(=O)N([H])[H])c6N([H])[H])C5([H])[H])C4([H])[H])n3)c([H])c([H])c2C1([H])[H]

$$$$
24:0:0
     RDKit          3D

 92100  0  0  1  0  0  0  0  0999 V2000
  -29.7870  -21.1070   20.1410 C   0  0  0  0  0  2  0  0  0  0  0  0
  -30.8840  -17.2810   21.9260 C   0  0  0  0  0  3  0  0  0  0  0  0
  -30.6300  -19.5880   22.1200 C   0  0  0  0  0  0  0  0  0  0  0  0
  -29.9970  -19.6780   20.8470 C   0  0  0  0  0  0  0  0  0  0  0  0
  -30.2390  -17.2560   20.6680 C   0  0  0  0  0  0  0  0  0  0  0  0
  -30.9180  -20.7970   22.9930 C   0  0  0  0  0  1  0  0  0  0  0  0
  -31.0560  -18.4130   22.6440 N   0  0  0  0  0  0  0  0  0  0  0  0
  -29.7940  -18.4800   20.1500 N   0  0  0  0  0  0  0  0  0  0  0  0
  -30.7570  -14.7830   20.0270 C   0  0  0  0  0  0  0  0  0  0  0  0
  -30.4870  -12.5490   18.9310 C   0  0  0  0  0  2  0  0  0  0  0  0
  -29.4830  -12.6500   17.7610 C   0  0  0  0  0  2  0  0  0  0  0  0
  -28.0340  -12.4880   18.2630 C   0  0  0  0  0  2  0  0  0  0  0  0
  -27.7270  -13.3570   19.5110 C   0  0  0  0  0  3  0  0  0  0  0  0
  -28.8390  -13.2240   20.5730 C   0  0  0  0  0  2  0  0  0  0  0  0
  -30.1060  -13.5780   19.9200 N   0  0  0  0  0  0  0  0  0  0  0  0
  -31.9560  -14.8740   19.7390 O   0  0  0  0  0  0  0  0  0  0  0  0
  -29.9650  -15.9150   20.1200 N   0  0  0  0  0  0  0  0  0  0  0  0
  -28.9920  -15.7410   19.9410 H   0  0  0  0  0  0  0  0  0  0  0  0
  -25.3830  -13.9720   20.3480 C   0  0  0  0  0  0  0  0  0  0  0  0
  -24.3260  -13.2050   20.7610 C   0  0  0  0  0  0  0  0  0  0  0  0
  -24.7750  -11.8500   20.7010 C   0  0  0  0  0  0  0  0  0  0  0  0
  -26.4040  -13.0820   20.0600 N   0  0  0  0  0  0  0  0  0  0  0  0
  -26.0500  -11.8010   20.3380 N   0  0  0  0  0  0  0  0  0  0  0  0
  -24.0450  -10.5930   20.9130 C   0  0  0  0  0  0  0  0  0  0  0  0
  -24.4900   -9.6310   21.8480 C   0  0  0  0  0  3  0  0  0  0  0  0
  -23.7600   -8.4390   22.0480 C   0  0  0  0  0  3  0  0  0  0  0  0
  -22.5730   -8.2020   21.3150 C   0  0  0  0  0  0  0  0  0  0  0  0
  -22.1480   -9.1530   20.3710 C   0  0  0  0  0  3  0  0  0  0  0  0
  -22.8770  -10.3360   20.1680 C   0  0  0  0  0  3  0  0  0  0  0  0
  -21.8150   -7.0620   21.4250 O   0  0  0  0  0  0  0  0  0  0  0  0
  -21.7610   -6.3430   22.5930 C   0  0  0  0  0  0  0  0  0  0  0  0
  -21.3270   -6.9220   23.8050 C   0  0  0  0  0  3  0  0  0  0  0  0
  -21.2210   -6.1300   24.9660 C   0  0  0  0  0  3  0  0  0  0  0  0
  -21.5390   -4.7600   24.9140 C   0  0  0  0  0  0  0  0  0  0  0  0
  -21.9670   -4.1800   23.7070 C   0  0  0  0  0  3  0  0  0  0  0  0
  -22.0730   -4.9700   22.5490 C   0  0  0  0  0  0  0  0  0  0  0  0
  -22.4660   -4.4010   21.3820 F   0  0  0  0  0  0  0  0  0  0  0  0
  -21.4300   -3.9960   26.0260 F   0  0  0  0  0  0  0  0  0  0  0  0
  -22.9460  -13.6930   21.0910 C   0  0  0  0  0  0  0  0  0  0  0  0
  -22.2480  -13.0000   21.9850 N   0  0  0  0  0  0  0  0  0  0  0  0
  -22.4940  -14.7230   20.5930 O   0  0  0  0  0  0  0  0  0  0  0  0
  -22.6260  -12.1670   22.4100 H   0  0  0  0  0  0  0  0  0  0  0  0
  -21.3230  -13.3060   22.2470 H   0  0  0  0  0  0  0  0  0  0  0  0
  -25.5520  -15.3420   20.1720 N   0  0  0  0  0  0  0  0  0  0  0  0
  -24.8020  -16.0060   20.3340 H   0  0  0  0  0  0  0  0  0  0  0  0
  -26.3810  -15.7740   19.7860 H   0  0  0  0  0  0  0  0  0  0  0  0
  -27.4490  -21.9010   20.2810 C   0  0  0  0  0  1  0  0  0  0  0  0
  -28.8430  -22.2070   20.6830 N   0  0  2  0  0  4  0  0  0  0  0  0
  -28.8470  -22.0990   21.6880 H   0  0  0  0  0  0  0  0  0  0  0  0
  -29.2460  -23.6970   20.4390 C   0  0  0  0  0  3  0  0  0  0  0  0
  -28.1290  -24.8810   20.5200 C   0  0  0  0  0  3  0  0  0  0  0  0
  -28.4270  -26.3670   20.4340 O   0  0  0  0  0  0  0  0  0  0  0  0
  -24.6480  -31.9160   23.2750 C   0  0  0  0  0  0  0  0  0  0  0  0
  -27.3320  -27.2710   20.3490 C   0  0  0  0  0  0  0  0  0  0  0  0
  -23.4850  -30.4820   21.6390 C   0  0  0  0  0  3  0  0  0  0  0  0
  -24.9680  -28.9160   20.2670 C   0  0  0  0  0  0  0  0  0  0  0  0
  -26.0280  -30.8000   21.5000 C   0  0  0  0  0  2  0  0  0  0  0  0
  -26.1300  -29.4050   20.8800 C   0  0  0  0  0  0  0  0  0  0  0  0
  -27.3150  -28.5970   20.9100 C   0  0  0  0  0  3  0  0  0  0  0  0
  -26.1490  -26.8660   19.6880 C   0  0  0  0  0  3  0  0  0  0  0  0
  -24.9840  -27.6560   19.6610 C   0  0  0  0  0  3  0  0  0  0  0  0
  -23.7290  -29.7890   20.2740 C   0  0  0  0  0  2  0  0  0  0  0  0
  -24.7390  -31.0860   22.1940 N   0  0  0  0  0  0  0  0  0  0  0  0
  -23.5520  -32.1950   23.7830 O   0  0  0  0  0  0  0  0  0  0  0  0
  -22.8090  -29.4750   22.6020 C   0  0  0  0  0  0  0  0  0  0  0  0
  -21.4870  -29.2820   22.4470 N   0  0  0  0  0  0  0  0  0  0  0  0
  -23.4710  -28.8720   23.4480 O   0  0  0  0  0  0  0  0  0  0  0  0
  -21.0070  -29.8250   21.7420 H   0  0  0  0  0  0  0  0  0  0  0  0
  -18.1170  -28.0360   22.8840 C   0  0  0  0  0  0  0  0  0  0  0  0
  -20.6630  -28.3500   23.2180 C   0  0  0  0  0  3  0  0  0  0  0  0
  -20.8050  -26.9060   22.6830 C   0  0  0  0  0  2  0  0  0  0  0  0
  -19.7390  -26.5360   21.6450 C   0  0  0  0  0  2  0  0  0  0  0  0
  -18.3370  -26.6740   22.2450 C   0  0  0  0  0  2  0  0  0  0  0  0
  -19.2090  -28.8290   23.3240 C   0  0  0  0  0  0  0  0  0  0  0  0
  -18.9510  -30.1020   23.8780 C   0  0  0  0  0  3  0  0  0  0  0  0
  -17.6350  -30.5830   23.9960 C   0  0  0  0  0  3  0  0  0  0  0  0
  -16.5570  -29.7890   23.5690 C   0  0  0  0  0  3  0  0  0  0  0  0
  -16.7980  -28.5170   23.0200 C   0  0  0  0  0  3  0  0  0  0  0  0
  -25.9130  -32.5720   23.9090 C   0  0  0  0  0  3  0  0  0  0  0  0
  -26.4080  -31.8290   25.2110 C   0  0  1  0  0  0  0  0  0  0  0  0
  -25.2930  -31.6040   26.2590 C   0  0  0  0  0  1  0  0  0  0  0  0
  -27.0120  -30.4480   24.8620 C   0  0  0  0  0  1  0  0  0  0  0  0
  -27.5340  -32.6480   25.8830 C   0  0  0  0  0  1  0  0  0  0  0  0
  -25.5810  -33.9720   24.2120 N   0  0  0  0  0  0  0  0  0  0  0  0
  -25.9200  -35.0180   23.4470 C   0  0  0  0  0  0  0  0  0  0  0  0
  -26.6140  -34.9060   22.4330 O   0  0  0  0  0  0  0  0  0  0  0  0
  -24.9690  -34.1290   24.9990 H   0  0  0  0  0  0  0  0  0  0  0  0
  -24.1930  -36.8000   23.0240 C   0  0  0  0  0  1  0  0  0  0  0  0
  -25.4130  -36.4090   23.8730 C   0  0  0  0  0  3  0  0  0  0  0  0
  -27.5200  -37.3170   24.7530 C   0  0  0  0  0  1  0  0  0  0  0  0
  -26.4420  -37.4670   23.7790 N   0  0  0  0  0  0  0  0  0  0  0  0
  -26.0290  -38.3860   23.9020 H   0  0  0  0  0  0  0  0  0  0  0  0
  1 48  1  0
  1  4  1  0
  2  7  1  0
  3  7  2  0
  3  6  1  0
  4  3  1  0
  5  2  2  0
  8  5  1  0
  8  4  2  0
  9 17  1  0
 10 15  1  0
 11 12  1  0
 11 10  1  0
 13 12  1  0
 13 22  1  0
 13 14  1  0
 15  9  1  0
 15 14  1  0
 16  9  2  0
 17  5  1  0
 18 17  1  0
 19 20  2  0
 20 39  1  0
 21 20  1  0
 21 24  1  0
 22 23  1  0
 22 19  1  0
 23 21  2  0
 24 25  1  0
 25 26  2  0
 27 30  1  0
 27 26  1  0
 28 27  2  0
 29 28  1  0
 29 24  2  0
 30 31  1  0
 31 32  1  0
 32 33  2  0
 34 33  1  0
 34 38  1  0
 35 34  2  0
 36 31  2  0
 36 35  1  0
 37 36  1  0
 39 40  1  0
 40 43  1  0
 40 42  1  0
 41 39  2  0
 44 45  1  0
 44 19  1  0
 46 44  1  0
 47 48  1  0
 48 49  1  1
 50 51  2  0
 50 48  1  0
 52 51  1  0
 53 64  2  0
 54 52  1  0
 54 59  1  0
 55 63  1  0
 55 65  1  0
 56 62  1  0
 56 58  1  0
 57 63  1  0
 58 59  2  0
 58 57  1  0
 60 54  2  0
 61 60  1  0
 61 56  2  0
 62 55  1  0
 63 53  1  0
 65 67  2  0
 66 65  1  0
 68 66  1  0
 69 78  2  0
 69 74  1  0
 70 66  1  0
 70 74  1  0
 71 70  1  0
 72 73  1  0
 72 71  1  0
 73 69  1  0
 74 75  2  0
 75 76  1  0
 77 76  2  0
 78 77  1  0
 79 53  1  0
 79 84  1  0
 79 80  1  0
 80 83  1  1
 80 81  1  0
 82 80  1  0
 84 87  1  0
 85 89  1  0
 85 84  1  0
 86 85  2  0
 89 88  1  0
 91 89  1  0
 91 92  1  0
 91 90  1  0
M  ISO  4   9 100  17 100  51 101  52 101
M  END
>  <TORSDO>  (25) 
F 20

>  <SCORE>  (25) 
-13.608

>  <name>  (25) 
24

>  <ligand_id>  (25) 
24

>  <original_smiles>  (25) 
[H]c1nc(C([H])([H])[H])c(C([H])([H])[N+]([H])(C([H])([H])[H])C([H])([H])C([H])([H])Oc2c([H])c([H])c3c(c2[H])C([H])([H])N(C(=O)C([H])(N([H])C(=O)C([H])(N([H])C([H])([H])[H])C([H])([H])[H])C(C([H])([H])[H])(C([H])([H])[H])C([H])([H])[H])C([H])(C(=O)N([H])C2([H])c4c([H])c([H])c([H])c([H])c4C([H])([H])C([H])([H])C2([H])[H])C3([H])[H])nc1N([H])C(=O)N1C([H])([H])C([H])([H])C([H])([H])C([H])(n2nc(-c3c([H])c([H])c(Oc4c([H])c([H])c(F)c([H])c4F)c([H])c3[H])c(C(=O)N([H])[H])c2N([H])[H])C1([H])[H]

>  <smiles>  (25) 
[H]c1nc(C([H])([H])[H])c(C([H])([H])[N+]([H])(C([H])([H])[H])C([H])([H])C([H])([H])Oc2c([H])c([H])c3c(c2[H])C([H])([H])N(C(=O)C([H])(N([H])C(=O)C([H])(N([H])C([H])([H])[H])C([H])([H])[H])C(C([H])([H])[H])(C([H])([H])[H])C([H])([H])[H])C([H])(C(=O)N([H])C2([H])c4c([H])c([H])c([H])c([H])c4C([H])([H])C([H])([H])C2([H])[H])C3([H])[H])nc1N([H])C(=O)N1C([H])([H])C([H])([H])C([H])([H])C([H])(n2nc(-c3c([H])c([H])c(Oc4c([H])c([H])c(F)c([H])c4F)c([H])c3[H])c(C(=O)N([H])[H])c2N([H])[H])C1([H])[H]

$$$$
25:0:0
     RDKit          3D

 90 98  0  0  1  0  0  0  0  0999 V2000
  -28.6250  -22.6700   20.5530 N   0  0  0  0  0  4  0  0  0  0  0  0
  -29.3140  -22.6700   21.2890 H   0  0  0  0  0  0  0  0  0  0  0  0
  -27.7290  -22.5080   20.9880 H   0  0  0  0  0  0  0  0  0  0  0  0
  -28.9160  -21.5050   19.6470 C   0  0  0  0  0  2  0  0  0  0  0  0
  -28.7320  -20.0250   20.2100 C   0  0  0  0  0  2  0  0  0  0  0  0
  -31.0270  -19.3070   19.6930 C   0  0  0  0  0  1  0  0  0  0  0  0
  -29.9090  -19.2090   20.6340 N   0  0  0  0  0  0  0  0  0  0  0  0
  -30.6530  -14.5500   20.4280 C   0  0  0  0  0  0  0  0  0  0  0  0
  -30.3740  -12.3450   19.3410 C   0  0  0  0  0  2  0  0  0  0  0  0
  -29.4360  -12.5130   18.1270 C   0  0  0  0  0  2  0  0  0  0  0  0
  -27.9590  -12.3880   18.5530 C   0  0  0  0  0  2  0  0  0  0  0  0
  -27.6160  -13.2330   19.8090 C   0  0  0  0  0  3  0  0  0  0  0  0
  -28.6750  -13.0520   20.9190 C   0  0  0  0  0  2  0  0  0  0  0  0
  -29.9870  -13.3610   20.3360 N   0  0  0  0  0  0  0  0  0  0  0  0
  -31.8130  -14.6740   20.0210 O   0  0  0  0  0  0  0  0  0  0  0  0
  -30.5720  -16.7610   21.5530 C   0  0  0  0  0  2  0  0  0  0  0  0
  -29.5050  -16.6490   19.8040 C   0  0  0  0  0  2  0  0  0  0  0  0
  -29.5970  -17.7450   20.8810 C   0  0  0  0  0  3  0  0  0  0  0  0
  -29.9320  -15.6440   20.8140 N   0  0  0  0  0  0  0  0  0  0  0  0
  -25.2190  -13.8350   20.5150 C   0  0  0  0  0  0  0  0  0  0  0  0
  -24.1520  -13.0620   20.8840 C   0  0  0  0  0  0  0  0  0  0  0  0
  -24.6150  -11.7110   20.8600 C   0  0  0  0  0  0  0  0  0  0  0  0
  -26.2670  -12.9560   20.2920 N   0  0  0  0  0  0  0  0  0  0  0  0
  -25.9070  -11.6740   20.5580 N   0  0  0  0  0  0  0  0  0  0  0  0
  -23.8900  -10.4490   21.0560 C   0  0  0  0  0  0  0  0  0  0  0  0
  -24.3380   -9.4750   21.9740 C   0  0  0  0  0  3  0  0  0  0  0  0
  -23.6140   -8.2770   22.1580 C   0  0  0  0  0  3  0  0  0  0  0  0
  -22.4280   -8.0450   21.4220 C   0  0  0  0  0  0  0  0  0  0  0  0
  -21.9990   -9.0080   20.4920 C   0  0  0  0  0  3  0  0  0  0  0  0
  -22.7230  -10.1980   20.3070 C   0  0  0  0  0  3  0  0  0  0  0  0
  -21.6730   -6.9000   21.5140 O   0  0  0  0  0  0  0  0  0  0  0  0
  -21.6600   -6.1370   22.6530 C   0  0  0  0  0  0  0  0  0  0  0  0
  -21.2950   -6.6740   23.9070 C   0  0  0  0  0  3  0  0  0  0  0  0
  -21.2280   -5.8370   25.0390 C   0  0  0  0  0  3  0  0  0  0  0  0
  -21.5170   -4.4640   24.9200 C   0  0  0  0  0  0  0  0  0  0  0  0
  -21.8760   -3.9270   23.6720 C   0  0  0  0  0  3  0  0  0  0  0  0
  -21.9450   -4.7600   22.5410 C   0  0  0  0  0  0  0  0  0  0  0  0
  -22.2710   -4.2320   21.3370 F   0  0  0  0  0  0  0  0  0  0  0  0
  -21.4450   -3.6600   26.0060 F   0  0  0  0  0  0  0  0  0  0  0  0
  -22.7530  -13.5380   21.1520 C   0  0  0  0  0  0  0  0  0  0  0  0
  -22.0260  -12.8480   22.0230 N   0  0  0  0  0  0  0  0  0  0  0  0
  -22.3140  -14.5590   20.6240 O   0  0  0  0  0  0  0  0  0  0  0  0
  -22.3960  -12.0220   22.4710 H   0  0  0  0  0  0  0  0  0  0  0  0
  -21.0860  -13.1460   22.2420 H   0  0  0  0  0  0  0  0  0  0  0  0
  -25.3840  -15.2060   20.3300 N   0  0  0  0  0  0  0  0  0  0  0  0
  -24.6230  -15.8650   20.4510 H   0  0  0  0  0  0  0  0  0  0  0  0
  -26.2490  -15.6440   20.0390 H   0  0  0  0  0  0  0  0  0  0  0  0
  -28.6010  -24.0230   19.8690 C   0  0  0  0  0  3  0  0  0  0  0  0
  -28.2060  -25.2510   20.7680 C   0  0  0  0  0  3  0  0  0  0  0  0
  -28.3440  -26.5750   20.1580 O   0  0  0  0  0  0  0  0  0  0  0  0
  -24.6210  -31.8850   23.2190 C   0  0  0  0  0  0  0  0  0  0  0  0
  -27.2100  -27.3750   20.1480 C   0  0  0  0  0  0  0  0  0  0  0  0
  -23.3990  -30.4780   21.5950 C   0  0  0  0  0  3  0  0  0  0  0  0
  -24.8360  -28.9320   20.1580 C   0  0  0  0  0  0  0  0  0  0  0  0
  -25.9270  -30.8210   21.3740 C   0  0  0  0  0  2  0  0  0  0  0  0
  -26.0040  -29.4440   20.7340 C   0  0  0  0  0  0  0  0  0  0  0  0
  -27.1990  -28.6770   20.7190 C   0  0  0  0  0  3  0  0  0  0  0  0
  -26.0260  -26.8950   19.5510 C   0  0  0  0  0  3  0  0  0  0  0  0
  -24.8440  -27.6620   19.5570 C   0  0  0  0  0  3  0  0  0  0  0  0
  -23.5950  -29.7980   20.2140 C   0  0  0  0  0  2  0  0  0  0  0  0
  -24.6680  -31.0760   22.1210 N   0  0  0  0  0  0  0  0  0  0  0  0
  -23.5460  -32.1620   23.7670 O   0  0  0  0  0  0  0  0  0  0  0  0
  -22.7530  -29.4620   22.5660 C   0  0  0  0  0  0  0  0  0  0  0  0
  -21.4270  -29.2800   22.4510 N   0  0  0  0  0  0  0  0  0  0  0  0
  -23.4430  -28.8390   23.3780 O   0  0  0  0  0  0  0  0  0  0  0  0
  -20.9310  -29.8320   21.7640 H   0  0  0  0  0  0  0  0  0  0  0  0
  -18.0580  -28.0800   22.9760 C   0  0  0  0  0  0  0  0  0  0  0  0
  -20.6170  -28.3470   23.2330 C   0  0  0  0  0  3  0  0  0  0  0  0
  -20.7220  -26.9130   22.6640 C   0  0  0  0  0  2  0  0  0  0  0  0
  -19.6150  -26.5800   21.6580 C   0  0  0  0  0  2  0  0  0  0  0  0
  -18.2360  -26.7270   22.3080 C   0  0  0  0  0  2  0  0  0  0  0  0
  -19.1770  -28.8470   23.3950 C   0  0  0  0  0  0  0  0  0  0  0  0
  -18.9590  -30.1140   23.9790 C   0  0  0  0  0  3  0  0  0  0  0  0
  -17.6550  -30.6140   24.1470 C   0  0  0  0  0  3  0  0  0  0  0  0
  -16.5500  -29.8440   23.7450 C   0  0  0  0  0  3  0  0  0  0  0  0
  -16.7520  -28.5780   23.1660 C   0  0  0  0  0  3  0  0  0  0  0  0
  -25.9130  -32.5170   23.8240 C   0  0  0  0  0  3  0  0  0  0  0  0
  -25.6070  -33.9120   24.1630 N   0  0  0  0  0  0  0  0  0  0  0  0
  -25.9280  -34.9680   23.4040 C   0  0  0  0  0  0  0  0  0  0  0  0
  -26.5840  -34.8690   22.3640 O   0  0  0  0  0  0  0  0  0  0  0  0
  -25.0220  -34.0610   24.9730 H   0  0  0  0  0  0  0  0  0  0  0  0
  -24.1890  -36.7560   23.0760 C   0  0  0  0  0  1  0  0  0  0  0  0
  -25.4430  -36.3540   23.8700 C   0  0  0  0  0  3  0  0  0  0  0  0
  -27.5880  -37.2390   24.6710 C   0  0  0  0  0  1  0  0  0  0  0  0
  -26.4710  -37.4110   23.7470 N   0  0  0  0  0  0  0  0  0  0  0  0
  -26.0640  -38.3290   23.9070 H   0  0  0  0  0  0  0  0  0  0  0  0
  -26.4520  -31.7410   25.0880 C   0  0  1  0  0  0  0  0  0  0  0  0
  -25.3740  -31.4990   26.1720 C   0  0  0  0  0  1  0  0  0  0  0  0
  -27.0290  -30.3650   24.6800 C   0  0  0  0  0  1  0  0  0  0  0  0
  -27.6110  -32.5340   25.7360 C   0  0  0  0  0  1  0  0  0  0  0  0
  1  3  1  0
  1  2  1  0
  4  5  1  0
  4  1  1  0
  5  7  1  0
  6  7  1  0
  8 19  1  0
  9 14  1  0
 10 11  1  0
 10  9  1  0
 12 11  1  0
 12 23  1  0
 12 13  1  0
 14  8  1  0
 14 13  1  0
 15  8  2  0
 17 19  1  0
 17 18  1  0
 18  7  1  0
 18 16  1  0
 19 16  1  0
 20 21  2  0
 21 40  1  0
 22 21  1  0
 22 25  1  0
 23 20  1  0
 23 24  1  0
 24 22  2  0
 25 26  1  0
 26 27  2  0
 28 31  1  0
 28 27  1  0
 29 28  2  0
 30 29  1  0
 30 25  2  0
 31 32  1  0
 32 33  1  0
 33 34  2  0
 35 34  1  0
 35 39  1  0
 36 35  2  0
 37 32  2  0
 37 36  1  0
 38 37  1  0
 40 41  1  0
 41 44  1  0
 41 43  1  0
 42 40  2  0
 45 46  1  0
 45 20  1  0
 47 45  1  0
 48  1  1  0
 48 49  2  0
 50 49  1  0
 51 62  2  0
 52 50  1  0
 52 57  1  0
 53 61  1  0
 53 63  1  0
 54 60  1  0
 54 56  1  0
 55 61  1  0
 56 55  1  0
 57 56  2  0
 58 59  1  0
 58 52  2  0
 59 54  2  0
 60 53  1  0
 61 51  1  0
 63 65  2  0
 64 63  1  0
 66 64  1  0
 67 76  2  0
 67 72  1  0
 68 64  1  0
 68 72  1  0
 69 68  1  0
 70 71  1  0
 70 69  1  0
 71 67  1  0
 72 73  2  0
 73 74  1  0
 75 74  2  0
 76 75  1  0
 77 51  1  0
 77 78  1  0
 77 87  1  0
 78 81  1  0
 79 83  1  0
 79 78  1  0
 80 79  2  0
 83 82  1  0
 85 83  1  0
 85 86  1  0
 85 84  1  0
 87 90  1  1
 87 88  1  0
 89 87  1  0
M  ISO  4   8 100  19 100  49 101  50 101
M  END
>  <TORSDO>  (26) 
F 21

>  <SCORE>  (26) 
-13.522

>  <name>  (26) 
25

>  <ligand_id>  (26) 
25

>  <original_smiles>  (26) 
[H]c1c([H])c([H])c2c(c1[H])C([H])([H])C([H])([H])C([H])([H])C2([H])N([H])C(=O)C1([H])N(C(=O)C([H])(N([H])C(=O)C([H])(N([H])C([H])([H])[H])C([H])([H])[H])C(C([H])([H])[H])(C([H])([H])[H])C([H])([H])[H])C([H])([H])c2c([H])c(OC([H])([H])C([H])([H])[N+]([H])([H])C([H])([H])C([H])([H])N(C([H])([H])[H])C3([H])C([H])([H])N(C(=O)N4C([H])([H])C([H])([H])C([H])([H])C([H])(n5nc(-c6c([H])c([H])c(Oc7c([H])c([H])c(F)c([H])c7F)c([H])c6[H])c(C(=O)N([H])[H])c5N([H])[H])C4([H])[H])C3([H])[H])c([H])c([H])c2C1([H])[H]

>  <smiles>  (26) 
[H]c1c([H])c([H])c2c(c1[H])C([H])([H])C([H])([H])C([H])([H])C2([H])N([H])C(=O)C1([H])N(C(=O)C([H])(N([H])C(=O)C([H])(N([H])C([H])([H])[H])C([H])([H])[H])C(C([H])([H])[H])(C([H])([H])[H])C([H])([H])[H])C([H])([H])c2c([H])c(OC([H])([H])C([H])([H])[N+]([H])([H])C([H])([H])C([H])([H])N(C([H])([H])[H])C3([H])C([H])([H])N(C(=O)N4C([H])([H])C([H])([H])C([H])([H])C([H])(n5nc(-c6c([H])c([H])c(Oc7c([H])c([H])c(F)c([H])c7F)c([H])c6[H])c(C(=O)N([H])[H])c5N([H])[H])C4([H])[H])C3([H])[H])c([H])c([H])c2C1([H])[H]

$$$$
26:0:0
     RDKit          3D

 88 97  0  0  1  0  0  0  0  0999 V2000
  -30.4160  -15.5170   20.3390 C   0  0  0  0  0  0  0  0  0  0  0  0
  -30.3710  -13.0320   19.4670 C   0  0  0  0  0  2  0  0  0  0  0  0
  -29.4900  -12.6710   18.2460 C   0  0  0  0  0  2  0  0  0  0  0  0
  -28.0590  -12.3500   18.6950 C   0  0  0  0  0  2  0  0  0  0  0  0
  -27.5560  -13.3500   19.7630 C   0  0  0  0  0  3  0  0  0  0  0  0
  -28.5850  -13.6570   20.8760 C   0  0  0  0  0  2  0  0  0  0  0  0
  -29.7660  -14.2320   20.1960 N   0  0  0  0  0  0  0  0  0  0  0  0
  -31.6420  -15.3140   20.2630 O   0  0  0  0  0  0  0  0  0  0  0  0
  -29.6560  -21.8040   19.4750 C   0  0  0  0  0  3  0  0  0  0  0  0
  -28.5760  -22.3650   20.2060 C   0  0  0  0  0  0  0  0  0  0  0  0
  -28.8850  -19.8350   20.4120 C   0  0  0  0  0  0  0  0  0  0  0  0
  -28.8330  -18.1020   20.6740 C   0  0  0  0  0  3  0  0  0  0  0  0
  -30.6540  -19.3380   18.9350 C   0  0  0  0  0  3  0  0  0  0  0  0
  -31.0070  -17.9650   19.7110 C   0  0  0  0  0  3  0  0  0  0  0  0
  -29.7940  -20.3690   19.6140 N   0  0  0  0  0  0  0  0  0  0  0  0
  -28.1610  -21.0370   20.7570 N   0  0  0  0  0  0  0  0  0  0  0  0
  -29.9400  -16.9800   20.1620 N   0  0  0  0  0  0  0  0  0  0  0  0
  -27.3390  -20.9750   21.3450 H   0  0  0  0  0  0  0  0  0  0  0  0
  -25.1830  -13.8650   20.5030 C   0  0  0  0  0  0  0  0  0  0  0  0
  -24.1260  -13.0740   20.8560 C   0  0  0  0  0  0  0  0  0  0  0  0
  -24.6130  -11.7310   20.8390 C   0  0  0  0  0  0  0  0  0  0  0  0
  -26.2390  -13.0050   20.2770 N   0  0  0  0  0  0  0  0  0  0  0  0
  -25.9110  -11.7140   20.5480 N   0  0  0  0  0  0  0  0  0  0  0  0
  -23.8990  -10.4590   21.0190 C   0  0  0  0  0  0  0  0  0  0  0  0
  -24.3150   -9.5040   21.9720 C   0  0  0  0  0  3  0  0  0  0  0  0
  -23.5960   -8.3020   22.1430 C   0  0  0  0  0  3  0  0  0  0  0  0
  -22.4450   -8.0440   21.3610 C   0  0  0  0  0  0  0  0  0  0  0  0
  -22.0480   -8.9880   20.3970 C   0  0  0  0  0  3  0  0  0  0  0  0
  -22.7690  -10.1810   20.2240 C   0  0  0  0  0  3  0  0  0  0  0  0
  -21.6990   -6.8930   21.4400 O   0  0  0  0  0  0  0  0  0  0  0  0
  -21.6100   -6.1720   22.6030 C   0  0  0  0  0  0  0  0  0  0  0  0
  -21.1230   -6.7420   23.7990 C   0  0  0  0  0  3  0  0  0  0  0  0
  -20.9850   -5.9470   24.9540 C   0  0  0  0  0  3  0  0  0  0  0  0
  -21.3220   -4.5810   24.9130 C   0  0  0  0  0  0  0  0  0  0  0  0
  -21.8020   -4.0090   23.7220 C   0  0  0  0  0  3  0  0  0  0  0  0
  -21.9430   -4.8020   22.5700 C   0  0  0  0  0  0  0  0  0  0  0  0
  -22.3860   -4.2420   21.4190 F   0  0  0  0  0  0  0  0  0  0  0  0
  -21.1820   -3.8150   26.0210 F   0  0  0  0  0  0  0  0  0  0  0  0
  -22.7190  -13.5350   21.0940 C   0  0  0  0  0  0  0  0  0  0  0  0
  -21.9860  -12.8400   21.9560 N   0  0  0  0  0  0  0  0  0  0  0  0
  -22.2790  -14.5480   20.5520 O   0  0  0  0  0  0  0  0  0  0  0  0
  -22.3560  -12.0200   22.4130 H   0  0  0  0  0  0  0  0  0  0  0  0
  -21.0410  -13.1310   22.1620 H   0  0  0  0  0  0  0  0  0  0  0  0
  -25.3300  -15.2370   20.3200 N   0  0  0  0  0  0  0  0  0  0  0  0
  -24.5500  -15.8800   20.4060 H   0  0  0  0  0  0  0  0  0  0  0  0
  -26.1740  -15.6800   19.9820 H   0  0  0  0  0  0  0  0  0  0  0  0
  -27.7490  -23.9880   20.2740 C   0  0  0  0  0  2  0  0  0  0  0  0
  -28.1080  -25.6600   20.2700 O   0  0  0  0  0  0  0  0  0  0  0  0
  -24.6320  -31.8540   23.2230 C   0  0  0  0  0  0  0  0  0  0  0  0
  -27.1410  -26.8420   20.2310 C   0  0  0  0  0  0  0  0  0  0  0  0
  -23.4340  -30.4560   21.5940 C   0  0  0  0  0  3  0  0  0  0  0  0
  -24.8720  -28.8200   20.1810 C   0  0  0  0  0  0  0  0  0  0  0  0
  -26.0090  -30.6190   21.4550 C   0  0  0  0  0  2  0  0  0  0  0  0
  -26.0690  -29.1940   20.8020 C   0  0  0  0  0  0  0  0  0  0  0  0
  -27.1950  -28.2300   20.7970 C   0  0  0  0  0  3  0  0  0  0  0  0
  -25.9120  -26.6580   19.5560 C   0  0  0  0  0  3  0  0  0  0  0  0
  -24.8260  -27.5760   19.5340 C   0  0  0  0  0  3  0  0  0  0  0  0
  -23.6640  -29.7630   20.2230 C   0  0  0  0  0  2  0  0  0  0  0  0
  -24.7150  -31.0070   22.1430 N   0  0  0  0  0  0  0  0  0  0  0  0
  -23.5430  -32.1530   23.7390 O   0  0  0  0  0  0  0  0  0  0  0  0
  -22.7270  -29.4750   22.5670 C   0  0  0  0  0  0  0  0  0  0  0  0
  -21.3950  -29.3150   22.4420 N   0  0  0  0  0  0  0  0  0  0  0  0
  -23.3860  -28.8560   23.4060 O   0  0  0  0  0  0  0  0  0  0  0  0
  -20.9140  -29.8650   21.7430 H   0  0  0  0  0  0  0  0  0  0  0  0
  -18.0110  -28.1010   22.9520 C   0  0  0  0  0  0  0  0  0  0  0  0
  -20.5690  -28.3830   23.2180 C   0  0  0  0  0  3  0  0  0  0  0  0
  -20.6770  -26.9450   22.6590 C   0  0  0  0  0  2  0  0  0  0  0  0
  -19.5800  -26.6090   21.6440 C   0  0  0  0  0  2  0  0  0  0  0  0
  -18.1960  -26.7500   22.2820 C   0  0  0  0  0  2  0  0  0  0  0  0
  -19.1240  -28.8750   23.3770 C   0  0  0  0  0  0  0  0  0  0  0  0
  -18.8940  -30.1350   23.9680 C   0  0  0  0  0  3  0  0  0  0  0  0
  -17.5860  -30.6260   24.1340 C   0  0  0  0  0  3  0  0  0  0  0  0
  -16.4860  -29.8520   23.7230 C   0  0  0  0  0  3  0  0  0  0  0  0
  -16.7000  -28.5900   23.1390 C   0  0  0  0  0  3  0  0  0  0  0  0
  -25.9030  -32.4990   23.8550 C   0  0  0  0  0  3  0  0  0  0  0  0
  -25.5840  -33.9000   24.1900 N   0  0  0  0  0  0  0  0  0  0  0  0
  -25.9130  -34.9640   23.4460 C   0  0  0  0  0  0  0  0  0  0  0  0
  -26.5750  -34.8700   22.4090 O   0  0  0  0  0  0  0  0  0  0  0  0
  -24.9920  -34.0470   24.9940 H   0  0  0  0  0  0  0  0  0  0  0  0
  -24.1830  -36.7690   23.1370 C   0  0  0  0  0  1  0  0  0  0  0  0
  -25.4360  -36.3520   23.9240 C   0  0  0  0  0  3  0  0  0  0  0  0
  -27.5820  -37.2360   24.7310 C   0  0  0  0  0  1  0  0  0  0  0  0
  -26.4680  -37.4070   23.8020 N   0  0  0  0  0  0  0  0  0  0  0  0
  -26.0640  -38.3260   23.9560 H   0  0  0  0  0  0  0  0  0  0  0  0
  -26.4050  -31.7390   25.1460 C   0  0  1  0  0  0  0  0  0  0  0  0
  -25.3040  -31.5190   26.2100 C   0  0  0  0  0  1  0  0  0  0  0  0
  -26.9830  -30.3530   24.7840 C   0  0  0  0  0  1  0  0  0  0  0  0
  -27.5560  -32.5350   25.8070 C   0  0  0  0  0  1  0  0  0  0  0  0
  2  7  1  0
  3  4  1  0
  3  2  1  0
  5  4  1  0
  5 22  1  0
  5  6  1  0
  7  1  1  0
  7  6  1  0
  8  1  2  0
  9 15  1  0
  9 10  2  0
 10 47  1  0
 10 16  1  0
 11 12  2  0
 11 16  1  0
 13 15  1  0
 13 14  2  0
 14 17  1  0
 15 11  1  0
 16 18  1  0
 17  1  1  0
 17 12  1  0
 19 20  2  0
 20 39  1  0
 21 20  1  0
 21 24  1  0
 22 19  1  0
 22 23  1  0
 23 21  2  0
 24 25  1  0
 25 26  2  0
 27 30  1  0
 27 26  1  0
 28 27  2  0
 29 28  1  0
 29 24  2  0
 30 31  1  0
 31 32  1  0
 32 33  2  0
 34 33  1  0
 34 38  1  0
 35 34  2  0
 36 31  2  0
 36 35  1  0
 37 36  1  0
 39 40  1  0
 40 43  1  0
 40 42  1  0
 41 39  2  0
 44 45  1  0
 44 19  1  0
 46 44  1  0
 48 47  1  0
 49 60  2  0
 50 48  1  0
 50 55  1  0
 51 59  1  0
 51 61  1  0
 52 58  1  0
 52 54  1  0
 53 59  1  0
 54 53  1  0
 55 54  2  0
 56 50  2  0
 57 56  1  0
 57 52  2  0
 58 51  1  0
 59 49  1  0
 61 63  2  0
 62 61  1  0
 64 62  1  0
 65 74  2  0
 65 70  1  0
 66 62  1  0
 66 70  1  0
 67 66  1  0
 68 69  1  0
 68 67  1  0
 69 65  1  0
 70 71  2  0
 71 72  1  0
 73 72  2  0
 74 73  1  0
 75 49  1  0
 75 76  1  0
 75 85  1  0
 76 79  1  0
 77 81  1  0
 77 76  1  0
 78 77  2  0
 81 80  1  0
 83 81  1  0
 83 84  1  0
 83 82  1  0
 85 88  1  1
 85 86  1  0
 87 85  1  0
M  ISO  4   1 100  17 100  47 101  48 101
M  END
>  <TORSDO>  (27) 
F 16

>  <SCORE>  (27) 
-16.725

>  <name>  (27) 
26

>  <ligand_id>  (27) 
26

>  <original_smiles>  (27) 
[H]c1c([H])c([H])c2c(c1[H])C([H])([H])C([H])([H])C([H])([H])C2([H])N([H])C(=O)C1([H])N(C(=O)C([H])(N([H])C(=O)C([H])(N([H])C([H])([H])[H])C([H])([H])[H])C(C([H])([H])[H])(C([H])([H])[H])C([H])([H])[H])C([H])([H])c2c([H])c(OC([H])([H])c3c([H])n4c([n+]3[H])C([H])([H])N(C(=O)N3C([H])([H])C([H])([H])C([H])([H])C([H])(n5nc(-c6c([H])c([H])c(Oc7c([H])c([H])c(F)c([H])c7F)c([H])c6[H])c(C(=O)N([H])[H])c5N([H])[H])C3([H])[H])C([H])([H])C4([H])[H])c([H])c([H])c2C1([H])[H]

>  <smiles>  (27) 
[H]c1c([H])c([H])c2c(c1[H])C([H])([H])C([H])([H])C([H])([H])C2([H])N([H])C(=O)C1([H])N(C(=O)C([H])(N([H])C(=O)C([H])(N([H])C([H])([H])[H])C([H])([H])[H])C(C([H])([H])[H])(C([H])([H])[H])C([H])([H])[H])C([H])([H])c2c([H])c(OC([H])([H])c3c([H])n4c([n+]3[H])C([H])([H])N(C(=O)N3C([H])([H])C([H])([H])C([H])([H])C([H])(n5nc(-c6c([H])c([H])c(Oc7c([H])c([H])c(F)c([H])c7F)c([H])c6[H])c(C(=O)N([H])[H])c5N([H])[H])C3([H])[H])C([H])([H])C4([H])[H])c([H])c([H])c2C1([H])[H]

$$$$
27:0:0
     RDKit          3D

 94103  0  0  1  0  0  0  0  0999 V2000
  -28.1290  -23.0960   18.5030 C   0  0  0  0  0  3  0  0  0  0  0  0
  -28.0680  -21.7070   18.8080 C   0  0  0  0  0  0  0  0  0  0  0  0
  -28.5950  -24.0220   19.4660 C   0  0  0  0  0  0  0  0  0  0  0  0
  -28.5370  -21.2890   20.0900 C   0  0  0  0  0  0  0  0  0  0  0  0
  -29.0450  -23.5590   20.6650 N   0  0  0  0  0  0  0  0  0  0  0  0
  -29.0110  -22.2370   20.9610 N   0  0  0  0  0  0  0  0  0  0  0  0
  -26.1380  -21.1740   17.1890 C   0  0  0  0  0  1  0  0  0  0  0  0
  -27.4960  -20.7410   17.7690 C   0  0  0  0  0  2  0  0  0  0  0  0
  -28.3100  -19.8500   20.6820 C   0  0  0  0  0  2  0  0  0  0  0  0
  -30.8810  -14.6220   20.0490 C   0  0  0  0  0  0  0  0  0  0  0  0
  -30.5290  -12.4480   18.9260 C   0  0  0  0  0  2  0  0  0  0  0  0
  -29.5210  -12.6490   17.7760 C   0  0  0  0  0  2  0  0  0  0  0  0
  -28.0760  -12.5010   18.2900 C   0  0  0  0  0  2  0  0  0  0  0  0
  -27.8070  -13.3140   19.5860 C   0  0  0  0  0  3  0  0  0  0  0  0
  -28.9320  -13.1170   20.6260 C   0  0  0  0  0  2  0  0  0  0  0  0
  -30.1990  -13.4420   19.9650 N   0  0  0  0  0  0  0  0  0  0  0  0
  -32.0490  -14.7080   19.6570 O   0  0  0  0  0  0  0  0  0  0  0  0
  -30.2630  -16.7950   19.1100 C   0  0  0  0  0  2  0  0  0  0  0  0
  -30.1470  -16.4680   21.4900 C   0  0  0  0  0  2  0  0  0  0  0  0
  -29.2970  -18.0270   19.2000 C   0  0  0  0  0  2  0  0  0  0  0  0
  -29.1830  -17.6970   21.5960 C   0  0  0  0  0  2  0  0  0  0  0  0
  -30.1380  -15.7750   20.1870 N   0  0  0  0  0  0  0  0  0  0  0  0
  -29.3230  -18.7270   20.5180 N   0  0  2  0  0  4  0  0  0  0  0  0
  -30.2330  -19.1520   20.6270 H   0  0  0  0  0  0  0  0  0  0  0  0
  -25.4650  -13.8930   20.4670 C   0  0  0  0  0  0  0  0  0  0  0  0
  -24.4170  -13.1090   20.8700 C   0  0  0  0  0  0  0  0  0  0  0  0
  -24.8700  -11.7600   20.7660 C   0  0  0  0  0  0  0  0  0  0  0  0
  -26.4890  -13.0170   20.1440 N   0  0  0  0  0  0  0  0  0  0  0  0
  -26.1410  -11.7270   20.3840 N   0  0  0  0  0  0  0  0  0  0  0  0
  -24.1480  -10.4930   20.9540 C   0  0  0  0  0  0  0  0  0  0  0  0
  -24.5650   -9.5410   21.9090 C   0  0  0  0  0  3  0  0  0  0  0  0
  -23.8450   -8.3390   22.0830 C   0  0  0  0  0  3  0  0  0  0  0  0
  -22.6930   -8.0830   21.3020 C   0  0  0  0  0  0  0  0  0  0  0  0
  -22.2960   -9.0240   20.3370 C   0  0  0  0  0  3  0  0  0  0  0  0
  -23.0170  -10.2170   20.1600 C   0  0  0  0  0  3  0  0  0  0  0  0
  -21.9430   -6.9350   21.3870 O   0  0  0  0  0  0  0  0  0  0  0  0
  -21.7870   -6.2640   22.5740 C   0  0  0  0  0  0  0  0  0  0  0  0
  -21.2300   -6.8850   23.7140 C   0  0  0  0  0  3  0  0  0  0  0  0
  -21.0200   -6.1380   24.8910 C   0  0  0  0  0  3  0  0  0  0  0  0
  -21.3570   -4.7720   24.9270 C   0  0  0  0  0  0  0  0  0  0  0  0
  -21.9090   -4.1520   23.7920 C   0  0  0  0  0  3  0  0  0  0  0  0
  -22.1180   -4.8950   22.6180 C   0  0  0  0  0  0  0  0  0  0  0  0
  -22.6280   -4.2860   21.5200 F   0  0  0  0  0  0  0  0  0  0  0  0
  -21.1500   -4.0520   26.0550 F   0  0  0  0  0  0  0  0  0  0  0  0
  -23.0410  -13.5820   21.2380 C   0  0  0  0  0  0  0  0  0  0  0  0
  -22.3730  -12.8750   22.1430 N   0  0  0  0  0  0  0  0  0  0  0  0
  -22.5700  -14.6130   20.7580 O   0  0  0  0  0  0  0  0  0  0  0  0
  -22.7740  -12.0420   22.5480 H   0  0  0  0  0  0  0  0  0  0  0  0
  -21.4530  -13.1700   22.4350 H   0  0  0  0  0  0  0  0  0  0  0  0
  -25.6270  -15.2670   20.3260 N   0  0  0  0  0  0  0  0  0  0  0  0
  -24.8600  -15.9140   20.4750 H   0  0  0  0  0  0  0  0  0  0  0  0
  -26.4440  -15.7010   19.9180 H   0  0  0  0  0  0  0  0  0  0  0  0
  -28.7480  -25.5290   19.0660 C   0  0  0  0  0  2  0  0  0  0  0  0
  -28.5060  -26.6040   20.0250 O   0  0  0  0  0  0  0  0  0  0  0  0
  -24.6230  -31.7930   23.1090 C   0  0  0  0  0  0  0  0  0  0  0  0
  -27.3340  -27.3570   19.9860 C   0  0  0  0  0  0  0  0  0  0  0  0
  -23.4420  -30.3790   21.4610 C   0  0  0  0  0  3  0  0  0  0  0  0
  -24.9190  -28.8700   20.0190 C   0  0  0  0  0  0  0  0  0  0  0  0
  -25.9670  -30.7620   21.2710 C   0  0  0  0  0  2  0  0  0  0  0  0
  -26.0730  -29.3910   20.6170 C   0  0  0  0  0  0  0  0  0  0  0  0
  -27.2780  -28.6380   20.6050 C   0  0  0  0  0  3  0  0  0  0  0  0
  -26.1550  -26.8640   19.3850 C   0  0  0  0  0  3  0  0  0  0  0  0
  -24.9580  -27.6080   19.4030 C   0  0  0  0  0  3  0  0  0  0  0  0
  -23.6630  -29.7130   20.0760 C   0  0  0  0  0  2  0  0  0  0  0  0
  -24.6950  -30.9960   22.0030 N   0  0  0  0  0  0  0  0  0  0  0  0
  -23.5360  -32.0440   23.6490 O   0  0  0  0  0  0  0  0  0  0  0  0
  -22.8070  -29.3430   22.4180 C   0  0  0  0  0  0  0  0  0  0  0  0
  -21.4810  -29.1520   22.3060 N   0  0  0  0  0  0  0  0  0  0  0  0
  -23.5050  -28.7120   23.2170 O   0  0  0  0  0  0  0  0  0  0  0  0
  -20.9790  -29.7140   21.6340 H   0  0  0  0  0  0  0  0  0  0  0  0
  -18.1220  -27.9300   22.8410 C   0  0  0  0  0  0  0  0  0  0  0  0
  -20.6820  -28.1980   23.0750 C   0  0  0  0  0  3  0  0  0  0  0  0
  -20.7840  -26.7780   22.4720 C   0  0  0  0  0  2  0  0  0  0  0  0
  -19.6660  -26.4670   21.4710 C   0  0  0  0  0  2  0  0  0  0  0  0
  -18.2950  -26.5930   22.1400 C   0  0  0  0  0  2  0  0  0  0  0  0
  -19.2440  -28.6910   23.2660 C   0  0  0  0  0  0  0  0  0  0  0  0
  -19.0280  -29.9420   23.8820 C   0  0  0  0  0  3  0  0  0  0  0  0
  -17.7230  -30.4340   24.0770 C   0  0  0  0  0  3  0  0  0  0  0  0
  -16.6170  -29.6690   23.6680 C   0  0  0  0  0  3  0  0  0  0  0  0
  -16.8170  -28.4200   23.0560 C   0  0  0  0  0  3  0  0  0  0  0  0
  -25.8950  -32.4450   23.7310 C   0  0  0  0  0  3  0  0  0  0  0  0
  -26.4620  -31.6470   24.9710 C   0  0  1  0  0  0  0  0  0  0  0  0
  -25.3980  -31.3350   26.0490 C   0  0  0  0  0  1  0  0  0  0  0  0
  -27.0820  -30.3050   24.5190 C   0  0  0  0  0  1  0  0  0  0  0  0
  -27.5980  -32.4570   25.6400 C   0  0  0  0  0  1  0  0  0  0  0  0
  -25.5460  -33.8190   24.1170 N   0  0  0  0  0  0  0  0  0  0  0  0
  -25.8200  -34.9090   23.3870 C   0  0  0  0  0  0  0  0  0  0  0  0
  -26.4660  -34.8650   22.3370 O   0  0  0  0  0  0  0  0  0  0  0  0
  -24.9640  -33.9250   24.9350 H   0  0  0  0  0  0  0  0  0  0  0  0
  -24.0130  -36.6420   23.1490 C   0  0  0  0  0  1  0  0  0  0  0  0
  -25.2950  -36.2610   23.9050 C   0  0  0  0  0  3  0  0  0  0  0  0
  -27.4220  -37.2010   24.6950 C   0  0  0  0  0  1  0  0  0  0  0  0
  -26.2820  -37.3590   23.7980 N   0  0  0  0  0  0  0  0  0  0  0  0
  -25.8450  -38.2540   23.9980 H   0  0  0  0  0  0  0  0  0  0  0  0
  1  2  2  0
  1  3  1  0
  2  4  1  0
  3  5  2  0
  4  9  1  0
  4  6  2  0
  5  6  1  0
  7  8  1  0
  8  2  1  0
 10 22  1  0
 11 16  1  0
 12 13  1  0
 12 11  1  0
 14 13  1  0
 14 28  1  0
 14 15  1  0
 16 10  1  0
 16 15  1  0
 17 10  2  0
 18 20  1  0
 18 22  1  0
 19 21  1  0
 20 23  1  0
 22 19  1  0
 23 24  1  1
 23  9  1  0
 23 21  1  0
 25 26  2  0
 26 45  1  0
 27 26  1  0
 27 30  1  0
 28 29  1  0
 28 25  1  0
 29 27  2  0
 30 31  1  0
 31 32  2  0
 33 36  1  0
 33 32  1  0
 34 33  2  0
 35 34  1  0
 35 30  2  0
 36 37  1  0
 37 42  2  0
 37 38  1  0
 38 39  2  0
 39 40  1  0
 40 44  1  0
 41 40  2  0
 42 41  1  0
 43 42  1  0
 45 46  1  0
 46 49  1  0
 46 48  1  0
 47 45  2  0
 50 25  1  0
 50 51  1  0
 52 50  1  0
 53  3  1  0
 53 54  1  0
 55 66  2  0
 56 54  1  0
 56 61  1  0
 57 65  1  0
 57 67  1  0
 58 64  1  0
 58 60  1  0
 59 65  1  0
 60 59  1  0
 61 60  2  0
 62 63  1  0
 62 56  2  0
 63 58  2  0
 64 57  1  0
 65 55  1  0
 67 69  2  0
 68 67  1  0
 70 68  1  0
 71 80  2  0
 71 76  1  0
 72 68  1  0
 72 76  1  0
 73 72  1  0
 74 75  1  0
 74 73  1  0
 75 71  1  0
 76 77  2  0
 77 78  1  0
 79 78  2  0
 80 79  1  0
 81 55  1  0
 81 86  1  0
 81 82  1  0
 82 85  1  1
 82 83  1  0
 84 82  1  0
 86 89  1  0
 87 91  1  0
 87 86  1  0
 88 87  2  0
 91 90  1  0
 93 91  1  0
 93 94  1  0
 93 92  1  0
M  ISO  4  10 100  22 100  53 101  54 101
M  END
>  <TORSDO>  (28) 
F 19

>  <SCORE>  (28) 
-13.379

>  <name>  (28) 
27

>  <ligand_id>  (28) 
27

>  <original_smiles>  (28) 
[H]c1c([H])c([H])c2c(c1[H])C([H])([H])C([H])([H])C([H])([H])C2([H])N([H])C(=O)C1([H])N(C(=O)C([H])(N([H])C(=O)C([H])(N([H])C([H])([H])[H])C([H])([H])[H])C(C([H])([H])[H])(C([H])([H])[H])C([H])([H])[H])C([H])([H])c2c([H])c(OC([H])([H])c3nnc(C([H])([H])[N+]4([H])C([H])([H])C([H])([H])N(C(=O)N5C([H])([H])C([H])([H])C([H])([H])C([H])(n6nc(-c7c([H])c([H])c(Oc8c([H])c([H])c(F)c([H])c8F)c([H])c7[H])c(C(=O)N([H])[H])c6N([H])[H])C5([H])[H])C([H])([H])C4([H])[H])c(C([H])([H])C([H])([H])[H])c3[H])c([H])c([H])c2C1([H])[H]

>  <smiles>  (28) 
[H]c1c([H])c([H])c2c(c1[H])C([H])([H])C([H])([H])C([H])([H])C2([H])N([H])C(=O)C1([H])N(C(=O)C([H])(N([H])C(=O)C([H])(N([H])C([H])([H])[H])C([H])([H])[H])C(C([H])([H])[H])(C([H])([H])[H])C([H])([H])[H])C([H])([H])c2c([H])c(OC([H])([H])c3nnc(C([H])([H])[N+]4([H])C([H])([H])C([H])([H])N(C(=O)N5C([H])([H])C([H])([H])C([H])([H])C([H])(n6nc(-c7c([H])c([H])c(Oc8c([H])c([H])c(F)c([H])c8F)c([H])c7[H])c(C(=O)N([H])[H])c6N([H])[H])C5([H])[H])C([H])([H])C4([H])[H])c(C([H])([H])C([H])([H])[H])c3[H])c([H])c([H])c2C1([H])[H]

$$$$
28:0:0
     RDKit          3D

 93102  0  0  1  0  0  0  0  0999 V2000
  -28.4660  -18.6850   18.9850 C   0  0  0  0  0  2  0  0  0  0  0  0
  -29.6910  -18.1720   18.2010 C   0  0  0  0  0  2  0  0  0  0  0  0
  -30.6960  -20.6610   19.4240 C   0  0  0  0  0  2  0  0  0  0  0  0
  -28.9900  -18.9840   20.4000 C   0  0  0  0  0  3  0  0  0  0  0  0
  -29.5210  -20.5840   20.4370 C   0  0  0  0  0  3  0  0  0  0  0  0
  -30.1010  -17.7430   20.5350 C   0  0  0  0  0  3  0  0  0  0  0  0
  -30.8390  -18.1060   19.2320 C   0  0  0  0  0  3  0  0  0  0  0  0
  -31.5350  -19.4240   19.3710 N   0  0  0  0  0  4  0  0  0  0  0  0
  -32.1030  -19.3880   20.2020 H   0  0  0  0  0  0  0  0  0  0  0  0
  -32.1710  -19.5280   18.5990 H   0  0  0  0  0  0  0  0  0  0  0  0
  -30.4920  -15.0040   20.4570 C   0  0  0  0  0  0  0  0  0  0  0  0
  -30.3820  -12.6480   19.5270 C   0  0  0  0  0  2  0  0  0  0  0  0
  -29.4710  -12.5940   18.2810 C   0  0  0  0  0  2  0  0  0  0  0  0
  -28.0020  -12.3780   18.6930 C   0  0  0  0  0  2  0  0  0  0  0  0
  -27.5710  -13.3130   19.8530 C   0  0  0  0  0  3  0  0  0  0  0  0
  -28.6080  -13.3430   20.9960 C   0  0  0  0  0  2  0  0  0  0  0  0
  -29.8870  -13.7490   20.4030 N   0  0  0  0  0  0  0  0  0  0  0  0
  -31.7000  -15.0590   20.2080 O   0  0  0  0  0  0  0  0  0  0  0  0
  -29.7250  -16.1970   20.5790 N   0  0  0  0  0  0  0  0  0  0  0  0
  -28.7430  -16.0230   20.7300 H   0  0  0  0  0  0  0  0  0  0  0  0
  -25.1790  -13.8870   20.5570 C   0  0  0  0  0  0  0  0  0  0  0  0
  -24.1110  -13.1100   20.9130 C   0  0  0  0  0  0  0  0  0  0  0  0
  -24.5800  -11.7600   20.8920 C   0  0  0  0  0  0  0  0  0  0  0  0
  -26.2270  -13.0110   20.3340 N   0  0  0  0  0  0  0  0  0  0  0  0
  -25.8750  -11.7270   20.6020 N   0  0  0  0  0  0  0  0  0  0  0  0
  -23.8520  -10.4970   21.0710 C   0  0  0  0  0  0  0  0  0  0  0  0
  -24.2730   -9.5290   22.0100 C   0  0  0  0  0  3  0  0  0  0  0  0
  -23.5450   -8.3310   22.1790 C   0  0  0  0  0  3  0  0  0  0  0  0
  -22.3810   -8.0930   21.4080 C   0  0  0  0  0  0  0  0  0  0  0  0
  -21.9810   -9.0490   20.4590 C   0  0  0  0  0  3  0  0  0  0  0  0
  -22.7100  -10.2380   20.2890 C   0  0  0  0  0  3  0  0  0  0  0  0
  -21.6260   -6.9480   21.4860 O   0  0  0  0  0  0  0  0  0  0  0  0
  -21.5590   -6.2070   22.6380 C   0  0  0  0  0  0  0  0  0  0  0  0
  -21.0990   -6.7590   23.8550 C   0  0  0  0  0  3  0  0  0  0  0  0
  -20.9810   -5.9430   24.9980 C   0  0  0  0  0  3  0  0  0  0  0  0
  -21.3110   -4.5760   24.9250 C   0  0  0  0  0  0  0  0  0  0  0  0
  -21.7610   -4.0240   23.7140 C   0  0  0  0  0  3  0  0  0  0  0  0
  -21.8820   -4.8370   22.5730 C   0  0  0  0  0  0  0  0  0  0  0  0
  -22.2970   -4.2940   21.4030 F   0  0  0  0  0  0  0  0  0  0  0  0
  -21.1890   -3.7910   26.0210 F   0  0  0  0  0  0  0  0  0  0  0  0
  -22.7090  -13.5840   21.1570 C   0  0  0  0  0  0  0  0  0  0  0  0
  -21.9630  -12.8870   22.0070 N   0  0  0  0  0  0  0  0  0  0  0  0
  -22.2800  -14.6100   20.6290 O   0  0  0  0  0  0  0  0  0  0  0  0
  -22.3220  -12.0580   22.4570 H   0  0  0  0  0  0  0  0  0  0  0  0
  -21.0210  -13.1870   22.2120 H   0  0  0  0  0  0  0  0  0  0  0  0
  -25.3410  -15.2580   20.3790 N   0  0  0  0  0  0  0  0  0  0  0  0
  -24.5650  -15.9050   20.4710 H   0  0  0  0  0  0  0  0  0  0  0  0
  -26.1790  -15.6960   20.0210 H   0  0  0  0  0  0  0  0  0  0  0  0
  -28.5810  -21.8300   20.2490 N   0  0  0  0  0  0  0  0  0  0  0  0
  -27.7490  -21.6800   20.8160 H   0  0  0  0  0  0  0  0  0  0  0  0
  -28.9780  -23.3450   20.3850 C   0  0  0  0  0  3  0  0  0  0  0  0
  -27.9450  -24.6640   20.1170 C   0  0  0  0  0  3  0  0  0  0  0  0
  -28.2230  -26.1930   20.2830 O   0  0  0  0  0  0  0  0  0  0  0  0
  -24.6220  -31.9110   23.2620 C   0  0  0  0  0  0  0  0  0  0  0  0
  -27.1700  -27.1830   20.2190 C   0  0  0  0  0  0  0  0  0  0  0  0
  -23.4120  -30.5210   21.6240 C   0  0  0  0  0  3  0  0  0  0  0  0
  -24.8490  -28.9410   20.1950 C   0  0  0  0  0  0  0  0  0  0  0  0
  -25.9670  -30.7750   21.4530 C   0  0  0  0  0  2  0  0  0  0  0  0
  -26.0330  -29.3820   20.7990 C   0  0  0  0  0  0  0  0  0  0  0  0
  -27.1940  -28.5200   20.7930 C   0  0  0  0  0  3  0  0  0  0  0  0
  -25.9590  -26.8450   19.5770 C   0  0  0  0  0  3  0  0  0  0  0  0
  -24.8240  -27.6870   19.5690 C   0  0  0  0  0  3  0  0  0  0  0  0
  -23.6260  -29.8430   20.2450 C   0  0  0  0  0  2  0  0  0  0  0  0
  -24.6880  -31.0900   22.1680 N   0  0  0  0  0  0  0  0  0  0  0  0
  -23.5390  -32.1990   23.7920 O   0  0  0  0  0  0  0  0  0  0  0  0
  -22.7320  -29.5160   22.5880 C   0  0  0  0  0  0  0  0  0  0  0  0
  -21.4040  -29.3450   22.4580 N   0  0  0  0  0  0  0  0  0  0  0  0
  -23.4010  -28.8950   23.4160 O   0  0  0  0  0  0  0  0  0  0  0  0
  -20.9200  -29.8980   21.7650 H   0  0  0  0  0  0  0  0  0  0  0  0
  -18.0220  -28.1410   22.9510 C   0  0  0  0  0  0  0  0  0  0  0  0
  -20.5790  -28.4100   23.2300 C   0  0  0  0  0  3  0  0  0  0  0  0
  -20.6870  -26.9760   22.6650 C   0  0  0  0  0  2  0  0  0  0  0  0
  -19.5910  -26.6440   21.6470 C   0  0  0  0  0  2  0  0  0  0  0  0
  -18.2050  -26.7890   22.2830 C   0  0  0  0  0  2  0  0  0  0  0  0
  -19.1360  -28.9090   23.3820 C   0  0  0  0  0  0  0  0  0  0  0  0
  -18.9100  -30.1720   23.9680 C   0  0  0  0  0  3  0  0  0  0  0  0
  -17.6010  -30.6690   24.1280 C   0  0  0  0  0  3  0  0  0  0  0  0
  -16.5020  -29.8980   23.7120 C   0  0  0  0  0  3  0  0  0  0  0  0
  -16.7130  -28.6360   23.1300 C   0  0  0  0  0  3  0  0  0  0  0  0
  -25.9050  -32.5410   23.8850 C   0  0  0  0  0  3  0  0  0  0  0  0
  -26.4050  -31.7780   25.1740 C   0  0  1  0  0  0  0  0  0  0  0  0
  -25.3030  -31.5640   26.2390 C   0  0  0  0  0  1  0  0  0  0  0  0
  -26.9760  -30.3900   24.8050 C   0  0  0  0  0  1  0  0  0  0  0  0
  -27.5600  -32.5680   25.8340 C   0  0  0  0  0  1  0  0  0  0  0  0
  -25.6030  -33.9440   24.2070 N   0  0  0  0  0  0  0  0  0  0  0  0
  -25.9310  -34.9920   23.4390 C   0  0  0  0  0  0  0  0  0  0  0  0
  -26.5860  -34.8780   22.4000 O   0  0  0  0  0  0  0  0  0  0  0  0
  -25.0200  -34.1070   25.0140 H   0  0  0  0  0  0  0  0  0  0  0  0
  -24.2050  -36.7940   23.1050 C   0  0  0  0  0  1  0  0  0  0  0  0
  -25.4590  -36.3890   23.8960 C   0  0  0  0  0  3  0  0  0  0  0  0
  -27.6120  -37.2730   24.6800 C   0  0  0  0  0  1  0  0  0  0  0  0
  -26.4960  -37.4350   23.7540 N   0  0  0  0  0  0  0  0  0  0  0  0
  -26.0960  -38.3600   23.8960 H   0  0  0  0  0  0  0  0  0  0  0  0
  2  1  1  0
  3  5  1  0
  4  1  1  0
  4  5  1  0
  4  6  1  0
  5 49  1  0
  6 19  1  0
  7  2  1  0
  7  8  1  0
  7  6  1  0
  8  3  1  0
  8  9  1  0
 10  8  1  0
 11 19  1  0
 12 17  1  0
 13 14  1  0
 13 12  1  0
 15 14  1  0
 15 24  1  0
 15 16  1  0
 17 11  1  0
 17 16  1  0
 18 11  2  0
 19 20  1  0
 21 22  2  0
 22 41  1  0
 23 22  1  0
 23 26  1  0
 24 21  1  0
 24 25  1  0
 25 23  2  0
 26 27  1  0
 27 28  2  0
 29 32  1  0
 29 28  1  0
 30 29  2  0
 31 30  1  0
 31 26  2  0
 32 33  1  0
 33 34  1  0
 34 35  2  0
 36 35  1  0
 36 40  1  0
 37 36  2  0
 38 33  2  0
 38 37  1  0
 39 38  1  0
 41 42  1  0
 42 45  1  0
 42 44  1  0
 43 41  2  0
 46 47  1  0
 46 21  1  0
 48 46  1  0
 49 51  1  0
 49 50  1  0
 52 53  1  0
 52 51  2  0
 54 65  2  0
 55 53  1  0
 55 60  1  0
 56 64  1  0
 56 66  1  0
 57 63  1  0
 57 59  1  0
 58 64  1  0
 59 58  1  0
 60 59  2  0
 61 55  2  0
 62 61  1  0
 62 57  2  0
 63 56  1  0
 64 54  1  0
 66 68  2  0
 67 66  1  0
 69 67  1  0
 70 79  2  0
 70 75  1  0
 71 67  1  0
 71 75  1  0
 72 71  1  0
 73 74  1  0
 73 72  1  0
 74 70  1  0
 75 76  2  0
 76 77  1  0
 78 77  2  0
 79 78  1  0
 80 54  1  0
 80 85  1  0
 80 81  1  0
 81 84  1  1
 81 82  1  0
 83 81  1  0
 85 88  1  0
 86 90  1  0
 86 85  1  0
 87 86  2  0
 90 89  1  0
 92 93  1  0
 92 90  1  0
 92 91  1  0
M  ISO  4  11 100  19 100  52 101  53 101
M  END
>  <TORSDO>  (29) 
F 19

>  <SCORE>  (29) 
-15.130

>  <name>  (29) 
28

>  <ligand_id>  (29) 
28

>  <original_smiles>  (29) 
[H]c1c([H])c([H])c2c(c1[H])C([H])([H])C([H])([H])C([H])([H])C2([H])N([H])C(=O)C1([H])N(C(=O)C([H])(N([H])C(=O)C([H])(N([H])C([H])([H])[H])C([H])([H])[H])C(C([H])([H])[H])(C([H])([H])[H])C([H])([H])[H])C([H])([H])c2c([H])c(OC([H])([H])C([H])([H])N([H])C3([H])C4([H])C([H])([H])C([H])([H])C([H])(C4([H])N([H])C(=O)N4C([H])([H])C([H])([H])C([H])([H])C([H])(n5nc(-c6c([H])c([H])c(Oc7c([H])c([H])c(F)c([H])c7F)c([H])c6[H])c(C(=O)N([H])[H])c5N([H])[H])C4([H])[H])[N+]([H])([H])C3([H])[H])c([H])c([H])c2C1([H])[H]

>  <smiles>  (29) 
[H]c1c([H])c([H])c2c(c1[H])C([H])([H])C([H])([H])C([H])([H])C2([H])N([H])C(=O)C1([H])N(C(=O)C([H])(N([H])C(=O)C([H])(N([H])C([H])([H])[H])C([H])([H])[H])C(C([H])([H])[H])(C([H])([H])[H])C([H])([H])[H])C([H])([H])c2c([H])c(OC([H])([H])C([H])([H])N([H])C3([H])C4([H])C([H])([H])C([H])([H])C([H])(C4([H])N([H])C(=O)N4C([H])([H])C([H])([H])C([H])([H])C([H])(n5nc(-c6c([H])c([H])c(Oc7c([H])c([H])c(F)c([H])c7F)c([H])c6[H])c(C(=O)N([H])[H])c5N([H])[H])C4([H])[H])[N+]([H])([H])C3([H])[H])c([H])c([H])c2C1([H])[H]

$$$$
29:0:0
     RDKit          3D

 92101  0  0  1  0  0  0  0  0999 V2000
  -27.3130  -22.3150   21.0550 C   0  0  0  0  0  3  0  0  0  0  0  0
  -26.4120  -23.3720   21.1960 C   0  0  0  0  0  3  0  0  0  0  0  0
  -28.6250  -22.5980   20.6630 C   0  0  0  0  0  3  0  0  0  0  0  0
  -27.9770  -24.9390   20.5260 C   0  0  0  0  0  0  0  0  0  0  0  0
  -26.7570  -24.6490   20.9660 N   0  0  0  0  0  0  0  0  0  0  0  0
  -28.9320  -23.9470   20.3920 N   0  0  0  0  0  0  0  0  0  0  0  0
  -28.2430  -26.3150   20.2400 O   0  0  0  0  0  0  0  0  0  0  0  0
  -24.6020  -31.9120   23.2500 C   0  0  0  0  0  0  0  0  0  0  0  0
  -27.1850  -27.2840   20.1780 C   0  0  0  0  0  0  0  0  0  0  0  0
  -23.3980  -30.5230   21.6080 C   0  0  0  0  0  3  0  0  0  0  0  0
  -24.8470  -28.9850   20.1550 C   0  0  0  0  0  0  0  0  0  0  0  0
  -25.9430  -30.8130   21.4340 C   0  0  0  0  0  2  0  0  0  0  0  0
  -26.0190  -29.4320   20.7800 C   0  0  0  0  0  0  0  0  0  0  0  0
  -27.1850  -28.5910   20.7930 C   0  0  0  0  0  3  0  0  0  0  0  0
  -26.0120  -26.9650   19.4530 C   0  0  0  0  0  3  0  0  0  0  0  0
  -24.8530  -27.7610   19.4780 C   0  0  0  0  0  3  0  0  0  0  0  0
  -23.6120  -29.8630   20.2210 C   0  0  0  0  0  2  0  0  0  0  0  0
  -24.6660  -31.1010   22.1520 N   0  0  0  0  0  0  0  0  0  0  0  0
  -23.5190  -32.1870   23.7880 O   0  0  0  0  0  0  0  0  0  0  0  0
  -22.7370  -29.4980   22.5630 C   0  0  0  0  0  0  0  0  0  0  0  0
  -21.4110  -29.3160   22.4400 N   0  0  0  0  0  0  0  0  0  0  0  0
  -23.4180  -28.8700   23.3790 O   0  0  0  0  0  0  0  0  0  0  0  0
  -20.9170  -29.8790   21.7630 H   0  0  0  0  0  0  0  0  0  0  0  0
  -18.0400  -28.0900   22.9500 C   0  0  0  0  0  0  0  0  0  0  0  0
  -20.5990  -28.3700   23.2090 C   0  0  0  0  0  3  0  0  0  0  0  0
  -20.7110  -26.9410   22.6300 C   0  0  0  0  0  2  0  0  0  0  0  0
  -19.6060  -26.6130   21.6230 C   0  0  0  0  0  2  0  0  0  0  0  0
  -18.2260  -26.7430   22.2740 C   0  0  0  0  0  2  0  0  0  0  0  0
  -19.1550  -28.8620   23.3750 C   0  0  0  0  0  0  0  0  0  0  0  0
  -18.9290  -30.1210   23.9710 C   0  0  0  0  0  3  0  0  0  0  0  0
  -17.6210  -30.6100   24.1430 C   0  0  0  0  0  3  0  0  0  0  0  0
  -16.5200  -29.8380   23.7350 C   0  0  0  0  0  3  0  0  0  0  0  0
  -16.7310  -28.5790   23.1420 C   0  0  0  0  0  3  0  0  0  0  0  0
  -25.8820  -32.5480   23.8690 C   0  0  0  0  0  3  0  0  0  0  0  0
  -25.5740  -33.9490   24.1930 N   0  0  0  0  0  0  0  0  0  0  0  0
  -25.9040  -34.9980   23.4290 C   0  0  0  0  0  0  0  0  0  0  0  0
  -26.5710  -34.8910   22.3960 O   0  0  0  0  0  0  0  0  0  0  0  0
  -24.9810  -34.1080   24.9950 H   0  0  0  0  0  0  0  0  0  0  0  0
  -24.1830  -36.7980   23.0670 C   0  0  0  0  0  1  0  0  0  0  0  0
  -25.4200  -36.3910   23.8830 C   0  0  0  0  0  3  0  0  0  0  0  0
  -27.5530  -37.2740   24.7210 C   0  0  0  0  0  1  0  0  0  0  0  0
  -26.4560  -37.4410   23.7700 N   0  0  0  0  0  0  0  0  0  0  0  0
  -26.0520  -38.3630   23.9090 H   0  0  0  0  0  0  0  0  0  0  0  0
  -26.3960  -31.7850   25.1530 C   0  0  1  0  0  0  0  0  0  0  0  0
  -25.2990  -31.5520   26.2180 C   0  0  0  0  0  1  0  0  0  0  0  0
  -26.9800  -30.4040   24.7730 C   0  0  0  0  0  1  0  0  0  0  0  0
  -27.5450  -32.5830   25.8100 C   0  0  0  0  0  1  0  0  0  0  0  0
  -29.7160  -21.4260   20.8470 C   0  0  0  0  0  2  0  0  0  0  0  0
  -28.7550  -17.9620   19.2160 C   0  0  0  0  0  2  0  0  0  0  0  0
  -28.4940  -19.4840   19.5100 C   0  0  0  0  0  2  0  0  0  0  0  0
  -30.1500  -18.7600   20.9920 C   0  0  0  0  0  2  0  0  0  0  0  0
  -29.9830  -17.4790   20.0380 C   0  0  0  0  0  3  0  0  0  0  0  0
  -29.6840  -19.9970   20.2180 N   0  0  2  0  0  4  0  0  0  0  0  0
  -30.3670  -20.0960   19.4830 H   0  0  0  0  0  0  0  0  0  0  0  0
  -30.6460  -14.8870   20.2440 C   0  0  0  0  0  0  0  0  0  0  0  0
  -30.4520  -12.6000   19.2360 C   0  0  0  0  0  2  0  0  0  0  0  0
  -29.5050  -12.6700   18.0160 C   0  0  0  0  0  2  0  0  0  0  0  0
  -28.0430  -12.4760   18.4580 C   0  0  0  0  0  2  0  0  0  0  0  0
  -27.6730  -13.3540   19.6840 C   0  0  0  0  0  3  0  0  0  0  0  0
  -28.7430  -13.2780   20.7980 C   0  0  0  0  0  2  0  0  0  0  0  0
  -30.0320  -13.6480   20.2010 N   0  0  0  0  0  0  0  0  0  0  0  0
  -31.8020  -15.0060   19.8290 O   0  0  0  0  0  0  0  0  0  0  0  0
  -29.8800  -16.0150   20.5410 N   0  0  0  0  0  0  0  0  0  0  0  0
  -28.9890  -15.7830   20.9560 H   0  0  0  0  0  0  0  0  0  0  0  0
  -25.2860  -13.9200   20.4290 C   0  0  0  0  0  0  0  0  0  0  0  0
  -24.2300  -13.1370   20.8080 C   0  0  0  0  0  0  0  0  0  0  0  0
  -24.7040  -11.7910   20.7720 C   0  0  0  0  0  0  0  0  0  0  0  0
  -26.3360  -13.0500   20.1850 N   0  0  0  0  0  0  0  0  0  0  0  0
  -25.9930  -11.7640   20.4530 N   0  0  0  0  0  0  0  0  0  0  0  0
  -23.9890  -10.5230   20.9680 C   0  0  0  0  0  0  0  0  0  0  0  0
  -24.4250   -9.5670   21.9120 C   0  0  0  0  0  3  0  0  0  0  0  0
  -23.7080   -8.3650   22.0970 C   0  0  0  0  0  3  0  0  0  0  0  0
  -22.5420   -8.1090   21.3360 C   0  0  0  0  0  0  0  0  0  0  0  0
  -22.1260   -9.0540   20.3820 C   0  0  0  0  0  3  0  0  0  0  0  0
  -22.8430  -10.2480   20.1960 C   0  0  0  0  0  3  0  0  0  0  0  0
  -21.7970   -6.9600   21.4300 O   0  0  0  0  0  0  0  0  0  0  0  0
  -21.7330   -6.2350   22.5930 C   0  0  0  0  0  0  0  0  0  0  0  0
  -21.2600   -6.7990   23.7970 C   0  0  0  0  0  3  0  0  0  0  0  0
  -21.1440   -6.0000   24.9520 C   0  0  0  0  0  3  0  0  0  0  0  0
  -21.4940   -4.6370   24.9030 C   0  0  0  0  0  0  0  0  0  0  0  0
  -21.9600   -4.0720   23.7020 C   0  0  0  0  0  3  0  0  0  0  0  0
  -22.0760   -4.8680   22.5500 C   0  0  0  0  0  0  0  0  0  0  0  0
  -22.5060   -4.3140   21.3910 F   0  0  0  0  0  0  0  0  0  0  0  0
  -21.3760   -3.8670   26.0100 F   0  0  0  0  0  0  0  0  0  0  0  0
  -22.8330  -13.6050   21.0930 C   0  0  0  0  0  0  0  0  0  0  0  0
  -22.1180  -12.9000   21.9630 N   0  0  0  0  0  0  0  0  0  0  0  0
  -22.3840  -14.6290   20.5800 O   0  0  0  0  0  0  0  0  0  0  0  0
  -22.4970  -12.0740   22.4000 H   0  0  0  0  0  0  0  0  0  0  0  0
  -21.1790  -13.1930   22.1970 H   0  0  0  0  0  0  0  0  0  0  0  0
  -25.4350  -15.2910   20.2470 N   0  0  0  0  0  0  0  0  0  0  0  0
  -24.6510  -15.9280   20.3350 H   0  0  0  0  0  0  0  0  0  0  0  0
  -26.2660  -15.7340   19.8770 H   0  0  0  0  0  0  0  0  0  0  0  0
  1  2  2  0
  3 48  1  0
  3  1  1  0
  4  5  2  0
  5  2  1  0
  6  4  2  0
  6  3  1  0
  7  4  1  0
  8 19  2  0
  9  7  1  0
  9 14  1  0
 10 18  1  0
 10 20  1  0
 11 17  1  0
 11 13  1  0
 12 18  1  0
 13 14  2  0
 13 12  1  0
 15 16  1  0
 15  9  2  0
 16 11  2  0
 17 10  1  0
 18  8  1  0
 20 22  2  0
 21 20  1  0
 23 21  1  0
 24 33  2  0
 24 29  1  0
 25 21  1  0
 25 29  1  0
 26 25  1  0
 27 28  1  0
 27 26  1  0
 28 24  1  0
 29 30  2  0
 30 31  1  0
 32 31  2  0
 33 32  1  0
 34  8  1  0
 34 35  1  0
 34 44  1  0
 35 38  1  0
 36 40  1  0
 36 35  1  0
 37 36  2  0
 40 39  1  0
 42 40  1  0
 42 43  1  0
 42 41  1  0
 44 47  1  1
 44 45  1  0
 46 44  1  0
 49 50  1  0
 49 52  1  0
 50 53  1  0
 52 63  1  0
 52 51  1  0
 53 48  1  0
 53 51  1  0
 53 54  1  6
 55 63  1  0
 56 61  1  0
 57 58  1  0
 57 56  1  0
 59 58  1  0
 59 68  1  0
 59 60  1  0
 61 55  1  0
 61 60  1  0
 62 55  2  0
 63 64  1  0
 65 66  2  0
 66 85  1  0
 67 66  1  0
 67 70  1  0
 68 65  1  0
 68 69  1  0
 69 67  2  0
 70 71  1  0
 71 72  2  0
 73 76  1  0
 73 72  1  0
 74 73  2  0
 75 74  1  0
 75 70  2  0
 76 77  1  0
 77 78  1  0
 78 79  2  0
 80 79  1  0
 80 84  1  0
 81 80  2  0
 82 77  2  0
 82 81  1  0
 83 82  1  0
 85 86  1  0
 86 89  1  0
 86 88  1  0
 87 85  2  0
 90 91  1  0
 90 65  1  0
 92 90  1  0
M  ISO  4   4 101   7 101  55 100  63 100
M  END
>  <TORSDO>  (30) 
F 18

>  <SCORE>  (30) 
-14.793

>  <name>  (30) 
29

>  <ligand_id>  (30) 
29

>  <original_smiles>  (30) 
[H]c1nc(Oc2c([H])c([H])c3c(c2[H])C([H])([H])N(C(=O)C([H])(N([H])C(=O)C([H])(N([H])C([H])([H])[H])C([H])([H])[H])C(C([H])([H])[H])(C([H])([H])[H])C([H])([H])[H])C([H])(C(=O)N([H])C2([H])c4c([H])c([H])c([H])c([H])c4C([H])([H])C([H])([H])C2([H])[H])C3([H])[H])nc(C([H])([H])[N+]2([H])C([H])([H])C([H])([H])C([H])(N([H])C(=O)N3C([H])([H])C([H])([H])C([H])([H])C([H])(n4nc(-c5c([H])c([H])c(Oc6c([H])c([H])c(F)c([H])c6F)c([H])c5[H])c(C(=O)N([H])[H])c4N([H])[H])C3([H])[H])C2([H])[H])c1[H]

>  <smiles>  (30) 
[H]c1nc(Oc2c([H])c([H])c3c(c2[H])C([H])([H])N(C(=O)C([H])(N([H])C(=O)C([H])(N([H])C([H])([H])[H])C([H])([H])[H])C(C([H])([H])[H])(C([H])([H])[H])C([H])([H])[H])C([H])(C(=O)N([H])C2([H])c4c([H])c([H])c([H])c([H])c4C([H])([H])C([H])([H])C2([H])[H])C3([H])[H])nc(C([H])([H])[N+]2([H])C([H])([H])C([H])([H])C([H])(N([H])C(=O)N3C([H])([H])C([H])([H])C([H])([H])C([H])(n4nc(-c5c([H])c([H])c(Oc6c([H])c([H])c(F)c([H])c6F)c([H])c5[H])c(C(=O)N([H])[H])c4N([H])[H])C3([H])[H])C2([H])[H])c1[H]

$$$$
30:0:0
     RDKit          3D

 95104  0  0  1  0  0  0  0  0999 V2000
  -31.6650  -19.1740   21.9550 C   0  0  0  0  0  0  0  0  0  0  0  0
  -30.0620  -18.3390   20.6640 C   0  0  0  0  0  0  0  0  0  0  0  0
  -30.2320  -20.5310   20.9510 C   0  0  0  0  0  0  0  0  0  0  0  0
  -32.9080  -18.9580   22.8000 C   0  0  0  0  0  1  0  0  0  0  0  0
  -31.0880  -18.0780   21.4710 N   0  0  0  0  0  4  0  0  0  0  0  0
  -31.2850  -20.4340   21.7420 N   0  0  0  0  0  0  0  0  0  0  0  0
  -29.5880  -19.5450   20.3610 N   0  0  0  0  0  2  0  0  0  0  0  0
  -29.7950  -21.8160   20.6940 N   0  0  0  0  0  0  0  0  0  0  0  0
  -30.2930  -22.5500   21.1770 H   0  0  0  0  0  0  0  0  0  0  0  0
  -27.9190  -17.3750   19.6520 C   0  0  0  0  0  1  0  0  0  0  0  0
  -29.4330  -17.1710   19.8940 C   0  0  0  0  0  3  0  0  0  0  0  0
  -30.4550  -14.9080   20.1440 C   0  0  0  0  0  0  0  0  0  0  0  0
  -30.3450  -12.6550   19.1600 C   0  0  0  0  0  2  0  0  0  0  0  0
  -29.3490  -12.7120   17.9810 C   0  0  0  0  0  2  0  0  0  0  0  0
  -27.9050  -12.4870   18.4710 C   0  0  0  0  0  2  0  0  0  0  0  0
  -27.5410  -13.3610   19.6970 C   0  0  0  0  0  3  0  0  0  0  0  0
  -28.6470  -13.2800   20.7780 C   0  0  0  0  0  2  0  0  0  0  0  0
  -29.9270  -13.6560   20.1540 N   0  0  0  0  0  0  0  0  0  0  0  0
  -31.5320  -15.1810   19.6050 O   0  0  0  0  0  0  0  0  0  0  0  0
  -29.5960  -15.8610   20.5350 N   0  0  0  0  0  0  0  0  0  0  0  0
  -28.8030  -15.5500   21.0720 H   0  0  0  0  0  0  0  0  0  0  0  0
  -25.1560  -13.8480   20.5440 C   0  0  0  0  0  0  0  0  0  0  0  0
  -24.1440  -13.0130   20.9410 C   0  0  0  0  0  0  0  0  0  0  0  0
  -24.6600  -11.6850   20.8350 C   0  0  0  0  0  0  0  0  0  0  0  0
  -26.2240  -13.0190   20.2290 N   0  0  0  0  0  0  0  0  0  0  0  0
  -25.9300  -11.7140   20.4560 N   0  0  0  0  0  0  0  0  0  0  0  0
  -23.9990  -10.3850   21.0140 C   0  0  0  0  0  0  0  0  0  0  0  0
  -24.4250   -9.4720   22.0040 C   0  0  0  0  0  3  0  0  0  0  0  0
  -23.7590   -8.2380   22.1700 C   0  0  0  0  0  3  0  0  0  0  0  0
  -22.6570   -7.9120   21.3450 C   0  0  0  0  0  0  0  0  0  0  0  0
  -22.2530   -8.8140   20.3460 C   0  0  0  0  0  3  0  0  0  0  0  0
  -22.9210  -10.0380   20.1770 C   0  0  0  0  0  3  0  0  0  0  0  0
  -21.9690   -6.7260   21.4140 O   0  0  0  0  0  0  0  0  0  0  0  0
  -21.7630   -6.0830   22.6100 C   0  0  0  0  0  0  0  0  0  0  0  0
  -21.0110   -6.6700   23.6500 C   0  0  0  0  0  3  0  0  0  0  0  0
  -20.7650   -5.9470   24.8330 C   0  0  0  0  0  3  0  0  0  0  0  0
  -21.2590   -4.6380   24.9770 C   0  0  0  0  0  0  0  0  0  0  0  0
  -22.0030   -4.0490   23.9390 C   0  0  0  0  0  3  0  0  0  0  0  0
  -22.2490   -4.7680   22.7580 C   0  0  0  0  0  0  0  0  0  0  0  0
  -22.9490   -4.1890   21.7530 F   0  0  0  0  0  0  0  0  0  0  0  0
  -21.0130   -3.9410   26.1110 F   0  0  0  0  0  0  0  0  0  0  0  0
  -22.7440  -13.4200   21.3060 C   0  0  0  0  0  0  0  0  0  0  0  0
  -22.0920  -12.6600   22.1810 N   0  0  0  0  0  0  0  0  0  0  0  0
  -22.2370  -14.4450   20.8550 O   0  0  0  0  0  0  0  0  0  0  0  0
  -22.5100  -11.8260   22.5650 H   0  0  0  0  0  0  0  0  0  0  0  0
  -21.1600  -12.9150   22.4700 H   0  0  0  0  0  0  0  0  0  0  0  0
  -25.2450  -15.2280   20.4060 N   0  0  0  0  0  0  0  0  0  0  0  0
  -24.4500  -15.8390   20.5590 H   0  0  0  0  0  0  0  0  0  0  0  0
  -26.0370  -15.7120   20.0060 H   0  0  0  0  0  0  0  0  0  0  0  0
  -28.5560  -22.1690   19.9960 C   0  0  0  0  0  2  0  0  0  0  0  0
  -27.5730  -24.0210   18.3730 C   0  0  0  0  0  2  0  0  0  0  0  0
  -28.6260  -23.5530   19.3610 C   0  0  0  0  0  3  0  0  0  0  0  0
  -27.6400  -24.6550   19.7350 C   0  0  0  0  0  3  0  0  0  0  0  0
  -28.1470  -26.0790   19.9670 C   0  0  0  0  0  2  0  0  0  0  0  0
  -27.6870  -27.0300   19.0130 O   0  0  0  0  0  0  0  0  0  0  0  0
  -24.5910  -31.9410   23.1830 C   0  0  0  0  0  0  0  0  0  0  0  0
  -26.5660  -27.7500   19.3500 C   0  0  0  0  0  0  0  0  0  0  0  0
  -23.1010  -30.7690   21.5910 C   0  0  0  0  0  3  0  0  0  0  0  0
  -24.2680  -29.3210   19.8460 C   0  0  0  0  0  0  0  0  0  0  0  0
  -25.5930  -31.0430   21.0890 C   0  0  0  0  0  2  0  0  0  0  0  0
  -25.5200  -29.7390   20.3200 C   0  0  0  0  0  0  0  0  0  0  0  0
  -26.6720  -28.9610   20.0680 C   0  0  0  0  0  3  0  0  0  0  0  0
  -25.3030  -27.3310   18.8880 C   0  0  0  0  0  3  0  0  0  0  0  0
  -24.1540  -28.1120   19.1350 C   0  0  0  0  0  3  0  0  0  0  0  0
  -23.0870  -30.2170   20.1400 C   0  0  0  0  0  2  0  0  0  0  0  0
  -24.4540  -31.2610   22.0100 N   0  0  0  0  0  0  0  0  0  0  0  0
  -23.6090  -32.1970   23.8920 O   0  0  0  0  0  0  0  0  0  0  0  0
  -22.5260  -29.6860   22.5290 C   0  0  0  0  0  0  0  0  0  0  0  0
  -21.2090  -29.4490   22.4350 N   0  0  0  0  0  0  0  0  0  0  0  0
  -23.2640  -29.0580   23.2950 O   0  0  0  0  0  0  0  0  0  0  0  0
  -20.6750  -30.0050   21.7820 H   0  0  0  0  0  0  0  0  0  0  0  0
  -17.9340  -27.9790   22.8600 C   0  0  0  0  0  0  0  0  0  0  0  0
  -20.4550  -28.4470   23.1890 C   0  0  0  0  0  3  0  0  0  0  0  0
  -20.6890  -27.0300   22.6140 C   0  0  0  0  0  2  0  0  0  0  0  0
  -19.6410  -26.6180   21.5780 C   0  0  0  0  0  2  0  0  0  0  0  0
  -18.2360  -26.6500   22.1890 C   0  0  0  0  0  2  0  0  0  0  0  0
  -18.9760  -28.8300   23.3150 C   0  0  0  0  0  0  0  0  0  0  0  0
  -18.6420  -30.0720   23.8990 C   0  0  0  0  0  3  0  0  0  0  0  0
  -17.2970  -30.4650   24.0320 C   0  0  0  0  0  3  0  0  0  0  0  0
  -16.2680  -29.6110   23.5970 C   0  0  0  0  0  3  0  0  0  0  0  0
  -16.5880  -28.3710   23.0160 C   0  0  0  0  0  3  0  0  0  0  0  0
  -25.9840  -32.4460   23.6810 C   0  0  0  0  0  3  0  0  0  0  0  0
  -26.5630  -31.5960   24.8780 C   0  0  1  0  0  0  0  0  0  0  0  0
  -25.5550  -31.3730   26.0310 C   0  0  0  0  0  1  0  0  0  0  0  0
  -27.0270  -30.2080   24.3830 C   0  0  0  0  0  1  0  0  0  0  0  0
  -27.8140  -32.2970   25.4610 C   0  0  0  0  0  1  0  0  0  0  0  0
  -25.8300  -33.8520   24.0740 N   0  0  0  0  0  0  0  0  0  0  0  0
  -26.1910  -34.8960   23.3170 C   0  0  0  0  0  0  0  0  0  0  0  0
  -26.7640  -34.7740   22.2310 O   0  0  0  0  0  0  0  0  0  0  0  0
  -25.3270  -34.0300   24.9310 H   0  0  0  0  0  0  0  0  0  0  0  0
  -24.6080  -36.8410   23.1440 C   0  0  0  0  0  1  0  0  0  0  0  0
  -25.8630  -36.3030   23.8500 C   0  0  0  0  0  3  0  0  0  0  0  0
  -28.1140  -36.9760   24.5600 C   0  0  0  0  0  1  0  0  0  0  0  0
  -26.9730  -37.2680   23.6950 N   0  0  0  0  0  0  0  0  0  0  0  0
  -26.6570  -38.2130   23.8960 H   0  0  0  0  0  0  0  0  0  0  0  0
  1  4  1  0
  2  5  2  0
  3  6  2  0
  5  1  2  0
  6  1  1  0
  7  2  1  0
  7  3  1  0
  8  3  1  0
  8  9  1  0
 11 10  1  0
 11 20  1  0
 11  2  1  0
 12 18  1  0
 12 20  1  0
 13 18  1  0
 14 15  1  0
 14 13  1  0
 16 15  1  0
 16 25  1  0
 16 17  1  0
 18 17  1  0
 19 12  2  0
 20 21  1  0
 22 23  2  0
 23 42  1  0
 24 23  1  0
 24 27  1  0
 25 26  1  0
 25 22  1  0
 26 24  2  0
 27 28  1  0
 28 29  2  0
 30 33  1  0
 30 29  1  0
 31 30  2  0
 32 31  1  0
 32 27  2  0
 33 34  1  0
 34 39  2  0
 34 35  1  0
 35 36  2  0
 36 37  1  0
 37 41  1  0
 38 37  2  0
 39 38  1  0
 40 39  1  0
 42 43  1  0
 43 46  1  0
 43 45  1  0
 44 42  2  0
 47 22  1  0
 47 48  1  0
 49 47  1  0
 50  8  1  0
 51 52  1  0
 51 53  1  0
 52 53  1  0
 52 50  1  0
 53 54  1  0
 55 57  1  0
 55 54  1  0
 56 67  2  0
 57 62  1  0
 58 66  1  0
 58 68  1  0
 59 65  1  0
 59 61  1  0
 60 66  1  0
 61 60  1  0
 62 61  2  0
 63 64  1  0
 63 57  2  0
 64 59  2  0
 65 58  1  0
 66 56  1  0
 68 70  2  0
 69 68  1  0
 71 69  1  0
 72 81  2  0
 72 77  1  0
 73 69  1  0
 73 77  1  0
 74 73  1  0
 75 76  1  0
 75 74  1  0
 76 72  1  0
 77 78  2  0
 78 79  1  0
 80 79  2  0
 81 80  1  0
 82 56  1  0
 82 87  1  0
 82 83  1  0
 83 86  1  1
 83 84  1  0
 85 83  1  0
 87 90  1  0
 88 92  1  0
 88 87  1  0
 89 88  2  0
 92 91  1  0
 94 92  1  0
 94 95  1  0
 94 93  1  0
M  ISO  4  12 100  20 100  54 101  55 101
M  END
>  <TORSDO>  (31) 
F 20

>  <SCORE>  (31) 
-12.316

>  <name>  (31) 
30

>  <ligand_id>  (31) 
30

>  <original_smiles>  (31) 
[H]c1c([H])c([H])c2c(c1[H])C([H])([H])C([H])([H])C([H])([H])C2([H])N([H])C(=O)C1([H])N(C(=O)C([H])(N([H])C(=O)C([H])(N([H])C([H])([H])[H])C([H])([H])[H])C(C([H])([H])[H])(C([H])([H])[H])C([H])([H])[H])C([H])([H])c2c([H])c(OC([H])([H])C3([H])C([H])([H])C3([H])C([H])([H])N([H])c3nc(C([H])([H])[H])nc(C([H])(N([H])C(=O)N4C([H])([H])C([H])([H])C([H])([H])C([H])(n5nc(-c6c([H])c([H])c(Oc7c([H])c([H])c(F)c([H])c7F)c([H])c6[H])c(C(=O)N([H])[H])c5N([H])[H])C4([H])[H])C([H])([H])[H])n3)c([H])c([H])c2C1([H])[H]

>  <smiles>  (31) 
[H]c1c([H])c([H])c2c(c1[H])C([H])([H])C([H])([H])C([H])([H])C2([H])N([H])C(=O)C1([H])N(C(=O)C([H])(N([H])C(=O)C([H])(N([H])C([H])([H])[H])C([H])([H])[H])C(C([H])([H])[H])(C([H])([H])[H])C([H])([H])[H])C([H])([H])c2c([H])c(OC([H])([H])C3([H])C([H])([H])C3([H])C([H])([H])N([H])c3nc(C([H])([H])[H])nc(C([H])(N([H])C(=O)N4C([H])([H])C([H])([H])C([H])([H])C([H])(n5nc(-c6c([H])c([H])c(Oc7c([H])c([H])c(F)c([H])c7F)c([H])c6[H])c(C(=O)N([H])[H])c5N([H])[H])C4([H])[H])C([H])([H])[H])n3)c([H])c([H])c2C1([H])[H]

$$$$
31:0:0
     RDKit          3D

 92101  0  0  1  0  0  0  0  0999 V2000
  -30.7850  -23.1540   20.2320 C   0  0  0  0  0  3  0  0  0  0  0  0
  -31.1290  -20.9170   20.6690 C   0  0  0  0  0  3  0  0  0  0  0  0
  -29.3900  -22.9430   20.1400 C   0  0  0  0  0  0  0  0  0  0  0  0
  -29.7350  -20.6620   20.5840 C   0  0  0  0  0  0  0  0  0  0  0  0
  -31.6560  -22.1540   20.5010 N   0  0  0  0  0  0  0  0  0  0  0  0
  -28.8610  -21.6880   20.3320 N   0  0  0  0  0  0  0  0  0  0  0  0
  -29.2010  -19.3660   20.7840 N   0  0  0  0  0  0  0  0  0  0  0  0
  -28.1880  -19.3320   20.7360 H   0  0  0  0  0  0  0  0  0  0  0  0
  -30.6350  -14.5880   20.4490 C   0  0  0  0  0  0  0  0  0  0  0  0
  -30.3930  -12.3540   19.4390 C   0  0  0  0  0  2  0  0  0  0  0  0
  -29.4710  -12.4930   18.2100 C   0  0  0  0  0  2  0  0  0  0  0  0
  -27.9880  -12.3670   18.6210 C   0  0  0  0  0  2  0  0  0  0  0  0
  -27.6180  -13.2380   19.8540 C   0  0  0  0  0  3  0  0  0  0  0  0
  -28.6660  -13.1070   20.9800 C   0  0  0  0  0  2  0  0  0  0  0  0
  -29.9840  -13.3910   20.3980 N   0  0  0  0  0  0  0  0  0  0  0  0
  -31.8470  -14.6860   20.2430 O   0  0  0  0  0  0  0  0  0  0  0  0
  -29.2380  -17.6540   18.9880 C   0  0  0  0  0  2  0  0  0  0  0  0
  -29.6670  -16.1880   18.9120 C   0  0  0  0  0  2  0  0  0  0  0  0
  -29.8810  -16.8930   21.1610 C   0  0  0  0  0  2  0  0  0  0  0  0
  -29.8930  -18.1650   20.2590 C   0  0  0  0  0  3  0  0  0  0  0  0
  -29.8380  -15.6890   20.2890 N   0  0  0  0  0  0  0  0  0  0  0  0
  -25.2180  -13.8510   20.5310 C   0  0  0  0  0  0  0  0  0  0  0  0
  -24.1430  -13.0830   20.8890 C   0  0  0  0  0  0  0  0  0  0  0  0
  -24.6060  -11.7320   20.8830 C   0  0  0  0  0  0  0  0  0  0  0  0
  -26.2640  -12.9660   20.3260 N   0  0  0  0  0  0  0  0  0  0  0  0
  -25.9010  -11.6880   20.5980 N   0  0  0  0  0  0  0  0  0  0  0  0
  -23.8760  -10.4710   21.0720 C   0  0  0  0  0  0  0  0  0  0  0  0
  -24.3110   -9.5010   22.0030 C   0  0  0  0  0  3  0  0  0  0  0  0
  -23.5840   -8.3050   22.1810 C   0  0  0  0  0  3  0  0  0  0  0  0
  -22.4080   -8.0700   21.4300 C   0  0  0  0  0  0  0  0  0  0  0  0
  -21.9930   -9.0300   20.4890 C   0  0  0  0  0  3  0  0  0  0  0  0
  -22.7210  -10.2170   20.3080 C   0  0  0  0  0  3  0  0  0  0  0  0
  -21.6510   -6.9270   21.5190 O   0  0  0  0  0  0  0  0  0  0  0  0
  -21.6230   -6.1700   22.6620 C   0  0  0  0  0  0  0  0  0  0  0  0
  -21.2430   -6.7150   23.9080 C   0  0  0  0  0  3  0  0  0  0  0  0
  -21.1610   -5.8860   25.0440 C   0  0  0  0  0  3  0  0  0  0  0  0
  -21.4470   -4.5120   24.9360 C   0  0  0  0  0  0  0  0  0  0  0  0
  -21.8200   -3.9660   23.6940 C   0  0  0  0  0  3  0  0  0  0  0  0
  -21.9040   -4.7930   22.5600 C   0  0  0  0  0  0  0  0  0  0  0  0
  -22.2440   -4.2570   21.3630 F   0  0  0  0  0  0  0  0  0  0  0  0
  -21.3610   -3.7120   26.0240 F   0  0  0  0  0  0  0  0  0  0  0  0
  -22.7420  -13.5640   21.1310 C   0  0  0  0  0  0  0  0  0  0  0  0
  -21.9990  -12.8790   21.9930 N   0  0  0  0  0  0  0  0  0  0  0  0
  -22.3130  -14.5820   20.5900 O   0  0  0  0  0  0  0  0  0  0  0  0
  -22.3570  -12.0560   22.4540 H   0  0  0  0  0  0  0  0  0  0  0  0
  -21.0570  -13.1840   22.1960 H   0  0  0  0  0  0  0  0  0  0  0  0
  -25.3870  -15.2200   20.3430 N   0  0  0  0  0  0  0  0  0  0  0  0
  -24.6230  -15.8800   20.4410 H   0  0  0  0  0  0  0  0  0  0  0  0
  -26.2560  -15.6570   20.0620 H   0  0  0  0  0  0  0  0  0  0  0  0
  -28.4880  -24.1290   19.7140 C   0  0  0  0  0  2  0  0  0  0  0  0
  -28.3820  -25.3290   20.7130 C   0  0  0  0  0  2  0  0  0  0  0  0
  -28.3890  -26.6580   20.1250 O   0  0  0  0  0  0  0  0  0  0  0  0
  -24.6110  -31.8860   23.2310 C   0  0  0  0  0  0  0  0  0  0  0  0
  -27.2210  -27.3990   20.1590 C   0  0  0  0  0  0  0  0  0  0  0  0
  -23.3910  -30.4810   21.6020 C   0  0  0  0  0  3  0  0  0  0  0  0
  -24.8310  -28.9290   20.1740 C   0  0  0  0  0  0  0  0  0  0  0  0
  -25.9160  -30.8310   21.3800 C   0  0  0  0  0  2  0  0  0  0  0  0
  -25.9970  -29.4530   20.7470 C   0  0  0  0  0  0  0  0  0  0  0  0
  -27.1970  -28.6990   20.7250 C   0  0  0  0  0  3  0  0  0  0  0  0
  -26.0360  -26.8930   19.5850 C   0  0  0  0  0  3  0  0  0  0  0  0
  -24.8480  -27.6500   19.5870 C   0  0  0  0  0  3  0  0  0  0  0  0
  -23.5890  -29.7930   20.2240 C   0  0  0  0  0  2  0  0  0  0  0  0
  -24.6580  -31.0820   22.1290 N   0  0  0  0  0  0  0  0  0  0  0  0
  -23.5340  -32.1600   23.7790 O   0  0  0  0  0  0  0  0  0  0  0  0
  -22.7440  -29.4660   22.5730 C   0  0  0  0  0  0  0  0  0  0  0  0
  -21.4180  -29.2850   22.4570 N   0  0  0  0  0  0  0  0  0  0  0  0
  -23.4320  -28.8420   23.3850 O   0  0  0  0  0  0  0  0  0  0  0  0
  -20.9240  -29.8410   21.7740 H   0  0  0  0  0  0  0  0  0  0  0  0
  -18.0490  -28.0800   22.9720 C   0  0  0  0  0  0  0  0  0  0  0  0
  -20.6070  -28.3490   23.2350 C   0  0  0  0  0  3  0  0  0  0  0  0
  -20.7130  -26.9140   22.6670 C   0  0  0  0  0  2  0  0  0  0  0  0
  -19.6100  -26.5820   21.6580 C   0  0  0  0  0  2  0  0  0  0  0  0
  -18.2290  -26.7280   22.3040 C   0  0  0  0  0  2  0  0  0  0  0  0
  -19.1670  -28.8480   23.3940 C   0  0  0  0  0  0  0  0  0  0  0  0
  -18.9460  -30.1150   23.9770 C   0  0  0  0  0  3  0  0  0  0  0  0
  -17.6400  -30.6140   24.1440 C   0  0  0  0  0  3  0  0  0  0  0  0
  -16.5370  -29.8420   23.7360 C   0  0  0  0  0  3  0  0  0  0  0  0
  -16.7420  -28.5780   23.1550 C   0  0  0  0  0  3  0  0  0  0  0  0
  -25.9010  -32.5180   23.8400 C   0  0  0  0  0  3  0  0  0  0  0  0
  -25.5920  -33.9140   24.1800 N   0  0  0  0  0  0  0  0  0  0  0  0
  -25.9180  -34.9710   23.4230 C   0  0  0  0  0  0  0  0  0  0  0  0
  -26.5790  -34.8720   22.3860 O   0  0  0  0  0  0  0  0  0  0  0  0
  -25.0030  -34.0630   24.9860 H   0  0  0  0  0  0  0  0  0  0  0  0
  -24.1830  -36.7620   23.0940 C   0  0  0  0  0  1  0  0  0  0  0  0
  -25.4320  -36.3560   23.8920 C   0  0  0  0  0  3  0  0  0  0  0  0
  -27.5760  -37.2380   24.7020 C   0  0  0  0  0  1  0  0  0  0  0  0
  -26.4620  -37.4100   23.7730 N   0  0  0  0  0  0  0  0  0  0  0  0
  -26.0570  -38.3290   23.9300 H   0  0  0  0  0  0  0  0  0  0  0  0
  -26.4370  -31.7420   25.1050 C   0  0  1  0  0  0  0  0  0  0  0  0
  -25.3610  -31.4990   26.1880 C   0  0  0  0  0  1  0  0  0  0  0  0
  -27.0150  -30.3660   24.6950 C   0  0  0  0  0  1  0  0  0  0  0  0
  -27.5960  -32.5350   25.7540 C   0  0  0  0  0  1  0  0  0  0  0  0
  1  5  1  0
  3  1  2  0
  3  6  1  0
  4  2  1  0
  4  7  1  0
  5  2  2  0
  6  4  2  0
  8  7  1  0
 10 15  1  0
 11 12  1  0
 11 10  1  0
 13 12  1  0
 13 25  1  0
 13 14  1  0
 15  9  1  0
 15 14  1  0
 16  9  2  0
 17 20  1  0
 18 17  1  0
 18 21  1  0
 20  7  1  0
 20 19  1  0
 21  9  1  0
 21 19  1  0
 22 23  2  0
 23 42  1  0
 24 23  1  0
 24 27  1  0
 25 22  1  0
 25 26  1  0
 26 24  2  0
 27 28  1  0
 28 29  2  0
 30 33  1  0
 30 29  1  0
 31 30  2  0
 32 31  1  0
 32 27  2  0
 33 34  1  0
 34 35  1  0
 35 36  2  0
 37 36  1  0
 37 41  1  0
 38 37  2  0
 39 34  2  0
 39 38  1  0
 40 39  1  0
 42 43  1  0
 43 46  1  0
 43 45  1  0
 44 42  2  0
 47 48  1  0
 47 22  1  0
 49 47  1  0
 50  3  1  0
 50 51  1  0
 52 54  1  0
 52 51  1  0
 53 64  2  0
 54 59  1  0
 55 63  1  0
 55 65  1  0
 56 62  1  0
 56 58  1  0
 57 63  1  0
 58 57  1  0
 59 58  2  0
 60 61  1  0
 60 54  2  0
 61 56  2  0
 62 55  1  0
 63 53  1  0
 65 67  2  0
 66 65  1  0
 68 66  1  0
 69 78  2  0
 69 74  1  0
 70 66  1  0
 70 74  1  0
 71 70  1  0
 72 73  1  0
 72 71  1  0
 73 69  1  0
 74 75  2  0
 75 76  1  0
 77 76  2  0
 78 77  1  0
 79 53  1  0
 79 80  1  0
 79 89  1  0
 80 83  1  0
 81 85  1  0
 81 80  1  0
 82 81  2  0
 85 84  1  0
 87 85  1  0
 87 88  1  0
 87 86  1  0
 89 92  1  1
 89 90  1  0
 91 89  1  0
M  ISO  4   9 100  21 100  51 101  52 101
M  END
>  <TORSDO>  (32) 
F 18

>  <SCORE>  (32) 
-14.810

>  <name>  (32) 
31

>  <ligand_id>  (32) 
31

>  <original_smiles>  (32) 
[H]c1nc([H])c(C([H])([H])C([H])([H])Oc2c([H])c([H])c3c(c2[H])C([H])([H])N(C(=O)C([H])(N([H])C(=O)C([H])(N([H])C([H])([H])[H])C([H])([H])[H])C(C([H])([H])[H])(C([H])([H])[H])C([H])([H])[H])C([H])(C(=O)N([H])C2([H])c4c([H])c([H])c([H])c([H])c4C([H])([H])C([H])([H])C2([H])[H])C3([H])[H])nc1N([H])C1([H])C([H])([H])N(C(=O)N2C([H])([H])C([H])([H])C([H])([H])C([H])(n3nc(-c4c([H])c([H])c(Oc5c([H])c([H])c(F)c([H])c5F)c([H])c4[H])c(C(=O)N([H])[H])c3N([H])[H])C2([H])[H])C([H])([H])C1([H])[H]

>  <smiles>  (32) 
[H]c1nc([H])c(C([H])([H])C([H])([H])Oc2c([H])c([H])c3c(c2[H])C([H])([H])N(C(=O)C([H])(N([H])C(=O)C([H])(N([H])C([H])([H])[H])C([H])([H])[H])C(C([H])([H])[H])(C([H])([H])[H])C([H])([H])[H])C([H])(C(=O)N([H])C2([H])c4c([H])c([H])c([H])c([H])c4C([H])([H])C([H])([H])C2([H])[H])C3([H])[H])nc1N([H])C1([H])C([H])([H])N(C(=O)N2C([H])([H])C([H])([H])C([H])([H])C([H])(n3nc(-c4c([H])c([H])c(Oc5c([H])c([H])c(F)c([H])c5F)c([H])c4[H])c(C(=O)N([H])[H])c3N([H])[H])C2([H])[H])C([H])([H])C1([H])[H]

$$$$
32:0:0
     RDKit          3D

 96106  0  0  1  0  0  0  0  0999 V2000
  -28.2910  -21.9270   22.0950 C   0  0  0  0  0  2  0  0  0  0  0  0
  -30.9690  -19.4620   21.5650 C   0  0  0  0  0  3  0  0  0  0  0  0
  -29.7370  -18.8580   21.2080 C   0  0  0  0  0  0  0  0  0  0  0  0
  -30.6470  -20.7410   21.9370 C   0  0  0  0  0  0  0  0  0  0  0  0
  -28.7440  -19.7320   21.2660 N   0  0  0  0  0  0  0  0  0  0  0  0
  -29.2740  -20.8900   21.7380 N   0  0  0  0  0  0  0  0  0  0  0  0
  -30.7760  -14.4900   19.8640 C   0  0  0  0  0  0  0  0  0  0  0  0
  -30.4030  -12.3100   18.7880 C   0  0  0  0  0  2  0  0  0  0  0  0
  -29.3750  -12.5100   17.6560 C   0  0  0  0  0  2  0  0  0  0  0  0
  -27.9340  -12.3950   18.1980 C   0  0  0  0  0  2  0  0  0  0  0  0
  -27.6960  -13.2540   19.4720 C   0  0  0  0  0  3  0  0  0  0  0  0
  -28.8290  -13.0290   20.4990 C   0  0  0  0  0  2  0  0  0  0  0  0
  -30.1090  -13.3070   19.8240 N   0  0  0  0  0  0  0  0  0  0  0  0
  -31.8760  -14.6690   19.3330 O   0  0  0  0  0  0  0  0  0  0  0  0
  -30.0210  -16.8260   19.5330 C   0  0  0  0  0  2  0  0  0  0  0  0
  -30.1640  -16.2510   21.5060 C   0  0  0  0  0  2  0  0  0  0  0  0
  -29.4650  -17.4230   20.8190 C   0  0  0  0  0  3  0  0  0  0  0  0
  -30.0070  -15.5310   20.2340 N   0  0  0  0  0  0  0  0  0  0  0  0
  -25.3860  -13.9050   20.4050 C   0  0  0  0  0  0  0  0  0  0  0  0
  -24.3280  -13.1480   20.8340 C   0  0  0  0  0  0  0  0  0  0  0  0
  -24.7390  -11.7850   20.7080 C   0  0  0  0  0  0  0  0  0  0  0  0
  -26.3790  -13.0020   20.0520 N   0  0  0  0  0  0  0  0  0  0  0  0
  -25.9970  -11.7210   20.2900 N   0  0  0  0  0  0  0  0  0  0  0  0
  -23.9910  -10.5380   20.9110 C   0  0  0  0  0  0  0  0  0  0  0  0
  -24.4260   -9.5590   21.8320 C   0  0  0  0  0  3  0  0  0  0  0  0
  -23.6810   -8.3750   22.0230 C   0  0  0  0  0  3  0  0  0  0  0  0
  -22.4880   -8.1590   21.2910 C   0  0  0  0  0  0  0  0  0  0  0  0
  -22.0720   -9.1270   20.3610 C   0  0  0  0  0  3  0  0  0  0  0  0
  -22.8180  -10.3040   20.1690 C   0  0  0  0  0  3  0  0  0  0  0  0
  -21.7140   -7.0280   21.3920 O   0  0  0  0  0  0  0  0  0  0  0  0
  -21.6250   -6.3200   22.5650 C   0  0  0  0  0  0  0  0  0  0  0  0
  -21.1690   -6.9160   23.7600 C   0  0  0  0  0  3  0  0  0  0  0  0
  -21.0230   -6.1340   24.9250 C   0  0  0  0  0  3  0  0  0  0  0  0
  -21.3240   -4.7600   24.8930 C   0  0  0  0  0  0  0  0  0  0  0  0
  -21.7710   -4.1640   23.7010 C   0  0  0  0  0  3  0  0  0  0  0  0
  -21.9180   -4.9420   22.5400 C   0  0  0  0  0  0  0  0  0  0  0  0
  -22.3290   -4.3580   21.3890 F   0  0  0  0  0  0  0  0  0  0  0  0
  -21.1750   -4.0080   26.0080 F   0  0  0  0  0  0  0  0  0  0  0  0
  -22.9750  -13.6520   21.2450 C   0  0  0  0  0  0  0  0  0  0  0  0
  -22.3050  -12.9480   22.1520 N   0  0  0  0  0  0  0  0  0  0  0  0
  -22.5210  -14.7050   20.7990 O   0  0  0  0  0  0  0  0  0  0  0  0
  -22.6820  -12.0950   22.5360 H   0  0  0  0  0  0  0  0  0  0  0  0
  -21.4000  -13.2670   22.4690 H   0  0  0  0  0  0  0  0  0  0  0  0
  -25.5800  -15.2760   20.2660 N   0  0  0  0  0  0  0  0  0  0  0  0
  -24.8520  -15.9520   20.4730 H   0  0  0  0  0  0  0  0  0  0  0  0
  -26.4250  -15.6980   19.9030 H   0  0  0  0  0  0  0  0  0  0  0  0
  -32.8840  -21.3980   23.1360 C   0  0  0  0  0  2  0  0  0  0  0  0
  -31.7570  -21.9490   23.9780 C   0  0  0  0  0  2  0  0  0  0  0  0
  -31.5710  -21.7830   22.4870 C   0  0  0  0  0  3  0  0  0  0  0  0
  -28.7460  -23.3650   22.4570 C   0  0  0  0  0  2  0  0  0  0  0  0
  -28.9370  -24.2930   21.3110 N   0  0  0  0  0  4  0  0  0  0  0  0
  -28.1360  -24.2220   20.6990 H   0  0  0  0  0  0  0  0  0  0  0  0
  -29.7490  -24.0160   20.7800 H   0  0  0  0  0  0  0  0  0  0  0  0
  -29.0630  -25.7160   21.7410 C   0  0  0  0  0  2  0  0  0  0  0  0
  -29.4720  -26.6800   20.6070 C   0  0  0  0  0  2  0  0  0  0  0  0
  -28.4740  -26.7310   19.5940 O   0  0  0  0  0  0  0  0  0  0  0  0
  -24.6190  -31.7070   23.0810 C   0  0  0  0  0  0  0  0  0  0  0  0
  -27.3290  -27.4770   19.7750 C   0  0  0  0  0  0  0  0  0  0  0  0
  -23.4160  -30.3360   21.4080 C   0  0  0  0  0  3  0  0  0  0  0  0
  -24.8850  -28.8940   19.9020 C   0  0  0  0  0  0  0  0  0  0  0  0
  -25.9240  -30.7770   21.1770 C   0  0  0  0  0  2  0  0  0  0  0  0
  -26.0370  -29.4290   20.4940 C   0  0  0  0  0  0  0  0  0  0  0  0
  -27.2610  -28.7260   20.4390 C   0  0  0  0  0  3  0  0  0  0  0  0
  -26.1610  -26.9600   19.1810 C   0  0  0  0  0  3  0  0  0  0  0  0
  -24.9380  -27.6520   19.2490 C   0  0  0  0  0  3  0  0  0  0  0  0
  -23.6170  -29.7120   20.0010 C   0  0  0  0  0  2  0  0  0  0  0  0
  -24.6700  -30.9550   21.9480 N   0  0  0  0  0  0  0  0  0  0  0  0
  -23.5430  -31.9280   23.6550 O   0  0  0  0  0  0  0  0  0  0  0  0
  -22.8180  -29.2590   22.3420 C   0  0  0  0  0  0  0  0  0  0  0  0
  -21.4990  -29.0320   22.2230 N   0  0  0  0  0  0  0  0  0  0  0  0
  -23.5340  -28.6320   23.1260 O   0  0  0  0  0  0  0  0  0  0  0  0
  -20.9820  -29.5920   21.5610 H   0  0  0  0  0  0  0  0  0  0  0  0
  -18.1790  -27.6950   22.7030 C   0  0  0  0  0  0  0  0  0  0  0  0
  -20.7250  -28.0420   22.9730 C   0  0  0  0  0  3  0  0  0  0  0  0
  -20.8800  -26.6350   22.3510 C   0  0  0  0  0  2  0  0  0  0  0  0
  -19.7850  -26.3000   21.3340 C   0  0  0  0  0  2  0  0  0  0  0  0
  -18.4030  -26.3740   21.9890 C   0  0  0  0  0  2  0  0  0  0  0  0
  -19.2690  -28.4870   23.1510 C   0  0  0  0  0  0  0  0  0  0  0  0
  -19.0070  -29.7240   23.7770 C   0  0  0  0  0  3  0  0  0  0  0  0
  -17.6840  -30.1680   23.9650 C   0  0  0  0  0  3  0  0  0  0  0  0
  -16.6090  -29.3730   23.5340 C   0  0  0  0  0  3  0  0  0  0  0  0
  -16.8560  -28.1400   22.9080 C   0  0  0  0  0  3  0  0  0  0  0  0
  -25.9030  -32.3480   23.6980 C   0  0  0  0  0  3  0  0  0  0  0  0
  -25.5670  -33.7280   24.0730 N   0  0  0  0  0  0  0  0  0  0  0  0
  -25.8790  -34.8090   23.3450 C   0  0  0  0  0  0  0  0  0  0  0  0
  -26.5480  -34.7510   22.3100 O   0  0  0  0  0  0  0  0  0  0  0  0
  -24.9690  -33.8450   24.8780 H   0  0  0  0  0  0  0  0  0  0  0  0
  -24.1290  -36.5870   23.0330 C   0  0  0  0  0  1  0  0  0  0  0  0
  -25.3650  -36.1720   23.8440 C   0  0  0  0  0  3  0  0  0  0  0  0
  -27.4770  -37.0600   24.7290 C   0  0  0  0  0  1  0  0  0  0  0  0
  -26.3840  -37.2430   23.7780 N   0  0  0  0  0  0  0  0  0  0  0  0
  -25.9600  -38.1520   23.9500 H   0  0  0  0  0  0  0  0  0  0  0  0
  -26.4620  -31.5510   24.9380 C   0  0  1  0  0  0  0  0  0  0  0  0
  -25.3960  -31.2610   26.0220 C   0  0  0  0  0  1  0  0  0  0  0  0
  -27.0670  -30.2000   24.4900 C   0  0  0  0  0  1  0  0  0  0  0  0
  -27.6090  -32.3530   25.5990 C   0  0  0  0  0  1  0  0  0  0  0  0
  1 50  1  0
  2  4  2  0
  3  5  2  0
  3  2  1  0
  4 49  1  0
  5  6  1  0
  6  4  1  0
  6  1  1  0
  7 18  1  0
  8 13  1  0
  9 10  1  0
  9  8  1  0
 11 10  1  0
 11 22  1  0
 11 12  1  0
 13  7  1  0
 13 12  1  0
 14  7  2  0
 15 18  1  0
 15 17  1  0
 17  3  1  0
 17 16  1  0
 18 16  1  0
 19 20  2  0
 20 39  1  0
 21 20  1  0
 21 24  1  0
 22 23  1  0
 22 19  1  0
 23 21  2  0
 24 25  1  0
 25 26  2  0
 27 30  1  0
 27 26  1  0
 28 27  2  0
 29 28  1  0
 29 24  2  0
 30 31  1  0
 31 32  1  0
 32 33  2  0
 34 33  1  0
 34 38  1  0
 35 34  2  0
 36 31  2  0
 36 35  1  0
 37 36  1  0
 39 40  1  0
 40 43  1  0
 40 42  1  0
 41 39  2  0
 44 19  1  0
 44 45  1  0
 46 44  1  0
 47 48  1  0
 49 47  1  0
 49 48  1  0
 51 54  1  0
 51 50  1  0
 52 51  1  0
 53 51  1  0
 55 54  1  0
 56 58  1  0
 56 55  1  0
 57 68  2  0
 58 63  1  0
 59 67  1  0
 59 69  1  0
 60 66  1  0
 60 62  1  0
 61 67  1  0
 62 61  1  0
 63 62  2  0
 64 65  1  0
 64 58  2  0
 65 60  2  0
 66 59  1  0
 67 57  1  0
 69 71  2  0
 70 69  1  0
 72 70  1  0
 73 82  2  0
 73 78  1  0
 74 70  1  0
 74 78  1  0
 75 74  1  0
 76 77  1  0
 76 75  1  0
 77 73  1  0
 78 79  2  0
 79 80  1  0
 81 80  2  0
 82 81  1  0
 83 57  1  0
 83 84  1  0
 83 93  1  0
 84 87  1  0
 85 89  1  0
 85 84  1  0
 86 85  2  0
 89 88  1  0
 91 89  1  0
 91 92  1  0
 91 90  1  0
 93 96  1  1
 93 94  1  0
 95 93  1  0
M  ISO  4   7 100  18 100  55 101  56 101
M  END
>  <TORSDO>  (33) 
F 22

>  <SCORE>  (33) 
-11.302

>  <name>  (33) 
32

>  <ligand_id>  (33) 
32

>  <original_smiles>  (33) 
[H]c1c([H])c([H])c2c(c1[H])C([H])([H])C([H])([H])C([H])([H])C2([H])N([H])C(=O)C1([H])N(C(=O)C([H])(N([H])C(=O)C([H])(N([H])C([H])([H])[H])C([H])([H])[H])C(C([H])([H])[H])(C([H])([H])[H])C([H])([H])[H])C([H])([H])c2c([H])c(OC([H])([H])C([H])([H])[N+]([H])([H])C([H])([H])C([H])([H])n3nc(C4([H])C([H])([H])N(C(=O)N5C([H])([H])C([H])([H])C([H])([H])C([H])(n6nc(-c7c([H])c([H])c(Oc8c([H])c([H])c(F)c([H])c8F)c([H])c7[H])c(C(=O)N([H])[H])c6N([H])[H])C5([H])[H])C4([H])[H])c([H])c3C3([H])C([H])([H])C3([H])[H])c([H])c([H])c2C1([H])[H]

>  <smiles>  (33) 
[H]c1c([H])c([H])c2c(c1[H])C([H])([H])C([H])([H])C([H])([H])C2([H])N([H])C(=O)C1([H])N(C(=O)C([H])(N([H])C(=O)C([H])(N([H])C([H])([H])[H])C([H])([H])[H])C(C([H])([H])[H])(C([H])([H])[H])C([H])([H])[H])C([H])([H])c2c([H])c(OC([H])([H])C([H])([H])[N+]([H])([H])C([H])([H])C([H])([H])n3nc(C4([H])C([H])([H])N(C(=O)N5C([H])([H])C([H])([H])C([H])([H])C([H])(n6nc(-c7c([H])c([H])c(Oc8c([H])c([H])c(F)c([H])c8F)c([H])c7[H])c(C(=O)N([H])[H])c6N([H])[H])C5([H])[H])C4([H])[H])c([H])c3C3([H])C([H])([H])C3([H])[H])c([H])c([H])c2C1([H])[H]

$$$$
33:0:0
     RDKit          3D

 94103  0  0  1  0  0  0  0  0999 V2000
  -30.3840  -20.4370   20.1340 C   0  0  0  0  0  2  0  0  0  0  0  0
  -30.6440  -14.6030   20.4750 C   0  0  0  0  0  0  0  0  0  0  0  0
  -30.3820  -12.4150   19.3340 C   0  0  0  0  0  2  0  0  0  0  0  0
  -29.4400  -12.6110   18.1260 C   0  0  0  0  0  2  0  0  0  0  0  0
  -27.9640  -12.4650   18.5480 C   0  0  0  0  0  2  0  0  0  0  0  0
  -27.6210  -13.2900   19.8170 C   0  0  0  0  0  3  0  0  0  0  0  0
  -28.6770  -13.0730   20.9250 C   0  0  0  0  0  2  0  0  0  0  0  0
  -30.0030  -13.3990   20.3660 N   0  0  0  0  0  0  0  0  0  0  0  0
  -31.7690  -14.7920   20.0000 O   0  0  0  0  0  0  0  0  0  0  0  0
  -28.4760  -17.2990   20.0190 C   0  0  0  0  0  3  0  0  0  0  0  0
  -28.5640  -18.6440   19.7900 C   0  0  0  0  0  0  0  0  0  0  0  0
  -29.7170  -16.9360   20.6070 C   0  0  0  0  0  0  0  0  0  0  0  0
  -30.5050  -18.0120   20.7750 N   0  0  0  0  0  0  0  0  0  0  0  0
  -29.7880  -19.0810   20.2750 N   0  0  0  0  0  0  0  0  0  0  0  0
  -29.9260  -15.5910   21.0670 N   0  0  0  0  0  0  0  0  0  0  0  0
  -29.1040  -15.1950   21.4940 H   0  0  0  0  0  0  0  0  0  0  0  0
  -25.2220  -13.9010   20.5180 C   0  0  0  0  0  0  0  0  0  0  0  0
  -24.1510  -13.1340   20.8860 C   0  0  0  0  0  0  0  0  0  0  0  0
  -24.6080  -11.7820   20.8570 C   0  0  0  0  0  0  0  0  0  0  0  0
  -26.2660  -13.0180   20.2910 N   0  0  0  0  0  0  0  0  0  0  0  0
  -25.9000  -11.7380   20.5520 N   0  0  0  0  0  0  0  0  0  0  0  0
  -23.8780  -10.5230   21.0440 C   0  0  0  0  0  0  0  0  0  0  0  0
  -24.3020   -9.5550   21.9810 C   0  0  0  0  0  3  0  0  0  0  0  0
  -23.5700   -8.3610   22.1580 C   0  0  0  0  0  3  0  0  0  0  0  0
  -22.4000   -8.1260   21.3970 C   0  0  0  0  0  0  0  0  0  0  0  0
  -21.9960   -9.0830   20.4490 C   0  0  0  0  0  3  0  0  0  0  0  0
  -22.7270  -10.2680   20.2710 C   0  0  0  0  0  3  0  0  0  0  0  0
  -21.6420   -6.9840   21.4820 O   0  0  0  0  0  0  0  0  0  0  0  0
  -21.5850   -6.2430   22.6350 C   0  0  0  0  0  0  0  0  0  0  0  0
  -21.1550   -6.8000   23.8590 C   0  0  0  0  0  3  0  0  0  0  0  0
  -21.0430   -5.9860   25.0040 C   0  0  0  0  0  3  0  0  0  0  0  0
  -21.3520   -4.6140   24.9250 C   0  0  0  0  0  0  0  0  0  0  0  0
  -21.7760   -4.0560   23.7060 C   0  0  0  0  0  3  0  0  0  0  0  0
  -21.8890   -4.8690   22.5630 C   0  0  0  0  0  0  0  0  0  0  0  0
  -22.2770   -4.3210   21.3860 F   0  0  0  0  0  0  0  0  0  0  0  0
  -21.2400   -3.8290   26.0220 F   0  0  0  0  0  0  0  0  0  0  0  0
  -22.7560  -13.6170   21.1550 C   0  0  0  0  0  0  0  0  0  0  0  0
  -22.0210  -12.9230   22.0170 N   0  0  0  0  0  0  0  0  0  0  0  0
  -22.3240  -14.6450   20.6350 O   0  0  0  0  0  0  0  0  0  0  0  0
  -22.3820  -12.0900   22.4600 H   0  0  0  0  0  0  0  0  0  0  0  0
  -21.0840  -13.2280   22.2370 H   0  0  0  0  0  0  0  0  0  0  0  0
  -25.3830  -15.2710   20.3400 N   0  0  0  0  0  0  0  0  0  0  0  0
  -24.6120  -15.9210   20.4390 H   0  0  0  0  0  0  0  0  0  0  0  0
  -26.2220  -15.7050   19.9840 H   0  0  0  0  0  0  0  0  0  0  0  0
  -26.6300  -19.0260   18.0730 C   0  0  0  0  0  2  0  0  0  0  0  0
  -27.7510  -19.9620   17.6820 C   0  0  0  0  0  2  0  0  0  0  0  0
  -27.5790  -19.5510   19.1250 C   0  0  0  0  0  3  0  0  0  0  0  0
  -29.6740  -21.6490   20.8600 C   0  0  0  0  0  2  0  0  0  0  0  0
  -29.4010  -22.8490   19.9860 N   0  0  0  0  0  4  0  0  0  0  0  0
  -28.5550  -22.6600   19.4730 H   0  0  0  0  0  0  0  0  0  0  0  0
  -30.1440  -22.9190   19.3060 H   0  0  0  0  0  0  0  0  0  0  0  0
  -29.2700  -24.2040   20.6390 C   0  0  0  0  0  2  0  0  0  0  0  0
  -28.3170  -25.1970   19.8790 C   0  0  0  0  0  2  0  0  0  0  0  0
  -28.3800  -26.6100   20.2580 O   0  0  0  0  0  0  0  0  0  0  0  0
  -24.5740  -31.9020   23.2330 C   0  0  0  0  0  0  0  0  0  0  0  0
  -27.2270  -27.3950   20.1820 C   0  0  0  0  0  0  0  0  0  0  0  0
  -23.3810  -30.5000   21.5850 C   0  0  0  0  0  3  0  0  0  0  0  0
  -24.8420  -28.9610   20.1670 C   0  0  0  0  0  0  0  0  0  0  0  0
  -25.9140  -30.8380   21.4120 C   0  0  0  0  0  2  0  0  0  0  0  0
  -26.0000  -29.4620   20.7720 C   0  0  0  0  0  0  0  0  0  0  0  0
  -27.1910  -28.6860   20.7790 C   0  0  0  0  0  3  0  0  0  0  0  0
  -26.0480  -26.9440   19.5370 C   0  0  0  0  0  3  0  0  0  0  0  0
  -24.8640  -27.7050   19.5440 C   0  0  0  0  0  3  0  0  0  0  0  0
  -23.6010  -29.8260   20.2060 C   0  0  0  0  0  2  0  0  0  0  0  0
  -24.6410  -31.0960   22.1340 N   0  0  0  0  0  0  0  0  0  0  0  0
  -23.4880  -32.1760   23.7620 O   0  0  0  0  0  0  0  0  0  0  0  0
  -22.7190  -29.4790   22.5410 C   0  0  0  0  0  0  0  0  0  0  0  0
  -21.3940  -29.3000   22.4070 N   0  0  0  0  0  0  0  0  0  0  0  0
  -23.3960  -28.8530   23.3620 O   0  0  0  0  0  0  0  0  0  0  0  0
  -20.9090  -29.8570   21.7190 H   0  0  0  0  0  0  0  0  0  0  0  0
  -18.0140  -28.1140   22.8940 C   0  0  0  0  0  0  0  0  0  0  0  0
  -20.5720  -28.3630   23.1740 C   0  0  0  0  0  3  0  0  0  0  0  0
  -20.6710  -26.9330   22.5950 C   0  0  0  0  0  2  0  0  0  0  0  0
  -19.5710  -26.6150   21.5770 C   0  0  0  0  0  2  0  0  0  0  0  0
  -18.1880  -26.7650   22.2170 C   0  0  0  0  0  2  0  0  0  0  0  0
  -19.1340  -28.8710   23.3300 C   0  0  0  0  0  0  0  0  0  0  0  0
  -18.9190  -30.1340   23.9220 C   0  0  0  0  0  3  0  0  0  0  0  0
  -17.6150  -30.6400   24.0850 C   0  0  0  0  0  3  0  0  0  0  0  0
  -16.5090  -29.8800   23.6670 C   0  0  0  0  0  3  0  0  0  0  0  0
  -16.7100  -28.6190   23.0770 C   0  0  0  0  0  3  0  0  0  0  0  0
  -25.8550  -32.5360   23.8590 C   0  0  0  0  0  3  0  0  0  0  0  0
  -25.5440  -33.9350   24.1830 N   0  0  0  0  0  0  0  0  0  0  0  0
  -25.8830  -34.9850   23.4220 C   0  0  0  0  0  0  0  0  0  0  0  0
  -26.5620  -34.8760   22.3970 O   0  0  0  0  0  0  0  0  0  0  0  0
  -24.9440  -34.0940   24.9780 H   0  0  0  0  0  0  0  0  0  0  0  0
  -24.1620  -36.7790   23.0430 C   0  0  0  0  0  1  0  0  0  0  0  0
  -25.3920  -36.3740   23.8700 C   0  0  0  0  0  3  0  0  0  0  0  0
  -27.5180  -37.2580   24.7250 C   0  0  0  0  0  1  0  0  0  0  0  0
  -26.4280  -37.4250   23.7680 N   0  0  0  0  0  0  0  0  0  0  0  0
  -26.0210  -38.3460   23.9090 H   0  0  0  0  0  0  0  0  0  0  0  0
  -26.3640  -31.7680   25.1410 C   0  0  1  0  0  0  0  0  0  0  0  0
  -25.2630  -31.5330   26.2030 C   0  0  0  0  0  1  0  0  0  0  0  0
  -26.9490  -30.3900   24.7550 C   0  0  0  0  0  1  0  0  0  0  0  0
  -27.5090  -32.5640   25.8090 C   0  0  0  0  0  1  0  0  0  0  0  0
  1 14  1  0
  1 48  1  0
  2 15  1  0
  3  8  1  0
  4  5  1  0
  4  3  1  0
  6  5  1  0
  6 20  1  0
  6  7  1  0
  8  2  1  0
  8  7  1  0
  9  2  2  0
 10 12  1  0
 11 10  2  0
 11 14  1  0
 12 13  2  0
 12 15  1  0
 14 13  1  0
 15 16  1  0
 17 18  2  0
 18 37  1  0
 19 18  1  0
 19 22  1  0
 20 17  1  0
 20 21  1  0
 21 19  2  0
 22 23  1  0
 23 24  2  0
 25 28  1  0
 25 24  1  0
 26 25  2  0
 27 26  1  0
 27 22  2  0
 28 29  1  0
 29 30  1  0
 30 31  2  0
 32 31  1  0
 32 36  1  0
 33 32  2  0
 34 29  2  0
 34 33  1  0
 35 34  1  0
 37 38  1  0
 38 41  1  0
 38 40  1  0
 39 37  2  0
 42 43  1  0
 42 17  1  0
 44 42  1  0
 45 47  1  0
 46 45  1  0
 46 47  1  0
 47 11  1  0
 49 52  1  0
 49 48  1  0
 50 49  1  0
 51 49  1  0
 53 54  1  0
 53 52  1  0
 55 66  2  0
 56 54  1  0
 56 61  1  0
 57 65  1  0
 57 67  1  0
 58 64  1  0
 58 60  1  0
 59 65  1  0
 60 61  2  0
 60 59  1  0
 62 63  1  0
 62 56  2  0
 63 58  2  0
 64 57  1  0
 65 55  1  0
 67 69  2  0
 68 67  1  0
 70 68  1  0
 71 80  2  0
 71 76  1  0
 72 68  1  0
 72 76  1  0
 73 72  1  0
 74 75  1  0
 74 73  1  0
 75 71  1  0
 76 77  2  0
 77 78  1  0
 79 78  2  0
 80 79  1  0
 81 55  1  0
 81 82  1  0
 81 91  1  0
 82 85  1  0
 83 87  1  0
 83 82  1  0
 84 83  2  0
 87 86  1  0
 89 87  1  0
 89 90  1  0
 89 88  1  0
 91 94  1  1
 91 92  1  0
 93 91  1  0
M  ISO  4   2 100  15 100  53 101  54 101
M  END
>  <TORSDO>  (34) 
F 21

>  <SCORE>  (34) 
-13.546

>  <name>  (34) 
33

>  <ligand_id>  (34) 
33

>  <original_smiles>  (34) 
[H]c1c([H])c([H])c2c(c1[H])C([H])([H])C([H])([H])C([H])([H])C2([H])N([H])C(=O)C1([H])N(C(=O)C([H])(N([H])C(=O)C([H])(N([H])C([H])([H])[H])C([H])([H])[H])C(C([H])([H])[H])(C([H])([H])[H])C([H])([H])[H])C([H])([H])c2c([H])c(OC([H])([H])C([H])([H])[N+]([H])([H])C([H])([H])C([H])([H])n3nc(N([H])C(=O)N4C([H])([H])C([H])([H])C([H])([H])C([H])(n5nc(-c6c([H])c([H])c(Oc7c([H])c([H])c(F)c([H])c7F)c([H])c6[H])c(C(=O)N([H])[H])c5N([H])[H])C4([H])[H])c([H])c3C3([H])C([H])([H])C3([H])[H])c([H])c([H])c2C1([H])[H]

>  <smiles>  (34) 
[H]c1c([H])c([H])c2c(c1[H])C([H])([H])C([H])([H])C([H])([H])C2([H])N([H])C(=O)C1([H])N(C(=O)C([H])(N([H])C(=O)C([H])(N([H])C([H])([H])[H])C([H])([H])[H])C(C([H])([H])[H])(C([H])([H])[H])C([H])([H])[H])C([H])([H])c2c([H])c(OC([H])([H])C([H])([H])[N+]([H])([H])C([H])([H])C([H])([H])n3nc(N([H])C(=O)N4C([H])([H])C([H])([H])C([H])([H])C([H])(n5nc(-c6c([H])c([H])c(Oc7c([H])c([H])c(F)c([H])c7F)c([H])c6[H])c(C(=O)N([H])[H])c5N([H])[H])C4([H])[H])c([H])c3C3([H])C([H])([H])C3([H])[H])c([H])c([H])c2C1([H])[H]

$$$$
34:0:0
     RDKit          3D

 93102  0  0  1  0  0  0  0  0999 V2000
  -30.7450  -22.4360   17.6410 C   0  0  0  0  0  0  0  0  0  0  0  0
  -30.1770  -21.5080   19.4550 C   0  0  0  0  0  3  0  0  0  0  0  0
  -31.3460  -22.6610   16.2900 C   0  0  0  0  0  1  0  0  0  0  0  0
  -30.7120  -21.2230   18.2600 N   0  0  0  0  0  0  0  0  0  0  0  0
  -30.2230  -23.4320   18.3380 N   0  0  0  0  0  2  0  0  0  0  0  0
  -29.8310  -22.8590   19.5060 N   0  0  0  0  0  0  0  0  0  0  0  0
  -30.1430  -20.4350   20.5960 C   0  0  0  0  0  2  0  0  0  0  0  0
  -30.8740  -14.6320   20.1040 C   0  0  0  0  0  0  0  0  0  0  0  0
  -30.4780  -12.4010   19.0630 C   0  0  0  0  0  2  0  0  0  0  0  0
  -29.5180  -12.5860   17.8740 C   0  0  0  0  0  2  0  0  0  0  0  0
  -28.0550  -12.4470   18.3490 C   0  0  0  0  0  2  0  0  0  0  0  0
  -27.7560  -13.2780   19.6280 C   0  0  0  0  0  3  0  0  0  0  0  0
  -28.8660  -13.1370   20.6930 C   0  0  0  0  0  2  0  0  0  0  0  0
  -30.1360  -13.4660   20.0330 N   0  0  0  0  0  0  0  0  0  0  0  0
  -32.0660  -14.5960   19.7890 O   0  0  0  0  0  0  0  0  0  0  0  0
  -29.3140  -16.5170   20.9500 C   0  0  0  0  0  2  0  0  0  0  0  0
  -30.6250  -16.8280   18.9180 C   0  0  0  0  0  2  0  0  0  0  0  0
  -29.5730  -18.0540   21.2800 C   0  0  0  0  0  2  0  0  0  0  0  0
  -30.9610  -18.3010   19.3430 C   0  0  0  0  0  2  0  0  0  0  0  0
  -30.2320  -15.8630   19.9840 N   0  0  0  0  0  0  0  0  0  0  0  0
  -29.8880  -18.9790   20.1310 N   0  0  2  0  0  4  0  0  0  0  0  0
  -29.0620  -19.0400   19.5520 H   0  0  0  0  0  0  0  0  0  0  0  0
  -25.4060  -13.8720   20.4660 C   0  0  0  0  0  0  0  0  0  0  0  0
  -24.3480  -13.1020   20.8590 C   0  0  0  0  0  0  0  0  0  0  0  0
  -24.7940  -11.7480   20.7860 C   0  0  0  0  0  0  0  0  0  0  0  0
  -26.4330  -12.9870   20.1710 N   0  0  0  0  0  0  0  0  0  0  0  0
  -26.0710  -11.7020   20.4240 N   0  0  0  0  0  0  0  0  0  0  0  0
  -24.0580  -10.4910   20.9860 C   0  0  0  0  0  0  0  0  0  0  0  0
  -24.4870   -9.5240   21.9250 C   0  0  0  0  0  3  0  0  0  0  0  0
  -23.7520   -8.3310   22.1090 C   0  0  0  0  0  3  0  0  0  0  0  0
  -22.5730   -8.1030   21.3600 C   0  0  0  0  0  0  0  0  0  0  0  0
  -22.1630   -9.0580   20.4130 C   0  0  0  0  0  3  0  0  0  0  0  0
  -22.8980  -10.2390   20.2270 C   0  0  0  0  0  3  0  0  0  0  0  0
  -21.8060   -6.9660   21.4550 O   0  0  0  0  0  0  0  0  0  0  0  0
  -21.7220   -6.2510   22.6210 C   0  0  0  0  0  0  0  0  0  0  0  0
  -21.2260   -6.8220   23.8140 C   0  0  0  0  0  3  0  0  0  0  0  0
  -21.0980   -6.0290   24.9740 C   0  0  0  0  0  3  0  0  0  0  0  0
  -21.4530   -4.6660   24.9380 C   0  0  0  0  0  0  0  0  0  0  0  0
  -21.9380   -4.0950   23.7480 C   0  0  0  0  0  3  0  0  0  0  0  0
  -22.0710   -4.8860   22.5930 C   0  0  0  0  0  0  0  0  0  0  0  0
  -22.5240   -4.3280   21.4440 F   0  0  0  0  0  0  0  0  0  0  0  0
  -21.3200   -3.9010   26.0450 F   0  0  0  0  0  0  0  0  0  0  0  0
  -22.9710  -13.5930   21.1910 C   0  0  0  0  0  0  0  0  0  0  0  0
  -22.2770  -12.9070   22.0940 N   0  0  0  0  0  0  0  0  0  0  0  0
  -22.5150  -14.6190   20.6850 O   0  0  0  0  0  0  0  0  0  0  0  0
  -22.6640  -12.0870   22.5370 H   0  0  0  0  0  0  0  0  0  0  0  0
  -21.3510  -13.2140   22.3510 H   0  0  0  0  0  0  0  0  0  0  0  0
  -25.5740  -15.2450   20.3040 N   0  0  0  0  0  0  0  0  0  0  0  0
  -24.8010  -15.8890   20.4350 H   0  0  0  0  0  0  0  0  0  0  0  0
  -26.4030  -15.6850   19.9310 H   0  0  0  0  0  0  0  0  0  0  0  0
  -29.3070  -23.8410   20.5160 C   0  0  0  0  0  2  0  0  0  0  0  0
  -28.2730  -24.9450   19.9800 C   0  0  0  0  0  2  0  0  0  0  0  0
  -28.4120  -26.3740   20.3600 O   0  0  0  0  0  0  0  0  0  0  0  0
  -24.5940  -31.7750   23.2160 C   0  0  0  0  0  0  0  0  0  0  0  0
  -27.2930  -27.2200   20.2420 C   0  0  0  0  0  0  0  0  0  0  0  0
  -23.4360  -30.3730   21.5470 C   0  0  0  0  0  3  0  0  0  0  0  0
  -24.9280  -28.8260   20.1580 C   0  0  0  0  0  0  0  0  0  0  0  0
  -25.9760  -30.6950   21.4340 C   0  0  0  0  0  2  0  0  0  0  0  0
  -26.0740  -29.3150   20.7960 C   0  0  0  0  0  0  0  0  0  0  0  0
  -27.2570  -28.5200   20.8330 C   0  0  0  0  0  3  0  0  0  0  0  0
  -26.1350  -26.8010   19.5480 C   0  0  0  0  0  3  0  0  0  0  0  0
  -24.9600  -27.5780   19.5210 C   0  0  0  0  0  3  0  0  0  0  0  0
  -23.6880  -29.6940   20.1750 C   0  0  0  0  0  2  0  0  0  0  0  0
  -24.6840  -30.9660   22.1240 N   0  0  0  0  0  0  0  0  0  0  0  0
  -23.4950  -32.0540   23.7200 O   0  0  0  0  0  0  0  0  0  0  0  0
  -22.7490  -29.3570   22.4890 C   0  0  0  0  0  0  0  0  0  0  0  0
  -21.4200  -29.2140   22.3540 N   0  0  0  0  0  0  0  0  0  0  0  0
  -23.4080  -28.7020   23.3010 O   0  0  0  0  0  0  0  0  0  0  0  0
  -20.9470  -29.7960   21.6770 H   0  0  0  0  0  0  0  0  0  0  0  0
  -18.0050  -28.1470   22.8700 C   0  0  0  0  0  0  0  0  0  0  0  0
  -20.5750  -28.2860   23.1060 C   0  0  0  0  0  3  0  0  0  0  0  0
  -20.6030  -26.8710   22.4820 C   0  0  0  0  0  2  0  0  0  0  0  0
  -19.4740  -26.6310   21.4750 C   0  0  0  0  0  2  0  0  0  0  0  0
  -18.1100  -26.8130   22.1470 C   0  0  0  0  0  2  0  0  0  0  0  0
  -19.1610  -28.8440   23.3060 C   0  0  0  0  0  0  0  0  0  0  0  0
  -19.0080  -30.0950   23.9430 C   0  0  0  0  0  3  0  0  0  0  0  0
  -17.7290  -30.6470   24.1440 C   0  0  0  0  0  3  0  0  0  0  0  0
  -16.5860  -29.9460   23.7200 C   0  0  0  0  0  3  0  0  0  0  0  0
  -16.7260  -28.6960   23.0910 C   0  0  0  0  0  3  0  0  0  0  0  0
  -25.8580  -32.4080   23.8760 C   0  0  0  0  0  3  0  0  0  0  0  0
  -26.3340  -31.6320   25.1630 C   0  0  1  0  0  0  0  0  0  0  0  0
  -25.2100  -31.3910   26.1960 C   0  0  0  0  0  1  0  0  0  0  0  0
  -26.9290  -30.2580   24.7780 C   0  0  0  0  0  1  0  0  0  0  0  0
  -27.4580  -32.4280   25.8670 C   0  0  0  0  0  1  0  0  0  0  0  0
  -25.5390  -33.8050   24.1980 N   0  0  0  0  0  0  0  0  0  0  0  0
  -25.8840  -34.8590   23.4450 C   0  0  0  0  0  0  0  0  0  0  0  0
  -26.5700  -34.7550   22.4240 O   0  0  0  0  0  0  0  0  0  0  0  0
  -24.9250  -33.9580   24.9840 H   0  0  0  0  0  0  0  0  0  0  0  0
  -24.1540  -36.6470   23.0590 C   0  0  0  0  0  1  0  0  0  0  0  0
  -25.3830  -36.2460   23.8920 C   0  0  0  0  0  3  0  0  0  0  0  0
  -27.4930  -37.1440   24.7690 C   0  0  0  0  0  1  0  0  0  0  0  0
  -26.4130  -37.3030   23.7990 N   0  0  0  0  0  0  0  0  0  0  0  0
  -26.0000  -38.2210   23.9310 H   0  0  0  0  0  0  0  0  0  0  0  0
  1  4  2  0
  1  5  1  0
  2  6  1  0
  2  7  1  0
  3  1  1  0
  4  2  1  0
  5  6  1  0
  6 51  1  0
  9 14  1  0
 10 11  1  0
 10  9  1  0
 12 11  1  0
 12 26  1  0
 12 13  1  0
 14  8  1  0
 14 13  1  0
 15  8  2  0
 16 18  1  0
 17 19  1  0
 17 20  1  0
 19 21  1  0
 20  8  1  0
 20 16  1  0
 21  7  1  0
 21 18  1  0
 21 22  1  6
 23 24  2  0
 24 43  1  0
 25 24  1  0
 25 28  1  0
 26 27  1  0
 26 23  1  0
 27 25  2  0
 28 29  1  0
 29 30  2  0
 31 34  1  0
 31 30  1  0
 32 31  2  0
 33 32  1  0
 33 28  2  0
 34 35  1  0
 35 36  1  0
 36 37  2  0
 38 37  1  0
 38 42  1  0
 39 38  2  0
 40 35  2  0
 40 39  1  0
 41 40  1  0
 43 44  1  0
 44 47  1  0
 44 46  1  0
 45 43  2  0
 48 49  1  0
 48 23  1  0
 50 48  1  0
 52 53  1  0
 52 51  1  0
 54 65  2  0
 55 53  1  0
 55 60  1  0
 56 64  1  0
 56 66  1  0
 57 63  1  0
 57 59  1  0
 58 64  1  0
 59 60  2  0
 59 58  1  0
 61 55  2  0
 62 61  1  0
 62 57  2  0
 63 56  1  0
 64 54  1  0
 66 68  2  0
 67 66  1  0
 69 67  1  0
 70 79  2  0
 70 75  1  0
 71 67  1  0
 71 75  1  0
 72 71  1  0
 73 74  1  0
 73 72  1  0
 74 70  1  0
 75 76  2  0
 76 77  1  0
 78 77  2  0
 79 78  1  0
 80 54  1  0
 80 85  1  0
 80 81  1  0
 81 84  1  1
 81 82  1  0
 83 81  1  0
 85 88  1  0
 86 90  1  0
 86 85  1  0
 87 86  2  0
 90 89  1  0
 92 90  1  0
 92 93  1  0
 92 91  1  0
M  ISO  4   8 100  20 100  52 101  53 101
M  END
>  <TORSDO>  (35) 
F 19

>  <SCORE>  (35) 
-14.065

>  <name>  (35) 
34

>  <ligand_id>  (35) 
34

>  <original_smiles>  (35) 
[H]c1c([H])c([H])c2c(c1[H])C([H])([H])C([H])([H])C([H])([H])C2([H])N([H])C(=O)C1([H])N(C(=O)C([H])(N([H])C(=O)C([H])(N([H])C([H])([H])[H])C([H])([H])[H])C(C([H])([H])[H])(C([H])([H])[H])C([H])([H])[H])C([H])([H])c2c([H])c(OC([H])([H])C([H])([H])n3nc(C([H])([H])[H])nc3C([H])([H])[N+]3([H])C([H])([H])C([H])([H])N(C(=O)N4C([H])([H])C([H])([H])C([H])([H])C([H])(n5nc(-c6c([H])c([H])c(Oc7c([H])c([H])c(F)c([H])c7F)c([H])c6[H])c(C(=O)N([H])[H])c5N([H])[H])C4([H])[H])C([H])([H])C3([H])[H])c([H])c([H])c2C1([H])[H]

>  <smiles>  (35) 
[H]c1c([H])c([H])c2c(c1[H])C([H])([H])C([H])([H])C([H])([H])C2([H])N([H])C(=O)C1([H])N(C(=O)C([H])(N([H])C(=O)C([H])(N([H])C([H])([H])[H])C([H])([H])[H])C(C([H])([H])[H])(C([H])([H])[H])C([H])([H])[H])C([H])([H])c2c([H])c(OC([H])([H])C([H])([H])n3nc(C([H])([H])[H])nc3C([H])([H])[N+]3([H])C([H])([H])C([H])([H])N(C(=O)N4C([H])([H])C([H])([H])C([H])([H])C([H])(n5nc(-c6c([H])c([H])c(Oc7c([H])c([H])c(F)c([H])c7F)c([H])c6[H])c(C(=O)N([H])[H])c5N([H])[H])C4([H])[H])C([H])([H])C3([H])[H])c([H])c([H])c2C1([H])[H]

$$$$
35:0:0
     RDKit          3D

 95104  0  0  1  0  0  0  0  0999 V2000
  -30.4150  -21.7900   20.3560 C   0  0  0  0  0  2  0  0  0  0  0  0
  -30.1540  -20.2950   20.7190 C   0  0  0  0  0  2  0  0  0  0  0  0
  -28.8420  -21.7050   18.6060 C   0  0  0  0  0  2  0  0  0  0  0  0
  -28.5010  -20.2020   18.9420 C   0  0  0  0  0  3  0  0  0  0  0  0
  -29.2390  -22.4820   19.7970 N   0  0  0  0  0  0  0  0  0  0  0  0
  -29.6620  -19.4950   19.5830 N   0  0  0  0  0  0  0  0  0  0  0  0
  -29.3450  -17.1530   18.7360 C   0  0  0  0  0  2  0  0  0  0  0  0
  -29.4410  -18.0530   19.9210 C   0  0  0  0  0  3  0  0  0  0  0  0
  -30.4790  -16.8940   19.7210 C   0  0  0  0  0  3  0  0  0  0  0  0
  -31.2040  -14.4710   20.1010 C   0  0  0  0  0  0  0  0  0  0  0  0
  -30.8620  -12.2580   19.0530 C   0  0  0  0  0  2  0  0  0  0  0  0
  -29.9210  -12.5030   17.8500 C   0  0  0  0  0  2  0  0  0  0  0  0
  -28.4430  -12.4320   18.2910 C   0  0  0  0  0  2  0  0  0  0  0  0
  -28.1640  -13.2770   19.5630 C   0  0  0  0  0  3  0  0  0  0  0  0
  -29.2230  -13.0250   20.6620 C   0  0  0  0  0  2  0  0  0  0  0  0
  -30.5460  -13.2730   20.0720 N   0  0  0  0  0  0  0  0  0  0  0  0
  -32.3690  -14.5880   19.7120 O   0  0  0  0  0  0  0  0  0  0  0  0
  -30.3810  -15.5460   20.2910 N   0  0  0  0  0  0  0  0  0  0  0  0
  -29.4680  -15.2900   20.6390 H   0  0  0  0  0  0  0  0  0  0  0  0
  -25.8220  -14.0160   20.3110 C   0  0  0  0  0  0  0  0  0  0  0  0
  -24.7210  -13.3070   20.7000 C   0  0  0  0  0  0  0  0  0  0  0  0
  -25.1080  -11.9320   20.6720 C   0  0  0  0  0  0  0  0  0  0  0  0
  -26.8110  -13.0770   20.0660 N   0  0  0  0  0  0  0  0  0  0  0  0
  -26.3880  -11.8190   20.3460 N   0  0  0  0  0  0  0  0  0  0  0  0
  -24.3190  -10.7120   20.8750 C   0  0  0  0  0  0  0  0  0  0  0  0
  -24.7110   -9.7280   21.8080 C   0  0  0  0  0  3  0  0  0  0  0  0
  -23.9250   -8.5710   21.9960 C   0  0  0  0  0  3  0  0  0  0  0  0
  -22.7330   -8.3950   21.2550 C   0  0  0  0  0  0  0  0  0  0  0  0
  -22.3610   -9.3660   20.3100 C   0  0  0  0  0  3  0  0  0  0  0  0
  -23.1460  -10.5140   20.1180 C   0  0  0  0  0  3  0  0  0  0  0  0
  -21.9150   -7.2960   21.3580 O   0  0  0  0  0  0  0  0  0  0  0  0
  -21.8290   -6.5690   22.5180 C   0  0  0  0  0  0  0  0  0  0  0  0
  -21.4420   -7.1580   23.7410 C   0  0  0  0  0  3  0  0  0  0  0  0
  -21.3020   -6.3590   24.8940 C   0  0  0  0  0  3  0  0  0  0  0  0
  -21.5390   -4.9720   24.8250 C   0  0  0  0  0  0  0  0  0  0  0  0
  -21.9190   -4.3840   23.6050 C   0  0  0  0  0  3  0  0  0  0  0  0
  -22.0620   -5.1810   22.4550 C   0  0  0  0  0  0  0  0  0  0  0  0
  -22.4080   -4.6050   21.2800 F   0  0  0  0  0  0  0  0  0  0  0  0
  -21.3970   -4.2030   25.9280 F   0  0  0  0  0  0  0  0  0  0  0  0
  -23.3580  -13.8610   20.9860 C   0  0  0  0  0  0  0  0  0  0  0  0
  -22.6100  -13.2270   21.8850 N   0  0  0  0  0  0  0  0  0  0  0  0
  -22.9640  -14.8950   20.4450 O   0  0  0  0  0  0  0  0  0  0  0  0
  -22.9380  -12.3900   22.3450 H   0  0  0  0  0  0  0  0  0  0  0  0
  -21.6940  -13.5840   22.1170 H   0  0  0  0  0  0  0  0  0  0  0  0
  -26.0540  -15.3740   20.1180 N   0  0  0  0  0  0  0  0  0  0  0  0
  -25.2650  -16.0100   20.1070 H   0  0  0  0  0  0  0  0  0  0  0  0
  -26.8450  -15.7070   19.5840 H   0  0  0  0  0  0  0  0  0  0  0  0
  -27.1410  -20.1490   19.7030 C   0  0  0  0  0  2  0  0  0  0  0  0
  -26.2790  -19.0180   19.3080 N   0  0  0  0  0  4  0  0  0  0  0  0
  -25.9930  -19.1060   18.3490 H   0  0  0  0  0  0  0  0  0  0  0  0
  -25.4450  -19.0240   19.8740 H   0  0  0  0  0  0  0  0  0  0  0  0
  -26.7410  -18.1370   19.4300 H   0  0  0  0  0  0  0  0  0  0  0  0
  -29.5050  -23.9470   19.5720 C   0  0  0  0  0  3  0  0  0  0  0  0
  -28.2820  -24.9180   19.4200 C   0  0  0  0  0  3  0  0  0  0  0  0
  -28.4920  -26.3620   19.6230 O   0  0  0  0  0  0  0  0  0  0  0  0
  -24.5790  -31.4760   22.9020 C   0  0  0  0  0  0  0  0  0  0  0  0
  -27.3440  -27.1650   19.6410 C   0  0  0  0  0  0  0  0  0  0  0  0
  -23.4280  -30.1120   21.2040 C   0  0  0  0  0  3  0  0  0  0  0  0
  -24.9250  -28.6810   19.7200 C   0  0  0  0  0  0  0  0  0  0  0  0
  -25.9560  -30.5250   21.0400 C   0  0  0  0  0  2  0  0  0  0  0  0
  -26.0810  -29.1830   20.3340 C   0  0  0  0  0  0  0  0  0  0  0  0
  -27.2950  -28.4370   20.2860 C   0  0  0  0  0  3  0  0  0  0  0  0
  -26.1540  -26.7120   19.0230 C   0  0  0  0  0  3  0  0  0  0  0  0
  -24.9620  -27.4470   19.0630 C   0  0  0  0  0  3  0  0  0  0  0  0
  -23.6630  -29.5080   19.7980 C   0  0  0  0  0  2  0  0  0  0  0  0
  -24.6740  -30.7180   21.7720 N   0  0  0  0  0  0  0  0  0  0  0  0
  -23.4840  -31.6950   23.4400 O   0  0  0  0  0  0  0  0  0  0  0  0
  -22.7970  -29.0300   22.1110 C   0  0  0  0  0  0  0  0  0  0  0  0
  -21.4680  -28.8610   22.0140 N   0  0  0  0  0  0  0  0  0  0  0  0
  -23.5000  -28.3490   22.8620 O   0  0  0  0  0  0  0  0  0  0  0  0
  -20.9590  -29.4620   21.3790 H   0  0  0  0  0  0  0  0  0  0  0  0
  -18.0990  -27.6690   22.5740 C   0  0  0  0  0  0  0  0  0  0  0  0
  -20.6700  -27.8780   22.7480 C   0  0  0  0  0  3  0  0  0  0  0  0
  -20.7270  -26.4920   22.0620 C   0  0  0  0  0  2  0  0  0  0  0  0
  -19.5760  -26.2590   21.0790 C   0  0  0  0  0  2  0  0  0  0  0  0
  -18.2250  -26.3740   21.7910 C   0  0  0  0  0  2  0  0  0  0  0  0
  -19.2460  -28.3840   23.0090 C   0  0  0  0  0  0  0  0  0  0  0  0
  -19.0710  -29.6020   23.7010 C   0  0  0  0  0  3  0  0  0  0  0  0
  -17.7820  -30.1030   23.9620 C   0  0  0  0  0  3  0  0  0  0  0  0
  -16.6500  -29.3820   23.5410 C   0  0  0  0  0  3  0  0  0  0  0  0
  -16.8090  -28.1680   22.8530 C   0  0  0  0  0  3  0  0  0  0  0  0
  -25.8370  -32.1210   23.5600 C   0  0  0  0  0  3  0  0  0  0  0  0
  -25.4740  -33.4850   23.9690 N   0  0  0  0  0  0  0  0  0  0  0  0
  -25.8030  -34.5940   23.2940 C   0  0  0  0  0  0  0  0  0  0  0  0
  -26.5130  -34.5790   22.2850 O   0  0  0  0  0  0  0  0  0  0  0  0
  -24.8480  -33.5700   24.7560 H   0  0  0  0  0  0  0  0  0  0  0  0
  -24.0400  -36.3600   22.9840 C   0  0  0  0  0  1  0  0  0  0  0  0
  -25.2570  -35.9350   23.8220 C   0  0  0  0  0  3  0  0  0  0  0  0
  -27.3240  -36.8140   24.8110 C   0  0  0  0  0  1  0  0  0  0  0  0
  -26.2630  -37.0200   23.8280 N   0  0  0  0  0  0  0  0  0  0  0  0
  -25.8240  -37.9170   24.0190 H   0  0  0  0  0  0  0  0  0  0  0  0
  -26.3860  -31.2970   24.7870 C   0  0  1  0  0  0  0  0  0  0  0  0
  -25.3090  -30.9640   25.8460 C   0  0  0  0  0  1  0  0  0  0  0  0
  -27.0070  -29.9640   24.3140 C   0  0  0  0  0  1  0  0  0  0  0  0
  -27.5190  -32.0900   25.4820 C   0  0  0  0  0  1  0  0  0  0  0  0
  1  2  1  0
  3  4  1  0
  3  5  1  0
  4  6  1  0
  4 48  1  0
  5  1  1  0
  6  8  1  0
  6  2  1  0
  7  9  1  0
  8  7  1  0
  9  8  1  0
  9 18  1  0
 10 18  1  0
 11 16  1  0
 12 13  1  0
 12 11  1  0
 14 13  1  0
 14 23  1  0
 14 15  1  0
 16 10  1  0
 16 15  1  0
 17 10  2  0
 18 19  1  0
 20 21  2  0
 21 40  1  0
 22 21  1  0
 22 25  1  0
 23 20  1  0
 23 24  1  0
 24 22  2  0
 25 26  1  0
 26 27  2  0
 28 31  1  0
 28 27  1  0
 29 28  2  0
 30 29  1  0
 30 25  2  0
 31 32  1  0
 32 33  1  0
 33 34  2  0
 35 34  1  0
 35 39  1  0
 36 35  2  0
 37 32  2  0
 37 36  1  0
 38 37  1  0
 40 41  1  0
 41 44  1  0
 41 43  1  0
 42 40  2  0
 45 20  1  0
 46 45  1  0
 47 45  1  0
 49 52  1  0
 49 48  1  0
 49 51  1  0
 50 49  1  0
 53  5  1  0
 54 53  2  0
 54 55  1  0
 55 57  1  0
 56 67  2  0
 57 62  1  0
 58 66  1  0
 58 68  1  0
 59 65  1  0
 59 61  1  0
 60 66  1  0
 61 60  1  0
 62 61  2  0
 63 64  1  0
 63 57  2  0
 64 59  2  0
 65 58  1  0
 66 56  1  0
 68 70  2  0
 69 68  1  0
 71 69  1  0
 72 81  2  0
 72 77  1  0
 73 69  1  0
 73 77  1  0
 74 73  1  0
 75 76  1  0
 75 74  1  0
 76 72  1  0
 77 78  2  0
 78 79  1  0
 80 79  2  0
 81 80  1  0
 82 56  1  0
 82 83  1  0
 82 92  1  0
 83 86  1  0
 84 88  1  0
 84 83  1  0
 85 84  2  0
 88 87  1  0
 88 90  1  0
 90 91  1  0
 90 89  1  0
 92 95  1  1
 92 93  1  0
 94 92  1  0
M  ISO  4  10 100  18 100  54 101  55 101
M  END
>  <TORSDO>  (36) 
F 21

>  <SCORE>  (36) 
-12.316

>  <name>  (36) 
35

>  <ligand_id>  (36) 
35

>  <original_smiles>  (36) 
[H]c1c([H])c([H])c2c(c1[H])C([H])([H])C([H])([H])C([H])([H])C2([H])N([H])C(=O)C1([H])N(C(=O)C([H])(N([H])C(=O)C([H])(N([H])C([H])([H])[H])C([H])([H])[H])C(C([H])([H])[H])(C([H])([H])[H])C([H])([H])[H])C([H])([H])c2c([H])c(OC([H])([H])C([H])([H])N3C([H])([H])C([H])([H])N(C4([H])C([H])([H])C4([H])N([H])C(=O)N4C([H])([H])C([H])([H])C([H])([H])C([H])(n5nc(-c6c([H])c([H])c(Oc7c([H])c([H])c(F)c([H])c7F)c([H])c6[H])c(C(=O)N([H])[H])c5N([H])[H])C4([H])[H])C([H])(C([H])([H])[N+]([H])([H])[H])C3([H])[H])c([H])c([H])c2C1([H])[H]

>  <smiles>  (36) 
[H]c1c([H])c([H])c2c(c1[H])C([H])([H])C([H])([H])C([H])([H])C2([H])N([H])C(=O)C1([H])N(C(=O)C([H])(N([H])C(=O)C([H])(N([H])C([H])([H])[H])C([H])([H])[H])C(C([H])([H])[H])(C([H])([H])[H])C([H])([H])[H])C([H])([H])c2c([H])c(OC([H])([H])C([H])([H])N3C([H])([H])C([H])([H])N(C4([H])C([H])([H])C4([H])N([H])C(=O)N4C([H])([H])C([H])([H])C([H])([H])C([H])(n5nc(-c6c([H])c([H])c(Oc7c([H])c([H])c(F)c([H])c7F)c([H])c6[H])c(C(=O)N([H])[H])c5N([H])[H])C4([H])[H])C([H])(C([H])([H])[N+]([H])([H])[H])C3([H])[H])c([H])c([H])c2C1([H])[H]

$$$$
36:0:0
     RDKit          3D

 90 99  0  0  1  0  0  0  0  0999 V2000
  -29.2050  -20.7090   21.7140 C   0  0  0  0  0  3  0  0  0  0  0  0
  -28.9230  -21.1700   19.7000 C   0  0  0  0  0  0  0  0  0  0  0  0
  -28.6320  -22.5110   20.3260 C   0  0  0  0  0  0  0  0  0  0  0  0
  -29.3040  -18.9470   18.5080 C   0  0  0  0  0  2  0  0  0  0  0  0
  -29.8210  -18.5570   19.9420 C   0  0  0  0  0  3  0  0  0  0  0  0
  -29.0010  -20.5320   18.3310 C   0  0  2  0  0  0  0  0  0  0  0  0
  -30.1480  -21.1760   17.5340 C   0  0  0  0  0  1  0  0  0  0  0  0
  -27.6850  -20.7400   17.5630 C   0  0  0  0  0  1  0  0  0  0  0  0
  -28.8430  -22.0460   21.6610 N   0  0  0  0  0  0  0  0  0  0  0  0
  -29.2860  -20.0200   20.5470 N   0  0  0  0  0  0  0  0  0  0  0  0
  -30.3850  -15.5660   20.1590 C   0  0  0  0  0  0  0  0  0  0  0  0
  -30.3940  -13.0740   19.3160 C   0  0  0  0  0  2  0  0  0  0  0  0
  -29.4580  -12.7900   18.1100 C   0  0  0  0  0  2  0  0  0  0  0  0
  -28.0310  -12.4770   18.5900 C   0  0  0  0  0  2  0  0  0  0  0  0
  -27.5810  -13.4490   19.7070 C   0  0  0  0  0  3  0  0  0  0  0  0
  -28.6490  -13.6690   20.8030 C   0  0  0  0  0  2  0  0  0  0  0  0
  -29.8390  -14.2310   20.1360 N   0  0  0  0  0  0  0  0  0  0  0  0
  -31.5930  -15.5380   19.8690 O   0  0  0  0  0  0  0  0  0  0  0  0
  -29.6400  -16.8830   20.3100 N   0  0  0  0  0  0  0  0  0  0  0  0
  -28.6930  -16.6930   20.6040 H   0  0  0  0  0  0  0  0  0  0  0  0
  -25.2380  -13.9770   20.5470 C   0  0  0  0  0  0  0  0  0  0  0  0
  -24.1900  -13.1910   20.9310 C   0  0  0  0  0  0  0  0  0  0  0  0
  -24.6570  -11.8420   20.8600 C   0  0  0  0  0  0  0  0  0  0  0  0
  -26.2740  -13.1100   20.2540 N   0  0  0  0  0  0  0  0  0  0  0  0
  -25.9410  -11.8170   20.5100 N   0  0  0  0  0  0  0  0  0  0  0  0
  -23.9360  -10.5750   21.0450 C   0  0  0  0  0  0  0  0  0  0  0  0
  -24.3880   -9.5930   21.9550 C   0  0  0  0  0  3  0  0  0  0  0  0
  -23.6620   -8.3950   22.1310 C   0  0  0  0  0  3  0  0  0  0  0  0
  -22.4720   -8.1700   21.4000 C   0  0  0  0  0  0  0  0  0  0  0  0
  -22.0390   -9.1410   20.4800 C   0  0  0  0  0  3  0  0  0  0  0  0
  -22.7650  -10.3300   20.3000 C   0  0  0  0  0  3  0  0  0  0  0  0
  -21.7170   -7.0260   21.4870 O   0  0  0  0  0  0  0  0  0  0  0  0
  -21.6820   -6.2720   22.6340 C   0  0  0  0  0  0  0  0  0  0  0  0
  -21.2440   -6.8070   23.8640 C   0  0  0  0  0  3  0  0  0  0  0  0
  -21.1570   -5.9790   25.0010 C   0  0  0  0  0  3  0  0  0  0  0  0
  -21.4990   -4.6170   24.9090 C   0  0  0  0  0  0  0  0  0  0  0  0
  -21.9300   -4.0810   23.6820 C   0  0  0  0  0  3  0  0  0  0  0  0
  -22.0170   -4.9060   22.5480 C   0  0  0  0  0  0  0  0  0  0  0  0
  -22.4130   -4.3780   21.3640 F   0  0  0  0  0  0  0  0  0  0  0  0
  -21.4100   -3.8190   26.0000 F   0  0  0  0  0  0  0  0  0  0  0  0
  -22.8000  -13.6610   21.2450 C   0  0  0  0  0  0  0  0  0  0  0  0
  -22.0960  -12.9510   22.1180 N   0  0  0  0  0  0  0  0  0  0  0  0
  -22.3510  -14.6950   20.7530 O   0  0  0  0  0  0  0  0  0  0  0  0
  -22.4740  -12.1140   22.5380 H   0  0  0  0  0  0  0  0  0  0  0  0
  -21.1640  -13.2480   22.3710 H   0  0  0  0  0  0  0  0  0  0  0  0
  -25.3910  -15.3520   20.3890 N   0  0  0  0  0  0  0  0  0  0  0  0
  -24.6220  -15.9970   20.5290 H   0  0  0  0  0  0  0  0  0  0  0  0
  -26.2150  -15.7950   20.0050 H   0  0  0  0  0  0  0  0  0  0  0  0
  -27.9590  -24.1480   19.9000 C   0  0  0  0  0  2  0  0  0  0  0  0
  -28.1510  -25.7750   20.3510 O   0  0  0  0  0  0  0  0  0  0  0  0
  -24.6430  -31.9170   23.2540 C   0  0  0  0  0  0  0  0  0  0  0  0
  -27.1800  -26.9440   20.2450 C   0  0  0  0  0  0  0  0  0  0  0  0
  -23.4480  -30.5170   21.6220 C   0  0  0  0  0  3  0  0  0  0  0  0
  -24.8930  -28.8950   20.1960 C   0  0  0  0  0  0  0  0  0  0  0  0
  -26.0190  -30.6980   21.4800 C   0  0  0  0  0  2  0  0  0  0  0  0
  -26.0850  -29.2780   20.8240 C   0  0  0  0  0  0  0  0  0  0  0  0
  -27.2160  -28.3240   20.8250 C   0  0  0  0  0  3  0  0  0  0  0  0
  -25.9600  -26.7480   19.5530 C   0  0  0  0  0  3  0  0  0  0  0  0
  -24.8640  -27.6540   19.5380 C   0  0  0  0  0  3  0  0  0  0  0  0
  -23.6780  -29.8270   20.2480 C   0  0  0  0  0  2  0  0  0  0  0  0
  -24.7260  -31.0750   22.1720 N   0  0  0  0  0  0  0  0  0  0  0  0
  -23.5530  -32.2110   23.7730 O   0  0  0  0  0  0  0  0  0  0  0  0
  -22.7480  -29.5310   22.5950 C   0  0  0  0  0  0  0  0  0  0  0  0
  -21.4180  -29.3600   22.4670 N   0  0  0  0  0  0  0  0  0  0  0  0
  -23.4110  -28.9170   23.4350 O   0  0  0  0  0  0  0  0  0  0  0  0
  -20.9330  -29.9050   21.7670 H   0  0  0  0  0  0  0  0  0  0  0  0
  -18.0420  -28.1170   22.9680 C   0  0  0  0  0  0  0  0  0  0  0  0
  -20.5980  -28.4220   23.2430 C   0  0  0  0  0  3  0  0  0  0  0  0
  -20.7200  -26.9840   22.6860 C   0  0  0  0  0  2  0  0  0  0  0  0
  -19.6300  -26.6370   21.6690 C   0  0  0  0  0  2  0  0  0  0  0  0
  -18.2420  -26.7660   22.3020 C   0  0  0  0  0  2  0  0  0  0  0  0
  -19.1480  -28.9020   23.3960 C   0  0  0  0  0  0  0  0  0  0  0  0
  -18.9040  -30.1610   23.9830 C   0  0  0  0  0  3  0  0  0  0  0  0
  -17.5900  -30.6400   24.1440 C   0  0  0  0  0  3  0  0  0  0  0  0
  -16.5000  -29.8560   23.7300 C   0  0  0  0  0  3  0  0  0  0  0  0
  -16.7270  -28.5950   23.1490 C   0  0  0  0  0  3  0  0  0  0  0  0
  -25.9120  -32.5670   23.8850 C   0  0  0  0  0  3  0  0  0  0  0  0
  -25.5960  -33.9710   24.2050 N   0  0  0  0  0  0  0  0  0  0  0  0
  -25.9180  -35.0270   23.4460 C   0  0  0  0  0  0  0  0  0  0  0  0
  -26.5730  -34.9200   22.4060 O   0  0  0  0  0  0  0  0  0  0  0  0
  -25.0110  -34.1260   25.0140 H   0  0  0  0  0  0  0  0  0  0  0  0
  -24.1800  -36.8240   23.1310 C   0  0  0  0  0  1  0  0  0  0  0  0
  -25.4430  -36.4190   23.9100 C   0  0  0  0  0  3  0  0  0  0  0  0
  -27.5920  -37.3210   24.6870 C   0  0  0  0  0  1  0  0  0  0  0  0
  -26.4710  -37.4740   23.7640 N   0  0  0  0  0  0  0  0  0  0  0  0
  -26.0660  -38.3950   23.9070 H   0  0  0  0  0  0  0  0  0  0  0  0
  -26.4090  -31.8170   25.1830 C   0  0  1  0  0  0  0  0  0  0  0  0
  -25.3010  -31.6020   26.2430 C   0  0  0  0  0  1  0  0  0  0  0  0
  -26.9930  -30.4300   24.8340 C   0  0  0  0  0  1  0  0  0  0  0  0
  -27.5540  -32.6200   25.8450 C   0  0  0  0  0  1  0  0  0  0  0  0
  2  3  2  0
  2 10  1  0
  3  9  1  0
  4  5  1  0
  5 19  1  0
  5 10  1  0
  6  4  1  0
  6  2  1  0
  6  7  1  6
  8  6  1  0
  9  1  2  0
 10  1  1  0
 11 19  1  0
 12 17  1  0
 13 14  1  0
 13 12  1  0
 15 14  1  0
 15 24  1  0
 15 16  1  0
 17 11  1  0
 17 16  1  0
 18 11  2  0
 19 20  1  0
 21 22  2  0
 22 41  1  0
 23 22  1  0
 23 26  1  0
 24 25  1  0
 24 21  1  0
 25 23  2  0
 26 27  1  0
 27 28  2  0
 29 32  1  0
 29 28  1  0
 30 29  2  0
 31 30  1  0
 31 26  2  0
 32 33  1  0
 33 34  1  0
 34 35  2  0
 36 35  1  0
 36 40  1  0
 37 36  2  0
 38 33  2  0
 38 37  1  0
 39 38  1  0
 41 42  1  0
 42 45  1  0
 42 44  1  0
 43 41  2  0
 46 47  1  0
 46 21  1  0
 48 46  1  0
 49  3  1  0
 49 50  1  0
 51 62  2  0
 52 50  1  0
 52 57  1  0
 53 61  1  0
 53 63  1  0
 54 60  1  0
 54 56  1  0
 55 61  1  0
 56 57  2  0
 56 55  1  0
 58 52  2  0
 59 58  1  0
 59 54  2  0
 60 53  1  0
 61 51  1  0
 63 65  2  0
 64 63  1  0
 66 64  1  0
 67 76  2  0
 67 72  1  0
 68 64  1  0
 68 72  1  0
 69 68  1  0
 70 71  1  0
 70 69  1  0
 71 67  1  0
 72 73  2  0
 73 74  1  0
 75 74  2  0
 76 75  1  0
 77 51  1  0
 77 78  1  0
 77 87  1  0
 78 81  1  0
 79 83  1  0
 79 78  1  0
 80 79  2  0
 83 82  1  0
 85 86  1  0
 85 83  1  0
 85 84  1  0
 87 90  1  1
 87 88  1  0
 89 87  1  0
M  ISO  4  11 100  19 100  49 101  50 101
M  END
>  <TORSDO>  (37) 
F 17

>  <SCORE>  (37) 
-16.662

>  <name>  (37) 
36

>  <ligand_id>  (37) 
36

>  <original_smiles>  (37) 
[H]c1c([H])c([H])c2c(c1[H])C([H])([H])C([H])([H])C([H])([H])C2([H])N([H])C(=O)C1([H])N(C(=O)C([H])(N([H])C(=O)C([H])(N([H])C([H])([H])[H])C([H])([H])[H])C(C([H])([H])[H])(C([H])([H])[H])C([H])([H])[H])C([H])([H])c2c([H])c(OC([H])([H])c3nc([H])n4c3C(C([H])([H])[H])(C([H])([H])[H])C([H])([H])C4([H])N([H])C(=O)N3C([H])([H])C([H])([H])C([H])([H])C([H])(n4nc(-c5c([H])c([H])c(Oc6c([H])c([H])c(F)c([H])c6F)c([H])c5[H])c(C(=O)N([H])[H])c4N([H])[H])C3([H])[H])c([H])c([H])c2C1([H])[H]

>  <smiles>  (37) 
[H]c1c([H])c([H])c2c(c1[H])C([H])([H])C([H])([H])C([H])([H])C2([H])N([H])C(=O)C1([H])N(C(=O)C([H])(N([H])C(=O)C([H])(N([H])C([H])([H])[H])C([H])([H])[H])C(C([H])([H])[H])(C([H])([H])[H])C([H])([H])[H])C([H])([H])c2c([H])c(OC([H])([H])c3nc([H])n4c3C(C([H])([H])[H])(C([H])([H])[H])C([H])([H])C4([H])N([H])C(=O)N3C([H])([H])C([H])([H])C([H])([H])C([H])(n4nc(-c5c([H])c([H])c(Oc6c([H])c([H])c(F)c([H])c6F)c([H])c5[H])c(C(=O)N([H])[H])c4N([H])[H])C3([H])[H])c([H])c([H])c2C1([H])[H]

$$$$
37:0:0
     RDKit          3D

 91100  0  0  1  0  0  0  0  0999 V2000
  -29.7140  -23.4350   18.5120 C   0  0  0  0  0  3  0  0  0  0  0  0
  -29.2680  -22.5270   19.5270 C   0  0  0  0  0  0  0  0  0  0  0  0
  -28.3640  -23.2710   20.3710 C   0  0  0  0  0  3  0  0  0  0  0  0
  -28.5480  -25.3850   19.2220 C   0  0  0  0  0  0  0  0  0  0  0  0
  -29.3960  -24.7760   18.3770 N   0  0  0  0  0  0  0  0  0  0  0  0
  -28.0520  -24.6340   20.2340 N   0  0  0  0  0  0  0  0  0  0  0  0
  -26.7250  -21.4840   21.3500 C   0  0  0  0  0  2  0  0  0  0  0  0
  -26.2410  -22.8190   21.8460 C   0  0  0  0  0  2  0  0  0  0  0  0
  -27.7120  -22.6150   21.5500 C   0  0  0  0  0  3  0  0  0  0  0  0
  -29.8380  -21.0060   19.5630 C   0  0  0  0  0  3  0  0  0  0  0  0
  -29.7090  -19.7630   20.2420 C   0  0  0  0  0  3  0  0  0  0  0  0
  -30.6120  -18.3830   20.0670 C   0  0  0  0  0  2  0  0  0  0  0  0
  -31.0200  -15.6870   20.3180 C   0  0  0  0  0  0  0  0  0  0  0  0
  -30.9680  -13.2960   19.4760 C   0  0  0  0  0  2  0  0  0  0  0  0
  -30.0850  -13.1890   18.2130 C   0  0  0  0  0  2  0  0  0  0  0  0
  -28.6090  -12.9720   18.5980 C   0  0  0  0  0  2  0  0  0  0  0  0
  -28.1460  -13.9300   19.7270 C   0  0  0  0  0  3  0  0  0  0  0  0
  -29.1580  -14.0080   20.8890 C   0  0  0  0  0  2  0  0  0  0  0  0
  -30.4420  -14.4180   20.3090 N   0  0  0  0  0  0  0  0  0  0  0  0
  -32.2270  -15.7520   20.0620 O   0  0  0  0  0  0  0  0  0  0  0  0
  -30.2350  -16.8770   20.3920 N   0  0  0  0  0  0  0  0  0  0  0  0
  -29.2580  -16.7130   20.5830 H   0  0  0  0  0  0  0  0  0  0  0  0
  -25.7530  -14.4960   20.4330 C   0  0  0  0  0  0  0  0  0  0  0  0
  -24.6800  -13.7170   20.7610 C   0  0  0  0  0  0  0  0  0  0  0  0
  -25.1410  -12.3650   20.7060 C   0  0  0  0  0  0  0  0  0  0  0  0
  -26.7980  -13.6200   20.1910 N   0  0  0  0  0  0  0  0  0  0  0  0
  -26.4380  -12.3310   20.4210 N   0  0  0  0  0  0  0  0  0  0  0  0
  -24.4050  -11.1010   20.8470 C   0  0  0  0  0  0  0  0  0  0  0  0
  -24.7840  -10.1280   21.7990 C   0  0  0  0  0  3  0  0  0  0  0  0
  -24.0480   -8.9310   21.9300 C   0  0  0  0  0  3  0  0  0  0  0  0
  -22.9190   -8.6970   21.1090 C   0  0  0  0  0  0  0  0  0  0  0  0
  -22.5600   -9.6580   20.1480 C   0  0  0  0  0  3  0  0  0  0  0  0
  -23.2970  -10.8470   20.0150 C   0  0  0  0  0  3  0  0  0  0  0  0
  -22.1610   -7.5530   21.1490 O   0  0  0  0  0  0  0  0  0  0  0  0
  -21.9970   -6.8370   22.3080 C   0  0  0  0  0  0  0  0  0  0  0  0
  -21.4320   -7.4120   23.4660 C   0  0  0  0  0  3  0  0  0  0  0  0
  -21.2180   -6.6210   24.6120 C   0  0  0  0  0  3  0  0  0  0  0  0
  -21.5600   -5.2560   24.6000 C   0  0  0  0  0  0  0  0  0  0  0  0
  -22.1180   -4.6790   23.4470 C   0  0  0  0  0  3  0  0  0  0  0  0
  -22.3340   -5.4670   22.3020 C   0  0  0  0  0  0  0  0  0  0  0  0
  -22.8510   -4.9020   21.1850 F   0  0  0  0  0  0  0  0  0  0  0  0
  -21.3490   -4.4940   25.6990 F   0  0  0  0  0  0  0  0  0  0  0  0
  -23.2790  -14.1930   21.0120 C   0  0  0  0  0  0  0  0  0  0  0  0
  -22.5290  -13.4800   21.8460 N   0  0  0  0  0  0  0  0  0  0  0  0
  -22.8570  -15.2310   20.5050 O   0  0  0  0  0  0  0  0  0  0  0  0
  -22.8830  -12.6390   22.2780 H   0  0  0  0  0  0  0  0  0  0  0  0
  -21.5890  -13.7810   22.0560 H   0  0  0  0  0  0  0  0  0  0  0  0
  -25.9250  -15.8700   20.2930 N   0  0  0  0  0  0  0  0  0  0  0  0
  -25.1550  -16.5230   20.4010 H   0  0  0  0  0  0  0  0  0  0  0  0
  -26.7700  -16.3120   19.9550 H   0  0  0  0  0  0  0  0  0  0  0  0
  -28.5070  -26.8250   19.2060 O   0  0  0  0  0  0  0  0  0  0  0  0
  -24.8130  -31.8440   23.1490 C   0  0  0  0  0  0  0  0  0  0  0  0
  -27.3670  -27.6910   19.3730 C   0  0  0  0  0  0  0  0  0  0  0  0
  -23.5740  -30.6670   21.3700 C   0  0  0  0  0  3  0  0  0  0  0  0
  -24.9940  -29.3460   19.6790 C   0  0  0  0  0  0  0  0  0  0  0  0
  -26.1090  -31.0260   21.1460 C   0  0  0  0  0  2  0  0  0  0  0  0
  -26.1840  -29.7410   20.3030 C   0  0  0  0  0  0  0  0  0  0  0  0
  -27.3660  -28.9300   20.1350 C   0  0  0  0  0  3  0  0  0  0  0  0
  -26.1490  -27.3980   18.7250 C   0  0  0  0  0  3  0  0  0  0  0  0
  -24.9880  -28.1910   18.8780 C   0  0  0  0  0  3  0  0  0  0  0  0
  -23.7510  -30.1950   19.9010 C   0  0  0  0  0  2  0  0  0  0  0  0
  -24.8540  -31.1950   21.9450 N   0  0  0  0  0  0  0  0  0  0  0  0
  -23.7450  -32.0180   23.7550 O   0  0  0  0  0  0  0  0  0  0  0  0
  -22.9610  -29.5140   22.2020 C   0  0  0  0  0  0  0  0  0  0  0  0
  -21.6360  -29.3110   22.0840 N   0  0  0  0  0  0  0  0  0  0  0  0
  -23.6770  -28.8080   22.9170 O   0  0  0  0  0  0  0  0  0  0  0  0
  -21.1120  -29.9350   21.4870 H   0  0  0  0  0  0  0  0  0  0  0  0
  -18.3110  -27.9490   22.5310 C   0  0  0  0  0  0  0  0  0  0  0  0
  -20.8710  -28.2470   22.7390 C   0  0  0  0  0  3  0  0  0  0  0  0
  -20.9840  -26.9180   21.9550 C   0  0  0  0  0  2  0  0  0  0  0  0
  -19.8500  -26.7150   20.9450 C   0  0  0  0  0  2  0  0  0  0  0  0
  -18.4920  -26.7210   21.6540 C   0  0  0  0  0  2  0  0  0  0  0  0
  -19.4260  -28.6750   23.0260 C   0  0  0  0  0  0  0  0  0  0  0  0
  -19.2000  -29.8270   23.8100 C   0  0  0  0  0  3  0  0  0  0  0  0
  -17.8900  -30.2550   24.0990 C   0  0  0  0  0  3  0  0  0  0  0  0
  -16.7900  -29.5260   23.6170 C   0  0  0  0  0  3  0  0  0  0  0  0
  -17.0010  -28.3730   22.8390 C   0  0  0  0  0  3  0  0  0  0  0  0
  -26.1030  -32.4170   23.8130 C   0  0  0  0  0  3  0  0  0  0  0  0
  -26.6910  -31.4780   24.9390 C   0  0  1  0  0  0  0  0  0  0  0  0
  -25.6520  -31.0560   26.0030 C   0  0  0  0  0  1  0  0  0  0  0  0
  -27.2850  -30.1880   24.3260 C   0  0  0  0  0  1  0  0  0  0  0  0
  -27.8540  -32.1960   25.6650 C   0  0  0  0  0  1  0  0  0  0  0  0
  -25.7720  -33.7380   24.3700 N   0  0  0  0  0  0  0  0  0  0  0  0
  -26.0300  -34.9080   23.7700 C   0  0  0  0  0  0  0  0  0  0  0  0
  -26.6400  -34.9880   22.7000 O   0  0  0  0  0  0  0  0  0  0  0  0
  -25.2220  -33.7470   25.2160 H   0  0  0  0  0  0  0  0  0  0  0  0
  -24.2280  -36.6640   23.8120 C   0  0  0  0  0  1  0  0  0  0  0  0
  -25.5370  -36.1920   24.4650 C   0  0  0  0  0  3  0  0  0  0  0  0
  -27.6950  -37.0370   25.2790 C   0  0  0  0  0  1  0  0  0  0  0  0
  -26.5260  -37.2920   24.4420 N   0  0  0  0  0  0  0  0  0  0  0  0
  -26.1020  -38.1640   24.7480 H   0  0  0  0  0  0  0  0  0  0  0  0
  1  2  2  0
  2 10  1  0
  2  3  1  0
  3  9  1  0
  4  6  2  0
  5  1  1  0
  5  4  2  0
  6  3  1  0
  7  9  1  0
  7  8  1  0
  9  8  1  0
 10 11  2  0
 12 11  1  0
 12 21  1  0
 13 21  1  0
 14 19  1  0
 15 16  1  0
 15 14  1  0
 17 16  1  0
 17 26  1  0
 17 18  1  0
 19 13  1  0
 19 18  1  0
 20 13  2  0
 21 22  1  0
 23 24  2  0
 24 43  1  0
 25 24  1  0
 25 28  1  0
 26 27  1  0
 26 23  1  0
 27 25  2  0
 28 29  1  0
 29 30  2  0
 31 34  1  0
 31 30  1  0
 32 31  2  0
 33 32  1  0
 33 28  2  0
 34 35  1  0
 35 36  1  0
 36 37  2  0
 38 37  1  0
 38 42  1  0
 39 38  2  0
 40 35  2  0
 40 39  1  0
 41 40  1  0
 43 44  1  0
 44 47  1  0
 44 46  1  0
 45 43  2  0
 48 49  1  0
 48 23  1  0
 50 48  1  0
 51  4  1  0
 51 53  1  0
 52 63  2  0
 53 58  1  0
 54 62  1  0
 54 64  1  0
 55 61  1  0
 55 57  1  0
 56 62  1  0
 57 56  1  0
 58 57  2  0
 59 60  1  0
 59 53  2  0
 60 55  2  0
 61 54  1  0
 62 52  1  0
 64 66  2  0
 65 64  1  0
 67 65  1  0
 68 77  2  0
 68 73  1  0
 69 65  1  0
 69 73  1  0
 70 69  1  0
 71 72  1  0
 71 70  1  0
 72 68  1  0
 73 74  2  0
 74 75  1  0
 76 75  2  0
 77 76  1  0
 78 52  1  0
 78 83  1  0
 78 79  1  0
 79 82  1  1
 79 80  1  0
 81 79  1  0
 83 86  1  0
 84 83  1  0
 84 88  1  0
 85 84  2  0
 88 87  1  0
 90 88  1  0
 90 91  1  0
 90 89  1  0
M  ISO  4   4 101  13 100  21 100  51 101
M  END
>  <TORSDO>  (38) 
F 19

>  <SCORE>  (38) 
-9.903

>  <name>  (38) 
37

>  <ligand_id>  (38) 
37

>  <original_smiles>  (38) 
[H]C(=C([H])C([H])([H])N([H])C(=O)N1C([H])([H])C([H])([H])C([H])([H])C([H])(n2nc(-c3c([H])c([H])c(Oc4c([H])c([H])c(F)c([H])c4F)c([H])c3[H])c(C(=O)N([H])[H])c2N([H])[H])C1([H])[H])c1c([H])nc(Oc2c([H])c([H])c3c(c2[H])C([H])([H])N(C(=O)C([H])(N([H])C(=O)C([H])(N([H])C([H])([H])[H])C([H])([H])[H])C(C([H])([H])[H])(C([H])([H])[H])C([H])([H])[H])C([H])(C(=O)N([H])C2([H])c4c([H])c([H])c([H])c([H])c4C([H])([H])C([H])([H])C2([H])[H])C3([H])[H])nc1C1([H])C([H])([H])C1([H])[H]

>  <smiles>  (38) 
[H]C(=C([H])C([H])([H])N([H])C(=O)N1C([H])([H])C([H])([H])C([H])([H])C([H])(n2nc(-c3c([H])c([H])c(Oc4c([H])c([H])c(F)c([H])c4F)c([H])c3[H])c(C(=O)N([H])[H])c2N([H])[H])C1([H])[H])c1c([H])nc(Oc2c([H])c([H])c3c(c2[H])C([H])([H])N(C(=O)C([H])(N([H])C(=O)C([H])(N([H])C([H])([H])[H])C([H])([H])[H])C(C([H])([H])[H])(C([H])([H])[H])C([H])([H])[H])C([H])(C(=O)N([H])C2([H])c4c([H])c([H])c([H])c([H])c4C([H])([H])C([H])([H])C2([H])[H])C3([H])[H])nc1C1([H])C([H])([H])C1([H])[H]

$$$$
38:0:0
     RDKit          3D

 95104  0  0  1  0  0  0  0  0999 V2000
  -27.8890  -22.2180   19.9730 C   0  0  0  0  0  3  0  0  0  0  0  0
  -27.4300  -23.6090   20.0500 C   0  0  0  0  0  0  0  0  0  0  0  0
  -29.2640  -21.8410   19.9810 C   0  0  0  0  0  0  0  0  0  0  0  0
  -28.3860  -24.7260   20.0710 C   0  0  0  0  0  0  0  0  0  0  0  0
  -30.0980  -22.9370   20.0390 N   0  0  0  0  0  0  0  0  0  0  0  0
  -29.6930  -24.2550   20.0670 N   0  0  0  0  0  0  0  0  0  0  0  0
  -29.8760  -20.4820   19.9620 N   0  0  0  0  0  0  0  0  0  0  0  0
  -30.8910  -20.5630   19.9770 H   0  0  0  0  0  0  0  0  0  0  0  0
  -30.6200  -15.0940   19.8670 C   0  0  0  0  0  0  0  0  0  0  0  0
  -30.4040  -12.7390   18.9420 C   0  0  0  0  0  2  0  0  0  0  0  0
  -29.3930  -12.6660   17.7760 C   0  0  0  0  0  2  0  0  0  0  0  0
  -27.9640  -12.4450   18.3000 C   0  0  0  0  0  2  0  0  0  0  0  0
  -27.6360  -13.3660   19.5060 C   0  0  0  0  0  3  0  0  0  0  0  0
  -28.7690  -13.3950   20.5510 C   0  0  0  0  0  2  0  0  0  0  0  0
  -29.9720  -13.8500   19.8420 N   0  0  0  0  0  0  0  0  0  0  0  0
  -31.8080  -15.0720   19.5250 O   0  0  0  0  0  0  0  0  0  0  0  0
  -28.5540  -18.3080   20.7470 C   0  0  0  0  0  2  0  0  0  0  0  0
  -28.6400  -16.7500   20.5070 C   0  0  0  0  0  2  0  0  0  0  0  0
  -30.5190  -17.7790   19.5930 C   0  0  0  0  0  2  0  0  0  0  0  0
  -29.4290  -19.0050   19.6900 C   0  0  0  0  0  3  0  0  0  0  0  0
  -29.9620  -16.3750   19.9530 N   0  0  0  0  0  0  0  0  0  0  0  0
  -25.3220  -13.9380   20.4340 C   0  0  0  0  0  0  0  0  0  0  0  0
  -24.2790  -13.1640   20.8550 C   0  0  0  0  0  0  0  0  0  0  0  0
  -24.7260  -11.8100   20.7500 C   0  0  0  0  0  0  0  0  0  0  0  0
  -26.3380  -13.0600   20.0950 N   0  0  0  0  0  0  0  0  0  0  0  0
  -25.9940  -11.7710   20.3530 N   0  0  0  0  0  0  0  0  0  0  0  0
  -24.0000  -10.5510   20.9570 C   0  0  0  0  0  0  0  0  0  0  0  0
  -24.4560   -9.5710   21.8660 C   0  0  0  0  0  3  0  0  0  0  0  0
  -23.7280   -8.3790   22.0610 C   0  0  0  0  0  3  0  0  0  0  0  0
  -22.5270   -8.1570   21.3460 C   0  0  0  0  0  0  0  0  0  0  0  0
  -22.0860   -9.1250   20.4250 C   0  0  0  0  0  3  0  0  0  0  0  0
  -22.8160  -10.3090   20.2310 C   0  0  0  0  0  3  0  0  0  0  0  0
  -21.7660   -7.0190   21.4530 O   0  0  0  0  0  0  0  0  0  0  0  0
  -21.7130   -6.2950   22.6160 C   0  0  0  0  0  0  0  0  0  0  0  0
  -21.2520   -6.8600   23.8250 C   0  0  0  0  0  3  0  0  0  0  0  0
  -21.1540   -6.0620   24.9820 C   0  0  0  0  0  3  0  0  0  0  0  0
  -21.5000   -4.6980   24.9270 C   0  0  0  0  0  0  0  0  0  0  0  0
  -21.9520   -4.1320   23.7220 C   0  0  0  0  0  3  0  0  0  0  0  0
  -22.0560   -4.9280   22.5690 C   0  0  0  0  0  0  0  0  0  0  0  0
  -22.4730   -4.3740   21.4050 F   0  0  0  0  0  0  0  0  0  0  0  0
  -21.3960   -3.9270   26.0350 F   0  0  0  0  0  0  0  0  0  0  0  0
  -22.9100  -13.6450   21.2360 C   0  0  0  0  0  0  0  0  0  0  0  0
  -22.2430  -12.9420   22.1440 N   0  0  0  0  0  0  0  0  0  0  0  0
  -22.4510  -14.6900   20.7740 O   0  0  0  0  0  0  0  0  0  0  0  0
  -22.6360  -12.1030   22.5430 H   0  0  0  0  0  0  0  0  0  0  0  0
  -21.3270  -13.2400   22.4410 H   0  0  0  0  0  0  0  0  0  0  0  0
  -25.4700  -15.3130   20.2780 N   0  0  0  0  0  0  0  0  0  0  0  0
  -24.6830  -15.9380   20.4130 H   0  0  0  0  0  0  0  0  0  0  0  0
  -26.2740  -15.7720   19.8710 H   0  0  0  0  0  0  0  0  0  0  0  0
  -28.2940  -26.2190   20.0780 O   0  0  0  0  0  0  0  0  0  0  0  0
  -24.6280  -31.8430   23.2320 C   0  0  0  0  0  0  0  0  0  0  0  0
  -27.2100  -27.1780   20.0890 C   0  0  0  0  0  0  0  0  0  0  0  0
  -23.4320  -30.4800   21.5620 C   0  0  0  0  0  3  0  0  0  0  0  0
  -24.8840  -28.9430   20.1000 C   0  0  0  0  0  0  0  0  0  0  0  0
  -25.9850  -30.7460   21.4120 C   0  0  0  0  0  2  0  0  0  0  0  0
  -26.0580  -29.3610   20.7400 C   0  0  0  0  0  0  0  0  0  0  0  0
  -27.2110  -28.4830   20.7400 C   0  0  0  0  0  3  0  0  0  0  0  0
  -26.0510  -26.9360   19.3270 C   0  0  0  0  0  3  0  0  0  0  0  0
  -24.8940  -27.7420   19.3780 C   0  0  0  0  0  3  0  0  0  0  0  0
  -23.6550  -29.8380   20.1670 C   0  0  0  0  0  2  0  0  0  0  0  0
  -24.7000  -31.0470   22.1220 N   0  0  0  0  0  0  0  0  0  0  0  0
  -23.5430  -32.1130   23.7710 O   0  0  0  0  0  0  0  0  0  0  0  0
  -22.7650  -29.4400   22.4960 C   0  0  0  0  0  0  0  0  0  0  0  0
  -21.4360  -29.2680   22.3740 N   0  0  0  0  0  0  0  0  0  0  0  0
  -23.4400  -28.7890   23.2950 O   0  0  0  0  0  0  0  0  0  0  0  0
  -20.9470  -29.8730   21.7300 H   0  0  0  0  0  0  0  0  0  0  0  0
  -18.0600  -28.0710   22.8870 C   0  0  0  0  0  0  0  0  0  0  0  0
  -20.6220  -28.3090   23.1260 C   0  0  0  0  0  3  0  0  0  0  0  0
  -20.7110  -26.8950   22.5120 C   0  0  0  0  0  2  0  0  0  0  0  0
  -19.6030  -26.6150   21.4940 C   0  0  0  0  0  2  0  0  0  0  0  0
  -18.2240  -26.7460   22.1580 C   0  0  0  0  0  2  0  0  0  0  0  0
  -19.1880  -28.8150   23.3220 C   0  0  0  0  0  0  0  0  0  0  0  0
  -18.9880  -30.0610   23.9520 C   0  0  0  0  0  3  0  0  0  0  0  0
  -17.6900  -30.5680   24.1480 C   0  0  0  0  0  3  0  0  0  0  0  0
  -16.5740  -29.8200   23.7340 C   0  0  0  0  0  3  0  0  0  0  0  0
  -16.7580  -28.5730   23.1080 C   0  0  0  0  0  3  0  0  0  0  0  0
  -25.9060  -32.4670   23.8710 C   0  0  0  0  0  3  0  0  0  0  0  0
  -26.4040  -31.6900   25.1500 C   0  0  1  0  0  0  0  0  0  0  0  0
  -25.2990  -31.4470   26.2060 C   0  0  0  0  0  1  0  0  0  0  0  0
  -26.9900  -30.3120   24.7660 C   0  0  0  0  0  1  0  0  0  0  0  0
  -27.5460  -32.4790   25.8300 C   0  0  0  0  0  1  0  0  0  0  0  0
  -25.5970  -33.8640   24.2110 N   0  0  0  0  0  0  0  0  0  0  0  0
  -25.8990  -34.9230   23.4470 C   0  0  0  0  0  0  0  0  0  0  0  0
  -26.5320  -34.8280   22.3930 O   0  0  0  0  0  0  0  0  0  0  0  0
  -25.0180  -34.0120   25.0260 H   0  0  0  0  0  0  0  0  0  0  0  0
  -24.1380  -36.7040   23.1690 C   0  0  0  0  0  1  0  0  0  0  0  0
  -25.4160  -36.3070   23.9270 C   0  0  0  0  0  3  0  0  0  0  0  0
  -27.5690  -37.2170   24.6770 C   0  0  0  0  0  1  0  0  0  0  0  0
  -26.4330  -37.3700   23.7720 N   0  0  0  0  0  0  0  0  0  0  0  0
  -26.0230  -38.2870   23.9290 H   0  0  0  0  0  0  0  0  0  0  0  0
  -25.9050  -23.7330   20.1040 C   0  0  0  0  0  2  0  0  0  0  0  0
  -25.3860  -24.1740   21.4080 N   0  0  0  0  0  4  0  0  0  0  0  0
  -25.7010  -23.5660   22.1430 H   0  0  0  0  0  0  0  0  0  0  0  0
  -24.3810  -24.1380   21.3910 H   0  0  0  0  0  0  0  0  0  0  0  0
  -25.6650  -25.1140   21.6140 H   0  0  0  0  0  0  0  0  0  0  0  0
  1  3  1  0
  1  2  2  0
  2  4  1  0
  2 91  1  0
  3  5  2  0
  4 50  1  0
  5  6  1  0
  6  4  2  0
  7  8  1  0
  7  3  1  0
  9 21  1  0
 10 15  1  0
 11 12  1  0
 11 10  1  0
 13 12  1  0
 13 25  1  0
 13 14  1  0
 15  9  1  0
 15 14  1  0
 16  9  2  0
 18 17  1  0
 19 20  1  0
 19 21  1  0
 20  7  1  0
 20 17  1  0
 21 18  1  0
 22 23  2  0
 23 42  1  0
 24 23  1  0
 24 27  1  0
 25 26  1  0
 25 22  1  0
 26 24  2  0
 27 28  1  0
 28 29  2  0
 30 33  1  0
 30 29  1  0
 31 30  2  0
 32 31  1  0
 32 27  2  0
 33 34  1  0
 34 35  1  0
 35 36  2  0
 37 36  1  0
 37 41  1  0
 38 37  2  0
 39 34  2  0
 39 38  1  0
 40 39  1  0
 42 43  1  0
 43 46  1  0
 43 45  1  0
 44 42  2  0
 47 48  1  0
 47 22  1  0
 49 47  1  0
 50 52  1  0
 51 62  2  0
 52 57  1  0
 53 61  1  0
 53 63  1  0
 54 60  1  0
 54 56  1  0
 55 61  1  0
 56 57  2  0
 56 55  1  0
 58 59  1  0
 58 52  2  0
 59 54  2  0
 60 53  1  0
 61 51  1  0
 63 65  2  0
 64 63  1  0
 66 64  1  0
 67 76  2  0
 67 72  1  0
 68 64  1  0
 68 72  1  0
 69 68  1  0
 70 71  1  0
 70 69  1  0
 71 67  1  0
 72 73  2  0
 73 74  1  0
 75 74  2  0
 76 75  1  0
 77 51  1  0
 77 82  1  0
 77 78  1  0
 78 81  1  1
 78 79  1  0
 80 78  1  0
 82 85  1  0
 83 87  1  0
 83 82  1  0
 84 83  2  0
 87 86  1  0
 89 87  1  0
 89 90  1  0
 89 88  1  0
 91 92  1  0
 92 95  1  0
 92 93  1  0
 94 92  1  0
M  ISO  4   4 101   9 100  21 100  50 101
M  END
>  <TORSDO>  (39) 
F 18

>  <SCORE>  (39) 
-14.751

>  <name>  (39) 
38

>  <ligand_id>  (39) 
38

>  <original_smiles>  (39) 
[H]c1c([H])c([H])c2c(c1[H])C([H])([H])C([H])([H])C([H])([H])C2([H])N([H])C(=O)C1([H])N(C(=O)C([H])(N([H])C(=O)C([H])(N([H])C([H])([H])[H])C([H])([H])[H])C(C([H])([H])[H])(C([H])([H])[H])C([H])([H])[H])C([H])([H])c2c([H])c(Oc3nnc(N([H])C4([H])C([H])([H])N(C(=O)N5C([H])([H])C([H])([H])C([H])([H])C([H])(n6nc(-c7c([H])c([H])c(Oc8c([H])c([H])c(F)c([H])c8F)c([H])c7[H])c(C(=O)N([H])[H])c6N([H])[H])C5([H])[H])C([H])([H])C4([H])[H])c([H])c3C([H])([H])[N+]([H])([H])[H])c([H])c([H])c2C1([H])[H]

>  <smiles>  (39) 
[H]c1c([H])c([H])c2c(c1[H])C([H])([H])C([H])([H])C([H])([H])C2([H])N([H])C(=O)C1([H])N(C(=O)C([H])(N([H])C(=O)C([H])(N([H])C([H])([H])[H])C([H])([H])[H])C(C([H])([H])[H])(C([H])([H])[H])C([H])([H])[H])C([H])([H])c2c([H])c(Oc3nnc(N([H])C4([H])C([H])([H])N(C(=O)N5C([H])([H])C([H])([H])C([H])([H])C([H])(n6nc(-c7c([H])c([H])c(Oc8c([H])c([H])c(F)c([H])c8F)c([H])c7[H])c(C(=O)N([H])[H])c6N([H])[H])C5([H])[H])C([H])([H])C4([H])[H])c([H])c3C([H])([H])[N+]([H])([H])[H])c([H])c([H])c2C1([H])[H]

$$$$
39:0:0
     RDKit          3D

 94102  0  0  1  0  0  0  0  0999 V2000
  -30.6130  -18.8250   20.2350 C   0  0  0  0  0  0  0  0  0  0  0  0
  -29.5570  -19.6740   20.5320 C   0  0  0  0  0  3  0  0  0  0  0  0
  -32.0200  -19.4250   20.0020 C   0  0  0  0  0  2  0  0  0  0  0  0
  -30.9280  -17.1700   18.3190 C   0  0  0  0  0  2  0  0  0  0  0  0
  -31.6800  -18.3970   17.7440 C   0  0  0  0  0  2  0  0  0  0  0  0
  -30.7250  -17.2650   19.8560 C   0  0  0  0  0  3  0  0  0  0  0  0
  -32.6360  -18.9620   18.7270 N   0  0  0  0  0  4  0  0  0  0  0  0
  -33.3290  -18.2600   18.9340 H   0  0  0  0  0  0  0  0  0  0  0  0
  -33.1310  -19.7330   18.3060 H   0  0  0  0  0  0  0  0  0  0  0  0
  -30.6920  -14.7500   20.3670 C   0  0  0  0  0  0  0  0  0  0  0  0
  -30.3660  -12.4990   19.3670 C   0  0  0  0  0  2  0  0  0  0  0  0
  -29.4410  -12.5990   18.1370 C   0  0  0  0  0  2  0  0  0  0  0  0
  -27.9720  -12.4490   18.5690 C   0  0  0  0  0  2  0  0  0  0  0  0
  -27.6100  -13.3300   19.7940 C   0  0  0  0  0  3  0  0  0  0  0  0
  -28.6760  -13.2640   20.9110 C   0  0  0  0  0  2  0  0  0  0  0  0
  -29.9700  -13.5810   20.2990 N   0  0  0  0  0  0  0  0  0  0  0  0
  -31.8930  -14.7160   20.0900 O   0  0  0  0  0  0  0  0  0  0  0  0
  -30.0660  -15.9970   20.4280 N   0  0  0  0  0  0  0  0  0  0  0  0
  -29.0740  -16.0170   20.6200 H   0  0  0  0  0  0  0  0  0  0  0  0
  -25.2270  -13.9100   20.5350 C   0  0  0  0  0  0  0  0  0  0  0  0
  -24.1620  -13.1330   20.9030 C   0  0  0  0  0  0  0  0  0  0  0  0
  -24.6270  -11.7810   20.8670 C   0  0  0  0  0  0  0  0  0  0  0  0
  -26.2710  -13.0330   20.2940 N   0  0  0  0  0  0  0  0  0  0  0  0
  -25.9180  -11.7470   20.5580 N   0  0  0  0  0  0  0  0  0  0  0  0
  -23.9010  -10.5170   21.0530 C   0  0  0  0  0  0  0  0  0  0  0  0
  -24.3300   -9.5480   21.9850 C   0  0  0  0  0  3  0  0  0  0  0  0
  -23.6030   -8.3510   22.1600 C   0  0  0  0  0  3  0  0  0  0  0  0
  -22.4310   -8.1150   21.4030 C   0  0  0  0  0  0  0  0  0  0  0  0
  -22.0200   -9.0730   20.4600 C   0  0  0  0  0  3  0  0  0  0  0  0
  -22.7470  -10.2620   20.2830 C   0  0  0  0  0  3  0  0  0  0  0  0
  -21.6760   -6.9700   21.4870 O   0  0  0  0  0  0  0  0  0  0  0  0
  -21.6170   -6.2280   22.6400 C   0  0  0  0  0  0  0  0  0  0  0  0
  -21.1790   -6.7840   23.8610 C   0  0  0  0  0  3  0  0  0  0  0  0
  -21.0690   -5.9700   25.0060 C   0  0  0  0  0  3  0  0  0  0  0  0
  -21.3850   -4.6000   24.9310 C   0  0  0  0  0  0  0  0  0  0  0  0
  -21.8160   -4.0440   23.7140 C   0  0  0  0  0  3  0  0  0  0  0  0
  -21.9290   -4.8550   22.5720 C   0  0  0  0  0  0  0  0  0  0  0  0
  -22.3250   -4.3090   21.3960 F   0  0  0  0  0  0  0  0  0  0  0  0
  -21.2710   -3.8170   26.0290 F   0  0  0  0  0  0  0  0  0  0  0  0
  -22.7660  -13.6080   21.1760 C   0  0  0  0  0  0  0  0  0  0  0  0
  -22.0380  -12.9060   22.0370 N   0  0  0  0  0  0  0  0  0  0  0  0
  -22.3290  -14.6370   20.6600 O   0  0  0  0  0  0  0  0  0  0  0  0
  -22.4060  -12.0760   22.4760 H   0  0  0  0  0  0  0  0  0  0  0  0
  -21.0980  -13.2010   22.2600 H   0  0  0  0  0  0  0  0  0  0  0  0
  -25.3890  -15.2820   20.3600 N   0  0  0  0  0  0  0  0  0  0  0  0
  -24.6200  -15.9350   20.4730 H   0  0  0  0  0  0  0  0  0  0  0  0
  -26.2320  -15.7210   20.0180 H   0  0  0  0  0  0  0  0  0  0  0  0
  -29.6070  -21.2300   20.9410 C   0  0  0  0  0  2  0  0  0  0  0  0
  -28.8280  -22.3250   20.1970 N   0  0  0  0  0  4  0  0  0  0  0  0
  -27.8480  -22.1320   20.3310 H   0  0  0  0  0  0  0  0  0  0  0  0
  -29.0060  -22.2290   19.2100 H   0  0  0  0  0  0  0  0  0  0  0  0
  -29.0870  -23.8020   20.5830 C   0  0  0  0  0  3  0  0  0  0  0  0
  -28.0610  -24.9420   20.0670 C   0  0  0  0  0  3  0  0  0  0  0  0
  -28.2930  -26.4130   20.2970 O   0  0  0  0  0  0  0  0  0  0  0  0
  -24.6030  -31.9160   23.2480 C   0  0  0  0  0  0  0  0  0  0  0  0
  -27.1970  -27.3040   20.2170 C   0  0  0  0  0  0  0  0  0  0  0  0
  -23.3990  -30.5190   21.6110 C   0  0  0  0  0  3  0  0  0  0  0  0
  -24.8460  -28.9580   20.1900 C   0  0  0  0  0  0  0  0  0  0  0  0
  -25.9440  -30.8170   21.4330 C   0  0  0  0  0  2  0  0  0  0  0  0
  -26.0200  -29.4350   20.7880 C   0  0  0  0  0  0  0  0  0  0  0  0
  -27.1980  -28.6210   20.7880 C   0  0  0  0  0  3  0  0  0  0  0  0
  -26.0000  -26.8990   19.5820 C   0  0  0  0  0  3  0  0  0  0  0  0
  -24.8410  -27.6970   19.5780 C   0  0  0  0  0  3  0  0  0  0  0  0
  -23.6140  -29.8410   20.2330 C   0  0  0  0  0  2  0  0  0  0  0  0
  -24.6680  -31.1010   22.1540 N   0  0  0  0  0  0  0  0  0  0  0  0
  -23.5200  -32.2000   23.7780 O   0  0  0  0  0  0  0  0  0  0  0  0
  -22.7290  -29.5060   22.5720 C   0  0  0  0  0  0  0  0  0  0  0  0
  -21.4020  -29.3350   22.4430 N   0  0  0  0  0  0  0  0  0  0  0  0
  -23.4020  -28.8790   23.3950 O   0  0  0  0  0  0  0  0  0  0  0  0
  -20.9180  -29.8920   21.7530 H   0  0  0  0  0  0  0  0  0  0  0  0
  -18.0150  -28.1660   22.9490 C   0  0  0  0  0  0  0  0  0  0  0  0
  -20.5760  -28.4030   23.2150 C   0  0  0  0  0  3  0  0  0  0  0  0
  -20.6650  -26.9730   22.6370 C   0  0  0  0  0  2  0  0  0  0  0  0
  -19.5580  -26.6600   21.6250 C   0  0  0  0  0  2  0  0  0  0  0  0
  -18.1790  -26.8140   22.2730 C   0  0  0  0  0  2  0  0  0  0  0  0
  -19.1400  -28.9170   23.3770 C   0  0  0  0  0  0  0  0  0  0  0  0
  -18.9340  -30.1820   23.9710 C   0  0  0  0  0  3  0  0  0  0  0  0
  -17.6320  -30.6930   24.1410 C   0  0  0  0  0  3  0  0  0  0  0  0
  -16.5210  -29.9380   23.7300 C   0  0  0  0  0  3  0  0  0  0  0  0
  -16.7130  -28.6760   23.1390 C   0  0  0  0  0  3  0  0  0  0  0  0
  -25.8860  -32.5470   23.8720 C   0  0  0  0  0  3  0  0  0  0  0  0
  -26.3950  -31.7780   25.1540 C   0  0  1  0  0  0  0  0  0  0  0  0
  -25.2960  -31.5450   26.2180 C   0  0  0  0  0  1  0  0  0  0  0  0
  -26.9750  -30.3970   24.7680 C   0  0  0  0  0  1  0  0  0  0  0  0
  -27.5440  -32.5720   25.8170 C   0  0  0  0  0  1  0  0  0  0  0  0
  -25.5760  -33.9470   24.2000 N   0  0  0  0  0  0  0  0  0  0  0  0
  -25.9080  -34.9990   23.4400 C   0  0  0  0  0  0  0  0  0  0  0  0
  -26.5740  -34.8930   22.4060 O   0  0  0  0  0  0  0  0  0  0  0  0
  -24.9850  -34.1030   25.0030 H   0  0  0  0  0  0  0  0  0  0  0  0
  -24.1830  -36.7970   23.0890 C   0  0  0  0  0  1  0  0  0  0  0  0
  -25.4260  -36.3890   23.8970 C   0  0  0  0  0  3  0  0  0  0  0  0
  -27.5620  -37.2710   24.7260 C   0  0  0  0  0  1  0  0  0  0  0  0
  -26.4600  -37.4400   23.7820 N   0  0  0  0  0  0  0  0  0  0  0  0
  -26.0580  -38.3630   23.9250 H   0  0  0  0  0  0  0  0  0  0  0  0
  1  2  2  0
  2 48  1  0
  3  1  1  0
  4  6  1  0
  5  4  1  0
  5  7  1  0
  6  1  1  0
  6 18  1  0
  7  8  1  0
  7  3  1  0
  9  7  1  0
 10 18  1  0
 11 16  1  0
 12 13  1  0
 12 11  1  0
 14 13  1  0
 14 23  1  0
 14 15  1  0
 16 10  1  0
 16 15  1  0
 17 10  2  0
 18 19  1  0
 20 21  2  0
 21 40  1  0
 22 21  1  0
 22 25  1  0
 23 20  1  0
 23 24  1  0
 24 22  2  0
 25 26  1  0
 26 27  2  0
 28 31  1  0
 28 27  1  0
 29 28  2  0
 30 29  1  0
 30 25  2  0
 31 32  1  0
 32 33  1  0
 33 34  2  0
 35 34  1  0
 35 39  1  0
 36 35  2  0
 37 32  2  0
 37 36  1  0
 38 37  1  0
 40 41  1  0
 41 44  1  0
 41 43  1  0
 42 40  2  0
 45 46  1  0
 45 20  1  0
 47 45  1  0
 49 50  1  0
 49 52  1  0
 49 48  1  0
 51 49  1  0
 53 54  1  0
 53 52  2  0
 55 66  2  0
 56 54  1  0
 56 61  1  0
 57 65  1  0
 57 67  1  0
 58 64  1  0
 58 60  1  0
 59 65  1  0
 60 59  1  0
 61 60  2  0
 62 56  2  0
 63 62  1  0
 63 58  2  0
 64 57  1  0
 65 55  1  0
 67 69  2  0
 68 67  1  0
 70 68  1  0
 71 80  2  0
 71 76  1  0
 72 68  1  0
 72 76  1  0
 73 72  1  0
 74 75  1  0
 74 73  1  0
 75 71  1  0
 76 77  2  0
 77 78  1  0
 79 78  2  0
 80 79  1  0
 81 55  1  0
 81 86  1  0
 81 82  1  0
 82 85  1  1
 82 83  1  0
 84 82  1  0
 86 89  1  0
 87 91  1  0
 87 86  1  0
 88 87  2  0
 91 90  1  0
 93 91  1  0
 93 94  1  0
 93 92  1  0
M  ISO  4  10 100  18 100  53 101  54 101
M  END
>  <TORSDO>  (40) 
F 20

>  <SCORE>  (40) 
-13.811

>  <name>  (40) 
39

>  <ligand_id>  (40) 
39

>  <original_smiles>  (40) 
[H]C(=C1C([H])(N([H])C(=O)N2C([H])([H])C([H])([H])C([H])([H])C([H])(n3nc(-c4c([H])c([H])c(Oc5c([H])c([H])c(F)c([H])c5F)c([H])c4[H])c(C(=O)N([H])[H])c3N([H])[H])C2([H])[H])C([H])([H])C([H])([H])[N+]([H])([H])C1([H])[H])C([H])([H])[N+]([H])([H])C([H])([H])C([H])([H])Oc1c([H])c([H])c2c(c1[H])C([H])([H])N(C(=O)C([H])(N([H])C(=O)C([H])(N([H])C([H])([H])[H])C([H])([H])[H])C(C([H])([H])[H])(C([H])([H])[H])C([H])([H])[H])C([H])(C(=O)N([H])C1([H])c3c([H])c([H])c([H])c([H])c3C([H])([H])C([H])([H])C1([H])[H])C2([H])[H]

>  <smiles>  (40) 
[H]C(=C1C([H])(N([H])C(=O)N2C([H])([H])C([H])([H])C([H])([H])C([H])(n3nc(-c4c([H])c([H])c(Oc5c([H])c([H])c(F)c([H])c5F)c([H])c4[H])c(C(=O)N([H])[H])c3N([H])[H])C2([H])[H])C([H])([H])C([H])([H])[N+]([H])([H])C1([H])[H])C([H])([H])[N+]([H])([H])C([H])([H])C([H])([H])Oc1c([H])c([H])c2c(c1[H])C([H])([H])N(C(=O)C([H])(N([H])C(=O)C([H])(N([H])C([H])([H])[H])C([H])([H])[H])C(C([H])([H])[H])(C([H])([H])[H])C([H])([H])[H])C([H])(C(=O)N([H])C1([H])c3c([H])c([H])c([H])c([H])c3C([H])([H])C([H])([H])C1([H])[H])C2([H])[H]

$$$$
40:0:0
     RDKit          3D

 93102  0  0  1  0  0  0  0  0999 V2000
  -28.8210  -23.6950   20.2830 C   0  0  0  0  0  0  0  0  0  0  0  0
  -29.5430  -21.6960   20.6320 C   0  0  0  0  0  3  0  0  0  0  0  0
  -28.5400  -22.3470   20.0160 N   0  0  0  0  0  0  0  0  0  0  0  0
  -29.9290  -23.8630   21.0050 N   0  0  0  0  0  2  0  0  0  0  0  0
  -30.3780  -22.5850   21.2140 N   0  0  0  0  0  0  0  0  0  0  0  0
  -29.8070  -20.2880   20.7610 N   0  0  0  0  0  0  0  0  0  0  0  0
  -30.6380  -20.1930   21.3320 H   0  0  0  0  0  0  0  0  0  0  0  0
  -30.5420  -14.6100   20.0130 C   0  0  0  0  0  0  0  0  0  0  0  0
  -30.2380  -12.3870   18.9310 C   0  0  0  0  0  2  0  0  0  0  0  0
  -29.2290  -12.5150   17.7710 C   0  0  0  0  0  2  0  0  0  0  0  0
  -27.7900  -12.3250   18.2840 C   0  0  0  0  0  2  0  0  0  0  0  0
  -27.4920  -13.1630   19.5580 C   0  0  0  0  0  3  0  0  0  0  0  0
  -28.6200  -13.0390   20.6050 C   0  0  0  0  0  2  0  0  0  0  0  0
  -29.8750  -13.4090   19.9390 N   0  0  0  0  0  0  0  0  0  0  0  0
  -31.7040  -14.6800   19.6020 O   0  0  0  0  0  0  0  0  0  0  0  0
  -29.4510  -17.8780   21.5650 C   0  0  0  0  0  2  0  0  0  0  0  0
  -30.1700  -18.2480   19.2640 C   0  0  0  0  0  2  0  0  0  0  0  0
  -29.1140  -16.3660   21.2400 C   0  0  0  0  0  2  0  0  0  0  0  0
  -29.7950  -16.7580   18.9270 C   0  0  0  0  0  2  0  0  0  0  0  0
  -29.3320  -18.9080   20.3920 C   0  0  0  0  0  3  0  0  0  0  0  0
  -29.7930  -15.7830   20.0550 N   0  0  0  0  0  0  0  0  0  0  0  0
  -25.1460  -13.7040   20.4430 C   0  0  0  0  0  0  0  0  0  0  0  0
  -24.1130  -12.9060   20.8530 C   0  0  0  0  0  0  0  0  0  0  0  0
  -24.5880  -11.5630   20.7560 C   0  0  0  0  0  0  0  0  0  0  0  0
  -26.1830  -12.8450   20.1200 N   0  0  0  0  0  0  0  0  0  0  0  0
  -25.8580  -11.5500   20.3710 N   0  0  0  0  0  0  0  0  0  0  0  0
  -23.8880  -10.2870   20.9520 C   0  0  0  0  0  0  0  0  0  0  0  0
  -24.3500   -9.3240   21.8770 C   0  0  0  0  0  3  0  0  0  0  0  0
  -23.6480   -8.1140   22.0620 C   0  0  0  0  0  3  0  0  0  0  0  0
  -22.4690   -7.8560   21.3220 C   0  0  0  0  0  0  0  0  0  0  0  0
  -22.0260   -8.8070   20.3860 C   0  0  0  0  0  3  0  0  0  0  0  0
  -22.7290  -10.0090   20.1990 C   0  0  0  0  0  3  0  0  0  0  0  0
  -21.7360   -6.6980   21.4170 O   0  0  0  0  0  0  0  0  0  0  0  0
  -21.6730   -5.9790   22.5840 C   0  0  0  0  0  0  0  0  0  0  0  0
  -21.1950   -6.5480   23.7840 C   0  0  0  0  0  3  0  0  0  0  0  0
  -21.0820   -5.7540   24.9440 C   0  0  0  0  0  3  0  0  0  0  0  0
  -21.4390   -4.3920   24.9030 C   0  0  0  0  0  0  0  0  0  0  0  0
  -21.9100   -3.8230   23.7060 C   0  0  0  0  0  3  0  0  0  0  0  0
  -22.0240   -4.6140   22.5500 C   0  0  0  0  0  0  0  0  0  0  0  0
  -22.4590   -4.0550   21.3950 F   0  0  0  0  0  0  0  0  0  0  0  0
  -21.3230   -3.6270   26.0130 F   0  0  0  0  0  0  0  0  0  0  0  0
  -22.7290  -13.3590   21.2210 C   0  0  0  0  0  0  0  0  0  0  0  0
  -22.0630  -12.6320   22.1100 N   0  0  0  0  0  0  0  0  0  0  0  0
  -22.2510  -14.3920   20.7560 O   0  0  0  0  0  0  0  0  0  0  0  0
  -22.4650  -11.7960   22.5090 H   0  0  0  0  0  0  0  0  0  0  0  0
  -21.1370  -12.9160   22.3970 H   0  0  0  0  0  0  0  0  0  0  0  0
  -25.2830  -15.0810   20.2940 N   0  0  0  0  0  0  0  0  0  0  0  0
  -24.5170  -15.7220   20.4660 H   0  0  0  0  0  0  0  0  0  0  0  0
  -26.1070  -15.5370   19.9220 H   0  0  0  0  0  0  0  0  0  0  0  0
  -31.2670  -22.0760   23.4670 C   0  0  0  0  0  1  0  0  0  0  0  0
  -31.5880  -22.3770   21.9970 C   0  0  0  0  0  2  0  0  0  0  0  0
  -27.8930  -24.8640   19.8280 C   0  0  0  0  0  2  0  0  0  0  0  0
  -28.2220  -26.2740   20.2240 O   0  0  0  0  0  0  0  0  0  0  0  0
  -24.6010  -31.7930   23.2370 C   0  0  0  0  0  0  0  0  0  0  0  0
  -27.1590  -27.2060   20.1380 C   0  0  0  0  0  0  0  0  0  0  0  0
  -23.3900  -30.4330   21.5750 C   0  0  0  0  0  3  0  0  0  0  0  0
  -24.8280  -28.8890   20.1320 C   0  0  0  0  0  0  0  0  0  0  0  0
  -25.9400  -30.7070   21.4170 C   0  0  0  0  0  2  0  0  0  0  0  0
  -26.0040  -29.3360   20.7500 C   0  0  0  0  0  0  0  0  0  0  0  0
  -27.1710  -28.5060   20.7480 C   0  0  0  0  0  3  0  0  0  0  0  0
  -25.9620  -26.8480   19.4670 C   0  0  0  0  0  3  0  0  0  0  0  0
  -24.8120  -27.6520   19.4810 C   0  0  0  0  0  3  0  0  0  0  0  0
  -23.6050  -29.7800   20.1860 C   0  0  0  0  0  2  0  0  0  0  0  0
  -24.6620  -30.9940   22.1320 N   0  0  0  0  0  0  0  0  0  0  0  0
  -23.5170  -32.0800   23.7660 O   0  0  0  0  0  0  0  0  0  0  0  0
  -22.7070  -29.4100   22.5150 C   0  0  0  0  0  0  0  0  0  0  0  0
  -21.3800  -29.2510   22.3780 N   0  0  0  0  0  0  0  0  0  0  0  0
  -23.3710  -28.7660   23.3310 O   0  0  0  0  0  0  0  0  0  0  0  0
  -20.9020  -29.8210   21.6940 H   0  0  0  0  0  0  0  0  0  0  0  0
  -17.9820  -28.0970   22.8480 C   0  0  0  0  0  0  0  0  0  0  0  0
  -20.5430  -28.3150   23.1330 C   0  0  0  0  0  3  0  0  0  0  0  0
  -20.6260  -26.8890   22.5410 C   0  0  0  0  0  2  0  0  0  0  0  0
  -19.5240  -26.5950   21.5180 C   0  0  0  0  0  2  0  0  0  0  0  0
  -18.1420  -26.7540   22.1560 C   0  0  0  0  0  2  0  0  0  0  0  0
  -19.1100  -28.8370   23.2920 C   0  0  0  0  0  0  0  0  0  0  0  0
  -18.9060  -30.0960   23.8980 C   0  0  0  0  0  3  0  0  0  0  0  0
  -17.6080  -30.6150   24.0640 C   0  0  0  0  0  3  0  0  0  0  0  0
  -16.4940  -29.8700   23.6360 C   0  0  0  0  0  3  0  0  0  0  0  0
  -16.6820  -28.6140   23.0330 C   0  0  0  0  0  3  0  0  0  0  0  0
  -25.8870  -32.4030   23.8730 C   0  0  0  0  0  3  0  0  0  0  0  0
  -25.5960  -33.8030   24.2080 N   0  0  0  0  0  0  0  0  0  0  0  0
  -25.9230  -34.8540   23.4460 C   0  0  0  0  0  0  0  0  0  0  0  0
  -26.5740  -34.7470   22.4020 O   0  0  0  0  0  0  0  0  0  0  0  0
  -25.0150  -33.9610   25.0190 H   0  0  0  0  0  0  0  0  0  0  0  0
  -24.1900  -36.6540   23.1440 C   0  0  0  0  0  1  0  0  0  0  0  0
  -25.4570  -36.2460   23.9140 C   0  0  0  0  0  3  0  0  0  0  0  0
  -27.6180  -37.1290   24.6730 C   0  0  0  0  0  1  0  0  0  0  0  0
  -26.4890  -37.2960   23.7620 N   0  0  0  0  0  0  0  0  0  0  0  0
  -26.0890  -38.2170   23.9170 H   0  0  0  0  0  0  0  0  0  0  0  0
  -26.3790  -31.6160   25.1500 C   0  0  1  0  0  0  0  0  0  0  0  0
  -25.2710  -31.3890   26.2040 C   0  0  0  0  0  1  0  0  0  0  0  0
  -26.9470  -30.2320   24.7580 C   0  0  0  0  0  1  0  0  0  0  0  0
  -27.5330  -32.3900   25.8290 C   0  0  0  0  0  1  0  0  0  0  0  0
  1  4  1  0
  2  6  1  0
  2  5  1  0
  3  1  2  0
  3  2  1  0
  4  5  1  0
  5 51  1  0
  6  7  1  0
  8 21  1  0
  9 14  1  0
 10 11  1  0
 10  9  1  0
 12 11  1  0
 12 25  1  0
 12 13  1  0
 14  8  1  0
 14 13  1  0
 15  8  2  0
 17 20  1  0
 18 16  1  0
 19 17  1  0
 19 21  1  0
 20  6  1  0
 20 16  1  0
 21 18  1  0
 22 23  2  0
 23 42  1  0
 24 23  1  0
 24 27  1  0
 25 26  1  0
 25 22  1  0
 26 24  2  0
 27 28  1  0
 28 29  2  0
 30 33  1  0
 30 29  1  0
 31 30  2  0
 32 31  1  0
 32 27  2  0
 33 34  1  0
 34 35  1  0
 35 36  2  0
 37 36  1  0
 37 41  1  0
 38 37  2  0
 39 34  2  0
 39 38  1  0
 40 39  1  0
 42 43  1  0
 43 46  1  0
 43 45  1  0
 44 42  2  0
 47 22  1  0
 47 48  1  0
 49 47  1  0
 51 50  1  0
 52 53  1  0
 52  1  1  0
 54 65  2  0
 55 53  1  0
 55 60  1  0
 56 64  1  0
 56 66  1  0
 57 63  1  0
 57 59  1  0
 58 64  1  0
 59 58  1  0
 60 59  2  0
 61 62  1  0
 61 55  2  0
 62 57  2  0
 63 56  1  0
 64 54  1  0
 66 68  2  0
 67 66  1  0
 69 67  1  0
 70 79  2  0
 70 75  1  0
 71 67  1  0
 71 75  1  0
 72 71  1  0
 73 74  1  0
 73 72  1  0
 74 70  1  0
 75 76  2  0
 76 77  1  0
 78 77  2  0
 79 78  1  0
 80 54  1  0
 80 81  1  0
 80 90  1  0
 81 84  1  0
 82 86  1  0
 82 81  1  0
 83 82  2  0
 86 85  1  0
 88 86  1  0
 88 89  1  0
 88 87  1  0
 90 93  1  1
 90 91  1  0
 92 90  1  0
M  ISO  4   8 100  21 100  52 101  53 101
M  END
>  <TORSDO>  (41) 
F 18

>  <SCORE>  (41) 
-13.420

>  <name>  (41) 
40

>  <ligand_id>  (41) 
40

>  <original_smiles>  (41) 
[H]c1c([H])c([H])c2c(c1[H])C([H])([H])C([H])([H])C([H])([H])C2([H])N([H])C(=O)C1([H])N(C(=O)C([H])(N([H])C(=O)C([H])(N([H])C([H])([H])[H])C([H])([H])[H])C(C([H])([H])[H])(C([H])([H])[H])C([H])([H])[H])C([H])([H])c2c([H])c(OC([H])([H])c3nc(N([H])C4([H])C([H])([H])C([H])([H])N(C(=O)N5C([H])([H])C([H])([H])C([H])([H])C([H])(n6nc(-c7c([H])c([H])c(Oc8c([H])c([H])c(F)c([H])c8F)c([H])c7[H])c(C(=O)N([H])[H])c6N([H])[H])C5([H])[H])C([H])([H])C4([H])[H])n(C([H])([H])C([H])([H])[H])n3)c([H])c([H])c2C1([H])[H]

>  <smiles>  (41) 
[H]c1c([H])c([H])c2c(c1[H])C([H])([H])C([H])([H])C([H])([H])C2([H])N([H])C(=O)C1([H])N(C(=O)C([H])(N([H])C(=O)C([H])(N([H])C([H])([H])[H])C([H])([H])[H])C(C([H])([H])[H])(C([H])([H])[H])C([H])([H])[H])C([H])([H])c2c([H])c(OC([H])([H])c3nc(N([H])C4([H])C([H])([H])C([H])([H])N(C(=O)N5C([H])([H])C([H])([H])C([H])([H])C([H])(n6nc(-c7c([H])c([H])c(Oc8c([H])c([H])c(F)c([H])c8F)c([H])c7[H])c(C(=O)N([H])[H])c6N([H])[H])C5([H])[H])C([H])([H])C4([H])[H])n(C([H])([H])C([H])([H])[H])n3)c([H])c([H])c2C1([H])[H]

$$$$
41:0:0
     RDKit          3D

 95105  0  0  1  0  0  0  0  0999 V2000
  -28.7260  -23.6890   20.6460 C   0  0  0  0  0  0  0  0  0  0  0  0
  -28.7690  -22.3380   20.0450 C   0  0  0  0  0  0  0  0  0  0  0  0
  -28.2730  -24.8530   19.8730 C   0  0  0  0  0  0  0  0  0  0  0  0
  -28.0100  -23.3520   18.1150 C   0  0  0  0  0  0  0  0  0  0  0  0
  -27.5790  -23.1730   16.6750 C   0  0  0  0  0  1  0  0  0  0  0  0
  -28.3860  -22.2420   18.7580 N   0  0  0  0  0  0  0  0  0  0  0  0
  -27.9520  -24.5990   18.5880 N   0  0  0  0  0  0  0  0  0  0  0  0
  -30.0580  -24.9890   22.5150 C   0  0  0  0  0  2  0  0  0  0  0  0
  -30.5170  -23.5530   22.5720 C   0  0  0  0  0  2  0  0  0  0  0  0
  -29.1230  -23.8790   22.0830 C   0  0  0  0  0  3  0  0  0  0  0  0
  -28.2650  -26.2710   20.2580 O   0  0  0  0  0  0  0  0  0  0  0  0
  -24.5960  -31.9150   23.2050 C   0  0  0  0  0  0  0  0  0  0  0  0
  -27.1770  -27.2120   20.1770 C   0  0  0  0  0  0  0  0  0  0  0  0
  -23.3920  -30.5050   21.5820 C   0  0  0  0  0  3  0  0  0  0  0  0
  -24.8350  -28.9310   20.1560 C   0  0  0  0  0  0  0  0  0  0  0  0
  -25.9410  -30.7850   21.3980 C   0  0  0  0  0  2  0  0  0  0  0  0
  -26.0150  -29.3910   20.7530 C   0  0  0  0  0  0  0  0  0  0  0  0
  -27.1840  -28.5460   20.7480 C   0  0  0  0  0  3  0  0  0  0  0  0
  -25.9630  -26.8460   19.5530 C   0  0  0  0  0  3  0  0  0  0  0  0
  -24.8190  -27.6710   19.5440 C   0  0  0  0  0  3  0  0  0  0  0  0
  -23.6050  -29.8220   20.2060 C   0  0  0  0  0  2  0  0  0  0  0  0
  -24.6640  -31.0910   22.1160 N   0  0  0  0  0  0  0  0  0  0  0  0
  -23.5130  -32.1980   23.7380 O   0  0  0  0  0  0  0  0  0  0  0  0
  -22.7250  -29.4990   22.5540 C   0  0  0  0  0  0  0  0  0  0  0  0
  -21.3980  -29.3190   22.4330 N   0  0  0  0  0  0  0  0  0  0  0  0
  -23.4050  -28.8810   23.3770 O   0  0  0  0  0  0  0  0  0  0  0  0
  -20.9060  -29.8680   21.7420 H   0  0  0  0  0  0  0  0  0  0  0  0
  -18.0240  -28.1140   22.9630 C   0  0  0  0  0  0  0  0  0  0  0  0
  -20.5830  -28.3860   23.2160 C   0  0  0  0  0  3  0  0  0  0  0  0
  -20.6860  -26.9490   22.6510 C   0  0  0  0  0  2  0  0  0  0  0  0
  -19.5810  -26.6160   21.6450 C   0  0  0  0  0  2  0  0  0  0  0  0
  -18.2020  -26.7610   22.2950 C   0  0  0  0  0  2  0  0  0  0  0  0
  -19.1430  -28.8830   23.3810 C   0  0  0  0  0  0  0  0  0  0  0  0
  -18.9200  -30.1480   23.9690 C   0  0  0  0  0  3  0  0  0  0  0  0
  -17.6140  -30.6430   24.1400 C   0  0  0  0  0  3  0  0  0  0  0  0
  -16.5110  -29.8710   23.7380 C   0  0  0  0  0  3  0  0  0  0  0  0
  -16.7170  -28.6080   23.1540 C   0  0  0  0  0  3  0  0  0  0  0  0
  -25.8770  -32.5590   23.8190 C   0  0  0  0  0  3  0  0  0  0  0  0
  -25.5590  -33.9560   24.1540 N   0  0  0  0  0  0  0  0  0  0  0  0
  -25.8860  -35.0160   23.4030 C   0  0  0  0  0  0  0  0  0  0  0  0
  -26.5560  -34.9200   22.3710 O   0  0  0  0  0  0  0  0  0  0  0  0
  -24.9620  -34.1030   24.9550 H   0  0  0  0  0  0  0  0  0  0  0  0
  -24.1600  -36.8140   23.0530 C   0  0  0  0  0  1  0  0  0  0  0  0
  -25.3950  -36.4000   23.8700 C   0  0  0  0  0  3  0  0  0  0  0  0
  -27.5210  -37.2820   24.7270 C   0  0  0  0  0  1  0  0  0  0  0  0
  -26.4270  -37.4560   23.7740 N   0  0  0  0  0  0  0  0  0  0  0  0
  -26.0190  -38.3740   23.9250 H   0  0  0  0  0  0  0  0  0  0  0  0
  -26.4030  -31.7950   25.0960 C   0  0  1  0  0  0  0  0  0  0  0  0
  -25.3170  -31.5540   26.1700 C   0  0  0  0  0  1  0  0  0  0  0  0
  -26.9940  -30.4190   24.7090 C   0  0  0  0  0  1  0  0  0  0  0  0
  -27.5520  -32.5990   25.7500 C   0  0  0  0  0  1  0  0  0  0  0  0
  -29.1980  -20.9340   20.7650 C   0  0  0  0  0  2  0  0  0  0  0  0
  -30.5760  -14.9760   19.9340 C   0  0  0  0  0  0  0  0  0  0  0  0
  -30.2890  -12.6680   18.9470 C   0  0  0  0  0  2  0  0  0  0  0  0
  -29.2820  -12.6520   17.7780 C   0  0  0  0  0  2  0  0  0  0  0  0
  -27.8530  -12.4410   18.3090 C   0  0  0  0  0  2  0  0  0  0  0  0
  -27.5330  -13.3440   19.5290 C   0  0  0  0  0  3  0  0  0  0  0  0
  -28.6660  -13.3450   20.5770 C   0  0  0  0  0  2  0  0  0  0  0  0
  -29.8820  -13.7670   19.8730 N   0  0  0  0  0  0  0  0  0  0  0  0
  -31.7690  -14.9150   19.6150 O   0  0  0  0  0  0  0  0  0  0  0  0
  -28.7270  -16.8200   20.5820 C   0  0  0  0  0  2  0  0  0  0  0  0
  -30.5270  -17.4200   19.1150 C   0  0  0  0  0  2  0  0  0  0  0  0
  -28.6590  -18.3760   21.0460 C   0  0  0  0  0  2  0  0  0  0  0  0
  -30.4880  -18.9340   19.6520 C   0  0  0  0  0  2  0  0  0  0  0  0
  -29.9620  -16.2740   19.9260 N   0  0  0  0  0  0  0  0  0  0  0  0
  -29.1730  -19.4810   20.1360 N   0  0  2  0  0  4  0  0  0  0  0  0
  -28.5480  -19.5570   19.3460 H   0  0  0  0  0  0  0  0  0  0  0  0
  -25.2140  -13.9020   20.4510 C   0  0  0  0  0  0  0  0  0  0  0  0
  -24.1760  -13.1180   20.8680 C   0  0  0  0  0  0  0  0  0  0  0  0
  -24.6330  -11.7680   20.7650 C   0  0  0  0  0  0  0  0  0  0  0  0
  -26.2350  -13.0310   20.1140 N   0  0  0  0  0  0  0  0  0  0  0  0
  -25.9000  -11.7400   20.3690 N   0  0  0  0  0  0  0  0  0  0  0  0
  -23.9150  -10.5010   20.9630 C   0  0  0  0  0  0  0  0  0  0  0  0
  -24.3720   -9.5290   21.8790 C   0  0  0  0  0  3  0  0  0  0  0  0
  -23.6530   -8.3290   22.0660 C   0  0  0  0  0  3  0  0  0  0  0  0
  -22.4620   -8.0930   21.3380 C   0  0  0  0  0  0  0  0  0  0  0  0
  -22.0250   -9.0550   20.4110 C   0  0  0  0  0  3  0  0  0  0  0  0
  -22.7440  -10.2460   20.2210 C   0  0  0  0  0  3  0  0  0  0  0  0
  -21.7120   -6.9470   21.4370 O   0  0  0  0  0  0  0  0  0  0  0  0
  -21.6520   -6.2230   22.6010 C   0  0  0  0  0  0  0  0  0  0  0  0
  -21.1910   -6.7920   23.8080 C   0  0  0  0  0  3  0  0  0  0  0  0
  -21.0810   -5.9950   24.9650 C   0  0  0  0  0  3  0  0  0  0  0  0
  -21.4200   -4.6290   24.9140 C   0  0  0  0  0  0  0  0  0  0  0  0
  -21.8720   -4.0590   23.7110 C   0  0  0  0  0  3  0  0  0  0  0  0
  -21.9850   -4.8540   22.5570 C   0  0  0  0  0  0  0  0  0  0  0  0
  -22.4020   -4.2960   21.3960 F   0  0  0  0  0  0  0  0  0  0  0  0
  -21.3050   -3.8610   26.0230 F   0  0  0  0  0  0  0  0  0  0  0  0
  -22.8020  -13.5900   21.2430 C   0  0  0  0  0  0  0  0  0  0  0  0
  -22.1280  -12.8700   22.1330 N   0  0  0  0  0  0  0  0  0  0  0  0
  -22.3370  -14.6320   20.7820 O   0  0  0  0  0  0  0  0  0  0  0  0
  -22.5180  -12.0280   22.5280 H   0  0  0  0  0  0  0  0  0  0  0  0
  -21.2080  -13.1680   22.4260 H   0  0  0  0  0  0  0  0  0  0  0  0
  -25.3670  -15.2770   20.3010 N   0  0  0  0  0  0  0  0  0  0  0  0
  -24.6000  -15.9200   20.4660 H   0  0  0  0  0  0  0  0  0  0  0  0
  -26.1660  -15.7160   19.8660 H   0  0  0  0  0  0  0  0  0  0  0  0
  1 10  1  0
  2  1  2  0
  2 52  1  0
  3 11  1  0
  3  1  1  0
  4  7  1  0
  4  6  2  0
  5  4  1  0
  6  2  1  0
  7  3  2  0
  8  9  1  0
 10  8  1  0
 10  9  1  0
 12 23  2  0
 13 11  1  0
 13 18  1  0
 14 22  1  0
 14 24  1  0
 15 21  1  0
 15 17  1  0
 16 22  1  0
 17 16  1  0
 18 17  2  0
 19 13  2  0
 20 19  1  0
 20 15  2  0
 21 14  1  0
 22 12  1  0
 24 26  2  0
 25 24  1  0
 27 25  1  0
 28 37  2  0
 28 33  1  0
 29 25  1  0
 29 33  1  0
 30 29  1  0
 31 32  1  0
 31 30  1  0
 32 28  1  0
 33 34  2  0
 34 35  1  0
 36 35  2  0
 37 36  1  0
 38 12  1  0
 38 39  1  0
 38 48  1  0
 39 42  1  0
 40 44  1  0
 40 39  1  0
 41 40  2  0
 44 43  1  0
 46 44  1  0
 46 47  1  0
 46 45  1  0
 48 51  1  1
 48 49  1  0
 50 48  1  0
 54 59  1  0
 55 56  1  0
 55 54  1  0
 57 56  1  0
 57 71  1  0
 57 58  1  0
 59 53  1  0
 59 58  1  0
 60 53  2  0
 61 63  1  0
 62 64  1  0
 62 65  1  0
 64 66  1  0
 65 53  1  0
 65 61  1  0
 66 52  1  0
 66 63  1  0
 66 67  1  6
 68 69  2  0
 69 88  1  0
 70 69  1  0
 70 73  1  0
 71 72  1  0
 71 68  1  0
 72 70  2  0
 73 74  1  0
 74 75  2  0
 76 79  1  0
 76 75  1  0
 77 76  2  0
 78 77  1  0
 78 73  2  0
 79 80  1  0
 80 81  1  0
 81 82  2  0
 83 82  1  0
 83 87  1  0
 84 83  2  0
 85 80  2  0
 85 84  1  0
 86 85  1  0
 88 89  1  0
 89 92  1  0
 89 91  1  0
 90 88  2  0
 93 68  1  0
 93 94  1  0
 95 93  1  0
M  ISO  4   3 101  11 101  53 100  65 100
M  END
>  <TORSDO>  (42) 
F 18

>  <SCORE>  (42) 
-13.243

>  <name>  (42) 
41

>  <ligand_id>  (42) 
41

>  <original_smiles>  (42) 
[H]c1c([H])c([H])c2c(c1[H])C([H])([H])C([H])([H])C([H])([H])C2([H])N([H])C(=O)C1([H])N(C(=O)C([H])(N([H])C(=O)C([H])(N([H])C([H])([H])[H])C([H])([H])[H])C(C([H])([H])[H])(C([H])([H])[H])C([H])([H])[H])C([H])([H])c2c([H])c(Oc3nc(C([H])([H])[H])nc(C([H])([H])[N+]4([H])C([H])([H])C([H])([H])N(C(=O)N5C([H])([H])C([H])([H])C([H])([H])C([H])(n6nc(-c7c([H])c([H])c(Oc8c([H])c([H])c(F)c([H])c8F)c([H])c7[H])c(C(=O)N([H])[H])c6N([H])[H])C5([H])[H])C([H])([H])C4([H])[H])c3C3([H])C([H])([H])C3([H])[H])c([H])c([H])c2C1([H])[H]

>  <smiles>  (42) 
[H]c1c([H])c([H])c2c(c1[H])C([H])([H])C([H])([H])C([H])([H])C2([H])N([H])C(=O)C1([H])N(C(=O)C([H])(N([H])C(=O)C([H])(N([H])C([H])([H])[H])C([H])([H])[H])C(C([H])([H])[H])(C([H])([H])[H])C([H])([H])[H])C([H])([H])c2c([H])c(Oc3nc(C([H])([H])[H])nc(C([H])([H])[N+]4([H])C([H])([H])C([H])([H])N(C(=O)N5C([H])([H])C([H])([H])C([H])([H])C([H])(n6nc(-c7c([H])c([H])c(Oc8c([H])c([H])c(F)c([H])c8F)c([H])c7[H])c(C(=O)N([H])[H])c6N([H])[H])C5([H])[H])C([H])([H])C4([H])[H])c3C3([H])C([H])([H])C3([H])[H])c([H])c([H])c2C1([H])[H]

$$$$
42:0:0
     RDKit          3D

 91100  0  0  1  0  0  0  0  0999 V2000
  -26.7210  -23.2090   20.8560 C   0  0  0  0  0  3  0  0  0  0  0  0
  -28.6220  -22.4470   19.9310 C   0  0  0  0  0  0  0  0  0  0  0  0
  -28.0210  -24.8420   19.9800 C   0  0  0  0  0  0  0  0  0  0  0  0
  -25.4640  -22.8670   21.6300 C   0  0  0  0  0  1  0  0  0  0  0  0
  -27.4870  -22.1620   20.5370 N   0  0  0  0  0  0  0  0  0  0  0  0
  -26.9090  -24.5110   20.6250 N   0  0  0  0  0  0  0  0  0  0  0  0
  -28.9390  -23.8020   19.6350 N   0  0  0  0  0  0  0  0  0  0  0  0
  -29.4700  -21.2020   19.6910 N   0  0  0  0  0  0  0  0  0  0  0  0
  -30.3710  -21.4600   19.3030 H   0  0  0  0  0  0  0  0  0  0  0  0
  -30.7050  -15.6100   19.8020 C   0  0  0  0  0  0  0  0  0  0  0  0
  -30.6200  -13.1680   18.9770 C   0  0  0  0  0  2  0  0  0  0  0  0
  -29.6420  -12.9500   17.7980 C   0  0  0  0  0  2  0  0  0  0  0  0
  -28.2170  -12.6860   18.3160 C   0  0  0  0  0  2  0  0  0  0  0  0
  -27.8190  -13.6570   19.4560 C   0  0  0  0  0  3  0  0  0  0  0  0
  -28.9260  -13.8200   20.5190 C   0  0  0  0  0  2  0  0  0  0  0  0
  -30.1150  -14.3180   19.8100 N   0  0  0  0  0  0  0  0  0  0  0  0
  -31.8970  -15.5930   19.4650 O   0  0  0  0  0  0  0  0  0  0  0  0
  -28.5580  -18.8350   20.7640 C   0  0  0  0  0  2  0  0  0  0  0  0
  -28.7360  -17.2570   20.5630 C   0  0  0  0  0  2  0  0  0  0  0  0
  -30.4130  -18.3820   19.4480 C   0  0  0  0  0  2  0  0  0  0  0  0
  -29.2470  -19.5950   19.6100 C   0  0  0  0  0  3  0  0  0  0  0  0
  -30.0020  -16.9070   19.8710 N   0  0  0  0  0  0  0  0  0  0  0  0
  -25.5030  -14.1920   20.3870 C   0  0  0  0  0  0  0  0  0  0  0  0
  -24.4650  -13.4030   20.7960 C   0  0  0  0  0  0  0  0  0  0  0  0
  -24.9210  -12.0550   20.6750 C   0  0  0  0  0  0  0  0  0  0  0  0
  -26.5240  -13.3260   20.0390 N   0  0  0  0  0  0  0  0  0  0  0  0
  -26.1910  -12.0320   20.2780 N   0  0  0  0  0  0  0  0  0  0  0  0
  -24.2010  -10.7880   20.8580 C   0  0  0  0  0  0  0  0  0  0  0  0
  -24.6190   -9.8320   21.8090 C   0  0  0  0  0  3  0  0  0  0  0  0
  -23.8940   -8.6330   21.9830 C   0  0  0  0  0  3  0  0  0  0  0  0
  -22.7400   -8.3820   21.2040 C   0  0  0  0  0  0  0  0  0  0  0  0
  -22.3410   -9.3280   20.2430 C   0  0  0  0  0  3  0  0  0  0  0  0
  -23.0660  -10.5190   20.0690 C   0  0  0  0  0  3  0  0  0  0  0  0
  -21.9890   -7.2340   21.2860 O   0  0  0  0  0  0  0  0  0  0  0  0
  -21.8260   -6.5630   22.4710 C   0  0  0  0  0  0  0  0  0  0  0  0
  -21.2510   -7.1790   23.6040 C   0  0  0  0  0  3  0  0  0  0  0  0
  -21.0390   -6.4320   24.7800 C   0  0  0  0  0  3  0  0  0  0  0  0
  -21.3920   -5.0700   24.8230 C   0  0  0  0  0  0  0  0  0  0  0  0
  -21.9580   -4.4540   23.6950 C   0  0  0  0  0  3  0  0  0  0  0  0
  -22.1730   -5.1970   22.5210 C   0  0  0  0  0  0  0  0  0  0  0  0
  -22.7010   -4.5930   21.4300 F   0  0  0  0  0  0  0  0  0  0  0  0
  -21.1800   -4.3510   25.9500 F   0  0  0  0  0  0  0  0  0  0  0  0
  -23.0920  -13.8730   21.1750 C   0  0  0  0  0  0  0  0  0  0  0  0
  -22.4190  -13.1470   22.0610 N   0  0  0  0  0  0  0  0  0  0  0  0
  -22.6280  -14.9190   20.7230 O   0  0  0  0  0  0  0  0  0  0  0  0
  -22.8110  -12.3030   22.4490 H   0  0  0  0  0  0  0  0  0  0  0  0
  -21.5010  -13.4430   22.3600 H   0  0  0  0  0  0  0  0  0  0  0  0
  -25.6470  -15.5680   20.2540 N   0  0  0  0  0  0  0  0  0  0  0  0
  -24.8860  -16.2090   20.4440 H   0  0  0  0  0  0  0  0  0  0  0  0
  -26.4610  -16.0230   19.8620 H   0  0  0  0  0  0  0  0  0  0  0  0
  -28.1960  -26.3000   19.7400 O   0  0  0  0  0  0  0  0  0  0  0  0
  -24.5680  -31.9440   23.1560 C   0  0  0  0  0  0  0  0  0  0  0  0
  -27.1400  -27.3420   19.8110 C   0  0  0  0  0  0  0  0  0  0  0  0
  -23.3540  -30.6080   21.4840 C   0  0  0  0  0  3  0  0  0  0  0  0
  -24.7930  -29.1330   19.9280 C   0  0  0  0  0  0  0  0  0  0  0  0
  -25.9050  -30.9050   21.2690 C   0  0  0  0  0  2  0  0  0  0  0  0
  -25.9860  -29.5380   20.5410 C   0  0  0  0  0  0  0  0  0  0  0  0
  -27.1530  -28.6610   20.4680 C   0  0  0  0  0  3  0  0  0  0  0  0
  -25.9230  -27.0990   19.1310 C   0  0  0  0  0  3  0  0  0  0  0  0
  -24.7830  -27.9350   19.2030 C   0  0  0  0  0  3  0  0  0  0  0  0
  -23.5510  -30.0100   20.0650 C   0  0  0  0  0  2  0  0  0  0  0  0
  -24.6300  -31.1750   22.0240 N   0  0  0  0  0  0  0  0  0  0  0  0
  -23.4900  -32.1770   23.7280 O   0  0  0  0  0  0  0  0  0  0  0  0
  -22.7230  -29.5380   22.4120 C   0  0  0  0  0  0  0  0  0  0  0  0
  -21.4000  -29.3170   22.2940 N   0  0  0  0  0  0  0  0  0  0  0  0
  -23.4260  -28.9080   23.2060 O   0  0  0  0  0  0  0  0  0  0  0  0
  -20.8830  -29.8760   21.6300 H   0  0  0  0  0  0  0  0  0  0  0  0
  -18.0810  -27.9390   22.7800 C   0  0  0  0  0  0  0  0  0  0  0  0
  -20.6280  -28.3160   23.0360 C   0  0  0  0  0  3  0  0  0  0  0  0
  -20.7930  -26.9130   22.4090 C   0  0  0  0  0  2  0  0  0  0  0  0
  -19.6990  -26.5740   21.3920 C   0  0  0  0  0  2  0  0  0  0  0  0
  -18.3170  -26.6270   22.0500 C   0  0  0  0  0  2  0  0  0  0  0  0
  -19.1660  -28.7400   23.2290 C   0  0  0  0  0  0  0  0  0  0  0  0
  -18.8900  -29.9640   23.8750 C   0  0  0  0  0  3  0  0  0  0  0  0
  -17.5630  -30.3910   24.0740 C   0  0  0  0  0  3  0  0  0  0  0  0
  -16.4940  -29.5880   23.6390 C   0  0  0  0  0  3  0  0  0  0  0  0
  -16.7550  -28.3630   22.9990 C   0  0  0  0  0  3  0  0  0  0  0  0
  -25.8450  -32.5830   23.7790 C   0  0  0  0  0  3  0  0  0  0  0  0
  -25.5210  -33.9710   24.1510 N   0  0  0  0  0  0  0  0  0  0  0  0
  -25.8160  -35.0520   23.4180 C   0  0  0  0  0  0  0  0  0  0  0  0
  -26.4560  -34.9870   22.3650 O   0  0  0  0  0  0  0  0  0  0  0  0
  -24.9480  -34.0940   24.9740 H   0  0  0  0  0  0  0  0  0  0  0  0
  -24.0490  -36.8300   23.1800 C   0  0  0  0  0  1  0  0  0  0  0  0
  -25.3270  -36.4220   23.9310 C   0  0  0  0  0  3  0  0  0  0  0  0
  -27.4730  -37.3270   24.7100 C   0  0  0  0  0  1  0  0  0  0  0  0
  -26.3380  -37.4950   23.8070 N   0  0  0  0  0  0  0  0  0  0  0  0
  -25.9220  -38.4040   23.9870 H   0  0  0  0  0  0  0  0  0  0  0  0
  -26.3820  -31.7940   25.0370 C   0  0  1  0  0  0  0  0  0  0  0  0
  -25.3010  -31.5230   26.1100 C   0  0  0  0  0  1  0  0  0  0  0  0
  -26.9790  -30.4300   24.6210 C   0  0  0  0  0  1  0  0  0  0  0  0
  -27.5290  -32.5900   25.7030 C   0  0  0  0  0  1  0  0  0  0  0  0
  1  4  1  0
  2  5  2  0
  3  6  2  0
  5  1  1  0
  6  1  1  0
  7  2  1  0
  7  3  2  0
  8  2  1  0
  9  8  1  0
 10 16  1  0
 10 22  1  0
 11 16  1  0
 12 13  1  0
 12 11  1  0
 14 13  1  0
 14 26  1  0
 14 15  1  0
 16 15  1  0
 17 10  2  0
 19 18  1  0
 20 21  1  0
 20 22  1  0
 21  8  1  0
 21 18  1  0
 22 19  1  0
 23 24  2  0
 24 43  1  0
 25 24  1  0
 25 28  1  0
 26 27  1  0
 26 23  1  0
 27 25  2  0
 28 29  1  0
 29 30  2  0
 31 34  1  0
 31 30  1  0
 32 31  2  0
 33 32  1  0
 33 28  2  0
 34 35  1  0
 35 40  2  0
 35 36  1  0
 36 37  2  0
 37 38  1  0
 38 42  1  0
 39 38  2  0
 40 39  1  0
 41 40  1  0
 43 44  1  0
 44 47  1  0
 44 46  1  0
 45 43  2  0
 48 23  1  0
 48 49  1  0
 50 48  1  0
 51 53  1  0
 51  3  1  0
 52 63  2  0
 53 58  1  0
 54 62  1  0
 54 64  1  0
 55 61  1  0
 55 57  1  0
 56 62  1  0
 57 56  1  0
 58 57  2  0
 59 60  1  0
 59 53  2  0
 60 55  2  0
 61 54  1  0
 62 52  1  0
 64 66  2  0
 65 64  1  0
 67 65  1  0
 68 77  2  0
 68 73  1  0
 69 65  1  0
 69 73  1  0
 70 69  1  0
 71 72  1  0
 71 70  1  0
 72 68  1  0
 73 74  2  0
 74 75  1  0
 76 75  2  0
 77 76  1  0
 78 52  1  0
 78 79  1  0
 78 88  1  0
 79 82  1  0
 80 84  1  0
 80 79  1  0
 81 80  2  0
 84 83  1  0
 86 84  1  0
 86 87  1  0
 86 85  1  0
 88 91  1  1
 88 89  1  0
 90 88  1  0
M  ISO  4   3 101  10 100  22 100  51 101
M  END
>  <TORSDO>  (43) 
F 16

>  <SCORE>  (43) 
-14.342

>  <name>  (43) 
42

>  <ligand_id>  (43) 
42

>  <original_smiles>  (43) 
[H]c1c([H])c([H])c2c(c1[H])C([H])([H])C([H])([H])C([H])([H])C2([H])N([H])C(=O)C1([H])N(C(=O)C([H])(N([H])C(=O)C([H])(N([H])C([H])([H])[H])C([H])([H])[H])C(C([H])([H])[H])(C([H])([H])[H])C([H])([H])[H])C([H])([H])c2c([H])c(Oc3nc(N([H])C4([H])C([H])([H])N(C(=O)N5C([H])([H])C([H])([H])C([H])([H])C([H])(n6nc(-c7c([H])c([H])c(Oc8c([H])c([H])c(F)c([H])c8F)c([H])c7[H])c(C(=O)N([H])[H])c6N([H])[H])C5([H])[H])C([H])([H])C4([H])[H])nc(C([H])([H])[H])n3)c([H])c([H])c2C1([H])[H]

>  <smiles>  (43) 
[H]c1c([H])c([H])c2c(c1[H])C([H])([H])C([H])([H])C([H])([H])C2([H])N([H])C(=O)C1([H])N(C(=O)C([H])(N([H])C(=O)C([H])(N([H])C([H])([H])[H])C([H])([H])[H])C(C([H])([H])[H])(C([H])([H])[H])C([H])([H])[H])C([H])([H])c2c([H])c(Oc3nc(N([H])C4([H])C([H])([H])N(C(=O)N5C([H])([H])C([H])([H])C([H])([H])C([H])(n6nc(-c7c([H])c([H])c(Oc8c([H])c([H])c(F)c([H])c8F)c([H])c7[H])c(C(=O)N([H])[H])c6N([H])[H])C5([H])[H])C([H])([H])C4([H])[H])nc(C([H])([H])[H])n3)c([H])c([H])c2C1([H])[H]

$$$$
43:0:0
     RDKit          3D

 90 98  0  0  1  0  0  0  0  0999 V2000
  -28.8550  -22.3970   19.9900 N   0  0  0  0  0  4  0  0  0  0  0  0
  -28.9390  -22.4170   18.9850 H   0  0  0  0  0  0  0  0  0  0  0  0
  -27.8920  -22.1690   20.1820 H   0  0  0  0  0  0  0  0  0  0  0  0
  -31.1890  -21.5790   20.5300 C   0  0  0  0  0  1  0  0  0  0  0  0
  -29.6900  -21.2180   20.5090 C   0  0  0  0  0  3  0  0  0  0  0  0
  -29.4750  -19.8110   19.7440 C   0  0  0  0  0  2  0  0  0  0  0  0
  -30.7480  -14.7090   19.9170 C   0  0  0  0  0  0  0  0  0  0  0  0
  -30.4050  -12.4870   18.8310 C   0  0  0  0  0  2  0  0  0  0  0  0
  -29.3780  -12.6310   17.6860 C   0  0  0  0  0  2  0  0  0  0  0  0
  -27.9400  -12.4780   18.2220 C   0  0  0  0  0  2  0  0  0  0  0  0
  -27.6840  -13.3230   19.4990 C   0  0  0  0  0  3  0  0  0  0  0  0
  -28.8230  -13.1440   20.5260 C   0  0  0  0  0  2  0  0  0  0  0  0
  -30.0760  -13.5080   19.8540 N   0  0  0  0  0  0  0  0  0  0  0  0
  -31.8780  -14.7980   19.4260 O   0  0  0  0  0  0  0  0  0  0  0  0
  -29.3490  -17.8240   21.5210 C   0  0  0  0  0  2  0  0  0  0  0  0
  -29.7290  -16.3200   21.5610 C   0  0  0  0  0  2  0  0  0  0  0  0
  -30.0960  -17.1410   19.3850 C   0  0  0  0  0  2  0  0  0  0  0  0
  -30.0690  -18.4210   20.3140 C   0  0  0  0  0  3  0  0  0  0  0  0
  -30.0280  -15.8690   20.1910 N   0  0  0  0  0  0  0  0  0  0  0  0
  -25.3710  -13.9370   20.4250 C   0  0  0  0  0  0  0  0  0  0  0  0
  -24.3180  -13.1720   20.8430 C   0  0  0  0  0  0  0  0  0  0  0  0
  -24.7450  -11.8130   20.7270 C   0  0  0  0  0  0  0  0  0  0  0  0
  -26.3730  -13.0470   20.0780 N   0  0  0  0  0  0  0  0  0  0  0  0
  -26.0070  -11.7600   20.3190 N   0  0  0  0  0  0  0  0  0  0  0  0
  -24.0050  -10.5590   20.9240 C   0  0  0  0  0  0  0  0  0  0  0  0
  -24.4680   -9.5580   21.8070 C   0  0  0  0  0  3  0  0  0  0  0  0
  -23.7290   -8.3710   21.9950 C   0  0  0  0  0  3  0  0  0  0  0  0
  -22.5120   -8.1740   21.3010 C   0  0  0  0  0  0  0  0  0  0  0  0
  -22.0670   -9.1640   20.4060 C   0  0  0  0  0  3  0  0  0  0  0  0
  -22.8060  -10.3430   20.2160 C   0  0  0  0  0  3  0  0  0  0  0  0
  -21.7410   -7.0420   21.4000 O   0  0  0  0  0  0  0  0  0  0  0  0
  -21.7150   -6.2880   22.5460 C   0  0  0  0  0  0  0  0  0  0  0  0
  -21.3540   -6.8400   23.7940 C   0  0  0  0  0  3  0  0  0  0  0  0
  -21.2730   -6.0140   24.9340 C   0  0  0  0  0  3  0  0  0  0  0  0
  -21.5420   -4.6370   24.8260 C   0  0  0  0  0  0  0  0  0  0  0  0
  -21.8970   -4.0840   23.5830 C   0  0  0  0  0  3  0  0  0  0  0  0
  -21.9790   -4.9070   22.4450 C   0  0  0  0  0  0  0  0  0  0  0  0
  -22.3000   -4.3650   21.2460 F   0  0  0  0  0  0  0  0  0  0  0  0
  -21.4580   -3.8410   25.9170 F   0  0  0  0  0  0  0  0  0  0  0  0
  -22.9570  -13.6660   21.2400 C   0  0  0  0  0  0  0  0  0  0  0  0
  -22.2870  -12.9570   22.1420 N   0  0  0  0  0  0  0  0  0  0  0  0
  -22.5000  -14.7130   20.7860 O   0  0  0  0  0  0  0  0  0  0  0  0
  -22.6700  -12.1080   22.5300 H   0  0  0  0  0  0  0  0  0  0  0  0
  -21.3770  -13.2700   22.4510 H   0  0  0  0  0  0  0  0  0  0  0  0
  -25.5560  -15.3100   20.2890 N   0  0  0  0  0  0  0  0  0  0  0  0
  -24.8210  -15.9800   20.4880 H   0  0  0  0  0  0  0  0  0  0  0  0
  -26.4030  -15.7420   19.9420 H   0  0  0  0  0  0  0  0  0  0  0  0
  -29.1040  -23.8280   20.4990 C   0  0  0  0  0  3  0  0  0  0  0  0
  -28.0660  -24.9550   20.0270 C   0  0  0  0  0  3  0  0  0  0  0  0
  -28.2770  -26.4050   20.3200 O   0  0  0  0  0  0  0  0  0  0  0  0
  -24.5670  -31.8750   23.2510 C   0  0  0  0  0  0  0  0  0  0  0  0
  -27.1720  -27.2780   20.2340 C   0  0  0  0  0  0  0  0  0  0  0  0
  -23.3620  -30.4660   21.6220 C   0  0  0  0  0  3  0  0  0  0  0  0
  -24.8110  -28.9080   20.2050 C   0  0  0  0  0  0  0  0  0  0  0  0
  -25.9030  -30.7770   21.4370 C   0  0  0  0  0  2  0  0  0  0  0  0
  -25.9810  -29.3940   20.8010 C   0  0  0  0  0  0  0  0  0  0  0  0
  -27.1640  -28.5910   20.8070 C   0  0  0  0  0  3  0  0  0  0  0  0
  -25.9800  -26.8610   19.5940 C   0  0  0  0  0  3  0  0  0  0  0  0
  -24.8140  -27.6480   19.5900 C   0  0  0  0  0  3  0  0  0  0  0  0
  -23.5760  -29.7830   20.2460 C   0  0  0  0  0  2  0  0  0  0  0  0
  -24.6300  -31.0570   22.1600 N   0  0  0  0  0  0  0  0  0  0  0  0
  -23.4830  -32.1580   23.7840 O   0  0  0  0  0  0  0  0  0  0  0  0
  -22.6980  -29.4560   22.5890 C   0  0  0  0  0  0  0  0  0  0  0  0
  -21.3720  -29.2750   22.4610 N   0  0  0  0  0  0  0  0  0  0  0  0
  -23.3760  -28.8370   23.4150 O   0  0  0  0  0  0  0  0  0  0  0  0
  -20.8840  -29.8270   21.7710 H   0  0  0  0  0  0  0  0  0  0  0  0
  -17.9960  -28.0740   22.9630 C   0  0  0  0  0  0  0  0  0  0  0  0
  -20.5520  -28.3450   23.2410 C   0  0  0  0  0  3  0  0  0  0  0  0
  -20.6610  -26.9070   22.6830 C   0  0  0  0  0  2  0  0  0  0  0  0
  -19.5630  -26.5700   21.6680 C   0  0  0  0  0  2  0  0  0  0  0  0
  -18.1780  -26.7180   22.3040 C   0  0  0  0  0  2  0  0  0  0  0  0
  -19.1100  -28.8450   23.3890 C   0  0  0  0  0  0  0  0  0  0  0  0
  -18.8850  -30.1140   23.9650 C   0  0  0  0  0  3  0  0  0  0  0  0
  -17.5790  -30.6140   24.1190 C   0  0  0  0  0  3  0  0  0  0  0  0
  -16.4780  -29.8420   23.7100 C   0  0  0  0  0  3  0  0  0  0  0  0
  -16.6870  -28.5730   23.1400 C   0  0  0  0  0  3  0  0  0  0  0  0
  -25.8510  -32.5130   23.8680 C   0  0  0  0  0  3  0  0  0  0  0  0
  -26.3570  -31.7620   25.1590 C   0  0  1  0  0  0  0  0  0  0  0  0
  -25.2590  -31.5440   26.2260 C   0  0  0  0  0  1  0  0  0  0  0  0
  -26.9360  -30.3740   24.7960 C   0  0  0  0  0  1  0  0  0  0  0  0
  -27.5100  -32.5600   25.8110 C   0  0  0  0  0  1  0  0  0  0  0  0
  -25.5460  -33.9180   24.1730 N   0  0  0  0  0  0  0  0  0  0  0  0
  -25.8750  -34.9550   23.3910 C   0  0  0  0  0  0  0  0  0  0  0  0
  -26.5380  -34.8310   22.3580 O   0  0  0  0  0  0  0  0  0  0  0  0
  -24.9580  -34.0870   24.9760 H   0  0  0  0  0  0  0  0  0  0  0  0
  -24.1430  -36.7420   23.0190 C   0  0  0  0  0  1  0  0  0  0  0  0
  -25.3950  -36.3540   23.8250 C   0  0  0  0  0  3  0  0  0  0  0  0
  -27.5420  -37.2530   24.6080 C   0  0  0  0  0  1  0  0  0  0  0  0
  -26.4270  -37.4040   23.6760 N   0  0  0  0  0  0  0  0  0  0  0  0
  -26.0250  -38.3280   23.8100 H   0  0  0  0  0  0  0  0  0  0  0  0
  1  3  1  0
  1 48  1  0
  1  5  1  0
  2  1  1  0
  5  4  1  0
  6  5  1  0
  7 19  1  0
  8 13  1  0
  9 10  1  0
  9  8  1  0
 11 10  1  0
 11 23  1  0
 11 12  1  0
 13  7  1  0
 13 12  1  0
 14  7  2  0
 15 16  1  0
 17 19  1  0
 17 18  1  0
 18  6  1  0
 18 15  1  0
 19 16  1  0
 20 21  2  0
 21 40  1  0
 22 21  1  0
 22 25  1  0
 23 24  1  0
 23 20  1  0
 24 22  2  0
 25 26  1  0
 26 27  2  0
 28 31  1  0
 28 27  1  0
 29 28  2  0
 30 29  1  0
 30 25  2  0
 31 32  1  0
 32 33  1  0
 33 34  2  0
 35 34  1  0
 35 39  1  0
 36 35  2  0
 37 32  2  0
 37 36  1  0
 38 37  1  0
 40 41  1  0
 41 44  1  0
 41 43  1  0
 42 40  2  0
 45 20  1  0
 45 46  1  0
 47 45  1  0
 49 50  1  0
 49 48  2  0
 51 62  2  0
 52 50  1  0
 52 57  1  0
 53 61  1  0
 53 63  1  0
 54 60  1  0
 54 56  1  0
 55 61  1  0
 56 57  2  0
 56 55  1  0
 58 52  2  0
 59 58  1  0
 59 54  2  0
 60 53  1  0
 61 51  1  0
 63 65  2  0
 64 63  1  0
 66 64  1  0
 67 76  2  0
 67 72  1  0
 68 64  1  0
 68 72  1  0
 69 68  1  0
 70 71  1  0
 70 69  1  0
 71 67  1  0
 72 73  2  0
 73 74  1  0
 75 74  2  0
 76 75  1  0
 77 51  1  0
 77 82  1  0
 77 78  1  0
 78 81  1  1
 78 79  1  0
 80 78  1  0
 82 85  1  0
 83 87  1  0
 83 82  1  0
 84 83  2  0
 87 86  1  0
 89 90  1  0
 89 87  1  0
 89 88  1  0
M  ISO  4   7 100  19 100  49 101  50 101
M  END
>  <TORSDO>  (44) 
F 20

>  <SCORE>  (44) 
-13.068

>  <name>  (44) 
43

>  <ligand_id>  (44) 
43

>  <original_smiles>  (44) 
[H]c1c([H])c([H])c2c(c1[H])C([H])([H])C([H])([H])C([H])([H])C2([H])N([H])C(=O)C1([H])N(C(=O)C([H])(N([H])C(=O)C([H])(N([H])C([H])([H])[H])C([H])([H])[H])C(C([H])([H])[H])(C([H])([H])[H])C([H])([H])[H])C([H])([H])c2c([H])c(OC([H])([H])C([H])([H])[N+]([H])([H])C([H])(C([H])([H])[H])C([H])([H])C3([H])C([H])([H])N(C(=O)N4C([H])([H])C([H])([H])C([H])([H])C([H])(n5nc(-c6c([H])c([H])c(Oc7c([H])c([H])c(F)c([H])c7F)c([H])c6[H])c(C(=O)N([H])[H])c5N([H])[H])C4([H])[H])C([H])([H])C3([H])[H])c([H])c([H])c2C1([H])[H]

>  <smiles>  (44) 
[H]c1c([H])c([H])c2c(c1[H])C([H])([H])C([H])([H])C([H])([H])C2([H])N([H])C(=O)C1([H])N(C(=O)C([H])(N([H])C(=O)C([H])(N([H])C([H])([H])[H])C([H])([H])[H])C(C([H])([H])[H])(C([H])([H])[H])C([H])([H])[H])C([H])([H])c2c([H])c(OC([H])([H])C([H])([H])[N+]([H])([H])C([H])(C([H])([H])[H])C([H])([H])C3([H])C([H])([H])N(C(=O)N4C([H])([H])C([H])([H])C([H])([H])C([H])(n5nc(-c6c([H])c([H])c(Oc7c([H])c([H])c(F)c([H])c7F)c([H])c6[H])c(C(=O)N([H])[H])c5N([H])[H])C4([H])[H])C([H])([H])C3([H])[H])c([H])c([H])c2C1([H])[H]

$$$$
44:0:0
     RDKit          3D

 91 99  0  0  1  0  0  0  0  0999 V2000
  -28.7410  -20.9140   19.0630 C   0  0  0  0  0  2  0  0  0  0  0  0
  -28.9080  -21.8490   20.2510 C   0  0  0  0  0  3  0  0  0  0  0  0
  -28.4840  -20.3770   20.4490 C   0  0  0  0  0  3  0  0  0  0  0  0
  -29.5190  -19.4110   20.9390 N   0  0  0  0  0  4  0  0  0  0  0  0
  -29.6580  -19.5770   21.9230 H   0  0  0  0  0  0  0  0  0  0  0  0
  -30.3950  -19.6020   20.4810 H   0  0  0  0  0  0  0  0  0  0  0  0
  -29.1670  -17.9640   20.7580 C   0  0  0  0  0  2  0  0  0  0  0  0
  -30.2890  -16.9460   21.1670 C   0  0  0  0  0  2  0  0  0  0  0  0
  -30.6180  -14.5060   20.5140 C   0  0  0  0  0  0  0  0  0  0  0  0
  -30.3590  -12.3400   19.3580 C   0  0  0  0  0  2  0  0  0  0  0  0
  -29.4230  -12.5300   18.1450 C   0  0  0  0  0  2  0  0  0  0  0  0
  -27.9460  -12.3830   18.5670 C   0  0  0  0  0  2  0  0  0  0  0  0
  -27.5950  -13.2270   19.8210 C   0  0  0  0  0  3  0  0  0  0  0  0
  -28.6380  -13.0050   20.9380 C   0  0  0  0  0  2  0  0  0  0  0  0
  -29.9650  -13.3200   20.3830 N   0  0  0  0  0  0  0  0  0  0  0  0
  -31.7500  -14.6980   20.0600 O   0  0  0  0  0  0  0  0  0  0  0  0
  -29.8940  -15.5200   21.0400 N   0  0  0  0  0  0  0  0  0  0  0  0
  -28.9820  -15.2640   21.3900 H   0  0  0  0  0  0  0  0  0  0  0  0
  -25.1910  -13.8410   20.5060 C   0  0  0  0  0  0  0  0  0  0  0  0
  -24.1160  -13.0740   20.8600 C   0  0  0  0  0  0  0  0  0  0  0  0
  -24.5750  -11.7210   20.8400 C   0  0  0  0  0  0  0  0  0  0  0  0
  -26.2350  -12.9580   20.2840 N   0  0  0  0  0  0  0  0  0  0  0  0
  -25.8680  -11.6780   20.5450 N   0  0  0  0  0  0  0  0  0  0  0  0
  -23.8450  -10.4620   21.0300 C   0  0  0  0  0  0  0  0  0  0  0  0
  -24.2640   -9.4990   21.9740 C   0  0  0  0  0  3  0  0  0  0  0  0
  -23.5320   -8.3040   22.1480 C   0  0  0  0  0  3  0  0  0  0  0  0
  -22.3690   -8.0660   21.3790 C   0  0  0  0  0  0  0  0  0  0  0  0
  -21.9700   -9.0180   20.4240 C   0  0  0  0  0  3  0  0  0  0  0  0
  -22.7030  -10.2040   20.2470 C   0  0  0  0  0  3  0  0  0  0  0  0
  -21.6130   -6.9230   21.4650 O   0  0  0  0  0  0  0  0  0  0  0  0
  -21.5500   -6.1830   22.6200 C   0  0  0  0  0  0  0  0  0  0  0  0
  -21.0950   -6.7370   23.8350 C   0  0  0  0  0  3  0  0  0  0  0  0
  -20.9740   -5.9250   24.9800 C   0  0  0  0  0  3  0  0  0  0  0  0
  -21.3050   -4.5570   24.9120 C   0  0  0  0  0  0  0  0  0  0  0  0
  -21.7570   -4.0020   23.7020 C   0  0  0  0  0  3  0  0  0  0  0  0
  -21.8750   -4.8130   22.5570 C   0  0  0  0  0  0  0  0  0  0  0  0
  -22.2900   -4.2680   21.3900 F   0  0  0  0  0  0  0  0  0  0  0  0
  -21.1860   -3.7750   26.0100 F   0  0  0  0  0  0  0  0  0  0  0  0
  -22.7170  -13.5590   21.1150 C   0  0  0  0  0  0  0  0  0  0  0  0
  -21.9740  -12.8710   21.9730 N   0  0  0  0  0  0  0  0  0  0  0  0
  -22.2930  -14.5880   20.5890 O   0  0  0  0  0  0  0  0  0  0  0  0
  -22.3320  -12.0430   22.4260 H   0  0  0  0  0  0  0  0  0  0  0  0
  -21.0370  -13.1850   22.1870 H   0  0  0  0  0  0  0  0  0  0  0  0
  -25.3610  -15.2100   20.3390 N   0  0  0  0  0  0  0  0  0  0  0  0
  -24.5980  -15.8630   20.4740 H   0  0  0  0  0  0  0  0  0  0  0  0
  -26.2170  -15.6560   20.0390 H   0  0  0  0  0  0  0  0  0  0  0  0
  -27.8710  -22.8780   20.4340 N   0  0  0  0  0  0  0  0  0  0  0  0
  -27.3060  -22.9820   19.5920 H   0  0  0  0  0  0  0  0  0  0  0  0
  -28.2820  -24.2140   20.9110 C   0  0  0  0  0  2  0  0  0  0  0  0
  -28.5120  -25.2790   19.7890 C   0  0  0  0  0  2  0  0  0  0  0  0
  -28.4340  -26.6620   20.2320 O   0  0  0  0  0  0  0  0  0  0  0  0
  -24.5810  -31.8760   23.2450 C   0  0  0  0  0  0  0  0  0  0  0  0
  -27.2440  -27.3820   20.2000 C   0  0  0  0  0  0  0  0  0  0  0  0
  -23.3890  -30.4720   21.5950 C   0  0  0  0  0  3  0  0  0  0  0  0
  -24.8510  -28.9290   20.1830 C   0  0  0  0  0  0  0  0  0  0  0  0
  -25.9210  -30.8190   21.4190 C   0  0  0  0  0  2  0  0  0  0  0  0
  -26.0090  -29.4420   20.7780 C   0  0  0  0  0  0  0  0  0  0  0  0
  -27.2030  -28.6800   20.7760 C   0  0  0  0  0  3  0  0  0  0  0  0
  -26.0560  -26.8890   19.6070 C   0  0  0  0  0  3  0  0  0  0  0  0
  -24.8740  -27.6560   19.5910 C   0  0  0  0  0  3  0  0  0  0  0  0
  -23.6090  -29.7930   20.2180 C   0  0  0  0  0  2  0  0  0  0  0  0
  -24.6490  -31.0720   22.1440 N   0  0  0  0  0  0  0  0  0  0  0  0
  -23.4950  -32.1480   23.7750 O   0  0  0  0  0  0  0  0  0  0  0  0
  -22.7300  -29.4510   22.5530 C   0  0  0  0  0  0  0  0  0  0  0  0
  -21.4040  -29.2760   22.4220 N   0  0  0  0  0  0  0  0  0  0  0  0
  -23.4070  -28.8220   23.3680 O   0  0  0  0  0  0  0  0  0  0  0  0
  -20.9200  -29.8340   21.7340 H   0  0  0  0  0  0  0  0  0  0  0  0
  -18.0180  -28.1150   22.9300 C   0  0  0  0  0  0  0  0  0  0  0  0
  -20.5810  -28.3410   23.1890 C   0  0  0  0  0  3  0  0  0  0  0  0
  -20.6620  -26.9130   22.5960 C   0  0  0  0  0  2  0  0  0  0  0  0
  -19.5500  -26.6150   21.5870 C   0  0  0  0  0  2  0  0  0  0  0  0
  -18.1750  -26.7700   22.2410 C   0  0  0  0  0  2  0  0  0  0  0  0
  -19.1480  -28.8580   23.3610 C   0  0  0  0  0  0  0  0  0  0  0  0
  -18.9470  -30.1190   23.9670 C   0  0  0  0  0  3  0  0  0  0  0  0
  -17.6490  -30.6330   24.1440 C   0  0  0  0  0  3  0  0  0  0  0  0
  -16.5330  -29.8850   23.7290 C   0  0  0  0  0  3  0  0  0  0  0  0
  -16.7200  -28.6270   23.1270 C   0  0  0  0  0  3  0  0  0  0  0  0
  -25.8610  -32.5090   23.8750 C   0  0  0  0  0  3  0  0  0  0  0  0
  -25.5510  -33.9100   24.1900 N   0  0  0  0  0  0  0  0  0  0  0  0
  -25.8960  -34.9550   23.4260 C   0  0  0  0  0  0  0  0  0  0  0  0
  -26.5780  -34.8400   22.4030 O   0  0  0  0  0  0  0  0  0  0  0  0
  -24.9490  -34.0720   24.9840 H   0  0  0  0  0  0  0  0  0  0  0  0
  -24.1840  -36.7530   23.0240 C   0  0  0  0  0  1  0  0  0  0  0  0
  -25.4070  -36.3480   23.8640 C   0  0  0  0  0  3  0  0  0  0  0  0
  -27.5290  -37.2290   24.7330 C   0  0  0  0  0  1  0  0  0  0  0  0
  -26.4480  -37.3950   23.7650 N   0  0  0  0  0  0  0  0  0  0  0  0
  -26.0430  -38.3190   23.8960 H   0  0  0  0  0  0  0  0  0  0  0  0
  -26.3610  -31.7470   25.1630 C   0  0  1  0  0  0  0  0  0  0  0  0
  -25.2560  -31.5210   26.2210 C   0  0  0  0  0  1  0  0  0  0  0  0
  -26.9440  -30.3650   24.7870 C   0  0  0  0  0  1  0  0  0  0  0  0
  -27.5070  -32.5440   25.8300 C   0  0  0  0  0  1  0  0  0  0  0  0
  1  2  1  0
  1  3  1  0
  2 47  1  0
  2  3  1  0
  3  4  1  0
  4  5  1  0
  6  4  1  0
  7  4  1  0
  7  8  1  0
  9 17  1  0
 10 15  1  0
 11 12  1  0
 11 10  1  0
 13 12  1  0
 13 22  1  0
 13 14  1  0
 15  9  1  0
 15 14  1  0
 16  9  2  0
 17  8  1  0
 17 18  1  0
 19 20  2  0
 20 39  1  0
 21 20  1  0
 21 24  1  0
 22 19  1  0
 22 23  1  0
 23 21  2  0
 24 25  1  0
 25 26  2  0
 27 30  1  0
 27 26  1  0
 28 27  2  0
 29 28  1  0
 29 24  2  0
 30 31  1  0
 31 32  1  0
 32 33  2  0
 34 33  1  0
 34 38  1  0
 35 34  2  0
 36 31  2  0
 36 35  1  0
 37 36  1  0
 39 40  1  0
 40 43  1  0
 40 42  1  0
 41 39  2  0
 44 45  1  0
 44 19  1  0
 46 44  1  0
 47 49  1  0
 48 47  1  0
 50 51  1  0
 50 49  1  0
 52 63  2  0
 53 51  1  0
 53 58  1  0
 54 62  1  0
 54 64  1  0
 55 61  1  0
 55 57  1  0
 56 62  1  0
 57 56  1  0
 58 57  2  0
 59 53  2  0
 60 59  1  0
 60 55  2  0
 61 54  1  0
 62 52  1  0
 64 66  2  0
 65 64  1  0
 67 65  1  0
 68 77  2  0
 68 73  1  0
 69 65  1  0
 69 73  1  0
 70 69  1  0
 71 72  1  0
 71 70  1  0
 72 68  1  0
 73 74  2  0
 74 75  1  0
 76 75  2  0
 77 76  1  0
 78 52  1  0
 78 79  1  0
 78 88  1  0
 79 82  1  0
 80 84  1  0
 80 79  1  0
 81 80  2  0
 84 83  1  0
 86 84  1  0
 86 87  1  0
 86 85  1  0
 88 91  1  1
 88 89  1  0
 90 88  1  0
M  ISO  4   9 100  17 100  50 101  51 101
M  END
>  <TORSDO>  (45) 
F 22

>  <SCORE>  (45) 
-13.173

>  <name>  (45) 
44

>  <ligand_id>  (45) 
44

>  <original_smiles>  (45) 
[H]c1c([H])c([H])c2c(c1[H])C([H])([H])C([H])([H])C([H])([H])C2([H])N([H])C(=O)C1([H])N(C(=O)C([H])(N([H])C(=O)C([H])(N([H])C([H])([H])[H])C([H])([H])[H])C(C([H])([H])[H])(C([H])([H])[H])C([H])([H])[H])C([H])([H])c2c([H])c(OC([H])([H])C([H])([H])N([H])C3([H])C([H])([H])C3([H])[N+]([H])([H])C([H])([H])C([H])([H])N([H])C(=O)N3C([H])([H])C([H])([H])C([H])([H])C([H])(n4nc(-c5c([H])c([H])c(Oc6c([H])c([H])c(F)c([H])c6F)c([H])c5[H])c(C(=O)N([H])[H])c4N([H])[H])C3([H])[H])c([H])c([H])c2C1([H])[H]

>  <smiles>  (45) 
[H]c1c([H])c([H])c2c(c1[H])C([H])([H])C([H])([H])C([H])([H])C2([H])N([H])C(=O)C1([H])N(C(=O)C([H])(N([H])C(=O)C([H])(N([H])C([H])([H])[H])C([H])([H])[H])C(C([H])([H])[H])(C([H])([H])[H])C([H])([H])[H])C([H])([H])c2c([H])c(OC([H])([H])C([H])([H])N([H])C3([H])C([H])([H])C3([H])[N+]([H])([H])C([H])([H])C([H])([H])N([H])C(=O)N3C([H])([H])C([H])([H])C([H])([H])C([H])(n4nc(-c5c([H])c([H])c(Oc6c([H])c([H])c(F)c([H])c6F)c([H])c5[H])c(C(=O)N([H])[H])c4N([H])[H])C3([H])[H])c([H])c([H])c2C1([H])[H]

$$$$
45:0:0
     RDKit          3D

 98107  0  0  1  0  0  0  0  0999 V2000
  -28.7140  -23.9960   19.6690 C   0  0  0  0  0  0  0  0  0  0  0  0
  -29.2880  -22.9870   18.8320 C   0  0  0  0  0  3  0  0  0  0  0  0
  -28.7230  -21.3740   20.3620 C   0  0  0  0  0  0  0  0  0  0  0  0
  -29.3020  -21.6660   19.1960 N   0  0  0  0  0  0  0  0  0  0  0  0
  -28.1520  -23.5960   20.8410 N   0  0  0  0  0  0  0  0  0  0  0  0
  -28.1500  -22.2820   21.1770 N   0  0  0  0  0  2  0  0  0  0  0  0
  -28.6320  -20.0360   20.7730 N   0  0  0  0  0  0  0  0  0  0  0  0
  -28.1160  -19.9490   21.6390 H   0  0  0  0  0  0  0  0  0  0  0  0
  -30.6920  -14.6060   20.0590 C   0  0  0  0  0  0  0  0  0  0  0  0
  -30.3500  -12.3990   18.9950 C   0  0  0  0  0  2  0  0  0  0  0  0
  -29.3530  -12.5570   17.8290 C   0  0  0  0  0  2  0  0  0  0  0  0
  -27.9060  -12.4020   18.3360 C   0  0  0  0  0  2  0  0  0  0  0  0
  -27.6170  -13.2480   19.6050 C   0  0  0  0  0  3  0  0  0  0  0  0
  -28.7350  -13.1120   20.6610 C   0  0  0  0  0  2  0  0  0  0  0  0
  -30.0060  -13.4240   19.9990 N   0  0  0  0  0  0  0  0  0  0  0  0
  -31.8600  -14.6790   19.6630 O   0  0  0  0  0  0  0  0  0  0  0  0
  -28.7160  -17.8460   19.4640 C   0  0  0  0  0  2  0  0  0  0  0  0
  -29.8090  -17.9840   21.6420 C   0  0  0  0  0  2  0  0  0  0  0  0
  -29.5600  -16.5610   19.1570 C   0  0  0  0  0  2  0  0  0  0  0  0
  -30.6340  -16.7030   21.3010 C   0  0  0  0  0  2  0  0  0  0  0  0
  -29.4380  -18.8410   20.4040 C   0  0  0  0  0  3  0  0  0  0  0  0
  -30.0000  -15.7670   20.3380 N   0  0  0  0  0  0  0  0  0  0  0  0
  -25.2740  -13.8330   20.4700 C   0  0  0  0  0  0  0  0  0  0  0  0
  -24.2250  -13.0550   20.8760 C   0  0  0  0  0  0  0  0  0  0  0  0
  -24.6790  -11.7020   20.7880 C   0  0  0  0  0  0  0  0  0  0  0  0
  -26.3000  -12.9560   20.1600 N   0  0  0  0  0  0  0  0  0  0  0  0
  -25.9510  -11.6680   20.4110 N   0  0  0  0  0  0  0  0  0  0  0  0
  -23.9590  -10.4380   20.9860 C   0  0  0  0  0  0  0  0  0  0  0  0
  -24.4120   -9.4630   21.9020 C   0  0  0  0  0  3  0  0  0  0  0  0
  -23.6910   -8.2640   22.0880 C   0  0  0  0  0  3  0  0  0  0  0  0
  -22.5010   -8.0320   21.3590 C   0  0  0  0  0  0  0  0  0  0  0  0
  -22.0660   -8.9950   20.4310 C   0  0  0  0  0  3  0  0  0  0  0  0
  -22.7880  -10.1850   20.2430 C   0  0  0  0  0  3  0  0  0  0  0  0
  -21.7500   -6.8860   21.4560 O   0  0  0  0  0  0  0  0  0  0  0  0
  -21.6970   -6.1550   22.6150 C   0  0  0  0  0  0  0  0  0  0  0  0
  -21.2390   -6.7150   23.8280 C   0  0  0  0  0  3  0  0  0  0  0  0
  -21.1360   -5.9090   24.9800 C   0  0  0  0  0  3  0  0  0  0  0  0
  -21.4800   -4.5450   24.9190 C   0  0  0  0  0  0  0  0  0  0  0  0
  -21.9320   -3.9850   23.7110 C   0  0  0  0  0  3  0  0  0  0  0  0
  -22.0370   -4.7880   22.5620 C   0  0  0  0  0  0  0  0  0  0  0  0
  -22.4520   -4.2390   21.3940 F   0  0  0  0  0  0  0  0  0  0  0  0
  -21.3740   -3.7700   26.0230 F   0  0  0  0  0  0  0  0  0  0  0  0
  -22.8470  -13.5290   21.2340 C   0  0  0  0  0  0  0  0  0  0  0  0
  -22.1650  -12.8160   22.1230 N   0  0  0  0  0  0  0  0  0  0  0  0
  -22.3860  -14.5670   20.7600 O   0  0  0  0  0  0  0  0  0  0  0  0
  -22.5500  -11.9750   22.5250 H   0  0  0  0  0  0  0  0  0  0  0  0
  -21.2420  -13.1170   22.4050 H   0  0  0  0  0  0  0  0  0  0  0  0
  -25.4360  -15.2080   20.3190 N   0  0  0  0  0  0  0  0  0  0  0  0
  -24.6850  -15.8660   20.4930 H   0  0  0  0  0  0  0  0  0  0  0  0
  -26.2840  -15.6500   19.9900 H   0  0  0  0  0  0  0  0  0  0  0  0
  -31.4150  -23.4130   17.5120 C   0  0  0  0  0  1  0  0  0  0  0  0
  -29.8810  -23.2810   17.4540 C   0  0  0  0  0  3  0  0  0  0  0  0
  -29.4750  -22.2110   16.5330 N   0  0  0  0  0  4  0  0  0  0  0  0
  -29.6590  -21.3410   17.0020 H   0  0  0  0  0  0  0  0  0  0  0  0
  -29.9650  -22.2580   15.6590 H   0  0  0  0  0  0  0  0  0  0  0  0
  -28.4860  -22.2640   16.3680 H   0  0  0  0  0  0  0  0  0  0  0  0
  -28.6590  -25.5070   19.2390 C   0  0  0  0  0  2  0  0  0  0  0  0
  -28.3820  -26.5650   20.2120 O   0  0  0  0  0  0  0  0  0  0  0  0
  -24.5850  -31.8600   23.2060 C   0  0  0  0  0  0  0  0  0  0  0  0
  -27.2280  -27.3470   20.1370 C   0  0  0  0  0  0  0  0  0  0  0  0
  -23.3850  -30.4560   21.5640 C   0  0  0  0  0  3  0  0  0  0  0  0
  -24.8410  -28.9090   20.1390 C   0  0  0  0  0  0  0  0  0  0  0  0
  -25.9170  -30.7940   21.3760 C   0  0  0  0  0  2  0  0  0  0  0  0
  -26.0040  -29.4190   20.7310 C   0  0  0  0  0  0  0  0  0  0  0  0
  -27.1950  -28.6440   20.7280 C   0  0  0  0  0  3  0  0  0  0  0  0
  -26.0380  -26.8670   19.5470 C   0  0  0  0  0  3  0  0  0  0  0  0
  -24.8570  -27.6370   19.5460 C   0  0  0  0  0  3  0  0  0  0  0  0
  -23.5980  -29.7720   20.1880 C   0  0  0  0  0  2  0  0  0  0  0  0
  -24.6480  -31.0530   22.1060 N   0  0  0  0  0  0  0  0  0  0  0  0
  -23.5010  -32.1360   23.7400 O   0  0  0  0  0  0  0  0  0  0  0  0
  -22.7260  -29.4400   22.5250 C   0  0  0  0  0  0  0  0  0  0  0  0
  -21.3980  -29.2750   22.4070 N   0  0  0  0  0  0  0  0  0  0  0  0
  -23.4060  -28.8030   23.3330 O   0  0  0  0  0  0  0  0  0  0  0  0
  -20.9090  -29.8370   21.7240 H   0  0  0  0  0  0  0  0  0  0  0  0
  -18.0130  -28.1170   22.9290 C   0  0  0  0  0  0  0  0  0  0  0  0
  -20.5760  -28.3400   23.1750 C   0  0  0  0  0  3  0  0  0  0  0  0
  -20.6550  -26.9150   22.5820 C   0  0  0  0  0  2  0  0  0  0  0  0
  -19.5390  -26.6180   21.5770 C   0  0  0  0  0  2  0  0  0  0  0  0
  -18.1650  -26.7730   22.2350 C   0  0  0  0  0  2  0  0  0  0  0  0
  -19.1460  -28.8610   23.3550 C   0  0  0  0  0  0  0  0  0  0  0  0
  -18.9490  -30.1220   23.9580 C   0  0  0  0  0  3  0  0  0  0  0  0
  -17.6520  -30.6370   24.1450 C   0  0  0  0  0  3  0  0  0  0  0  0
  -16.5350  -29.8870   23.7370 C   0  0  0  0  0  3  0  0  0  0  0  0
  -16.7160  -28.6300   23.1340 C   0  0  0  0  0  3  0  0  0  0  0  0
  -25.8660  -32.4950   23.8320 C   0  0  0  0  0  3  0  0  0  0  0  0
  -26.3870  -31.7190   25.1050 C   0  0  1  0  0  0  0  0  0  0  0  0
  -25.2950  -31.4650   26.1710 C   0  0  0  0  0  1  0  0  0  0  0  0
  -26.9800  -30.3480   24.7020 C   0  0  0  0  0  1  0  0  0  0  0  0
  -27.5320  -32.5160   25.7740 C   0  0  0  0  0  1  0  0  0  0  0  0
  -25.5520  -33.8890   24.1720 N   0  0  0  0  0  0  0  0  0  0  0  0
  -25.8680  -34.9470   23.4140 C   0  0  0  0  0  0  0  0  0  0  0  0
  -26.5260  -34.8520   22.3740 O   0  0  0  0  0  0  0  0  0  0  0  0
  -24.9710  -34.0360   24.9840 H   0  0  0  0  0  0  0  0  0  0  0  0
  -24.1230  -36.7290   23.0850 C   0  0  0  0  0  1  0  0  0  0  0  0
  -25.3750  -36.3290   23.8830 C   0  0  0  0  0  3  0  0  0  0  0  0
  -27.5110  -37.2270   24.6990 C   0  0  0  0  0  1  0  0  0  0  0  0
  -26.3980  -37.3930   23.7680 N   0  0  0  0  0  0  0  0  0  0  0  0
  -25.9840  -38.3070   23.9300 H   0  0  0  0  0  0  0  0  0  0  0  0
  1  5  2  0
  2 52  1  0
  2  4  1  0
  2  1  1  0
  3  7  1  0
  3  6  1  0
  4  3  2  0
  5  6  1  0
  7  8  1  0
  9 22  1  0
 10 15  1  0
 11 12  1  0
 11 10  1  0
 13 12  1  0
 13 26  1  0
 13 14  1  0
 15  9  1  0
 15 14  1  0
 16  9  2  0
 17 21  1  0
 19 17  1  0
 19 22  1  0
 20 18  1  0
 21  7  1  0
 21 18  1  0
 22 20  1  0
 23 24  2  0
 24 43  1  0
 25 24  1  0
 25 28  1  0
 26 27  1  0
 26 23  1  0
 27 25  2  0
 28 29  1  0
 29 30  2  0
 31 34  1  0
 31 30  1  0
 32 31  2  0
 33 32  1  0
 33 28  2  0
 34 35  1  0
 35 36  1  0
 36 37  2  0
 38 37  1  0
 38 42  1  0
 39 38  2  0
 40 35  2  0
 40 39  1  0
 41 40  1  0
 43 44  1  0
 44 47  1  0
 44 46  1  0
 45 43  2  0
 48 23  1  0
 48 49  1  0
 50 48  1  0
 52 51  1  0
 53 54  1  0
 53 52  1  0
 55 53  1  0
 56 53  1  0
 57  1  1  0
 57 58  1  0
 59 70  2  0
 60 58  1  0
 60 65  1  0
 61 69  1  0
 61 71  1  0
 62 68  1  0
 62 64  1  0
 63 69  1  0
 64 63  1  0
 65 64  2  0
 66 60  2  0
 67 66  1  0
 67 62  2  0
 68 61  1  0
 69 59  1  0
 71 73  2  0
 72 71  1  0
 74 72  1  0
 75 84  2  0
 75 80  1  0
 76 72  1  0
 76 80  1  0
 77 76  1  0
 78 79  1  0
 78 77  1  0
 79 75  1  0
 80 81  2  0
 81 82  1  0
 83 82  2  0
 84 83  1  0
 85 59  1  0
 85 90  1  0
 85 86  1  0
 86 89  1  1
 86 87  1  0
 88 86  1  0
 90 93  1  0
 91 95  1  0
 91 90  1  0
 92 91  2  0
 95 94  1  0
 97 95  1  0
 97 98  1  0
 97 96  1  0
M  ISO  4   9 100  22 100  57 101  58 101
M  END
>  <TORSDO>  (46) 
F 19

>  <SCORE>  (46) 
-14.540

>  <name>  (46) 
45

>  <ligand_id>  (46) 
45

>  <original_smiles>  (46) 
[H]c1c([H])c([H])c2c(c1[H])C([H])([H])C([H])([H])C([H])([H])C2([H])N([H])C(=O)C1([H])N(C(=O)C([H])(N([H])C(=O)C([H])(N([H])C([H])([H])[H])C([H])([H])[H])C(C([H])([H])[H])(C([H])([H])[H])C([H])([H])[H])C([H])([H])c2c([H])c(OC([H])([H])c3nnc(N([H])C4([H])C([H])([H])C([H])([H])N(C(=O)N5C([H])([H])C([H])([H])C([H])([H])C([H])(n6nc(-c7c([H])c([H])c(Oc8c([H])c([H])c(F)c([H])c8F)c([H])c7[H])c(C(=O)N([H])[H])c6N([H])[H])C5([H])[H])C([H])([H])C4([H])[H])nc3C([H])(C([H])([H])[H])[N+]([H])([H])[H])c([H])c([H])c2C1([H])[H]

>  <smiles>  (46) 
[H]c1c([H])c([H])c2c(c1[H])C([H])([H])C([H])([H])C([H])([H])C2([H])N([H])C(=O)C1([H])N(C(=O)C([H])(N([H])C(=O)C([H])(N([H])C([H])([H])[H])C([H])([H])[H])C(C([H])([H])[H])(C([H])([H])[H])C([H])([H])[H])C([H])([H])c2c([H])c(OC([H])([H])c3nnc(N([H])C4([H])C([H])([H])C([H])([H])N(C(=O)N5C([H])([H])C([H])([H])C([H])([H])C([H])(n6nc(-c7c([H])c([H])c(Oc8c([H])c([H])c(F)c([H])c8F)c([H])c7[H])c(C(=O)N([H])[H])c6N([H])[H])C5([H])[H])C([H])([H])C4([H])[H])nc3C([H])(C([H])([H])[H])[N+]([H])([H])[H])c([H])c([H])c2C1([H])[H]

$$$$
46:0:0
     RDKit          3D

 91 99  0  0  1  0  0  0  0  0999 V2000
  -29.3700  -21.4390   20.4570 C   0  0  0  0  0  0  0  0  0  0  0  0
  -28.6600  -22.5980   20.3680 N   0  0  0  0  0  0  0  0  0  0  0  0
  -30.5980  -21.4380   20.5610 O   0  0  0  0  0  0  0  0  0  0  0  0
  -27.6580  -22.4990   20.2610 H   0  0  0  0  0  0  0  0  0  0  0  0
  -28.6250  -20.0670   20.4410 C   0  0  0  0  0  2  0  0  0  0  0  0
  -30.7150  -14.6390   20.0300 C   0  0  0  0  0  0  0  0  0  0  0  0
  -30.3660  -12.4450   18.9400 C   0  0  0  0  0  2  0  0  0  0  0  0
  -29.3580  -12.6080   17.7820 C   0  0  0  0  0  2  0  0  0  0  0  0
  -27.9140  -12.4460   18.2980 C   0  0  0  0  0  2  0  0  0  0  0  0
  -27.6330  -13.2820   19.5760 C   0  0  0  0  0  3  0  0  0  0  0  0
  -28.7600  -13.1260   20.6210 C   0  0  0  0  0  2  0  0  0  0  0  0
  -30.0240  -13.4610   19.9550 N   0  0  0  0  0  0  0  0  0  0  0  0
  -31.8820  -14.7000   19.6340 O   0  0  0  0  0  0  0  0  0  0  0  0
  -30.2420  -16.8130   18.9800 C   0  0  0  0  0  2  0  0  0  0  0  0
  -29.3340  -16.3900   21.2360 C   0  0  0  0  0  2  0  0  0  0  0  0
  -29.3490  -18.0870   19.0480 C   0  0  0  0  0  2  0  0  0  0  0  0
  -29.5940  -17.9270   21.4980 C   0  0  0  0  0  2  0  0  0  0  0  0
  -29.9810  -15.8060   20.0360 N   0  0  0  0  0  0  0  0  0  0  0  0
  -29.5200  -18.8490   20.3140 N   0  0  2  0  0  4  0  0  0  0  0  0
  -30.4330  -19.2810   20.2580 H   0  0  0  0  0  0  0  0  0  0  0  0
  -25.2920  -13.8450   20.4650 C   0  0  0  0  0  0  0  0  0  0  0  0
  -24.2520  -13.0550   20.8750 C   0  0  0  0  0  0  0  0  0  0  0  0
  -24.7140  -11.7070   20.7710 C   0  0  0  0  0  0  0  0  0  0  0  0
  -26.3210  -12.9770   20.1390 N   0  0  0  0  0  0  0  0  0  0  0  0
  -25.9840  -11.6850   20.3840 N   0  0  0  0  0  0  0  0  0  0  0  0
  -24.0030  -10.4360   20.9610 C   0  0  0  0  0  0  0  0  0  0  0  0
  -24.4500   -9.4720   21.8920 C   0  0  0  0  0  3  0  0  0  0  0  0
  -23.7380   -8.2670   22.0730 C   0  0  0  0  0  3  0  0  0  0  0  0
  -22.5650   -8.0160   21.3210 C   0  0  0  0  0  0  0  0  0  0  0  0
  -22.1380   -8.9680   20.3790 C   0  0  0  0  0  3  0  0  0  0  0  0
  -22.8490  -10.1650   20.1970 C   0  0  0  0  0  3  0  0  0  0  0  0
  -21.8240   -6.8620   21.4110 O   0  0  0  0  0  0  0  0  0  0  0  0
  -21.7240   -6.1600   22.5850 C   0  0  0  0  0  0  0  0  0  0  0  0
  -21.2200   -6.7500   23.7650 C   0  0  0  0  0  3  0  0  0  0  0  0
  -21.0690   -5.9730   24.9310 C   0  0  0  0  0  3  0  0  0  0  0  0
  -21.4110   -4.6070   24.9170 C   0  0  0  0  0  0  0  0  0  0  0  0
  -21.9070   -4.0170   23.7420 C   0  0  0  0  0  3  0  0  0  0  0  0
  -22.0600   -4.7920   22.5780 C   0  0  0  0  0  0  0  0  0  0  0  0
  -22.5180   -4.2120   21.4420 F   0  0  0  0  0  0  0  0  0  0  0  0
  -21.2580   -3.8590   26.0340 F   0  0  0  0  0  0  0  0  0  0  0  0
  -22.8730  -13.5170   21.2470 C   0  0  0  0  0  0  0  0  0  0  0  0
  -22.2030  -12.7920   22.1360 N   0  0  0  0  0  0  0  0  0  0  0  0
  -22.3990  -14.5540   20.7850 O   0  0  0  0  0  0  0  0  0  0  0  0
  -22.6000  -11.9510   22.5310 H   0  0  0  0  0  0  0  0  0  0  0  0
  -21.2810  -13.0810   22.4290 H   0  0  0  0  0  0  0  0  0  0  0  0
  -25.4430  -15.2200   20.3210 N   0  0  0  0  0  0  0  0  0  0  0  0
  -24.6810  -15.8690   20.4860 H   0  0  0  0  0  0  0  0  0  0  0  0
  -26.2600  -15.6620   19.9200 H   0  0  0  0  0  0  0  0  0  0  0  0
  -29.1650  -24.0080   20.4420 C   0  0  0  0  0  2  0  0  0  0  0  0
  -28.0950  -25.0890   20.0290 C   0  0  0  0  0  2  0  0  0  0  0  0
  -28.3550  -26.5240   20.2360 O   0  0  0  0  0  0  0  0  0  0  0  0
  -24.6390  -31.8900   23.2720 C   0  0  0  0  0  0  0  0  0  0  0  0
  -27.2430  -27.3740   20.1770 C   0  0  0  0  0  0  0  0  0  0  0  0
  -23.4350  -30.5120   21.6160 C   0  0  0  0  0  3  0  0  0  0  0  0
  -24.8820  -28.9790   20.1810 C   0  0  0  0  0  0  0  0  0  0  0  0
  -25.9760  -30.8300   21.4430 C   0  0  0  0  0  2  0  0  0  0  0  0
  -26.0520  -29.4610   20.7820 C   0  0  0  0  0  0  0  0  0  0  0  0
  -27.2360  -28.6700   20.7720 C   0  0  0  0  0  3  0  0  0  0  0  0
  -26.0490  -26.9470   19.5450 C   0  0  0  0  0  3  0  0  0  0  0  0
  -24.8820  -27.7260   19.5550 C   0  0  0  0  0  3  0  0  0  0  0  0
  -23.6490  -29.8520   20.2310 C   0  0  0  0  0  2  0  0  0  0  0  0
  -24.7020  -31.0940   22.1660 N   0  0  0  0  0  0  0  0  0  0  0  0
  -23.5560  -32.1650   23.8070 O   0  0  0  0  0  0  0  0  0  0  0  0
  -22.7700  -29.4840   22.5630 C   0  0  0  0  0  0  0  0  0  0  0  0
  -21.4430  -29.3100   22.4310 N   0  0  0  0  0  0  0  0  0  0  0  0
  -23.4460  -28.8490   23.3770 O   0  0  0  0  0  0  0  0  0  0  0  0
  -20.9570  -29.8760   21.7510 H   0  0  0  0  0  0  0  0  0  0  0  0
  -18.0610  -28.1270   22.9150 C   0  0  0  0  0  0  0  0  0  0  0  0
  -20.6200  -28.3690   23.1920 C   0  0  0  0  0  3  0  0  0  0  0  0
  -20.7150  -26.9410   22.6050 C   0  0  0  0  0  2  0  0  0  0  0  0
  -19.6140  -26.6340   21.5860 C   0  0  0  0  0  2  0  0  0  0  0  0
  -18.2320  -26.7810   22.2290 C   0  0  0  0  0  2  0  0  0  0  0  0
  -19.1830  -28.8780   23.3530 C   0  0  0  0  0  0  0  0  0  0  0  0
  -18.9710  -30.1390   23.9550 C   0  0  0  0  0  3  0  0  0  0  0  0
  -17.6670  -30.6460   24.1210 C   0  0  0  0  0  3  0  0  0  0  0  0
  -16.5600  -29.8900   23.6990 C   0  0  0  0  0  3  0  0  0  0  0  0
  -16.7580  -28.6330   23.1020 C   0  0  0  0  0  3  0  0  0  0  0  0
  -25.9220  -32.5140   23.9010 C   0  0  0  0  0  3  0  0  0  0  0  0
  -26.4290  -31.7380   25.1770 C   0  0  1  0  0  0  0  0  0  0  0  0
  -25.3300  -31.5000   26.2390 C   0  0  0  0  0  1  0  0  0  0  0  0
  -27.0090  -30.3590   24.7830 C   0  0  0  0  0  1  0  0  0  0  0  0
  -27.5770  -32.5260   25.8490 C   0  0  0  0  0  1  0  0  0  0  0  0
  -25.6170  -33.9130   24.2340 N   0  0  0  0  0  0  0  0  0  0  0  0
  -25.9360  -34.9650   23.4680 C   0  0  0  0  0  0  0  0  0  0  0  0
  -26.5870  -34.8600   22.4250 O   0  0  0  0  0  0  0  0  0  0  0  0
  -25.0400  -34.0680   25.0470 H   0  0  0  0  0  0  0  0  0  0  0  0
  -24.1880  -36.7470   23.1590 C   0  0  0  0  0  1  0  0  0  0  0  0
  -25.4560  -36.3530   23.9330 C   0  0  0  0  0  3  0  0  0  0  0  0
  -27.6090  -37.2570   24.6940 C   0  0  0  0  0  1  0  0  0  0  0  0
  -26.4800  -37.4110   23.7810 N   0  0  0  0  0  0  0  0  0  0  0  0
  -26.0730  -38.3300   23.9320 H   0  0  0  0  0  0  0  0  0  0  0  0
  1  3  2  0
  2 49  1  0
  2  1  1  0
  4  2  1  0
  5  1  1  0
  6 18  1  0
  7 12  1  0
  8  9  1  0
  8  7  1  0
 10  9  1  0
 10 24  1  0
 10 11  1  0
 12  6  1  0
 12 11  1  0
 13  6  2  0
 14 16  1  0
 14 18  1  0
 15 17  1  0
 16 19  1  0
 18 15  1  0
 19  5  1  0
 19 17  1  0
 19 20  1  6
 21 22  2  0
 22 41  1  0
 23 22  1  0
 23 26  1  0
 24 25  1  0
 24 21  1  0
 25 23  2  0
 26 27  1  0
 27 28  2  0
 29 32  1  0
 29 28  1  0
 30 29  2  0
 31 30  1  0
 31 26  2  0
 32 33  1  0
 33 34  1  0
 34 35  2  0
 36 35  1  0
 36 40  1  0
 37 36  2  0
 38 33  2  0
 38 37  1  0
 39 38  1  0
 41 42  1  0
 42 45  1  0
 42 44  1  0
 43 41  2  0
 46 21  1  0
 46 47  1  0
 48 46  1  0
 50 51  1  0
 50 49  1  0
 52 63  2  0
 53 51  1  0
 53 58  1  0
 54 62  1  0
 54 64  1  0
 55 61  1  0
 55 57  1  0
 56 62  1  0
 57 56  1  0
 58 57  2  0
 59 60  1  0
 59 53  2  0
 60 55  2  0
 61 54  1  0
 62 52  1  0
 64 66  2  0
 65 64  1  0
 67 65  1  0
 68 77  2  0
 68 73  1  0
 69 65  1  0
 69 73  1  0
 70 69  1  0
 71 72  1  0
 71 70  1  0
 72 68  1  0
 73 74  2  0
 74 75  1  0
 76 75  2  0
 77 76  1  0
 78 52  1  0
 78 83  1  0
 78 79  1  0
 79 82  1  1
 79 80  1  0
 81 79  1  0
 83 86  1  0
 84 88  1  0
 84 83  1  0
 85 84  2  0
 88 87  1  0
 90 91  1  0
 90 88  1  0
 90 89  1  0
M  ISO  4   6 100  18 100  50 101  51 101
M  END
>  <TORSDO>  (47) 
F 19

>  <SCORE>  (47) 
-13.907

>  <name>  (47) 
46

>  <ligand_id>  (47) 
46

>  <original_smiles>  (47) 
[H]c1c([H])c([H])c2c(c1[H])C([H])([H])C([H])([H])C([H])([H])C2([H])N([H])C(=O)C1([H])N(C(=O)C([H])(N([H])C(=O)C([H])(N([H])C([H])([H])[H])C([H])([H])[H])C(C([H])([H])[H])(C([H])([H])[H])C([H])([H])[H])C([H])([H])c2c([H])c(OC([H])([H])C([H])([H])N([H])C(=O)C([H])([H])[N+]3([H])C([H])([H])C([H])([H])N(C(=O)N4C([H])([H])C([H])([H])C([H])([H])C([H])(n5nc(-c6c([H])c([H])c(Oc7c([H])c([H])c(F)c([H])c7F)c([H])c6[H])c(C(=O)N([H])[H])c5N([H])[H])C4([H])[H])C([H])([H])C3([H])[H])c([H])c([H])c2C1([H])[H]

>  <smiles>  (47) 
[H]c1c([H])c([H])c2c(c1[H])C([H])([H])C([H])([H])C([H])([H])C2([H])N([H])C(=O)C1([H])N(C(=O)C([H])(N([H])C(=O)C([H])(N([H])C([H])([H])[H])C([H])([H])[H])C(C([H])([H])[H])(C([H])([H])[H])C([H])([H])[H])C([H])([H])c2c([H])c(OC([H])([H])C([H])([H])N([H])C(=O)C([H])([H])[N+]3([H])C([H])([H])C([H])([H])N(C(=O)N4C([H])([H])C([H])([H])C([H])([H])C([H])(n5nc(-c6c([H])c([H])c(Oc7c([H])c([H])c(F)c([H])c7F)c([H])c6[H])c(C(=O)N([H])[H])c5N([H])[H])C4([H])[H])C([H])([H])C3([H])[H])c([H])c([H])c2C1([H])[H]

$$$$
47:0:0
     RDKit          3D

 98103  0  0  1  0  0  0  0  0999 V2000
  -25.1790  -24.8610   22.9890 C   0  0  0  0  0  3  0  0  0  0  0  0
  -24.3110  -24.4660   24.0670 C   0  0  0  0  0  0  0  0  0  0  0  0
  -25.9920  -23.3660   22.4500 C   0  0  0  0  0  0  0  0  0  0  0  0
  -24.6650  -22.2050   23.9750 C   0  0  0  0  0  0  0  0  0  0  0  0
  -23.5260  -25.4460   24.9220 C   0  0  0  0  0  1  0  0  0  0  0  0
  -24.2590  -20.8190   24.4250 C   0  0  0  0  0  1  0  0  0  0  0  0
  -24.0490  -23.2260   24.4940 N   0  0  0  0  0  0  0  0  0  0  0  0
  -25.5910  -22.2560   23.0680 N   0  0  0  0  0  0  0  0  0  0  0  0
  -27.0380  -22.3530   21.5560 N   0  0  0  0  0  0  0  0  0  0  0  0
  -27.4820  -22.9270   20.8420 H   0  0  0  0  0  0  0  0  0  0  0  0
  -30.2930  -17.1400   20.4150 C   0  0  0  0  0  0  0  0  0  0  0  0
  -31.0370  -14.5920   19.5070 C   0  0  0  0  0  2  0  0  0  0  0  0
  -30.3550  -13.8990   18.2650 C   0  0  0  0  0  2  0  0  0  0  0  0
  -28.9590  -13.3730   18.6180 C   0  0  0  0  0  2  0  0  0  0  0  0
  -28.2760  -14.3860   19.5530 C   0  0  0  0  0  3  0  0  0  0  0  0
  -29.1050  -14.8000   20.7730 C   0  0  0  0  0  2  0  0  0  0  0  0
  -30.1420  -15.6630   20.2410 N   0  0  0  0  0  0  0  0  0  0  0  0
  -31.5300  -17.2590   20.1500 O   0  0  0  0  0  0  0  0  0  0  0  0
  -28.0700  -19.3890   20.2320 C   0  0  0  0  0  3  0  0  0  0  0  0
  -29.3030  -19.8540   21.6190 C   0  0  0  0  0  3  0  0  0  0  0  0
  -27.7060  -20.5990   21.4730 C   0  0  0  0  0  3  0  0  0  0  0  0
  -29.2490  -18.3780   20.8470 N   0  0  0  0  0  0  0  0  0  0  0  0
  -25.9310  -14.8750   20.2650 C   0  0  0  0  0  0  0  0  0  0  0  0
  -24.8900  -14.0730   20.6220 C   0  0  0  0  0  0  0  0  0  0  0  0
  -25.3830  -12.7320   20.5610 C   0  0  0  0  0  0  0  0  0  0  0  0
  -26.9670  -14.0120   19.9880 N   0  0  0  0  0  0  0  0  0  0  0  0
  -26.6680  -12.7170   20.2370 N   0  0  0  0  0  0  0  0  0  0  0  0
  -24.6830  -11.4580   20.7250 C   0  0  0  0  0  0  0  0  0  0  0  0
  -25.0270  -10.5510   21.7510 C   0  0  0  0  0  3  0  0  0  0  0  0
  -24.3180   -9.3400   21.8950 C   0  0  0  0  0  3  0  0  0  0  0  0
  -23.2550   -9.0310   21.0130 C   0  0  0  0  0  0  0  0  0  0  0  0
  -22.9370   -9.9280   19.9780 C   0  0  0  0  0  3  0  0  0  0  0  0
  -23.6460  -11.1290   19.8320 C   0  0  0  0  0  3  0  0  0  0  0  0
  -22.5240   -7.8700   21.0630 O   0  0  0  0  0  0  0  0  0  0  0  0
  -22.2150   -7.2660   22.2540 C   0  0  0  0  0  0  0  0  0  0  0  0
  -21.5300   -7.9520   23.2810 C   0  0  0  0  0  3  0  0  0  0  0  0
  -21.1710   -7.2720   24.4620 C   0  0  0  0  0  3  0  0  0  0  0  0
  -21.4850   -5.9080   24.6130 C   0  0  0  0  0  0  0  0  0  0  0  0
  -22.1620   -5.2220   23.5890 C   0  0  0  0  0  3  0  0  0  0  0  0
  -22.5240   -5.9000   22.4110 C   0  0  0  0  0  0  0  0  0  0  0  0
  -23.1570   -5.2320   21.4180 F   0  0  0  0  0  0  0  0  0  0  0  0
  -21.1310   -5.2520   25.7430 F   0  0  0  0  0  0  0  0  0  0  0  0
  -23.4940  -14.5310   20.9020 C   0  0  0  0  0  0  0  0  0  0  0  0
  -22.7990  -13.8440   21.8010 N   0  0  0  0  0  0  0  0  0  0  0  0
  -23.0320  -15.5330   20.3600 O   0  0  0  0  0  0  0  0  0  0  0  0
  -23.1930  -13.0350   22.2570 H   0  0  0  0  0  0  0  0  0  0  0  0
  -21.8600  -14.1300   22.0380 H   0  0  0  0  0  0  0  0  0  0  0  0
  -26.0870  -16.2520   20.1320 N   0  0  0  0  0  0  0  0  0  0  0  0
  -25.3220  -16.9010   20.2750 H   0  0  0  0  0  0  0  0  0  0  0  0
  -26.9330  -16.6990   19.8020 H   0  0  0  0  0  0  0  0  0  0  0  0
  -24.7730  -26.8460   22.9200 C   0  0  0  0  0  1  0  0  0  0  0  0
  -23.5980  -28.5490   23.6880 C   0  0  0  0  0 15  0  0  0  0  0  0
  -22.4410  -30.0250   22.9090 N   0  0  0  0  0  2  0  0  0  0  0  0
  -23.0600  -30.8250   22.8990 H   0  0  0  0  0  0  0  0  0  0  0  0
  -21.7410  -30.2400   23.6060 H   0  0  0  0  0  0  0  0  0  0  0  0
  -21.4800  -30.0360   21.0400 C   0  0  0  0  0 15  0  0  0  0  0  0
  -22.1690  -28.7360   19.3270 C   0  0  0  0  0 15  0  0  0  0  0  0
  -23.9040  -27.8990   19.0890 O   0  0  0  0  0  1  0  0  0  0  0  0
  -25.1000  -31.7900   22.7250 C   0  0  0  0  0  0  0  0  0  0  0  0
  -25.2900  -28.0960   18.5840 C   0  0  0  0  0  3  0  0  0  0  0  0
  -23.9090  -30.3180   21.1510 C   0  0  0  0  0  3  0  0  0  0  0  0
  -24.4580  -30.4400   18.7360 C   0  0  0  0  0  3  0  0  0  0  0  0
  -26.0710  -31.1680   20.4940 C   0  0  0  0  0  2  0  0  0  0  0  0
  -25.7070  -30.2670   19.3310 C   0  0  0  0  0  3  0  0  0  0  0  0
  -26.2400  -28.9950   19.1680 C   0  0  0  0  0  2  0  0  0  0  0  0
  -24.9220  -28.4970   17.3380 C   0  0  0  0  0  2  0  0  0  0  0  0
  -24.1340  -29.6500   17.5800 C   0  0  0  0  0  2  0  0  0  0  0  0
  -23.5170  -31.0270   19.7510 C   0  0  0  0  0  2  0  0  0  0  0  0
  -25.0620  -31.0790   21.5650 N   0  0  0  0  0  0  0  0  0  0  0  0
  -24.1470  -31.9060   23.5170 O   0  0  0  0  0  0  0  0  0  0  0  0
  -24.0280  -28.5610   21.4650 C   0  0  0  0  0  3  0  0  0  0  0  0
  -22.8830  -27.3610   21.2470 N   0  0  0  0  0  0  0  0  0  0  0  0
  -24.8720  -28.3820   22.2890 O   0  0  0  0  0  0  0  0  0  0  0  0
  -23.3460  -26.4840   21.0560 H   0  0  0  0  0  0  0  0  0  0  0  0
  -18.3440  -27.4860   22.3050 C   0  0  0  0  0  0  0  0  0  0  0  0
  -21.1030  -27.0130   21.8140 C   0  0  0  0  0  3  0  0  0  0  0  0
  -20.6190  -26.0800   20.8320 C   0  0  0  0  0  2  0  0  0  0  0  0
  -19.3030  -26.4980   20.2680 C   0  0  0  0  0  2  0  0  0  0  0  0
  -18.2200  -26.3700   21.3290 C   0  0  0  0  0  2  0  0  0  0  0  0
  -19.6830  -27.9290   22.5920 C   0  0  0  0  0  0  0  0  0  0  0  0
  -19.5250  -29.1530   23.4340 C   0  0  0  0  0  3  0  0  0  0  0  0
  -18.2890  -29.7300   23.9090 C   0  0  0  0  0  3  0  0  0  0  0  0
  -17.0530  -29.1490   23.6090 C   0  0  0  0  0  3  0  0  0  0  0  0
  -17.1030  -28.0170   22.7910 C   0  0  0  0  0  3  0  0  0  0  0  0
  -26.4470  -32.3820   23.1320 C   0  0  0  0  0  3  0  0  0  0  0  0
  -26.1980  -33.6840   23.7560 N   0  0  0  0  0  0  0  0  0  0  0  0
  -26.3650  -34.8570   23.1330 C   0  0  0  0  0  0  0  0  0  0  0  0
  -26.7880  -34.9470   21.9760 O   0  0  0  0  0  0  0  0  0  0  0  0
  -25.7890  -33.6820   24.6790 H   0  0  0  0  0  0  0  0  0  0  0  0
  -24.6790  -36.6930   23.4600 C   0  0  0  0  0  1  0  0  0  0  0  0
  -26.0310  -36.1320   23.9250 C   0  0  0  0  0  3  0  0  0  0  0  0
  -28.3230  -36.8080   24.4790 C   0  0  0  0  0  1  0  0  0  0  0  0
  -27.0730  -37.1740   23.8170 N   0  0  0  0  0  0  0  0  0  0  0  0
  -26.7490  -38.0530   24.2080 H   0  0  0  0  0  0  0  0  0  0  0  0
  -27.1910  -31.3940   24.1010 C   0  0  1  0  0  0  0  0  0  0  0  0
  -26.3270  -30.9020   25.2890 C   0  0  0  0  0  1  0  0  0  0  0  0
  -27.7230  -30.1360   23.3740 C   0  0  0  0  0  1  0  0  0  0  0  0
  -28.4420  -32.1070   24.6480 C   0  0  0  0  0  1  0  0  0  0  0  0
  1  2  2  0
  2  7  1  0
  2  5  1  0
  3  1  1  0
  3  8  2  0
  4  6  1  0
  4  7  2  0
  8  4  1  0
  9  3  1  0
 10  9  1  0
 11 22  1  0
 12 17  1  0
 13 14  1  0
 13 12  1  0
 15 14  1  0
 15 26  1  0
 15 16  1  0
 17 11  1  0
 17 16  1  0
 18 11  2  0
 19 22  1  0
 19 21  1  0
 19 20  1  0
 20 22  1  0
 21  9  1  0
 21 20  1  0
 23 24  2  0
 24 43  1  0
 25 24  1  0
 25 28  1  0
 26 27  1  0
 26 23  1  0
 27 25  2  0
 28 29  1  0
 29 30  2  0
 31 34  1  0
 31 30  1  0
 32 31  2  0
 33 32  1  0
 33 28  2  0
 34 35  1  0
 35 40  2  0
 35 36  1  0
 36 37  2  0
 37 38  1  0
 38 42  1  0
 39 38  2  0
 40 39  1  0
 41 40  1  0
 43 44  1  0
 44 47  1  0
 44 46  1  0
 45 43  2  0
 48 23  1  0
 48 49  1  0
 50 48  1  0
 53 55  1  0
 54 53  1  0
 59 70  2  0
 60 58  1  0
 60 65  1  0
 61 71  1  0
 61 69  1  0
 62 67  1  0
 62 64  1  0
 62 68  1  0
 63 69  1  0
 64 65  1  0
 64 63  1  0
 66 67  1  0
 66 60  1  0
 68 61  1  0
 69 59  1  0
 71 73  1  0
 72 71  1  0
 73 51  1  0
 74 72  1  0
 75 80  2  0
 75 84  1  0
 76 72  1  0
 76 80  1  0
 77 76  1  0
 78 77  1  0
 78 79  1  0
 79 75  1  0
 80 81  1  0
 81 82  2  0
 83 82  1  0
 84 83  2  0
 85 59  1  0
 85 86  1  0
 85 95  1  0
 86 89  1  0
 87 86  1  0
 87 91  1  0
 88 87  2  0
 91 90  1  0
 93 91  1  0
 93 94  1  0
 93 92  1  0
 95 98  1  1
 95 96  1  0
 97 95  1  0
M  ISO  4  11 100  22 100  57 101  58 101
M  END
>  <TORSDO>  (48) 
F 21

>  <SCORE>  (48) 
16.089

>  <name>  (48) 
47

>  <ligand_id>  (48) 
47

>  <original_smiles>  (48) 
[H]c1c([H])c([H])c2c(c1[H])C([H])([H])C([H])([H])C([H])([H])C2([H])N([H])C(=O)C1([H])N(C(=O)C([H])(N([H])C(=O)C([H])(N([H])C([H])([H])[H])C([H])([H])[H])C(C([H])([H])[H])(C([H])([H])[H])C([H])([H])[H])C([H])([H])c2c([H])c(OC([H])([H])C([H])([H])[N+]([H])([H])C([H])([H])C([H])([H])c3c(N([H])C4([H])C([H])([H])N(C(=O)N5C([H])([H])C([H])([H])C([H])([H])C([H])(n6nc(-c7c([H])c([H])c(Oc8c([H])c([H])c(F)c([H])c8F)c([H])c7[H])c(C(=O)N([H])[H])c6N([H])[H])C5([H])[H])C4([H])[H])nc(C([H])([H])[H])nc3C([H])([H])[H])c([H])c([H])c2C1([H])[H]

>  <smiles>  (48) 
[H]c1c([H])c([H])c2c(c1[H])C([H])([H])C([H])([H])C([H])([H])C2([H])N([H])C(=O)C1([H])N(C(=O)C([H])(N([H])C(=O)C([H])(N([H])C([H])([H])[H])C([H])([H])[H])C(C([H])([H])[H])(C([H])([H])[H])C([H])([H])[H])C([H])([H])c2c([H])c(OC([H])([H])C([H])([H])[N+]([H])([H])C([H])([H])C([H])([H])c3c(N([H])C4([H])C([H])([H])N(C(=O)N5C([H])([H])C([H])([H])C([H])([H])C([H])(n6nc(-c7c([H])c([H])c(Oc8c([H])c([H])c(F)c([H])c8F)c([H])c7[H])c(C(=O)N([H])[H])c6N([H])[H])C5([H])[H])C4([H])[H])nc(C([H])([H])[H])nc3C([H])([H])[H])c([H])c([H])c2C1([H])[H]

$$$$
48:0:0
     RDKit          3D

 94104  0  0  1  0  0  0  0  0999 V2000
  -30.2670  -22.3220   20.6160 C   0  0  0  0  0  3  0  0  0  0  0  0
  -29.7340  -23.6340   20.3980 C   0  0  0  0  0  0  0  0  0  0  0  0
  -28.4980  -23.7300   19.7070 C   0  0  0  0  0  0  0  0  0  0  0  0
  -29.5660  -21.1630   20.1770 C   0  0  0  0  0  0  0  0  0  0  0  0
  -27.8790  -22.5680   19.3130 N   0  0  0  0  0  0  0  0  0  0  0  0
  -28.3810  -21.3310   19.5390 N   0  0  0  0  0  0  0  0  0  0  0  0
  -30.1130  -19.8520   20.3760 N   0  0  0  0  0  0  0  0  0  0  0  0
  -31.0180  -19.8400   20.8340 H   0  0  0  0  0  0  0  0  0  0  0  0
  -30.6660  -14.8380   19.9580 C   0  0  0  0  0  0  0  0  0  0  0  0
  -30.3770  -12.6020   18.8930 C   0  0  0  0  0  2  0  0  0  0  0  0
  -29.3440  -12.6780   17.7480 C   0  0  0  0  0  2  0  0  0  0  0  0
  -27.9170  -12.4640   18.2890 C   0  0  0  0  0  2  0  0  0  0  0  0
  -27.6230  -13.3140   19.5540 C   0  0  0  0  0  3  0  0  0  0  0  0
  -28.7730  -13.2080   20.5800 C   0  0  0  0  0  2  0  0  0  0  0  0
  -30.0040  -13.6290   19.8970 N   0  0  0  0  0  0  0  0  0  0  0  0
  -31.8030  -14.9200   19.4830 O   0  0  0  0  0  0  0  0  0  0  0  0
  -28.9650  -17.8620   21.4550 C   0  0  0  0  0  2  0  0  0  0  0  0
  -28.9820  -16.3270   21.2230 C   0  0  0  0  0  2  0  0  0  0  0  0
  -30.4380  -17.3600   19.6760 C   0  0  0  0  0  2  0  0  0  0  0  0
  -29.4820  -18.5090   20.1670 C   0  0  0  0  0  3  0  0  0  0  0  0
  -29.9790  -16.0270   20.1880 N   0  0  0  0  0  0  0  0  0  0  0  0
  -25.3010  -13.8290   20.5180 C   0  0  0  0  0  0  0  0  0  0  0  0
  -24.2800  -13.0190   20.9330 C   0  0  0  0  0  0  0  0  0  0  0  0
  -24.7500  -11.6790   20.7790 C   0  0  0  0  0  0  0  0  0  0  0  0
  -26.3300  -12.9810   20.1400 N   0  0  0  0  0  0  0  0  0  0  0  0
  -26.0090  -11.6780   20.3560 N   0  0  0  0  0  0  0  0  0  0  0  0
  -24.0550  -10.3980   20.9520 C   0  0  0  0  0  0  0  0  0  0  0  0
  -24.5160   -9.4240   21.8660 C   0  0  0  0  0  3  0  0  0  0  0  0
  -23.8170   -8.2080   22.0290 C   0  0  0  0  0  3  0  0  0  0  0  0
  -22.6450   -7.9570   21.2770 C   0  0  0  0  0  0  0  0  0  0  0  0
  -22.2030   -8.9190   20.3530 C   0  0  0  0  0  3  0  0  0  0  0  0
  -22.9010  -10.1270   20.1880 C   0  0  0  0  0  3  0  0  0  0  0  0
  -21.9160   -6.7940   21.3520 O   0  0  0  0  0  0  0  0  0  0  0  0
  -21.7700   -6.1100   22.5320 C   0  0  0  0  0  0  0  0  0  0  0  0
  -21.1700   -6.6990   23.6660 C   0  0  0  0  0  3  0  0  0  0  0  0
  -20.9780   -5.9380   24.8360 C   0  0  0  0  0  3  0  0  0  0  0  0
  -21.3740   -4.5880   24.8720 C   0  0  0  0  0  0  0  0  0  0  0  0
  -21.9670   -3.9980   23.7420 C   0  0  0  0  0  3  0  0  0  0  0  0
  -22.1620   -4.7560   22.5740 C   0  0  0  0  0  0  0  0  0  0  0  0
  -22.7140   -4.1770   21.4810 F   0  0  0  0  0  0  0  0  0  0  0  0
  -21.1830   -3.8540   25.9930 F   0  0  0  0  0  0  0  0  0  0  0  0
  -22.9080  -13.4600   21.3560 C   0  0  0  0  0  0  0  0  0  0  0  0
  -22.2800  -12.7200   22.2630 N   0  0  0  0  0  0  0  0  0  0  0  0
  -22.4050  -14.4930   20.9180 O   0  0  0  0  0  0  0  0  0  0  0  0
  -22.7020  -11.8830   22.6380 H   0  0  0  0  0  0  0  0  0  0  0  0
  -21.3640  -12.9950   22.5880 H   0  0  0  0  0  0  0  0  0  0  0  0
  -25.4300  -15.2100   20.4040 N   0  0  0  0  0  0  0  0  0  0  0  0
  -24.6640  -15.8400   20.6150 H   0  0  0  0  0  0  0  0  0  0  0  0
  -26.2320  -15.6810   20.0050 H   0  0  0  0  0  0  0  0  0  0  0  0
  -30.9120  -25.0020   22.3110 C   0  0  0  0  0  2  0  0  0  0  0  0
  -29.7790  -25.8510   21.7880 C   0  0  0  0  0  2  0  0  0  0  0  0
  -30.4580  -24.8570   20.8750 C   0  0  0  0  0  3  0  0  0  0  0  0
  -27.6800  -25.0350   19.3450 C   0  0  0  0  0  2  0  0  0  0  0  0
  -28.0510  -26.4630   19.5970 O   0  0  0  0  0  0  0  0  0  0  0  0
  -24.4590  -31.7320   23.0570 C   0  0  0  0  0  0  0  0  0  0  0  0
  -26.9580  -27.3640   19.6200 C   0  0  0  0  0  0  0  0  0  0  0  0
  -23.1900  -30.3980   21.4190 C   0  0  0  0  0  3  0  0  0  0  0  0
  -24.5820  -28.9660   19.8300 C   0  0  0  0  0  0  0  0  0  0  0  0
  -25.7170  -30.7640   21.1190 C   0  0  0  0  0  2  0  0  0  0  0  0
  -25.7800  -29.4240   20.3940 C   0  0  0  0  0  0  0  0  0  0  0  0
  -26.9700  -28.6340   20.2870 C   0  0  0  0  0  3  0  0  0  0  0  0
  -25.7310  -26.9980   19.0070 C   0  0  0  0  0  3  0  0  0  0  0  0
  -24.5610  -27.7590   19.1280 C   0  0  0  0  0  3  0  0  0  0  0  0
  -23.3370  -29.8110   19.9950 C   0  0  0  0  0  2  0  0  0  0  0  0
  -24.4770  -30.9790   21.9210 N   0  0  0  0  0  0  0  0  0  0  0  0
  -23.4020  -31.9620   23.6630 O   0  0  0  0  0  0  0  0  0  0  0  0
  -22.6000  -29.3150   22.3560 C   0  0  0  0  0  0  0  0  0  0  0  0
  -21.2800  -29.0800   22.2550 N   0  0  0  0  0  0  0  0  0  0  0  0
  -23.3270  -28.6940   23.1340 O   0  0  0  0  0  0  0  0  0  0  0  0
  -20.7490  -29.6380   21.6010 H   0  0  0  0  0  0  0  0  0  0  0  0
  -17.9810  -27.6860   22.7690 C   0  0  0  0  0  0  0  0  0  0  0  0
  -20.5240  -28.0830   23.0160 C   0  0  0  0  0  3  0  0  0  0  0  0
  -20.6990  -26.6710   22.4100 C   0  0  0  0  0  2  0  0  0  0  0  0
  -19.6050  -26.3070   21.4020 C   0  0  0  0  0  2  0  0  0  0  0  0
  -18.2250  -26.3620   22.0640 C   0  0  0  0  0  2  0  0  0  0  0  0
  -19.0610  -28.5010   23.2010 C   0  0  0  0  0  0  0  0  0  0  0  0
  -18.7780  -29.7370   23.8220 C   0  0  0  0  0  3  0  0  0  0  0  0
  -17.4490  -30.1600   24.0120 C   0  0  0  0  0  3  0  0  0  0  0  0
  -16.3850  -29.3420   23.5950 C   0  0  0  0  0  3  0  0  0  0  0  0
  -16.6510  -28.1070   22.9790 C   0  0  0  0  0  3  0  0  0  0  0  0
  -25.7630  -32.3590   23.6380 C   0  0  0  0  0  3  0  0  0  0  0  0
  -25.4520  -33.7400   24.0350 N   0  0  0  0  0  0  0  0  0  0  0  0
  -25.7660  -34.8270   23.3180 C   0  0  0  0  0  0  0  0  0  0  0  0
  -26.4190  -34.7740   22.2720 O   0  0  0  0  0  0  0  0  0  0  0  0
  -24.8710  -33.8550   24.8520 H   0  0  0  0  0  0  0  0  0  0  0  0
  -24.0450  -36.6430   23.0500 C   0  0  0  0  0  1  0  0  0  0  0  0
  -25.2810  -36.1910   23.8450 C   0  0  0  0  0  3  0  0  0  0  0  0
  -27.4050  -37.0320   24.7440 C   0  0  0  0  0  1  0  0  0  0  0  0
  -26.3170  -37.2460   23.7940 N   0  0  0  0  0  0  0  0  0  0  0  0
  -25.9110  -38.1590   23.9760 H   0  0  0  0  0  0  0  0  0  0  0  0
  -26.3490  -31.5490   24.8580 C   0  0  1  0  0  0  0  0  0  0  0  0
  -25.3120  -31.2560   25.9670 C   0  0  0  0  0  1  0  0  0  0  0  0
  -26.9310  -30.1940   24.3910 C   0  0  0  0  0  1  0  0  0  0  0  0
  -27.5210  -32.3350   25.4940 C   0  0  0  0  0  1  0  0  0  0  0  0
  2  1  1  0
  2 52  1  0
  3  2  2  0
  4  7  1  0
  4  1  2  0
  5  6  2  0
  5  3  1  0
  6  4  1  0
  7  8  1  0
  9 21  1  0
 10 15  1  0
 11 12  1  0
 11 10  1  0
 13 12  1  0
 13 25  1  0
 13 14  1  0
 15  9  1  0
 15 14  1  0
 16  9  2  0
 18 17  1  0
 19 20  1  0
 19 21  1  0
 20  7  1  0
 20 17  1  0
 21 18  1  0
 22 23  2  0
 23 42  1  0
 24 23  1  0
 24 27  1  0
 25 26  1  0
 25 22  1  0
 26 24  2  0
 27 28  1  0
 28 29  2  0
 30 33  1  0
 30 29  1  0
 31 30  2  0
 32 31  1  0
 32 27  2  0
 33 34  1  0
 34 39  2  0
 34 35  1  0
 35 36  2  0
 36 37  1  0
 37 41  1  0
 38 37  2  0
 39 38  1  0
 40 39  1  0
 42 43  1  0
 43 46  1  0
 43 45  1  0
 44 42  2  0
 47 22  1  0
 47 48  1  0
 49 47  1  0
 51 50  1  0
 52 51  1  0
 52 50  1  0
 53 54  1  0
 53  3  1  0
 54 56  1  0
 55 66  2  0
 56 61  1  0
 57 65  1  0
 57 67  1  0
 58 64  1  0
 58 60  1  0
 59 65  1  0
 60 59  1  0
 61 60  2  0
 62 63  1  0
 62 56  2  0
 63 58  2  0
 64 57  1  0
 65 55  1  0
 67 69  2  0
 68 67  1  0
 70 68  1  0
 71 80  2  0
 71 76  1  0
 72 68  1  0
 72 76  1  0
 73 72  1  0
 74 75  1  0
 74 73  1  0
 75 71  1  0
 76 77  2  0
 77 78  1  0
 79 78  2  0
 80 79  1  0
 81 55  1  0
 81 82  1  0
 81 91  1  0
 82 85  1  0
 83 87  1  0
 83 82  1  0
 84 83  2  0
 87 86  1  0
 89 87  1  0
 89 90  1  0
 89 88  1  0
 91 94  1  1
 91 92  1  0
 93 91  1  0
M  ISO  4   9 100  21 100  53 101  54 101
M  END
>  <TORSDO>  (49) 
F 18

>  <SCORE>  (49) 
-12.564

>  <name>  (49) 
48

>  <ligand_id>  (49) 
48

>  <original_smiles>  (49) 
[H]c1c([H])c([H])c2c(c1[H])C([H])([H])C([H])([H])C([H])([H])C2([H])N([H])C(=O)C1([H])N(C(=O)C([H])(N([H])C(=O)C([H])(N([H])C([H])([H])[H])C([H])([H])[H])C(C([H])([H])[H])(C([H])([H])[H])C([H])([H])[H])C([H])([H])c2c([H])c(OC([H])([H])c3nnc(N([H])C4([H])C([H])([H])N(C(=O)N5C([H])([H])C([H])([H])C([H])([H])C([H])(n6nc(-c7c([H])c([H])c(Oc8c([H])c([H])c(F)c([H])c8F)c([H])c7[H])c(C(=O)N([H])[H])c6N([H])[H])C5([H])[H])C([H])([H])C4([H])[H])c([H])c3C3([H])C([H])([H])C3([H])[H])c([H])c([H])c2C1([H])[H]

>  <smiles>  (49) 
[H]c1c([H])c([H])c2c(c1[H])C([H])([H])C([H])([H])C([H])([H])C2([H])N([H])C(=O)C1([H])N(C(=O)C([H])(N([H])C(=O)C([H])(N([H])C([H])([H])[H])C([H])([H])[H])C(C([H])([H])[H])(C([H])([H])[H])C([H])([H])[H])C([H])([H])c2c([H])c(OC([H])([H])c3nnc(N([H])C4([H])C([H])([H])N(C(=O)N5C([H])([H])C([H])([H])C([H])([H])C([H])(n6nc(-c7c([H])c([H])c(Oc8c([H])c([H])c(F)c([H])c8F)c([H])c7[H])c(C(=O)N([H])[H])c6N([H])[H])C5([H])[H])C([H])([H])C4([H])[H])c([H])c3C3([H])C([H])([H])C3([H])[H])c([H])c([H])c2C1([H])[H]

$$$$
49:0:0
     RDKit          3D

 95105  0  0  1  0  0  0  0  0999 V2000
  -29.1100  -23.2770   18.0400 C   0  0  0  0  0  3  0  0  0  0  0  0
  -29.5290  -22.0220   18.3980 C   0  0  0  0  0  0  0  0  0  0  0  0
  -29.5350  -22.0120   19.8320 C   0  0  0  0  0  0  0  0  0  0  0  0
  -29.2750  -23.3170   20.2460 N   0  0  0  0  0  0  0  0  0  0  0  0
  -28.9940  -24.1080   19.1340 N   0  0  0  0  0  0  0  0  0  0  0  0
  -31.3590  -21.0770   16.8520 C   0  0  0  0  0  2  0  0  0  0  0  0
  -30.1720  -21.2840   15.9500 C   0  0  0  0  0  2  0  0  0  0  0  0
  -29.9580  -20.9690   17.4170 C   0  0  0  0  0  3  0  0  0  0  0  0
  -28.8330  -20.9980   22.0360 C   0  0  0  0  0  1  0  0  0  0  0  0
  -29.8680  -20.8560   20.8970 C   0  0  0  0  0  3  0  0  0  0  0  0
  -31.1680  -14.9160   20.0380 C   0  0  0  0  0  0  0  0  0  0  0  0
  -30.7140  -12.6900   18.9850 C   0  0  0  0  0  2  0  0  0  0  0  0
  -29.7430  -12.7610   17.7910 C   0  0  0  0  0  2  0  0  0  0  0  0
  -28.2930  -12.6240   18.2850 C   0  0  0  0  0  2  0  0  0  0  0  0
  -27.9880  -13.5280   19.5090 C   0  0  0  0  0  3  0  0  0  0  0  0
  -29.0970  -13.4560   20.5880 C   0  0  0  0  0  2  0  0  0  0  0  0
  -30.3610  -13.7950   19.9200 N   0  0  0  0  0  0  0  0  0  0  0  0
  -32.3460  -14.7780   19.7010 O   0  0  0  0  0  0  0  0  0  0  0  0
  -31.7380  -17.3610   20.1450 C   0  0  0  0  0  2  0  0  0  0  0  0
  -29.4360  -16.7690   20.7970 C   0  0  0  0  0  2  0  0  0  0  0  0
  -31.2640  -18.8330   19.7930 C   0  0  0  0  0  2  0  0  0  0  0  0
  -29.0470  -18.3110   20.5810 C   0  0  0  0  0  2  0  0  0  0  0  0
  -30.7240  -16.2450   20.2450 N   0  0  0  0  0  0  0  0  0  0  0  0
  -30.1570  -19.3280   20.6540 N   0  0  2  0  0  4  0  0  0  0  0  0
  -30.5420  -19.1340   21.5660 H   0  0  0  0  0  0  0  0  0  0  0  0
  -25.6450  -14.1710   20.3290 C   0  0  0  0  0  0  0  0  0  0  0  0
  -24.5680  -13.4220   20.7140 C   0  0  0  0  0  0  0  0  0  0  0  0
  -24.9910  -12.0570   20.6540 C   0  0  0  0  0  0  0  0  0  0  0  0
  -26.6560  -13.2660   20.0480 N   0  0  0  0  0  0  0  0  0  0  0  0
  -26.2710  -11.9900   20.3070 N   0  0  0  0  0  0  0  0  0  0  0  0
  -24.2350  -10.8140   20.8510 C   0  0  0  0  0  0  0  0  0  0  0  0
  -24.6310   -9.8450   21.8010 C   0  0  0  0  0  3  0  0  0  0  0  0
  -23.8740   -8.6680   21.9890 C   0  0  0  0  0  3  0  0  0  0  0  0
  -22.7040   -8.4530   21.2230 C   0  0  0  0  0  0  0  0  0  0  0  0
  -22.3230   -9.4060   20.2630 C   0  0  0  0  0  3  0  0  0  0  0  0
  -23.0820  -10.5740   20.0720 C   0  0  0  0  0  3  0  0  0  0  0  0
  -21.9200   -7.3270   21.3180 O   0  0  0  0  0  0  0  0  0  0  0  0
  -21.7940   -6.6330   22.4950 C   0  0  0  0  0  0  0  0  0  0  0  0
  -21.3040   -7.2420   23.6690 C   0  0  0  0  0  3  0  0  0  0  0  0
  -21.1240   -6.4780   24.8390 C   0  0  0  0  0  3  0  0  0  0  0  0
  -21.4270   -5.1030   24.8350 C   0  0  0  0  0  0  0  0  0  0  0  0
  -21.9140   -4.4940   23.6650 C   0  0  0  0  0  3  0  0  0  0  0  0
  -22.0940   -5.2560   22.4980 C   0  0  0  0  0  0  0  0  0  0  0  0
  -22.5440   -4.6580   21.3690 F   0  0  0  0  0  0  0  0  0  0  0  0
  -21.2470   -4.3660   25.9560 F   0  0  0  0  0  0  0  0  0  0  0  0
  -23.1930  -13.9370   21.0270 C   0  0  0  0  0  0  0  0  0  0  0  0
  -22.4710  -13.2700   21.9190 N   0  0  0  0  0  0  0  0  0  0  0  0
  -22.7690  -14.9750   20.5180 O   0  0  0  0  0  0  0  0  0  0  0  0
  -22.8180  -12.4300   22.3590 H   0  0  0  0  0  0  0  0  0  0  0  0
  -21.5500  -13.6070   22.1690 H   0  0  0  0  0  0  0  0  0  0  0  0
  -25.8280  -15.5380   20.1610 N   0  0  0  0  0  0  0  0  0  0  0  0
  -25.0790  -16.2020   20.3270 H   0  0  0  0  0  0  0  0  0  0  0  0
  -26.6640  -15.9700   19.7930 H   0  0  0  0  0  0  0  0  0  0  0  0
  -28.7410  -25.6120   18.9510 C   0  0  0  0  0  2  0  0  0  0  0  0
  -28.4220  -26.4900   20.0580 O   0  0  0  0  0  0  0  0  0  0  0  0
  -24.6080  -31.8040   23.1570 C   0  0  0  0  0  0  0  0  0  0  0  0
  -27.3110  -27.3570   19.9720 C   0  0  0  0  0  0  0  0  0  0  0  0
  -23.4370  -30.4270   21.4800 C   0  0  0  0  0  3  0  0  0  0  0  0
  -24.9180  -28.9420   20.0070 C   0  0  0  0  0  0  0  0  0  0  0  0
  -25.9730  -30.7900   21.3120 C   0  0  0  0  0  2  0  0  0  0  0  0
  -26.0760  -29.4300   20.6240 C   0  0  0  0  0  0  0  0  0  0  0  0
  -27.2710  -28.6450   20.6070 C   0  0  0  0  0  3  0  0  0  0  0  0
  -26.1200  -26.9240   19.3460 C   0  0  0  0  0  3  0  0  0  0  0  0
  -24.9420  -27.6970   19.3620 C   0  0  0  0  0  3  0  0  0  0  0  0
  -23.6650  -29.7950   20.0800 C   0  0  0  0  0  2  0  0  0  0  0  0
  -24.6920  -31.0260   22.0390 N   0  0  0  0  0  0  0  0  0  0  0  0
  -23.5170  -32.0440   23.6980 O   0  0  0  0  0  0  0  0  0  0  0  0
  -22.7930  -29.3700   22.4110 C   0  0  0  0  0  0  0  0  0  0  0  0
  -21.4730  -29.1620   22.2680 N   0  0  0  0  0  0  0  0  0  0  0  0
  -23.4830  -28.7430   23.2200 O   0  0  0  0  0  0  0  0  0  0  0  0
  -20.9760  -29.7230   21.5910 H   0  0  0  0  0  0  0  0  0  0  0  0
  -18.1250  -27.8550   22.7010 C   0  0  0  0  0  0  0  0  0  0  0  0
  -20.6730  -28.1850   23.0080 C   0  0  0  0  0  3  0  0  0  0  0  0
  -20.8210  -26.7680   22.4050 C   0  0  0  0  0  2  0  0  0  0  0  0
  -19.7410  -26.4350   21.3700 C   0  0  0  0  0  2  0  0  0  0  0  0
  -18.3490  -26.5260   21.9990 C   0  0  0  0  0  2  0  0  0  0  0  0
  -19.2170  -28.6410   23.1600 C   0  0  0  0  0  0  0  0  0  0  0  0
  -18.9500  -29.8860   23.7730 C   0  0  0  0  0  3  0  0  0  0  0  0
  -17.6290  -30.3430   23.9340 C   0  0  0  0  0  3  0  0  0  0  0  0
  -16.5530  -29.5540   23.4920 C   0  0  0  0  0  3  0  0  0  0  0  0
  -16.8010  -28.3110   22.8830 C   0  0  0  0  0  3  0  0  0  0  0  0
  -25.8760  -32.4470   23.8000 C   0  0  0  0  0  3  0  0  0  0  0  0
  -26.3890  -31.6690   25.0750 C   0  0  1  0  0  0  0  0  0  0  0  0
  -25.2910  -31.4050   26.1310 C   0  0  0  0  0  1  0  0  0  0  0  0
  -26.9960  -30.3040   24.6720 C   0  0  0  0  0  1  0  0  0  0  0  0
  -27.5220  -32.4730   25.7560 C   0  0  0  0  0  1  0  0  0  0  0  0
  -25.5440  -33.8380   24.1470 N   0  0  0  0  0  0  0  0  0  0  0  0
  -25.8560  -34.9050   23.4020 C   0  0  0  0  0  0  0  0  0  0  0  0
  -26.5240  -34.8240   22.3680 O   0  0  0  0  0  0  0  0  0  0  0  0
  -24.9550  -33.9730   24.9560 H   0  0  0  0  0  0  0  0  0  0  0  0
  -24.0950  -36.6700   23.0800 C   0  0  0  0  0  1  0  0  0  0  0  0
  -25.3500  -36.2800   23.8780 C   0  0  0  0  0  3  0  0  0  0  0  0
  -27.4750  -37.1900   24.7040 C   0  0  0  0  0  1  0  0  0  0  0  0
  -26.3620  -37.3530   23.7710 N   0  0  0  0  0  0  0  0  0  0  0  0
  -25.9430  -38.2640   23.9350 H   0  0  0  0  0  0  0  0  0  0  0  0
  1  2  2  0
  1  5  1  0
  2  3  1  0
  3  4  2  0
  3 10  1  0
  5  4  1  0
  6  8  1  0
  7  6  1  0
  7  8  1  0
  8  2  1  0
 10  9  1  0
 11 23  1  0
 12 17  1  0
 13 14  1  0
 13 12  1  0
 15 14  1  0
 15 29  1  0
 15 16  1  0
 17 11  1  0
 17 16  1  0
 18 11  2  0
 19 23  1  0
 21 19  1  0
 21 24  1  0
 22 24  1  0
 22 20  1  0
 23 20  1  0
 24 10  1  0
 24 25  1  1
 26 27  2  0
 27 46  1  0
 28 27  1  0
 28 31  1  0
 29 30  1  0
 29 26  1  0
 30 28  2  0
 31 32  1  0
 32 33  2  0
 34 37  1  0
 34 33  1  0
 35 34  2  0
 36 35  1  0
 36 31  2  0
 37 38  1  0
 38 43  2  0
 38 39  1  0
 39 40  2  0
 41 40  1  0
 41 45  1  0
 42 41  2  0
 43 42  1  0
 44 43  1  0
 46 47  1  0
 47 50  1  0
 47 49  1  0
 48 46  2  0
 51 52  1  0
 51 26  1  0
 53 51  1  0
 54  5  1  0
 54 55  1  0
 56 67  2  0
 57 55  1  0
 57 62  1  0
 58 66  1  0
 58 68  1  0
 59 65  1  0
 59 61  1  0
 60 66  1  0
 61 60  1  0
 62 61  2  0
 63 64  1  0
 63 57  2  0
 64 59  2  0
 65 58  1  0
 66 56  1  0
 68 70  2  0
 69 68  1  0
 71 69  1  0
 72 81  2  0
 72 77  1  0
 73 69  1  0
 73 77  1  0
 74 73  1  0
 75 76  1  0
 75 74  1  0
 76 72  1  0
 77 78  2  0
 78 79  1  0
 80 79  2  0
 81 80  1  0
 82 56  1  0
 82 87  1  0
 82 83  1  0
 83 86  1  1
 83 84  1  0
 85 83  1  0
 87 90  1  0
 88 92  1  0
 88 87  1  0
 89 88  2  0
 92 91  1  0
 94 92  1  0
 94 95  1  0
 94 93  1  0
M  ISO  4  11 100  23 100  54 101  55 101
M  END
>  <TORSDO>  (50) 
F 19

>  <SCORE>  (50) 
-13.659

>  <name>  (50) 
49

>  <ligand_id>  (50) 
49

>  <original_smiles>  (50) 
[H]c1c([H])c([H])c2c(c1[H])C([H])([H])C([H])([H])C([H])([H])C2([H])N([H])C(=O)C1([H])N(C(=O)C([H])(N([H])C(=O)C([H])(N([H])C([H])([H])[H])C([H])([H])[H])C(C([H])([H])[H])(C([H])([H])[H])C([H])([H])[H])C([H])([H])c2c([H])c(OC([H])([H])n3nc(C([H])(C([H])([H])[H])[N+]4([H])C([H])([H])C([H])([H])N(C(=O)N5C([H])([H])C([H])([H])C([H])([H])C([H])(n6nc(-c7c([H])c([H])c(Oc8c([H])c([H])c(F)c([H])c8F)c([H])c7[H])c(C(=O)N([H])[H])c6N([H])[H])C5([H])[H])C([H])([H])C4([H])[H])c(C4([H])C([H])([H])C4([H])[H])c3[H])c([H])c([H])c2C1([H])[H]

>  <smiles>  (50) 
[H]c1c([H])c([H])c2c(c1[H])C([H])([H])C([H])([H])C([H])([H])C2([H])N([H])C(=O)C1([H])N(C(=O)C([H])(N([H])C(=O)C([H])(N([H])C([H])([H])[H])C([H])([H])[H])C(C([H])([H])[H])(C([H])([H])[H])C([H])([H])[H])C([H])([H])c2c([H])c(OC([H])([H])n3nc(C([H])(C([H])([H])[H])[N+]4([H])C([H])([H])C([H])([H])N(C(=O)N5C([H])([H])C([H])([H])C([H])([H])C([H])(n6nc(-c7c([H])c([H])c(Oc8c([H])c([H])c(F)c([H])c8F)c([H])c7[H])c(C(=O)N([H])[H])c6N([H])[H])C5([H])[H])C([H])([H])C4([H])[H])c(C4([H])C([H])([H])C4([H])[H])c3[H])c([H])c([H])c2C1([H])[H]

$$$$
50:0:0
     RDKit          3D

 97106  0  0  1  0  0  0  0  0999 V2000
  -30.1190  -21.2550   20.1070 C   0  0  0  0  0  2  0  0  0  0  0  0
  -30.2760  -21.4830   22.6100 C   0  0  0  0  0  2  0  0  0  0  0  0
  -30.2170  -22.7840   19.9820 C   0  0  0  0  0  2  0  0  0  0  0  0
  -30.3810  -23.0110   22.4280 C   0  0  0  0  0  2  0  0  0  0  0  0
  -30.8290  -20.7480   21.3740 C   0  0  0  0  0  3  0  0  0  0  0  0
  -29.6830  -23.4600   21.1930 N   0  0  1  0  0  4  0  0  0  0  0  0
  -28.7220  -23.1680   21.3020 H   0  0  0  0  0  0  0  0  0  0  0  0
  -30.7660  -14.3930   20.1900 C   0  0  0  0  0  0  0  0  0  0  0  0
  -30.3060  -12.3500   18.8890 C   0  0  0  0  0  2  0  0  0  0  0  0
  -29.2930  -12.6480   17.7670 C   0  0  0  0  0  2  0  0  0  0  0  0
  -27.8500  -12.5030   18.2850 C   0  0  0  0  0  2  0  0  0  0  0  0
  -27.6130  -13.2760   19.6090 C   0  0  0  0  0  3  0  0  0  0  0  0
  -28.7270  -12.9660   20.6330 C   0  0  0  0  0  2  0  0  0  0  0  0
  -30.0320  -13.2620   20.0100 N   0  0  0  0  0  0  0  0  0  0  0  0
  -31.7670  -14.6370   19.5050 O   0  0  0  0  0  0  0  0  0  0  0  0
  -29.5750  -18.5540   21.8410 C   0  0  0  0  0  3  0  0  0  0  0  0
  -30.7500  -19.2260   21.4620 C   0  0  0  0  0  0  0  0  0  0  0  0
  -31.8270  -18.4120   21.0850 C   0  0  0  0  0  0  0  0  0  0  0  0
  -30.5240  -16.5420   21.3380 C   0  0  0  0  0  0  0  0  0  0  0  0
  -29.4690  -17.2140   21.7780 N   0  0  0  0  0  0  0  0  0  0  0  0
  -31.7060  -17.0760   21.0470 N   0  0  0  0  0  0  0  0  0  0  0  0
  -30.3140  -15.2040   21.1600 N   0  0  0  0  0  0  0  0  0  0  0  0
  -29.5080  -14.8490   21.6440 H   0  0  0  0  0  0  0  0  0  0  0  0
  -25.2590  -13.8720   20.4720 C   0  0  0  0  0  0  0  0  0  0  0  0
  -24.2100  -13.0910   20.8820 C   0  0  0  0  0  0  0  0  0  0  0  0
  -24.6640  -11.7410   20.7860 C   0  0  0  0  0  0  0  0  0  0  0  0
  -26.2860  -12.9950   20.1570 N   0  0  0  0  0  0  0  0  0  0  0  0
  -25.9330  -11.7060   20.3990 N   0  0  0  0  0  0  0  0  0  0  0  0
  -23.9470  -10.4740   20.9840 C   0  0  0  0  0  0  0  0  0  0  0  0
  -24.4080   -9.4990   21.8950 C   0  0  0  0  0  3  0  0  0  0  0  0
  -23.6910   -8.2970   22.0810 C   0  0  0  0  0  3  0  0  0  0  0  0
  -22.4990   -8.0630   21.3570 C   0  0  0  0  0  0  0  0  0  0  0  0
  -22.0560   -9.0270   20.4340 C   0  0  0  0  0  3  0  0  0  0  0  0
  -22.7740  -10.2200   20.2450 C   0  0  0  0  0  3  0  0  0  0  0  0
  -21.7510   -6.9140   21.4530 O   0  0  0  0  0  0  0  0  0  0  0  0
  -21.6950   -6.1880   22.6150 C   0  0  0  0  0  0  0  0  0  0  0  0
  -21.2590   -6.7570   23.8300 C   0  0  0  0  0  3  0  0  0  0  0  0
  -21.1520   -5.9560   24.9860 C   0  0  0  0  0  3  0  0  0  0  0  0
  -21.4700   -4.5870   24.9250 C   0  0  0  0  0  0  0  0  0  0  0  0
  -21.8980   -4.0160   23.7140 C   0  0  0  0  0  3  0  0  0  0  0  0
  -22.0070   -4.8130   22.5610 C   0  0  0  0  0  0  0  0  0  0  0  0
  -22.4010   -4.2540   21.3920 F   0  0  0  0  0  0  0  0  0  0  0  0
  -21.3580   -3.8150   26.0310 F   0  0  0  0  0  0  0  0  0  0  0  0
  -22.8350  -13.5630   21.2550 C   0  0  0  0  0  0  0  0  0  0  0  0
  -22.1700  -12.8570   22.1630 N   0  0  0  0  0  0  0  0  0  0  0  0
  -22.3590  -14.5920   20.7760 O   0  0  0  0  0  0  0  0  0  0  0  0
  -22.5680  -12.0250   22.5720 H   0  0  0  0  0  0  0  0  0  0  0  0
  -21.2500  -13.1540   22.4560 H   0  0  0  0  0  0  0  0  0  0  0  0
  -25.4180  -15.2460   20.3240 N   0  0  0  0  0  0  0  0  0  0  0  0
  -24.6660  -15.9030   20.5020 H   0  0  0  0  0  0  0  0  0  0  0  0
  -26.2600  -15.6930   19.9800 H   0  0  0  0  0  0  0  0  0  0  0  0
  -33.0240  -18.9780   20.6940 O   0  0  0  0  0  0  0  0  0  0  0  0
  -35.2410  -18.9890   19.7670 C   0  0  0  0  0  1  0  0  0  0  0  0
  -34.0440  -18.1260   20.1760 C   0  0  0  0  0  2  0  0  0  0  0  0
  -29.6590  -24.9380   21.0560 C   0  0  0  0  0  2  0  0  0  0  0  0
  -28.4960  -25.4250   20.1790 C   0  0  0  0  0  2  0  0  0  0  0  0
  -28.5200  -26.8460   20.2050 O   0  0  0  0  0  0  0  0  0  0  0  0
  -24.6150  -31.9070   23.2420 C   0  0  0  0  0  0  0  0  0  0  0  0
  -27.3150  -27.5020   20.1910 C   0  0  0  0  0  0  0  0  0  0  0  0
  -23.4250  -30.4840   21.6040 C   0  0  0  0  0  3  0  0  0  0  0  0
  -24.8950  -28.9540   20.1940 C   0  0  0  0  0  0  0  0  0  0  0  0
  -25.9430  -30.8750   21.4070 C   0  0  0  0  0  2  0  0  0  0  0  0
  -26.0420  -29.5030   20.7780 C   0  0  0  0  0  0  0  0  0  0  0  0
  -27.2540  -28.7840   20.7720 C   0  0  0  0  0  3  0  0  0  0  0  0
  -26.1510  -26.9570   19.6010 C   0  0  0  0  0  3  0  0  0  0  0  0
  -24.9420  -27.6770   19.6040 C   0  0  0  0  0  3  0  0  0  0  0  0
  -23.6410  -29.7970   20.2290 C   0  0  0  0  0  2  0  0  0  0  0  0
  -24.6790  -31.1030   22.1430 N   0  0  0  0  0  0  0  0  0  0  0  0
  -23.5310  -32.1720   23.7790 O   0  0  0  0  0  0  0  0  0  0  0  0
  -22.7830  -29.4620   22.5680 C   0  0  0  0  0  0  0  0  0  0  0  0
  -21.4600  -29.2690   22.4370 N   0  0  0  0  0  0  0  0  0  0  0  0
  -23.4700  -28.8460   23.3860 O   0  0  0  0  0  0  0  0  0  0  0  0
  -20.9670  -29.8190   21.7480 H   0  0  0  0  0  0  0  0  0  0  0  0
  -18.0910  -28.0680   22.9380 C   0  0  0  0  0  0  0  0  0  0  0  0
  -20.6480  -28.3290   23.2080 C   0  0  0  0  0  3  0  0  0  0  0  0
  -20.7530  -26.8980   22.6320 C   0  0  0  0  0  2  0  0  0  0  0  0
  -19.6510  -26.5730   21.6190 C   0  0  0  0  0  2  0  0  0  0  0  0
  -18.2690  -26.7180   22.2640 C   0  0  0  0  0  2  0  0  0  0  0  0
  -19.2090  -28.8320   23.3670 C   0  0  0  0  0  0  0  0  0  0  0  0
  -18.9900  -30.0960   23.9550 C   0  0  0  0  0  3  0  0  0  0  0  0
  -17.6850  -30.5970   24.1200 C   0  0  0  0  0  3  0  0  0  0  0  0
  -16.5810  -29.8310   23.7080 C   0  0  0  0  0  3  0  0  0  0  0  0
  -16.7860  -28.5680   23.1220 C   0  0  0  0  0  3  0  0  0  0  0  0
  -25.8960  -32.5500   23.8610 C   0  0  0  0  0  3  0  0  0  0  0  0
  -26.4150  -31.7920   25.1450 C   0  0  1  0  0  0  0  0  0  0  0  0
  -25.3190  -31.5540   26.2100 C   0  0  0  0  0  1  0  0  0  0  0  0
  -27.0110  -30.4180   24.7620 C   0  0  0  0  0  1  0  0  0  0  0  0
  -27.5550  -32.6010   25.8060 C   0  0  0  0  0  1  0  0  0  0  0  0
  -25.5800  -33.9500   24.1750 N   0  0  0  0  0  0  0  0  0  0  0  0
  -25.8940  -34.9920   23.3930 C   0  0  0  0  0  0  0  0  0  0  0  0
  -26.5520  -34.8780   22.3550 O   0  0  0  0  0  0  0  0  0  0  0  0
  -24.9940  -34.1110   24.9800 H   0  0  0  0  0  0  0  0  0  0  0  0
  -24.1340  -36.7520   23.0410 C   0  0  0  0  0  1  0  0  0  0  0  0
  -25.3970  -36.3820   23.8330 C   0  0  0  0  0  3  0  0  0  0  0  0
  -27.5360  -37.3110   24.5990 C   0  0  0  0  0  1  0  0  0  0  0  0
  -26.4130  -37.4460   23.6760 N   0  0  0  0  0  0  0  0  0  0  0  0
  -25.9980  -38.3630   23.8130 H   0  0  0  0  0  0  0  0  0  0  0  0
  1  5  1  0
  3  1  1  0
  3  6  1  0
  4  2  1  0
  5 17  1  0
  5  2  1  0
  6  7  1  1
  6  4  1  0
  8 22  1  0
  9 14  1  0
 10 11  1  0
 10  9  1  0
 12 11  1  0
 12 27  1  0
 12 13  1  0
 14  8  1  0
 14 13  1  0
 15  8  2  0
 17 16  2  0
 18 17  1  0
 19 20  2  0
 20 16  1  0
 21 18  2  0
 21 19  1  0
 22 19  1  0
 22 23  1  0
 24 25  2  0
 25 44  1  0
 26 25  1  0
 26 29  1  0
 27 28  1  0
 27 24  1  0
 28 26  2  0
 29 30  1  0
 30 31  2  0
 32 35  1  0
 32 31  1  0
 33 32  2  0
 34 33  1  0
 34 29  2  0
 35 36  1  0
 36 37  1  0
 37 38  2  0
 39 38  1  0
 39 43  1  0
 40 39  2  0
 41 36  2  0
 41 40  1  0
 42 41  1  0
 44 45  1  0
 45 48  1  0
 45 47  1  0
 46 44  2  0
 49 24  1  0
 49 50  1  0
 51 49  1  0
 52 18  1  0
 53 54  1  0
 54 52  1  0
 55  6  1  0
 56 57  1  0
 56 55  1  0
 58 69  2  0
 59 57  1  0
 59 64  1  0
 60 68  1  0
 60 70  1  0
 61 67  1  0
 61 63  1  0
 62 68  1  0
 63 62  1  0
 64 63  2  0
 65 66  1  0
 65 59  2  0
 66 61  2  0
 67 60  1  0
 68 58  1  0
 70 72  2  0
 71 70  1  0
 73 71  1  0
 74 83  2  0
 74 79  1  0
 75 71  1  0
 75 79  1  0
 76 75  1  0
 77 78  1  0
 77 76  1  0
 78 74  1  0
 79 80  2  0
 80 81  1  0
 82 81  2  0
 83 82  1  0
 84 58  1  0
 84 89  1  0
 84 85  1  0
 85 88  1  1
 85 86  1  0
 87 85  1  0
 89 92  1  0
 90 94  1  0
 90 89  1  0
 91 90  2  0
 94 93  1  0
 96 97  1  0
 96 94  1  0
 96 95  1  0
M  ISO  4   8 100  22 100  56 101  57 101
M  END
>  <TORSDO>  (51) 
F 20

>  <SCORE>  (51) 
-13.321

>  <name>  (51) 
50

>  <ligand_id>  (51) 
50

>  <original_smiles>  (51) 
[H]c1nc(N([H])C(=O)N2C([H])([H])C([H])([H])C([H])([H])C([H])(n3nc(-c4c([H])c([H])c(Oc5c([H])c([H])c(F)c([H])c5F)c([H])c4[H])c(C(=O)N([H])[H])c3N([H])[H])C2([H])[H])nc(OC([H])([H])C([H])([H])[H])c1C1([H])C([H])([H])C([H])([H])[N+]([H])(C([H])([H])C([H])([H])Oc2c([H])c([H])c3c(c2[H])C([H])([H])N(C(=O)C([H])(N([H])C(=O)C([H])(N([H])C([H])([H])[H])C([H])([H])[H])C(C([H])([H])[H])(C([H])([H])[H])C([H])([H])[H])C([H])(C(=O)N([H])C2([H])c4c([H])c([H])c([H])c([H])c4C([H])([H])C([H])([H])C2([H])[H])C3([H])[H])C([H])([H])C1([H])[H]

>  <smiles>  (51) 
[H]c1nc(N([H])C(=O)N2C([H])([H])C([H])([H])C([H])([H])C([H])(n3nc(-c4c([H])c([H])c(Oc5c([H])c([H])c(F)c([H])c5F)c([H])c4[H])c(C(=O)N([H])[H])c3N([H])[H])C2([H])[H])nc(OC([H])([H])C([H])([H])[H])c1C1([H])C([H])([H])C([H])([H])[N+]([H])(C([H])([H])C([H])([H])Oc2c([H])c([H])c3c(c2[H])C([H])([H])N(C(=O)C([H])(N([H])C(=O)C([H])(N([H])C([H])([H])[H])C([H])([H])[H])C(C([H])([H])[H])(C([H])([H])[H])C([H])([H])[H])C([H])(C(=O)N([H])C2([H])c4c([H])c([H])c([H])c([H])c4C([H])([H])C([H])([H])C2([H])[H])C3([H])[H])C([H])([H])C1([H])[H]

$$$$
51:0:0
     RDKit          3D

 94103  0  0  1  0  0  0  0  0999 V2000
  -30.4550  -24.5570   20.5960 C   0  0  0  0  0  3  0  0  0  0  0  0
  -31.1230  -23.3620   20.7090 C   0  0  0  0  0  0  0  0  0  0  0  0
  -30.1730  -22.3670   20.3110 C   0  0  0  0  0  0  0  0  0  0  0  0
  -32.5470  -23.1530   21.1500 C   0  0  0  0  0  1  0  0  0  0  0  0
  -29.0100  -22.9420   19.9970 N   0  0  0  0  0  0  0  0  0  0  0  0
  -29.1790  -24.2880   20.1570 N   0  0  0  0  0  0  0  0  0  0  0  0
  -30.3540  -20.8390   20.2150 C   0  0  0  0  0  2  0  0  0  0  0  0
  -30.2210  -20.5830   22.6850 C   0  0  0  0  0  1  0  0  0  0  0  0
  -29.7760  -20.0710   21.3620 N   0  0  2  0  0  4  0  0  0  0  0  0
  -28.7960  -20.3160   21.3220 H   0  0  0  0  0  0  0  0  0  0  0  0
  -30.8600  -14.5710   20.0730 C   0  0  0  0  0  0  0  0  0  0  0  0
  -30.4540  -12.4230   18.9100 C   0  0  0  0  0  2  0  0  0  0  0  0
  -29.4400  -12.6080   17.7640 C   0  0  0  0  0  2  0  0  0  0  0  0
  -28.0010  -12.4330   18.2850 C   0  0  0  0  0  2  0  0  0  0  0  0
  -27.7250  -13.2700   19.5600 C   0  0  0  0  0  3  0  0  0  0  0  0
  -28.8540  -13.1030   20.6050 C   0  0  0  0  0  2  0  0  0  0  0  0
  -30.1340  -13.4190   19.9490 N   0  0  0  0  0  0  0  0  0  0  0  0
  -31.9880  -14.6830   19.5880 O   0  0  0  0  0  0  0  0  0  0  0  0
  -31.1660  -17.8880   21.6140 C   0  0  0  0  0  2  0  0  0  0  0  0
  -29.3140  -17.9220   19.9920 C   0  0  0  0  0  2  0  0  0  0  0  0
  -31.0230  -16.3480   21.7880 C   0  0  0  0  0  2  0  0  0  0  0  0
  -29.1560  -16.3780   20.1060 C   0  0  0  0  0  2  0  0  0  0  0  0
  -29.8100  -18.5580   21.3020 C   0  0  0  0  0  3  0  0  0  0  0  0
  -30.2910  -15.6380   20.7130 N   0  0  0  0  0  0  0  0  0  0  0  0
  -25.3810  -13.8710   20.4270 C   0  0  0  0  0  0  0  0  0  0  0  0
  -24.3360  -13.0950   20.8460 C   0  0  0  0  0  0  0  0  0  0  0  0
  -24.7940  -11.7430   20.7700 C   0  0  0  0  0  0  0  0  0  0  0  0
  -26.4090  -12.9910   20.1230 N   0  0  0  0  0  0  0  0  0  0  0  0
  -26.0650  -11.7070   20.3900 N   0  0  0  0  0  0  0  0  0  0  0  0
  -24.0800  -10.4790   20.9810 C   0  0  0  0  0  0  0  0  0  0  0  0
  -24.4980   -9.5510   21.9590 C   0  0  0  0  0  3  0  0  0  0  0  0
  -23.7840   -8.3490   22.1540 C   0  0  0  0  0  3  0  0  0  0  0  0
  -22.6390   -8.0680   21.3710 C   0  0  0  0  0  0  0  0  0  0  0  0
  -22.2420   -8.9860   20.3820 C   0  0  0  0  0  3  0  0  0  0  0  0
  -22.9570  -10.1790   20.1850 C   0  0  0  0  0  3  0  0  0  0  0  0
  -21.8990   -6.9150   21.4750 O   0  0  0  0  0  0  0  0  0  0  0  0
  -21.7430   -6.2650   22.6720 C   0  0  0  0  0  0  0  0  0  0  0  0
  -21.1690   -6.9000   23.7950 C   0  0  0  0  0  3  0  0  0  0  0  0
  -20.9650   -6.1750   24.9850 C   0  0  0  0  0  3  0  0  0  0  0  0
  -21.3240   -4.8150   25.0530 C   0  0  0  0  0  0  0  0  0  0  0  0
  -21.8910   -4.1800   23.9340 C   0  0  0  0  0  3  0  0  0  0  0  0
  -22.0970   -4.9030   22.7460 C   0  0  0  0  0  0  0  0  0  0  0  0
  -22.6250   -4.2820   21.6640 F   0  0  0  0  0  0  0  0  0  0  0  0
  -21.1190   -4.1150   26.1930 F   0  0  0  0  0  0  0  0  0  0  0  0
  -22.9570  -13.5680   21.2030 C   0  0  0  0  0  0  0  0  0  0  0  0
  -22.2810  -12.8650   22.1040 N   0  0  0  0  0  0  0  0  0  0  0  0
  -22.4880  -14.5960   20.7160 O   0  0  0  0  0  0  0  0  0  0  0  0
  -22.6750  -12.0330   22.5200 H   0  0  0  0  0  0  0  0  0  0  0  0
  -21.3590  -13.1640   22.3860 H   0  0  0  0  0  0  0  0  0  0  0  0
  -25.5330  -15.2430   20.2560 N   0  0  0  0  0  0  0  0  0  0  0  0
  -24.7670  -15.8910   20.4080 H   0  0  0  0  0  0  0  0  0  0  0  0
  -26.3520  -15.6840   19.8570 H   0  0  0  0  0  0  0  0  0  0  0  0
  -28.0550  -25.1870   19.8570 C   0  0  0  0  0  2  0  0  0  0  0  0
  -28.2820  -26.5600   20.1820 O   0  0  0  0  0  0  0  0  0  0  0  0
  -24.5940  -31.9010   23.2420 C   0  0  0  0  0  0  0  0  0  0  0  0
  -27.1550  -27.3840   20.1370 C   0  0  0  0  0  0  0  0  0  0  0  0
  -23.3660  -30.5230   21.6020 C   0  0  0  0  0  3  0  0  0  0  0  0
  -24.7930  -28.9780   20.1610 C   0  0  0  0  0  0  0  0  0  0  0  0
  -25.9040  -30.8310   21.4050 C   0  0  0  0  0  2  0  0  0  0  0  0
  -25.9670  -29.4610   20.7520 C   0  0  0  0  0  0  0  0  0  0  0  0
  -27.1500  -28.6740   20.7370 C   0  0  0  0  0  3  0  0  0  0  0  0
  -25.9540  -26.9500   19.5190 C   0  0  0  0  0  3  0  0  0  0  0  0
  -24.7840  -27.7230   19.5400 C   0  0  0  0  0  3  0  0  0  0  0  0
  -23.5630  -29.8560   20.2170 C   0  0  0  0  0  2  0  0  0  0  0  0
  -24.6410  -31.1000   22.1400 N   0  0  0  0  0  0  0  0  0  0  0  0
  -23.5180  -32.1860   23.7850 O   0  0  0  0  0  0  0  0  0  0  0  0
  -22.7040  -29.5040   22.5590 C   0  0  0  0  0  0  0  0  0  0  0  0
  -21.3780  -29.3280   22.4280 N   0  0  0  0  0  0  0  0  0  0  0  0
  -23.3790  -28.8740   23.3780 O   0  0  0  0  0  0  0  0  0  0  0  0
  -20.8930  -29.8880   21.7400 H   0  0  0  0  0  0  0  0  0  0  0  0
  -17.9960  -28.1420   22.9070 C   0  0  0  0  0  0  0  0  0  0  0  0
  -20.5520  -28.3970   23.1970 C   0  0  0  0  0  3  0  0  0  0  0  0
  -20.6560  -26.9620   22.6310 C   0  0  0  0  0  2  0  0  0  0  0  0
  -19.5620  -26.6350   21.6100 C   0  0  0  0  0  2  0  0  0  0  0  0
  -18.1760  -26.7880   22.2400 C   0  0  0  0  0  2  0  0  0  0  0  0
  -19.1130  -28.9040   23.3420 C   0  0  0  0  0  0  0  0  0  0  0  0
  -18.8920  -30.1710   23.9240 C   0  0  0  0  0  3  0  0  0  0  0  0
  -17.5870  -30.6770   24.0740 C   0  0  0  0  0  3  0  0  0  0  0  0
  -16.4840  -29.9120   23.6550 C   0  0  0  0  0  3  0  0  0  0  0  0
  -16.6900  -28.6470   23.0780 C   0  0  0  0  0  3  0  0  0  0  0  0
  -25.8890  -32.5160   23.8570 C   0  0  0  0  0  3  0  0  0  0  0  0
  -26.3950  -31.7430   25.1370 C   0  0  1  0  0  0  0  0  0  0  0  0
  -25.2990  -31.5230   26.2050 C   0  0  0  0  0  1  0  0  0  0  0  0
  -26.9620  -30.3570   24.7480 C   0  0  0  0  0  1  0  0  0  0  0  0
  -27.5550  -32.5260   25.7960 C   0  0  0  0  0  1  0  0  0  0  0  0
  -25.6020  -33.9190   24.1800 N   0  0  0  0  0  0  0  0  0  0  0  0
  -25.9270  -34.9600   23.4030 C   0  0  0  0  0  0  0  0  0  0  0  0
  -26.5720  -34.8400   22.3580 O   0  0  0  0  0  0  0  0  0  0  0  0
  -25.0310  -34.0890   24.9960 H   0  0  0  0  0  0  0  0  0  0  0  0
  -24.1990  -36.7580   23.0780 C   0  0  0  0  0  1  0  0  0  0  0  0
  -25.4630  -36.3580   23.8570 C   0  0  0  0  0  3  0  0  0  0  0  0
  -27.6240  -37.2430   24.6140 C   0  0  0  0  0  1  0  0  0  0  0  0
  -26.4980  -37.4030   23.6980 N   0  0  0  0  0  0  0  0  0  0  0  0
  -26.1020  -38.3280   23.8400 H   0  0  0  0  0  0  0  0  0  0  0  0
  1  2  2  0
  2  4  1  0
  3  2  1  0
  5  6  1  0
  5  3  2  0
  6  1  1  0
  7  3  1  0
  7  9  1  0
  9  8  1  0
  9 10  1  1
 11 24  1  0
 12 17  1  0
 13 14  1  0
 13 12  1  0
 15 14  1  0
 15 28  1  0
 15 16  1  0
 17 11  1  0
 17 16  1  0
 18 11  2  0
 19 21  1  0
 20 22  1  0
 20 23  1  0
 22 24  1  0
 23  9  1  0
 23 19  1  0
 24 21  1  0
 25 26  2  0
 26 45  1  0
 27 26  1  0
 27 30  1  0
 28 29  1  0
 28 25  1  0
 29 27  2  0
 30 31  1  0
 31 32  2  0
 33 36  1  0
 33 32  1  0
 34 33  2  0
 35 34  1  0
 35 30  2  0
 36 37  1  0
 37 42  2  0
 37 38  1  0
 38 39  2  0
 39 40  1  0
 40 44  1  0
 41 40  2  0
 42 41  1  0
 43 42  1  0
 45 46  1  0
 46 49  1  0
 46 48  1  0
 47 45  2  0
 50 51  1  0
 50 25  1  0
 52 50  1  0
 53  6  1  0
 53 54  1  0
 55 66  2  0
 56 54  1  0
 56 61  1  0
 57 65  1  0
 57 67  1  0
 58 64  1  0
 58 60  1  0
 59 65  1  0
 60 59  1  0
 61 60  2  0
 62 63  1  0
 62 56  2  0
 63 58  2  0
 64 57  1  0
 65 55  1  0
 67 69  2  0
 68 67  1  0
 70 68  1  0
 71 80  2  0
 71 76  1  0
 72 68  1  0
 72 76  1  0
 73 72  1  0
 74 75  1  0
 74 73  1  0
 75 71  1  0
 76 77  2  0
 77 78  1  0
 79 78  2  0
 80 79  1  0
 81 55  1  0
 81 86  1  0
 81 82  1  0
 82 85  1  1
 82 83  1  0
 84 82  1  0
 86 89  1  0
 87 91  1  0
 87 86  1  0
 88 87  2  0
 91 90  1  0
 93 94  1  0
 93 91  1  0
 93 92  1  0
M  ISO  4  11 100  24 100  53 101  54 101
M  END
>  <TORSDO>  (52) 
F 19

>  <SCORE>  (52) 
-13.290

>  <name>  (52) 
51

>  <ligand_id>  (52) 
51

>  <original_smiles>  (52) 
[H]c1c([H])c([H])c2c(c1[H])C([H])([H])C([H])([H])C([H])([H])C2([H])N([H])C(=O)C1([H])N(C(=O)C([H])(N([H])C(=O)C([H])(N([H])C([H])([H])[H])C([H])([H])[H])C(C([H])([H])[H])(C([H])([H])[H])C([H])([H])[H])C([H])([H])c2c([H])c(OC([H])([H])n3nc(C([H])([H])[N+]([H])(C([H])([H])[H])C4([H])C([H])([H])C([H])([H])N(C(=O)N5C([H])([H])C([H])([H])C([H])([H])C([H])(n6nc(-c7c([H])c([H])c(Oc8c([H])c([H])c(F)c([H])c8F)c([H])c7[H])c(C(=O)N([H])[H])c6N([H])[H])C5([H])[H])C([H])([H])C4([H])[H])c(C([H])([H])[H])c3[H])c([H])c([H])c2C1([H])[H]

>  <smiles>  (52) 
[H]c1c([H])c([H])c2c(c1[H])C([H])([H])C([H])([H])C([H])([H])C2([H])N([H])C(=O)C1([H])N(C(=O)C([H])(N([H])C(=O)C([H])(N([H])C([H])([H])[H])C([H])([H])[H])C(C([H])([H])[H])(C([H])([H])[H])C([H])([H])[H])C([H])([H])c2c([H])c(OC([H])([H])n3nc(C([H])([H])[N+]([H])(C([H])([H])[H])C4([H])C([H])([H])C([H])([H])N(C(=O)N5C([H])([H])C([H])([H])C([H])([H])C([H])(n6nc(-c7c([H])c([H])c(Oc8c([H])c([H])c(F)c([H])c8F)c([H])c7[H])c(C(=O)N([H])[H])c6N([H])[H])C5([H])[H])C([H])([H])C4([H])[H])c(C([H])([H])[H])c3[H])c([H])c([H])c2C1([H])[H]

$$$$
52:0:0
     RDKit          3D

 93101  0  0  1  0  0  0  0  0999 V2000
  -27.8760  -20.4930   20.0620 C   0  0  0  0  0  2  0  0  0  0  0  0
  -27.5490  -22.0740   19.9530 C   0  0  0  0  0  3  0  0  0  0  0  0
  -29.3050  -20.2360   20.6220 C   0  0  0  0  0  3  0  0  0  0  0  0
  -28.7540  -22.9620   20.4490 C   0  0  0  0  0  3  0  0  0  0  0  0
  -29.8270  -21.7460   20.3270 N   0  0  0  0  0  4  0  0  0  0  0  0
  -30.6230  -21.9390   20.9140 H   0  0  0  0  0  0  0  0  0  0  0  0
  -30.1730  -21.7490   19.3810 H   0  0  0  0  0  0  0  0  0  0  0  0
  -26.2070  -22.4660   20.6150 C   0  0  0  0  0  2  0  0  0  0  0  0
  -25.0700  -22.4090   19.6770 N   0  0  0  0  0  4  0  0  0  0  0  0
  -25.1950  -23.0550   18.9170 H   0  0  0  0  0  0  0  0  0  0  0  0
  -24.2220  -22.6580   20.1530 H   0  0  0  0  0  0  0  0  0  0  0  0
  -24.9520  -21.4880   19.2960 H   0  0  0  0  0  0  0  0  0  0  0  0
  -30.1640  -18.6420   20.3590 C   0  0  0  0  0  2  0  0  0  0  0  0
  -30.6790  -15.7450   20.8410 C   0  0  0  0  0  0  0  0  0  0  0  0
  -30.7880  -13.2300   20.1760 C   0  0  0  0  0  2  0  0  0  0  0  0
  -30.0380  -12.9060   18.8590 C   0  0  0  0  0  2  0  0  0  0  0  0
  -28.5490  -12.6360   19.1320 C   0  0  0  0  0  2  0  0  0  0  0  0
  -27.9480  -13.6620   20.1210 C   0  0  0  0  0  3  0  0  0  0  0  0
  -28.8430  -13.9360   21.3490 C   0  0  0  0  0  2  0  0  0  0  0  0
  -30.1340  -14.4240   20.8370 N   0  0  0  0  0  0  0  0  0  0  0  0
  -31.9150  -15.7400   20.7330 O   0  0  0  0  0  0  0  0  0  0  0  0
  -29.9070  -17.0220   20.7710 N   0  0  0  0  0  0  0  0  0  0  0  0
  -28.9230  -16.8330   20.8970 H   0  0  0  0  0  0  0  0  0  0  0  0
  -25.5120  -14.2230   20.6110 C   0  0  0  0  0  0  0  0  0  0  0  0
  -24.4150  -13.4510   20.8650 C   0  0  0  0  0  0  0  0  0  0  0  0
  -24.8780  -12.1000   20.8840 C   0  0  0  0  0  0  0  0  0  0  0  0
  -26.5730  -13.3480   20.4850 N   0  0  0  0  0  0  0  0  0  0  0  0
  -26.1970  -12.0610   20.7170 N   0  0  0  0  0  0  0  0  0  0  0  0
  -24.1280  -10.8400   20.9910 C   0  0  0  0  0  0  0  0  0  0  0  0
  -24.4760   -9.8500   21.9370 C   0  0  0  0  0  3  0  0  0  0  0  0
  -23.7240   -8.6590   22.0360 C   0  0  0  0  0  3  0  0  0  0  0  0
  -22.6110   -8.4480   21.1870 C   0  0  0  0  0  0  0  0  0  0  0  0
  -22.2810   -9.4280   20.2340 C   0  0  0  0  0  3  0  0  0  0  0  0
  -23.0340  -10.6110   20.1330 C   0  0  0  0  0  3  0  0  0  0  0  0
  -21.8400   -7.3110   21.1940 O   0  0  0  0  0  0  0  0  0  0  0  0
  -21.7460   -6.5110   22.3050 C   0  0  0  0  0  0  0  0  0  0  0  0
  -21.2850   -7.0080   23.5430 C   0  0  0  0  0  3  0  0  0  0  0  0
  -21.1380   -6.1370   24.6410 C   0  0  0  0  0  3  0  0  0  0  0  0
  -21.4420   -4.7700   24.5020 C   0  0  0  0  0  0  0  0  0  0  0  0
  -21.8970   -4.2730   23.2680 C   0  0  0  0  0  3  0  0  0  0  0  0
  -22.0450   -5.1400   22.1720 C   0  0  0  0  0  0  0  0  0  0  0  0
  -22.4630   -4.6510   20.9790 F   0  0  0  0  0  0  0  0  0  0  0  0
  -21.2940   -3.9330   25.5540 F   0  0  0  0  0  0  0  0  0  0  0  0
  -22.9990  -13.9340   20.9740 C   0  0  0  0  0  0  0  0  0  0  0  0
  -22.1770  -13.2500   21.7620 N   0  0  0  0  0  0  0  0  0  0  0  0
  -22.6290  -14.9570   20.3980 O   0  0  0  0  0  0  0  0  0  0  0  0
  -22.4880  -12.4230   22.2500 H   0  0  0  0  0  0  0  0  0  0  0  0
  -21.2240  -13.5600   21.8810 H   0  0  0  0  0  0  0  0  0  0  0  0
  -25.6920  -15.5930   20.4430 N   0  0  0  0  0  0  0  0  0  0  0  0
  -24.9080  -16.2370   20.4480 H   0  0  0  0  0  0  0  0  0  0  0  0
  -26.5540  -16.0190   20.1300 H   0  0  0  0  0  0  0  0  0  0  0  0
  -28.8150  -24.6700   19.7890 C   0  0  0  0  0  2  0  0  0  0  0  0
  -28.6700  -26.2500   20.2980 O   0  0  0  0  0  0  0  0  0  0  0  0
  -24.7350  -31.9890   23.2310 C   0  0  0  0  0  0  0  0  0  0  0  0
  -27.6060  -27.2980   20.1680 C   0  0  0  0  0  0  0  0  0  0  0  0
  -23.6530  -30.5770   21.5280 C   0  0  0  0  0  3  0  0  0  0  0  0
  -25.2150  -29.0760   20.1030 C   0  0  0  0  0  0  0  0  0  0  0  0
  -26.2090  -30.9080   21.4580 C   0  0  0  0  0  2  0  0  0  0  0  0
  -26.3630  -29.5190   20.7680 C   0  0  0  0  0  0  0  0  0  0  0  0
  -27.5440  -28.6490   20.7820 C   0  0  0  0  0  3  0  0  0  0  0  0
  -26.4230  -27.0140   19.4480 C   0  0  0  0  0  3  0  0  0  0  0  0
  -25.2720  -27.8460   19.4240 C   0  0  0  0  0  3  0  0  0  0  0  0
  -23.9500  -29.9350   20.1440 C   0  0  0  0  0  2  0  0  0  0  0  0
  -24.8840  -31.1850   22.1270 N   0  0  0  0  0  0  0  0  0  0  0  0
  -23.6190  -32.2140   23.7290 O   0  0  0  0  0  0  0  0  0  0  0  0
  -22.9810  -29.5280   22.4530 C   0  0  0  0  0  0  0  0  0  0  0  0
  -21.6580  -29.3290   22.3110 N   0  0  0  0  0  0  0  0  0  0  0  0
  -23.6590  -28.8940   23.2650 O   0  0  0  0  0  0  0  0  0  0  0  0
  -21.1600  -29.8930   21.6370 H   0  0  0  0  0  0  0  0  0  0  0  0
  -18.2990  -28.0460   22.8050 C   0  0  0  0  0  0  0  0  0  0  0  0
  -20.8600  -28.3390   23.0440 C   0  0  0  0  0  3  0  0  0  0  0  0
  -20.9730  -26.9410   22.3910 C   0  0  0  0  0  2  0  0  0  0  0  0
  -19.8600  -26.6570   21.3760 C   0  0  0  0  0  2  0  0  0  0  0  0
  -18.4870  -26.7410   22.0480 C   0  0  0  0  0  2  0  0  0  0  0  0
  -19.4120  -28.8030   23.2580 C   0  0  0  0  0  0  0  0  0  0  0  0
  -19.1810  -30.0230   23.9300 C   0  0  0  0  0  3  0  0  0  0  0  0
  -17.8710  -30.4860   24.1500 C   0  0  0  0  0  3  0  0  0  0  0  0
  -16.7730  -29.7270   23.7110 C   0  0  0  0  0  3  0  0  0  0  0  0
  -16.9880  -28.5070   23.0440 C   0  0  0  0  0  3  0  0  0  0  0  0
  -25.9570  -32.6770   23.9130 C   0  0  0  0  0  3  0  0  0  0  0  0
  -26.4280  -31.9380   25.2270 C   0  0  1  0  0  0  0  0  0  0  0  0
  -25.2880  -31.6780   26.2400 C   0  0  0  0  0  1  0  0  0  0  0  0
  -27.0740  -30.5740   24.8930 C   0  0  0  0  0  1  0  0  0  0  0  0
  -27.5200  -32.7760   25.9350 C   0  0  0  0  0  1  0  0  0  0  0  0
  -25.5810  -34.0680   24.2230 N   0  0  0  0  0  0  0  0  0  0  0  0
  -25.9170  -35.1370   23.4880 C   0  0  0  0  0  0  0  0  0  0  0  0
  -26.6370  -35.0570   22.4900 O   0  0  0  0  0  0  0  0  0  0  0  0
  -24.9450  -34.2020   24.9950 H   0  0  0  0  0  0  0  0  0  0  0  0
  -24.1470  -36.8800   23.0740 C   0  0  0  0  0  1  0  0  0  0  0  0
  -25.3710  -36.5120   23.9270 C   0  0  0  0  0  3  0  0  0  0  0  0
  -27.4430  -37.4690   24.8340 C   0  0  0  0  0  1  0  0  0  0  0  0
  -26.3730  -37.5980   23.8490 N   0  0  0  0  0  0  0  0  0  0  0  0
  -25.9310  -38.5050   23.9780 H   0  0  0  0  0  0  0  0  0  0  0  0
  1  3  1  0
  2  1  1  0
  2  4  1  0
  2  8  1  0
  3 13  1  0
  4 52  1  0
  5  4  1  0
  5  3  1  0
  5  6  1  0
  7  5  1  0
  9 11  1  0
  9  8  1  0
 10  9  1  0
 12  9  1  0
 13 22  1  0
 15 20  1  0
 16 17  1  0
 16 15  1  0
 18 17  1  0
 18 27  1  0
 18 19  1  0
 20 14  1  0
 20 19  1  0
 21 14  2  0
 22 14  1  0
 22 23  1  0
 24 25  2  0
 25 26  1  0
 25 44  1  0
 26 29  1  0
 27 24  1  0
 27 28  1  0
 28 26  2  0
 29 30  1  0
 30 31  2  0
 32 35  1  0
 32 31  1  0
 33 32  2  0
 34 33  1  0
 34 29  2  0
 35 36  1  0
 36 37  1  0
 37 38  2  0
 39 38  1  0
 39 43  1  0
 40 39  2  0
 41 36  2  0
 41 40  1  0
 42 41  1  0
 44 45  1  0
 45 48  1  0
 45 47  1  0
 46 44  2  0
 49 50  1  0
 49 24  1  0
 51 49  1  0
 52 53  1  0
 54 65  2  0
 55 53  1  0
 55 60  1  0
 56 64  1  0
 56 66  1  0
 57 63  1  0
 57 59  1  0
 58 64  1  0
 59 60  2  0
 59 58  1  0
 61 55  2  0
 62 61  1  0
 62 57  2  0
 63 56  1  0
 64 54  1  0
 66 68  2  0
 67 66  1  0
 69 67  1  0
 70 79  2  0
 70 75  1  0
 71 67  1  0
 71 75  1  0
 72 71  1  0
 73 74  1  0
 73 72  1  0
 74 70  1  0
 75 76  2  0
 76 77  1  0
 78 77  2  0
 79 78  1  0
 80 54  1  0
 80 85  1  0
 80 81  1  0
 81 84  1  1
 81 82  1  0
 83 81  1  0
 85 88  1  0
 86 90  1  0
 86 85  1  0
 87 86  2  0
 90 89  1  0
 92 90  1  0
 92 93  1  0
 92 91  1  0
M  ISO  4  14 100  22 100  52 101  53 101
M  END
>  <TORSDO>  (53) 
F 20

>  <SCORE>  (53) 
-14.785

>  <name>  (53) 
52

>  <ligand_id>  (53) 
52

>  <original_smiles>  (53) 
[H]c1c([H])c([H])c2c(c1[H])C([H])([H])C([H])([H])C([H])([H])C2([H])N([H])C(=O)C1([H])N(C(=O)C([H])(N([H])C(=O)C([H])(N([H])C([H])([H])[H])C([H])([H])[H])C(C([H])([H])[H])(C([H])([H])[H])C([H])([H])[H])C([H])([H])c2c([H])c(OC([H])([H])C3([H])C([H])(C([H])([H])[N+]([H])([H])[H])C([H])([H])C([H])(C([H])([H])N([H])C(=O)N4C([H])([H])C([H])([H])C([H])([H])C([H])(n5nc(-c6c([H])c([H])c(Oc7c([H])c([H])c(F)c([H])c7F)c([H])c6[H])c(C(=O)N([H])[H])c5N([H])[H])C4([H])[H])[N+]3([H])[H])c([H])c([H])c2C1([H])[H]

>  <smiles>  (53) 
[H]c1c([H])c([H])c2c(c1[H])C([H])([H])C([H])([H])C([H])([H])C2([H])N([H])C(=O)C1([H])N(C(=O)C([H])(N([H])C(=O)C([H])(N([H])C([H])([H])[H])C([H])([H])[H])C(C([H])([H])[H])(C([H])([H])[H])C([H])([H])[H])C([H])([H])c2c([H])c(OC([H])([H])C3([H])C([H])(C([H])([H])[N+]([H])([H])[H])C([H])([H])C([H])(C([H])([H])N([H])C(=O)N4C([H])([H])C([H])([H])C([H])([H])C([H])(n5nc(-c6c([H])c([H])c(Oc7c([H])c([H])c(F)c([H])c7F)c([H])c6[H])c(C(=O)N([H])[H])c5N([H])[H])C4([H])[H])[N+]3([H])[H])c([H])c([H])c2C1([H])[H]

$$$$
53:0:0
     RDKit          3D

 98107  0  0  1  0  0  0  0  0999 V2000
  -27.8450  -22.0890   19.1590 C   0  0  0  0  0  2  0  0  0  0  0  0
  -28.9340  -21.3270   19.7880 C   0  0  0  0  0  0  0  0  0  0  0  0
  -29.5390  -23.6690   20.4340 C   0  0  0  0  0  3  0  0  0  0  0  0
  -28.4430  -24.4270   19.8150 C   0  0  0  0  0  0  0  0  0  0  0  0
  -27.6220  -23.5080   19.1560 N   0  0  0  0  0  0  0  0  0  0  0  0
  -29.7600  -22.2520   20.4260 N   0  0  0  0  0  0  0  0  0  0  0  0
  -29.1660  -19.3920   21.5450 C   0  0  0  0  0  2  0  0  0  0  0  0
  -31.2090  -18.5730   20.5260 C   0  0  0  0  0  2  0  0  0  0  0  0
  -29.0070  -19.5860   20.0290 C   0  0  0  0  0  3  0  0  0  0  0  0
  -30.0660  -18.2280   19.5650 C   0  0  0  0  0  3  0  0  0  0  0  0
  -30.5760  -19.0090   21.7890 N   0  0  0  0  0  4  0  0  0  0  0  0
  -30.6020  -18.2600   22.4590 H   0  0  0  0  0  0  0  0  0  0  0  0
  -31.0920  -19.7830   22.1740 H   0  0  0  0  0  0  0  0  0  0  0  0
  -30.6590  -15.3350   19.6300 C   0  0  0  0  0  0  0  0  0  0  0  0
  -30.6620  -12.8380   18.9280 C   0  0  0  0  0  2  0  0  0  0  0  0
  -29.6770  -12.5240   17.7740 C   0  0  0  0  0  2  0  0  0  0  0  0
  -28.2620  -12.2610   18.3160 C   0  0  0  0  0  2  0  0  0  0  0  0
  -27.8530  -13.2950   19.3950 C   0  0  0  0  0  3  0  0  0  0  0  0
  -28.9580  -13.5360   20.4440 C   0  0  0  0  0  2  0  0  0  0  0  0
  -30.1360  -14.0180   19.7060 N   0  0  0  0  0  0  0  0  0  0  0  0
  -31.8600  -15.3650   19.3260 O   0  0  0  0  0  0  0  0  0  0  0  0
  -29.8510  -16.5740   19.7030 N   0  0  0  0  0  0  0  0  0  0  0  0
  -28.8890  -16.3410   19.8930 H   0  0  0  0  0  0  0  0  0  0  0  0
  -25.5750  -13.8750   20.3800 C   0  0  0  0  0  0  0  0  0  0  0  0
  -24.5300  -13.1080   20.8120 C   0  0  0  0  0  0  0  0  0  0  0  0
  -24.9540  -11.7500   20.6780 C   0  0  0  0  0  0  0  0  0  0  0  0
  -26.5670  -12.9870   20.0050 N   0  0  0  0  0  0  0  0  0  0  0  0
  -26.2120  -11.7000   20.2520 N   0  0  0  0  0  0  0  0  0  0  0  0
  -24.2120  -10.4970   20.8740 C   0  0  0  0  0  0  0  0  0  0  0  0
  -24.6300   -9.5290   21.8130 C   0  0  0  0  0  3  0  0  0  0  0  0
  -23.8860   -8.3430   22.0000 C   0  0  0  0  0  3  0  0  0  0  0  0
  -22.7110   -8.1170   21.2450 C   0  0  0  0  0  0  0  0  0  0  0  0
  -22.3110   -9.0740   20.2950 C   0  0  0  0  0  3  0  0  0  0  0  0
  -23.0560  -10.2500   20.1060 C   0  0  0  0  0  3  0  0  0  0  0  0
  -21.9400   -6.9820   21.3380 O   0  0  0  0  0  0  0  0  0  0  0  0
  -21.7790   -6.3180   22.5270 C   0  0  0  0  0  0  0  0  0  0  0  0
  -21.2440   -6.9520   23.6700 C   0  0  0  0  0  3  0  0  0  0  0  0
  -21.0310   -6.2130   24.8510 C   0  0  0  0  0  3  0  0  0  0  0  0
  -21.3450   -4.8410   24.8910 C   0  0  0  0  0  0  0  0  0  0  0  0
  -21.8730   -4.2070   23.7530 C   0  0  0  0  0  3  0  0  0  0  0  0
  -22.0880   -4.9430   22.5740 C   0  0  0  0  0  0  0  0  0  0  0  0
  -22.5770   -4.3220   21.4740 F   0  0  0  0  0  0  0  0  0  0  0  0
  -21.1340   -4.1300   26.0220 F   0  0  0  0  0  0  0  0  0  0  0  0
  -23.1730  -13.6040   21.2200 C   0  0  0  0  0  0  0  0  0  0  0  0
  -22.5070  -12.8950   22.1230 N   0  0  0  0  0  0  0  0  0  0  0  0
  -22.7190  -14.6570   20.7730 O   0  0  0  0  0  0  0  0  0  0  0  0
  -22.8900  -12.0420   22.5040 H   0  0  0  0  0  0  0  0  0  0  0  0
  -21.5990  -13.2070   22.4370 H   0  0  0  0  0  0  0  0  0  0  0  0
  -25.7560  -15.2490   20.2440 N   0  0  0  0  0  0  0  0  0  0  0  0
  -24.9990  -15.9020   20.4230 H   0  0  0  0  0  0  0  0  0  0  0  0
  -26.5330  -15.6720   19.7570 H   0  0  0  0  0  0  0  0  0  0  0  0
  -28.3460  -25.9600   19.6960 O   0  0  0  0  0  0  0  0  0  0  0  0
  -24.6570  -31.6690   22.9880 C   0  0  0  0  0  0  0  0  0  0  0  0
  -27.2560  -26.9730   19.7410 C   0  0  0  0  0  0  0  0  0  0  0  0
  -23.4570  -30.3050   21.3230 C   0  0  0  0  0  3  0  0  0  0  0  0
  -24.9070  -28.7840   19.8130 C   0  0  0  0  0  0  0  0  0  0  0  0
  -26.0080  -30.5880   21.1280 C   0  0  0  0  0  2  0  0  0  0  0  0
  -26.0960  -29.2020   20.4240 C   0  0  0  0  0  0  0  0  0  0  0  0
  -27.2610  -28.3160   20.3630 C   0  0  0  0  0  3  0  0  0  0  0  0
  -26.0350  -26.7030   19.0890 C   0  0  0  0  0  3  0  0  0  0  0  0
  -24.8990  -27.5560   19.1280 C   0  0  0  0  0  3  0  0  0  0  0  0
  -23.6690  -29.6720   19.9200 C   0  0  0  0  0  2  0  0  0  0  0  0
  -24.7290  -30.8800   21.8680 N   0  0  0  0  0  0  0  0  0  0  0  0
  -23.5740  -31.9150   23.5440 O   0  0  0  0  0  0  0  0  0  0  0  0
  -22.8090  -29.2610   22.2670 C   0  0  0  0  0  0  0  0  0  0  0  0
  -21.4820  -29.0660   22.1610 N   0  0  0  0  0  0  0  0  0  0  0  0
  -23.5060  -28.6260   23.0610 O   0  0  0  0  0  0  0  0  0  0  0  0
  -20.9720  -29.6260   21.4920 H   0  0  0  0  0  0  0  0  0  0  0  0
  -18.1440  -27.7500   22.6900 C   0  0  0  0  0  0  0  0  0  0  0  0
  -20.6980  -28.0810   22.9140 C   0  0  0  0  0  3  0  0  0  0  0  0
  -20.8290  -26.6740   22.2880 C   0  0  0  0  0  2  0  0  0  0  0  0
  -19.7170  -26.3580   21.2810 C   0  0  0  0  0  2  0  0  0  0  0  0
  -18.3460  -26.4340   21.9570 C   0  0  0  0  0  2  0  0  0  0  0  0
  -19.2470  -28.5310   23.1240 C   0  0  0  0  0  0  0  0  0  0  0  0
  -19.0020  -29.7610   23.7730 C   0  0  0  0  0  3  0  0  0  0  0  0
  -17.6850  -30.2120   23.9860 C   0  0  0  0  0  3  0  0  0  0  0  0
  -16.5970  -29.4290   23.5640 C   0  0  0  0  0  3  0  0  0  0  0  0
  -16.8260  -28.1980   22.9240 C   0  0  0  0  0  3  0  0  0  0  0  0
  -25.9300  -32.3160   23.6160 C   0  0  0  0  0  3  0  0  0  0  0  0
  -26.4980  -31.5020   24.8440 C   0  0  1  0  0  0  0  0  0  0  0  0
  -25.4380  -31.1900   25.9270 C   0  0  0  0  0  1  0  0  0  0  0  0
  -27.1010  -30.1560   24.3840 C   0  0  0  0  0  1  0  0  0  0  0  0
  -27.6470  -32.2910   25.5140 C   0  0  0  0  0  1  0  0  0  0  0  0
  -25.5840  -33.6870   24.0340 N   0  0  0  0  0  0  0  0  0  0  0  0
  -25.8530  -34.7950   23.3320 C   0  0  0  0  0  0  0  0  0  0  0  0
  -26.4850  -34.7750   22.2720 O   0  0  0  0  0  0  0  0  0  0  0  0
  -25.0140  -33.7730   24.8630 H   0  0  0  0  0  0  0  0  0  0  0  0
  -24.0510  -36.5450   23.1610 C   0  0  0  0  0  1  0  0  0  0  0  0
  -25.3430  -36.1400   23.8900 C   0  0  0  0  0  3  0  0  0  0  0  0
  -27.4820  -37.0530   24.6780 C   0  0  0  0  0  1  0  0  0  0  0  0
  -26.3340  -37.2340   23.7930 N   0  0  0  0  0  0  0  0  0  0  0  0
  -25.9060  -38.1290   24.0110 H   0  0  0  0  0  0  0  0  0  0  0  0
  -30.6070  -24.4370   21.1940 C   0  0  0  0  0  2  0  0  0  0  0  0
  -31.9090  -24.6320   20.3920 C   0  0  0  0  0  2  0  0  0  0  0  0
  -32.5520  -23.3620   20.0000 N   0  0  0  0  0  4  0  0  0  0  0  0
  -33.3750  -23.5420   19.4530 H   0  0  0  0  0  0  0  0  0  0  0  0
  -31.9210  -22.8030   19.4520 H   0  0  0  0  0  0  0  0  0  0  0  0
  -32.8220  -22.8380   20.8120 H   0  0  0  0  0  0  0  0  0  0  0  0
  1  2  1  0
  2  6  2  0
  3 93  1  0
  4  3  1  0
  5  1  1  0
  5  4  2  0
  6  3  1  0
  7 11  1  0
  8 11  1  0
  9  2  1  0
  9  7  1  0
 10 22  1  0
 10  9  1  0
 10  8  1  0
 11 13  1  0
 11 12  1  0
 14 22  1  0
 14 20  1  0
 15 20  1  0
 16 17  1  0
 16 15  1  0
 18 17  1  0
 18 27  1  0
 18 19  1  0
 20 19  1  0
 21 14  2  0
 22 23  1  0
 24 25  2  0
 25 44  1  0
 26 25  1  0
 26 29  1  0
 27 28  1  0
 27 24  1  0
 28 26  2  0
 29 30  1  0
 30 31  2  0
 32 35  1  0
 32 31  1  0
 33 32  2  0
 34 33  1  0
 34 29  2  0
 35 36  1  0
 36 41  2  0
 36 37  1  0
 37 38  2  0
 38 39  1  0
 39 43  1  0
 40 39  2  0
 41 40  1  0
 42 41  1  0
 44 45  1  0
 45 48  1  0
 45 47  1  0
 46 44  2  0
 49 24  1  0
 49 50  1  0
 51 49  1  0
 52 54  1  0
 52  4  1  0
 53 64  2  0
 54 59  1  0
 55 63  1  0
 55 65  1  0
 56 62  1  0
 56 58  1  0
 57 63  1  0
 58 57  1  0
 59 58  2  0
 60 61  1  0
 60 54  2  0
 61 56  2  0
 62 55  1  0
 63 53  1  0
 65 67  2  0
 66 65  1  0
 68 66  1  0
 69 78  2  0
 69 74  1  0
 70 66  1  0
 70 74  1  0
 71 70  1  0
 72 73  1  0
 72 71  1  0
 73 69  1  0
 74 75  2  0
 75 76  1  0
 77 76  2  0
 78 77  1  0
 79 53  1  0
 79 84  1  0
 79 80  1  0
 80 83  1  1
 80 81  1  0
 82 80  1  0
 84 87  1  0
 85 89  1  0
 85 84  1  0
 86 85  2  0
 89 88  1  0
 91 89  1  0
 91 92  1  0
 91 90  1  0
 94 93  1  0
 95 94  1  0
 95 98  1  0
 96 95  1  0
 97 95  1  0
M  ISO  4   4 101  14 100  22 100  52 101
M  END
>  <TORSDO>  (54) 
F 20

>  <SCORE>  (54) 
-13.822

>  <name>  (54) 
53

>  <ligand_id>  (54) 
53

>  <original_smiles>  (54) 
[H]c1nc(Oc2c([H])c([H])c3c(c2[H])C([H])([H])N(C(=O)C([H])(N([H])C(=O)C([H])(N([H])C([H])([H])[H])C([H])([H])[H])C(C([H])([H])[H])(C([H])([H])[H])C([H])([H])[H])C([H])(C(=O)N([H])C2([H])c4c([H])c([H])c([H])c([H])c4C([H])([H])C([H])([H])C2([H])[H])C3([H])[H])c(C([H])([H])C([H])([H])[N+]([H])([H])[H])nc1C1([H])C([H])(N([H])C(=O)N2C([H])([H])C([H])([H])C([H])([H])C([H])(n3nc(-c4c([H])c([H])c(Oc5c([H])c([H])c(F)c([H])c5F)c([H])c4[H])c(C(=O)N([H])[H])c3N([H])[H])C2([H])[H])C([H])([H])[N+]([H])([H])C1([H])[H]

>  <smiles>  (54) 
[H]c1nc(Oc2c([H])c([H])c3c(c2[H])C([H])([H])N(C(=O)C([H])(N([H])C(=O)C([H])(N([H])C([H])([H])[H])C([H])([H])[H])C(C([H])([H])[H])(C([H])([H])[H])C([H])([H])[H])C([H])(C(=O)N([H])C2([H])c4c([H])c([H])c([H])c([H])c4C([H])([H])C([H])([H])C2([H])[H])C3([H])[H])c(C([H])([H])C([H])([H])[N+]([H])([H])[H])nc1C1([H])C([H])(N([H])C(=O)N2C([H])([H])C([H])([H])C([H])([H])C([H])(n3nc(-c4c([H])c([H])c(Oc5c([H])c([H])c(F)c([H])c5F)c([H])c4[H])c(C(=O)N([H])[H])c3N([H])[H])C2([H])[H])C([H])([H])[N+]([H])([H])C1([H])[H]

$$$$
54:0:0
     RDKit          3D

 88 96  0  0  1  0  0  0  0  0999 V2000
  -29.1300  -20.3720   19.7410 C   0  0  0  0  0  0  0  0  0  0  0  0
  -29.1350  -19.5870   18.4730 C   0  0  0  0  0  0  0  0  0  0  0  0
  -28.9000  -21.7970   19.6560 C   0  0  0  0  0  3  0  0  0  0  0  0
  -29.4450  -19.1630   20.7750 C   0  0  0  0  0  2  0  0  0  0  0  0
  -29.4190  -18.0690   18.6130 C   0  0  0  0  0  2  0  0  0  0  0  0
  -29.9890  -17.7700   20.0170 C   0  0  0  0  0  3  0  0  0  0  0  0
  -28.9230  -20.0580   17.3510 O   0  0  0  0  0  0  0  0  0  0  0  0
  -30.5350  -15.0410   20.2440 C   0  0  0  0  0  0  0  0  0  0  0  0
  -30.4030  -12.6810   19.3130 C   0  0  0  0  0  2  0  0  0  0  0  0
  -29.4520  -12.6360   18.0950 C   0  0  0  0  0  2  0  0  0  0  0  0
  -27.9980  -12.4170   18.5500 C   0  0  0  0  0  2  0  0  0  0  0  0
  -27.6080  -13.3350   19.7390 C   0  0  0  0  0  3  0  0  0  0  0  0
  -28.6830  -13.3540   20.8480 C   0  0  0  0  0  2  0  0  0  0  0  0
  -29.9420  -13.7760   20.2210 N   0  0  0  0  0  0  0  0  0  0  0  0
  -31.7210  -15.1010   19.9000 O   0  0  0  0  0  0  0  0  0  0  0  0
  -29.7720  -16.2390   20.4360 N   0  0  0  0  0  0  0  0  0  0  0  0
  -28.8370  -16.0430   20.7660 H   0  0  0  0  0  0  0  0  0  0  0  0
  -25.2410  -13.8980   20.5260 C   0  0  0  0  0  0  0  0  0  0  0  0
  -24.1860  -13.1180   20.9070 C   0  0  0  0  0  0  0  0  0  0  0  0
  -24.6530  -11.7680   20.8570 C   0  0  0  0  0  0  0  0  0  0  0  0
  -26.2820  -13.0250   20.2580 N   0  0  0  0  0  0  0  0  0  0  0  0
  -25.9390  -11.7380   20.5240 N   0  0  0  0  0  0  0  0  0  0  0  0
  -23.9320  -10.5020   21.0480 C   0  0  0  0  0  0  0  0  0  0  0  0
  -24.3780   -9.5280   21.9690 C   0  0  0  0  0  3  0  0  0  0  0  0
  -23.6540   -8.3300   22.1490 C   0  0  0  0  0  3  0  0  0  0  0  0
  -22.4710   -8.0960   21.4090 C   0  0  0  0  0  0  0  0  0  0  0  0
  -22.0440   -9.0580   20.4770 C   0  0  0  0  0  3  0  0  0  0  0  0
  -22.7680  -10.2480   20.2940 C   0  0  0  0  0  3  0  0  0  0  0  0
  -21.7190   -6.9490   21.5000 O   0  0  0  0  0  0  0  0  0  0  0  0
  -21.6830   -6.2010   22.6480 C   0  0  0  0  0  0  0  0  0  0  0  0
  -21.2540   -6.7440   23.8800 C   0  0  0  0  0  3  0  0  0  0  0  0
  -21.1660   -5.9210   25.0200 C   0  0  0  0  0  3  0  0  0  0  0  0
  -21.4960   -4.5550   24.9310 C   0  0  0  0  0  0  0  0  0  0  0  0
  -21.9180   -4.0120   23.7050 C   0  0  0  0  0  3  0  0  0  0  0  0
  -22.0080   -4.8310   22.5670 C   0  0  0  0  0  0  0  0  0  0  0  0
  -22.3940   -4.2980   21.3840 F   0  0  0  0  0  0  0  0  0  0  0  0
  -21.4050   -3.7630   26.0240 F   0  0  0  0  0  0  0  0  0  0  0  0
  -22.7930  -13.5890   21.2040 C   0  0  0  0  0  0  0  0  0  0  0  0
  -22.0780  -12.8840   22.0740 N   0  0  0  0  0  0  0  0  0  0  0  0
  -22.3460  -14.6190   20.7000 O   0  0  0  0  0  0  0  0  0  0  0  0
  -22.4530  -12.0510   22.5040 H   0  0  0  0  0  0  0  0  0  0  0  0
  -21.1440  -13.1810   22.3150 H   0  0  0  0  0  0  0  0  0  0  0  0
  -25.3980  -15.2720   20.3570 N   0  0  0  0  0  0  0  0  0  0  0  0
  -24.6280  -15.9200   20.4850 H   0  0  0  0  0  0  0  0  0  0  0  0
  -26.2320  -15.7150   19.9950 H   0  0  0  0  0  0  0  0  0  0  0  0
  -28.8410  -23.2170   20.5050 C   0  0  0  0  0  2  0  0  0  0  0  0
  -28.0290  -24.6190   19.9540 C   0  0  0  0  0  2  0  0  0  0  0  0
  -28.2190  -26.1400   20.3200 O   0  0  0  0  0  0  0  0  0  0  0  0
  -24.6140  -31.8970   23.2410 C   0  0  0  0  0  0  0  0  0  0  0  0
  -27.1750  -27.1440   20.2200 C   0  0  0  0  0  0  0  0  0  0  0  0
  -23.4090  -30.4950   21.6120 C   0  0  0  0  0  3  0  0  0  0  0  0
  -24.8520  -28.9130   20.1840 C   0  0  0  0  0  0  0  0  0  0  0  0
  -25.9640  -30.7500   21.4410 C   0  0  0  0  0  2  0  0  0  0  0  0
  -26.0330  -29.3530   20.7930 C   0  0  0  0  0  0  0  0  0  0  0  0
  -27.1930  -28.4840   20.7970 C   0  0  0  0  0  3  0  0  0  0  0  0
  -25.9730  -26.8220   19.5540 C   0  0  0  0  0  3  0  0  0  0  0  0
  -24.8380  -27.6630   19.5460 C   0  0  0  0  0  3  0  0  0  0  0  0
  -23.6260  -29.8120   20.2350 C   0  0  0  0  0  2  0  0  0  0  0  0
  -24.6830  -31.0710   22.1520 N   0  0  0  0  0  0  0  0  0  0  0  0
  -23.5310  -32.1850   23.7710 O   0  0  0  0  0  0  0  0  0  0  0  0
  -22.7320  -29.4940   22.5810 C   0  0  0  0  0  0  0  0  0  0  0  0
  -21.4030  -29.3210   22.4560 N   0  0  0  0  0  0  0  0  0  0  0  0
  -23.4040  -28.8740   23.4090 O   0  0  0  0  0  0  0  0  0  0  0  0
  -20.9160  -29.8730   21.7650 H   0  0  0  0  0  0  0  0  0  0  0  0
  -18.0240  -28.1200   22.9740 C   0  0  0  0  0  0  0  0  0  0  0  0
  -20.5840  -28.3880   23.2340 C   0  0  0  0  0  3  0  0  0  0  0  0
  -20.6850  -26.9510   22.6680 C   0  0  0  0  0  2  0  0  0  0  0  0
  -19.5820  -26.6220   21.6570 C   0  0  0  0  0  2  0  0  0  0  0  0
  -18.2010  -26.7680   22.3030 C   0  0  0  0  0  2  0  0  0  0  0  0
  -19.1420  -28.8870   23.3960 C   0  0  0  0  0  0  0  0  0  0  0  0
  -18.9200  -30.1510   23.9860 C   0  0  0  0  0  3  0  0  0  0  0  0
  -17.6140  -30.6480   24.1540 C   0  0  0  0  0  3  0  0  0  0  0  0
  -16.5110  -29.8780   23.7450 C   0  0  0  0  0  3  0  0  0  0  0  0
  -16.7170  -28.6160   23.1620 C   0  0  0  0  0  3  0  0  0  0  0  0
  -25.8940  -32.5350   23.8630 C   0  0  0  0  0  3  0  0  0  0  0  0
  -25.5830  -33.9340   24.1940 N   0  0  0  0  0  0  0  0  0  0  0  0
  -25.9010  -34.9910   23.4330 C   0  0  0  0  0  0  0  0  0  0  0  0
  -26.5550  -34.8890   22.3920 O   0  0  0  0  0  0  0  0  0  0  0  0
  -25.0000  -34.0860   25.0050 H   0  0  0  0  0  0  0  0  0  0  0  0
  -24.1630  -36.7830   23.1140 C   0  0  0  0  0  1  0  0  0  0  0  0
  -25.4210  -36.3790   23.9010 C   0  0  0  0  0  3  0  0  0  0  0  0
  -27.5650  -37.2740   24.6950 C   0  0  0  0  0  1  0  0  0  0  0  0
  -26.4480  -37.4350   23.7680 N   0  0  0  0  0  0  0  0  0  0  0  0
  -26.0430  -38.3540   23.9170 H   0  0  0  0  0  0  0  0  0  0  0  0
  -26.4090  -31.7700   25.1430 C   0  0  1  0  0  0  0  0  0  0  0  0
  -25.3160  -31.5390   26.2130 C   0  0  0  0  0  1  0  0  0  0  0  0
  -26.9930  -30.3900   24.7650 C   0  0  0  0  0  1  0  0  0  0  0  0
  -27.5600  -32.5680   25.8030 C   0  0  0  0  0  1  0  0  0  0  0  0
  1  4  1  0
  2  5  1  0
  2  1  1  0
  3  1  2  0
  3 46  1  0
  5  6  1  0
  6 16  1  0
  6  4  1  0
  7  2  2  0
  8 16  1  0
  9 14  1  0
 10 11  1  0
 10  9  1  0
 12 11  1  0
 12 21  1  0
 12 13  1  0
 14  8  1  0
 14 13  1  0
 15  8  2  0
 16 17  1  0
 18 19  2  0
 19 38  1  0
 20 19  1  0
 20 23  1  0
 21 22  1  0
 21 18  1  0
 22 20  2  0
 23 24  1  0
 24 25  2  0
 26 29  1  0
 26 25  1  0
 27 26  2  0
 28 27  1  0
 28 23  2  0
 29 30  1  0
 30 31  1  0
 31 32  2  0
 33 32  1  0
 33 37  1  0
 34 33  2  0
 35 30  2  0
 35 34  1  0
 36 35  1  0
 38 39  1  0
 39 42  1  0
 39 41  1  0
 40 38  2  0
 43 44  1  0
 43 18  1  0
 45 43  1  0
 47 48  1  0
 47 46  1  0
 49 60  2  0
 50 48  1  0
 50 55  1  0
 51 59  1  0
 51 61  1  0
 52 58  1  0
 52 54  1  0
 53 59  1  0
 54 55  2  0
 54 53  1  0
 56 50  2  0
 57 56  1  0
 57 52  2  0
 58 51  1  0
 59 49  1  0
 61 63  2  0
 62 61  1  0
 64 62  1  0
 65 74  2  0
 65 70  1  0
 66 62  1  0
 66 70  1  0
 67 66  1  0
 68 69  1  0
 68 67  1  0
 69 65  1  0
 70 71  2  0
 71 72  1  0
 73 72  2  0
 74 73  1  0
 75 49  1  0
 75 76  1  0
 75 85  1  0
 76 79  1  0
 77 81  1  0
 77 76  1  0
 78 77  2  0
 81 80  1  0
 83 81  1  0
 83 84  1  0
 83 82  1  0
 85 88  1  1
 85 86  1  0
 87 85  1  0
M  ISO  4   8 100  16 100  47 101  48 101
M  END
>  <TORSDO>  (55) 
F 18

>  <SCORE>  (55) 
-15.373

>  <name>  (55) 
54

>  <ligand_id>  (55) 
54

>  <original_smiles>  (55) 
[H]C(=C1C(=O)C([H])([H])C([H])(N([H])C(=O)N2C([H])([H])C([H])([H])C([H])([H])C([H])(n3nc(-c4c([H])c([H])c(Oc5c([H])c([H])c(F)c([H])c5F)c([H])c4[H])c(C(=O)N([H])[H])c3N([H])[H])C2([H])[H])C1([H])[H])C([H])([H])C([H])([H])Oc1c([H])c([H])c2c(c1[H])C([H])([H])N(C(=O)C([H])(N([H])C(=O)C([H])(N([H])C([H])([H])[H])C([H])([H])[H])C(C([H])([H])[H])(C([H])([H])[H])C([H])([H])[H])C([H])(C(=O)N([H])C1([H])c3c([H])c([H])c([H])c([H])c3C([H])([H])C([H])([H])C1([H])[H])C2([H])[H]

>  <smiles>  (55) 
[H]C(=C1C(=O)C([H])([H])C([H])(N([H])C(=O)N2C([H])([H])C([H])([H])C([H])([H])C([H])(n3nc(-c4c([H])c([H])c(Oc5c([H])c([H])c(F)c([H])c5F)c([H])c4[H])c(C(=O)N([H])[H])c3N([H])[H])C2([H])[H])C1([H])[H])C([H])([H])C([H])([H])Oc1c([H])c([H])c2c(c1[H])C([H])([H])N(C(=O)C([H])(N([H])C(=O)C([H])(N([H])C([H])([H])[H])C([H])([H])[H])C(C([H])([H])[H])(C([H])([H])[H])C([H])([H])[H])C([H])(C(=O)N([H])C1([H])c3c([H])c([H])c([H])c([H])c3C([H])([H])C([H])([H])C1([H])[H])C2([H])[H]

$$$$
55:0:0
     RDKit          3D

 94103  0  0  1  0  0  0  0  0999 V2000
  -29.9190  -22.2480   21.8250 C   0  0  0  0  0  3  0  0  0  0  0  0
  -29.9030  -21.5450   20.6050 C   0  0  0  0  0  0  0  0  0  0  0  0
  -29.3320  -22.2750   19.5330 C   0  0  0  0  0  0  0  0  0  0  0  0
  -28.9010  -24.1100   20.8920 C   0  0  0  0  0  0  0  0  0  0  0  0
  -29.2740  -21.7150   18.1250 C   0  0  0  0  0  1  0  0  0  0  0  0
  -29.4250  -23.5010   21.9590 N   0  0  0  0  0  0  0  0  0  0  0  0
  -28.8290  -23.5290   19.6890 N   0  0  0  0  0  0  0  0  0  0  0  0
  -30.7090  -20.2110   20.4510 C   0  0  0  0  0  2  0  0  0  0  0  0
  -30.7590  -14.7010   20.2480 C   0  0  0  0  0  0  0  0  0  0  0  0
  -30.4640  -12.5040   19.1600 C   0  0  0  0  0  2  0  0  0  0  0  0
  -29.4820  -12.6780   17.9830 C   0  0  0  0  0  2  0  0  0  0  0  0
  -28.0270  -12.5130   18.4640 C   0  0  0  0  0  2  0  0  0  0  0  0
  -27.7120  -13.3350   19.7430 C   0  0  0  0  0  3  0  0  0  0  0  0
  -28.8160  -13.1770   20.8110 C   0  0  0  0  0  2  0  0  0  0  0  0
  -30.0990  -13.5070   20.1740 N   0  0  0  0  0  0  0  0  0  0  0  0
  -31.9400  -14.8020   19.9030 O   0  0  0  0  0  0  0  0  0  0  0  0
  -29.5040  -16.5580   21.3790 C   0  0  0  0  0  2  0  0  0  0  0  0
  -30.0860  -18.0070   21.5470 C   0  0  0  0  0  2  0  0  0  0  0  0
  -30.6120  -18.0840   19.1830 C   0  0  0  0  0  2  0  0  0  0  0  0
  -29.9840  -16.6780   18.9660 C   0  0  0  0  0  3  0  0  0  0  0  0
  -28.5910  -16.7630   18.3110 C   0  0  0  0  0  1  0  0  0  0  0  0
  -29.9680  -15.8210   20.1810 N   0  0  0  0  0  0  0  0  0  0  0  0
  -30.0300  -18.8580   20.3170 N   0  0  2  0  0  4  0  0  0  0  0  0
  -29.0570  -19.0120   20.0970 H   0  0  0  0  0  0  0  0  0  0  0  0
  -25.3440  -13.9060   20.5570 C   0  0  0  0  0  0  0  0  0  0  0  0
  -24.2930  -13.1190   20.9400 C   0  0  0  0  0  0  0  0  0  0  0  0
  -24.7590  -11.7710   20.8570 C   0  0  0  0  0  0  0  0  0  0  0  0
  -26.3840  -13.0370   20.2680 N   0  0  0  0  0  0  0  0  0  0  0  0
  -26.0390  -11.7470   20.5080 N   0  0  0  0  0  0  0  0  0  0  0  0
  -24.0470  -10.5000   21.0360 C   0  0  0  0  0  0  0  0  0  0  0  0
  -24.4910   -9.5280   21.9600 C   0  0  0  0  0  3  0  0  0  0  0  0
  -23.7780   -8.3220   22.1280 C   0  0  0  0  0  3  0  0  0  0  0  0
  -22.6080   -8.0790   21.3710 C   0  0  0  0  0  0  0  0  0  0  0  0
  -22.1830   -9.0390   20.4350 C   0  0  0  0  0  3  0  0  0  0  0  0
  -22.8970  -10.2370   20.2650 C   0  0  0  0  0  3  0  0  0  0  0  0
  -21.8660   -6.9250   21.4480 O   0  0  0  0  0  0  0  0  0  0  0  0
  -21.7860   -6.1970   22.6080 C   0  0  0  0  0  0  0  0  0  0  0  0
  -21.2750   -6.7520   23.8010 C   0  0  0  0  0  3  0  0  0  0  0  0
  -21.1460   -5.9500   24.9530 C   0  0  0  0  0  3  0  0  0  0  0  0
  -21.5170   -4.5920   24.9100 C   0  0  0  0  0  0  0  0  0  0  0  0
  -22.0210   -4.0370   23.7210 C   0  0  0  0  0  3  0  0  0  0  0  0
  -22.1530   -4.8360   22.5720 C   0  0  0  0  0  0  0  0  0  0  0  0
  -22.6190   -4.2910   21.4230 F   0  0  0  0  0  0  0  0  0  0  0  0
  -21.3860   -3.8190   26.0130 F   0  0  0  0  0  0  0  0  0  0  0  0
  -22.9030  -13.5820   21.2680 C   0  0  0  0  0  0  0  0  0  0  0  0
  -22.2060  -12.8580   22.1370 N   0  0  0  0  0  0  0  0  0  0  0  0
  -22.4450  -14.6200   20.7920 O   0  0  0  0  0  0  0  0  0  0  0  0
  -22.5880  -12.0190   22.5450 H   0  0  0  0  0  0  0  0  0  0  0  0
  -21.2740  -13.1510   22.3990 H   0  0  0  0  0  0  0  0  0  0  0  0
  -25.4970  -15.2820   20.4100 N   0  0  0  0  0  0  0  0  0  0  0  0
  -24.7300  -15.9300   20.5520 H   0  0  0  0  0  0  0  0  0  0  0  0
  -26.3320  -15.7270   20.0530 H   0  0  0  0  0  0  0  0  0  0  0  0
  -28.1540  -25.4550   21.1490 C   0  0  0  0  0  2  0  0  0  0  0  0
  -28.4140  -26.6280   20.3110 O   0  0  0  0  0  0  0  0  0  0  0  0
  -24.6160  -31.9550   23.2530 C   0  0  0  0  0  0  0  0  0  0  0  0
  -27.3130  -27.4710   20.2360 C   0  0  0  0  0  0  0  0  0  0  0  0
  -23.4400  -30.5350   21.6080 C   0  0  0  0  0  3  0  0  0  0  0  0
  -24.9230  -29.0050   20.1960 C   0  0  0  0  0  0  0  0  0  0  0  0
  -25.9700  -30.9020   21.4370 C   0  0  0  0  0  2  0  0  0  0  0  0
  -26.0760  -29.5270   20.7990 C   0  0  0  0  0  0  0  0  0  0  0  0
  -27.2790  -28.7700   20.8130 C   0  0  0  0  0  3  0  0  0  0  0  0
  -26.1490  -26.9910   19.6000 C   0  0  0  0  0  3  0  0  0  0  0  0
  -24.9580  -27.7390   19.5880 C   0  0  0  0  0  3  0  0  0  0  0  0
  -23.6700  -29.8550   20.2320 C   0  0  0  0  0  2  0  0  0  0  0  0
  -24.6930  -31.1470   22.1570 N   0  0  0  0  0  0  0  0  0  0  0  0
  -23.5270  -32.2210   23.7800 O   0  0  0  0  0  0  0  0  0  0  0  0
  -22.7850  -29.5130   22.5670 C   0  0  0  0  0  0  0  0  0  0  0  0
  -21.4640  -29.3150   22.4260 N   0  0  0  0  0  0  0  0  0  0  0  0
  -23.4650  -28.9010   23.3950 O   0  0  0  0  0  0  0  0  0  0  0  0
  -20.9750  -29.8630   21.7310 H   0  0  0  0  0  0  0  0  0  0  0  0
  -18.0940  -28.0970   22.9070 C   0  0  0  0  0  0  0  0  0  0  0  0
  -20.6480  -28.3740   23.1930 C   0  0  0  0  0  3  0  0  0  0  0  0
  -20.7640  -26.9420   22.6200 C   0  0  0  0  0  2  0  0  0  0  0  0
  -19.6700  -26.6100   21.6000 C   0  0  0  0  0  2  0  0  0  0  0  0
  -18.2840  -26.7480   22.2350 C   0  0  0  0  0  2  0  0  0  0  0  0
  -19.2040  -28.8670   23.3430 C   0  0  0  0  0  0  0  0  0  0  0  0
  -18.9740  -30.1300   23.9310 C   0  0  0  0  0  3  0  0  0  0  0  0
  -17.6650  -30.6220   24.0880 C   0  0  0  0  0  3  0  0  0  0  0  0
  -16.5680  -29.8490   23.6690 C   0  0  0  0  0  3  0  0  0  0  0  0
  -16.7830  -28.5880   23.0850 C   0  0  0  0  0  3  0  0  0  0  0  0
  -25.8890  -32.6020   23.8810 C   0  0  0  0  0  3  0  0  0  0  0  0
  -25.5680  -34.0020   24.1930 N   0  0  0  0  0  0  0  0  0  0  0  0
  -25.9060  -35.0480   23.4280 C   0  0  0  0  0  0  0  0  0  0  0  0
  -26.5910  -34.9370   22.4070 O   0  0  0  0  0  0  0  0  0  0  0  0
  -24.9620  -34.1620   24.9840 H   0  0  0  0  0  0  0  0  0  0  0  0
  -24.1810  -36.8320   23.0180 C   0  0  0  0  0  1  0  0  0  0  0  0
  -25.4030  -36.4380   23.8630 C   0  0  0  0  0  3  0  0  0  0  0  0
  -27.5140  -37.3370   24.7390 C   0  0  0  0  0  1  0  0  0  0  0  0
  -26.4350  -37.4940   23.7660 N   0  0  0  0  0  0  0  0  0  0  0  0
  -26.0230  -38.4130   23.8970 H   0  0  0  0  0  0  0  0  0  0  0  0
  -26.3980  -31.8470   25.1700 C   0  0  1  0  0  0  0  0  0  0  0  0
  -25.2930  -31.6020   26.2240 C   0  0  0  0  0  1  0  0  0  0  0  0
  -27.0050  -30.4750   24.7970 C   0  0  0  0  0  1  0  0  0  0  0  0
  -27.5290  -32.6620   25.8430 C   0  0  0  0  0  1  0  0  0  0  0  0
  1  6  1  0
  2  1  2  0
  3  7  2  0
  3  2  1  0
  4 53  1  0
  4  6  2  0
  5  3  1  0
  7  4  1  0
  8  2  1  0
 10 15  1  0
 11 12  1  0
 11 10  1  0
 13 12  1  0
 13 28  1  0
 13 14  1  0
 15  9  1  0
 15 14  1  0
 16  9  2  0
 17 18  1  0
 19 23  1  0
 20 21  1  0
 20 19  1  0
 20 22  1  0
 22  9  1  0
 22 17  1  0
 23  8  1  0
 23 18  1  0
 23 24  1  6
 25 26  2  0
 26 45  1  0
 27 26  1  0
 27 30  1  0
 28 29  1  0
 28 25  1  0
 29 27  2  0
 30 31  1  0
 31 32  2  0
 33 36  1  0
 33 32  1  0
 34 33  2  0
 35 34  1  0
 35 30  2  0
 36 37  1  0
 37 38  1  0
 38 39  2  0
 40 39  1  0
 40 44  1  0
 41 40  2  0
 42 37  2  0
 42 41  1  0
 43 42  1  0
 45 46  1  0
 46 49  1  0
 46 48  1  0
 47 45  2  0
 50 51  1  0
 50 25  1  0
 52 50  1  0
 54 53  1  0
 55 66  2  0
 56 54  1  0
 56 61  1  0
 57 65  1  0
 57 67  1  0
 58 64  1  0
 58 60  1  0
 59 65  1  0
 60 61  2  0
 60 59  1  0
 62 56  2  0
 63 62  1  0
 63 58  2  0
 64 57  1  0
 65 55  1  0
 67 69  2  0
 68 67  1  0
 70 68  1  0
 71 80  2  0
 71 76  1  0
 72 68  1  0
 72 76  1  0
 73 72  1  0
 74 75  1  0
 74 73  1  0
 75 71  1  0
 76 77  2  0
 77 78  1  0
 79 78  2  0
 80 79  1  0
 81 55  1  0
 81 82  1  0
 81 91  1  0
 82 85  1  0
 83 87  1  0
 83 82  1  0
 84 83  2  0
 87 86  1  0
 89 87  1  0
 89 90  1  0
 89 88  1  0
 91 94  1  1
 91 92  1  0
 93 91  1  0
M  ISO  4   9 100  22 100  53 101  54 101
M  END
>  <TORSDO>  (56) 
F 18

>  <SCORE>  (56) 
-14.414

>  <name>  (56) 
55

>  <ligand_id>  (56) 
55

>  <original_smiles>  (56) 
[H]c1nc(C([H])([H])Oc2c([H])c([H])c3c(c2[H])C([H])([H])N(C(=O)C([H])(N([H])C(=O)C([H])(N([H])C([H])([H])[H])C([H])([H])[H])C(C([H])([H])[H])(C([H])([H])[H])C([H])([H])[H])C([H])(C(=O)N([H])C2([H])c4c([H])c([H])c([H])c([H])c4C([H])([H])C([H])([H])C2([H])[H])C3([H])[H])nc(C([H])([H])[H])c1C([H])([H])[N+]1([H])C([H])([H])C([H])([H])N(C(=O)N2C([H])([H])C([H])([H])C([H])([H])C([H])(n3nc(-c4c([H])c([H])c(Oc5c([H])c([H])c(F)c([H])c5F)c([H])c4[H])c(C(=O)N([H])[H])c3N([H])[H])C2([H])[H])C([H])(C([H])([H])[H])C1([H])[H]

>  <smiles>  (56) 
[H]c1nc(C([H])([H])Oc2c([H])c([H])c3c(c2[H])C([H])([H])N(C(=O)C([H])(N([H])C(=O)C([H])(N([H])C([H])([H])[H])C([H])([H])[H])C(C([H])([H])[H])(C([H])([H])[H])C([H])([H])[H])C([H])(C(=O)N([H])C2([H])c4c([H])c([H])c([H])c([H])c4C([H])([H])C([H])([H])C2([H])[H])C3([H])[H])nc(C([H])([H])[H])c1C([H])([H])[N+]1([H])C([H])([H])C([H])([H])N(C(=O)N2C([H])([H])C([H])([H])C([H])([H])C([H])(n3nc(-c4c([H])c([H])c(Oc5c([H])c([H])c(F)c([H])c5F)c([H])c4[H])c(C(=O)N([H])[H])c3N([H])[H])C2([H])[H])C([H])(C([H])([H])[H])C1([H])[H]

$$$$
56:0:0
     RDKit          3D

 91100  0  0  1  0  0  0  0  0999 V2000
  -28.6410  -21.5210   21.4880 C   0  0  0  0  0  3  0  0  0  0  0  0
  -29.1950  -20.8990   20.3120 C   0  0  0  0  0  0  0  0  0  0  0  0
  -29.3190  -22.1140   19.5660 C   0  0  0  0  0  0  0  0  0  0  0  0
  -28.3640  -22.8540   21.4100 N   0  0  0  0  0  0  0  0  0  0  0  0
  -28.7620  -23.3160   20.1940 N   0  0  0  0  0  0  0  0  0  0  0  0
  -29.7700  -21.2270   17.1120 C   0  0  0  0  0  2  0  0  0  0  0  0
  -29.1210  -22.5870   16.9850 C   0  0  0  0  0  2  0  0  0  0  0  0
  -29.9410  -22.2590   18.2040 C   0  0  0  0  0  3  0  0  0  0  0  0
  -29.4660  -19.2720   19.9130 C   0  0  0  0  0  2  0  0  0  0  0  0
  -31.0230  -18.1810   21.8140 C   0  0  0  0  0  1  0  0  0  0  0  0
  -29.8390  -17.9020   20.8720 C   0  0  0  0  0  0  0  0  0  0  0  0
  -30.5640  -15.1470   20.3360 C   0  0  0  0  0  0  0  0  0  0  0  0
  -30.4850  -12.7720   19.3760 C   0  0  0  0  0  2  0  0  0  0  0  0
  -29.5500  -12.6760   18.1470 C   0  0  0  0  0  2  0  0  0  0  0  0
  -28.0830  -12.4560   18.5700 C   0  0  0  0  0  2  0  0  0  0  0  0
  -27.6660  -13.3710   19.7530 C   0  0  0  0  0  3  0  0  0  0  0  0
  -28.7280  -13.4170   20.8720 C   0  0  0  0  0  2  0  0  0  0  0  0
  -29.9770  -13.8760   20.2450 N   0  0  0  0  0  0  0  0  0  0  0  0
  -31.7860  -15.1940   20.1430 O   0  0  0  0  0  0  0  0  0  0  0  0
  -29.7550  -16.3410   20.4420 N   0  0  0  0  0  4  0  0  0  0  0  0
  -28.7840  -16.0840   20.3370 H   0  0  0  0  0  0  0  0  0  0  0  0
  -25.2840  -13.9390   20.4920 C   0  0  0  0  0  0  0  0  0  0  0  0
  -24.2210  -13.1630   20.8660 C   0  0  0  0  0  0  0  0  0  0  0  0
  -24.6850  -11.8120   20.8320 C   0  0  0  0  0  0  0  0  0  0  0  0
  -26.3290  -13.0590   20.2530 N   0  0  0  0  0  0  0  0  0  0  0  0
  -25.9790  -11.7760   20.5200 N   0  0  0  0  0  0  0  0  0  0  0  0
  -23.9530  -10.5520   21.0150 C   0  0  0  0  0  0  0  0  0  0  0  0
  -24.3740   -9.5850   21.9520 C   0  0  0  0  0  3  0  0  0  0  0  0
  -23.6410   -8.3890   22.1270 C   0  0  0  0  0  3  0  0  0  0  0  0
  -22.4720   -8.1550   21.3620 C   0  0  0  0  0  0  0  0  0  0  0  0
  -22.0700   -9.1140   20.4160 C   0  0  0  0  0  3  0  0  0  0  0  0
  -22.8040  -10.2980   20.2410 C   0  0  0  0  0  3  0  0  0  0  0  0
  -21.7160   -7.0090   21.4420 O   0  0  0  0  0  0  0  0  0  0  0  0
  -21.6490   -6.2700   22.5960 C   0  0  0  0  0  0  0  0  0  0  0  0
  -21.1950   -6.8280   23.8120 C   0  0  0  0  0  3  0  0  0  0  0  0
  -21.0750   -6.0150   24.9580 C   0  0  0  0  0  3  0  0  0  0  0  0
  -21.4010   -4.6480   24.8890 C   0  0  0  0  0  0  0  0  0  0  0  0
  -21.8470   -4.0890   23.6790 C   0  0  0  0  0  3  0  0  0  0  0  0
  -21.9700   -4.8990   22.5360 C   0  0  0  0  0  0  0  0  0  0  0  0
  -22.3790   -4.3500   21.3660 F   0  0  0  0  0  0  0  0  0  0  0  0
  -21.2800   -3.8670   25.9880 F   0  0  0  0  0  0  0  0  0  0  0  0
  -22.8250  -13.6460   21.1330 C   0  0  0  0  0  0  0  0  0  0  0  0
  -22.0850  -12.9530   21.9920 N   0  0  0  0  0  0  0  0  0  0  0  0
  -22.3930  -14.6720   20.6100 O   0  0  0  0  0  0  0  0  0  0  0  0
  -22.4360  -12.1160   22.4330 H   0  0  0  0  0  0  0  0  0  0  0  0
  -21.1540  -13.2700   22.2150 H   0  0  0  0  0  0  0  0  0  0  0  0
  -25.4470  -15.3090   20.3050 N   0  0  0  0  0  0  0  0  0  0  0  0
  -24.6730  -15.9590   20.3910 H   0  0  0  0  0  0  0  0  0  0  0  0
  -26.2690  -15.7340   19.8970 H   0  0  0  0  0  0  0  0  0  0  0  0
  -28.3190  -24.7470   19.5990 C   0  0  0  0  0  2  0  0  0  0  0  0
  -28.3460  -26.1140   20.3390 O   0  0  0  0  0  0  0  0  0  0  0  0
  -24.6470  -31.9060   23.2110 C   0  0  0  0  0  0  0  0  0  0  0  0
  -27.2980  -27.1310   20.2140 C   0  0  0  0  0  0  0  0  0  0  0  0
  -23.4880  -30.5000   21.5560 C   0  0  0  0  0  3  0  0  0  0  0  0
  -24.9670  -28.9190   20.1630 C   0  0  0  0  0  0  0  0  0  0  0  0
  -26.0520  -30.7490   21.4450 C   0  0  0  0  0  2  0  0  0  0  0  0
  -26.1400  -29.3500   20.7970 C   0  0  0  0  0  0  0  0  0  0  0  0
  -27.2970  -28.4710   20.8110 C   0  0  0  0  0  3  0  0  0  0  0  0
  -26.0920  -26.8350   19.5300 C   0  0  0  0  0  3  0  0  0  0  0  0
  -24.9610  -27.6790   19.5180 C   0  0  0  0  0  3  0  0  0  0  0  0
  -23.7400  -29.8230   20.1840 C   0  0  0  0  0  2  0  0  0  0  0  0
  -24.7500  -31.0740   22.1260 N   0  0  0  0  0  0  0  0  0  0  0  0
  -23.5480  -32.1920   23.7110 O   0  0  0  0  0  0  0  0  0  0  0  0
  -22.7860  -29.5000   22.5090 C   0  0  0  0  0  0  0  0  0  0  0  0
  -21.4570  -29.3470   22.3710 N   0  0  0  0  0  0  0  0  0  0  0  0
  -23.4450  -28.8620   23.3360 O   0  0  0  0  0  0  0  0  0  0  0  0
  -20.9900  -29.9080   21.6720 H   0  0  0  0  0  0  0  0  0  0  0  0
  -18.0460  -28.2210   22.8830 C   0  0  0  0  0  0  0  0  0  0  0  0
  -20.6140  -28.4180   23.1320 C   0  0  0  0  0  3  0  0  0  0  0  0
  -20.6770  -26.9950   22.5300 C   0  0  0  0  0  2  0  0  0  0  0  0
  -19.5600  -26.7160   21.5200 C   0  0  0  0  0  2  0  0  0  0  0  0
  -18.1870  -26.8820   22.1770 C   0  0  0  0  0  2  0  0  0  0  0  0
  -19.1870  -28.9500   23.3130 C   0  0  0  0  0  0  0  0  0  0  0  0
  -19.0010  -30.2030   23.9390 C   0  0  0  0  0  3  0  0  0  0  0  0
  -17.7100  -30.7270   24.1330 C   0  0  0  0  0  3  0  0  0  0  0  0
  -16.5850  -29.9970   23.7130 C   0  0  0  0  0  3  0  0  0  0  0  0
  -16.7540  -28.7450   23.0950 C   0  0  0  0  0  3  0  0  0  0  0  0
  -25.9070  -32.5510   23.8660 C   0  0  0  0  0  3  0  0  0  0  0  0
  -26.3890  -31.7850   25.1600 C   0  0  1  0  0  0  0  0  0  0  0  0
  -25.2730  -31.5410   26.2010 C   0  0  0  0  0  1  0  0  0  0  0  0
  -26.9870  -30.4090   24.7910 C   0  0  0  0  0  1  0  0  0  0  0  0
  -27.5180  -32.5880   25.8470 C   0  0  0  0  0  1  0  0  0  0  0  0
  -25.5770  -33.9470   24.1940 N   0  0  0  0  0  0  0  0  0  0  0  0
  -25.9020  -35.0070   23.4420 C   0  0  0  0  0  0  0  0  0  0  0  0
  -26.5790  -34.9130   22.4150 O   0  0  0  0  0  0  0  0  0  0  0  0
  -24.9800  -34.0950   24.9950 H   0  0  0  0  0  0  0  0  0  0  0  0
  -24.1590  -36.7920   23.0860 C   0  0  0  0  0  1  0  0  0  0  0  0
  -25.4010  -36.3940   23.9010 C   0  0  0  0  0  3  0  0  0  0  0  0
  -27.5240  -37.2980   24.7460 C   0  0  0  0  0  1  0  0  0  0  0  0
  -26.4260  -37.4560   23.7940 N   0  0  0  0  0  0  0  0  0  0  0  0
  -26.0110  -38.3710   23.9370 H   0  0  0  0  0  0  0  0  0  0  0  0
  2  1  1  0
  3  5  1  0
  3  2  2  0
  4  1  2  0
  5  4  1  0
  6  8  1  0
  7  6  1  0
  7  8  1  0
  8  3  1  0
  9  2  1  0
  9 11  1  0
 11 10  1  0
 12 20  1  0
 13 18  1  0
 14 15  1  0
 14 13  1  0
 16 15  1  0
 16 25  1  0
 16 17  1  0
 18 12  1  0
 18 17  1  0
 19 12  2  0
 20 11  2  0
 21 20  1  0
 22 23  2  0
 23 42  1  0
 24 23  1  0
 24 27  1  0
 25 22  1  0
 25 26  1  0
 26 24  2  0
 27 28  1  0
 28 29  2  0
 30 33  1  0
 30 29  1  0
 31 30  2  0
 32 31  1  0
 32 27  2  0
 33 34  1  0
 34 35  1  0
 35 36  2  0
 37 36  1  0
 37 41  1  0
 38 37  2  0
 39 34  2  0
 39 38  1  0
 40 39  1  0
 42 43  1  0
 43 46  1  0
 43 45  1  0
 44 42  2  0
 47 48  1  0
 47 22  1  0
 49 47  1  0
 50  5  1  0
 50 51  1  0
 52 63  2  0
 53 51  1  0
 53 58  1  0
 54 62  1  0
 54 64  1  0
 55 61  1  0
 55 57  1  0
 56 62  1  0
 57 58  2  0
 57 56  1  0
 59 53  2  0
 60 59  1  0
 60 55  2  0
 61 54  1  0
 62 52  1  0
 64 66  2  0
 65 64  1  0
 67 65  1  0
 68 77  2  0
 68 73  1  0
 69 65  1  0
 69 73  1  0
 70 69  1  0
 71 72  1  0
 71 70  1  0
 72 68  1  0
 73 74  2  0
 74 75  1  0
 76 75  2  0
 77 76  1  0
 78 52  1  0
 78 83  1  0
 78 79  1  0
 79 82  1  1
 79 80  1  0
 81 79  1  0
 83 86  1  0
 84 88  1  0
 84 83  1  0
 85 84  2  0
 88 87  1  0
 90 88  1  0
 90 91  1  0
 90 89  1  0
M  ISO  4  12 100  20 100  50 101  51 101
M  END
>  <TORSDO>  (57) 
F 20

>  <SCORE>  (57) 
-14.771

>  <name>  (57) 
56

>  <ligand_id>  (57) 
56

>  <original_smiles>  (57) 
[H]c1nn(C([H])([H])Oc2c([H])c([H])c3c(c2[H])C([H])([H])N(C(=O)C([H])(N([H])C(=O)C([H])(N([H])C([H])([H])[H])C([H])([H])[H])C(C([H])([H])[H])(C([H])([H])[H])C([H])([H])[H])C([H])(C(=O)N([H])C2([H])c4c([H])c([H])c([H])c([H])c4C([H])([H])C([H])([H])C2([H])[H])C3([H])[H])c(C2([H])C([H])([H])C2([H])[H])c1C([H])([H])C([H])(N([H])C(=O)N1C([H])([H])C([H])([H])C([H])([H])C([H])(n2nc(-c3c([H])c([H])c(Oc4c([H])c([H])c(F)c([H])c4F)c([H])c3[H])c(C(=O)N([H])[H])c2N([H])[H])C1([H])[H])C([H])([H])[H]

>  <smiles>  (57) 
[H]c1nn(C([H])([H])Oc2c([H])c([H])c3c(c2[H])C([H])([H])N(C(=O)C([H])(N([H])C(=O)C([H])(N([H])C([H])([H])[H])C([H])([H])[H])C(C([H])([H])[H])(C([H])([H])[H])C([H])([H])[H])C([H])(C(=O)N([H])C2([H])c4c([H])c([H])c([H])c([H])c4C([H])([H])C([H])([H])C2([H])[H])C3([H])[H])c(C2([H])C([H])([H])C2([H])[H])c1C([H])([H])C([H])(N([H])C(=O)N1C([H])([H])C([H])([H])C([H])([H])C([H])(n2nc(-c3c([H])c([H])c(Oc4c([H])c([H])c(F)c([H])c4F)c([H])c3[H])c(C(=O)N([H])[H])c2N([H])[H])C1([H])[H])C([H])([H])[H]

$$$$
57:0:0
     RDKit          3D

 90 99  0  0  1  0  0  0  0  0999 V2000
  -29.1690  -20.5870   20.7190 N   0  0  0  0  0  4  0  0  0  0  0  0
  -29.6900  -20.6370   21.5830 H   0  0  0  0  0  0  0  0  0  0  0  0
  -28.2170  -20.4610   21.0220 H   0  0  0  0  0  0  0  0  0  0  0  0
  -30.4650  -15.8650   20.3030 C   0  0  0  0  0  0  0  0  0  0  0  0
  -30.5640  -13.3290   19.4450 C   0  0  0  0  0  2  0  0  0  0  0  0
  -29.6820  -12.9440   18.2210 C   0  0  0  0  0  2  0  0  0  0  0  0
  -28.2560  -12.5770   18.6560 C   0  0  0  0  0  2  0  0  0  0  0  0
  -27.7320  -13.5580   19.7260 C   0  0  0  0  0  3  0  0  0  0  0  0
  -28.7560  -13.8590   20.8500 C   0  0  0  0  0  2  0  0  0  0  0  0
  -29.9360  -14.4960   20.2150 N   0  0  0  0  0  0  0  0  0  0  0  0
  -31.7010  -15.7970   20.1620 O   0  0  0  0  0  0  0  0  0  0  0  0
  -28.4450  -17.0960   19.6050 C   0  0  0  0  0  2  0  0  0  0  0  0
  -28.2880  -18.6020   19.3930 C   0  0  0  0  0  3  0  0  0  0  0  0
  -29.6120  -19.0010   20.0510 C   0  0  0  0  0  3  0  0  0  0  0  0
  -29.6880  -17.2290   20.3480 N   0  0  0  0  0  0  0  0  0  0  0  0
  -25.3410  -14.0590   20.4390 C   0  0  0  0  0  0  0  0  0  0  0  0
  -24.2920  -13.2690   20.8040 C   0  0  0  0  0  0  0  0  0  0  0  0
  -24.7870  -11.9300   20.7950 C   0  0  0  0  0  0  0  0  0  0  0  0
  -26.4100  -13.2070   20.2290 N   0  0  0  0  0  0  0  0  0  0  0  0
  -26.0870  -11.9180   20.5090 N   0  0  0  0  0  0  0  0  0  0  0  0
  -24.0750  -10.6590   20.9800 C   0  0  0  0  0  0  0  0  0  0  0  0
  -24.4940   -9.7120   21.9390 C   0  0  0  0  0  3  0  0  0  0  0  0
  -23.7770   -8.5090   22.1160 C   0  0  0  0  0  3  0  0  0  0  0  0
  -22.6260   -8.2490   21.3350 C   0  0  0  0  0  0  0  0  0  0  0  0
  -22.2260   -9.1850   20.3660 C   0  0  0  0  0  3  0  0  0  0  0  0
  -22.9440  -10.3800   20.1880 C   0  0  0  0  0  3  0  0  0  0  0  0
  -21.8810   -7.0980   21.4210 O   0  0  0  0  0  0  0  0  0  0  0  0
  -21.8080   -6.3730   22.5830 C   0  0  0  0  0  0  0  0  0  0  0  0
  -21.3140   -6.9340   23.7820 C   0  0  0  0  0  3  0  0  0  0  0  0
  -21.1940   -6.1350   24.9350 C   0  0  0  0  0  3  0  0  0  0  0  0
  -21.5550   -4.7730   24.8900 C   0  0  0  0  0  0  0  0  0  0  0  0
  -22.0390   -4.2130   23.6960 C   0  0  0  0  0  3  0  0  0  0  0  0
  -22.1630   -5.0100   22.5450 C   0  0  0  0  0  0  0  0  0  0  0  0
  -22.6110   -4.4600   21.3910 F   0  0  0  0  0  0  0  0  0  0  0  0
  -21.4310   -4.0030   25.9950 F   0  0  0  0  0  0  0  0  0  0  0  0
  -22.8830  -13.7280   21.0340 C   0  0  0  0  0  0  0  0  0  0  0  0
  -22.1530  -13.0440   21.9040 N   0  0  0  0  0  0  0  0  0  0  0  0
  -22.4430  -14.7360   20.4800 O   0  0  0  0  0  0  0  0  0  0  0  0
  -22.5280  -12.2310   22.3720 H   0  0  0  0  0  0  0  0  0  0  0  0
  -21.2070  -13.3340   22.1050 H   0  0  0  0  0  0  0  0  0  0  0  0
  -25.4520  -15.4270   20.2320 N   0  0  0  0  0  0  0  0  0  0  0  0
  -24.6280  -16.0160   20.2450 H   0  0  0  0  0  0  0  0  0  0  0  0
  -26.2280  -15.8450   19.7400 H   0  0  0  0  0  0  0  0  0  0  0  0
  -26.4400  -19.1590   17.6260 C   0  0  0  0  0  2  0  0  0  0  0  0
  -27.2370  -20.4330   17.7900 C   0  0  0  0  0  2  0  0  0  0  0  0
  -27.9020  -19.0930   18.0110 C   0  0  0  0  0  3  0  0  0  0  0  0
  -30.6870  -22.5550   19.9240 C   0  0  0  0  0  1  0  0  0  0  0  0
  -29.1820  -22.2550   20.1270 C   0  0  0  0  0  3  0  0  0  0  0  0
  -28.3810  -23.9880   20.5740 C   0  0  0  0  0  2  0  0  0  0  0  0
  -28.3570  -25.7570   20.4670 O   0  0  0  0  0  0  0  0  0  0  0  0
  -24.6560  -31.9820   23.2660 C   0  0  0  0  0  0  0  0  0  0  0  0
  -27.3210  -26.9130   20.4160 C   0  0  0  0  0  0  0  0  0  0  0  0
  -23.5150  -30.5400   21.6310 C   0  0  0  0  0  3  0  0  0  0  0  0
  -25.0110  -28.8900   20.2770 C   0  0  0  0  0  0  0  0  0  0  0  0
  -26.0910  -30.7320   21.5440 C   0  0  0  0  0  2  0  0  0  0  0  0
  -26.1890  -29.2880   20.9190 C   0  0  0  0  0  0  0  0  0  0  0  0
  -27.3300  -28.3300   20.9480 C   0  0  0  0  0  3  0  0  0  0  0  0
  -26.1020  -26.7170   19.7190 C   0  0  0  0  0  3  0  0  0  0  0  0
  -25.0060  -27.6310   19.6510 C   0  0  0  0  0  3  0  0  0  0  0  0
  -23.7900  -29.8240   20.2770 C   0  0  0  0  0  2  0  0  0  0  0  0
  -24.7750  -31.1190   22.2010 N   0  0  0  0  0  0  0  0  0  0  0  0
  -23.5500  -32.2710   23.7570 O   0  0  0  0  0  0  0  0  0  0  0  0
  -22.8000  -29.5680   22.6080 C   0  0  0  0  0  0  0  0  0  0  0  0
  -21.4720  -29.3940   22.4700 N   0  0  0  0  0  0  0  0  0  0  0  0
  -23.4530  -28.9640   23.4640 O   0  0  0  0  0  0  0  0  0  0  0  0
  -20.9940  -29.9320   21.7620 H   0  0  0  0  0  0  0  0  0  0  0  0
  -18.0920  -28.1570   22.9670 C   0  0  0  0  0  0  0  0  0  0  0  0
  -20.6480  -28.4590   23.2470 C   0  0  0  0  0  3  0  0  0  0  0  0
  -20.7680  -27.0200   22.6910 C   0  0  0  0  0  2  0  0  0  0  0  0
  -19.6780  -26.6730   21.6700 C   0  0  0  0  0  2  0  0  0  0  0  0
  -18.2900  -26.8060   22.3020 C   0  0  0  0  0  2  0  0  0  0  0  0
  -19.1980  -28.9390   23.3960 C   0  0  0  0  0  0  0  0  0  0  0  0
  -18.9560  -30.1990   23.9850 C   0  0  0  0  0  3  0  0  0  0  0  0
  -17.6430  -30.6790   24.1450 C   0  0  0  0  0  3  0  0  0  0  0  0
  -16.5520  -29.8980   23.7290 C   0  0  0  0  0  3  0  0  0  0  0  0
  -16.7770  -28.6380   23.1460 C   0  0  0  0  0  3  0  0  0  0  0  0
  -25.8990  -32.6630   23.9150 C   0  0  0  0  0  3  0  0  0  0  0  0
  -26.3710  -31.9460   25.2400 C   0  0  1  0  0  0  0  0  0  0  0  0
  -25.2410  -31.7390   26.2750 C   0  0  0  0  0  1  0  0  0  0  0  0
  -26.9800  -30.5590   24.9340 C   0  0  0  0  0  1  0  0  0  0  0  0
  -27.4860  -32.7770   25.9160 C   0  0  0  0  0  1  0  0  0  0  0  0
  -25.5560  -34.0700   24.2040 N   0  0  0  0  0  0  0  0  0  0  0  0
  -25.8980  -35.1200   23.4480 C   0  0  0  0  0  0  0  0  0  0  0  0
  -26.5950  -35.0090   22.4360 O   0  0  0  0  0  0  0  0  0  0  0  0
  -24.9420  -34.2240   24.9890 H   0  0  0  0  0  0  0  0  0  0  0  0
  -24.1690  -36.9060   23.0330 C   0  0  0  0  0  1  0  0  0  0  0  0
  -25.3920  -36.5140   23.8770 C   0  0  0  0  0  3  0  0  0  0  0  0
  -27.4950  -37.4340   24.7540 C   0  0  0  0  0  1  0  0  0  0  0  0
  -26.4200  -37.5740   23.7760 N   0  0  0  0  0  0  0  0  0  0  0  0
  -26.0020  -38.4930   23.8920 H   0  0  0  0  0  0  0  0  0  0  0  0
  1  3  1  0
  1  2  1  0
  4 15  1  0
  5 10  1  0
  6  7  1  0
  6  5  1  0
  8  7  1  0
  8 19  1  0
  8  9  1  0
 10  4  1  0
 10  9  1  0
 11  4  2  0
 12 15  1  0
 13 46  1  0
 13 12  1  0
 13 14  1  0
 14 15  1  0
 14  1  1  0
 16 17  2  0
 17 36  1  0
 18 17  1  0
 18 21  1  0
 19 16  1  0
 19 20  1  0
 20 18  2  0
 21 22  1  0
 22 23  2  0
 24 27  1  0
 24 23  1  0
 25 24  2  0
 26 25  1  0
 26 21  2  0
 27 28  1  0
 28 29  1  0
 29 30  2  0
 31 30  1  0
 31 35  1  0
 32 31  2  0
 33 28  2  0
 33 32  1  0
 34 33  1  0
 36 37  1  0
 37 40  1  0
 37 39  1  0
 38 36  2  0
 41 42  1  0
 41 16  1  0
 43 41  1  0
 44 45  1  0
 44 46  1  0
 45 46  1  0
 48 47  1  0
 48 49  1  0
 48  1  1  0
 50 49  1  0
 51 62  2  0
 52 50  1  0
 52 57  1  0
 53 61  1  0
 53 63  1  0
 54 56  1  0
 55 61  1  0
 56 57  2  0
 56 55  1  0
 58 52  2  0
 59 58  1  0
 59 54  2  0
 60 54  1  0
 60 53  1  0
 61 51  1  0
 63 65  2  0
 64 63  1  0
 66 64  1  0
 67 76  2  0
 67 72  1  0
 68 64  1  0
 68 72  1  0
 69 68  1  0
 70 71  1  0
 70 69  1  0
 71 67  1  0
 72 73  2  0
 73 74  1  0
 75 74  2  0
 76 75  1  0
 77 51  1  0
 77 82  1  0
 77 78  1  0
 78 81  1  1
 78 79  1  0
 80 78  1  0
 82 85  1  0
 83 87  1  0
 83 82  1  0
 84 83  2  0
 87 86  1  0
 89 87  1  0
 89 90  1  0
 89 88  1  0
M  ISO  4   4 100  15 100  49 101  50 101
M  END
>  <TORSDO>  (58) 
F 19

>  <SCORE>  (58) 
-15.673

>  <name>  (58) 
57

>  <ligand_id>  (58) 
57

>  <original_smiles>  (58) 
[H]c1c([H])c([H])c2c(c1[H])C([H])([H])C([H])([H])C([H])([H])C2([H])N([H])C(=O)C1([H])N(C(=O)C([H])(N([H])C(=O)C([H])(N([H])C([H])([H])[H])C([H])([H])[H])C(C([H])([H])[H])(C([H])([H])[H])C([H])([H])[H])C([H])([H])c2c([H])c(OC([H])([H])C([H])(C([H])([H])[H])[N+]([H])([H])C3([H])N(C(=O)N4C([H])([H])C([H])([H])C([H])([H])C([H])(n5nc(-c6c([H])c([H])c(Oc7c([H])c([H])c(F)c([H])c7F)c([H])c6[H])c(C(=O)N([H])[H])c5N([H])[H])C4([H])[H])C([H])([H])C3([H])C3([H])C([H])([H])C3([H])[H])c([H])c([H])c2C1([H])[H]

>  <smiles>  (58) 
[H]c1c([H])c([H])c2c(c1[H])C([H])([H])C([H])([H])C([H])([H])C2([H])N([H])C(=O)C1([H])N(C(=O)C([H])(N([H])C(=O)C([H])(N([H])C([H])([H])[H])C([H])([H])[H])C(C([H])([H])[H])(C([H])([H])[H])C([H])([H])[H])C([H])([H])c2c([H])c(OC([H])([H])C([H])(C([H])([H])[H])[N+]([H])([H])C3([H])N(C(=O)N4C([H])([H])C([H])([H])C([H])([H])C([H])(n5nc(-c6c([H])c([H])c(Oc7c([H])c([H])c(F)c([H])c7F)c([H])c6[H])c(C(=O)N([H])[H])c5N([H])[H])C4([H])[H])C([H])([H])C3([H])C3([H])C([H])([H])C3([H])[H])c([H])c([H])c2C1([H])[H]

$$$$
58:0:0
     RDKit          3D

 94103  0  0  1  0  0  0  0  0999 V2000
  -30.1180  -22.5180   21.2350 C   0  0  0  0  0  3  0  0  0  0  0  0
  -29.6340  -21.3690   20.5360 C   0  0  0  0  0  0  0  0  0  0  0  0
  -28.9010  -23.9060   19.8560 C   0  0  0  0  0  0  0  0  0  0  0  0
  -29.7420  -23.7810   20.8920 N   0  0  0  0  0  0  0  0  0  0  0  0
  -28.7580  -21.5790   19.5160 N   0  0  0  0  0  0  0  0  0  0  0  0
  -28.4010  -22.8430   19.1750 N   0  0  0  0  0  2  0  0  0  0  0  0
  -30.3880  -22.3660   23.7610 C   0  0  0  0  0  1  0  0  0  0  0  0
  -31.0960  -22.4280   22.4000 C   0  0  0  0  0  2  0  0  0  0  0  0
  -30.0490  -20.0550   20.9000 N   0  0  0  0  0  0  0  0  0  0  0  0
  -30.8140  -20.0260   21.5640 H   0  0  0  0  0  0  0  0  0  0  0  0
  -30.7490  -14.5420   20.0100 C   0  0  0  0  0  0  0  0  0  0  0  0
  -30.4280  -12.3320   18.9340 C   0  0  0  0  0  2  0  0  0  0  0  0
  -29.4190  -12.4890   17.7750 C   0  0  0  0  0  2  0  0  0  0  0  0
  -27.9740  -12.3310   18.2870 C   0  0  0  0  0  2  0  0  0  0  0  0
  -27.6920  -13.1740   19.5610 C   0  0  0  0  0  3  0  0  0  0  0  0
  -28.8150  -13.0010   20.6070 C   0  0  0  0  0  2  0  0  0  0  0  0
  -30.0830  -13.3460   19.9510 N   0  0  0  0  0  0  0  0  0  0  0  0
  -31.9020  -14.6350   19.5770 O   0  0  0  0  0  0  0  0  0  0  0  0
  -29.6520  -17.6900   21.6280 C   0  0  0  0  0  2  0  0  0  0  0  0
  -30.3530  -18.1170   19.3080 C   0  0  0  0  0  2  0  0  0  0  0  0
  -29.2910  -16.2100   21.2670 C   0  0  0  0  0  2  0  0  0  0  0  0
  -29.9400  -16.6560   18.9450 C   0  0  0  0  0  2  0  0  0  0  0  0
  -29.5390  -18.7260   20.4730 C   0  0  0  0  0  3  0  0  0  0  0  0
  -29.9770  -15.6840   20.0670 N   0  0  0  0  0  0  0  0  0  0  0  0
  -25.3510  -13.7600   20.4420 C   0  0  0  0  0  0  0  0  0  0  0  0
  -24.3050  -12.9800   20.8550 C   0  0  0  0  0  0  0  0  0  0  0  0
  -24.7580  -11.6280   20.7580 C   0  0  0  0  0  0  0  0  0  0  0  0
  -26.3750  -12.8820   20.1200 N   0  0  0  0  0  0  0  0  0  0  0  0
  -26.0270  -11.5950   20.3700 N   0  0  0  0  0  0  0  0  0  0  0  0
  -24.0380  -10.3640   20.9580 C   0  0  0  0  0  0  0  0  0  0  0  0
  -24.4660   -9.4120   21.9100 C   0  0  0  0  0  3  0  0  0  0  0  0
  -23.7460   -8.2130   22.0950 C   0  0  0  0  0  3  0  0  0  0  0  0
  -22.5860   -7.9550   21.3280 C   0  0  0  0  0  0  0  0  0  0  0  0
  -22.1780   -8.8940   20.3660 C   0  0  0  0  0  3  0  0  0  0  0  0
  -22.8970  -10.0860   20.1780 C   0  0  0  0  0  3  0  0  0  0  0  0
  -21.8400   -6.8050   21.4230 O   0  0  0  0  0  0  0  0  0  0  0  0
  -21.7090   -6.1260   22.6070 C   0  0  0  0  0  0  0  0  0  0  0  0
  -21.1610   -6.7340   23.7580 C   0  0  0  0  0  3  0  0  0  0  0  0
  -20.9810   -5.9790   24.9340 C   0  0  0  0  0  3  0  0  0  0  0  0
  -21.3400   -4.6170   24.9600 C   0  0  0  0  0  0  0  0  0  0  0  0
  -21.8810   -4.0090   23.8140 C   0  0  0  0  0  3  0  0  0  0  0  0
  -22.0620   -4.7620   22.6400 C   0  0  0  0  0  0  0  0  0  0  0  0
  -22.5650   -4.1650   21.5320 F   0  0  0  0  0  0  0  0  0  0  0  0
  -21.1600   -3.8900   26.0870 F   0  0  0  0  0  0  0  0  0  0  0  0
  -22.9300  -13.4540   21.2250 C   0  0  0  0  0  0  0  0  0  0  0  0
  -22.2500  -12.7340   22.1100 N   0  0  0  0  0  0  0  0  0  0  0  0
  -22.4680  -14.4980   20.7640 O   0  0  0  0  0  0  0  0  0  0  0  0
  -22.6370  -11.8890   22.5050 H   0  0  0  0  0  0  0  0  0  0  0  0
  -21.3300  -13.0330   22.3990 H   0  0  0  0  0  0  0  0  0  0  0  0
  -25.5110  -15.1340   20.2910 N   0  0  0  0  0  0  0  0  0  0  0  0
  -24.7540  -15.7870   20.4610 H   0  0  0  0  0  0  0  0  0  0  0  0
  -26.3410  -15.5770   19.9180 H   0  0  0  0  0  0  0  0  0  0  0  0
  -28.6810  -25.3350   19.2490 C   0  0  0  0  0  2  0  0  0  0  0  0
  -28.4630  -26.4910   20.1310 O   0  0  0  0  0  0  0  0  0  0  0  0
  -24.6190  -31.7520   23.1480 C   0  0  0  0  0  0  0  0  0  0  0  0
  -27.3010  -27.2680   20.0660 C   0  0  0  0  0  0  0  0  0  0  0  0
  -23.4420  -30.3680   21.4760 C   0  0  0  0  0  3  0  0  0  0  0  0
  -24.9160  -28.8410   20.0540 C   0  0  0  0  0  0  0  0  0  0  0  0
  -25.9780  -30.7060   21.3280 C   0  0  0  0  0  2  0  0  0  0  0  0
  -26.0720  -29.3370   20.6700 C   0  0  0  0  0  0  0  0  0  0  0  0
  -27.2620  -28.5590   20.6720 C   0  0  0  0  0  3  0  0  0  0  0  0
  -26.1120  -26.8040   19.4560 C   0  0  0  0  0  3  0  0  0  0  0  0
  -24.9360  -27.5770   19.4440 C   0  0  0  0  0  3  0  0  0  0  0  0
  -23.6740  -29.7070   20.0910 C   0  0  0  0  0  2  0  0  0  0  0  0
  -24.6980  -30.9580   22.0410 N   0  0  0  0  0  0  0  0  0  0  0  0
  -23.5280  -32.0200   23.6710 O   0  0  0  0  0  0  0  0  0  0  0  0
  -22.7710  -29.3380   22.4140 C   0  0  0  0  0  0  0  0  0  0  0  0
  -21.4470  -29.1630   22.2710 N   0  0  0  0  0  0  0  0  0  0  0  0
  -23.4420  -28.6990   23.2300 O   0  0  0  0  0  0  0  0  0  0  0  0
  -20.9660  -29.7310   21.5880 H   0  0  0  0  0  0  0  0  0  0  0  0
  -18.0610  -27.9800   22.7250 C   0  0  0  0  0  0  0  0  0  0  0  0
  -20.6170  -28.2180   23.0210 C   0  0  0  0  0  3  0  0  0  0  0  0
  -20.7160  -26.7960   22.4210 C   0  0  0  0  0  2  0  0  0  0  0  0
  -19.6210  -26.4970   21.3940 C   0  0  0  0  0  2  0  0  0  0  0  0
  -18.2340  -26.6400   22.0290 C   0  0  0  0  0  2  0  0  0  0  0  0
  -19.1800  -28.7280   23.1760 C   0  0  0  0  0  0  0  0  0  0  0  0
  -18.9650  -29.9830   23.7860 C   0  0  0  0  0  3  0  0  0  0  0  0
  -17.6620  -30.4890   23.9490 C   0  0  0  0  0  3  0  0  0  0  0  0
  -16.5560  -29.7380   23.5150 C   0  0  0  0  0  3  0  0  0  0  0  0
  -16.7570  -28.4850   22.9080 C   0  0  0  0  0  3  0  0  0  0  0  0
  -25.8920  -32.3800   23.7950 C   0  0  0  0  0  3  0  0  0  0  0  0
  -26.3970  -31.5900   25.0650 C   0  0  1  0  0  0  0  0  0  0  0  0
  -25.2920  -31.3240   26.1140 C   0  0  0  0  0  1  0  0  0  0  0  0
  -26.9970  -30.2240   24.6560 C   0  0  0  0  0  1  0  0  0  0  0  0
  -27.5320  -32.3820   25.7570 C   0  0  0  0  0  1  0  0  0  0  0  0
  -25.5710  -33.7710   24.1440 N   0  0  0  0  0  0  0  0  0  0  0  0
  -25.9010  -34.8370   23.4050 C   0  0  0  0  0  0  0  0  0  0  0  0
  -26.5780  -34.7540   22.3760 O   0  0  0  0  0  0  0  0  0  0  0  0
  -24.9700  -33.9090   24.9450 H   0  0  0  0  0  0  0  0  0  0  0  0
  -24.1630  -36.6240   23.0700 C   0  0  0  0  0  1  0  0  0  0  0  0
  -25.4030  -36.2160   23.8800 C   0  0  0  0  0  3  0  0  0  0  0  0
  -27.5240  -37.1070   24.7390 C   0  0  0  0  0  1  0  0  0  0  0  0
  -26.4280  -37.2770   23.7880 N   0  0  0  0  0  0  0  0  0  0  0  0
  -26.0140  -38.1920   23.9420 H   0  0  0  0  0  0  0  0  0  0  0  0
  1  8  1  0
  2  9  1  0
  2  1  1  0
  3  4  2  0
  4  1  1  0
  5  2  2  0
  6  5  1  0
  6  3  1  0
  8  7  1  0
  9 10  1  0
 11 24  1  0
 12 17  1  0
 13 14  1  0
 13 12  1  0
 15 14  1  0
 15 28  1  0
 15 16  1  0
 17 11  1  0
 17 16  1  0
 18 11  2  0
 20 23  1  0
 21 19  1  0
 22 20  1  0
 22 24  1  0
 23  9  1  0
 23 19  1  0
 24 21  1  0
 25 26  2  0
 26 45  1  0
 27 26  1  0
 27 30  1  0
 28 29  1  0
 28 25  1  0
 29 27  2  0
 30 31  1  0
 31 32  2  0
 33 36  1  0
 33 32  1  0
 34 33  2  0
 35 34  1  0
 35 30  2  0
 36 37  1  0
 37 42  2  0
 37 38  1  0
 38 39  2  0
 39 40  1  0
 40 44  1  0
 41 40  2  0
 42 41  1  0
 43 42  1  0
 45 46  1  0
 46 49  1  0
 46 48  1  0
 47 45  2  0
 50 25  1  0
 50 51  1  0
 52 50  1  0
 53  3  1  0
 53 54  1  0
 55 66  2  0
 56 54  1  0
 56 61  1  0
 57 65  1  0
 57 67  1  0
 58 64  1  0
 58 60  1  0
 59 65  1  0
 60 61  2  0
 60 59  1  0
 62 56  2  0
 63 62  1  0
 63 58  2  0
 64 57  1  0
 65 55  1  0
 67 69  2  0
 68 67  1  0
 70 68  1  0
 71 80  2  0
 71 76  1  0
 72 68  1  0
 72 76  1  0
 73 72  1  0
 74 75  1  0
 74 73  1  0
 75 71  1  0
 76 77  2  0
 77 78  1  0
 79 78  2  0
 80 79  1  0
 81 55  1  0
 81 86  1  0
 81 82  1  0
 82 85  1  1
 82 83  1  0
 84 82  1  0
 86 89  1  0
 87 91  1  0
 87 86  1  0
 88 87  2  0
 91 90  1  0
 93 91  1  0
 93 94  1  0
 93 92  1  0
M  ISO  4  11 100  24 100  53 101  54 101
M  END
>  <TORSDO>  (59) 
F 19

>  <SCORE>  (59) 
-13.791

>  <name>  (59) 
58

>  <ligand_id>  (59) 
58

>  <original_smiles>  (59) 
[H]c1c([H])c([H])c2c(c1[H])C([H])([H])C([H])([H])C([H])([H])C2([H])N([H])C(=O)C1([H])N(C(=O)C([H])(N([H])C(=O)C([H])(N([H])C([H])([H])[H])C([H])([H])[H])C(C([H])([H])[H])(C([H])([H])[H])C([H])([H])[H])C([H])([H])c2c([H])c(OC([H])([H])c3nnc(N([H])C4([H])C([H])([H])C([H])([H])N(C(=O)N5C([H])([H])C([H])([H])C([H])([H])C([H])(n6nc(-c7c([H])c([H])c(Oc8c([H])c([H])c(F)c([H])c8F)c([H])c7[H])c(C(=O)N([H])[H])c6N([H])[H])C5([H])[H])C([H])([H])C4([H])[H])c(C([H])([H])C([H])([H])[H])n3)c([H])c([H])c2C1([H])[H]

>  <smiles>  (59) 
[H]c1c([H])c([H])c2c(c1[H])C([H])([H])C([H])([H])C([H])([H])C2([H])N([H])C(=O)C1([H])N(C(=O)C([H])(N([H])C(=O)C([H])(N([H])C([H])([H])[H])C([H])([H])[H])C(C([H])([H])[H])(C([H])([H])[H])C([H])([H])[H])C([H])([H])c2c([H])c(OC([H])([H])c3nnc(N([H])C4([H])C([H])([H])C([H])([H])N(C(=O)N5C([H])([H])C([H])([H])C([H])([H])C([H])(n6nc(-c7c([H])c([H])c(Oc8c([H])c([H])c(F)c([H])c8F)c([H])c7[H])c(C(=O)N([H])[H])c6N([H])[H])C5([H])[H])C([H])([H])C4([H])[H])c(C([H])([H])C([H])([H])[H])n3)c([H])c([H])c2C1([H])[H]

$$$$
59:0:0
     RDKit          3D

 95105  0  0  1  0  0  0  0  0999 V2000
  -29.4780  -22.0160   18.2000 C   0  0  0  0  0  0  0  0  0  0  0  0
  -29.3470  -23.5930   19.8040 C   0  0  0  0  0  0  0  0  0  0  0  0
  -29.5130  -21.3380   20.3030 C   0  0  0  0  0  0  0  0  0  0  0  0
  -29.3190  -23.2970   18.5020 N   0  0  0  0  0  4  0  0  0  0  0  0
  -29.5970  -21.0020   19.0380 N   0  0  0  0  0  0  0  0  0  0  0  0
  -29.4260  -22.6200   20.7720 N   0  0  0  0  0  2  0  0  0  0  0  0
  -29.5070  -20.2110   21.1770 N   0  0  0  0  0  0  0  0  0  0  0  0
  -29.3980  -20.4830   22.1480 H   0  0  0  0  0  0  0  0  0  0  0  0
  -30.8910  -14.3390   20.9930 C   0  0  0  0  0  0  0  0  0  0  0  0
  -30.6620  -12.0920   19.9350 C   0  0  0  0  0  2  0  0  0  0  0  0
  -29.8570  -12.2240   18.6260 C   0  0  0  0  0  2  0  0  0  0  0  0
  -28.3480  -12.1070   18.9160 C   0  0  0  0  0  2  0  0  0  0  0  0
  -27.8960  -12.9890   20.1130 C   0  0  0  0  0  3  0  0  0  0  0  0
  -28.8410  -12.8620   21.3250 C   0  0  0  0  0  2  0  0  0  0  0  0
  -30.1930  -13.1620   20.8440 N   0  0  0  0  0  0  0  0  0  0  0  0
  -32.1130  -14.3370   20.8080 O   0  0  0  0  0  0  0  0  0  0  0  0
  -29.2940  -17.8080   20.0200 C   0  0  0  0  0  2  0  0  0  0  0  0
  -30.0610  -17.9390   22.2890 C   0  0  0  0  0  2  0  0  0  0  0  0
  -29.9520  -16.3630   19.8890 C   0  0  0  0  0  2  0  0  0  0  0  0
  -30.7290  -16.5080   22.1690 C   0  0  0  0  0  2  0  0  0  0  0  0
  -30.0370  -18.7900   20.9830 C   0  0  0  0  0  3  0  0  0  0  0  0
  -30.2180  -15.5630   21.1310 N   0  0  0  0  0  0  0  0  0  0  0  0
  -25.4780  -13.6580   20.6200 C   0  0  0  0  0  0  0  0  0  0  0  0
  -24.3550  -12.9210   20.8780 C   0  0  0  0  0  0  0  0  0  0  0  0
  -24.7720  -11.5540   20.8820 C   0  0  0  0  0  0  0  0  0  0  0  0
  -26.5070  -12.7430   20.4770 N   0  0  0  0  0  0  0  0  0  0  0  0
  -26.0840  -11.4720   20.6980 N   0  0  0  0  0  0  0  0  0  0  0  0
  -23.9880  -10.3170   20.9930 C   0  0  0  0  0  0  0  0  0  0  0  0
  -24.3250   -9.3110   21.9260 C   0  0  0  0  0  3  0  0  0  0  0  0
  -23.5450   -8.1400   22.0270 C   0  0  0  0  0  3  0  0  0  0  0  0
  -22.4140   -7.9650   21.1930 C   0  0  0  0  0  0  0  0  0  0  0  0
  -22.0960   -8.9580   20.2510 C   0  0  0  0  0  3  0  0  0  0  0  0
  -22.8780  -10.1220   20.1470 C   0  0  0  0  0  3  0  0  0  0  0  0
  -21.6150   -6.8460   21.2020 O   0  0  0  0  0  0  0  0  0  0  0  0
  -21.4260   -6.1050   22.3400 C   0  0  0  0  0  0  0  0  0  0  0  0
  -20.8170   -6.6500   23.4910 C   0  0  0  0  0  3  0  0  0  0  0  0
  -20.5790   -5.8340   24.6150 C   0  0  0  0  0  3  0  0  0  0  0  0
  -20.9410   -4.4740   24.5880 C   0  0  0  0  0  0  0  0  0  0  0  0
  -21.5440   -3.9290   23.4410 C   0  0  0  0  0  3  0  0  0  0  0  0
  -21.7840   -4.7420   22.3190 C   0  0  0  0  0  0  0  0  0  0  0  0
  -22.3450   -4.2060   21.2090 F   0  0  0  0  0  0  0  0  0  0  0  0
  -20.7060   -3.6880   25.6640 F   0  0  0  0  0  0  0  0  0  0  0  0
  -22.9560  -13.4450   21.0160 C   0  0  0  0  0  0  0  0  0  0  0  0
  -22.1320  -12.7870   21.8230 N   0  0  0  0  0  0  0  0  0  0  0  0
  -22.6010  -14.4760   20.4470 O   0  0  0  0  0  0  0  0  0  0  0  0
  -22.4300  -11.9520   22.3060 H   0  0  0  0  0  0  0  0  0  0  0  0
  -21.1890  -13.1240   21.9600 H   0  0  0  0  0  0  0  0  0  0  0  0
  -25.7080  -15.0230   20.4730 N   0  0  0  0  0  0  0  0  0  0  0  0
  -24.9640  -15.7100   20.5180 H   0  0  0  0  0  0  0  0  0  0  0  0
  -26.6130  -15.4300   20.2730 H   0  0  0  0  0  0  0  0  0  0  0  0
  -28.5430  -21.2970   15.8400 C   0  0  0  0  0  2  0  0  0  0  0  0
  -29.5460  -20.2560   16.2540 C   0  0  0  0  0  2  0  0  0  0  0  0
  -29.6910  -21.6810   16.7500 C   0  0  0  0  0  3  0  0  0  0  0  0
  -29.6290  -25.1680   19.9870 C   0  0  0  0  0  2  0  0  0  0  0  0
  -29.0480  -26.1200   20.9660 O   0  0  0  0  0  0  0  0  0  0  0  0
  -24.9480  -31.6190   23.2470 C   0  0  0  0  0  0  0  0  0  0  0  0
  -27.9580  -26.9650   20.6860 C   0  0  0  0  0  0  0  0  0  0  0  0
  -23.9510  -30.1140   21.5620 C   0  0  0  0  0  3  0  0  0  0  0  0
  -25.5750  -28.5300   20.3620 C   0  0  0  0  0  0  0  0  0  0  0  0
  -26.4900  -30.4740   21.6350 C   0  0  0  0  0  2  0  0  0  0  0  0
  -26.6610  -29.0680   21.0630 C   0  0  0  0  0  0  0  0  0  0  0  0
  -27.8470  -28.2880   21.2290 C   0  0  0  0  0  3  0  0  0  0  0  0
  -26.8550  -26.4840   19.9520 C   0  0  0  0  0  3  0  0  0  0  0  0
  -25.6750  -27.2440   19.8000 C   0  0  0  0  0  3  0  0  0  0  0  0
  -24.3230  -29.3790   20.2440 C   0  0  0  0  0  2  0  0  0  0  0  0
  -25.1420  -30.7570   22.2030 N   0  0  0  0  0  0  0  0  0  0  0  0
  -23.8100  -31.8960   23.6510 O   0  0  0  0  0  0  0  0  0  0  0  0
  -23.2100  -29.1300   22.4980 C   0  0  0  0  0  0  0  0  0  0  0  0
  -21.9030  -28.9360   22.2620 N   0  0  0  0  0  0  0  0  0  0  0  0
  -23.8170  -28.5410   23.3980 O   0  0  0  0  0  0  0  0  0  0  0  0
  -21.4740  -29.4630   21.5130 H   0  0  0  0  0  0  0  0  0  0  0  0
  -18.4740  -27.8320   22.5990 C   0  0  0  0  0  0  0  0  0  0  0  0
  -21.0230  -28.0230   22.9930 C   0  0  0  0  0  3  0  0  0  0  0  0
  -21.1130  -26.5880   22.4210 C   0  0  0  0  0  2  0  0  0  0  0  0
  -20.0520  -26.2950   21.3540 C   0  0  0  0  0  2  0  0  0  0  0  0
  -18.6460  -26.4780   21.9320 C   0  0  0  0  0  2  0  0  0  0  0  0
  -19.5910  -28.5640   23.0840 C   0  0  0  0  0  0  0  0  0  0  0  0
  -19.3770  -29.8320   23.6670 C   0  0  0  0  0  3  0  0  0  0  0  0
  -18.0790  -30.3660   23.7730 C   0  0  0  0  0  3  0  0  0  0  0  0
  -16.9750  -29.6290   23.3060 C   0  0  0  0  0  3  0  0  0  0  0  0
  -17.1740  -28.3650   22.7240 C   0  0  0  0  0  3  0  0  0  0  0  0
  -26.1460  -32.3130   23.9660 C   0  0  0  0  0  3  0  0  0  0  0  0
  -25.7750  -33.7160   24.1990 N   0  0  0  0  0  0  0  0  0  0  0  0
  -26.1190  -34.7380   23.4030 C   0  0  0  0  0  0  0  0  0  0  0  0
  -26.8520  -34.6010   22.4200 O   0  0  0  0  0  0  0  0  0  0  0  0
  -25.1290  -33.8930   24.9540 H   0  0  0  0  0  0  0  0  0  0  0  0
  -24.3510  -36.4430   22.8640 C   0  0  0  0  0  1  0  0  0  0  0  0
  -25.5640  -36.1320   23.7540 C   0  0  0  0  0  3  0  0  0  0  0  0
  -27.6120  -37.1570   24.6410 C   0  0  0  0  0  1  0  0  0  0  0  0
  -26.5650  -37.2140   23.6270 N   0  0  0  0  0  0  0  0  0  0  0  0
  -26.1170  -38.1250   23.6860 H   0  0  0  0  0  0  0  0  0  0  0  0
  -26.5420  -31.6150   25.3270 C   0  0  1  0  0  0  0  0  0  0  0  0
  -25.3410  -31.3600   26.2670 C   0  0  0  0  0  1  0  0  0  0  0  0
  -27.2350  -30.2580   25.0670 C   0  0  0  0  0  1  0  0  0  0  0  0
  -27.5640  -32.4940   26.0900 C   0  0  0  0  0  1  0  0  0  0  0  0
  1  4  2  0
  1  5  1  0
  2 54  1  0
  2  6  1  0
  3  6  1  0
  3  7  1  0
  4  2  2  0
  5  3  2  0
  7  8  1  0
  9 22  1  0
 10 15  1  0
 11 12  1  0
 11 10  1  0
 13 12  1  0
 13 26  1  0
 13 14  1  0
 15  9  1  0
 15 14  1  0
 16  9  2  0
 17 21  1  0
 19 17  1  0
 19 22  1  0
 20 18  1  0
 21  7  1  0
 21 18  1  0
 22 20  1  0
 23 24  2  0
 24 25  1  0
 24 43  1  0
 25 28  1  0
 26 23  1  0
 26 27  1  0
 27 25  2  0
 28 29  1  0
 29 30  2  0
 31 34  1  0
 31 30  1  0
 32 31  2  0
 33 32  1  0
 33 28  2  0
 34 35  1  0
 35 36  1  0
 36 37  2  0
 38 37  1  0
 38 42  1  0
 39 38  2  0
 40 35  2  0
 40 39  1  0
 41 40  1  0
 43 44  1  0
 44 47  1  0
 44 46  1  0
 45 43  2  0
 48 49  1  0
 48 23  1  0
 50 48  1  0
 51 52  1  0
 51 53  1  0
 52 53  1  0
 53  1  1  0
 54 55  1  0
 56 67  2  0
 57 55  1  0
 57 62  1  0
 58 66  1  0
 58 68  1  0
 59 61  1  0
 60 66  1  0
 61 62  2  0
 61 60  1  0
 63 57  2  0
 64 63  1  0
 64 59  2  0
 65 59  1  0
 65 58  1  0
 66 56  1  0
 68 70  2  0
 69 68  1  0
 71 69  1  0
 72 81  2  0
 72 77  1  0
 73 69  1  0
 73 77  1  0
 74 73  1  0
 75 76  1  0
 75 74  1  0
 76 72  1  0
 77 78  2  0
 78 79  1  0
 80 79  2  0
 81 80  1  0
 82 56  1  0
 82 83  1  0
 82 92  1  0
 83 86  1  0
 84 88  1  0
 84 83  1  0
 85 84  2  0
 88 87  1  0
 90 91  1  0
 90 88  1  0
 90 89  1  0
 92 95  1  1
 92 93  1  0
 94 92  1  0
M  ISO  4   9 100  22 100  54 101  55 101
M  END
>  <TORSDO>  (60) 
F 18

>  <SCORE>  (60) 
-12.001

>  <name>  (60) 
59

>  <ligand_id>  (60) 
59

>  <original_smiles>  (60) 
[H]c1c([H])c([H])c2c(c1[H])C([H])([H])C([H])([H])C([H])([H])C2([H])N([H])C(=O)C1([H])N(C(=O)C([H])(N([H])C(=O)C([H])(N([H])C([H])([H])[H])C([H])([H])[H])C(C([H])([H])[H])(C([H])([H])[H])C([H])([H])[H])C([H])([H])c2c([H])c(OC([H])([H])c3nc(N([H])C4([H])C([H])([H])C([H])([H])N(C(=O)N5C([H])([H])C([H])([H])C([H])([H])C([H])(n6nc(-c7c([H])c([H])c(Oc8c([H])c([H])c(F)c([H])c8F)c([H])c7[H])c(C(=O)N([H])[H])c6N([H])[H])C5([H])[H])C([H])([H])C4([H])[H])nc(C4([H])C([H])([H])C4([H])[H])n3)c([H])c([H])c2C1([H])[H]

>  <smiles>  (60) 
[H]c1c([H])c([H])c2c(c1[H])C([H])([H])C([H])([H])C([H])([H])C2([H])N([H])C(=O)C1([H])N(C(=O)C([H])(N([H])C(=O)C([H])(N([H])C([H])([H])[H])C([H])([H])[H])C(C([H])([H])[H])(C([H])([H])[H])C([H])([H])[H])C([H])([H])c2c([H])c(OC([H])([H])c3nc(N([H])C4([H])C([H])([H])C([H])([H])N(C(=O)N5C([H])([H])C([H])([H])C([H])([H])C([H])(n6nc(-c7c([H])c([H])c(Oc8c([H])c([H])c(F)c([H])c8F)c([H])c7[H])c(C(=O)N([H])[H])c6N([H])[H])C5([H])[H])C([H])([H])C4([H])[H])nc(C4([H])C([H])([H])C4([H])[H])n3)c([H])c([H])c2C1([H])[H]

$$$$
60:0:0
     RDKit          3D

 94103  0  0  1  0  0  0  0  0999 V2000
  -27.6810  -21.8600   19.8150 C   0  0  0  0  0  2  0  0  0  0  0  0
  -28.5530  -21.1890   20.8490 C   0  0  0  0  0  3  0  0  0  0  0  0
  -28.2180  -22.6520   20.9120 N   0  0  1  0  0  4  0  0  0  0  0  0
  -27.5080  -22.8310   21.6060 H   0  0  0  0  0  0  0  0  0  0  0  0
  -29.9260  -20.5750   20.4640 C   0  0  0  0  0  2  0  0  0  0  0  0
  -31.1070  -17.7490   22.5670 C   0  0  0  0  0  3  0  0  0  0  0  0
  -30.5570  -18.1260   21.3670 C   0  0  0  0  0  0  0  0  0  0  0  0
  -30.9250  -19.9560   22.6260 C   0  0  0  0  0  3  0  0  0  0  0  0
  -31.0390  -21.3580   23.1430 C   0  0  0  0  0  1  0  0  0  0  0  0
  -30.4360  -19.5370   21.4390 N   0  0  0  0  0  0  0  0  0  0  0  0
  -31.3140  -18.8750   23.3030 N   0  0  0  0  0  0  0  0  0  0  0  0
  -31.7190  -18.8900   24.2310 H   0  0  0  0  0  0  0  0  0  0  0  0
  -30.2020  -17.1770   20.2240 C   0  0  0  0  0  2  0  0  0  0  0  0
  -30.7440  -14.6510   20.2390 C   0  0  0  0  0  0  0  0  0  0  0  0
  -30.4740  -12.4100   19.2180 C   0  0  0  0  0  2  0  0  0  0  0  0
  -29.5130  -12.5350   18.0140 C   0  0  0  0  0  2  0  0  0  0  0  0
  -28.0470  -12.3920   18.4690 C   0  0  0  0  0  2  0  0  0  0  0  0
  -27.7150  -13.2820   19.6950 C   0  0  0  0  0  3  0  0  0  0  0  0
  -28.7890  -13.1440   20.8010 C   0  0  0  0  0  2  0  0  0  0  0  0
  -30.0980  -13.4460   20.1980 N   0  0  0  0  0  0  0  0  0  0  0  0
  -31.8850  -14.7920   19.7930 O   0  0  0  0  0  0  0  0  0  0  0  0
  -29.9910  -15.7320   20.5850 N   0  0  0  0  0  0  0  0  0  0  0  0
  -29.0740  -15.5080   20.9420 H   0  0  0  0  0  0  0  0  0  0  0  0
  -25.3430  -13.9120   20.4630 C   0  0  0  0  0  0  0  0  0  0  0  0
  -24.2720  -13.1500   20.8470 C   0  0  0  0  0  0  0  0  0  0  0  0
  -24.7150  -11.7930   20.7970 C   0  0  0  0  0  0  0  0  0  0  0  0
  -26.3700  -13.0170   20.2030 N   0  0  0  0  0  0  0  0  0  0  0  0
  -25.9980  -11.7370   20.4650 N   0  0  0  0  0  0  0  0  0  0  0  0
  -23.9750  -10.5390   20.9930 C   0  0  0  0  0  0  0  0  0  0  0  0
  -24.4030   -9.5660   21.9230 C   0  0  0  0  0  3  0  0  0  0  0  0
  -23.6630   -8.3770   22.1070 C   0  0  0  0  0  3  0  0  0  0  0  0
  -22.4830   -8.1530   21.3590 C   0  0  0  0  0  0  0  0  0  0  0  0
  -22.0730   -9.1160   20.4180 C   0  0  0  0  0  3  0  0  0  0  0  0
  -22.8130  -10.2960   20.2340 C   0  0  0  0  0  3  0  0  0  0  0  0
  -21.7150   -7.0190   21.4510 O   0  0  0  0  0  0  0  0  0  0  0  0
  -21.6520   -6.2840   22.6090 C   0  0  0  0  0  0  0  0  0  0  0  0
  -21.2260   -6.8520   23.8300 C   0  0  0  0  0  3  0  0  0  0  0  0
  -21.1100   -6.0450   24.9800 C   0  0  0  0  0  3  0  0  0  0  0  0
  -21.4100   -4.6710   24.9100 C   0  0  0  0  0  0  0  0  0  0  0  0
  -21.8300   -4.1040   23.6950 C   0  0  0  0  0  3  0  0  0  0  0  0
  -21.9470   -4.9080   22.5470 C   0  0  0  0  0  0  0  0  0  0  0  0
  -22.3320   -4.3500   21.3730 F   0  0  0  0  0  0  0  0  0  0  0  0
  -21.2920   -3.8950   26.0120 F   0  0  0  0  0  0  0  0  0  0  0  0
  -22.8870  -13.6450   21.1510 C   0  0  0  0  0  0  0  0  0  0  0  0
  -22.1670  -12.9520   22.0250 N   0  0  0  0  0  0  0  0  0  0  0  0
  -22.4550  -14.6810   20.6470 O   0  0  0  0  0  0  0  0  0  0  0  0
  -22.5300  -12.1140   22.4530 H   0  0  0  0  0  0  0  0  0  0  0  0
  -21.2390  -13.2670   22.2710 H   0  0  0  0  0  0  0  0  0  0  0  0
  -25.5230  -15.2810   20.2910 N   0  0  0  0  0  0  0  0  0  0  0  0
  -24.7660  -15.9430   20.4180 H   0  0  0  0  0  0  0  0  0  0  0  0
  -26.3630  -15.7080   19.9220 H   0  0  0  0  0  0  0  0  0  0  0  0
  -29.0000  -23.8850   20.5090 C   0  0  0  0  0  2  0  0  0  0  0  0
  -28.0010  -25.0520   20.1060 C   0  0  0  0  0  2  0  0  0  0  0  0
  -28.3060  -26.4980   20.2000 O   0  0  0  0  0  0  0  0  0  0  0  0
  -24.5650  -31.8810   23.1810 C   0  0  0  0  0  0  0  0  0  0  0  0
  -27.1960  -27.3550   20.1190 C   0  0  0  0  0  0  0  0  0  0  0  0
  -23.3650  -30.4760   21.5450 C   0  0  0  0  0  3  0  0  0  0  0  0
  -24.8230  -28.9490   20.1110 C   0  0  0  0  0  0  0  0  0  0  0  0
  -25.9020  -30.8170   21.3550 C   0  0  0  0  0  2  0  0  0  0  0  0
  -25.9900  -29.4430   20.7070 C   0  0  0  0  0  0  0  0  0  0  0  0
  -27.1800  -28.6580   20.7030 C   0  0  0  0  0  3  0  0  0  0  0  0
  -26.0040  -26.9260   19.4800 C   0  0  0  0  0  3  0  0  0  0  0  0
  -24.8320  -27.6970   19.4860 C   0  0  0  0  0  3  0  0  0  0  0  0
  -23.5780  -29.8100   20.1630 C   0  0  0  0  0  2  0  0  0  0  0  0
  -24.6290  -31.0740   22.0830 N   0  0  0  0  0  0  0  0  0  0  0  0
  -23.4820  -32.1520   23.7180 O   0  0  0  0  0  0  0  0  0  0  0  0
  -22.7150  -29.4510   22.5050 C   0  0  0  0  0  0  0  0  0  0  0  0
  -21.3870  -29.2780   22.3930 N   0  0  0  0  0  0  0  0  0  0  0  0
  -23.4030  -28.8160   23.3080 O   0  0  0  0  0  0  0  0  0  0  0  0
  -20.8910  -29.8440   21.7190 H   0  0  0  0  0  0  0  0  0  0  0  0
  -18.0110  -28.0960   22.9300 C   0  0  0  0  0  0  0  0  0  0  0  0
  -20.5730  -28.3410   23.1710 C   0  0  0  0  0  3  0  0  0  0  0  0
  -20.6600  -26.9110   22.5900 C   0  0  0  0  0  2  0  0  0  0  0  0
  -19.5450  -26.5980   21.5870 C   0  0  0  0  0  2  0  0  0  0  0  0
  -18.1720  -26.7480   22.2470 C   0  0  0  0  0  2  0  0  0  0  0  0
  -19.1380  -28.8510   23.3490 C   0  0  0  0  0  0  0  0  0  0  0  0
  -18.9330  -30.1130   23.9480 C   0  0  0  0  0  3  0  0  0  0  0  0
  -17.6310  -30.6190   24.1310 C   0  0  0  0  0  3  0  0  0  0  0  0
  -16.5190  -29.8610   23.7270 C   0  0  0  0  0  3  0  0  0  0  0  0
  -16.7100  -28.6020   23.1320 C   0  0  0  0  0  3  0  0  0  0  0  0
  -25.8470  -32.5210   23.7990 C   0  0  0  0  0  3  0  0  0  0  0  0
  -25.5230  -33.9120   24.1440 N   0  0  0  0  0  0  0  0  0  0  0  0
  -25.8360  -34.9770   23.3940 C   0  0  0  0  0  0  0  0  0  0  0  0
  -26.5010  -34.8920   22.3580 O   0  0  0  0  0  0  0  0  0  0  0  0
  -24.9320  -34.0490   24.9500 H   0  0  0  0  0  0  0  0  0  0  0  0
  -24.0890  -36.7550   23.0680 C   0  0  0  0  0  1  0  0  0  0  0  0
  -25.3370  -36.3540   23.8700 C   0  0  0  0  0  3  0  0  0  0  0  0
  -27.4650  -37.2510   24.7040 C   0  0  0  0  0  1  0  0  0  0  0  0
  -26.3580  -37.4200   23.7670 N   0  0  0  0  0  0  0  0  0  0  0  0
  -25.9430  -38.3330   23.9270 H   0  0  0  0  0  0  0  0  0  0  0  0
  -26.3820  -31.7420   25.0620 C   0  0  1  0  0  0  0  0  0  0  0  0
  -25.3010  -31.4830   26.1370 C   0  0  0  0  0  1  0  0  0  0  0  0
  -26.9750  -30.3750   24.6520 C   0  0  0  0  0  1  0  0  0  0  0  0
  -27.5290  -32.5430   25.7210 C   0  0  0  0  0  1  0  0  0  0  0  0
  1  2  1  0
  1  3  1  0
  2  5  1  0
  2  3  1  0
  3  4  1  1
  5 10  1  0
  6 11  1  0
  7 10  1  0
  7  6  2  0
  8  9  1  0
  8 11  1  0
 10  8  1  0
 11 12  1  0
 13 22  1  0
 13  7  1  0
 14 22  1  0
 15 20  1  0
 16 17  1  0
 16 15  1  0
 18 17  1  0
 18 27  1  0
 18 19  1  0
 20 14  1  0
 20 19  1  0
 21 14  2  0
 22 23  1  0
 24 25  2  0
 25 44  1  0
 26 25  1  0
 26 29  1  0
 27 24  1  0
 27 28  1  0
 28 26  2  0
 29 30  1  0
 30 31  2  0
 32 35  1  0
 32 31  1  0
 33 32  2  0
 34 33  1  0
 34 29  2  0
 35 36  1  0
 36 37  1  0
 37 38  2  0
 39 38  1  0
 39 43  1  0
 40 39  2  0
 41 36  2  0
 41 40  1  0
 42 41  1  0
 44 45  1  0
 45 48  1  0
 45 47  1  0
 46 44  2  0
 49 50  1  0
 49 24  1  0
 51 49  1  0
 52  3  1  0
 53 54  1  0
 53 52  1  0
 55 66  2  0
 56 54  1  0
 56 61  1  0
 57 65  1  0
 57 67  1  0
 58 64  1  0
 58 60  1  0
 59 65  1  0
 60 59  1  0
 61 60  2  0
 62 63  1  0
 62 56  2  0
 63 58  2  0
 64 57  1  0
 65 55  1  0
 67 69  2  0
 68 67  1  0
 70 68  1  0
 71 80  2  0
 71 76  1  0
 72 68  1  0
 72 76  1  0
 73 72  1  0
 74 75  1  0
 74 73  1  0
 75 71  1  0
 76 77  2  0
 77 78  1  0
 79 78  2  0
 80 79  1  0
 81 55  1  0
 81 82  1  0
 81 91  1  0
 82 85  1  0
 83 87  1  0
 83 82  1  0
 84 83  2  0
 87 86  1  0
 89 87  1  0
 89 90  1  0
 89 88  1  0
 91 94  1  1
 91 92  1  0
 93 91  1  0
M  ISO  4  14 100  22 100  53 101  54 101
M  END
>  <TORSDO>  (61) 
F 21

>  <SCORE>  (61) 
-13.531

>  <name>  (61) 
60

>  <ligand_id>  (61) 
60

>  <original_smiles>  (61) 
[H]c1c([H])c([H])c2c(c1[H])C([H])([H])C([H])([H])C([H])([H])C2([H])N([H])C(=O)C1([H])N(C(=O)C([H])(N([H])C(=O)C([H])(N([H])C([H])([H])[H])C([H])([H])[H])C(C([H])([H])[H])(C([H])([H])[H])C([H])([H])[H])C([H])([H])c2c([H])c(OC([H])([H])C([H])([H])[N+]3([H])C([H])([H])C3([H])C([H])([H])n3c(C([H])([H])N([H])C(=O)N4C([H])([H])C([H])([H])C([H])([H])C([H])(n5nc(-c6c([H])c([H])c(Oc7c([H])c([H])c(F)c([H])c7F)c([H])c6[H])c(C(=O)N([H])[H])c5N([H])[H])C4([H])[H])c([H])[n+]([H])c3C([H])([H])[H])c([H])c([H])c2C1([H])[H]

>  <smiles>  (61) 
[H]c1c([H])c([H])c2c(c1[H])C([H])([H])C([H])([H])C([H])([H])C2([H])N([H])C(=O)C1([H])N(C(=O)C([H])(N([H])C(=O)C([H])(N([H])C([H])([H])[H])C([H])([H])[H])C(C([H])([H])[H])(C([H])([H])[H])C([H])([H])[H])C([H])([H])c2c([H])c(OC([H])([H])C([H])([H])[N+]3([H])C([H])([H])C3([H])C([H])([H])n3c(C([H])([H])N([H])C(=O)N4C([H])([H])C([H])([H])C([H])([H])C([H])(n5nc(-c6c([H])c([H])c(Oc7c([H])c([H])c(F)c([H])c7F)c([H])c6[H])c(C(=O)N([H])[H])c5N([H])[H])C4([H])[H])c([H])[n+]([H])c3C([H])([H])[H])c([H])c([H])c2C1([H])[H]

$$$$
61:0:0
     RDKit          3D

 89 90  0  0  1  0  0  0  0  0999 V2000
  -26.1990  -15.8230   20.7970 C   0  0  0  0  0  1  0  0  0  0  0  0
  -24.9640  -17.0780   20.0280 C   0  0  0  0  0  1  0  0  0  0  0  0
  -22.9360  -16.1110   20.0760 N   0  0  0  0  0 15  0  0  0  0  0  0
  -23.0920  -14.1740   21.0960 N   0  0  0  0  0  2  0  0  0  0  0  0
  -25.3460  -14.0260   21.5960 N   0  0  0  0  0  2  0  0  0  0  0  0
  -25.4330  -19.1750   19.6130 C   0  0  0  0  0 15  0  0  0  0  0  0
  -26.7060  -22.5470   19.5420 C   0  0  0  0  0  2  0  0  0  0  0  0
  -26.5800  -20.9010   19.7650 N   0  0  0  0  0  1  0  0  0  0  0  0
  -27.6850  -24.0720   19.6470 O   0  0  0  0  0  0  0  0  0  0  0  0
  -25.9800  -31.0780   22.9800 C   0  0  0  0  0  0  0  0  0  0  0  0
  -27.4800  -25.7260   19.5940 C   0  0  0  0  0  0  0  0  0  0  0  0
  -24.7160  -29.9720   21.2030 C   0  0  0  0  0  3  0  0  0  0  0  0
  -25.9860  -28.4080   19.5430 C   0  0  0  0  0  0  0  0  0  0  0  0
  -27.2790  -29.7650   21.1390 C   0  0  0  0  0  2  0  0  0  0  0  0
  -27.1330  -28.3810   20.3310 C   0  0  0  0  0  0  0  0  0  0  0  0
  -27.8900  -27.0580   20.3320 C   0  0  0  0  0  3  0  0  0  0  0  0
  -26.5980  -26.1790   18.5950 C   0  0  0  0  0  3  0  0  0  0  0  0
  -25.8270  -27.3730   18.6140 C   0  0  0  0  0  3  0  0  0  0  0  0
  -24.9220  -29.4990   19.7310 C   0  0  0  0  0  2  0  0  0  0  0  0
  -26.0300  -30.3240   21.8230 N   0  0  0  0  0  0  0  0  0  0  0  0
  -24.9010  -31.3830   23.5200 O   0  0  0  0  0  0  0  0  0  0  0  0
  -23.9660  -28.8960   22.0360 C   0  0  0  0  0  0  0  0  0  0  0  0
  -22.6320  -28.7920   21.8920 N   0  0  0  0  0  0  0  0  0  0  0  0
  -24.5980  -28.1650   22.8040 O   0  0  0  0  0  0  0  0  0  0  0  0
  -22.1670  -29.4340   21.2660 H   0  0  0  0  0  0  0  0  0  0  0  0
  -19.2250  -27.5850   22.2420 C   0  0  0  0  0  0  0  0  0  0  0  0
  -21.7850  -27.7910   22.5540 C   0  0  0  0  0  3  0  0  0  0  0  0
  -21.8750  -26.4250   21.8340 C   0  0  0  0  0  2  0  0  0  0  0  0
  -20.7840  -26.2300   20.7770 C   0  0  0  0  0  2  0  0  0  0  0  0
  -19.3960  -26.3190   21.4170 C   0  0  0  0  0  2  0  0  0  0  0  0
  -20.3470  -28.2850   22.7630 C   0  0  0  0  0  0  0  0  0  0  0  0
  -20.1310  -29.4700   23.4990 C   0  0  0  0  0  3  0  0  0  0  0  0
  -18.8280  -29.9560   23.7150 C   0  0  0  0  0  3  0  0  0  0  0  0
  -17.7220  -29.2550   23.2050 C   0  0  0  0  0  3  0  0  0  0  0  0
  -17.9220  -28.0690   22.4760 C   0  0  0  0  0  3  0  0  0  0  0  0
  -27.2630  -31.6110   23.6850 C   0  0  0  0  0  3  0  0  0  0  0  0
  -27.7240  -30.7100   24.8990 C   0  0  1  0  0  0  0  0  0  0  0  0
  -26.6050  -30.4310   25.9300 C   0  0  0  0  0  1  0  0  0  0  0  0
  -28.2550  -29.3420   24.4210 C   0  0  0  0  0  1  0  0  0  0  0  0
  -28.8990  -31.3910   25.6410 C   0  0  0  0  0  1  0  0  0  0  0  0
  -26.9880  -32.9810   24.1770 N   0  0  0  0  0  0  0  0  0  0  0  0
  -27.3810  -34.1220   23.5900 C   0  0  0  0  0  0  0  0  0  0  0  0
  -28.0680  -34.1340   22.5680 O   0  0  0  0  0  0  0  0  0  0  0  0
  -26.3790  -33.0500   24.9780 H   0  0  0  0  0  0  0  0  0  0  0  0
  -25.7420  -36.0390   23.4780 C   0  0  0  0  0  1  0  0  0  0  0  0
  -26.9470  -35.4580   24.2360 C   0  0  0  0  0  3  0  0  0  0  0  0
  -29.0990  -36.1310   25.2160 C   0  0  0  0  0  1  0  0  0  0  0  0
  -28.0250  -36.4720   24.2860 N   0  0  0  0  0  0  0  0  0  0  0  0
  -27.6530  -37.3800   24.5530 H   0  0  0  0  0  0  0  0  0  0  0  0
  -26.0820  -12.8460   22.4040 C   0  0  0  0  0  2  0  0  0  0  0  0
  -27.7220  -12.2780   22.6170 C   0  0  0  0  0  2  0  0  0  0  0  0
  -29.9760  -12.3330   20.7420 C   0  0  1  0  0  0  0  0  0  0  0  0
  -31.0880  -11.2240   21.2130 C   0  0  0  0  0  1  0  0  0  0  0  0
  -30.4940  -10.1670   19.8280 C   0  0  0  0  0  1  0  0  0  0  0  0
  -28.9600  -10.4090   19.1930 C   0  0  0  0  0  2  0  0  0  0  0  0
  -28.1220  -11.8660   19.3560 C   0  0  0  0  0  2  0  0  0  0  0  0
  -28.8510  -13.3090   20.4040 C   0  0  0  0  0  1  0  0  0  0  0  0
  -30.2870  -12.8300   21.4540 N   0  0  0  0  0  1  0  0  0  0  0  0
  -30.7890  -12.6780   19.6150 O   0  0  0  0  0  1  0  0  0  0  0  0
  -28.8590  -11.5420   21.7020 N   0  0  0  0  0  2  0  0  0  0  0  0
  -28.5090  -10.6960   21.2710 H   0  0  0  0  0  0  0  0  0  0  0  0
  -25.7580  -12.2640   19.2700 C   0  0  0  0  0  3  0  0  0  0  0  0
  -24.6540  -11.9540   19.9130 C   0  0  0  0  0  3  0  0  0  0  0  0
  -24.8910  -10.5600   20.4890 C   0  0  0  0  0  3  0  0  0  0  0  0
  -26.7350  -11.4770   19.6890 N   0  0  0  0  0  0  0  0  0  0  0  0
  -26.2310  -10.3510   20.3300 N   0  0  0  0  0  2  0  0  0  0  0  0
  -24.1340   -9.2780   20.9770 C   0  0  0  0  0  0  0  0  0  0  0  0
  -24.6040   -8.3440   21.9700 C   0  0  0  0  0  3  0  0  0  0  0  0
  -23.9080   -7.1380   22.3160 C   0  0  0  0  0  3  0  0  0  0  0  0
  -22.7060   -6.7800   21.6570 C   0  0  0  0  0  0  0  0  0  0  0  0
  -22.2720   -7.6450   20.6310 C   0  0  0  0  0  3  0  0  0  0  0  0
  -22.9630   -8.8450   20.3060 C   0  0  0  0  0  3  0  0  0  0  0  0
  -21.9690   -5.6250   21.8810 O   0  0  0  0  0  0  0  0  0  0  0  0
  -21.9000   -4.9800   23.1010 C   0  0  0  0  0  0  0  0  0  0  0  0
  -21.5010   -5.6460   24.2820 C   0  0  0  0  0  3  0  0  0  0  0  0
  -21.3890   -4.9380   25.4980 C   0  0  0  0  0  3  0  0  0  0  0  0
  -21.6630   -3.5570   25.5440 C   0  0  0  0  0  0  0  0  0  0  0  0
  -22.0350   -2.8820   24.3670 C   0  0  0  0  0  3  0  0  0  0  0  0
  -22.1450   -3.5880   23.1540 C   0  0  0  0  0  0  0  0  0  0  0  0
  -22.4790   -2.9140   22.0270 F   0  0  0  0  0  0  0  0  0  0  0  0
  -21.5630   -2.8780   26.7100 F   0  0  0  0  0  0  0  0  0  0  0  0
  -24.0090  -13.4120   20.2040 C   0  0  0  0  0  3  0  0  0  0  0  0
  -24.0490  -14.7360   22.4330 N   0  0  0  0  0  4  0  0  0  0  0  0
  -23.2370  -13.4860   19.2060 O   0  0  0  0  0  1  0  0  0  0  0  0
  -24.7340  -14.5480   23.1490 H   0  0  0  0  0  0  0  0  0  0  0  0
  -23.3830  -15.4930   22.5000 H   0  0  0  0  0  0  0  0  0  0  0  0
  -26.0340  -13.3640   18.4720 N   0  0  0  0  0  0  0  0  0  0  0  0
  -25.2840  -13.9000   18.0530 H   0  0  0  0  0  0  0  0  0  0  0  0
  -26.8950  -13.4420   17.9460 H   0  0  0  0  0  0  0  0  0  0  0  0
  2  1  1  0
  4 83  1  0
  5 50  1  0
  5 83  1  0
  7  9  1  0
  7  8  1  0
 10 21  2  0
 11  9  1  0
 11 16  1  0
 12 20  1  0
 12 22  1  0
 13 19  1  0
 13 15  1  0
 14 20  1  0
 15 16  2  0
 15 14  1  0
 17 18  1  0
 17 11  2  0
 18 13  2  0
 19 12  1  0
 20 10  1  0
 22 24  2  0
 23 22  1  0
 25 23  1  0
 26 35  2  0
 26 31  1  0
 27 23  1  0
 27 31  1  0
 28 27  1  0
 29 30  1  0
 29 28  1  0
 30 26  1  0
 31 32  2  0
 32 33  1  0
 34 33  2  0
 35 34  1  0
 36 10  1  0
 36 41  1  0
 36 37  1  0
 37 40  1  1
 37 38  1  0
 39 37  1  0
 41 44  1  0
 42 41  1  0
 42 46  1  0
 43 42  2  0
 46 45  1  0
 46 48  1  0
 48 49  1  0
 48 47  1  0
 50 51  1  0
 52 53  1  1
 52 58  1  0
 55 56  1  0
 55 54  1  0
 56 65  1  0
 57 52  1  0
 59 52  1  0
 60 51  1  0
 61 60  1  0
 62 87  1  0
 62 65  1  0
 62 63  1  0
 63 82  1  0
 63 64  1  0
 64 67  1  0
 65 66  1  0
 66 64  1  0
 67 68  1  0
 68 69  2  0
 70 73  1  0
 70 69  1  0
 71 70  2  0
 72 71  1  0
 72 67  2  0
 73 74  1  0
 74 79  2  0
 74 75  1  0
 75 76  2  0
 76 77  1  0
 77 81  1  0
 78 77  2  0
 79 78  1  0
 80 79  1  0
 82 84  1  0
 82  4  1  0
 83 86  1  0
 83 85  1  0
 88 87  1  0
 89 87  1  0
M  ISO  4   7 101   9 101  52 100  60 100
M  END
>  <TORSDO>  (62) 
F 20

>  <SCORE>  (62) 
-0.281

>  <name>  (62) 
61

>  <ligand_id>  (62) 
61

>  <original_smiles>  (62) 
[H]C(=NC([H])([H])c1nnn(C([H])([H])C([H])([H])N([H])C(=O)N2C([H])([H])C([H])([H])C([H])([H])C([H])(n3nc(-c4c([H])c([H])c(Oc5c([H])c([H])c(F)c([H])c5F)c([H])c4[H])c(C(=O)N([H])[H])c3N([H])[H])C2([H])[H])c1[H])Oc1c([H])c([H])c2c(c1[H])C([H])([H])N(C(=O)C([H])(N([H])C(=O)C([H])(N([H])C([H])([H])[H])C([H])([H])[H])C(C([H])([H])[H])(C([H])([H])[H])C([H])([H])[H])C([H])(C(=O)N([H])C1([H])c3c([H])c([H])c([H])c([H])c3C([H])([H])C([H])([H])C1([H])[H])C2([H])[H]

>  <smiles>  (62) 
[H]C(=NC([H])([H])c1nnn(C([H])([H])C([H])([H])N([H])C(=O)N2C([H])([H])C([H])([H])C([H])([H])C([H])(n3nc(-c4c([H])c([H])c(Oc5c([H])c([H])c(F)c([H])c5F)c([H])c4[H])c(C(=O)N([H])[H])c3N([H])[H])C2([H])[H])c1[H])Oc1c([H])c([H])c2c(c1[H])C([H])([H])N(C(=O)C([H])(N([H])C(=O)C([H])(N([H])C([H])([H])[H])C([H])([H])[H])C(C([H])([H])[H])(C([H])([H])[H])C([H])([H])[H])C([H])(C(=O)N([H])C1([H])c3c([H])c([H])c([H])c([H])c3C([H])([H])C([H])([H])C1([H])[H])C2([H])[H]

$$$$
62:0:0
     RDKit          3D

 93102  0  0  1  0  0  0  0  0999 V2000
  -29.9840  -22.5060   19.4460 C   0  0  0  0  0  3  0  0  0  0  0  0
  -29.2230  -21.4150   20.0590 C   0  0  0  0  0  0  0  0  0  0  0  0
  -28.0100  -22.1590   20.5160 C   0  0  0  0  0  3  0  0  0  0  0  0
  -28.5740  -24.5140   19.8710 C   0  0  0  0  0  0  0  0  0  0  0  0
  -26.8290  -21.4140   21.1670 C   0  0  0  0  0  1  0  0  0  0  0  0
  -29.6980  -23.9010   19.3860 N   0  0  0  0  0  0  0  0  0  0  0  0
  -27.7420  -23.5750   20.4370 N   0  0  0  0  0  0  0  0  0  0  0  0
  -30.8170  -15.5580   19.5560 C   0  0  0  0  0  0  0  0  0  0  0  0
  -30.7290  -13.1050   18.6300 C   0  0  0  0  0  2  0  0  0  0  0  0
  -29.6740  -12.8480   17.5180 C   0  0  0  0  0  2  0  0  0  0  0  0
  -28.2930  -12.5500   18.1260 C   0  0  0  0  0  2  0  0  0  0  0  0
  -27.9640  -13.5060   19.2970 C   0  0  0  0  0  3  0  0  0  0  0  0
  -29.1300  -13.6890   20.2950 C   0  0  0  0  0  2  0  0  0  0  0  0
  -30.2630  -14.2340   19.5330 N   0  0  0  0  0  0  0  0  0  0  0  0
  -31.9530  -15.5700   19.0540 O   0  0  0  0  0  0  0  0  0  0  0  0
  -28.8740  -18.7460   21.1580 C   0  0  0  0  0  2  0  0  0  0  0  0
  -29.4120  -17.2210   21.1260 C   0  0  0  0  0  2  0  0  0  0  0  0
  -30.1410  -18.3890   19.2860 C   0  0  0  0  0  2  0  0  0  0  0  0
  -29.7880  -19.7240   20.3380 C   0  0  1  0  0  0  0  0  0  0  0  0
  -30.1030  -16.8570   19.8460 N   0  0  0  0  0  0  0  0  0  0  0  0
  -25.7470  -14.0340   20.4310 C   0  0  0  0  0  0  0  0  0  0  0  0
  -24.7300  -13.2450   20.8730 C   0  0  0  0  0  0  0  0  0  0  0  0
  -25.1430  -11.8920   20.6580 C   0  0  0  0  0  0  0  0  0  0  0  0
  -26.7130  -13.1670   19.9590 N   0  0  0  0  0  0  0  0  0  0  0  0
  -26.3750  -11.8670   20.1640 N   0  0  0  0  0  0  0  0  0  0  0  0
  -24.4120  -10.6300   20.8340 C   0  0  0  0  0  0  0  0  0  0  0  0
  -24.8380   -9.6460   21.7550 C   0  0  0  0  0  3  0  0  0  0  0  0
  -24.0940   -8.4600   21.9250 C   0  0  0  0  0  3  0  0  0  0  0  0
  -22.9160   -8.2410   21.1730 C   0  0  0  0  0  0  0  0  0  0  0  0
  -22.5100   -9.2140   20.2450 C   0  0  0  0  0  3  0  0  0  0  0  0
  -23.2530  -10.3930   20.0690 C   0  0  0  0  0  3  0  0  0  0  0  0
  -22.1520   -7.1010   21.2510 O   0  0  0  0  0  0  0  0  0  0  0  0
  -21.9540   -6.4460   22.4420 C   0  0  0  0  0  0  0  0  0  0  0  0
  -21.3520   -7.0820   23.5500 C   0  0  0  0  0  3  0  0  0  0  0  0
  -21.1030   -6.3550   24.7310 C   0  0  0  0  0  3  0  0  0  0  0  0
  -21.4460   -4.9910   24.8040 C   0  0  0  0  0  0  0  0  0  0  0  0
  -22.0410   -4.3540   23.7010 C   0  0  0  0  0  3  0  0  0  0  0  0
  -22.2900   -5.0790   22.5210 C   0  0  0  0  0  0  0  0  0  0  0  0
  -22.8430   -4.4560   21.4520 F   0  0  0  0  0  0  0  0  0  0  0  0
  -21.2020   -4.2880   25.9340 F   0  0  0  0  0  0  0  0  0  0  0  0
  -23.3960  -13.7160   21.3810 C   0  0  0  0  0  0  0  0  0  0  0  0
  -22.7860  -12.9720   22.2950 N   0  0  0  0  0  0  0  0  0  0  0  0
  -22.9170  -14.7850   21.0020 O   0  0  0  0  0  0  0  0  0  0  0  0
  -23.1910  -12.1020   22.6100 H   0  0  0  0  0  0  0  0  0  0  0  0
  -21.9070  -13.2790   22.6870 H   0  0  0  0  0  0  0  0  0  0  0  0
  -25.9350  -15.4140   20.3660 N   0  0  0  0  0  0  0  0  0  0  0  0
  -25.2260  -16.0720   20.6690 H   0  0  0  0  0  0  0  0  0  0  0  0
  -26.7680  -15.8650   20.0150 H   0  0  0  0  0  0  0  0  0  0  0  0
  -31.0330  -19.8780   21.1530 N   0  0  0  0  0  4  0  0  0  0  0  0
  -31.0120  -20.6610   21.7880 H   0  0  0  0  0  0  0  0  0  0  0  0
  -31.8520  -19.9750   20.5690 H   0  0  0  0  0  0  0  0  0  0  0  0
  -31.1830  -19.0550   21.7140 H   0  0  0  0  0  0  0  0  0  0  0  0
  -28.4900  -26.0300   19.9210 O   0  0  0  0  0  0  0  0  0  0  0  0
  -24.6570  -31.7540   23.0660 C   0  0  0  0  0  0  0  0  0  0  0  0
  -27.3920  -27.0490   19.9310 C   0  0  0  0  0  0  0  0  0  0  0  0
  -23.5330  -30.3840   21.3560 C   0  0  0  0  0  3  0  0  0  0  0  0
  -25.0480  -28.8770   19.8890 C   0  0  0  0  0  0  0  0  0  0  0  0
  -26.0870  -30.6800   21.2500 C   0  0  0  0  0  2  0  0  0  0  0  0
  -26.2070  -29.2970   20.5500 C   0  0  0  0  0  0  0  0  0  0  0  0
  -27.3720  -28.4040   20.5430 C   0  0  0  0  0  3  0  0  0  0  0  0
  -26.2050  -26.7980   19.2130 C   0  0  0  0  0  3  0  0  0  0  0  0
  -25.0700  -27.6570   19.1930 C   0  0  0  0  0  3  0  0  0  0  0  0
  -23.8010  -29.7600   19.9600 C   0  0  0  0  0  2  0  0  0  0  0  0
  -24.7810  -30.9660   21.9470 N   0  0  0  0  0  0  0  0  0  0  0  0
  -23.5490  -31.9880   23.5860 O   0  0  0  0  0  0  0  0  0  0  0  0
  -22.8610  -29.3280   22.2730 C   0  0  0  0  0  0  0  0  0  0  0  0
  -21.5320  -29.1290   22.1390 N   0  0  0  0  0  0  0  0  0  0  0  0
  -23.5440  -28.6860   23.0750 O   0  0  0  0  0  0  0  0  0  0  0  0
  -21.0290  -29.7110   21.4820 H   0  0  0  0  0  0  0  0  0  0  0  0
  -18.1800  -27.8300   22.6360 C   0  0  0  0  0  0  0  0  0  0  0  0
  -20.7420  -28.1340   22.8720 C   0  0  0  0  0  3  0  0  0  0  0  0
  -20.8600  -26.7380   22.2190 C   0  0  0  0  0  2  0  0  0  0  0  0
  -19.7460  -26.4530   21.2070 C   0  0  0  0  0  2  0  0  0  0  0  0
  -18.3670  -26.5310   21.8730 C   0  0  0  0  0  2  0  0  0  0  0  0
  -19.2920  -28.5920   23.0900 C   0  0  0  0  0  0  0  0  0  0  0  0
  -19.0550  -29.8120   23.7630 C   0  0  0  0  0  3  0  0  0  0  0  0
  -17.7420  -30.2710   23.9830 C   0  0  0  0  0  3  0  0  0  0  0  0
  -16.6500  -29.5050   23.5450 C   0  0  0  0  0  3  0  0  0  0  0  0
  -16.8670  -28.2880   22.8770 C   0  0  0  0  0  3  0  0  0  0  0  0
  -25.9000  -32.4160   23.7370 C   0  0  0  0  0  3  0  0  0  0  0  0
  -26.4150  -31.6280   25.0060 C   0  0  1  0  0  0  0  0  0  0  0  0
  -25.3120  -31.3260   26.0480 C   0  0  0  0  0  1  0  0  0  0  0  0
  -27.0540  -30.2810   24.6010 C   0  0  0  0  0  1  0  0  0  0  0  0
  -27.5290  -32.4450   25.7060 C   0  0  0  0  0  1  0  0  0  0  0  0
  -25.5310  -33.7920   24.1120 N   0  0  0  0  0  0  0  0  0  0  0  0
  -25.8050  -34.8860   23.3900 C   0  0  0  0  0  0  0  0  0  0  0  0
  -26.4570  -34.8440   22.3420 O   0  0  0  0  0  0  0  0  0  0  0  0
  -24.9670  -33.9030   24.9410 H   0  0  0  0  0  0  0  0  0  0  0  0
  -23.9880  -36.6130   23.1640 C   0  0  0  0  0  1  0  0  0  0  0  0
  -25.2770  -36.2380   23.9090 C   0  0  0  0  0  3  0  0  0  0  0  0
  -27.3910  -37.2100   24.6880 C   0  0  0  0  0  1  0  0  0  0  0  0
  -26.2570  -37.3410   23.7790 N   0  0  0  0  0  0  0  0  0  0  0  0
  -25.8140  -38.2400   23.9560 H   0  0  0  0  0  0  0  0  0  0  0  0
  1  2  2  0
  2 19  1  0
  2  3  1  0
  3  5  1  0
  4 53  1  0
  4  7  2  0
  6  1  1  0
  6  4  2  0
  7  3  1  0
  8 20  1  0
  9 14  1  0
 10 11  1  0
 10  9  1  0
 12 11  1  0
 12 24  1  0
 12 13  1  0
 14  8  1  0
 14 13  1  0
 15  8  2  0
 17 16  1  0
 18 20  1  0
 18 19  1  0
 19 49  1  1
 19 16  1  0
 20 17  1  0
 21 22  2  0
 22 41  1  0
 23 26  1  0
 23 22  1  0
 24 25  1  0
 24 21  1  0
 25 23  2  0
 26 27  1  0
 27 28  2  0
 29 32  1  0
 29 28  1  0
 30 29  2  0
 31 30  1  0
 31 26  2  0
 32 33  1  0
 33 38  2  0
 33 34  1  0
 34 35  2  0
 35 36  1  0
 36 40  1  0
 37 36  2  0
 38 37  1  0
 39 38  1  0
 41 42  1  0
 42 44  1  0
 42 45  1  0
 43 41  2  0
 46 21  1  0
 46 47  1  0
 48 46  1  0
 49 52  1  0
 49 50  1  0
 51 49  1  0
 53 55  1  0
 54 65  2  0
 55 60  1  0
 56 64  1  0
 56 66  1  0
 57 63  1  0
 57 59  1  0
 58 64  1  0
 59 58  1  0
 60 59  2  0
 61 55  2  0
 62 61  1  0
 62 57  2  0
 63 56  1  0
 64 54  1  0
 66 68  2  0
 67 66  1  0
 69 67  1  0
 70 79  2  0
 70 75  1  0
 71 67  1  0
 71 75  1  0
 72 71  1  0
 73 74  1  0
 73 72  1  0
 74 70  1  0
 75 76  2  0
 76 77  1  0
 78 77  2  0
 79 78  1  0
 80 54  1  0
 80 85  1  0
 80 81  1  0
 81 84  1  1
 81 82  1  0
 83 81  1  0
 85 88  1  0
 86 90  1  0
 86 85  1  0
 87 86  2  0
 90 89  1  0
 92 90  1  0
 92 93  1  0
 92 91  1  0
M  ISO  4   4 101   8 100  20 100  53 101
M  END
>  <TORSDO>  (63) 
F 17

>  <SCORE>  (63) 
-12.483

>  <name>  (63) 
62

>  <ligand_id>  (63) 
62

>  <original_smiles>  (63) 
[H]c1nc(Oc2c([H])c([H])c3c(c2[H])C([H])([H])N(C(=O)C([H])(N([H])C(=O)C([H])(N([H])C([H])([H])[H])C([H])([H])[H])C(C([H])([H])[H])(C([H])([H])[H])C([H])([H])[H])C([H])(C(=O)N([H])C2([H])c4c([H])c([H])c([H])c([H])c4C([H])([H])C([H])([H])C2([H])[H])C3([H])[H])nc(C([H])([H])[H])c1C1([N+]([H])([H])[H])C([H])([H])N(C(=O)N2C([H])([H])C([H])([H])C([H])([H])C([H])(n3nc(-c4c([H])c([H])c(Oc5c([H])c([H])c(F)c([H])c5F)c([H])c4[H])c(C(=O)N([H])[H])c3N([H])[H])C2([H])[H])C([H])([H])C1([H])[H]

>  <smiles>  (63) 
[H]c1nc(Oc2c([H])c([H])c3c(c2[H])C([H])([H])N(C(=O)C([H])(N([H])C(=O)C([H])(N([H])C([H])([H])[H])C([H])([H])[H])C(C([H])([H])[H])(C([H])([H])[H])C([H])([H])[H])C([H])(C(=O)N([H])C2([H])c4c([H])c([H])c([H])c([H])c4C([H])([H])C([H])([H])C2([H])[H])C3([H])[H])nc(C([H])([H])[H])c1C1([N+]([H])([H])[H])C([H])([H])N(C(=O)N2C([H])([H])C([H])([H])C([H])([H])C([H])(n3nc(-c4c([H])c([H])c(Oc5c([H])c([H])c(F)c([H])c5F)c([H])c4[H])c(C(=O)N([H])[H])c3N([H])[H])C2([H])[H])C([H])([H])C1([H])[H]

$$$$
63:0:0
     RDKit          3D

 94103  0  0  1  0  0  0  0  0999 V2000
  -31.8180  -14.7280   19.7510 C   0  0  0  0  0  0  0  0  0  0  0  0
  -31.3470  -12.4570   18.7790 C   0  0  0  0  0  2  0  0  0  0  0  0
  -30.3480  -12.5640   17.6040 C   0  0  0  0  0  2  0  0  0  0  0  0
  -28.8900  -12.6010   18.1050 C   0  0  0  0  0  2  0  0  0  0  0  0
  -28.6830  -13.5710   19.2970 C   0  0  0  0  0  3  0  0  0  0  0  0
  -29.7730  -13.3920   20.3720 C   0  0  0  0  0  2  0  0  0  0  0  0
  -31.0620  -13.5770   19.7010 N   0  0  0  0  0  0  0  0  0  0  0  0
  -33.0350  -14.6510   19.5270 O   0  0  0  0  0  0  0  0  0  0  0  0
  -30.7160  -18.6080   21.9110 C   0  0  0  0  0  0  0  0  0  0  0  0
  -31.0870  -19.6260   19.9520 C   0  0  0  0  0  0  0  0  0  0  0  0
  -31.2290  -17.2820   20.1630 C   0  0  0  0  0  0  0  0  0  0  0  0
  -30.8140  -19.7580   21.2440 N   0  0  0  0  0  4  0  0  0  0  0  0
  -30.9260  -17.3740   21.4540 N   0  0  0  0  0  0  0  0  0  0  0  0
  -31.2700  -18.3960   19.3520 N   0  0  0  0  0  2  0  0  0  0  0  0
  -31.1190  -15.9410   19.6430 N   0  0  0  0  0  0  0  0  0  0  0  0
  -30.1690  -15.7500   19.3770 H   0  0  0  0  0  0  0  0  0  0  0  0
  -26.4650  -14.5260   20.1480 C   0  0  0  0  0  0  0  0  0  0  0  0
  -25.3050  -13.9290   20.5570 C   0  0  0  0  0  0  0  0  0  0  0  0
  -25.5430  -12.5220   20.4940 C   0  0  0  0  0  0  0  0  0  0  0  0
  -27.3380  -13.4930   19.8530 N   0  0  0  0  0  0  0  0  0  0  0  0
  -26.7940  -12.2800   20.1260 N   0  0  0  0  0  0  0  0  0  0  0  0
  -24.6310  -11.3910   20.7010 C   0  0  0  0  0  0  0  0  0  0  0  0
  -24.9740  -10.3100   21.5410 C   0  0  0  0  0  3  0  0  0  0  0  0
  -24.0730   -9.2410   21.7400 C   0  0  0  0  0  3  0  0  0  0  0  0
  -22.8130   -9.2480   21.0960 C   0  0  0  0  0  0  0  0  0  0  0  0
  -22.4860  -10.3140   20.2410 C   0  0  0  0  0  3  0  0  0  0  0  0
  -23.3850  -11.3750   20.0410 C   0  0  0  0  0  3  0  0  0  0  0  0
  -21.8820   -8.2410   21.2070 O   0  0  0  0  0  0  0  0  0  0  0  0
  -21.8620   -7.4000   22.2910 C   0  0  0  0  0  0  0  0  0  0  0  0
  -21.6680   -7.8820   23.6040 C   0  0  0  0  0  3  0  0  0  0  0  0
  -21.5830   -6.9760   24.6800 C   0  0  0  0  0  3  0  0  0  0  0  0
  -21.6820   -5.5910   24.4450 C   0  0  0  0  0  0  0  0  0  0  0  0
  -21.8720   -5.1090   23.1380 C   0  0  0  0  0  3  0  0  0  0  0  0
  -21.9580   -6.0120   22.0640 C   0  0  0  0  0  0  0  0  0  0  0  0
  -22.1170   -5.5430   20.8020 F   0  0  0  0  0  0  0  0  0  0  0  0
  -21.5950   -4.7190   25.4770 F   0  0  0  0  0  0  0  0  0  0  0  0
  -24.0150  -14.6240   20.8870 C   0  0  0  0  0  0  0  0  0  0  0  0
  -23.2620  -14.0960   21.8470 N   0  0  0  0  0  0  0  0  0  0  0  0
  -23.6890  -15.6670   20.3240 O   0  0  0  0  0  0  0  0  0  0  0  0
  -23.5410  -13.2580   22.3310 H   0  0  0  0  0  0  0  0  0  0  0  0
  -22.3940  -14.5460   22.1020 H   0  0  0  0  0  0  0  0  0  0  0  0
  -26.8330  -15.8570   19.9720 N   0  0  0  0  0  0  0  0  0  0  0  0
  -26.1560  -16.6040   20.0960 H   0  0  0  0  0  0  0  0  0  0  0  0
  -27.6830  -16.1700   19.5260 H   0  0  0  0  0  0  0  0  0  0  0  0
  -30.5670  -19.7230   24.2880 C   0  0  0  0  0  2  0  0  0  0  0  0
  -30.7190  -18.2470   24.5450 C   0  0  0  0  0  2  0  0  0  0  0  0
  -30.0660  -18.7240   23.2650 C   0  0  0  0  0  3  0  0  0  0  0  0
  -31.0180  -21.0220   19.1490 C   0  0  0  0  0  2  0  0  0  0  0  0
  -30.9740  -22.3440   19.9500 N   0  0  0  0  0  4  0  0  0  0  0  0
  -30.8120  -21.9630   20.8740 H   0  0  0  0  0  0  0  0  0  0  0  0
  -31.9100  -22.7100   19.9760 H   0  0  0  0  0  0  0  0  0  0  0  0
  -29.9270  -23.4940   19.7630 C   0  0  0  0  0  2  0  0  0  0  0  0
  -30.3390  -25.0260   19.3470 C   0  0  0  0  0  2  0  0  0  0  0  0
  -29.8680  -26.3320   19.9690 O   0  0  0  0  0  0  0  0  0  0  0  0
  -25.0290  -30.8610   22.9120 C   0  0  0  0  0  0  0  0  0  0  0  0
  -28.6250  -26.9950   19.8120 C   0  0  0  0  0  0  0  0  0  0  0  0
  -24.2220  -29.4210   21.0760 C   0  0  0  0  0  3  0  0  0  0  0  0
  -26.0280  -28.2370   19.6850 C   0  0  0  0  0  0  0  0  0  0  0  0
  -26.6780  -30.1510   21.1490 C   0  0  0  0  0  2  0  0  0  0  0  0
  -27.0440  -28.8510   20.4250 C   0  0  0  0  0  0  0  0  0  0  0  0
  -28.3380  -28.2390   20.4800 C   0  0  0  0  0  3  0  0  0  0  0  0
  -27.5800  -26.4460   19.0400 C   0  0  0  0  0  3  0  0  0  0  0  0
  -26.3020  -27.0500   18.9820 C   0  0  0  0  0  3  0  0  0  0  0  0
  -24.6580  -28.8970   19.6790 C   0  0  0  0  0  2  0  0  0  0  0  0
  -25.3210  -30.1640   21.7720 N   0  0  0  0  0  0  0  0  0  0  0  0
  -23.8740  -30.9090   23.3610 O   0  0  0  0  0  0  0  0  0  0  0  0
  -23.6640  -28.2390   21.9050 C   0  0  0  0  0  0  0  0  0  0  0  0
  -22.3860  -27.8850   21.6760 N   0  0  0  0  0  0  0  0  0  0  0  0
  -24.3820  -27.6450   22.7120 O   0  0  0  0  0  0  0  0  0  0  0  0
  -21.8560  -28.4290   21.0070 H   0  0  0  0  0  0  0  0  0  0  0  0
  -19.1790  -26.2250   21.9190 C   0  0  0  0  0  0  0  0  0  0  0  0
  -21.6770  -26.7690   22.3060 C   0  0  0  0  0  3  0  0  0  0  0  0
  -21.9730  -25.4380   21.5780 C   0  0  0  0  0  2  0  0  0  0  0  0
  -20.9430  -25.0990   20.4940 C   0  0  0  0  0  2  0  0  0  0  0  0
  -19.5410  -24.9960   21.1010 C   0  0  0  0  0  2  0  0  0  0  0  0
  -20.1820  -27.0670   22.4710 C   0  0  0  0  0  0  0  0  0  0  0  0
  -19.7890  -28.2140   23.1940 C   0  0  0  0  0  3  0  0  0  0  0  0
  -18.4280  -28.5240   23.3700 C   0  0  0  0  0  3  0  0  0  0  0  0
  -17.4400  -27.6800   22.8310 C   0  0  0  0  0  3  0  0  0  0  0  0
  -17.8160  -26.5320   22.1130 C   0  0  0  0  0  3  0  0  0  0  0  0
  -26.1270  -31.6460   23.6970 C   0  0  0  0  0  3  0  0  0  0  0  0
  -26.6670  -30.8650   24.9580 C   0  0  1  0  0  0  0  0  0  0  0  0
  -25.5500  -30.3450   25.8930 C   0  0  0  0  0  1  0  0  0  0  0  0
  -27.5190  -29.6530   24.5190 C   0  0  0  0  0  1  0  0  0  0  0  0
  -27.5990  -31.7820   25.7870 C   0  0  0  0  0  1  0  0  0  0  0  0
  -25.5480  -32.9380   24.1050 N   0  0  0  0  0  0  0  0  0  0  0  0
  -25.7810  -34.1060   23.4920 C   0  0  0  0  0  0  0  0  0  0  0  0
  -26.5690  -34.2190   22.5480 O   0  0  0  0  0  0  0  0  0  0  0  0
  -24.8590  -32.9130   24.8430 H   0  0  0  0  0  0  0  0  0  0  0  0
  -23.8380  -35.6450   23.0650 C   0  0  0  0  0  1  0  0  0  0  0  0
  -25.0190  -35.3460   24.0040 C   0  0  0  0  0  3  0  0  0  0  0  0
  -26.8620  -36.4360   25.2040 C   0  0  0  0  0  1  0  0  0  0  0  0
  -25.8700  -36.5480   24.1360 N   0  0  0  0  0  0  0  0  0  0  0  0
  -25.3050  -37.3730   24.3140 H   0  0  0  0  0  0  0  0  0  0  0  0
  2  7  1  0
  3  4  1  0
  3  2  1  0
  5  4  1  0
  5 20  1  0
  5  6  1  0
  7  1  1  0
  7  6  1  0
  8  1  2  0
  9 47  1  0
 10 12  2  0
 11 13  2  0
 12  9  2  0
 13  9  1  0
 14 10  1  0
 14 11  1  0
 15  1  1  0
 15 11  1  0
 16 15  1  0
 17 18  2  0
 18 37  1  0
 19 18  1  0
 19 22  1  0
 20 21  1  0
 20 17  1  0
 21 19  2  0
 22 23  1  0
 23 24  2  0
 25 28  1  0
 25 24  1  0
 26 25  2  0
 27 26  1  0
 27 22  2  0
 28 29  1  0
 29 30  1  0
 30 31  2  0
 32 31  1  0
 32 36  1  0
 33 32  2  0
 34 29  2  0
 34 33  1  0
 35 34  1  0
 37 38  1  0
 38 41  1  0
 38 40  1  0
 39 37  2  0
 42 43  1  0
 42 17  1  0
 44 42  1  0
 45 46  1  0
 47 45  1  0
 47 46  1  0
 48 49  1  0
 48 10  1  0
 49 51  1  0
 49 50  1  0
 52 49  1  0
 53 52  1  0
 53 54  1  0
 55 66  2  0
 56 54  1  0
 56 61  1  0
 57 65  1  0
 57 67  1  0
 58 60  1  0
 59 65  1  0
 60 61  2  0
 60 59  1  0
 62 56  2  0
 63 62  1  0
 63 58  2  0
 64 58  1  0
 64 57  1  0
 65 55  1  0
 67 69  2  0
 68 67  1  0
 70 68  1  0
 71 80  2  0
 71 76  1  0
 72 68  1  0
 72 76  1  0
 73 72  1  0
 74 75  1  0
 74 73  1  0
 75 71  1  0
 76 77  2  0
 77 78  1  0
 79 78  2  0
 80 79  1  0
 81 55  1  0
 81 86  1  0
 81 82  1  0
 82 85  1  1
 82 83  1  0
 84 82  1  0
 86 89  1  0
 87 91  1  0
 87 86  1  0
 88 87  2  0
 91 90  1  0
 91 93  1  0
 93 94  1  0
 93 92  1  0
M  ISO  4   1 100  15 100  53 101  54 101
M  END
>  <TORSDO>  (64) 
F 20

>  <SCORE>  (64) 
-7.044

>  <name>  (64) 
63

>  <ligand_id>  (64) 
63

>  <original_smiles>  (64) 
[H]c1c([H])c([H])c2c(c1[H])C([H])([H])C([H])([H])C([H])([H])C2([H])N([H])C(=O)C1([H])N(C(=O)C([H])(N([H])C(=O)C([H])(N([H])C([H])([H])[H])C([H])([H])[H])C(C([H])([H])[H])(C([H])([H])[H])C([H])([H])[H])C([H])([H])c2c([H])c(OC([H])([H])C([H])([H])[N+]([H])([H])C([H])([H])c3nc(N([H])C(=O)N4C([H])([H])C([H])([H])C([H])([H])C([H])(n5nc(-c6c([H])c([H])c(Oc7c([H])c([H])c(F)c([H])c7F)c([H])c6[H])c(C(=O)N([H])[H])c5N([H])[H])C4([H])[H])nc(C4([H])C([H])([H])C4([H])[H])n3)c([H])c([H])c2C1([H])[H]

>  <smiles>  (64) 
[H]c1c([H])c([H])c2c(c1[H])C([H])([H])C([H])([H])C([H])([H])C2([H])N([H])C(=O)C1([H])N(C(=O)C([H])(N([H])C(=O)C([H])(N([H])C([H])([H])[H])C([H])([H])[H])C(C([H])([H])[H])(C([H])([H])[H])C([H])([H])[H])C([H])([H])c2c([H])c(OC([H])([H])C([H])([H])[N+]([H])([H])C([H])([H])c3nc(N([H])C(=O)N4C([H])([H])C([H])([H])C([H])([H])C([H])(n5nc(-c6c([H])c([H])c(Oc7c([H])c([H])c(F)c([H])c7F)c([H])c6[H])c(C(=O)N([H])[H])c5N([H])[H])C4([H])[H])nc(C4([H])C([H])([H])C4([H])[H])n3)c([H])c([H])c2C1([H])[H]

$$$$
64:0:0
     RDKit          3D

 87 95  0  0  1  0  0  0  0  0999 V2000
  -28.7160  -22.7690   20.5600 C   0  0  0  0  0  0  0  0  0  0  0  0
  -28.8250  -21.3870   20.0080 N   0  0  0  0  0  0  0  0  0  0  0  0
  -29.1190  -22.9000   21.7180 O   0  0  0  0  0  0  0  0  0  0  0  0
  -28.5340  -21.3790   19.0390 H   0  0  0  0  0  0  0  0  0  0  0  0
  -28.4080  -18.8270   19.7080 C   0  0  0  0  0  2  0  0  0  0  0  0
  -29.1040  -19.8450   20.5700 C   0  0  0  0  0  3  0  0  0  0  0  0
  -29.7450  -18.2190   20.0350 C   0  0  0  0  0  3  0  0  0  0  0  0
  -30.3740  -15.3350   20.2160 C   0  0  0  0  0  0  0  0  0  0  0  0
  -30.3540  -12.8780   19.3550 C   0  0  0  0  0  2  0  0  0  0  0  0
  -29.4280  -12.6710   18.1300 C   0  0  0  0  0  2  0  0  0  0  0  0
  -27.9830  -12.3940   18.5800 C   0  0  0  0  0  2  0  0  0  0  0  0
  -27.5400  -13.3550   19.7100 C   0  0  0  0  0  3  0  0  0  0  0  0
  -28.5950  -13.5070   20.8280 C   0  0  0  0  0  2  0  0  0  0  0  0
  -29.8200  -14.0190   20.1930 N   0  0  0  0  0  0  0  0  0  0  0  0
  -31.5780  -15.3430   19.9180 O   0  0  0  0  0  0  0  0  0  0  0  0
  -29.5970  -16.5990   20.3760 N   0  0  0  0  0  0  0  0  0  0  0  0
  -28.6580  -16.3760   20.6700 H   0  0  0  0  0  0  0  0  0  0  0  0
  -25.1730  -13.9080   20.4790 C   0  0  0  0  0  0  0  0  0  0  0  0
  -24.1160  -13.1310   20.8570 C   0  0  0  0  0  0  0  0  0  0  0  0
  -24.5840  -11.7810   20.8240 C   0  0  0  0  0  0  0  0  0  0  0  0
  -26.2160  -13.0360   20.2280 N   0  0  0  0  0  0  0  0  0  0  0  0
  -25.8740  -11.7500   20.5040 N   0  0  0  0  0  0  0  0  0  0  0  0
  -23.8610  -10.5180   21.0190 C   0  0  0  0  0  0  0  0  0  0  0  0
  -24.3010   -9.5470   21.9460 C   0  0  0  0  0  3  0  0  0  0  0  0
  -23.5740   -8.3520   22.1310 C   0  0  0  0  0  3  0  0  0  0  0  0
  -22.3910   -8.1170   21.3900 C   0  0  0  0  0  0  0  0  0  0  0  0
  -21.9690   -9.0770   20.4520 C   0  0  0  0  0  3  0  0  0  0  0  0
  -22.6970  -10.2630   20.2650 C   0  0  0  0  0  3  0  0  0  0  0  0
  -21.6340   -6.9740   21.4860 O   0  0  0  0  0  0  0  0  0  0  0  0
  -21.6030   -6.2260   22.6350 C   0  0  0  0  0  0  0  0  0  0  0  0
  -21.1980   -6.7740   23.8710 C   0  0  0  0  0  3  0  0  0  0  0  0
  -21.1130   -5.9520   25.0120 C   0  0  0  0  0  3  0  0  0  0  0  0
  -21.4240   -4.5830   24.9200 C   0  0  0  0  0  0  0  0  0  0  0  0
  -21.8220   -4.0330   23.6880 C   0  0  0  0  0  3  0  0  0  0  0  0
  -21.9080   -4.8530   22.5480 C   0  0  0  0  0  0  0  0  0  0  0  0
  -22.2710   -4.3130   21.3600 F   0  0  0  0  0  0  0  0  0  0  0  0
  -21.3360   -3.7910   26.0140 F   0  0  0  0  0  0  0  0  0  0  0  0
  -22.7190  -13.6060   21.1320 C   0  0  0  0  0  0  0  0  0  0  0  0
  -21.9970  -12.9140   22.0060 N   0  0  0  0  0  0  0  0  0  0  0  0
  -22.2790  -14.6280   20.6070 O   0  0  0  0  0  0  0  0  0  0  0  0
  -22.3680  -12.0880   22.4520 H   0  0  0  0  0  0  0  0  0  0  0  0
  -21.0600  -13.2140   22.2320 H   0  0  0  0  0  0  0  0  0  0  0  0
  -25.3300  -15.2800   20.2950 N   0  0  0  0  0  0  0  0  0  0  0  0
  -24.5560  -15.9270   20.4010 H   0  0  0  0  0  0  0  0  0  0  0  0
  -26.1560  -15.7130   19.9060 H   0  0  0  0  0  0  0  0  0  0  0  0
  -28.0360  -24.2510   19.8750 C   0  0  0  0  0  2  0  0  0  0  0  0
  -28.1850  -25.8380   20.3420 O   0  0  0  0  0  0  0  0  0  0  0  0
  -24.6400  -31.8670   23.2210 C   0  0  0  0  0  0  0  0  0  0  0  0
  -27.1900  -26.9550   20.2290 C   0  0  0  0  0  0  0  0  0  0  0  0
  -23.4460  -30.4650   21.5890 C   0  0  0  0  0  3  0  0  0  0  0  0
  -24.8940  -28.8510   20.1700 C   0  0  0  0  0  0  0  0  0  0  0  0
  -26.0120  -30.6660   21.4460 C   0  0  0  0  0  2  0  0  0  0  0  0
  -26.0810  -29.2510   20.7970 C   0  0  0  0  0  0  0  0  0  0  0  0
  -27.2190  -28.3230   20.8050 C   0  0  0  0  0  3  0  0  0  0  0  0
  -25.9770  -26.7170   19.5410 C   0  0  0  0  0  3  0  0  0  0  0  0
  -24.8690  -27.6050   19.5220 C   0  0  0  0  0  3  0  0  0  0  0  0
  -23.6760  -29.7740   20.2160 C   0  0  0  0  0  2  0  0  0  0  0  0
  -24.7210  -31.0270   22.1390 N   0  0  0  0  0  0  0  0  0  0  0  0
  -23.5510  -32.1630   23.7390 O   0  0  0  0  0  0  0  0  0  0  0  0
  -22.7480  -29.4760   22.5600 C   0  0  0  0  0  0  0  0  0  0  0  0
  -21.4160  -29.3170   22.4390 N   0  0  0  0  0  0  0  0  0  0  0  0
  -23.4110  -28.8540   23.3930 O   0  0  0  0  0  0  0  0  0  0  0  0
  -20.9330  -29.8720   21.7450 H   0  0  0  0  0  0  0  0  0  0  0  0
  -18.0310  -28.1170   22.9550 C   0  0  0  0  0  0  0  0  0  0  0  0
  -20.5910  -28.3860   23.2150 C   0  0  0  0  0  3  0  0  0  0  0  0
  -20.6920  -26.9500   22.6500 C   0  0  0  0  0  2  0  0  0  0  0  0
  -19.5890  -26.6220   21.6370 C   0  0  0  0  0  2  0  0  0  0  0  0
  -18.2080  -26.7660   22.2820 C   0  0  0  0  0  2  0  0  0  0  0  0
  -19.1500  -28.8840   23.3790 C   0  0  0  0  0  0  0  0  0  0  0  0
  -18.9280  -30.1450   23.9730 C   0  0  0  0  0  3  0  0  0  0  0  0
  -17.6210  -30.6420   24.1430 C   0  0  0  0  0  3  0  0  0  0  0  0
  -16.5180  -29.8740   23.7330 C   0  0  0  0  0  3  0  0  0  0  0  0
  -16.7230  -28.6130   23.1450 C   0  0  0  0  0  3  0  0  0  0  0  0
  -25.9110  -32.5130   23.8520 C   0  0  0  0  0  3  0  0  0  0  0  0
  -25.5960  -33.9150   24.1760 N   0  0  0  0  0  0  0  0  0  0  0  0
  -25.9240  -34.9720   23.4210 C   0  0  0  0  0  0  0  0  0  0  0  0
  -26.5860  -34.8680   22.3850 O   0  0  0  0  0  0  0  0  0  0  0  0
  -25.0050  -34.0690   24.9800 H   0  0  0  0  0  0  0  0  0  0  0  0
  -24.1900  -36.7700   23.0970 C   0  0  0  0  0  1  0  0  0  0  0  0
  -25.4460  -36.3640   23.8860 C   0  0  0  0  0  3  0  0  0  0  0  0
  -27.5930  -37.2560   24.6770 C   0  0  0  0  0  1  0  0  0  0  0  0
  -26.4750  -37.4180   23.7520 N   0  0  0  0  0  0  0  0  0  0  0  0
  -26.0710  -38.3390   23.9000 H   0  0  0  0  0  0  0  0  0  0  0  0
  -26.4120  -31.7570   25.1460 C   0  0  1  0  0  0  0  0  0  0  0  0
  -25.3080  -31.5410   26.2080 C   0  0  0  0  0  1  0  0  0  0  0  0
  -26.9910  -30.3700   24.7870 C   0  0  0  0  0  1  0  0  0  0  0  0
  -27.5610  -32.5550   25.8060 C   0  0  0  0  0  1  0  0  0  0  0  0
  1  3  2  0
  2  1  1  0
  4  2  1  0
  5  7  1  0
  5  6  1  0
  6  2  1  0
  7 16  1  0
  7  6  1  0
  8 16  1  0
  9 14  1  0
 10 11  1  0
 10  9  1  0
 12 11  1  0
 12 21  1  0
 12 13  1  0
 14  8  1  0
 14 13  1  0
 15  8  2  0
 16 17  1  0
 18 19  2  0
 19 38  1  0
 20 19  1  0
 20 23  1  0
 21 18  1  0
 21 22  1  0
 22 20  2  0
 23 24  1  0
 24 25  2  0
 26 29  1  0
 26 25  1  0
 27 26  2  0
 28 27  1  0
 28 23  2  0
 29 30  1  0
 30 31  1  0
 31 32  2  0
 33 32  1  0
 33 37  1  0
 34 33  2  0
 35 30  2  0
 35 34  1  0
 36 35  1  0
 38 39  1  0
 39 42  1  0
 39 41  1  0
 40 38  2  0
 43 44  1  0
 43 18  1  0
 45 43  1  0
 46 47  1  0
 46  1  1  0
 48 59  2  0
 49 47  1  0
 49 54  1  0
 50 58  1  0
 50 60  1  0
 51 57  1  0
 51 53  1  0
 52 58  1  0
 53 54  2  0
 53 52  1  0
 55 49  2  0
 56 55  1  0
 56 51  2  0
 57 50  1  0
 58 48  1  0
 60 62  2  0
 61 60  1  0
 63 61  1  0
 64 73  2  0
 64 69  1  0
 65 61  1  0
 65 69  1  0
 66 65  1  0
 67 68  1  0
 67 66  1  0
 68 64  1  0
 69 70  2  0
 70 71  1  0
 72 71  2  0
 73 72  1  0
 74 48  1  0
 74 75  1  0
 74 84  1  0
 75 78  1  0
 76 80  1  0
 76 75  1  0
 77 76  2  0
 80 79  1  0
 82 80  1  0
 82 83  1  0
 82 81  1  0
 84 87  1  1
 84 85  1  0
 86 84  1  0
M  ISO  4   8 100  16 100  46 101  47 101
M  END
>  <TORSDO>  (65) 
F 18

>  <SCORE>  (65) 
-15.543

>  <name>  (65) 
64

>  <ligand_id>  (65) 
64

>  <original_smiles>  (65) 
[H]c1c([H])c([H])c2c(c1[H])C([H])([H])C([H])([H])C([H])([H])C2([H])N([H])C(=O)C1([H])N(C(=O)C([H])(N([H])C(=O)C([H])(N([H])C([H])([H])[H])C([H])([H])[H])C(C([H])([H])[H])(C([H])([H])[H])C([H])([H])[H])C([H])([H])c2c([H])c(OC([H])([H])C(=O)N([H])C3([H])C([H])([H])C3([H])N([H])C(=O)N3C([H])([H])C([H])([H])C([H])([H])C([H])(n4nc(-c5c([H])c([H])c(Oc6c([H])c([H])c(F)c([H])c6F)c([H])c5[H])c(C(=O)N([H])[H])c4N([H])[H])C3([H])[H])c([H])c([H])c2C1([H])[H]

>  <smiles>  (65) 
[H]c1c([H])c([H])c2c(c1[H])C([H])([H])C([H])([H])C([H])([H])C2([H])N([H])C(=O)C1([H])N(C(=O)C([H])(N([H])C(=O)C([H])(N([H])C([H])([H])[H])C([H])([H])[H])C(C([H])([H])[H])(C([H])([H])[H])C([H])([H])[H])C([H])([H])c2c([H])c(OC([H])([H])C(=O)N([H])C3([H])C([H])([H])C3([H])N([H])C(=O)N3C([H])([H])C([H])([H])C([H])([H])C([H])(n4nc(-c5c([H])c([H])c(Oc6c([H])c([H])c(F)c([H])c6F)c([H])c5[H])c(C(=O)N([H])[H])c4N([H])[H])C3([H])[H])c([H])c([H])c2C1([H])[H]

$$$$
65:0:0
     RDKit          3D

 92100  0  0  1  0  0  0  0  0999 V2000
  -29.0130  -21.6560   20.5430 C   0  0  0  0  0  2  0  0  0  0  0  0
  -29.1480  -22.8640   19.7020 N   0  0  0  0  0  0  0  0  0  0  0  0
  -28.7600  -22.6770   18.7790 H   0  0  0  0  0  0  0  0  0  0  0  0
  -28.4950  -24.0660   20.2690 C   0  0  0  0  0  2  0  0  0  0  0  0
  -28.6540  -25.3350   19.3660 C   0  0  0  0  0  2  0  0  0  0  0  0
  -28.4660  -26.6100   20.0290 O   0  0  0  0  0  0  0  0  0  0  0  0
  -24.5750  -31.7680   23.0580 C   0  0  0  0  0  0  0  0  0  0  0  0
  -27.2610  -27.2970   20.0060 C   0  0  0  0  0  0  0  0  0  0  0  0
  -23.3760  -30.3240   21.4480 C   0  0  0  0  0  3  0  0  0  0  0  0
  -24.8380  -28.7870   20.0270 C   0  0  0  0  0  0  0  0  0  0  0  0
  -25.8950  -30.7130   21.2180 C   0  0  0  0  0  2  0  0  0  0  0  0
  -25.9950  -29.3320   20.5950 C   0  0  0  0  0  0  0  0  0  0  0  0
  -27.2030  -28.5930   20.5810 C   0  0  0  0  0  3  0  0  0  0  0  0
  -26.0780  -26.7680   19.4420 C   0  0  0  0  0  3  0  0  0  0  0  0
  -24.8760  -27.5050   19.4490 C   0  0  0  0  0  3  0  0  0  0  0  0
  -23.5820  -29.6300   20.0750 C   0  0  0  0  0  2  0  0  0  0  0  0
  -24.6330  -30.9530   21.9650 N   0  0  0  0  0  0  0  0  0  0  0  0
  -23.4960  -32.0280   23.6070 O   0  0  0  0  0  0  0  0  0  0  0  0
  -22.7510  -29.3050   22.4310 C   0  0  0  0  0  0  0  0  0  0  0  0
  -21.4350  -29.0760   22.3030 N   0  0  0  0  0  0  0  0  0  0  0  0
  -23.4510  -28.7230   23.2650 O   0  0  0  0  0  0  0  0  0  0  0  0
  -20.9280  -29.6020   21.6030 H   0  0  0  0  0  0  0  0  0  0  0  0
  -18.1060  -27.7560   22.7900 C   0  0  0  0  0  0  0  0  0  0  0  0
  -20.6450  -28.1300   23.0920 C   0  0  0  0  0  3  0  0  0  0  0  0
  -20.8160  -26.6870   22.5650 C   0  0  0  0  0  2  0  0  0  0  0  0
  -19.7460  -26.2860   21.5440 C   0  0  0  0  0  2  0  0  0  0  0  0
  -18.3480  -26.3950   22.1600 C   0  0  0  0  0  2  0  0  0  0  0  0
  -19.1830  -28.5770   23.2130 C   0  0  0  0  0  0  0  0  0  0  0  0
  -18.9030  -29.8480   23.7600 C   0  0  0  0  0  3  0  0  0  0  0  0
  -17.5760  -30.3000   23.8880 C   0  0  0  0  0  3  0  0  0  0  0  0
  -16.5120  -29.4770   23.4830 C   0  0  0  0  0  3  0  0  0  0  0  0
  -16.7760  -28.2060   22.9390 C   0  0  0  0  0  3  0  0  0  0  0  0
  -25.8570  -32.4310   23.6540 C   0  0  0  0  0  3  0  0  0  0  0  0
  -25.5040  -33.7990   24.0560 N   0  0  0  0  0  0  0  0  0  0  0  0
  -25.7590  -34.8950   23.3300 C   0  0  0  0  0  0  0  0  0  0  0  0
  -26.3910  -34.8630   22.2700 O   0  0  0  0  0  0  0  0  0  0  0  0
  -24.9390  -33.8950   24.8880 H   0  0  0  0  0  0  0  0  0  0  0  0
  -23.9470  -36.6250   23.1100 C   0  0  0  0  0  1  0  0  0  0  0  0
  -25.2310  -36.2400   23.8640 C   0  0  0  0  0  3  0  0  0  0  0  0
  -27.3520  -37.1800   24.6650 C   0  0  0  0  0  1  0  0  0  0  0  0
  -26.2140  -37.3400   23.7640 N   0  0  0  0  0  0  0  0  0  0  0  0
  -25.7750  -38.2350   23.9630 H   0  0  0  0  0  0  0  0  0  0  0  0
  -26.4590  -31.6300   24.8750 C   0  0  1  0  0  0  0  0  0  0  0  0
  -25.4140  -31.2660   25.9540 C   0  0  0  0  0  1  0  0  0  0  0  0
  -27.1190  -30.3170   24.3940 C   0  0  0  0  0  1  0  0  0  0  0  0
  -27.5740  -32.4640   25.5490 C   0  0  0  0  0  1  0  0  0  0  0  0
  -29.9250  -20.4470   20.1180 C   0  0  0  0  0  2  0  0  0  0  0  0
  -29.6430  -19.2000   20.8970 N   0  0  0  0  0  4  0  0  0  0  0  0
  -29.7340  -19.4580   21.8670 H   0  0  0  0  0  0  0  0  0  0  0  0
  -28.6820  -18.9280   20.7590 H   0  0  0  0  0  0  0  0  0  0  0  0
  -31.0300  -14.5620   19.7370 C   0  0  0  0  0  0  0  0  0  0  0  0
  -30.5590  -12.4690   18.4940 C   0  0  0  0  0  2  0  0  0  0  0  0
  -29.4370  -12.7380   17.4680 C   0  0  0  0  0  2  0  0  0  0  0  0
  -28.0450  -12.5740   18.1130 C   0  0  0  0  0  2  0  0  0  0  0  0
  -27.9230  -13.3230   19.4670 C   0  0  0  0  0  3  0  0  0  0  0  0
  -29.1330  -13.0140   20.3750 C   0  0  0  0  0  2  0  0  0  0  0  0
  -30.3520  -13.3800   19.6340 N   0  0  0  0  0  0  0  0  0  0  0  0
  -32.0480  -14.7940   19.0750 O   0  0  0  0  0  0  0  0  0  0  0  0
  -30.5570  -15.7790   21.8340 C   0  0  0  0  0  2  0  0  0  0  0  0
  -30.0170  -16.8750   19.8090 C   0  0  0  0  0  2  0  0  0  0  0  0
  -30.8580  -17.2750   22.0640 C   0  0  0  0  0  3  0  0  0  0  0  0
  -30.5410  -18.0030   20.7400 C   0  0  0  0  0  3  0  0  0  0  0  0
  -30.1870  -17.8240   23.3390 C   0  0  0  0  0  1  0  0  0  0  0  0
  -30.3820  -15.5660   20.3970 N   0  0  0  0  0  0  0  0  0  0  0  0
  -25.7070  -13.9020   20.6380 C   0  0  0  0  0  0  0  0  0  0  0  0
  -24.6800  -13.1180   21.0940 C   0  0  0  0  0  0  0  0  0  0  0  0
  -25.0670  -11.7690   20.8290 C   0  0  0  0  0  0  0  0  0  0  0  0
  -26.6560  -13.0270   20.1330 N   0  0  0  0  0  0  0  0  0  0  0  0
  -26.2840  -11.7330   20.3020 N   0  0  0  0  0  0  0  0  0  0  0  0
  -24.3260  -10.5130   20.9950 C   0  0  0  0  0  0  0  0  0  0  0  0
  -24.7650   -9.5090   21.8860 C   0  0  0  0  0  3  0  0  0  0  0  0
  -24.0250   -8.3160   22.0410 C   0  0  0  0  0  3  0  0  0  0  0  0
  -22.8330   -8.1190   21.3050 C   0  0  0  0  0  0  0  0  0  0  0  0
  -22.4120   -9.1120   20.4020 C   0  0  0  0  0  3  0  0  0  0  0  0
  -23.1520  -10.2970   20.2460 C   0  0  0  0  0  3  0  0  0  0  0  0
  -22.0640   -6.9830   21.3720 O   0  0  0  0  0  0  0  0  0  0  0  0
  -21.8870   -6.3020   22.5490 C   0  0  0  0  0  0  0  0  0  0  0  0
  -21.3310   -6.9190   23.6910 C   0  0  0  0  0  3  0  0  0  0  0  0
  -21.1030   -6.1630   24.8580 C   0  0  0  0  0  3  0  0  0  0  0  0
  -21.4210   -4.7920   24.8830 C   0  0  0  0  0  0  0  0  0  0  0  0
  -21.9700   -4.1740   23.7460 C   0  0  0  0  0  3  0  0  0  0  0  0
  -22.2000   -4.9280   22.5810 C   0  0  0  0  0  0  0  0  0  0  0  0
  -22.7090   -4.3240   21.4800 F   0  0  0  0  0  0  0  0  0  0  0  0
  -21.1950   -4.0630   26.0020 F   0  0  0  0  0  0  0  0  0  0  0  0
  -23.3720  -13.5960   21.6550 C   0  0  0  0  0  0  0  0  0  0  0  0
  -22.7830  -12.8330   22.5690 N   0  0  0  0  0  0  0  0  0  0  0  0
  -22.8870  -14.6750   21.3190 O   0  0  0  0  0  0  0  0  0  0  0  0
  -23.1910  -11.9570   22.8580 H   0  0  0  0  0  0  0  0  0  0  0  0
  -21.9110  -13.1280   22.9840 H   0  0  0  0  0  0  0  0  0  0  0  0
  -25.9040  -15.2780   20.5920 N   0  0  0  0  0  0  0  0  0  0  0  0
  -25.1920  -15.9370   20.8920 H   0  0  0  0  0  0  0  0  0  0  0  0
  -26.7030  -15.7240   20.1610 H   0  0  0  0  0  0  0  0  0  0  0  0
  2  4  1  0
  2  1  1  0
  3  2  1  0
  5  6  1  0
  5  4  1  0
  7 18  2  0
  8  6  1  0
  8 13  1  0
  9 17  1  0
  9 19  1  0
 10 16  1  0
 10 12  1  0
 11 17  1  0
 12 11  1  0
 13 12  2  0
 14 15  1  0
 14  8  2  0
 15 10  2  0
 16  9  1  0
 17  7  1  0
 19 21  2  0
 20 19  1  0
 22 20  1  0
 23 32  2  0
 23 28  1  0
 24 20  1  0
 24 28  1  0
 25 24  1  0
 26 27  1  0
 26 25  1  0
 27 23  1  0
 28 29  2  0
 29 30  1  0
 31 30  2  0
 32 31  1  0
 33  7  1  0
 33 34  1  0
 33 43  1  0
 34 37  1  0
 35 39  1  0
 35 34  1  0
 36 35  2  0
 39 38  1  0
 41 39  1  0
 41 42  1  0
 41 40  1  0
 43 46  1  1
 43 44  1  0
 45 43  1  0
 47  1  1  0
 47 48  1  0
 48 49  1  0
 50 48  1  0
 51 64  1  0
 52 57  1  0
 53 54  1  0
 53 52  1  0
 55 54  1  0
 55 68  1  0
 55 56  1  0
 57 51  1  0
 57 56  1  0
 58 51  2  0
 59 61  1  0
 60 64  1  0
 60 62  1  0
 61 63  1  0
 62 48  1  0
 62 61  1  0
 64 59  1  0
 65 66  2  0
 66 85  1  0
 67 70  1  0
 67 66  1  0
 68 69  1  0
 68 65  1  0
 69 67  2  0
 70 71  1  0
 71 72  2  0
 73 76  1  0
 73 72  1  0
 74 73  2  0
 75 74  1  0
 75 70  2  0
 76 77  1  0
 77 82  2  0
 77 78  1  0
 78 79  2  0
 79 80  1  0
 80 84  1  0
 81 80  2  0
 82 81  1  0
 83 82  1  0
 85 86  1  0
 86 88  1  0
 86 89  1  0
 87 85  2  0
 90 65  1  0
 90 91  1  0
 92 90  1  0
M  ISO  4   5 101   6 101  51 100  64 100
M  END
>  <TORSDO>  (66) 
F 21

>  <SCORE>  (66) 
-11.234

>  <name>  (66) 
65

>  <ligand_id>  (66) 
65

>  <original_smiles>  (66) 
[H]c1c([H])c([H])c2c(c1[H])C([H])([H])C([H])([H])C([H])([H])C2([H])N([H])C(=O)C1([H])N(C(=O)C([H])(N([H])C(=O)C([H])(N([H])C([H])([H])[H])C([H])([H])[H])C(C([H])([H])[H])(C([H])([H])[H])C([H])([H])[H])C([H])([H])c2c([H])c(OC([H])([H])C([H])([H])N([H])C([H])([H])C([H])([H])[N+]([H])([H])C3([H])C([H])([H])N(C(=O)N4C([H])([H])C([H])([H])C([H])([H])C([H])(n5nc(-c6c([H])c([H])c(Oc7c([H])c([H])c(F)c([H])c7F)c([H])c6[H])c(C(=O)N([H])[H])c5N([H])[H])C4([H])[H])C([H])([H])C3([H])C([H])([H])[H])c([H])c([H])c2C1([H])[H]

>  <smiles>  (66) 
[H]c1c([H])c([H])c2c(c1[H])C([H])([H])C([H])([H])C([H])([H])C2([H])N([H])C(=O)C1([H])N(C(=O)C([H])(N([H])C(=O)C([H])(N([H])C([H])([H])[H])C([H])([H])[H])C(C([H])([H])[H])(C([H])([H])[H])C([H])([H])[H])C([H])([H])c2c([H])c(OC([H])([H])C([H])([H])N([H])C([H])([H])C([H])([H])[N+]([H])([H])C3([H])C([H])([H])N(C(=O)N4C([H])([H])C([H])([H])C([H])([H])C([H])(n5nc(-c6c([H])c([H])c(Oc7c([H])c([H])c(F)c([H])c7F)c([H])c6[H])c(C(=O)N([H])[H])c5N([H])[H])C4([H])[H])C([H])([H])C3([H])C([H])([H])[H])c([H])c([H])c2C1([H])[H]

$$$$
66:0:0
     RDKit          3D

 97106  0  0  1  0  0  0  0  0999 V2000
  -28.4710  -20.9340   21.4880 C   0  0  0  0  0  2  0  0  0  0  0  0
  -28.4020  -22.4470   21.7760 C   0  0  0  0  0  2  0  0  0  0  0  0
  -29.8920  -22.0510   19.9410 C   0  0  0  0  0  2  0  0  0  0  0  0
  -29.8060  -20.7360   20.7640 C   0  0  0  0  0  3  0  0  0  0  0  0
  -29.1330  -23.0840   20.6750 N   0  0  0  0  0  0  0  0  0  0  0  0
  -29.9100  -19.5080   19.9090 N   0  0  0  0  0  4  0  0  0  0  0  0
  -30.8730  -19.4300   19.6190 H   0  0  0  0  0  0  0  0  0  0  0  0
  -29.3800  -19.6680   19.0680 H   0  0  0  0  0  0  0  0  0  0  0  0
  -29.4860  -18.1660   20.4270 C   0  0  0  0  0  2  0  0  0  0  0  0
  -30.8050  -14.6770   20.0510 C   0  0  0  0  0  0  0  0  0  0  0  0
  -30.4330  -12.4960   18.9470 C   0  0  0  0  0  2  0  0  0  0  0  0
  -29.4480  -12.6490   17.7710 C   0  0  0  0  0  2  0  0  0  0  0  0
  -28.0010  -12.4740   18.2660 C   0  0  0  0  0  2  0  0  0  0  0  0
  -27.6950  -13.3450   19.5140 C   0  0  0  0  0  3  0  0  0  0  0  0
  -28.8000  -13.2140   20.5910 C   0  0  0  0  0  2  0  0  0  0  0  0
  -30.0920  -13.5160   19.9580 N   0  0  0  0  0  0  0  0  0  0  0  0
  -31.8520  -14.8370   19.4180 O   0  0  0  0  0  0  0  0  0  0  0  0
  -31.4820  -17.0640   21.7830 C   0  0  0  0  0  2  0  0  0  0  0  0
  -30.6010  -15.8840   22.1800 C   0  0  0  0  0  2  0  0  0  0  0  0
  -30.6640  -17.1500   20.5010 C   0  0  0  0  0  3  0  0  0  0  0  0
  -30.2700  -15.7210   20.7550 N   0  0  0  0  0  0  0  0  0  0  0  0
  -25.3290  -13.9170   20.3390 C   0  0  0  0  0  0  0  0  0  0  0  0
  -24.2860  -13.1330   20.7500 C   0  0  0  0  0  0  0  0  0  0  0  0
  -24.7560  -11.7850   20.6870 C   0  0  0  0  0  0  0  0  0  0  0  0
  -26.3690  -13.0470   20.0520 N   0  0  0  0  0  0  0  0  0  0  0  0
  -26.0310  -11.7580   20.3180 N   0  0  0  0  0  0  0  0  0  0  0  0
  -24.0470  -10.5160   20.8990 C   0  0  0  0  0  0  0  0  0  0  0  0
  -24.4580   -9.6010   21.8940 C   0  0  0  0  0  3  0  0  0  0  0  0
  -23.7510   -8.3960   22.0920 C   0  0  0  0  0  3  0  0  0  0  0  0
  -22.6210   -8.0940   21.2970 C   0  0  0  0  0  0  0  0  0  0  0  0
  -22.2280   -9.0000   20.2960 C   0  0  0  0  0  3  0  0  0  0  0  0
  -22.9330  -10.1980   20.0950 C   0  0  0  0  0  3  0  0  0  0  0  0
  -21.8860   -6.9370   21.4050 O   0  0  0  0  0  0  0  0  0  0  0  0
  -21.7220   -6.2980   22.6070 C   0  0  0  0  0  0  0  0  0  0  0  0
  -21.1200   -6.9390   23.7130 C   0  0  0  0  0  3  0  0  0  0  0  0
  -20.9040   -6.2250   24.9070 C   0  0  0  0  0  3  0  0  0  0  0  0
  -21.2760   -4.8700   24.9980 C   0  0  0  0  0  0  0  0  0  0  0  0
  -21.8680   -4.2280   23.8960 C   0  0  0  0  0  3  0  0  0  0  0  0
  -22.0870   -4.9400   22.7020 C   0  0  0  0  0  0  0  0  0  0  0  0
  -22.6370   -4.3100   21.6370 F   0  0  0  0  0  0  0  0  0  0  0  0
  -21.0630   -4.1820   26.1440 F   0  0  0  0  0  0  0  0  0  0  0  0
  -22.9010  -13.5960   21.0950 C   0  0  0  0  0  0  0  0  0  0  0  0
  -22.2230  -12.8810   21.9850 N   0  0  0  0  0  0  0  0  0  0  0  0
  -22.4330  -14.6270   20.6150 O   0  0  0  0  0  0  0  0  0  0  0  0
  -22.6160  -12.0430   22.3900 H   0  0  0  0  0  0  0  0  0  0  0  0
  -21.2980  -13.1720   22.2670 H   0  0  0  0  0  0  0  0  0  0  0  0
  -25.4810  -15.2890   20.1640 N   0  0  0  0  0  0  0  0  0  0  0  0
  -24.7310  -15.9530   20.3230 H   0  0  0  0  0  0  0  0  0  0  0  0
  -26.3190  -15.7220   19.7950 H   0  0  0  0  0  0  0  0  0  0  0  0
  -28.5890  -24.2530   19.9220 C   0  0  0  0  0  3  0  0  0  0  0  0
  -27.4200  -23.8480   18.9810 C   0  0  0  0  0  2  0  0  0  0  0  0
  -26.1650  -23.5210   19.6890 N   0  0  0  0  0  4  0  0  0  0  0  0
  -26.3170  -22.7830   20.3500 H   0  0  0  0  0  0  0  0  0  0  0  0
  -25.4770  -23.2030   19.0260 H   0  0  0  0  0  0  0  0  0  0  0  0
  -25.7850  -24.3140   20.1750 H   0  0  0  0  0  0  0  0  0  0  0  0
  -28.3010  -25.5250   20.8040 C   0  0  0  0  0  2  0  0  0  0  0  0
  -28.3640  -26.8010   20.1050 O   0  0  0  0  0  0  0  0  0  0  0  0
  -24.6150  -31.9720   23.3370 C   0  0  0  0  0  0  0  0  0  0  0  0
  -27.2230  -27.5810   20.1370 C   0  0  0  0  0  0  0  0  0  0  0  0
  -23.3990  -30.6150   21.6660 C   0  0  0  0  0  3  0  0  0  0  0  0
  -24.8430  -29.1210   20.1900 C   0  0  0  0  0  0  0  0  0  0  0  0
  -25.9280  -30.9720   21.4650 C   0  0  0  0  0  2  0  0  0  0  0  0
  -26.0070  -29.6130   20.7910 C   0  0  0  0  0  0  0  0  0  0  0  0
  -27.2000  -28.8510   20.7630 C   0  0  0  0  0  3  0  0  0  0  0  0
  -26.0480  -27.1230   19.5070 C   0  0  0  0  0  3  0  0  0  0  0  0
  -24.8610  -27.8770   19.5390 C   0  0  0  0  0  3  0  0  0  0  0  0
  -23.6000  -29.9780   20.2670 C   0  0  0  0  0  2  0  0  0  0  0  0
  -24.6660  -31.2020   22.2130 N   0  0  0  0  0  0  0  0  0  0  0  0
  -23.5370  -32.2310   23.8910 O   0  0  0  0  0  0  0  0  0  0  0  0
  -22.7520  -29.5680   22.6010 C   0  0  0  0  0  0  0  0  0  0  0  0
  -21.4310  -29.3770   22.4660 N   0  0  0  0  0  0  0  0  0  0  0  0
  -23.4390  -28.9330   23.4070 O   0  0  0  0  0  0  0  0  0  0  0  0
  -20.9400  -29.9390   21.7830 H   0  0  0  0  0  0  0  0  0  0  0  0
  -18.0700  -28.1380   22.9150 C   0  0  0  0  0  0  0  0  0  0  0  0
  -20.6180  -28.4210   23.2170 C   0  0  0  0  0  3  0  0  0  0  0  0
  -20.7450  -26.9980   22.6220 C   0  0  0  0  0  2  0  0  0  0  0  0
  -19.6590  -26.6820   21.5900 C   0  0  0  0  0  2  0  0  0  0  0  0
  -18.2710  -26.8000   22.2260 C   0  0  0  0  0  2  0  0  0  0  0  0
  -19.1720  -28.9060   23.3700 C   0  0  0  0  0  0  0  0  0  0  0  0
  -18.9310  -30.1580   23.9790 C   0  0  0  0  0  3  0  0  0  0  0  0
  -17.6190  -30.6390   24.1390 C   0  0  0  0  0  3  0  0  0  0  0  0
  -16.5280  -29.8640   23.7050 C   0  0  0  0  0  3  0  0  0  0  0  0
  -16.7560  -28.6170   23.0970 C   0  0  0  0  0  3  0  0  0  0  0  0
  -25.9050  -32.5860   23.9660 C   0  0  0  0  0  3  0  0  0  0  0  0
  -25.6010  -33.9750   24.3380 N   0  0  0  0  0  0  0  0  0  0  0  0
  -25.9230  -35.0480   23.6010 C   0  0  0  0  0  0  0  0  0  0  0  0
  -26.5770  -34.9710   22.5580 O   0  0  0  0  0  0  0  0  0  0  0  0
  -25.0170  -34.1110   25.1510 H   0  0  0  0  0  0  0  0  0  0  0  0
  -24.1860  -36.8430   23.3180 C   0  0  0  0  0  1  0  0  0  0  0  0
  -25.4400  -36.4230   24.1000 C   0  0  0  0  0  3  0  0  0  0  0  0
  -27.5830  -37.2920   24.9270 C   0  0  0  0  0  1  0  0  0  0  0  0
  -26.4710  -37.4800   23.9980 N   0  0  0  0  0  0  0  0  0  0  0  0
  -26.0640  -38.3970   24.1670 H   0  0  0  0  0  0  0  0  0  0  0  0
  -26.4340  -31.7800   25.2150 C   0  0  1  0  0  0  0  0  0  0  0  0
  -25.3450  -31.4930   26.2730 C   0  0  0  0  0  1  0  0  0  0  0  0
  -27.0320  -30.4250   24.7720 C   0  0  0  0  0  1  0  0  0  0  0  0
  -27.5790  -32.5610   25.9000 C   0  0  0  0  0  1  0  0  0  0  0  0
  1  2  1  0
  3  5  1  0
  3  4  1  0
  4  6  1  0
  4  1  1  0
  5  2  1  0
  6  9  1  0
  7  6  1  0
  8  6  1  0
 10 21  1  0
 11 16  1  0
 12 13  1  0
 12 11  1  0
 14 13  1  0
 14 25  1  0
 14 15  1  0
 16 10  1  0
 16 15  1  0
 17 10  2  0
 18 19  1  0
 20  9  1  0
 20 21  1  0
 20 18  1  0
 21 19  1  0
 22 23  2  0
 23 42  1  0
 24 23  1  0
 24 27  1  0
 25 26  1  0
 25 22  1  0
 26 24  2  0
 27 28  1  0
 28 29  2  0
 30 33  1  0
 30 29  1  0
 31 30  2  0
 32 31  1  0
 32 27  2  0
 33 34  1  0
 34 39  2  0
 34 35  1  0
 35 36  2  0
 36 37  1  0
 37 41  1  0
 38 37  2  0
 39 38  1  0
 40 39  1  0
 42 43  1  0
 43 46  1  0
 43 45  1  0
 44 42  2  0
 47 48  1  0
 47 22  1  0
 49 47  1  0
 50 51  1  0
 50  5  1  0
 50 56  1  0
 51 52  1  0
 52 55  1  0
 52 53  1  0
 54 52  1  0
 57 59  1  0
 57 56  1  0
 58 69  2  0
 59 64  1  0
 60 68  1  0
 60 70  1  0
 61 67  1  0
 61 63  1  0
 62 68  1  0
 63 62  1  0
 64 63  2  0
 65 66  1  0
 65 59  2  0
 66 61  2  0
 67 60  1  0
 68 58  1  0
 70 72  2  0
 71 70  1  0
 73 71  1  0
 74 83  2  0
 74 79  1  0
 75 71  1  0
 75 79  1  0
 76 75  1  0
 77 78  1  0
 77 76  1  0
 78 74  1  0
 79 80  2  0
 80 81  1  0
 82 81  2  0
 83 82  1  0
 84 58  1  0
 84 85  1  0
 84 94  1  0
 85 88  1  0
 86 90  1  0
 86 85  1  0
 87 86  2  0
 90 89  1  0
 92 90  1  0
 92 93  1  0
 92 91  1  0
 94 97  1  1
 94 95  1  0
 96 94  1  0
M  ISO  4  10 100  21 100  56 101  57 101
M  END
>  <TORSDO>  (67) 
F 22

>  <SCORE>  (67) 
-12.646

>  <name>  (67) 
66

>  <ligand_id>  (67) 
66

>  <original_smiles>  (67) 
[H]c1c([H])c([H])c2c(c1[H])C([H])([H])C([H])([H])C([H])([H])C2([H])N([H])C(=O)C1([H])N(C(=O)C([H])(N([H])C(=O)C([H])(N([H])C([H])([H])[H])C([H])([H])[H])C(C([H])([H])[H])(C([H])([H])[H])C([H])([H])[H])C([H])([H])c2c([H])c(OC([H])([H])C([H])(N3C([H])([H])C([H])([H])C([H])([N+]([H])([H])C([H])([H])C4([H])N(C(=O)N5C([H])([H])C([H])([H])C([H])([H])C([H])(n6nc(-c7c([H])c([H])c(Oc8c([H])c([H])c(F)c([H])c8F)c([H])c7[H])c(C(=O)N([H])[H])c6N([H])[H])C5([H])[H])C([H])([H])C4([H])[H])C3([H])[H])C([H])([H])[N+]([H])([H])[H])c([H])c([H])c2C1([H])[H]

>  <smiles>  (67) 
[H]c1c([H])c([H])c2c(c1[H])C([H])([H])C([H])([H])C([H])([H])C2([H])N([H])C(=O)C1([H])N(C(=O)C([H])(N([H])C(=O)C([H])(N([H])C([H])([H])[H])C([H])([H])[H])C(C([H])([H])[H])(C([H])([H])[H])C([H])([H])[H])C([H])([H])c2c([H])c(OC([H])([H])C([H])(N3C([H])([H])C([H])([H])C([H])([N+]([H])([H])C([H])([H])C4([H])N(C(=O)N5C([H])([H])C([H])([H])C([H])([H])C([H])(n6nc(-c7c([H])c([H])c(Oc8c([H])c([H])c(F)c([H])c8F)c([H])c7[H])c(C(=O)N([H])[H])c6N([H])[H])C5([H])[H])C([H])([H])C4([H])[H])C3([H])[H])C([H])([H])[N+]([H])([H])[H])c([H])c([H])c2C1([H])[H]

$$$$
67:0:0
     RDKit          3D

 88 97  0  0  1  0  0  0  0  0999 V2000
  -29.7410  -21.6040   21.5820 C   0  0  0  0  0  3  0  0  0  0  0  0
  -29.0530  -22.0250   20.4020 C   0  0  0  0  0  0  0  0  0  0  0  0
  -29.8930  -20.2870   21.6640 N   0  0  0  0  0  0  0  0  0  0  0  0
  -28.7860  -20.8590   19.7600 N   0  0  0  0  0  0  0  0  0  0  0  0
  -29.3130  -19.7900   20.5350 N   0  0  0  0  0  0  0  0  0  0  0  0
  -30.5940  -14.9350   20.1420 C   0  0  0  0  0  0  0  0  0  0  0  0
  -30.4010  -12.6270   19.1420 C   0  0  0  0  0  2  0  0  0  0  0  0
  -29.4360  -12.6590   17.9360 C   0  0  0  0  0  2  0  0  0  0  0  0
  -27.9780  -12.4690   18.4020 C   0  0  0  0  0  2  0  0  0  0  0  0
  -27.6200  -13.3480   19.6300 C   0  0  0  0  0  3  0  0  0  0  0  0
  -28.7100  -13.3090   20.7210 C   0  0  0  0  0  2  0  0  0  0  0  0
  -29.9670  -13.7000   20.0780 N   0  0  0  0  0  0  0  0  0  0  0  0
  -31.7880  -14.9880   19.8310 O   0  0  0  0  0  0  0  0  0  0  0  0
  -29.5480  -17.0910   21.2700 C   0  0  0  0  0  2  0  0  0  0  0  0
  -30.1840  -17.3860   19.3800 C   0  0  0  0  0  2  0  0  0  0  0  0
  -29.2310  -18.2690   20.2590 C   0  0  0  0  0  3  0  0  0  0  0  0
  -29.8280  -16.1280   20.1440 N   0  0  0  0  0  0  0  0  0  0  0  0
  -25.2580  -13.8950   20.4540 C   0  0  0  0  0  0  0  0  0  0  0  0
  -24.2120  -13.1040   20.8440 C   0  0  0  0  0  0  0  0  0  0  0  0
  -24.6900  -11.7580   20.7810 C   0  0  0  0  0  0  0  0  0  0  0  0
  -26.3000  -13.0300   20.1670 N   0  0  0  0  0  0  0  0  0  0  0  0
  -25.9710  -11.7390   20.4320 N   0  0  0  0  0  0  0  0  0  0  0  0
  -23.9810  -10.4860   20.9750 C   0  0  0  0  0  0  0  0  0  0  0  0
  -24.4250   -9.5260   21.9130 C   0  0  0  0  0  3  0  0  0  0  0  0
  -23.7120   -8.3210   22.0940 C   0  0  0  0  0  3  0  0  0  0  0  0
  -22.5430   -8.0660   21.3390 C   0  0  0  0  0  0  0  0  0  0  0  0
  -22.1210   -9.0130   20.3880 C   0  0  0  0  0  3  0  0  0  0  0  0
  -22.8350  -10.2090   20.2040 C   0  0  0  0  0  3  0  0  0  0  0  0
  -21.8030   -6.9110   21.4290 O   0  0  0  0  0  0  0  0  0  0  0  0
  -21.7270   -6.1940   22.5960 C   0  0  0  0  0  0  0  0  0  0  0  0
  -21.2290   -6.7620   23.7890 C   0  0  0  0  0  3  0  0  0  0  0  0
  -21.1020   -5.9690   24.9470 C   0  0  0  0  0  3  0  0  0  0  0  0
  -21.4640   -4.6090   24.9120 C   0  0  0  0  0  0  0  0  0  0  0  0
  -21.9540   -4.0410   23.7240 C   0  0  0  0  0  3  0  0  0  0  0  0
  -22.0820   -4.8310   22.5690 C   0  0  0  0  0  0  0  0  0  0  0  0
  -22.5350   -4.2730   21.4200 F   0  0  0  0  0  0  0  0  0  0  0  0
  -21.3360   -3.8440   26.0220 F   0  0  0  0  0  0  0  0  0  0  0  0
  -22.8200  -13.5630   21.1620 C   0  0  0  0  0  0  0  0  0  0  0  0
  -22.1230  -12.8470   22.0370 N   0  0  0  0  0  0  0  0  0  0  0  0
  -22.3600  -14.5930   20.6700 O   0  0  0  0  0  0  0  0  0  0  0  0
  -22.5090  -12.0130   22.4550 H   0  0  0  0  0  0  0  0  0  0  0  0
  -21.1880  -13.1350   22.2890 H   0  0  0  0  0  0  0  0  0  0  0  0
  -25.4050  -15.2680   20.2940 N   0  0  0  0  0  0  0  0  0  0  0  0
  -24.6370  -15.9140   20.4480 H   0  0  0  0  0  0  0  0  0  0  0  0
  -26.2440  -15.7230   19.9590 H   0  0  0  0  0  0  0  0  0  0  0  0
  -28.8810  -23.5520   19.8490 C   0  0  0  0  0  3  0  0  0  0  0  0
  -28.1020  -24.8200   20.5860 C   0  0  0  0  0  3  0  0  0  0  0  0
  -28.3100  -26.3160   20.2540 O   0  0  0  0  0  0  0  0  0  0  0  0
  -24.6150  -31.9220   23.2320 C   0  0  0  0  0  0  0  0  0  0  0  0
  -27.2250  -27.2480   20.2320 C   0  0  0  0  0  0  0  0  0  0  0  0
  -23.4250  -30.5110   21.5960 C   0  0  0  0  0  3  0  0  0  0  0  0
  -24.8840  -28.9440   20.1810 C   0  0  0  0  0  0  0  0  0  0  0  0
  -25.9720  -30.8060   21.4300 C   0  0  0  0  0  2  0  0  0  0  0  0
  -26.0560  -29.4150   20.7860 C   0  0  0  0  0  0  0  0  0  0  0  0
  -27.2310  -28.5820   20.7920 C   0  0  0  0  0  3  0  0  0  0  0  0
  -26.0290  -26.8640   19.5930 C   0  0  0  0  0  3  0  0  0  0  0  0
  -24.8790  -27.6820   19.5690 C   0  0  0  0  0  3  0  0  0  0  0  0
  -23.6510  -29.8300   20.2200 C   0  0  0  0  0  2  0  0  0  0  0  0
  -24.6890  -31.1030   22.1400 N   0  0  0  0  0  0  0  0  0  0  0  0
  -23.5270  -32.2000   23.7590 O   0  0  0  0  0  0  0  0  0  0  0  0
  -22.7580  -29.5010   22.5620 C   0  0  0  0  0  0  0  0  0  0  0  0
  -21.4310  -29.3220   22.4350 N   0  0  0  0  0  0  0  0  0  0  0  0
  -23.4330  -28.8780   23.3860 O   0  0  0  0  0  0  0  0  0  0  0  0
  -20.9430  -29.8770   21.7460 H   0  0  0  0  0  0  0  0  0  0  0  0
  -18.0520  -28.1230   22.9540 C   0  0  0  0  0  0  0  0  0  0  0  0
  -20.6140  -28.3840   23.2090 C   0  0  0  0  0  3  0  0  0  0  0  0
  -20.7100  -26.9520   22.6330 C   0  0  0  0  0  2  0  0  0  0  0  0
  -19.6030  -26.6320   21.6240 C   0  0  0  0  0  2  0  0  0  0  0  0
  -18.2260  -26.7760   22.2740 C   0  0  0  0  0  2  0  0  0  0  0  0
  -19.1740  -28.8860   23.3780 C   0  0  0  0  0  0  0  0  0  0  0  0
  -18.9560  -30.1470   23.9740 C   0  0  0  0  0  3  0  0  0  0  0  0
  -17.6520  -30.6450   24.1510 C   0  0  0  0  0  3  0  0  0  0  0  0
  -16.5460  -29.8810   23.7390 C   0  0  0  0  0  3  0  0  0  0  0  0
  -16.7480  -28.6220   23.1460 C   0  0  0  0  0  3  0  0  0  0  0  0
  -25.8910  -32.5660   23.8590 C   0  0  0  0  0  3  0  0  0  0  0  0
  -25.5720  -33.9650   24.1820 N   0  0  0  0  0  0  0  0  0  0  0  0
  -25.8990  -35.0180   23.4210 C   0  0  0  0  0  0  0  0  0  0  0  0
  -26.5690  -34.9150   22.3900 O   0  0  0  0  0  0  0  0  0  0  0  0
  -24.9810  -34.1190   24.9850 H   0  0  0  0  0  0  0  0  0  0  0  0
  -24.1660  -36.8060   23.0590 C   0  0  0  0  0  1  0  0  0  0  0  0
  -25.4050  -36.4060   23.8760 C   0  0  0  0  0  3  0  0  0  0  0  0
  -27.5300  -37.3020   24.7210 C   0  0  0  0  0  1  0  0  0  0  0  0
  -26.4330  -37.4630   23.7690 N   0  0  0  0  0  0  0  0  0  0  0  0
  -26.0210  -38.3820   23.9100 H   0  0  0  0  0  0  0  0  0  0  0  0
  -26.4020  -31.8070   25.1440 C   0  0  1  0  0  0  0  0  0  0  0  0
  -25.3040  -31.5720   26.2070 C   0  0  0  0  0  1  0  0  0  0  0  0
  -26.9980  -30.4280   24.7700 C   0  0  0  0  0  1  0  0  0  0  0  0
  -27.5410  -32.6140   25.8110 C   0  0  0  0  0  1  0  0  0  0  0  0
  1  3  2  0
  2  1  1  0
  4  2  2  0
  4  5  1  0
  5  3  1  0
  6 17  1  0
  7 12  1  0
  8  9  1  0
  8  7  1  0
 10  9  1  0
 10 21  1  0
 10 11  1  0
 12  6  1  0
 12 11  1  0
 13  6  2  0
 15 17  1  0
 16 15  1  0
 16  5  1  0
 16 14  1  0
 17 14  1  0
 18 19  2  0
 19 38  1  0
 20 19  1  0
 20 23  1  0
 21 22  1  0
 21 18  1  0
 22 20  2  0
 23 24  1  0
 24 25  2  0
 26 29  1  0
 26 25  1  0
 27 26  2  0
 28 27  1  0
 28 23  2  0
 29 30  1  0
 30 31  1  0
 31 32  2  0
 33 32  1  0
 33 37  1  0
 34 33  2  0
 35 30  2  0
 35 34  1  0
 36 35  1  0
 38 39  1  0
 39 42  1  0
 39 41  1  0
 40 38  2  0
 43 44  1  0
 43 18  1  0
 45 43  1  0
 46  2  1  0
 46 47  2  0
 48 47  1  0
 49 60  2  0
 50 48  1  0
 50 55  1  0
 51 59  1  0
 51 61  1  0
 52 58  1  0
 52 54  1  0
 53 59  1  0
 54 55  2  0
 54 53  1  0
 56 50  2  0
 57 56  1  0
 57 52  2  0
 58 51  1  0
 59 49  1  0
 61 63  2  0
 62 61  1  0
 64 62  1  0
 65 74  2  0
 65 70  1  0
 66 62  1  0
 66 70  1  0
 67 66  1  0
 68 69  1  0
 68 67  1  0
 69 65  1  0
 70 71  2  0
 71 72  1  0
 73 72  2  0
 74 73  1  0
 75 49  1  0
 75 76  1  0
 75 85  1  0
 76 79  1  0
 77 81  1  0
 77 76  1  0
 78 77  2  0
 81 80  1  0
 83 81  1  0
 83 84  1  0
 83 82  1  0
 85 88  1  1
 85 86  1  0
 87 85  1  0
M  ISO  4   6 100  17 100  47 101  48 101
M  END
>  <TORSDO>  (68) 
F 18

>  <SCORE>  (68) 
-14.688

>  <name>  (68) 
67

>  <ligand_id>  (68) 
67

>  <original_smiles>  (68) 
[H]c1nn(C2([H])C([H])([H])N(C(=O)N3C([H])([H])C([H])([H])C([H])([H])C([H])(n4nc(-c5c([H])c([H])c(Oc6c([H])c([H])c(F)c([H])c6F)c([H])c5[H])c(C(=O)N([H])[H])c4N([H])[H])C3([H])[H])C2([H])[H])nc1C([H])([H])C([H])([H])Oc1c([H])c([H])c2c(c1[H])C([H])([H])N(C(=O)C([H])(N([H])C(=O)C([H])(N([H])C([H])([H])[H])C([H])([H])[H])C(C([H])([H])[H])(C([H])([H])[H])C([H])([H])[H])C([H])(C(=O)N([H])C1([H])c3c([H])c([H])c([H])c([H])c3C([H])([H])C([H])([H])C1([H])[H])C2([H])[H]

>  <smiles>  (68) 
[H]c1nn(C2([H])C([H])([H])N(C(=O)N3C([H])([H])C([H])([H])C([H])([H])C([H])(n4nc(-c5c([H])c([H])c(Oc6c([H])c([H])c(F)c([H])c6F)c([H])c5[H])c(C(=O)N([H])[H])c4N([H])[H])C3([H])[H])C2([H])[H])nc1C([H])([H])C([H])([H])Oc1c([H])c([H])c2c(c1[H])C([H])([H])N(C(=O)C([H])(N([H])C(=O)C([H])(N([H])C([H])([H])[H])C([H])([H])[H])C(C([H])([H])[H])(C([H])([H])[H])C([H])([H])[H])C([H])(C(=O)N([H])C1([H])c3c([H])c([H])c([H])c([H])c3C([H])([H])C([H])([H])C1([H])[H])C2([H])[H]

$$$$
68:0:0
     RDKit          3D

 94104  0  0  1  0  0  0  0  0999 V2000
  -28.2320  -23.3440   19.5120 C   0  0  0  0  0  3  0  0  0  0  0  0
  -28.5550  -22.0010   19.6590 C   0  0  0  0  0  0  0  0  0  0  0  0
  -29.8320  -21.9840   20.3020 C   0  0  0  0  0  0  0  0  0  0  0  0
  -30.1790  -23.2910   20.5740 N   0  0  0  0  0  0  0  0  0  0  0  0
  -29.1810  -24.1710   20.1030 N   0  0  0  0  0  0  0  0  0  0  0  0
  -30.5870  -20.7810   20.6790 N   0  0  0  0  0  0  0  0  0  0  0  0
  -31.4340  -20.9640   21.2050 H   0  0  0  0  0  0  0  0  0  0  0  0
  -30.8930  -18.8410   19.0620 C   0  0  0  0  0  2  0  0  0  0  0  0
  -32.1170  -18.2870   19.8150 C   0  0  0  0  0  2  0  0  0  0  0  0
  -30.3070  -19.2890   20.4110 C   0  0  0  0  0  3  0  0  0  0  0  0
  -31.2360  -18.0880   21.0600 C   0  0  0  0  0  3  0  0  0  0  0  0
  -31.5010  -15.4490   20.7630 C   0  0  0  0  0  0  0  0  0  0  0  0
  -31.2410  -13.3480   19.4140 C   0  0  0  0  0  2  0  0  0  0  0  0
  -30.3420  -13.6350   18.1930 C   0  0  0  0  0  2  0  0  0  0  0  0
  -28.8560  -13.4610   18.5660 C   0  0  0  0  0  2  0  0  0  0  0  0
  -28.4850  -14.1670   19.8980 C   0  0  0  0  0  3  0  0  0  0  0  0
  -29.5120  -13.8730   21.0100 C   0  0  0  0  0  2  0  0  0  0  0  0
  -30.8270  -14.2710   20.5000 N   0  0  0  0  0  0  0  0  0  0  0  0
  -32.7030  -15.5150   20.4850 O   0  0  0  0  0  0  0  0  0  0  0  0
  -30.7870  -16.6030   21.1060 N   0  0  0  0  0  0  0  0  0  0  0  0
  -29.8100  -16.4580   21.3010 H   0  0  0  0  0  0  0  0  0  0  0  0
  -26.0610  -14.7380   20.5060 C   0  0  0  0  0  0  0  0  0  0  0  0
  -24.9800  -13.9530   20.8000 C   0  0  0  0  0  0  0  0  0  0  0  0
  -25.4470  -12.6030   20.7660 C   0  0  0  0  0  0  0  0  0  0  0  0
  -27.1190  -13.8660   20.3110 N   0  0  0  0  0  0  0  0  0  0  0  0
  -26.7530  -12.5740   20.5300 N   0  0  0  0  0  0  0  0  0  0  0  0
  -24.7120  -11.3360   20.8870 C   0  0  0  0  0  0  0  0  0  0  0  0
  -25.0210  -10.3940   21.8930 C   0  0  0  0  0  3  0  0  0  0  0  0
  -24.2840   -9.1950   22.0000 C   0  0  0  0  0  3  0  0  0  0  0  0
  -23.2230   -8.9280   21.1000 C   0  0  0  0  0  0  0  0  0  0  0  0
  -22.9340   -9.8590   20.0870 C   0  0  0  0  0  3  0  0  0  0  0  0
  -23.6730  -11.0510   19.9780 C   0  0  0  0  0  3  0  0  0  0  0  0
  -22.4730   -7.7770   21.1120 O   0  0  0  0  0  0  0  0  0  0  0  0
  -22.0930   -7.1760   22.2860 C   0  0  0  0  0  0  0  0  0  0  0  0
  -21.3490   -7.8680   23.2670 C   0  0  0  0  0  3  0  0  0  0  0  0
  -20.9220   -7.1950   24.4290 C   0  0  0  0  0  3  0  0  0  0  0  0
  -21.2300   -5.8310   24.6070 C   0  0  0  0  0  0  0  0  0  0  0  0
  -21.9650   -5.1400   23.6290 C   0  0  0  0  0  3  0  0  0  0  0  0
  -22.3940   -5.8120   22.4690 C   0  0  0  0  0  0  0  0  0  0  0  0
  -23.0830   -5.1370   21.5180 F   0  0  0  0  0  0  0  0  0  0  0  0
  -20.8120   -5.1830   25.7190 F   0  0  0  0  0  0  0  0  0  0  0  0
  -23.5690  -14.4210   21.0020 C   0  0  0  0  0  0  0  0  0  0  0  0
  -22.8190  -13.7420   21.8630 N   0  0  0  0  0  0  0  0  0  0  0  0
  -23.1410  -15.4260   20.4350 O   0  0  0  0  0  0  0  0  0  0  0  0
  -23.1750  -12.9270   22.3400 H   0  0  0  0  0  0  0  0  0  0  0  0
  -21.8710  -14.0370   22.0470 H   0  0  0  0  0  0  0  0  0  0  0  0
  -26.2290  -16.1120   20.3610 N   0  0  0  0  0  0  0  0  0  0  0  0
  -25.4470  -16.7540   20.4310 H   0  0  0  0  0  0  0  0  0  0  0  0
  -27.0800  -16.5620   20.0530 H   0  0  0  0  0  0  0  0  0  0  0  0
  -26.1920  -20.8360   19.5540 C   0  0  0  0  0  2  0  0  0  0  0  0
  -27.0920  -19.9620   20.3880 C   0  0  0  0  0  2  0  0  0  0  0  0
  -27.6850  -20.8250   19.2940 C   0  0  0  0  0  3  0  0  0  0  0  0
  -28.9440  -25.6420   20.5690 C   0  0  0  0  0  2  0  0  0  0  0  0
  -28.7730  -26.7730   19.6220 O   0  0  0  0  0  0  0  0  0  0  0  0
  -24.8590  -31.8310   23.2510 C   0  0  0  0  0  0  0  0  0  0  0  0
  -27.6720  -27.6630   19.7500 C   0  0  0  0  0  0  0  0  0  0  0  0
  -23.8970  -30.3570   21.5190 C   0  0  0  0  0  3  0  0  0  0  0  0
  -25.3140  -29.3070   19.7710 C   0  0  0  0  0  0  0  0  0  0  0  0
  -26.3120  -31.0430   21.3230 C   0  0  0  0  0  2  0  0  0  0  0  0
  -26.4660  -29.7530   20.4630 C   0  0  0  0  0  0  0  0  0  0  0  0
  -27.6490  -28.9350   20.4340 C   0  0  0  0  0  3  0  0  0  0  0  0
  -26.4980  -27.2950   19.0680 C   0  0  0  0  0  3  0  0  0  0  0  0
  -25.3350  -28.0890   19.0780 C   0  0  0  0  0  3  0  0  0  0  0  0
  -24.0060  -30.0530   20.0090 C   0  0  0  0  0  2  0  0  0  0  0  0
  -24.9940  -31.2050   22.0440 N   0  0  0  0  0  0  0  0  0  0  0  0
  -23.7490  -31.9850   23.7810 O   0  0  0  0  0  0  0  0  0  0  0  0
  -23.0020  -29.4510   22.3960 C   0  0  0  0  0  0  0  0  0  0  0  0
  -21.7180  -29.2870   22.0700 N   0  0  0  0  0  0  0  0  0  0  0  0
  -23.5030  -28.7890   23.3210 O   0  0  0  0  0  0  0  0  0  0  0  0
  -21.3160  -29.8360   21.3250 H   0  0  0  0  0  0  0  0  0  0  0  0
  -18.3520  -27.9830   22.3630 C   0  0  0  0  0  0  0  0  0  0  0  0
  -20.8880  -28.2450   22.6860 C   0  0  0  0  0  3  0  0  0  0  0  0
  -21.0340  -26.9050   21.9300 C   0  0  0  0  0  2  0  0  0  0  0  0
  -19.9510  -26.7020   20.8710 C   0  0  0  0  0  2  0  0  0  0  0  0
  -18.5600  -26.7400   21.5150 C   0  0  0  0  0  2  0  0  0  0  0  0
  -19.4510  -28.7010   22.8960 C   0  0  0  0  0  0  0  0  0  0  0  0
  -19.2190  -29.8660   23.6560 C   0  0  0  0  0  3  0  0  0  0  0  0
  -17.9090  -30.3220   23.8830 C   0  0  0  0  0  3  0  0  0  0  0  0
  -16.8180  -29.6020   23.3660 C   0  0  0  0  0  3  0  0  0  0  0  0
  -17.0390  -28.4320   22.6130 C   0  0  0  0  0  3  0  0  0  0  0  0
  -26.0920  -32.4220   23.9960 C   0  0  0  0  0  3  0  0  0  0  0  0
  -26.5360  -31.5570   25.2390 C   0  0  1  0  0  0  0  0  0  0  0  0
  -25.3770  -31.2110   26.2050 C   0  0  0  0  0  1  0  0  0  0  0  0
  -27.1820  -30.2310   24.7730 C   0  0  0  0  0  1  0  0  0  0  0  0
  -27.6190  -32.3140   26.0430 C   0  0  0  0  0  1  0  0  0  0  0  0
  -25.7480  -33.7880   24.4200 N   0  0  0  0  0  0  0  0  0  0  0  0
  -26.1700  -34.9010   23.8060 C   0  0  0  0  0  0  0  0  0  0  0  0
  -26.9500  -34.8820   22.8490 O   0  0  0  0  0  0  0  0  0  0  0  0
  -25.0710  -33.8730   25.1610 H   0  0  0  0  0  0  0  0  0  0  0  0
  -24.5220  -36.7640   23.4280 C   0  0  0  0  0  1  0  0  0  0  0  0
  -25.6490  -36.2500   24.3380 C   0  0  0  0  0  3  0  0  0  0  0  0
  -27.6740  -37.0030   25.5070 C   0  0  0  0  0  1  0  0  0  0  0  0
  -26.7000  -37.2830   24.4550 N   0  0  0  0  0  0  0  0  0  0  0  0
  -26.2890  -38.1950   24.6310 H   0  0  0  0  0  0  0  0  0  0  0  0
  1  2  2  0
  1  5  1  0
  2  3  1  0
  3  4  2  0
  3  6  1  0
  5 53  1  0
  5  4  1  0
  6  7  1  0
  8  9  1  0
  8 10  1  0
  9 11  1  0
 10  6  1  0
 10 11  1  0
 11 20  1  0
 12 20  1  0
 13 18  1  0
 14 15  1  0
 14 13  1  0
 16 15  1  0
 16 25  1  0
 16 17  1  0
 18 12  1  0
 18 17  1  0
 19 12  2  0
 20 21  1  0
 22 23  2  0
 23 42  1  0
 24 23  1  0
 24 27  1  0
 25 22  1  0
 25 26  1  0
 26 24  2  0
 27 28  1  0
 28 29  2  0
 30 33  1  0
 30 29  1  0
 31 30  2  0
 32 31  1  0
 32 27  2  0
 33 34  1  0
 34 39  2  0
 34 35  1  0
 35 36  2  0
 36 37  1  0
 37 41  1  0
 38 37  2  0
 39 38  1  0
 40 39  1  0
 42 43  1  0
 43 46  1  0
 43 45  1  0
 44 42  2  0
 47 48  1  0
 47 22  1  0
 49 47  1  0
 50 51  1  0
 52 50  1  0
 52  2  1  0
 52 51  1  0
 54 56  1  0
 54 53  1  0
 55 66  2  0
 56 61  1  0
 57 65  1  0
 57 67  1  0
 58 64  1  0
 58 60  1  0
 59 65  1  0
 60 59  1  0
 61 60  2  0
 62 63  1  0
 62 56  2  0
 63 58  2  0
 64 57  1  0
 65 55  1  0
 67 69  2  0
 68 67  1  0
 70 68  1  0
 71 80  2  0
 71 76  1  0
 72 68  1  0
 72 76  1  0
 73 72  1  0
 74 75  1  0
 74 73  1  0
 75 71  1  0
 76 77  2  0
 77 78  1  0
 79 78  2  0
 80 79  1  0
 81 55  1  0
 81 86  1  0
 81 82  1  0
 82 85  1  1
 82 83  1  0
 84 82  1  0
 86 89  1  0
 87 91  1  0
 87 86  1  0
 88 87  2  0
 91 90  1  0
 91 93  1  0
 93 94  1  0
 93 92  1  0
M  ISO  4  12 100  20 100  53 101  54 101
M  END
>  <TORSDO>  (69) 
F 19

>  <SCORE>  (69) 
-9.462

>  <name>  (69) 
68

>  <ligand_id>  (69) 
68

>  <original_smiles>  (69) 
[H]c1c([H])c([H])c2c(c1[H])C([H])([H])C([H])([H])C([H])([H])C2([H])N([H])C(=O)C1([H])N(C(=O)C([H])(N([H])C(=O)C([H])(N([H])C([H])([H])[H])C([H])([H])[H])C(C([H])([H])[H])(C([H])([H])[H])C([H])([H])[H])C([H])([H])c2c([H])c(OC([H])([H])n3nc(N([H])C4([H])C([H])([H])C([H])([H])C4([H])N([H])C(=O)N4C([H])([H])C([H])([H])C([H])([H])C([H])(n5nc(-c6c([H])c([H])c(Oc7c([H])c([H])c(F)c([H])c7F)c([H])c6[H])c(C(=O)N([H])[H])c5N([H])[H])C4([H])[H])c(C4([H])C([H])([H])C4([H])[H])c3[H])c([H])c([H])c2C1([H])[H]

>  <smiles>  (69) 
[H]c1c([H])c([H])c2c(c1[H])C([H])([H])C([H])([H])C([H])([H])C2([H])N([H])C(=O)C1([H])N(C(=O)C([H])(N([H])C(=O)C([H])(N([H])C([H])([H])[H])C([H])([H])[H])C(C([H])([H])[H])(C([H])([H])[H])C([H])([H])[H])C([H])([H])c2c([H])c(OC([H])([H])n3nc(N([H])C4([H])C([H])([H])C([H])([H])C4([H])N([H])C(=O)N4C([H])([H])C([H])([H])C([H])([H])C([H])(n5nc(-c6c([H])c([H])c(Oc7c([H])c([H])c(F)c([H])c7F)c([H])c6[H])c(C(=O)N([H])[H])c5N([H])[H])C4([H])[H])c(C4([H])C([H])([H])C4([H])[H])c3[H])c([H])c([H])c2C1([H])[H]

$$$$
69:0:0
     RDKit          3D

 92100  0  0  1  0  0  0  0  0999 V2000
  -29.5720  -22.0430   22.6760 C   0  0  0  0  0  1  0  0  0  0  0  0
  -29.7070  -21.9280   21.1440 C   0  0  0  0  0  3  0  0  0  0  0  0
  -28.8680  -22.9490   20.5040 N   0  0  0  0  0  0  0  0  0  0  0  0
  -27.9170  -22.8660   20.8560 H   0  0  0  0  0  0  0  0  0  0  0  0
  -29.2940  -24.3530   20.6320 C   0  0  0  0  0  2  0  0  0  0  0  0
  -28.1860  -25.2520   20.0320 C   0  0  0  0  0  2  0  0  0  0  0  0
  -28.3560  -26.6730   20.2200 O   0  0  0  0  0  0  0  0  0  0  0  0
  -24.5800  -31.8980   23.2680 C   0  0  0  0  0  0  0  0  0  0  0  0
  -27.2000  -27.4380   20.1740 C   0  0  0  0  0  0  0  0  0  0  0  0
  -23.3670  -30.5050   21.6260 C   0  0  0  0  0  3  0  0  0  0  0  0
  -24.8130  -28.9740   20.1880 C   0  0  0  0  0  0  0  0  0  0  0  0
  -25.8970  -30.8510   21.4280 C   0  0  0  0  0  2  0  0  0  0  0  0
  -25.9770  -29.4820   20.7790 C   0  0  0  0  0  0  0  0  0  0  0  0
  -27.1720  -28.7220   20.7710 C   0  0  0  0  0  3  0  0  0  0  0  0
  -26.0170  -26.9630   19.5570 C   0  0  0  0  0  3  0  0  0  0  0  0
  -24.8300  -27.7140   19.5730 C   0  0  0  0  0  3  0  0  0  0  0  0
  -23.5730  -29.8360   20.2420 C   0  0  0  0  0  2  0  0  0  0  0  0
  -24.6340  -31.0990   22.1650 N   0  0  0  0  0  0  0  0  0  0  0  0
  -23.5000  -32.1710   23.8110 O   0  0  0  0  0  0  0  0  0  0  0  0
  -22.7150  -29.4800   22.5820 C   0  0  0  0  0  0  0  0  0  0  0  0
  -21.3910  -29.2950   22.4520 N   0  0  0  0  0  0  0  0  0  0  0  0
  -23.3990  -28.8560   23.3980 O   0  0  0  0  0  0  0  0  0  0  0  0
  -20.9010  -29.8520   21.7660 H   0  0  0  0  0  0  0  0  0  0  0  0
  -18.0190  -28.0930   22.9390 C   0  0  0  0  0  0  0  0  0  0  0  0
  -20.5750  -28.3560   23.2220 C   0  0  0  0  0  3  0  0  0  0  0  0
  -20.6830  -26.9240   22.6490 C   0  0  0  0  0  2  0  0  0  0  0  0
  -19.5870  -26.5980   21.6300 C   0  0  0  0  0  2  0  0  0  0  0  0
  -18.2010  -26.7420   22.2670 C   0  0  0  0  0  2  0  0  0  0  0  0
  -19.1340  -28.8570   23.3730 C   0  0  0  0  0  0  0  0  0  0  0  0
  -18.9110  -30.1220   23.9590 C   0  0  0  0  0  3  0  0  0  0  0  0
  -17.6040  -30.6220   24.1160 C   0  0  0  0  0  3  0  0  0  0  0  0
  -16.5030  -29.8540   23.7010 C   0  0  0  0  0  3  0  0  0  0  0  0
  -16.7120  -28.5920   23.1170 C   0  0  0  0  0  3  0  0  0  0  0  0
  -25.8690  -32.5250   23.8850 C   0  0  0  0  0  3  0  0  0  0  0  0
  -25.5680  -33.9260   24.2100 N   0  0  0  0  0  0  0  0  0  0  0  0
  -25.9030  -34.9720   23.4440 C   0  0  0  0  0  0  0  0  0  0  0  0
  -26.5690  -34.8590   22.4110 O   0  0  0  0  0  0  0  0  0  0  0  0
  -24.9770  -34.0880   25.0130 H   0  0  0  0  0  0  0  0  0  0  0  0
  -24.1810  -36.7690   23.0800 C   0  0  0  0  0  1  0  0  0  0  0  0
  -25.4210  -36.3650   23.8930 C   0  0  0  0  0  3  0  0  0  0  0  0
  -27.5590  -37.2440   24.7190 C   0  0  0  0  0  1  0  0  0  0  0  0
  -26.4580  -37.4130   23.7740 N   0  0  0  0  0  0  0  0  0  0  0  0
  -26.0560  -38.3350   23.9200 H   0  0  0  0  0  0  0  0  0  0  0  0
  -26.3850  -31.7550   25.1620 C   0  0  1  0  0  0  0  0  0  0  0  0
  -25.2930  -31.5250   26.2330 C   0  0  0  0  0  1  0  0  0  0  0  0
  -26.9630  -30.3740   24.7720 C   0  0  0  0  0  1  0  0  0  0  0  0
  -27.5410  -32.5450   25.8200 C   0  0  0  0  0  1  0  0  0  0  0  0
  -29.2420  -20.5300   20.6270 C   0  0  0  0  0  2  0  0  0  0  0  0
  -30.0410  -19.3800   21.1330 N   0  0  0  0  0  4  0  0  0  0  0  0
  -31.0000  -19.5000   20.8490 H   0  0  0  0  0  0  0  0  0  0  0  0
  -30.0130  -19.4060   22.1390 H   0  0  0  0  0  0  0  0  0  0  0  0
  -30.6680  -14.5390   20.4990 C   0  0  0  0  0  0  0  0  0  0  0  0
  -30.3840  -12.3330   19.4610 C   0  0  0  0  0  2  0  0  0  0  0  0
  -29.4600  -12.5030   18.2380 C   0  0  0  0  0  2  0  0  0  0  0  0
  -27.9800  -12.3700   18.6510 C   0  0  0  0  0  2  0  0  0  0  0  0
  -27.6170  -13.2260   19.8930 C   0  0  0  0  0  3  0  0  0  0  0  0
  -28.6710  -13.0850   21.0160 C   0  0  0  0  0  2  0  0  0  0  0  0
  -29.9920  -13.3590   20.4350 N   0  0  0  0  0  0  0  0  0  0  0  0
  -31.8700  -14.6380   20.2390 O   0  0  0  0  0  0  0  0  0  0  0  0
  -29.7690  -17.7380   19.2220 C   0  0  0  0  0  2  0  0  0  0  0  0
  -29.5540  -16.2250   19.1670 C   0  0  0  0  0  2  0  0  0  0  0  0
  -30.2030  -16.8150   21.3590 C   0  0  0  0  0  2  0  0  0  0  0  0
  -29.5470  -18.0440   20.6910 C   0  0  0  0  0  3  0  0  0  0  0  0
  -29.8950  -15.6560   20.4920 N   0  0  0  0  0  0  0  0  0  0  0  0
  -25.2180  -13.8460   20.5750 C   0  0  0  0  0  0  0  0  0  0  0  0
  -24.1440  -13.0780   20.9290 C   0  0  0  0  0  0  0  0  0  0  0  0
  -24.6030  -11.7260   20.9110 C   0  0  0  0  0  0  0  0  0  0  0  0
  -26.2630  -12.9580   20.3650 N   0  0  0  0  0  0  0  0  0  0  0  0
  -25.8970  -11.6790   20.6250 N   0  0  0  0  0  0  0  0  0  0  0  0
  -23.8720  -10.4660   21.0940 C   0  0  0  0  0  0  0  0  0  0  0  0
  -24.3050   -9.4900   22.0190 C   0  0  0  0  0  3  0  0  0  0  0  0
  -23.5770   -8.2940   22.1890 C   0  0  0  0  0  3  0  0  0  0  0  0
  -22.4010   -8.0650   21.4360 C   0  0  0  0  0  0  0  0  0  0  0  0
  -21.9880   -9.0290   20.4990 C   0  0  0  0  0  3  0  0  0  0  0  0
  -22.7170  -10.2170   20.3260 C   0  0  0  0  0  3  0  0  0  0  0  0
  -21.6450   -6.9210   21.5180 O   0  0  0  0  0  0  0  0  0  0  0  0
  -21.6110   -6.1610   22.6590 C   0  0  0  0  0  0  0  0  0  0  0  0
  -21.2110   -6.7010   23.9010 C   0  0  0  0  0  3  0  0  0  0  0  0
  -21.1230   -5.8690   25.0340 C   0  0  0  0  0  3  0  0  0  0  0  0
  -21.4240   -4.4970   24.9270 C   0  0  0  0  0  0  0  0  0  0  0  0
  -21.8170   -3.9570   23.6900 C   0  0  0  0  0  3  0  0  0  0  0  0
  -21.9070   -4.7870   22.5590 C   0  0  0  0  0  0  0  0  0  0  0  0
  -22.2670   -4.2580   21.3640 F   0  0  0  0  0  0  0  0  0  0  0  0
  -21.3320   -3.6960   26.0130 F   0  0  0  0  0  0  0  0  0  0  0  0
  -22.7430  -13.5590   21.1770 C   0  0  0  0  0  0  0  0  0  0  0  0
  -22.0000  -12.8680   22.0350 N   0  0  0  0  0  0  0  0  0  0  0  0
  -22.3150  -14.5820   20.6450 O   0  0  0  0  0  0  0  0  0  0  0  0
  -22.3580  -12.0400   22.4890 H   0  0  0  0  0  0  0  0  0  0  0  0
  -21.0590  -13.1690   22.2400 H   0  0  0  0  0  0  0  0  0  0  0  0
  -25.3890  -15.2160   20.3940 N   0  0  0  0  0  0  0  0  0  0  0  0
  -24.6250  -15.8750   20.4960 H   0  0  0  0  0  0  0  0  0  0  0  0
  -26.2530  -15.6530   20.1000 H   0  0  0  0  0  0  0  0  0  0  0  0
  2  1  1  0
  3  5  1  0
  3  4  1  0
  3  2  1  0
  6  7  1  0
  6  5  1  0
  8 19  2  0
  9  7  1  0
  9 14  1  0
 10 18  1  0
 10 20  1  0
 11 17  1  0
 11 13  1  0
 12 18  1  0
 13 12  1  0
 14 13  2  0
 15 16  1  0
 15  9  2  0
 16 11  2  0
 17 10  1  0
 18  8  1  0
 20 22  2  0
 21 20  1  0
 23 21  1  0
 24 33  2  0
 24 29  1  0
 25 21  1  0
 25 29  1  0
 26 25  1  0
 27 28  1  0
 27 26  1  0
 28 24  1  0
 29 30  2  0
 30 31  1  0
 32 31  2  0
 33 32  1  0
 34  8  1  0
 34 35  1  0
 34 44  1  0
 35 38  1  0
 36 40  1  0
 36 35  1  0
 37 36  2  0
 40 39  1  0
 42 40  1  0
 42 43  1  0
 42 41  1  0
 44 47  1  1
 44 45  1  0
 46 44  1  0
 48 49  1  0
 48  2  1  0
 49 51  1  0
 50 49  1  0
 53 58  1  0
 54 55  1  0
 54 53  1  0
 56 55  1  0
 56 68  1  0
 56 57  1  0
 58 52  1  0
 58 57  1  0
 59 52  2  0
 60 63  1  0
 61 60  1  0
 61 64  1  0
 63 49  1  0
 63 62  1  0
 64 52  1  0
 64 62  1  0
 65 66  2  0
 66 85  1  0
 67 66  1  0
 67 70  1  0
 68 65  1  0
 68 69  1  0
 69 67  2  0
 70 71  1  0
 71 72  2  0
 73 76  1  0
 73 72  1  0
 74 73  2  0
 75 74  1  0
 75 70  2  0
 76 77  1  0
 77 78  1  0
 78 79  2  0
 80 79  1  0
 80 84  1  0
 81 80  2  0
 82 77  2  0
 82 81  1  0
 83 82  1  0
 85 86  1  0
 86 89  1  0
 86 88  1  0
 87 85  2  0
 90 91  1  0
 90 65  1  0
 92 90  1  0
M  ISO  4   6 101   7 101  52 100  64 100
M  END
>  <TORSDO>  (70) 
F 21

>  <SCORE>  (70) 
-13.724

>  <name>  (70) 
69

>  <ligand_id>  (70) 
69

>  <original_smiles>  (70) 
[H]c1c([H])c([H])c2c(c1[H])C([H])([H])C([H])([H])C([H])([H])C2([H])N([H])C(=O)C1([H])N(C(=O)C([H])(N([H])C(=O)C([H])(N([H])C([H])([H])[H])C([H])([H])[H])C(C([H])([H])[H])(C([H])([H])[H])C([H])([H])[H])C([H])([H])c2c([H])c(OC([H])([H])C([H])([H])N([H])C([H])(C([H])([H])[H])C([H])([H])[N+]([H])([H])C3([H])C([H])([H])N(C(=O)N4C([H])([H])C([H])([H])C([H])([H])C([H])(n5nc(-c6c([H])c([H])c(Oc7c([H])c([H])c(F)c([H])c7F)c([H])c6[H])c(C(=O)N([H])[H])c5N([H])[H])C4([H])[H])C([H])([H])C3([H])[H])c([H])c([H])c2C1([H])[H]

>  <smiles>  (70) 
[H]c1c([H])c([H])c2c(c1[H])C([H])([H])C([H])([H])C([H])([H])C2([H])N([H])C(=O)C1([H])N(C(=O)C([H])(N([H])C(=O)C([H])(N([H])C([H])([H])[H])C([H])([H])[H])C(C([H])([H])[H])(C([H])([H])[H])C([H])([H])[H])C([H])([H])c2c([H])c(OC([H])([H])C([H])([H])N([H])C([H])(C([H])([H])[H])C([H])([H])[N+]([H])([H])C3([H])C([H])([H])N(C(=O)N4C([H])([H])C([H])([H])C([H])([H])C([H])(n5nc(-c6c([H])c([H])c(Oc7c([H])c([H])c(F)c([H])c7F)c([H])c6[H])c(C(=O)N([H])[H])c5N([H])[H])C4([H])[H])C([H])([H])C3([H])[H])c([H])c([H])c2C1([H])[H]

$$$$
70:0:0
     RDKit          3D

 93103  0  0  1  0  0  0  0  0999 V2000
  -30.6260  -15.0220   20.2580 C   0  0  0  0  0  0  0  0  0  0  0  0
  -30.4500  -12.6550   19.3730 C   0  0  0  0  0  2  0  0  0  0  0  0
  -29.5200  -12.5820   18.1430 C   0  0  0  0  0  2  0  0  0  0  0  0
  -28.0600  -12.3820   18.5880 C   0  0  0  0  0  2  0  0  0  0  0  0
  -27.6560  -13.3360   19.7450 C   0  0  0  0  0  3  0  0  0  0  0  0
  -28.7160  -13.4040   20.8630 C   0  0  0  0  0  2  0  0  0  0  0  0
  -29.9790  -13.7880   20.2230 N   0  0  0  0  0  0  0  0  0  0  0  0
  -31.8340  -15.0080   19.9940 O   0  0  0  0  0  0  0  0  0  0  0  0
  -31.2230  -22.8010   19.9780 C   0  0  0  0  0  3  0  0  0  0  0  0
  -30.9600  -21.4160   20.0330 C   0  0  0  0  0  0  0  0  0  0  0  0
  -29.6150  -21.0020   20.0920 C   0  0  0  0  0  0  0  0  0  0  0  0
  -29.0050  -23.4040   20.0100 C   0  0  0  0  0  0  0  0  0  0  0  0
  -29.1680  -18.6830   21.3380 C   0  0  0  0  0  2  0  0  0  0  0  0
  -29.4190  -18.6260   18.9530 C   0  0  0  0  0  2  0  0  0  0  0  0
  -29.8670  -17.2080   21.4140 C   0  0  0  0  0  2  0  0  0  0  0  0
  -30.2450  -17.2500   19.1130 C   0  0  0  0  0  2  0  0  0  0  0  0
  -30.2810  -23.7630   19.9730 N   0  0  0  0  0  0  0  0  0  0  0  0
  -28.6560  -22.0420   20.0730 N   0  0  0  0  0  0  0  0  0  0  0  0
  -29.3540  -19.5330   20.1270 N   0  0  0  0  0  0  0  0  0  0  0  0
  -29.9290  -16.2770   20.2240 N   0  0  0  0  0  0  0  0  0  0  0  0
  -25.2920  -13.9210   20.5210 C   0  0  0  0  0  0  0  0  0  0  0  0
  -24.2260  -13.1500   20.8930 C   0  0  0  0  0  0  0  0  0  0  0  0
  -24.6800  -11.7960   20.8470 C   0  0  0  0  0  0  0  0  0  0  0  0
  -26.3250  -13.0380   20.2610 N   0  0  0  0  0  0  0  0  0  0  0  0
  -25.9680  -11.7550   20.5230 N   0  0  0  0  0  0  0  0  0  0  0  0
  -23.9460  -10.5370   21.0330 C   0  0  0  0  0  0  0  0  0  0  0  0
  -24.3620   -9.5700   21.9730 C   0  0  0  0  0  3  0  0  0  0  0  0
  -23.6270   -8.3770   22.1480 C   0  0  0  0  0  3  0  0  0  0  0  0
  -22.4610   -8.1440   21.3820 C   0  0  0  0  0  0  0  0  0  0  0  0
  -22.0620   -9.1000   20.4310 C   0  0  0  0  0  3  0  0  0  0  0  0
  -22.7980  -10.2840   20.2550 C   0  0  0  0  0  3  0  0  0  0  0  0
  -21.6970   -7.0050   21.4670 O   0  0  0  0  0  0  0  0  0  0  0  0
  -21.6050   -6.2850   22.6310 C   0  0  0  0  0  0  0  0  0  0  0  0
  -21.0810   -6.8470   23.8150 C   0  0  0  0  0  3  0  0  0  0  0  0
  -20.9390   -6.0510   24.9700 C   0  0  0  0  0  3  0  0  0  0  0  0
  -21.3100   -4.6930   24.9390 C   0  0  0  0  0  0  0  0  0  0  0  0
  -21.8280   -4.1300   23.7590 C   0  0  0  0  0  3  0  0  0  0  0  0
  -21.9700   -4.9230   22.6070 C   0  0  0  0  0  0  0  0  0  0  0  0
  -22.4490   -4.3710   21.4670 F   0  0  0  0  0  0  0  0  0  0  0  0
  -21.1680   -3.9250   26.0450 F   0  0  0  0  0  0  0  0  0  0  0  0
  -22.8350  -13.6360   21.1790 C   0  0  0  0  0  0  0  0  0  0  0  0
  -22.1140  -12.9480   22.0560 N   0  0  0  0  0  0  0  0  0  0  0  0
  -22.3970  -14.6610   20.6590 O   0  0  0  0  0  0  0  0  0  0  0  0
  -22.4810  -12.1190   22.5010 H   0  0  0  0  0  0  0  0  0  0  0  0
  -21.1790  -13.2560   22.2890 H   0  0  0  0  0  0  0  0  0  0  0  0
  -25.4650  -15.2920   20.3560 N   0  0  0  0  0  0  0  0  0  0  0  0
  -24.7080  -15.9540   20.4890 H   0  0  0  0  0  0  0  0  0  0  0  0
  -26.3240  -15.7290   20.0460 H   0  0  0  0  0  0  0  0  0  0  0  0
  -32.5960  -19.6960   21.1920 C   0  0  0  0  0  2  0  0  0  0  0  0
  -33.4630  -20.7660   20.5790 C   0  0  0  0  0  2  0  0  0  0  0  0
  -32.1130  -20.4450   19.9720 C   0  0  0  0  0  3  0  0  0  0  0  0
  -27.9540  -24.6730   19.8910 C   0  0  0  0  0  2  0  0  0  0  0  0
  -28.2950  -26.1970   20.0360 O   0  0  0  0  0  0  0  0  0  0  0  0
  -24.6240  -31.7430   23.2550 C   0  0  0  0  0  0  0  0  0  0  0  0
  -27.2510  -27.1980   20.0090 C   0  0  0  0  0  0  0  0  0  0  0  0
  -23.4540  -30.4420   21.5200 C   0  0  0  0  0  3  0  0  0  0  0  0
  -24.9290  -28.9540   20.0340 C   0  0  0  0  0  0  0  0  0  0  0  0
  -26.0130  -30.7130   21.4170 C   0  0  0  0  0  2  0  0  0  0  0  0
  -26.0990  -29.3600   20.6880 C   0  0  0  0  0  0  0  0  0  0  0  0
  -27.2630  -28.4990   20.6600 C   0  0  0  0  0  3  0  0  0  0  0  0
  -26.0550  -26.9030   19.3180 C   0  0  0  0  0  3  0  0  0  0  0  0
  -24.9210  -27.7410   19.3330 C   0  0  0  0  0  3  0  0  0  0  0  0
  -23.7010  -29.8470   20.1090 C   0  0  0  0  0  2  0  0  0  0  0  0
  -24.7160  -30.9850   22.1210 N   0  0  0  0  0  0  0  0  0  0  0  0
  -23.5280  -31.9970   23.7780 O   0  0  0  0  0  0  0  0  0  0  0  0
  -22.7600  -29.3810   22.4100 C   0  0  0  0  0  0  0  0  0  0  0  0
  -21.4340  -29.2200   22.2530 N   0  0  0  0  0  0  0  0  0  0  0  0
  -23.4170  -28.7070   23.2070 O   0  0  0  0  0  0  0  0  0  0  0  0
  -20.9600  -29.8170   21.5890 H   0  0  0  0  0  0  0  0  0  0  0  0
  -18.0380  -28.0250   22.6620 C   0  0  0  0  0  0  0  0  0  0  0  0
  -20.5980  -28.2430   22.9560 C   0  0  0  0  0  3  0  0  0  0  0  0
  -20.6870  -26.8510   22.2890 C   0  0  0  0  0  2  0  0  0  0  0  0
  -19.5870  -26.6080   21.2510 C   0  0  0  0  0  2  0  0  0  0  0  0
  -18.2040  -26.7230   21.8970 C   0  0  0  0  0  2  0  0  0  0  0  0
  -19.1610  -28.7470   23.1450 C   0  0  0  0  0  0  0  0  0  0  0  0
  -18.9510  -29.9680   23.8220 C   0  0  0  0  0  3  0  0  0  0  0  0
  -17.6510  -30.4680   24.0180 C   0  0  0  0  0  3  0  0  0  0  0  0
  -16.5410  -29.7430   23.5490 C   0  0  0  0  0  3  0  0  0  0  0  0
  -16.7350  -28.5230   22.8770 C   0  0  0  0  0  3  0  0  0  0  0  0
  -25.8890  -32.3430   23.9400 C   0  0  0  0  0  3  0  0  0  0  0  0
  -25.5840  -33.7350   24.3020 N   0  0  0  0  0  0  0  0  0  0  0  0
  -25.9080  -34.8070   23.5650 C   0  0  0  0  0  0  0  0  0  0  0  0
  -26.5630  -34.7250   22.5220 O   0  0  0  0  0  0  0  0  0  0  0  0
  -25.0010  -33.8730   25.1150 H   0  0  0  0  0  0  0  0  0  0  0  0
  -24.1650  -36.6040   23.3000 C   0  0  0  0  0  1  0  0  0  0  0  0
  -25.4330  -36.1870   24.0630 C   0  0  0  0  0  3  0  0  0  0  0  0
  -27.5840  -37.0730   24.8500 C   0  0  0  0  0  1  0  0  0  0  0  0
  -26.4600  -37.2440   23.9350 N   0  0  0  0  0  0  0  0  0  0  0  0
  -26.0540  -38.1620   24.0980 H   0  0  0  0  0  0  0  0  0  0  0  0
  -26.3470  -31.5310   25.2140 C   0  0  1  0  0  0  0  0  0  0  0  0
  -25.2130  -31.2830   26.2360 C   0  0  0  0  0  1  0  0  0  0  0  0
  -26.9240  -30.1540   24.8110 C   0  0  0  0  0  1  0  0  0  0  0  0
  -27.4850  -32.2900   25.9360 C   0  0  0  0  0  1  0  0  0  0  0  0
  2  7  1  0
  3  4  1  0
  3  2  1  0
  5  4  1  0
  5 24  1  0
  5  6  1  0
  7  1  1  0
  7  6  1  0
  8  1  2  0
  9 10  2  0
 10 11  1  0
 11 19  1  0
 12 18  1  0
 13 15  1  0
 14 16  1  0
 14 19  1  0
 16 20  1  0
 17  9  1  0
 17 12  2  0
 18 11  2  0
 19 13  1  0
 20  1  1  0
 20 15  1  0
 21 22  2  0
 22 41  1  0
 23 22  1  0
 23 26  1  0
 24 21  1  0
 24 25  1  0
 25 23  2  0
 26 27  1  0
 27 28  2  0
 29 32  1  0
 29 28  1  0
 30 29  2  0
 31 30  1  0
 31 26  2  0
 32 33  1  0
 33 34  1  0
 34 35  2  0
 36 35  1  0
 36 40  1  0
 37 36  2  0
 38 33  2  0
 38 37  1  0
 39 38  1  0
 41 42  1  0
 42 45  1  0
 42 44  1  0
 43 41  2  0
 46 47  1  0
 46 21  1  0
 48 46  1  0
 50 49  1  0
 51 10  1  0
 51 50  1  0
 51 49  1  0
 52 12  1  0
 52 53  1  0
 54 65  2  0
 55 53  1  0
 55 60  1  0
 56 64  1  0
 56 66  1  0
 57 63  1  0
 57 59  1  0
 58 64  1  0
 59 58  1  0
 60 59  2  0
 61 62  1  0
 61 55  2  0
 62 57  2  0
 63 56  1  0
 64 54  1  0
 66 68  2  0
 67 66  1  0
 69 67  1  0
 70 79  2  0
 70 75  1  0
 71 67  1  0
 71 75  1  0
 72 71  1  0
 73 74  1  0
 73 72  1  0
 74 70  1  0
 75 76  2  0
 76 77  1  0
 78 77  2  0
 79 78  1  0
 80 54  1  0
 80 81  1  0
 80 90  1  0
 81 84  1  0
 82 86  1  0
 82 81  1  0
 83 82  2  0
 86 85  1  0
 88 86  1  0
 88 89  1  0
 88 87  1  0
 90 93  1  1
 90 91  1  0
 92 90  1  0
M  ISO  4   1 100  20 100  52 101  53 101
M  END
>  <TORSDO>  (71) 
F 17

>  <SCORE>  (71) 
-14.718

>  <name>  (71) 
70

>  <ligand_id>  (71) 
70

>  <original_smiles>  (71) 
[H]c1nc(C([H])([H])Oc2c([H])c([H])c3c(c2[H])C([H])([H])N(C(=O)C([H])(N([H])C(=O)C([H])(N([H])C([H])([H])[H])C([H])([H])[H])C(C([H])([H])[H])(C([H])([H])[H])C([H])([H])[H])C([H])(C(=O)N([H])C2([H])c4c([H])c([H])c([H])c([H])c4C([H])([H])C([H])([H])C2([H])[H])C3([H])[H])nc(N2C([H])([H])C([H])([H])N(C(=O)N3C([H])([H])C([H])([H])C([H])([H])C([H])(n4nc(-c5c([H])c([H])c(Oc6c([H])c([H])c(F)c([H])c6F)c([H])c5[H])c(C(=O)N([H])[H])c4N([H])[H])C3([H])[H])C([H])([H])C2([H])[H])c1C1([H])C([H])([H])C1([H])[H]

>  <smiles>  (71) 
[H]c1nc(C([H])([H])Oc2c([H])c([H])c3c(c2[H])C([H])([H])N(C(=O)C([H])(N([H])C(=O)C([H])(N([H])C([H])([H])[H])C([H])([H])[H])C(C([H])([H])[H])(C([H])([H])[H])C([H])([H])[H])C([H])(C(=O)N([H])C2([H])c4c([H])c([H])c([H])c([H])c4C([H])([H])C([H])([H])C2([H])[H])C3([H])[H])nc(N2C([H])([H])C([H])([H])N(C(=O)N3C([H])([H])C([H])([H])C([H])([H])C([H])(n4nc(-c5c([H])c([H])c(Oc6c([H])c([H])c(F)c([H])c6F)c([H])c5[H])c(C(=O)N([H])[H])c4N([H])[H])C3([H])[H])C([H])([H])C2([H])[H])c1C1([H])C([H])([H])C1([H])[H]

$$$$
71:0:0
     RDKit          3D

 99109  0  0  1  0  0  0  0  0999 V2000
  -30.5730  -21.6420   21.3340 C   0  0  0  0  0  0  0  0  0  0  0  0
  -29.9450  -21.2340   20.1150 C   0  0  0  0  0  0  0  0  0  0  0  0
  -30.3350  -23.0110   21.3980 C   0  0  0  0  0  0  0  0  0  0  0  0
  -30.7770  -24.0280   22.4120 C   0  0  0  0  0  1  0  0  0  0  0  0
  -29.3930  -22.2900   19.5010 N   0  0  0  0  0  0  0  0  0  0  0  0
  -29.6680  -23.4000   20.2370 N   0  0  0  0  0  0  0  0  0  0  0  0
  -33.6460  -20.1370   22.9480 C   0  0  0  0  0  2  0  0  0  0  0  0
  -32.8530  -20.5290   21.7030 C   0  0  0  0  0  2  0  0  0  0  0  0
  -32.9080  -20.8180   24.1150 C   0  0  0  0  0  2  0  0  0  0  0  0
  -31.4320  -20.7610   22.2330 C   0  0  0  0  0  3  0  0  0  0  0  0
  -31.6030  -21.2810   23.5990 N   0  0  0  0  0  4  0  0  0  0  0  0
  -31.6090  -22.2870   23.5900 H   0  0  0  0  0  0  0  0  0  0  0  0
  -30.8520  -20.9720   24.1970 H   0  0  0  0  0  0  0  0  0  0  0  0
  -29.7870  -18.5640   19.5790 C   0  0  0  0  0  3  0  0  0  0  0  0
  -30.0570  -19.9030   19.4180 C   0  0  0  0  0  2  0  0  0  0  0  0
  -29.6310  -17.6530   18.3880 C   0  0  0  0  0  2  0  0  0  0  0  0
  -28.3320  -17.2620   19.1310 C   0  0  0  0  0  2  0  0  0  0  0  0
  -28.9620  -17.6030   20.5070 C   0  0  0  0  0  3  0  0  0  0  0  0
  -30.3470  -15.3400   20.7690 C   0  0  0  0  0  0  0  0  0  0  0  0
  -30.3770  -13.1100   19.6750 C   0  0  0  0  0  2  0  0  0  0  0  0
  -29.4700  -13.1640   18.4260 C   0  0  0  0  0  2  0  0  0  0  0  0
  -27.9980  -12.8820   18.7960 C   0  0  0  0  0  2  0  0  0  0  0  0
  -27.5190  -13.6890   20.0370 C   0  0  0  0  0  3  0  0  0  0  0  0
  -28.5490  -13.5960   21.1860 C   0  0  0  0  0  2  0  0  0  0  0  0
  -29.8450  -14.0680   20.6680 N   0  0  0  0  0  0  0  0  0  0  0  0
  -31.4790  -15.6070   20.3660 O   0  0  0  0  0  0  0  0  0  0  0  0
  -29.4530  -16.3110   21.1480 N   0  0  0  0  0  0  0  0  0  0  0  0
  -28.6940  -15.8720   21.6480 H   0  0  0  0  0  0  0  0  0  0  0  0
  -25.0610  -14.0560   20.6960 C   0  0  0  0  0  0  0  0  0  0  0  0
  -24.0520  -13.1840   21.0130 C   0  0  0  0  0  0  0  0  0  0  0  0
  -24.6300  -11.8800   20.9560 C   0  0  0  0  0  0  0  0  0  0  0  0
  -26.1830  -13.2770   20.4640 N   0  0  0  0  0  0  0  0  0  0  0  0
  -25.9260  -11.9610   20.6830 N   0  0  0  0  0  0  0  0  0  0  0  0
  -24.0100  -10.5530   21.0870 C   0  0  0  0  0  0  0  0  0  0  0  0
  -24.3850   -9.6580   22.1150 C   0  0  0  0  0  3  0  0  0  0  0  0
  -23.7610   -8.3980   22.2300 C   0  0  0  0  0  3  0  0  0  0  0  0
  -22.7500   -8.0200   21.3150 C   0  0  0  0  0  0  0  0  0  0  0  0
  -22.3980   -8.9020   20.2800 C   0  0  0  0  0  3  0  0  0  0  0  0
  -23.0240  -10.1550   20.1610 C   0  0  0  0  0  3  0  0  0  0  0  0
  -22.1080   -6.8040   21.3360 O   0  0  0  0  0  0  0  0  0  0  0  0
  -21.8410   -6.1500   22.5110 C   0  0  0  0  0  0  0  0  0  0  0  0
  -20.9960   -6.7030   23.4980 C   0  0  0  0  0  3  0  0  0  0  0  0
  -20.6950   -5.9690   24.6610 C   0  0  0  0  0  3  0  0  0  0  0  0
  -21.2270   -4.6780   24.8370 C   0  0  0  0  0  0  0  0  0  0  0  0
  -22.0620   -4.1210   23.8530 C   0  0  0  0  0  3  0  0  0  0  0  0
  -22.3670   -4.8550   22.6930 C   0  0  0  0  0  0  0  0  0  0  0  0
  -23.1570   -4.3040   21.7370 F   0  0  0  0  0  0  0  0  0  0  0  0
  -20.9340   -3.9640   25.9510 F   0  0  0  0  0  0  0  0  0  0  0  0
  -22.6120  -13.5330   21.2610 C   0  0  0  0  0  0  0  0  0  0  0  0
  -21.9230  -12.7450   22.0840 N   0  0  0  0  0  0  0  0  0  0  0  0
  -22.0990  -14.5340   20.7640 O   0  0  0  0  0  0  0  0  0  0  0  0
  -22.3520  -11.9370   22.5100 H   0  0  0  0  0  0  0  0  0  0  0  0
  -20.9560  -12.9530   22.2920 H   0  0  0  0  0  0  0  0  0  0  0  0
  -25.1210  -15.4400   20.5630 N   0  0  0  0  0  0  0  0  0  0  0  0
  -24.3210  -16.0460   20.7000 H   0  0  0  0  0  0  0  0  0  0  0  0
  -25.9350  -15.9310   20.2170 H   0  0  0  0  0  0  0  0  0  0  0  0
  -29.4790  -24.7640   19.6360 C   0  0  0  0  0  2  0  0  0  0  0  0
  -28.1710  -25.5780   19.9420 C   0  0  0  0  0  2  0  0  0  0  0  0
  -28.2370  -27.0000   19.5750 O   0  0  0  0  0  0  0  0  0  0  0  0
  -24.4880  -31.8990   23.2290 C   0  0  0  0  0  0  0  0  0  0  0  0
  -27.0610  -27.7450   19.6710 C   0  0  0  0  0  0  0  0  0  0  0  0
  -23.2200  -30.5650   21.5800 C   0  0  0  0  0  3  0  0  0  0  0  0
  -24.6230  -29.2000   19.9410 C   0  0  0  0  0  0  0  0  0  0  0  0
  -25.7110  -31.0420   21.2240 C   0  0  0  0  0  2  0  0  0  0  0  0
  -25.8060  -29.7180   20.4810 C   0  0  0  0  0  0  0  0  0  0  0  0
  -27.0280  -29.0060   20.3330 C   0  0  0  0  0  3  0  0  0  0  0  0
  -25.8530  -27.2670   19.1140 C   0  0  0  0  0  3  0  0  0  0  0  0
  -24.6450  -27.9780   19.2500 C   0  0  0  0  0  3  0  0  0  0  0  0
  -23.3550  -30.0030   20.1390 C   0  0  0  0  0  2  0  0  0  0  0  0
  -24.4950  -31.1810   22.0690 N   0  0  0  0  0  0  0  0  0  0  0  0
  -23.4410  -32.0790   23.8660 O   0  0  0  0  0  0  0  0  0  0  0  0
  -22.6830  -29.4470   22.5060 C   0  0  0  0  0  0  0  0  0  0  0  0
  -21.4060  -29.0730   22.3210 N   0  0  0  0  0  0  0  0  0  0  0  0
  -23.4150  -28.9250   23.3510 O   0  0  0  0  0  0  0  0  0  0  0  0
  -20.8690  -29.5540   21.6130 H   0  0  0  0  0  0  0  0  0  0  0  0
  -18.2960  -27.2390   22.5250 C   0  0  0  0  0  0  0  0  0  0  0  0
  -20.7050  -28.0170   23.0520 C   0  0  0  0  0  3  0  0  0  0  0  0
  -21.1530  -26.6160   22.5720 C   0  0  0  0  0  2  0  0  0  0  0  0
  -20.2600  -26.0440   21.4660 C   0  0  0  0  0  2  0  0  0  0  0  0
  -18.8120  -25.9310   21.9490 C   0  0  0  0  0  2  0  0  0  0  0  0
  -19.1870  -28.2250   23.0290 C   0  0  0  0  0  0  0  0  0  0  0  0
  -18.6580  -29.4370   23.5210 C   0  0  0  0  0  3  0  0  0  0  0  0
  -17.2700  -29.6720   23.5200 C   0  0  0  0  0  3  0  0  0  0  0  0
  -16.3920  -28.6870   23.0340 C   0  0  0  0  0  3  0  0  0  0  0  0
  -16.9050  -27.4740   22.5420 C   0  0  0  0  0  3  0  0  0  0  0  0
  -25.7890  -32.5460   23.7960 C   0  0  0  0  0  3  0  0  0  0  0  0
  -26.3640  -31.7810   25.0520 C   0  0  1  0  0  0  0  0  0  0  0  0
  -25.3150  -31.5250   26.1570 C   0  0  0  0  0  1  0  0  0  0  0  0
  -26.9550  -30.4150   24.6340 C   0  0  0  0  0  1  0  0  0  0  0  0
  -27.5250  -32.5910   25.6730 C   0  0  0  0  0  1  0  0  0  0  0  0
  -25.4790  -33.9410   24.1360 N   0  0  0  0  0  0  0  0  0  0  0  0
  -25.8400  -35.0010   23.3990 C   0  0  0  0  0  0  0  0  0  0  0  0
  -26.5420  -34.9040   22.3870 O   0  0  0  0  0  0  0  0  0  0  0  0
  -24.8630  -34.0910   24.9220 H   0  0  0  0  0  0  0  0  0  0  0  0
  -24.1580  -36.8240   22.9880 C   0  0  0  0  0  1  0  0  0  0  0  0
  -25.3490  -36.3860   23.8570 C   0  0  0  0  0  3  0  0  0  0  0  0
  -27.4370  -37.2360   24.8300 C   0  0  0  0  0  1  0  0  0  0  0  0
  -26.4020  -37.4270   23.8180 N   0  0  0  0  0  0  0  0  0  0  0  0
  -25.9990  -38.3520   23.9470 H   0  0  0  0  0  0  0  0  0  0  0  0
  1  3  2  0
  2  1  1  0
  3  4  1  0
  5  2  2  0
  5  6  1  0
  6  3  1  0
  7  9  1  0
  8 10  1  0
  8  7  1  0
 10  1  1  0
 10 11  1  0
 11  9  1  0
 11 13  1  0
 12 11  1  0
 14 15  1  0
 14 18  1  0
 15  2  1  0
 16 17  1  0
 16 14  1  0
 17 18  1  0
 18 27  1  0
 19 27  1  0
 20 25  1  0
 21 22  1  0
 21 20  1  0
 23 22  1  0
 23 32  1  0
 23 24  1  0
 25 19  1  0
 25 24  1  0
 26 19  2  0
 27 28  1  0
 29 30  2  0
 30 49  1  0
 31 30  1  0
 31 34  1  0
 32 33  1  0
 32 29  1  0
 33 31  2  0
 34 35  1  0
 35 36  2  0
 37 40  1  0
 37 36  1  0
 38 37  2  0
 39 38  1  0
 39 34  2  0
 40 41  1  0
 41 46  2  0
 41 42  1  0
 42 43  2  0
 43 44  1  0
 44 48  1  0
 45 44  2  0
 46 45  1  0
 47 46  1  0
 49 50  1  0
 50 53  1  0
 50 52  1  0
 51 49  2  0
 54 29  1  0
 54 55  1  0
 56 54  1  0
 57 58  1  0
 57  6  1  0
 59 61  1  0
 59 58  1  0
 60 71  2  0
 61 66  1  0
 62 70  1  0
 62 72  1  0
 63 69  1  0
 63 65  1  0
 64 70  1  0
 65 64  1  0
 66 65  2  0
 67 68  1  0
 67 61  2  0
 68 63  2  0
 69 62  1  0
 70 60  1  0
 72 74  2  0
 73 72  1  0
 75 73  1  0
 76 85  2  0
 76 81  1  0
 77 73  1  0
 78 77  1  0
 79 80  1  0
 79 78  1  0
 80 76  1  0
 81 77  1  0
 81 82  2  0
 83 82  1  0
 84 83  2  0
 85 84  1  0
 86 60  1  0
 86 91  1  0
 86 87  1  0
 87 90  1  1
 87 88  1  0
 89 87  1  0
 91 94  1  0
 92 96  1  0
 92 91  1  0
 93 92  2  0
 96 95  1  0
 98 96  1  0
 98 99  1  0
 98 97  1  0
M  ISO  4  19 100  27 100  58 101  59 101
M  END
>  <TORSDO>  (72) 
F 20

>  <SCORE>  (72) 
-12.532

>  <name>  (72) 
71

>  <ligand_id>  (72) 
71

>  <original_smiles>  (72) 
[H]C(=C1C([H])([H])C([H])([H])C1([H])N([H])C(=O)N1C([H])([H])C([H])([H])C([H])([H])C([H])(n2nc(-c3c([H])c([H])c(Oc4c([H])c([H])c(F)c([H])c4F)c([H])c3[H])c(C(=O)N([H])[H])c2N([H])[H])C1([H])[H])c1nn(C([H])([H])C([H])([H])Oc2c([H])c([H])c3c(c2[H])C([H])([H])N(C(=O)C([H])(N([H])C(=O)C([H])(N([H])C([H])([H])[H])C([H])([H])[H])C(C([H])([H])[H])(C([H])([H])[H])C([H])([H])[H])C([H])(C(=O)N([H])C2([H])c4c([H])c([H])c([H])c([H])c4C([H])([H])C([H])([H])C2([H])[H])C3([H])[H])c(C([H])([H])[H])c1C1([H])C([H])([H])C([H])([H])C([H])([H])[N+]1([H])[H]

>  <smiles>  (72) 
[H]C(=C1C([H])([H])C([H])([H])C1([H])N([H])C(=O)N1C([H])([H])C([H])([H])C([H])([H])C([H])(n2nc(-c3c([H])c([H])c(Oc4c([H])c([H])c(F)c([H])c4F)c([H])c3[H])c(C(=O)N([H])[H])c2N([H])[H])C1([H])[H])c1nn(C([H])([H])C([H])([H])Oc2c([H])c([H])c3c(c2[H])C([H])([H])N(C(=O)C([H])(N([H])C(=O)C([H])(N([H])C([H])([H])[H])C([H])([H])[H])C(C([H])([H])[H])(C([H])([H])[H])C([H])([H])[H])C([H])(C(=O)N([H])C2([H])c4c([H])c([H])c([H])c([H])c4C([H])([H])C([H])([H])C2([H])[H])C3([H])[H])c(C([H])([H])[H])c1C1([H])C([H])([H])C([H])([H])C([H])([H])[N+]1([H])[H]

$$$$
72:0:0
     RDKit          3D

 90 99  0  0  1  0  0  0  0  0999 V2000
  -29.5140  -20.0360   18.6670 C   0  0  0  0  0  3  0  0  0  0  0  0
  -29.3910  -21.3010   18.0380 C   0  0  0  0  0  0  0  0  0  0  0  0
  -29.0350  -22.4900   18.6990 C   0  0  0  0  0  0  0  0  0  0  0  0
  -29.3060  -19.8890   20.0500 C   0  0  0  0  0  3  0  0  0  0  0  0
  -28.7530  -22.5580   20.0790 C   0  0  0  0  0  0  0  0  0  0  0  0
  -29.6210  -21.5390   16.5680 C   0  0  0  0  0  3  0  0  0  0  0  0
  -28.9600  -23.6470   17.7310 C   0  0  0  0  0  3  0  0  0  0  0  0
  -29.3500  -23.0450   16.3610 C   0  0  0  0  0  3  0  0  0  0  0  0
  -28.9190  -21.1940   20.6950 N   0  0  0  0  0  0  0  0  0  0  0  0
  -29.7410  -18.2940   20.7050 C   0  0  0  0  0  2  0  0  0  0  0  0
  -30.3190  -15.3610   20.1870 C   0  0  0  0  0  0  0  0  0  0  0  0
  -30.3090  -12.9230   19.2140 C   0  0  0  0  0  2  0  0  0  0  0  0
  -29.3550  -12.6890   18.0140 C   0  0  0  0  0  2  0  0  0  0  0  0
  -27.9290  -12.3760   18.4980 C   0  0  0  0  0  2  0  0  0  0  0  0
  -27.4930  -13.3090   19.6530 C   0  0  0  0  0  3  0  0  0  0  0  0
  -28.5750  -13.4730   20.7410 C   0  0  0  0  0  2  0  0  0  0  0  0
  -29.7570  -14.0460   20.0680 N   0  0  0  0  0  0  0  0  0  0  0  0
  -31.5480  -15.3410   20.0230 O   0  0  0  0  0  0  0  0  0  0  0  0
  -29.5540  -16.6520   20.2920 N   0  0  0  0  0  0  0  0  0  0  0  0
  -28.5680  -16.4510   20.2240 H   0  0  0  0  0  0  0  0  0  0  0  0
  -25.1340  -13.8140   20.4730 C   0  0  0  0  0  0  0  0  0  0  0  0
  -24.0960  -13.0160   20.8600 C   0  0  0  0  0  0  0  0  0  0  0  0
  -24.5860  -11.6750   20.8090 C   0  0  0  0  0  0  0  0  0  0  0  0
  -26.1870  -12.9600   20.1990 N   0  0  0  0  0  0  0  0  0  0  0  0
  -25.8720  -11.6670   20.4700 N   0  0  0  0  0  0  0  0  0  0  0  0
  -23.8830  -10.4000   21.0040 C   0  0  0  0  0  0  0  0  0  0  0  0
  -24.3300   -9.4470   21.9460 C   0  0  0  0  0  3  0  0  0  0  0  0
  -23.6240   -8.2380   22.1320 C   0  0  0  0  0  3  0  0  0  0  0  0
  -22.4570   -7.9740   21.3760 C   0  0  0  0  0  0  0  0  0  0  0  0
  -22.0290   -8.9160   20.4240 C   0  0  0  0  0  3  0  0  0  0  0  0
  -22.7350  -10.1160   20.2360 C   0  0  0  0  0  3  0  0  0  0  0  0
  -21.7220   -6.8170   21.4730 O   0  0  0  0  0  0  0  0  0  0  0  0
  -21.6710   -6.0900   22.6360 C   0  0  0  0  0  0  0  0  0  0  0  0
  -21.1890   -6.6450   23.8420 C   0  0  0  0  0  3  0  0  0  0  0  0
  -21.0850   -5.8420   24.9940 C   0  0  0  0  0  3  0  0  0  0  0  0
  -21.4570   -4.4850   24.9440 C   0  0  0  0  0  0  0  0  0  0  0  0
  -21.9340   -3.9300   23.7430 C   0  0  0  0  0  3  0  0  0  0  0  0
  -22.0370   -4.7300   22.5920 C   0  0  0  0  0  0  0  0  0  0  0  0
  -22.4770   -4.1840   21.4330 F   0  0  0  0  0  0  0  0  0  0  0  0
  -21.3510   -3.7120   26.0500 F   0  0  0  0  0  0  0  0  0  0  0  0
  -22.6960  -13.4690   21.1570 C   0  0  0  0  0  0  0  0  0  0  0  0
  -21.9920  -12.7530   22.0270 N   0  0  0  0  0  0  0  0  0  0  0  0
  -22.2370  -14.4930   20.6540 O   0  0  0  0  0  0  0  0  0  0  0  0
  -22.3750  -11.9270   22.4610 H   0  0  0  0  0  0  0  0  0  0  0  0
  -21.0530  -13.0400   22.2640 H   0  0  0  0  0  0  0  0  0  0  0  0
  -25.2640  -15.1880   20.2980 N   0  0  0  0  0  0  0  0  0  0  0  0
  -24.4790  -15.8190   20.4200 H   0  0  0  0  0  0  0  0  0  0  0  0
  -26.0790  -15.6440   19.9120 H   0  0  0  0  0  0  0  0  0  0  0  0
  -28.0790  -24.0960   20.6920 C   0  0  0  0  0  2  0  0  0  0  0  0
  -28.3020  -25.7380   20.3830 O   0  0  0  0  0  0  0  0  0  0  0  0
  -24.6320  -31.8210   23.2430 C   0  0  0  0  0  0  0  0  0  0  0  0
  -27.2880  -26.8590   20.3680 C   0  0  0  0  0  0  0  0  0  0  0  0
  -23.4990  -30.4090   21.5780 C   0  0  0  0  0  3  0  0  0  0  0  0
  -24.9980  -28.7790   20.2290 C   0  0  0  0  0  0  0  0  0  0  0  0
  -26.0740  -30.6030   21.5260 C   0  0  0  0  0  2  0  0  0  0  0  0
  -26.1680  -29.1790   20.8860 C   0  0  0  0  0  0  0  0  0  0  0  0
  -27.3100  -28.2440   20.9230 C   0  0  0  0  0  3  0  0  0  0  0  0
  -26.0830  -26.6250   19.6690 C   0  0  0  0  0  3  0  0  0  0  0  0
  -24.9850  -27.5240   19.6000 C   0  0  0  0  0  3  0  0  0  0  0  0
  -23.7820  -29.7090   20.2200 C   0  0  0  0  0  2  0  0  0  0  0  0
  -24.7560  -30.9740   22.1700 N   0  0  0  0  0  0  0  0  0  0  0  0
  -23.5250  -32.1170   23.7210 O   0  0  0  0  0  0  0  0  0  0  0  0
  -22.7660  -29.4260   22.5300 C   0  0  0  0  0  0  0  0  0  0  0  0
  -21.4350  -29.2830   22.3800 N   0  0  0  0  0  0  0  0  0  0  0  0
  -23.4040  -28.7900   23.3730 O   0  0  0  0  0  0  0  0  0  0  0  0
  -20.9740  -29.8460   21.6780 H   0  0  0  0  0  0  0  0  0  0  0  0
  -18.0190  -28.1490   22.8500 C   0  0  0  0  0  0  0  0  0  0  0  0
  -20.5830  -28.3550   23.1330 C   0  0  0  0  0  3  0  0  0  0  0  0
  -20.6560  -26.9290   22.5390 C   0  0  0  0  0  2  0  0  0  0  0  0
  -19.5540  -26.6450   21.5150 C   0  0  0  0  0  2  0  0  0  0  0  0
  -18.1710  -26.8080   22.1520 C   0  0  0  0  0  2  0  0  0  0  0  0
  -19.1510  -28.8820   23.2960 C   0  0  0  0  0  0  0  0  0  0  0  0
  -18.9510  -30.1370   23.9130 C   0  0  0  0  0  3  0  0  0  0  0  0
  -17.6550  -30.6580   24.0850 C   0  0  0  0  0  3  0  0  0  0  0  0
  -16.5380  -29.9220   23.6520 C   0  0  0  0  0  3  0  0  0  0  0  0
  -16.7210  -28.6690   23.0410 C   0  0  0  0  0  3  0  0  0  0  0  0
  -25.8770  -32.4720   23.9180 C   0  0  0  0  0  3  0  0  0  0  0  0
  -25.5510  -33.8810   24.2120 N   0  0  0  0  0  0  0  0  0  0  0  0
  -25.9190  -34.9290   23.4620 C   0  0  0  0  0  0  0  0  0  0  0  0
  -26.6270  -34.8110   22.4590 O   0  0  0  0  0  0  0  0  0  0  0  0
  -24.9270  -34.0450   24.9890 H   0  0  0  0  0  0  0  0  0  0  0  0
  -24.2210  -36.7370   23.0270 C   0  0  0  0  0  1  0  0  0  0  0  0
  -25.4260  -36.3270   23.8880 C   0  0  0  0  0  3  0  0  0  0  0  0
  -27.5310  -37.2140   24.7970 C   0  0  0  0  0  1  0  0  0  0  0  0
  -26.4720  -37.3720   23.8030 N   0  0  0  0  0  0  0  0  0  0  0  0
  -26.0670  -38.2970   23.9180 H   0  0  0  0  0  0  0  0  0  0  0  0
  -26.3200  -31.7340   25.2420 C   0  0  1  0  0  0  0  0  0  0  0  0
  -25.1710  -31.5340   26.2590 C   0  0  0  0  0  1  0  0  0  0  0  0
  -26.9160  -30.3430   24.9280 C   0  0  0  0  0  1  0  0  0  0  0  0
  -27.4400  -32.5420   25.9420 C   0  0  0  0  0  1  0  0  0  0  0  0
  1  4  1  0
  2  1  2  0
  2  3  1  0
  3  5  1  0
  4  9  1  0
  4 10  1  0
  5 49  1  0
  5  9  2  0
  6  2  1  0
  7  3  2  0
  8  6  2  0
  8  7  1  0
 11 19  1  0
 12 17  1  0
 13 14  1  0
 13 12  1  0
 15 14  1  0
 15 24  1  0
 15 16  1  0
 17 11  1  0
 17 16  1  0
 18 11  2  0
 19 10  1  0
 20 19  1  0
 21 22  2  0
 22 41  1  0
 23 22  1  0
 23 26  1  0
 24 25  1  0
 24 21  1  0
 25 23  2  0
 26 27  1  0
 27 28  2  0
 29 32  1  0
 29 28  1  0
 30 29  2  0
 31 30  1  0
 31 26  2  0
 32 33  1  0
 33 34  1  0
 34 35  2  0
 36 35  1  0
 36 40  1  0
 37 36  2  0
 38 33  2  0
 38 37  1  0
 39 38  1  0
 41 42  1  0
 42 45  1  0
 42 44  1  0
 43 41  2  0
 46 47  1  0
 46 21  1  0
 48 46  1  0
 50 49  1  0
 51 62  2  0
 52 50  1  0
 52 57  1  0
 53 61  1  0
 53 63  1  0
 54 56  1  0
 55 61  1  0
 56 57  2  0
 56 55  1  0
 58 52  2  0
 59 58  1  0
 59 54  2  0
 60 54  1  0
 60 53  1  0
 61 51  1  0
 63 65  2  0
 64 63  1  0
 66 64  1  0
 67 76  2  0
 67 72  1  0
 68 64  1  0
 68 72  1  0
 69 68  1  0
 70 71  1  0
 70 69  1  0
 71 67  1  0
 72 73  2  0
 73 74  1  0
 75 74  2  0
 76 75  1  0
 77 51  1  0
 77 78  1  0
 77 87  1  0
 78 81  1  0
 79 83  1  0
 79 78  1  0
 80 79  2  0
 83 82  1  0
 85 83  1  0
 85 86  1  0
 85 84  1  0
 87 90  1  1
 87 88  1  0
 89 87  1  0
M  ISO  4  11 100  19 100  49 101  50 101
M  END
>  <TORSDO>  (73) 
F 18

>  <SCORE>  (73) 
-16.541

>  <name>  (73) 
72

>  <ligand_id>  (73) 
72

>  <original_smiles>  (73) 
[H]c1c([H])c([H])c2c(c1[H])C([H])([H])C([H])([H])C([H])([H])C2([H])N([H])C(=O)C1([H])N(C(=O)C([H])(N([H])C(=O)C([H])(N([H])C([H])([H])[H])C([H])([H])[H])C(C([H])([H])[H])(C([H])([H])[H])C([H])([H])[H])C([H])([H])c2c([H])c(OC([H])([H])c3nc(C([H])([H])N([H])C(=O)N4C([H])([H])C([H])([H])C([H])([H])C([H])(n5nc(-c6c([H])c([H])c(Oc7c([H])c([H])c(F)c([H])c7F)c([H])c6[H])c(C(=O)N([H])[H])c5N([H])[H])C4([H])[H])c([H])c4c3C([H])([H])C([H])([H])C4([H])[H])c([H])c([H])c2C1([H])[H]

>  <smiles>  (73) 
[H]c1c([H])c([H])c2c(c1[H])C([H])([H])C([H])([H])C([H])([H])C2([H])N([H])C(=O)C1([H])N(C(=O)C([H])(N([H])C(=O)C([H])(N([H])C([H])([H])[H])C([H])([H])[H])C(C([H])([H])[H])(C([H])([H])[H])C([H])([H])[H])C([H])([H])c2c([H])c(OC([H])([H])c3nc(C([H])([H])N([H])C(=O)N4C([H])([H])C([H])([H])C([H])([H])C([H])(n5nc(-c6c([H])c([H])c(Oc7c([H])c([H])c(F)c([H])c7F)c([H])c6[H])c(C(=O)N([H])[H])c5N([H])[H])C4([H])[H])c([H])c4c3C([H])([H])C([H])([H])C4([H])[H])c([H])c([H])c2C1([H])[H]

$$$$
73:0:0
     RDKit          3D

 96105  0  0  1  0  0  0  0  0999 V2000
  -28.7300  -21.0050   19.2580 C   0  0  0  0  0  2  0  0  0  0  0  0
  -30.4350  -20.9230   21.0580 C   0  0  0  0  0  2  0  0  0  0  0  0
  -28.8880  -22.5370   19.1720 C   0  0  0  0  0  2  0  0  0  0  0  0
  -30.5730  -22.4650   20.9870 C   0  0  0  0  0  2  0  0  0  0  0  0
  -30.0550  -20.3520   19.6800 C   0  0  0  0  0  3  0  0  0  0  0  0
  -29.3530  -23.1440   20.4540 N   0  0  1  0  0  4  0  0  0  0  0  0
  -28.6240  -22.9720   21.1330 H   0  0  0  0  0  0  0  0  0  0  0  0
  -30.7270  -14.6090   20.7280 C   0  0  0  0  0  0  0  0  0  0  0  0
  -30.4900  -12.4170   19.6580 C   0  0  0  0  0  2  0  0  0  0  0  0
  -29.6170  -12.6040   18.3990 C   0  0  0  0  0  2  0  0  0  0  0  0
  -28.1240  -12.4710   18.7520 C   0  0  0  0  0  2  0  0  0  0  0  0
  -27.7160  -13.3330   19.9790 C   0  0  0  0  0  3  0  0  0  0  0  0
  -28.7130  -13.1500   21.1470 C   0  0  0  0  0  2  0  0  0  0  0  0
  -30.0670  -13.4230   20.6430 N   0  0  0  0  0  0  0  0  0  0  0  0
  -31.9010  -14.7490   20.3720 O   0  0  0  0  0  0  0  0  0  0  0  0
  -30.0860  -16.8110   18.8040 C   0  0  0  0  0  3  0  0  0  0  0  0
  -30.1140  -18.1220   18.4280 C   0  0  0  0  0  0  0  0  0  0  0  0
  -29.9930  -16.8560   20.2230 C   0  0  0  0  0  0  0  0  0  0  0  0
  -29.8930  -18.0960   20.6920 N   0  0  0  0  0  0  0  0  0  0  0  0
  -30.0210  -18.8860   19.5860 N   0  0  0  0  0  0  0  0  0  0  0  0
  -29.9680  -15.6810   21.0170 N   0  0  0  0  0  0  0  0  0  0  0  0
  -29.1080  -15.5050   21.5120 H   0  0  0  0  0  0  0  0  0  0  0  0
  -25.2830  -13.9330   20.5680 C   0  0  0  0  0  0  0  0  0  0  0  0
  -24.2030  -13.1580   20.8910 C   0  0  0  0  0  0  0  0  0  0  0  0
  -24.6710  -11.8080   20.8930 C   0  0  0  0  0  0  0  0  0  0  0  0
  -26.3430  -13.0560   20.3930 N   0  0  0  0  0  0  0  0  0  0  0  0
  -25.9740  -11.7730   20.6460 N   0  0  0  0  0  0  0  0  0  0  0  0
  -23.9440  -10.5430   21.0600 C   0  0  0  0  0  0  0  0  0  0  0  0
  -24.3450   -9.5810   22.0120 C   0  0  0  0  0  3  0  0  0  0  0  0
  -23.6170   -8.3800   22.1650 C   0  0  0  0  0  3  0  0  0  0  0  0
  -22.4770   -8.1340   21.3650 C   0  0  0  0  0  0  0  0  0  0  0  0
  -22.0960   -9.0850   20.4020 C   0  0  0  0  0  3  0  0  0  0  0  0
  -22.8240  -10.2770   20.2470 C   0  0  0  0  0  3  0  0  0  0  0  0
  -21.7250   -6.9840   21.4240 O   0  0  0  0  0  0  0  0  0  0  0  0
  -21.6330   -6.2460   22.5770 C   0  0  0  0  0  0  0  0  0  0  0  0
  -21.1350   -6.7970   23.7780 C   0  0  0  0  0  3  0  0  0  0  0  0
  -20.9910   -5.9830   24.9190 C   0  0  0  0  0  3  0  0  0  0  0  0
  -21.3340   -4.6180   24.8600 C   0  0  0  0  0  0  0  0  0  0  0  0
  -21.8250   -4.0670   23.6640 C   0  0  0  0  0  3  0  0  0  0  0  0
  -21.9720   -4.8790   22.5250 C   0  0  0  0  0  0  0  0  0  0  0  0
  -22.4240   -4.3380   21.3690 F   0  0  0  0  0  0  0  0  0  0  0  0
  -21.1890   -3.8350   25.9540 F   0  0  0  0  0  0  0  0  0  0  0  0
  -22.7920  -13.6300   21.0940 C   0  0  0  0  0  0  0  0  0  0  0  0
  -22.0320  -12.9450   21.9420 N   0  0  0  0  0  0  0  0  0  0  0  0
  -22.3700  -14.6420   20.5360 O   0  0  0  0  0  0  0  0  0  0  0  0
  -22.3860  -12.1290   22.4180 H   0  0  0  0  0  0  0  0  0  0  0  0
  -21.0850  -13.2440   22.1200 H   0  0  0  0  0  0  0  0  0  0  0  0
  -25.4500  -15.3030   20.3870 N   0  0  0  0  0  0  0  0  0  0  0  0
  -24.6720  -15.9510   20.4480 H   0  0  0  0  0  0  0  0  0  0  0  0
  -26.3090  -15.7450   20.0880 H   0  0  0  0  0  0  0  0  0  0  0  0
  -30.2430  -18.6960   17.0480 C   0  0  0  0  0  2  0  0  0  0  0  0
  -30.6440  -17.7280   16.0960 O   0  0  0  0  0  0  0  0  0  0  0  0
  -31.4980  -17.4050   16.3660 H   0  0  0  0  0  0  0  0  0  0  0  0
  -29.5320  -24.6320   20.3860 C   0  0  0  0  0  2  0  0  0  0  0  0
  -28.2560  -25.4080   19.9790 C   0  0  0  0  0  2  0  0  0  0  0  0
  -28.3630  -26.8250   20.1940 O   0  0  0  0  0  0  0  0  0  0  0  0
  -24.5430  -31.9710   23.2950 C   0  0  0  0  0  0  0  0  0  0  0  0
  -27.1830  -27.5480   20.1760 C   0  0  0  0  0  0  0  0  0  0  0  0
  -23.3310  -30.5720   21.6570 C   0  0  0  0  0  3  0  0  0  0  0  0
  -24.7800  -29.0520   20.2130 C   0  0  0  0  0  0  0  0  0  0  0  0
  -25.8540  -30.9440   21.4380 C   0  0  0  0  0  2  0  0  0  0  0  0
  -25.9420  -29.5750   20.7930 C   0  0  0  0  0  0  0  0  0  0  0  0
  -27.1450  -28.8310   20.7700 C   0  0  0  0  0  3  0  0  0  0  0  0
  -25.9950  -27.0450   19.5870 C   0  0  0  0  0  3  0  0  0  0  0  0
  -24.8020  -27.7870   19.6080 C   0  0  0  0  0  3  0  0  0  0  0  0
  -23.5320  -29.9030   20.2720 C   0  0  0  0  0  2  0  0  0  0  0  0
  -24.5950  -31.1770   22.1890 N   0  0  0  0  0  0  0  0  0  0  0  0
  -23.4640  -32.2350   23.8440 O   0  0  0  0  0  0  0  0  0  0  0  0
  -22.6920  -29.5420   22.6150 C   0  0  0  0  0  0  0  0  0  0  0  0
  -21.3700  -29.3420   22.4820 N   0  0  0  0  0  0  0  0  0  0  0  0
  -23.3810  -28.9260   23.4320 O   0  0  0  0  0  0  0  0  0  0  0  0
  -20.8760  -29.8900   21.7930 H   0  0  0  0  0  0  0  0  0  0  0  0
  -18.0120  -28.0960   22.9560 C   0  0  0  0  0  0  0  0  0  0  0  0
  -20.5630  -28.3950   23.2510 C   0  0  0  0  0  3  0  0  0  0  0  0
  -20.6930  -26.9630   22.6830 C   0  0  0  0  0  2  0  0  0  0  0  0
  -19.6060  -26.6180   21.6600 C   0  0  0  0  0  2  0  0  0  0  0  0
  -18.2160  -26.7460   22.2900 C   0  0  0  0  0  2  0  0  0  0  0  0
  -19.1150  -28.8770   23.3930 C   0  0  0  0  0  0  0  0  0  0  0  0
  -18.8720  -30.1400   23.9740 C   0  0  0  0  0  3  0  0  0  0  0  0
  -17.5580  -30.6240   24.1240 C   0  0  0  0  0  3  0  0  0  0  0  0
  -16.4690  -29.8390   23.7050 C   0  0  0  0  0  3  0  0  0  0  0  0
  -16.6970  -28.5780   23.1260 C   0  0  0  0  0  3  0  0  0  0  0  0
  -25.8300  -32.6040   23.9080 C   0  0  0  0  0  3  0  0  0  0  0  0
  -26.3410  -31.8490   25.1950 C   0  0  1  0  0  0  0  0  0  0  0  0
  -25.2430  -31.6270   26.2630 C   0  0  0  0  0  1  0  0  0  0  0  0
  -26.9220  -30.4660   24.8190 C   0  0  0  0  0  1  0  0  0  0  0  0
  -27.4920  -32.6490   25.8500 C   0  0  0  0  0  1  0  0  0  0  0  0
  -25.5280  -34.0090   24.2140 N   0  0  0  0  0  0  0  0  0  0  0  0
  -25.8770  -35.0460   23.4420 C   0  0  0  0  0  0  0  0  0  0  0  0
  -26.5590  -34.9220   22.4210 O   0  0  0  0  0  0  0  0  0  0  0  0
  -24.9250  -34.1810   25.0050 H   0  0  0  0  0  0  0  0  0  0  0  0
  -24.1780  -36.8520   23.0260 C   0  0  0  0  0  1  0  0  0  0  0  0
  -25.3940  -36.4450   23.8720 C   0  0  0  0  0  3  0  0  0  0  0  0
  -27.5180  -37.3160   24.7430 C   0  0  0  0  0  1  0  0  0  0  0  0
  -26.4410  -37.4850   23.7710 N   0  0  0  0  0  0  0  0  0  0  0  0
  -26.0410  -38.4120   23.9000 H   0  0  0  0  0  0  0  0  0  0  0  0
  3  1  1  0
  3  6  1  0
  4  2  1  0
  5  1  1  0
  5  2  1  0
  6  4  1  0
  6  7  1  1
  8 21  1  0
  9 14  1  0
 10 11  1  0
 10  9  1  0
 12 11  1  0
 12 26  1  0
 12 13  1  0
 14  8  1  0
 14 13  1  0
 15  8  2  0
 16 18  1  0
 17 16  2  0
 17 20  1  0
 18 19  2  0
 18 21  1  0
 20  5  1  0
 20 19  1  0
 21 22  1  0
 23 24  2  0
 24 25  1  0
 24 43  1  0
 25 28  1  0
 26 23  1  0
 26 27  1  0
 27 25  2  0
 28 29  1  0
 29 30  2  0
 31 34  1  0
 31 30  1  0
 32 31  2  0
 33 32  1  0
 33 28  2  0
 34 35  1  0
 35 36  1  0
 36 37  2  0
 38 37  1  0
 38 42  1  0
 39 38  2  0
 40 35  2  0
 40 39  1  0
 41 40  1  0
 43 44  1  0
 44 47  1  0
 44 46  1  0
 45 43  2  0
 48 49  1  0
 48 23  1  0
 50 48  1  0
 51 17  1  0
 52 53  1  0
 52 51  1  0
 54  6  1  0
 55 56  1  0
 55 54  1  0
 57 68  2  0
 58 56  1  0
 58 63  1  0
 59 67  1  0
 59 69  1  0
 60 66  1  0
 60 62  1  0
 61 67  1  0
 62 61  1  0
 63 62  2  0
 64 65  1  0
 64 58  2  0
 65 60  2  0
 66 59  1  0
 67 57  1  0
 69 71  2  0
 70 69  1  0
 72 70  1  0
 73 82  2  0
 73 78  1  0
 74 70  1  0
 74 78  1  0
 75 74  1  0
 76 77  1  0
 76 75  1  0
 77 73  1  0
 78 79  2  0
 79 80  1  0
 81 80  2  0
 82 81  1  0
 83 57  1  0
 83 88  1  0
 83 84  1  0
 84 87  1  1
 84 85  1  0
 86 84  1  0
 88 91  1  0
 89 93  1  0
 89 88  1  0
 90 89  2  0
 93 92  1  0
 95 93  1  0
 95 96  1  0
 95 94  1  0
M  ISO  4   8 100  21 100  55 101  56 101
M  END
>  <TORSDO>  (74) 
F 20

>  <SCORE>  (74) 
-14.266

>  <name>  (74) 
73

>  <ligand_id>  (74) 
73

>  <original_smiles>  (74) 
[H]OC([H])([H])c1c([H])c(N([H])C(=O)N2C([H])([H])C([H])([H])C([H])([H])C([H])(n3nc(-c4c([H])c([H])c(Oc5c([H])c([H])c(F)c([H])c5F)c([H])c4[H])c(C(=O)N([H])[H])c3N([H])[H])C2([H])[H])nn1C1([H])C([H])([H])C([H])([H])[N+]([H])(C([H])([H])C([H])([H])Oc2c([H])c([H])c3c(c2[H])C([H])([H])N(C(=O)C([H])(N([H])C(=O)C([H])(N([H])C([H])([H])[H])C([H])([H])[H])C(C([H])([H])[H])(C([H])([H])[H])C([H])([H])[H])C([H])(C(=O)N([H])C2([H])c4c([H])c([H])c([H])c([H])c4C([H])([H])C([H])([H])C2([H])[H])C3([H])[H])C([H])([H])C1([H])[H]

>  <smiles>  (74) 
[H]OC([H])([H])c1c([H])c(N([H])C(=O)N2C([H])([H])C([H])([H])C([H])([H])C([H])(n3nc(-c4c([H])c([H])c(Oc5c([H])c([H])c(F)c([H])c5F)c([H])c4[H])c(C(=O)N([H])[H])c3N([H])[H])C2([H])[H])nn1C1([H])C([H])([H])C([H])([H])[N+]([H])(C([H])([H])C([H])([H])Oc2c([H])c([H])c3c(c2[H])C([H])([H])N(C(=O)C([H])(N([H])C(=O)C([H])(N([H])C([H])([H])[H])C([H])([H])[H])C(C([H])([H])[H])(C([H])([H])[H])C([H])([H])[H])C([H])(C(=O)N([H])C2([H])c4c([H])c([H])c([H])c([H])c4C([H])([H])C([H])([H])C2([H])[H])C3([H])[H])C([H])([H])C1([H])[H]

$$$$
74:0:0
     RDKit          3D

 91100  0  0  1  0  0  0  0  0999 V2000
  -30.5250  -15.2040   20.3180 C   0  0  0  0  0  0  0  0  0  0  0  0
  -30.4460  -12.7700   19.4660 C   0  0  0  0  0  2  0  0  0  0  0  0
  -29.5580  -12.5660   18.2170 C   0  0  0  0  0  2  0  0  0  0  0  0
  -28.1000  -12.3130   18.6350 C   0  0  0  0  0  2  0  0  0  0  0  0
  -27.6310  -13.2900   19.7440 C   0  0  0  0  0  3  0  0  0  0  0  0
  -28.6570  -13.4620   20.8830 C   0  0  0  0  0  2  0  0  0  0  0  0
  -29.8980  -13.9350   20.2530 N   0  0  0  0  0  0  0  0  0  0  0  0
  -31.7430  -15.1340   20.1020 O   0  0  0  0  0  0  0  0  0  0  0  0
  -29.5150  -23.7460   19.4280 C   0  0  0  0  0  3  0  0  0  0  0  0
  -28.3810  -24.4750   19.9730 C   0  0  0  0  0  0  0  0  0  0  0  0
  -28.8640  -21.5110   20.1220 C   0  0  0  0  0  0  0  0  0  0  0  0
  -30.4180  -19.2690   19.8170 C   0  0  0  0  0  3  0  0  0  0  0  0
  -28.2930  -18.8280   20.6800 C   0  0  0  0  0  3  0  0  0  0  0  0
  -30.4010  -17.6830   19.3320 C   0  0  0  0  0  3  0  0  0  0  0  0
  -28.9390  -17.3340   21.1080 C   0  0  0  0  0  3  0  0  0  0  0  0
  -29.7370  -22.3530   19.5080 N   0  0  0  0  0  0  0  0  0  0  0  0
  -27.5270  -23.5520   20.5870 N   0  0  0  0  0  0  0  0  0  0  0  0
  -27.7480  -22.1510   20.6460 N   0  0  0  0  0  2  0  0  0  0  0  0
  -29.1480  -19.9890   20.1970 N   0  0  0  0  0  0  0  0  0  0  0  0
  -29.8750  -16.5310   20.1970 N   0  0  0  0  0  0  0  0  0  0  0  0
  -25.2410  -13.8370   20.4380 C   0  0  0  0  0  0  0  0  0  0  0  0
  -24.1800  -13.0550   20.8000 C   0  0  0  0  0  0  0  0  0  0  0  0
  -24.6640  -11.7110   20.8120 C   0  0  0  0  0  0  0  0  0  0  0  0
  -26.2980  -12.9700   20.2340 N   0  0  0  0  0  0  0  0  0  0  0  0
  -25.9620  -11.6870   20.5290 N   0  0  0  0  0  0  0  0  0  0  0  0
  -23.9490  -10.4440   21.0150 C   0  0  0  0  0  0  0  0  0  0  0  0
  -24.3710   -9.5020   21.9800 C   0  0  0  0  0  3  0  0  0  0  0  0
  -23.6520   -8.3020   22.1710 C   0  0  0  0  0  3  0  0  0  0  0  0
  -22.4980   -8.0340   21.3980 C   0  0  0  0  0  0  0  0  0  0  0  0
  -22.0950   -8.9640   20.4230 C   0  0  0  0  0  3  0  0  0  0  0  0
  -22.8150  -10.1550   20.2300 C   0  0  0  0  0  3  0  0  0  0  0  0
  -21.7530   -6.8830   21.4970 O   0  0  0  0  0  0  0  0  0  0  0  0
  -21.6810   -6.1710   22.6670 C   0  0  0  0  0  0  0  0  0  0  0  0
  -21.2220   -6.7540   23.8680 C   0  0  0  0  0  3  0  0  0  0  0  0
  -21.0980   -5.9670   25.0310 C   0  0  0  0  0  3  0  0  0  0  0  0
  -21.4230   -4.5980   24.9920 C   0  0  0  0  0  0  0  0  0  0  0  0
  -21.8750   -4.0140   23.7960 C   0  0  0  0  0  3  0  0  0  0  0  0
  -22.0010   -4.7990   22.6360 C   0  0  0  0  0  0  0  0  0  0  0  0
  -22.4160   -4.2260   21.4800 F   0  0  0  0  0  0  0  0  0  0  0  0
  -21.2970   -3.8400   26.1070 F   0  0  0  0  0  0  0  0  0  0  0  0
  -22.7720  -13.5210   21.0240 C   0  0  0  0  0  0  0  0  0  0  0  0
  -22.0340  -12.8450   21.8960 N   0  0  0  0  0  0  0  0  0  0  0  0
  -22.3330  -14.5230   20.4600 O   0  0  0  0  0  0  0  0  0  0  0  0
  -22.4020  -12.0370   22.3750 H   0  0  0  0  0  0  0  0  0  0  0  0
  -21.0880  -13.1420   22.0900 H   0  0  0  0  0  0  0  0  0  0  0  0
  -25.3940  -15.2060   20.2350 N   0  0  0  0  0  0  0  0  0  0  0  0
  -24.6220  -15.8570   20.3250 H   0  0  0  0  0  0  0  0  0  0  0  0
  -26.2490  -15.6450   19.9170 H   0  0  0  0  0  0  0  0  0  0  0  0
  -30.5190  -24.2700   17.1650 C   0  0  0  0  0  1  0  0  0  0  0  0
  -30.5980  -24.5020   18.6820 C   0  0  0  0  0  2  0  0  0  0  0  0
  -28.2770  -25.9980   20.0020 O   0  0  0  0  0  0  0  0  0  0  0  0
  -24.6690  -31.8140   23.0780 C   0  0  0  0  0  0  0  0  0  0  0  0
  -27.1920  -26.9960   20.0130 C   0  0  0  0  0  0  0  0  0  0  0  0
  -23.4550  -30.4320   21.4400 C   0  0  0  0  0  3  0  0  0  0  0  0
  -24.8850  -28.8340   19.9970 C   0  0  0  0  0  0  0  0  0  0  0  0
  -26.0140  -30.6530   21.2670 C   0  0  0  0  0  2  0  0  0  0  0  0
  -26.0740  -29.2500   20.6090 C   0  0  0  0  0  0  0  0  0  0  0  0
  -27.2200  -28.3500   20.5940 C   0  0  0  0  0  3  0  0  0  0  0  0
  -25.9770  -26.7110   19.3570 C   0  0  0  0  0  3  0  0  0  0  0  0
  -24.8570  -27.5850   19.3530 C   0  0  0  0  0  3  0  0  0  0  0  0
  -23.6670  -29.7530   20.0570 C   0  0  0  0  0  2  0  0  0  0  0  0
  -24.7340  -30.9920   21.9820 N   0  0  0  0  0  0  0  0  0  0  0  0
  -23.5850  -32.1020   23.6140 O   0  0  0  0  0  0  0  0  0  0  0  0
  -22.7720  -29.4290   22.4050 C   0  0  0  0  0  0  0  0  0  0  0  0
  -21.4390  -29.2770   22.2990 N   0  0  0  0  0  0  0  0  0  0  0  0
  -23.4460  -28.7880   23.2160 O   0  0  0  0  0  0  0  0  0  0  0  0
  -20.9490  -29.8420   21.6210 H   0  0  0  0  0  0  0  0  0  0  0  0
  -18.0520  -28.1090   22.8600 C   0  0  0  0  0  0  0  0  0  0  0  0
  -20.6210  -28.3370   23.0730 C   0  0  0  0  0  3  0  0  0  0  0  0
  -20.6900  -26.9140   22.4720 C   0  0  0  0  0  2  0  0  0  0  0  0
  -19.5620  -26.6240   21.4770 C   0  0  0  0  0  2  0  0  0  0  0  0
  -18.1970  -26.7720   22.1540 C   0  0  0  0  0  2  0  0  0  0  0  0
  -19.1900  -28.8510   23.2770 C   0  0  0  0  0  0  0  0  0  0  0  0
  -18.9980  -30.1020   23.9030 C   0  0  0  0  0  3  0  0  0  0  0  0
  -17.7030  -30.6130   24.1120 C   0  0  0  0  0  3  0  0  0  0  0  0
  -16.5810  -29.8680   23.7100 C   0  0  0  0  0  3  0  0  0  0  0  0
  -16.7560  -28.6190   23.0900 C   0  0  0  0  0  3  0  0  0  0  0  0
  -25.9490  -32.4480   23.7030 C   0  0  0  0  0  3  0  0  0  0  0  0
  -25.6290  -33.8360   24.0800 N   0  0  0  0  0  0  0  0  0  0  0  0
  -25.9350  -34.9180   23.3530 C   0  0  0  0  0  0  0  0  0  0  0  0
  -26.5820  -34.8550   22.3040 O   0  0  0  0  0  0  0  0  0  0  0  0
  -25.0500  -33.9570   24.8980 H   0  0  0  0  0  0  0  0  0  0  0  0
  -24.1820  -36.7110   23.1150 C   0  0  0  0  0  1  0  0  0  0  0  0
  -25.4520  -36.2890   23.8710 C   0  0  0  0  0  3  0  0  0  0  0  0
  -27.6050  -37.1710   24.6600 C   0  0  0  0  0  1  0  0  0  0  0  0
  -26.4720  -37.3560   23.7580 N   0  0  0  0  0  0  0  0  0  0  0  0
  -26.0620  -38.2670   23.9460 H   0  0  0  0  0  0  0  0  0  0  0  0
  -26.4830  -31.6530   24.9590 C   0  0  1  0  0  0  0  0  0  0  0  0
  -25.4050  -31.3940   26.0370 C   0  0  0  0  0  1  0  0  0  0  0  0
  -27.0640  -30.2840   24.5400 C   0  0  0  0  0  1  0  0  0  0  0  0
  -27.6410  -32.4370   25.6210 C   0  0  0  0  0  1  0  0  0  0  0  0
  2  7  1  0
  3  4  1  0
  3  2  1  0
  5  4  1  0
  5 24  1  0
  5  6  1  0
  7  1  1  0
  7  6  1  0
  8  1  2  0
  9 50  1  0
  9 16  1  0
  9 10  1  0
 10 51  1  0
 10 17  2  0
 11 19  1  0
 11 18  1  0
 12 19  1  0
 13 15  2  0
 14 12  2  0
 14 20  1  0
 16 11  2  0
 17 18  1  0
 19 13  1  0
 20  1  1  0
 20 15  1  0
 21 22  2  0
 22 23  1  0
 22 41  1  0
 23 26  1  0
 24 21  1  0
 24 25  1  0
 25 23  2  0
 26 27  1  0
 27 28  2  0
 29 32  1  0
 29 28  1  0
 30 29  2  0
 31 30  1  0
 31 26  2  0
 32 33  1  0
 33 34  1  0
 34 35  2  0
 36 35  1  0
 36 40  1  0
 37 36  2  0
 38 33  2  0
 38 37  1  0
 39 38  1  0
 41 42  1  0
 42 45  1  0
 42 44  1  0
 43 41  2  0
 46 47  1  0
 46 21  1  0
 48 46  1  0
 49 50  1  0
 51 53  1  0
 52 63  2  0
 53 58  1  0
 54 62  1  0
 54 64  1  0
 55 61  1  0
 55 57  1  0
 56 62  1  0
 57 56  1  0
 58 57  2  0
 59 53  2  0
 60 59  1  0
 60 55  2  0
 61 54  1  0
 62 52  1  0
 64 66  2  0
 65 64  1  0
 67 65  1  0
 68 77  2  0
 68 73  1  0
 69 65  1  0
 69 73  1  0
 70 69  1  0
 71 72  1  0
 71 70  1  0
 72 68  1  0
 73 74  2  0
 74 75  1  0
 76 75  2  0
 77 76  1  0
 78 52  1  0
 78 79  1  0
 78 88  1  0
 79 82  1  0
 80 84  1  0
 80 79  1  0
 81 80  2  0
 84 83  1  0
 86 84  1  0
 86 87  1  0
 86 85  1  0
 88 91  1  1
 88 89  1  0
 90 88  1  0
M  ISO  4   1 100  10 101  20 100  51 101
M  END
>  <TORSDO>  (75) 
F 16

>  <SCORE>  (75) 
-15.074

>  <name>  (75) 
74

>  <ligand_id>  (75) 
74

>  <original_smiles>  (75) 
[H]c1c([H])c([H])c2c(c1[H])C([H])([H])C([H])([H])C([H])([H])C2([H])N([H])C(=O)C1([H])N(C(=O)C([H])(N([H])C(=O)C([H])(N([H])C([H])([H])[H])C([H])([H])[H])C(C([H])([H])[H])(C([H])([H])[H])C([H])([H])[H])C([H])([H])c2c([H])c(Oc3nnc(N4C([H])([H])C([H])([H])N(C(=O)N5C([H])([H])C([H])([H])C([H])([H])C([H])(n6nc(-c7c([H])c([H])c(Oc8c([H])c([H])c(F)c([H])c8F)c([H])c7[H])c(C(=O)N([H])[H])c6N([H])[H])C5([H])[H])C([H])([H])C4([H])[H])nc3C([H])([H])C([H])([H])[H])c([H])c([H])c2C1([H])[H]

>  <smiles>  (75) 
[H]c1c([H])c([H])c2c(c1[H])C([H])([H])C([H])([H])C([H])([H])C2([H])N([H])C(=O)C1([H])N(C(=O)C([H])(N([H])C(=O)C([H])(N([H])C([H])([H])[H])C([H])([H])[H])C(C([H])([H])[H])(C([H])([H])[H])C([H])([H])[H])C([H])([H])c2c([H])c(Oc3nnc(N4C([H])([H])C([H])([H])N(C(=O)N5C([H])([H])C([H])([H])C([H])([H])C([H])(n6nc(-c7c([H])c([H])c(Oc8c([H])c([H])c(F)c([H])c8F)c([H])c7[H])c(C(=O)N([H])[H])c6N([H])[H])C5([H])[H])C([H])([H])C4([H])[H])nc3C([H])([H])C([H])([H])[H])c([H])c([H])c2C1([H])[H]

$$$$
75:0:0
     RDKit          3D

 87 95  0  0  1  0  0  0  0  0999 V2000
  -30.4230  -15.2370   20.3440 C   0  0  0  0  0  0  0  0  0  0  0  0
  -30.4420  -12.7670   19.5590 C   0  0  0  0  0  2  0  0  0  0  0  0
  -29.5550  -12.5460   18.3070 C   0  0  0  0  0  2  0  0  0  0  0  0
  -28.0890  -12.3020   18.7060 C   0  0  0  0  0  2  0  0  0  0  0  0
  -27.6130  -13.2950   19.7950 C   0  0  0  0  0  3  0  0  0  0  0  0
  -28.6270  -13.4490   20.9490 C   0  0  0  0  0  2  0  0  0  0  0  0
  -29.8840  -13.9220   20.3490 N   0  0  0  0  0  0  0  0  0  0  0  0
  -31.6400  -15.2690   20.1030 O   0  0  0  0  0  0  0  0  0  0  0  0
  -30.2680  -20.3600   19.6440 C   0  0  0  0  0  3  0  0  0  0  0  0
  -28.4280  -18.8550   20.7690 C   0  0  0  0  0  3  0  0  0  0  0  0
  -29.1300  -21.1580   20.1110 C   0  0  0  0  0  0  0  0  0  0  0  0
  -29.5630  -18.0480   20.3070 C   0  0  0  0  0  0  0  0  0  0  0  0
  -28.2310  -20.2700   20.7040 N   0  0  0  0  0  0  0  0  0  0  0  0
  -30.4680  -18.9450   19.7280 N   0  0  0  0  0  0  0  0  0  0  0  0
  -29.5880  -16.4440   20.4620 N   0  0  0  0  0  0  0  0  0  0  0  0
  -28.6690  -16.1290   20.7300 H   0  0  0  0  0  0  0  0  0  0  0  0
  -25.2220  -13.8870   20.4650 C   0  0  0  0  0  0  0  0  0  0  0  0
  -24.1460  -13.1260   20.8230 C   0  0  0  0  0  0  0  0  0  0  0  0
  -24.6050  -11.7720   20.8330 C   0  0  0  0  0  0  0  0  0  0  0  0
  -26.2660  -13.0010   20.2690 N   0  0  0  0  0  0  0  0  0  0  0  0
  -25.9050  -11.7240   20.5580 N   0  0  0  0  0  0  0  0  0  0  0  0
  -23.8650  -10.5180   21.0280 C   0  0  0  0  0  0  0  0  0  0  0  0
  -24.2790   -9.5530   21.9720 C   0  0  0  0  0  3  0  0  0  0  0  0
  -23.5380   -8.3660   22.1560 C   0  0  0  0  0  3  0  0  0  0  0  0
  -22.3660   -8.1350   21.3960 C   0  0  0  0  0  0  0  0  0  0  0  0
  -21.9710   -9.0890   20.4410 C   0  0  0  0  0  3  0  0  0  0  0  0
  -22.7130  -10.2670   20.2560 C   0  0  0  0  0  3  0  0  0  0  0  0
  -21.5970   -7.0000   21.4880 O   0  0  0  0  0  0  0  0  0  0  0  0
  -21.5510   -6.2550   22.6390 C   0  0  0  0  0  0  0  0  0  0  0  0
  -21.1730   -6.8190   23.8770 C   0  0  0  0  0  3  0  0  0  0  0  0
  -21.0700   -6.0020   25.0200 C   0  0  0  0  0  3  0  0  0  0  0  0
  -21.3350   -4.6230   24.9270 C   0  0  0  0  0  0  0  0  0  0  0  0
  -21.7070   -4.0590   23.6940 C   0  0  0  0  0  3  0  0  0  0  0  0
  -21.8110   -4.8730   22.5530 C   0  0  0  0  0  0  0  0  0  0  0  0
  -22.1480   -4.3200   21.3630 F   0  0  0  0  0  0  0  0  0  0  0  0
  -21.2300   -3.8360   26.0240 F   0  0  0  0  0  0  0  0  0  0  0  0
  -22.7450  -13.6160   21.0390 C   0  0  0  0  0  0  0  0  0  0  0  0
  -21.9880  -12.9500   21.9030 N   0  0  0  0  0  0  0  0  0  0  0  0
  -22.3290  -14.6280   20.4750 O   0  0  0  0  0  0  0  0  0  0  0  0
  -22.3380  -12.1320   22.3820 H   0  0  0  0  0  0  0  0  0  0  0  0
  -21.0460  -13.2620   22.0910 H   0  0  0  0  0  0  0  0  0  0  0  0
  -25.3960  -15.2540   20.2580 N   0  0  0  0  0  0  0  0  0  0  0  0
  -24.6140  -15.8990   20.3070 H   0  0  0  0  0  0  0  0  0  0  0  0
  -26.2190  -15.6660   19.8410 H   0  0  0  0  0  0  0  0  0  0  0  0
  -29.1060  -22.8980   20.2780 C   0  0  0  0  0  3  0  0  0  0  0  0
  -28.0950  -24.2890   19.7960 C   0  0  0  0  0  3  0  0  0  0  0  0
  -28.2790  -25.9080   19.9990 O   0  0  0  0  0  0  0  0  0  0  0  0
  -24.6950  -31.7760   23.0450 C   0  0  0  0  0  0  0  0  0  0  0  0
  -27.2440  -26.9720   19.9440 C   0  0  0  0  0  0  0  0  0  0  0  0
  -23.4850  -30.3870   21.4110 C   0  0  0  0  0  3  0  0  0  0  0  0
  -24.9230  -28.8090   19.9500 C   0  0  0  0  0  0  0  0  0  0  0  0
  -26.0440  -30.6270   21.2240 C   0  0  0  0  0  2  0  0  0  0  0  0
  -26.1150  -29.2270   20.5550 C   0  0  0  0  0  0  0  0  0  0  0  0
  -27.2700  -28.3300   20.5270 C   0  0  0  0  0  3  0  0  0  0  0  0
  -26.0210  -26.6960   19.2950 C   0  0  0  0  0  3  0  0  0  0  0  0
  -24.8980  -27.5640   19.3000 C   0  0  0  0  0  3  0  0  0  0  0  0
  -23.6960  -29.7160   20.0250 C   0  0  0  0  0  2  0  0  0  0  0  0
  -24.7630  -30.9560   21.9470 N   0  0  0  0  0  0  0  0  0  0  0  0
  -23.6120  -32.0530   23.5860 O   0  0  0  0  0  0  0  0  0  0  0  0
  -22.8150  -29.3760   22.3790 C   0  0  0  0  0  0  0  0  0  0  0  0
  -21.4800  -29.2210   22.2900 N   0  0  0  0  0  0  0  0  0  0  0  0
  -23.5010  -28.7320   23.1770 O   0  0  0  0  0  0  0  0  0  0  0  0
  -20.9800  -29.7910   21.6220 H   0  0  0  0  0  0  0  0  0  0  0  0
  -18.1060  -28.0290   22.8800 C   0  0  0  0  0  0  0  0  0  0  0  0
  -20.6750  -28.2740   23.0680 C   0  0  0  0  0  3  0  0  0  0  0  0
  -20.7490  -26.8520   22.4630 C   0  0  0  0  0  2  0  0  0  0  0  0
  -19.6130  -26.5570   21.4770 C   0  0  0  0  0  2  0  0  0  0  0  0
  -18.2530  -26.6940   22.1670 C   0  0  0  0  0  2  0  0  0  0  0  0
  -19.2420  -28.7770   23.2880 C   0  0  0  0  0  0  0  0  0  0  0  0
  -19.0470  -30.0250   23.9180 C   0  0  0  0  0  3  0  0  0  0  0  0
  -17.7500  -30.5250   24.1420 C   0  0  0  0  0  3  0  0  0  0  0  0
  -16.6300  -29.7740   23.7470 C   0  0  0  0  0  3  0  0  0  0  0  0
  -16.8090  -28.5280   23.1220 C   0  0  0  0  0  3  0  0  0  0  0  0
  -25.9720  -32.4210   23.6640 C   0  0  0  0  0  3  0  0  0  0  0  0
  -25.6370  -33.8000   24.0580 N   0  0  0  0  0  0  0  0  0  0  0  0
  -25.9270  -34.8960   23.3430 C   0  0  0  0  0  0  0  0  0  0  0  0
  -26.5680  -34.8530   22.2900 O   0  0  0  0  0  0  0  0  0  0  0  0
  -25.0610  -33.9060   24.8810 H   0  0  0  0  0  0  0  0  0  0  0  0
  -24.1510  -36.6700   23.1350 C   0  0  0  0  0  1  0  0  0  0  0  0
  -25.4300  -36.2540   23.8790 C   0  0  0  0  0  3  0  0  0  0  0  0
  -27.5800  -37.1510   24.6630 C   0  0  0  0  0  1  0  0  0  0  0  0
  -26.4370  -37.3350   23.7730 N   0  0  0  0  0  0  0  0  0  0  0  0
  -26.0180  -38.2390   23.9760 H   0  0  0  0  0  0  0  0  0  0  0  0
  -26.5300  -31.6220   24.9060 C   0  0  1  0  0  0  0  0  0  0  0  0
  -25.4680  -31.3390   25.9940 C   0  0  0  0  0  1  0  0  0  0  0  0
  -27.1230  -30.2630   24.4680 C   0  0  0  0  0  1  0  0  0  0  0  0
  -27.6860  -32.4130   25.5620 C   0  0  0  0  0  1  0  0  0  0  0  0
  1  7  1  0
  1 15  1  0
  2  7  1  0
  3  4  1  0
  3  2  1  0
  5  4  1  0
  5 20  1  0
  5  6  1  0
  7  6  1  0
  8  1  2  0
  9 14  2  0
  9 11  1  0
 11 45  1  0
 11 13  2  0
 12 15  1  0
 12 10  2  0
 13 10  1  0
 14 12  1  0
 15 16  1  0
 17 18  2  0
 18 19  1  0
 18 37  1  0
 19 22  1  0
 20 17  1  0
 20 21  1  0
 21 19  2  0
 22 23  1  0
 23 24  2  0
 25 28  1  0
 25 24  1  0
 26 25  2  0
 27 26  1  0
 27 22  2  0
 28 29  1  0
 29 30  1  0
 30 31  2  0
 32 31  1  0
 32 36  1  0
 33 32  2  0
 34 29  2  0
 34 33  1  0
 35 34  1  0
 37 38  1  0
 38 41  1  0
 38 40  1  0
 39 37  2  0
 42 43  1  0
 42 17  1  0
 44 42  1  0
 46 47  1  0
 46 45  2  0
 48 59  2  0
 49 47  1  0
 49 54  1  0
 50 58  1  0
 50 60  1  0
 51 57  1  0
 51 53  1  0
 52 58  1  0
 53 52  1  0
 54 53  2  0
 55 56  1  0
 55 49  2  0
 56 51  2  0
 57 50  1  0
 58 48  1  0
 60 62  2  0
 61 60  1  0
 63 61  1  0
 64 73  2  0
 64 69  1  0
 65 61  1  0
 65 69  1  0
 66 65  1  0
 67 68  1  0
 67 66  1  0
 68 64  1  0
 69 70  2  0
 70 71  1  0
 72 71  2  0
 73 72  1  0
 74 48  1  0
 74 75  1  0
 74 84  1  0
 75 78  1  0
 76 80  1  0
 76 75  1  0
 77 76  2  0
 80 79  1  0
 82 80  1  0
 82 83  1  0
 82 81  1  0
 84 87  1  1
 84 85  1  0
 86 84  1  0
M  ISO  4   1 100  15 100  46 101  47 101
M  END
>  <TORSDO>  (76) 
F 17

>  <SCORE>  (76) 
-15.573

>  <name>  (76) 
75

>  <ligand_id>  (76) 
75

>  <original_smiles>  (76) 
[H]c1nc(C([H])([H])C([H])([H])Oc2c([H])c([H])c3c(c2[H])C([H])([H])N(C(=O)C([H])(N([H])C(=O)C([H])(N([H])C([H])([H])[H])C([H])([H])[H])C(C([H])([H])[H])(C([H])([H])[H])C([H])([H])[H])C([H])(C(=O)N([H])C2([H])c4c([H])c([H])c([H])c([H])c4C([H])([H])C([H])([H])C2([H])[H])C3([H])[H])c([H])nc1N([H])C(=O)N1C([H])([H])C([H])([H])C([H])([H])C([H])(n2nc(-c3c([H])c([H])c(Oc4c([H])c([H])c(F)c([H])c4F)c([H])c3[H])c(C(=O)N([H])[H])c2N([H])[H])C1([H])[H]

>  <smiles>  (76) 
[H]c1nc(C([H])([H])C([H])([H])Oc2c([H])c([H])c3c(c2[H])C([H])([H])N(C(=O)C([H])(N([H])C(=O)C([H])(N([H])C([H])([H])[H])C([H])([H])[H])C(C([H])([H])[H])(C([H])([H])[H])C([H])([H])[H])C([H])(C(=O)N([H])C2([H])c4c([H])c([H])c([H])c([H])c4C([H])([H])C([H])([H])C2([H])[H])C3([H])[H])c([H])nc1N([H])C(=O)N1C([H])([H])C([H])([H])C([H])([H])C([H])(n2nc(-c3c([H])c([H])c(Oc4c([H])c([H])c(F)c([H])c4F)c([H])c3[H])c(C(=O)N([H])[H])c2N([H])[H])C1([H])[H]

$$$$
76:0:0
     RDKit          3D

 94103  0  0  1  0  0  0  0  0999 V2000
  -30.1750  -19.4160   20.6760 C   0  0  0  0  0  3  0  0  0  0  0  0
  -29.2020  -18.5310   18.2360 C   0  0  0  0  0  3  0  0  0  0  0  0
  -29.8820  -20.3740   19.6700 C   0  0  0  0  0  0  0  0  0  0  0  0
  -29.4250  -19.9020   18.4470 C   0  0  0  0  0  0  0  0  0  0  0  0
  -29.9740  -18.0320   20.3810 C   0  0  0  0  0  0  0  0  0  0  0  0
  -29.3570  -20.9950   17.4160 C   0  0  0  0  0  2  0  0  0  0  0  0
  -30.1650  -22.1380   18.0740 C   0  0  0  0  0  2  0  0  0  0  0  0
  -30.1610  -21.8920   19.6110 C   0  0  0  0  0  3  0  0  0  0  0  0
  -29.4670  -17.6150   19.1940 N   0  0  0  0  0  0  0  0  0  0  0  0
  -29.1300  -22.7630   20.2530 N   0  0  0  0  0  4  0  0  0  0  0  0
  -28.9960  -22.4290   21.1950 H   0  0  0  0  0  0  0  0  0  0  0  0
  -28.2660  -22.5920   19.7640 H   0  0  0  0  0  0  0  0  0  0  0  0
  -29.4200  -24.2460   20.2940 C   0  0  0  0  0  2  0  0  0  0  0  0
  -28.1660  -25.1510   20.0650 C   0  0  0  0  0  2  0  0  0  0  0  0
  -28.3550  -26.5940   20.1930 O   0  0  0  0  0  0  0  0  0  0  0  0
  -24.5900  -31.8950   23.2330 C   0  0  0  0  0  0  0  0  0  0  0  0
  -27.2070  -27.3870   20.1590 C   0  0  0  0  0  0  0  0  0  0  0  0
  -23.3820  -30.5000   21.5910 C   0  0  0  0  0  3  0  0  0  0  0  0
  -24.8300  -28.9580   20.1640 C   0  0  0  0  0  0  0  0  0  0  0  0
  -25.9170  -30.8300   21.4020 C   0  0  0  0  0  2  0  0  0  0  0  0
  -25.9960  -29.4570   20.7550 C   0  0  0  0  0  0  0  0  0  0  0  0
  -27.1880  -28.6820   20.7450 C   0  0  0  0  0  3  0  0  0  0  0  0
  -26.0130  -26.9250   19.5540 C   0  0  0  0  0  3  0  0  0  0  0  0
  -24.8370  -27.6940   19.5570 C   0  0  0  0  0  3  0  0  0  0  0  0
  -23.5910  -29.8260   20.2100 C   0  0  0  0  0  2  0  0  0  0  0  0
  -24.6490  -31.0910   22.1330 N   0  0  0  0  0  0  0  0  0  0  0  0
  -23.5080  -32.1730   23.7680 O   0  0  0  0  0  0  0  0  0  0  0  0
  -22.7220  -29.4800   22.5490 C   0  0  0  0  0  0  0  0  0  0  0  0
  -21.3960  -29.3080   22.4220 N   0  0  0  0  0  0  0  0  0  0  0  0
  -23.4010  -28.8480   23.3620 O   0  0  0  0  0  0  0  0  0  0  0  0
  -20.9090  -29.8710   21.7370 H   0  0  0  0  0  0  0  0  0  0  0  0
  -18.0110  -28.1450   22.9330 C   0  0  0  0  0  0  0  0  0  0  0  0
  -20.5720  -28.3750   23.1920 C   0  0  0  0  0  3  0  0  0  0  0  0
  -20.6570  -26.9460   22.6070 C   0  0  0  0  0  2  0  0  0  0  0  0
  -19.5460  -26.6400   21.5980 C   0  0  0  0  0  2  0  0  0  0  0  0
  -18.1680  -26.7980   22.2490 C   0  0  0  0  0  2  0  0  0  0  0  0
  -19.1400  -28.8920   23.3620 C   0  0  0  0  0  0  0  0  0  0  0  0
  -18.9380  -30.1550   23.9620 C   0  0  0  0  0  3  0  0  0  0  0  0
  -17.6400  -30.6700   24.1360 C   0  0  0  0  0  3  0  0  0  0  0  0
  -16.5250  -29.9180   23.7250 C   0  0  0  0  0  3  0  0  0  0  0  0
  -16.7120  -28.6580   23.1290 C   0  0  0  0  0  3  0  0  0  0  0  0
  -25.8770  -32.5210   23.8550 C   0  0  0  0  0  3  0  0  0  0  0  0
  -26.3930  -31.7460   25.1280 C   0  0  1  0  0  0  0  0  0  0  0  0
  -25.3000  -31.5090   26.1970 C   0  0  0  0  0  1  0  0  0  0  0  0
  -26.9720  -30.3670   24.7340 C   0  0  0  0  0  1  0  0  0  0  0  0
  -27.5470  -32.5350   25.7890 C   0  0  0  0  0  1  0  0  0  0  0  0
  -25.5710  -33.9200   24.1860 N   0  0  0  0  0  0  0  0  0  0  0  0
  -25.9040  -34.9710   23.4260 C   0  0  0  0  0  0  0  0  0  0  0  0
  -26.5720  -34.8670   22.3940 O   0  0  0  0  0  0  0  0  0  0  0  0
  -24.9800  -34.0760   24.9890 H   0  0  0  0  0  0  0  0  0  0  0  0
  -24.1800  -36.7680   23.0740 C   0  0  0  0  0  1  0  0  0  0  0  0
  -25.4200  -36.3610   23.8850 C   0  0  0  0  0  3  0  0  0  0  0  0
  -27.5580  -37.2380   24.7140 C   0  0  0  0  0  1  0  0  0  0  0  0
  -26.4550  -37.4120   23.7720 N   0  0  0  0  0  0  0  0  0  0  0  0
  -26.0520  -38.3330   23.9220 H   0  0  0  0  0  0  0  0  0  0  0  0
  -30.3850  -16.9250   21.3740 C   0  0  0  0  0  2  0  0  0  0  0  0
  -30.6440  -14.5410   20.5150 C   0  0  0  0  0  0  0  0  0  0  0  0
  -30.3730  -12.3740   19.3430 C   0  0  0  0  0  2  0  0  0  0  0  0
  -29.4270  -12.5540   18.1370 C   0  0  0  0  0  2  0  0  0  0  0  0
  -27.9540  -12.4040   18.5670 C   0  0  0  0  0  2  0  0  0  0  0  0
  -27.6090  -13.2460   19.8230 C   0  0  0  0  0  3  0  0  0  0  0  0
  -28.6610  -13.0320   20.9320 C   0  0  0  0  0  2  0  0  0  0  0  0
  -29.9800  -13.3590   20.3650 N   0  0  0  0  0  0  0  0  0  0  0  0
  -31.7820  -14.7220   20.0750 O   0  0  0  0  0  0  0  0  0  0  0  0
  -29.9380  -15.5430   21.0790 N   0  0  0  0  0  0  0  0  0  0  0  0
  -28.9860  -15.3300   21.3310 H   0  0  0  0  0  0  0  0  0  0  0  0
  -25.2080  -13.8550   20.5180 C   0  0  0  0  0  0  0  0  0  0  0  0
  -24.1380  -13.0840   20.8850 C   0  0  0  0  0  0  0  0  0  0  0  0
  -24.6000  -11.7320   20.8630 C   0  0  0  0  0  0  0  0  0  0  0  0
  -26.2540  -12.9730   20.2980 N   0  0  0  0  0  0  0  0  0  0  0  0
  -25.8910  -11.6920   20.5640 N   0  0  0  0  0  0  0  0  0  0  0  0
  -23.8730  -10.4710   21.0550 C   0  0  0  0  0  0  0  0  0  0  0  0
  -24.3080   -9.5010   21.9860 C   0  0  0  0  0  3  0  0  0  0  0  0
  -23.5820   -8.3040   22.1640 C   0  0  0  0  0  3  0  0  0  0  0  0
  -22.4060   -8.0680   21.4120 C   0  0  0  0  0  0  0  0  0  0  0  0
  -21.9900   -9.0260   20.4700 C   0  0  0  0  0  3  0  0  0  0  0  0
  -22.7170  -10.2150   20.2900 C   0  0  0  0  0  3  0  0  0  0  0  0
  -21.6520   -6.9230   21.4990 O   0  0  0  0  0  0  0  0  0  0  0  0
  -21.6130   -6.1730   22.6480 C   0  0  0  0  0  0  0  0  0  0  0  0
  -21.2040   -6.7220   23.8820 C   0  0  0  0  0  3  0  0  0  0  0  0
  -21.1130   -5.8990   25.0230 C   0  0  0  0  0  3  0  0  0  0  0  0
  -21.4190   -4.5290   24.9290 C   0  0  0  0  0  0  0  0  0  0  0  0
  -21.8210   -3.9780   23.6990 C   0  0  0  0  0  3  0  0  0  0  0  0
  -21.9140   -4.7990   22.5610 C   0  0  0  0  0  0  0  0  0  0  0  0
  -22.2820   -4.2600   21.3730 F   0  0  0  0  0  0  0  0  0  0  0  0
  -21.3230   -3.7350   26.0220 F   0  0  0  0  0  0  0  0  0  0  0  0
  -22.7390  -13.5620   21.1470 C   0  0  0  0  0  0  0  0  0  0  0  0
  -22.0050  -12.8680   22.0120 N   0  0  0  0  0  0  0  0  0  0  0  0
  -22.3030  -14.5850   20.6200 O   0  0  0  0  0  0  0  0  0  0  0  0
  -22.3710  -12.0410   22.4600 H   0  0  0  0  0  0  0  0  0  0  0  0
  -21.0660  -13.1690   22.2300 H   0  0  0  0  0  0  0  0  0  0  0  0
  -25.3740  -15.2250   20.3350 N   0  0  0  0  0  0  0  0  0  0  0  0
  -24.6060  -15.8800   20.4310 H   0  0  0  0  0  0  0  0  0  0  0  0
  -26.2230  -15.6580   19.9930 H   0  0  0  0  0  0  0  0  0  0  0  0
  2  4  2  0
  2  9  1  0
  3  1  2  0
  4  3  1  0
  5  1  1  0
  5 56  1  0
  6  7  1  0
  6  4  1  0
  7  8  1  0
  8  3  1  0
  8 10  1  0
  9  5  2  0
 10 13  1  0
 10 11  1  0
 12 10  1  0
 14 15  1  0
 14 13  1  0
 16 27  2  0
 17 15  1  0
 17 22  1  0
 18 26  1  0
 18 28  1  0
 19 25  1  0
 19 21  1  0
 20 26  1  0
 21 20  1  0
 22 21  2  0
 23 24  1  0
 23 17  2  0
 24 19  2  0
 25 18  1  0
 26 16  1  0
 28 30  2  0
 29 28  1  0
 31 29  1  0
 32 41  2  0
 32 37  1  0
 33 29  1  0
 33 37  1  0
 34 33  1  0
 35 36  1  0
 35 34  1  0
 36 32  1  0
 37 38  2  0
 38 39  1  0
 40 39  2  0
 41 40  1  0
 42 16  1  0
 42 47  1  0
 42 43  1  0
 43 46  1  1
 43 44  1  0
 45 43  1  0
 47 50  1  0
 48 52  1  0
 48 47  1  0
 49 48  2  0
 52 51  1  0
 54 52  1  0
 54 55  1  0
 54 53  1  0
 57 65  1  0
 58 63  1  0
 59 60  1  0
 59 58  1  0
 61 60  1  0
 61 70  1  0
 61 62  1  0
 63 57  1  0
 63 62  1  0
 64 57  2  0
 65 66  1  0
 65 56  1  0
 67 68  2  0
 68 87  1  0
 69 68  1  0
 69 72  1  0
 70 67  1  0
 70 71  1  0
 71 69  2  0
 72 73  1  0
 73 74  2  0
 75 78  1  0
 75 74  1  0
 76 75  2  0
 77 76  1  0
 77 72  2  0
 78 79  1  0
 79 80  1  0
 80 81  2  0
 82 81  1  0
 82 86  1  0
 83 82  2  0
 84 79  2  0
 84 83  1  0
 85 84  1  0
 87 88  1  0
 88 91  1  0
 88 90  1  0
 89 87  2  0
 92 93  1  0
 92 67  1  0
 94 92  1  0
M  ISO  4  14 101  15 101  57 100  65 100
M  END
>  <TORSDO>  (77) 
F 20

>  <SCORE>  (77) 
-14.061

>  <name>  (77) 
76

>  <ligand_id>  (77) 
76

>  <original_smiles>  (77) 
[H]c1nc(C([H])([H])N([H])C(=O)N2C([H])([H])C([H])([H])C([H])([H])C([H])(n3nc(-c4c([H])c([H])c(Oc5c([H])c([H])c(F)c([H])c5F)c([H])c4[H])c(C(=O)N([H])[H])c3N([H])[H])C2([H])[H])c([H])c2c1C([H])([H])C([H])([H])C2([H])[N+]([H])([H])C([H])([H])C([H])([H])Oc1c([H])c([H])c2c(c1[H])C([H])([H])N(C(=O)C([H])(N([H])C(=O)C([H])(N([H])C([H])([H])[H])C([H])([H])[H])C(C([H])([H])[H])(C([H])([H])[H])C([H])([H])[H])C([H])(C(=O)N([H])C1([H])c3c([H])c([H])c([H])c([H])c3C([H])([H])C([H])([H])C1([H])[H])C2([H])[H]

>  <smiles>  (77) 
[H]c1nc(C([H])([H])N([H])C(=O)N2C([H])([H])C([H])([H])C([H])([H])C([H])(n3nc(-c4c([H])c([H])c(Oc5c([H])c([H])c(F)c([H])c5F)c([H])c4[H])c(C(=O)N([H])[H])c3N([H])[H])C2([H])[H])c([H])c2c1C([H])([H])C([H])([H])C2([H])[N+]([H])([H])C([H])([H])C([H])([H])Oc1c([H])c([H])c2c(c1[H])C([H])([H])N(C(=O)C([H])(N([H])C(=O)C([H])(N([H])C([H])([H])[H])C([H])([H])[H])C(C([H])([H])[H])(C([H])([H])[H])C([H])([H])[H])C([H])(C(=O)N([H])C1([H])c3c([H])c([H])c([H])c([H])c3C([H])([H])C([H])([H])C1([H])[H])C2([H])[H]

$$$$
77:0:0
     RDKit          3D

 89 98  0  0  1  0  0  0  0  0999 V2000
  -30.3250  -20.7620   21.1900 C   0  0  0  0  0  3  0  0  0  0  0  0
  -30.1650  -22.1270   21.0620 C   0  0  0  0  0  3  0  0  0  0  0  0
  -28.8020  -21.1190   19.6430 C   0  0  0  0  0  3  0  0  0  0  0  0
  -29.4590  -20.0630   20.2920 C   0  0  0  0  0  0  0  0  0  0  0  0
  -29.2090  -22.4090   20.0970 N   0  0  0  0  0  0  0  0  0  0  0  0
  -30.7050  -14.8260   20.0130 C   0  0  0  0  0  0  0  0  0  0  0  0
  -30.4320  -12.5770   18.9290 C   0  0  0  0  0  2  0  0  0  0  0  0
  -29.4130  -12.6520   17.7690 C   0  0  0  0  0  2  0  0  0  0  0  0
  -27.9760  -12.4530   18.2900 C   0  0  0  0  0  2  0  0  0  0  0  0
  -27.6790  -13.3060   19.5510 C   0  0  0  0  0  3  0  0  0  0  0  0
  -28.8110  -13.1700   20.5930 C   0  0  0  0  0  2  0  0  0  0  0  0
  -30.0500  -13.6050   19.9330 N   0  0  0  0  0  0  0  0  0  0  0  0
  -31.8590  -14.8920   19.5730 O   0  0  0  0  0  0  0  0  0  0  0  0
  -28.7310  -17.7960   21.4180 C   0  0  0  0  0  2  0  0  0  0  0  0
  -28.9390  -16.2650   21.2320 C   0  0  0  0  0  2  0  0  0  0  0  0
  -30.4170  -17.4300   19.8230 C   0  0  0  0  0  2  0  0  0  0  0  0
  -29.2580  -18.4740   20.1570 C   0  0  0  0  0  3  0  0  0  0  0  0
  -30.0080  -16.0270   20.2490 N   0  0  0  0  0  0  0  0  0  0  0  0
  -25.3410  -13.8760   20.4420 C   0  0  0  0  0  0  0  0  0  0  0  0
  -24.3020  -13.0910   20.8590 C   0  0  0  0  0  0  0  0  0  0  0  0
  -24.7600  -11.7430   20.7580 C   0  0  0  0  0  0  0  0  0  0  0  0
  -26.3680  -13.0050   20.1180 N   0  0  0  0  0  0  0  0  0  0  0  0
  -26.0300  -11.7150   20.3670 N   0  0  0  0  0  0  0  0  0  0  0  0
  -24.0450  -10.4760   20.9510 C   0  0  0  0  0  0  0  0  0  0  0  0
  -24.4900   -9.5120   21.8830 C   0  0  0  0  0  3  0  0  0  0  0  0
  -23.7730   -8.3100   22.0650 C   0  0  0  0  0  3  0  0  0  0  0  0
  -22.5980   -8.0640   21.3160 C   0  0  0  0  0  0  0  0  0  0  0  0
  -22.1730   -9.0170   20.3730 C   0  0  0  0  0  3  0  0  0  0  0  0
  -22.8900  -10.2100   20.1890 C   0  0  0  0  0  3  0  0  0  0  0  0
  -21.8510   -6.9140   21.4070 O   0  0  0  0  0  0  0  0  0  0  0  0
  -21.7460   -6.2170   22.5840 C   0  0  0  0  0  0  0  0  0  0  0  0
  -21.2420   -6.8140   23.7600 C   0  0  0  0  0  3  0  0  0  0  0  0
  -21.0850   -6.0420   24.9300 C   0  0  0  0  0  3  0  0  0  0  0  0
  -21.4240   -4.6750   24.9220 C   0  0  0  0  0  0  0  0  0  0  0  0
  -21.9200   -4.0780   23.7500 C   0  0  0  0  0  3  0  0  0  0  0  0
  -22.0780   -4.8480   22.5830 C   0  0  0  0  0  0  0  0  0  0  0  0
  -22.5380   -4.2640   21.4510 F   0  0  0  0  0  0  0  0  0  0  0  0
  -21.2660   -3.9310   26.0420 F   0  0  0  0  0  0  0  0  0  0  0  0
  -22.9260  -13.5620   21.2330 C   0  0  0  0  0  0  0  0  0  0  0  0
  -22.2550  -12.8400   22.1230 N   0  0  0  0  0  0  0  0  0  0  0  0
  -22.4580  -14.6020   20.7720 O   0  0  0  0  0  0  0  0  0  0  0  0
  -22.6470  -11.9980   22.5160 H   0  0  0  0  0  0  0  0  0  0  0  0
  -21.3340  -13.1350   22.4160 H   0  0  0  0  0  0  0  0  0  0  0  0
  -25.4810  -15.2510   20.2850 N   0  0  0  0  0  0  0  0  0  0  0  0
  -24.7110  -15.8890   20.4520 H   0  0  0  0  0  0  0  0  0  0  0  0
  -26.2910  -15.7040   19.8830 H   0  0  0  0  0  0  0  0  0  0  0  0
  -28.8400  -23.7990   19.5520 C   0  0  0  0  0  2  0  0  0  0  0  0
  -28.3900  -25.0300   20.5070 C   0  0  0  0  0  2  0  0  0  0  0  0
  -28.4740  -26.4680   20.0610 O   0  0  0  0  0  0  0  0  0  0  0  0
  -24.5800  -31.8110   23.0960 C   0  0  0  0  0  0  0  0  0  0  0  0
  -27.3320  -27.2970   20.0610 C   0  0  0  0  0  0  0  0  0  0  0  0
  -23.4310  -30.3980   21.4270 C   0  0  0  0  0  3  0  0  0  0  0  0
  -24.9360  -28.8770   20.0190 C   0  0  0  0  0  0  0  0  0  0  0  0
  -25.9660  -30.7660   21.2830 C   0  0  0  0  0  2  0  0  0  0  0  0
  -26.0870  -29.3880   20.6320 C   0  0  0  0  0  0  0  0  0  0  0  0
  -27.2900  -28.6130   20.6350 C   0  0  0  0  0  3  0  0  0  0  0  0
  -26.1550  -26.8410   19.4320 C   0  0  0  0  0  3  0  0  0  0  0  0
  -24.9730  -27.6120   19.4080 C   0  0  0  0  0  3  0  0  0  0  0  0
  -23.6830  -29.7310   20.0490 C   0  0  0  0  0  2  0  0  0  0  0  0
  -24.6780  -31.0100   21.9930 N   0  0  0  0  0  0  0  0  0  0  0  0
  -23.4840  -32.0610   23.6160 O   0  0  0  0  0  0  0  0  0  0  0  0
  -22.7720  -29.3660   22.3740 C   0  0  0  0  0  0  0  0  0  0  0  0
  -21.4440  -29.1950   22.2550 N   0  0  0  0  0  0  0  0  0  0  0  0
  -23.4550  -28.7220   23.1730 O   0  0  0  0  0  0  0  0  0  0  0  0
  -20.9500  -29.7650   21.5840 H   0  0  0  0  0  0  0  0  0  0  0  0
  -18.0610  -28.0360   22.8010 C   0  0  0  0  0  0  0  0  0  0  0  0
  -20.6310  -28.2420   23.0110 C   0  0  0  0  0  3  0  0  0  0  0  0
  -20.6930  -26.8330   22.3790 C   0  0  0  0  0  2  0  0  0  0  0  0
  -19.5590  -26.5680   21.3830 C   0  0  0  0  0  2  0  0  0  0  0  0
  -18.1970  -26.7120   22.0690 C   0  0  0  0  0  2  0  0  0  0  0  0
  -19.2050  -28.7620   23.2310 C   0  0  0  0  0  0  0  0  0  0  0  0
  -19.0230  -30.0050   23.8760 C   0  0  0  0  0  3  0  0  0  0  0  0
  -17.7320  -30.5190   24.0990 C   0  0  0  0  0  3  0  0  0  0  0  0
  -16.6040  -29.7890   23.6850 C   0  0  0  0  0  3  0  0  0  0  0  0
  -16.7700  -28.5500   23.0420 C   0  0  0  0  0  3  0  0  0  0  0  0
  -25.8390  -32.4640   23.7440 C   0  0  0  0  0  3  0  0  0  0  0  0
  -25.4900  -33.8500   24.0960 N   0  0  0  0  0  0  0  0  0  0  0  0
  -25.8060  -34.9240   23.3610 C   0  0  0  0  0  0  0  0  0  0  0  0
  -26.4870  -34.8560   22.3350 O   0  0  0  0  0  0  0  0  0  0  0  0
  -24.8860  -33.9760   24.8960 H   0  0  0  0  0  0  0  0  0  0  0  0
  -24.0440  -36.6860   23.0180 C   0  0  0  0  0  1  0  0  0  0  0  0
  -25.2830  -36.2930   23.8390 C   0  0  0  0  0  3  0  0  0  0  0  0
  -27.3830  -37.2100   24.7230 C   0  0  0  0  0  1  0  0  0  0  0  0
  -26.2930  -37.3700   23.7630 N   0  0  0  0  0  0  0  0  0  0  0  0
  -25.8640  -38.2770   23.9190 H   0  0  0  0  0  0  0  0  0  0  0  0
  -26.3600  -31.6850   25.0130 C   0  0  1  0  0  0  0  0  0  0  0  0
  -25.2610  -31.4030   26.0630 C   0  0  0  0  0  1  0  0  0  0  0  0
  -26.9820  -30.3290   24.6060 C   0  0  0  0  0  1  0  0  0  0  0  0
  -27.4820  -32.4960   25.7030 C   0  0  0  0  0  1  0  0  0  0  0  0
  2  1  2  0
  3  5  1  0
  3  4  2  0
  4  1  1  0
  5  2  1  0
  6 18  1  0
  7 12  1  0
  8  9  1  0
  8  7  1  0
 10  9  1  0
 10 22  1  0
 10 11  1  0
 12  6  1  0
 12 11  1  0
 13  6  2  0
 15 14  1  0
 16 17  1  0
 16 18  1  0
 17  4  1  0
 17 14  1  0
 18 15  1  0
 19 20  2  0
 20 39  1  0
 21 20  1  0
 21 24  1  0
 22 23  1  0
 22 19  1  0
 23 21  2  0
 24 25  1  0
 25 26  2  0
 27 30  1  0
 27 26  1  0
 28 27  2  0
 29 28  1  0
 29 24  2  0
 30 31  1  0
 31 32  1  0
 32 33  2  0
 34 33  1  0
 34 38  1  0
 35 34  2  0
 36 31  2  0
 36 35  1  0
 37 36  1  0
 39 40  1  0
 40 43  1  0
 40 42  1  0
 41 39  2  0
 44 19  1  0
 44 45  1  0
 46 44  1  0
 47  5  1  0
 47 48  1  0
 49 51  1  0
 49 48  1  0
 50 61  2  0
 51 56  1  0
 52 60  1  0
 52 62  1  0
 53 59  1  0
 53 55  1  0
 54 60  1  0
 55 56  2  0
 55 54  1  0
 57 51  2  0
 58 57  1  0
 58 53  2  0
 59 52  1  0
 60 50  1  0
 62 64  2  0
 63 62  1  0
 65 63  1  0
 66 75  2  0
 66 71  1  0
 67 63  1  0
 67 71  1  0
 68 67  1  0
 69 70  1  0
 69 68  1  0
 70 66  1  0
 71 72  2  0
 72 73  1  0
 74 73  2  0
 75 74  1  0
 76 50  1  0
 76 77  1  0
 76 86  1  0
 77 80  1  0
 78 82  1  0
 78 77  1  0
 79 78  2  0
 82 81  1  0
 84 82  1  0
 84 85  1  0
 84 83  1  0
 86 89  1  1
 86 87  1  0
 88 86  1  0
M  ISO  4   6 100  18 100  48 101  49 101
M  END
>  <TORSDO>  (78) 
F 18

>  <SCORE>  (78) 
-13.497

>  <name>  (78) 
77

>  <ligand_id>  (78) 
77

>  <original_smiles>  (78) 
[H]c1c([H])c([H])c2c(c1[H])C([H])([H])C([H])([H])C([H])([H])C2([H])N([H])C(=O)C1([H])N(C(=O)C([H])(N([H])C(=O)C([H])(N([H])C([H])([H])[H])C([H])([H])[H])C(C([H])([H])[H])(C([H])([H])[H])C([H])([H])[H])C([H])([H])c2c([H])c(OC([H])([H])C([H])([H])n3c([H])c([H])c(C4([H])C([H])([H])N(C(=O)N5C([H])([H])C([H])([H])C([H])([H])C([H])(n6nc(-c7c([H])c([H])c(Oc8c([H])c([H])c(F)c([H])c8F)c([H])c7[H])c(C(=O)N([H])[H])c6N([H])[H])C5([H])[H])C([H])([H])C4([H])[H])c3[H])c([H])c([H])c2C1([H])[H]

>  <smiles>  (78) 
[H]c1c([H])c([H])c2c(c1[H])C([H])([H])C([H])([H])C([H])([H])C2([H])N([H])C(=O)C1([H])N(C(=O)C([H])(N([H])C(=O)C([H])(N([H])C([H])([H])[H])C([H])([H])[H])C(C([H])([H])[H])(C([H])([H])[H])C([H])([H])[H])C([H])([H])c2c([H])c(OC([H])([H])C([H])([H])n3c([H])c([H])c(C4([H])C([H])([H])N(C(=O)N5C([H])([H])C([H])([H])C([H])([H])C([H])(n6nc(-c7c([H])c([H])c(Oc8c([H])c([H])c(F)c([H])c8F)c([H])c7[H])c(C(=O)N([H])[H])c6N([H])[H])C5([H])[H])C([H])([H])C4([H])[H])c3[H])c([H])c([H])c2C1([H])[H]

$$$$
78:0:0
     RDKit          3D

 93102  0  0  1  0  0  0  0  0999 V2000
  -28.3540  -22.9080   19.0210 C   0  0  0  0  0  2  0  0  0  0  0  0
  -30.3380  -23.3770   19.1580 C   0  0  0  0  0  2  0  0  0  0  0  0
  -29.0690  -24.1560   19.5590 C   0  0  0  0  0  3  0  0  0  0  0  0
  -29.5720  -22.1310   19.2880 N   0  0  2  0  0  4  0  0  0  0  0  0
  -29.5670  -21.8130   20.2460 H   0  0  0  0  0  0  0  0  0  0  0  0
  -28.7780  -25.5510   18.9590 C   0  0  0  0  0  2  0  0  0  0  0  0
  -28.5100  -26.5650   19.9450 O   0  0  0  0  0  0  0  0  0  0  0  0
  -24.6670  -31.6280   23.1740 C   0  0  0  0  0  0  0  0  0  0  0  0
  -27.3090  -27.2580   19.9570 C   0  0  0  0  0  0  0  0  0  0  0  0
  -23.4600  -30.2840   21.4850 C   0  0  0  0  0  3  0  0  0  0  0  0
  -24.9110  -28.7790   20.0210 C   0  0  0  0  0  0  0  0  0  0  0  0
  -25.9900  -30.6310   21.3080 C   0  0  0  0  0  2  0  0  0  0  0  0
  -26.0700  -29.2770   20.6270 C   0  0  0  0  0  0  0  0  0  0  0  0
  -27.2660  -28.5230   20.5940 C   0  0  0  0  0  3  0  0  0  0  0  0
  -26.1180  -26.7640   19.3720 C   0  0  0  0  0  3  0  0  0  0  0  0
  -24.9290  -27.5210   19.3970 C   0  0  0  0  0  3  0  0  0  0  0  0
  -23.6720  -29.6450   20.0870 C   0  0  0  0  0  2  0  0  0  0  0  0
  -24.7240  -30.8610   22.0480 N   0  0  0  0  0  0  0  0  0  0  0  0
  -23.5850  -31.8890   23.7180 O   0  0  0  0  0  0  0  0  0  0  0  0
  -22.7990  -29.2380   22.4120 C   0  0  0  0  0  0  0  0  0  0  0  0
  -21.4750  -29.0660   22.2730 N   0  0  0  0  0  0  0  0  0  0  0  0
  -23.4760  -28.5850   23.2110 O   0  0  0  0  0  0  0  0  0  0  0  0
  -20.9910  -29.6440   21.6000 H   0  0  0  0  0  0  0  0  0  0  0  0
  -18.0960  -27.8580   22.6990 C   0  0  0  0  0  0  0  0  0  0  0  0
  -20.6500  -28.1090   23.0090 C   0  0  0  0  0  3  0  0  0  0  0  0
  -20.7600  -26.6930   22.3980 C   0  0  0  0  0  2  0  0  0  0  0  0
  -19.6700  -26.3960   21.3630 C   0  0  0  0  0  2  0  0  0  0  0  0
  -18.2810  -26.5260   21.9930 C   0  0  0  0  0  2  0  0  0  0  0  0
  -19.2090  -28.6090   23.1630 C   0  0  0  0  0  0  0  0  0  0  0  0
  -18.9840  -29.8570   23.7820 C   0  0  0  0  0  3  0  0  0  0  0  0
  -17.6780  -30.3560   23.9420 C   0  0  0  0  0  3  0  0  0  0  0  0
  -16.5780  -29.6020   23.4970 C   0  0  0  0  0  3  0  0  0  0  0  0
  -16.7880  -28.3550   22.8810 C   0  0  0  0  0  3  0  0  0  0  0  0
  -25.9540  -32.2320   23.8180 C   0  0  0  0  0  3  0  0  0  0  0  0
  -26.4590  -31.4260   25.0760 C   0  0  1  0  0  0  0  0  0  0  0  0
  -25.3560  -31.1610   26.1290 C   0  0  0  0  0  1  0  0  0  0  0  0
  -27.0400  -30.0580   24.6490 C   0  0  0  0  0  1  0  0  0  0  0  0
  -27.6070  -32.1970   25.7690 C   0  0  0  0  0  1  0  0  0  0  0  0
  -25.6560  -33.6250   24.1800 N   0  0  0  0  0  0  0  0  0  0  0  0
  -25.9690  -34.6890   23.4280 C   0  0  0  0  0  0  0  0  0  0  0  0
  -26.6110  -34.6020   22.3780 O   0  0  0  0  0  0  0  0  0  0  0  0
  -25.0840  -33.7660   25.0000 H   0  0  0  0  0  0  0  0  0  0  0  0
  -24.2220  -36.4780   23.1600 C   0  0  0  0  0  1  0  0  0  0  0  0
  -25.4940  -36.0700   23.9200 C   0  0  0  0  0  3  0  0  0  0  0  0
  -27.6480  -36.9610   24.6910 C   0  0  0  0  0  1  0  0  0  0  0  0
  -26.5180  -37.1280   23.7810 N   0  0  0  0  0  0  0  0  0  0  0  0
  -26.1120  -38.0460   23.9460 H   0  0  0  0  0  0  0  0  0  0  0  0
  -29.8610  -21.0220   18.3270 C   0  0  0  0  0  2  0  0  0  0  0  0
  -31.0470  -20.0880   18.7170 C   0  0  0  0  0  2  0  0  0  0  0  0
  -31.4150  -14.4940   19.4130 C   0  0  0  0  0  0  0  0  0  0  0  0
  -31.0850  -12.2150   18.4970 C   0  0  0  0  0  2  0  0  0  0  0  0
  -29.9910  -12.2640   17.4090 C   0  0  0  0  0  2  0  0  0  0  0  0
  -28.5800  -12.1550   18.0240 C   0  0  0  0  0  2  0  0  0  0  0  0
  -28.3770  -13.1160   19.2250 C   0  0  0  0  0  3  0  0  0  0  0  0
  -29.5570  -12.9860   20.2130 C   0  0  0  0  0  2  0  0  0  0  0  0
  -30.8050  -13.2760   19.4760 N   0  0  0  0  0  0  0  0  0  0  0  0
  -32.4110  -14.7100   18.7100 O   0  0  0  0  0  0  0  0  0  0  0  0
  -29.8560  -18.8070   20.5780 C   0  0  0  0  0  3  0  0  0  0  0  0
  -29.8120  -17.5020   20.9840 C   0  0  0  0  0  0  0  0  0  0  0  0
  -30.6600  -16.8290   20.0580 C   0  0  0  0  0  0  0  0  0  0  0  0
  -29.0490  -16.9150   22.1410 C   0  0  0  0  0  1  0  0  0  0  0  0
  -31.1710  -17.6530   19.1410 N   0  0  0  0  0  0  0  0  0  0  0  0
  -30.6650  -18.8820   19.4620 N   0  0  0  0  0  0  0  0  0  0  0  0
  -30.8270  -15.4220   20.1910 N   0  0  0  0  0  0  0  0  0  0  0  0
  -30.1830  -15.0080   20.8440 H   0  0  0  0  0  0  0  0  0  0  0  0
  -26.1670  -13.8160   20.3490 C   0  0  0  0  0  0  0  0  0  0  0  0
  -25.1090  -13.0840   20.8160 C   0  0  0  0  0  0  0  0  0  0  0  0
  -25.4480  -11.7140   20.5960 C   0  0  0  0  0  0  0  0  0  0  0  0
  -27.0910  -12.8920   19.8820 N   0  0  0  0  0  0  0  0  0  0  0  0
  -26.6690  -11.6180   20.0840 N   0  0  0  0  0  0  0  0  0  0  0  0
  -24.6600  -10.4910   20.7910 C   0  0  0  0  0  0  0  0  0  0  0  0
  -25.0140   -9.5320   21.7670 C   0  0  0  0  0  3  0  0  0  0  0  0
  -24.2300   -8.3720   21.9490 C   0  0  0  0  0  3  0  0  0  0  0  0
  -23.0810   -8.1620   21.1520 C   0  0  0  0  0  0  0  0  0  0  0  0
  -22.7470   -9.1070   20.1650 C   0  0  0  0  0  3  0  0  0  0  0  0
  -23.5300  -10.2580   19.9830 C   0  0  0  0  0  3  0  0  0  0  0  0
  -22.2750   -7.0510   21.2380 O   0  0  0  0  0  0  0  0  0  0  0  0
  -21.9780   -6.4710   22.4450 C   0  0  0  0  0  0  0  0  0  0  0  0
  -21.3510   -7.1920   23.4850 C   0  0  0  0  0  3  0  0  0  0  0  0
  -21.0010   -6.5380   24.6830 C   0  0  0  0  0  3  0  0  0  0  0  0
  -21.2680   -5.1650   24.8400 C   0  0  0  0  0  0  0  0  0  0  0  0
  -21.8880   -4.4430   23.8040 C   0  0  0  0  0  3  0  0  0  0  0  0
  -22.2390   -5.0950   22.6090 C   0  0  0  0  0  0  0  0  0  0  0  0
  -22.8160   -4.3920   21.6050 F   0  0  0  0  0  0  0  0  0  0  0  0
  -20.9250   -4.5340   25.9880 F   0  0  0  0  0  0  0  0  0  0  0  0
  -23.8120  -13.6240   21.3490 C   0  0  0  0  0  0  0  0  0  0  0  0
  -23.2090  -12.9340   22.3110 N   0  0  0  0  0  0  0  0  0  0  0  0
  -23.3490  -14.6900   20.9460 O   0  0  0  0  0  0  0  0  0  0  0  0
  -23.5990  -12.0700   22.6570 H   0  0  0  0  0  0  0  0  0  0  0  0
  -22.3460  -13.2770   22.7080 H   0  0  0  0  0  0  0  0  0  0  0  0
  -26.4150  -15.1820   20.2660 N   0  0  0  0  0  0  0  0  0  0  0  0
  -25.7290  -15.8740   20.5460 H   0  0  0  0  0  0  0  0  0  0  0  0
  -27.2380  -15.5910   19.8410 H   0  0  0  0  0  0  0  0  0  0  0  0
  1  4  1  0
  1  3  1  0
  2  4  1  0
  2  3  1  0
  3  6  1  0
  4  5  1  1
  6  7  1  0
  7  9  1  0
  8 19  2  0
  9 14  1  0
 10 18  1  0
 10 20  1  0
 11 17  1  0
 11 13  1  0
 12 18  1  0
 13 12  1  0
 14 13  2  0
 15 16  1  0
 15  9  2  0
 16 11  2  0
 17 10  1  0
 18  8  1  0
 20 22  2  0
 21 20  1  0
 23 21  1  0
 24 33  2  0
 24 29  1  0
 25 21  1  0
 25 29  1  0
 26 25  1  0
 27 28  1  0
 27 26  1  0
 28 24  1  0
 29 30  2  0
 30 31  1  0
 32 31  2  0
 33 32  1  0
 34  8  1  0
 34 39  1  0
 34 35  1  0
 35 38  1  1
 35 36  1  0
 37 35  1  0
 39 42  1  0
 40 44  1  0
 40 39  1  0
 41 40  2  0
 44 43  1  0
 46 44  1  0
 46 47  1  0
 46 45  1  0
 48 49  1  0
 48  4  1  0
 49 63  1  0
 50 56  1  0
 50 64  1  0
 51 56  1  0
 52 53  1  0
 52 51  1  0
 54 53  1  0
 54 69  1  0
 54 55  1  0
 56 55  1  0
 57 50  2  0
 58 59  2  0
 59 61  1  0
 60 64  1  0
 60 59  1  0
 62 63  1  0
 62 60  2  0
 63 58  1  0
 64 65  1  0
 66 67  2  0
 67 86  1  0
 68 71  1  0
 68 67  1  0
 69 70  1  0
 69 66  1  0
 70 68  2  0
 71 72  1  0
 72 73  2  0
 74 77  1  0
 74 73  1  0
 75 74  2  0
 76 75  1  0
 76 71  2  0
 77 78  1  0
 78 83  2  0
 78 79  1  0
 79 80  2  0
 80 81  1  0
 81 85  1  0
 82 81  2  0
 83 82  1  0
 84 83  1  0
 86 87  1  0
 87 89  1  0
 87 90  1  0
 88 86  2  0
 91 66  1  0
 91 92  1  0
 93 91  1  0
M  ISO  4   6 101   7 101  50 100  64 100
M  END
>  <TORSDO>  (79) 
F 19

>  <SCORE>  (79) 
-10.734

>  <name>  (79) 
78

>  <ligand_id>  (79) 
78

>  <original_smiles>  (79) 
[H]c1c([H])c([H])c2c(c1[H])C([H])([H])C([H])([H])C([H])([H])C2([H])N([H])C(=O)C1([H])N(C(=O)C([H])(N([H])C(=O)C([H])(N([H])C([H])([H])[H])C([H])([H])[H])C(C([H])([H])[H])(C([H])([H])[H])C([H])([H])[H])C([H])([H])c2c([H])c(OC([H])([H])C3([H])C([H])([H])[N+]([H])(C([H])([H])C([H])([H])n4nc(N([H])C(=O)N5C([H])([H])C([H])([H])C([H])([H])C([H])(n6nc(-c7c([H])c([H])c(Oc8c([H])c([H])c(F)c([H])c8F)c([H])c7[H])c(C(=O)N([H])[H])c6N([H])[H])C5([H])[H])c(C([H])([H])[H])c4[H])C3([H])[H])c([H])c([H])c2C1([H])[H]

>  <smiles>  (79) 
[H]c1c([H])c([H])c2c(c1[H])C([H])([H])C([H])([H])C([H])([H])C2([H])N([H])C(=O)C1([H])N(C(=O)C([H])(N([H])C(=O)C([H])(N([H])C([H])([H])[H])C([H])([H])[H])C(C([H])([H])[H])(C([H])([H])[H])C([H])([H])[H])C([H])([H])c2c([H])c(OC([H])([H])C3([H])C([H])([H])[N+]([H])(C([H])([H])C([H])([H])n4nc(N([H])C(=O)N5C([H])([H])C([H])([H])C([H])([H])C([H])(n6nc(-c7c([H])c([H])c(Oc8c([H])c([H])c(F)c([H])c8F)c([H])c7[H])c(C(=O)N([H])[H])c6N([H])[H])C5([H])[H])c(C([H])([H])[H])c4[H])C3([H])[H])c([H])c([H])c2C1([H])[H]

$$$$
79:0:0
     RDKit          3D

 95105  0  0  1  0  0  0  0  0999 V2000
  -27.4460  -20.6750   19.0750 C   0  0  0  0  0  0  0  0  0  0  0  0
  -26.7640  -21.9020   18.9380 C   0  0  0  0  0  0  0  0  0  0  0  0
  -28.6490  -20.6210   19.8350 C   0  0  0  0  0  0  0  0  0  0  0  0
  -28.3620  -23.1610   20.0250 C   0  0  0  0  0  0  0  0  0  0  0  0
  -26.7480  -19.4480   18.4510 C   0  0  0  0  0  2  0  0  0  0  0  0
  -25.5100  -21.9390   18.0950 C   0  0  0  0  0  2  0  0  0  0  0  0
  -25.7450  -21.1040   16.8300 C   0  0  0  0  0  2  0  0  0  0  0  0
  -26.7170  -19.0040   15.9900 C   0  0  0  0  0  1  0  0  0  0  0  0
  -27.1860  -23.0780   19.4250 N   0  0  0  0  0  0  0  0  0  0  0  0
  -29.1030  -21.9430   20.2340 N   0  0  0  0  0  0  0  0  0  0  0  0
  -26.0700  -19.6860   17.1390 N   0  0  1  0  0  4  0  0  0  0  0  0
  -25.1790  -19.2140   17.2330 H   0  0  0  0  0  0  0  0  0  0  0  0
  -30.6220  -15.1510   19.9130 C   0  0  0  0  0  0  0  0  0  0  0  0
  -30.4160  -12.7890   18.9490 C   0  0  0  0  0  2  0  0  0  0  0  0
  -29.4080  -12.7350   17.7780 C   0  0  0  0  0  2  0  0  0  0  0  0
  -27.9840  -12.4910   18.3080 C   0  0  0  0  0  2  0  0  0  0  0  0
  -27.6520  -13.4010   19.5200 C   0  0  0  0  0  3  0  0  0  0  0  0
  -28.7810  -13.4450   20.5730 C   0  0  0  0  0  2  0  0  0  0  0  0
  -29.9970  -13.8920   19.8770 N   0  0  0  0  0  0  0  0  0  0  0  0
  -31.7930  -15.1570   19.5100 O   0  0  0  0  0  0  0  0  0  0  0  0
  -29.9170  -18.6380   21.5110 C   0  0  0  0  0  2  0  0  0  0  0  0
  -29.9760  -17.0370   21.5290 C   0  0  0  0  0  2  0  0  0  0  0  0
  -29.7950  -17.7510   19.3510 C   0  0  0  0  0  2  0  0  0  0  0  0
  -29.1950  -19.0390   20.2270 C   0  0  0  0  0  3  0  0  0  0  0  0
  -29.9330  -16.4120   20.1720 N   0  0  0  0  0  0  0  0  0  0  0  0
  -25.3440  -13.9540   20.4620 C   0  0  0  0  0  0  0  0  0  0  0  0
  -24.2950  -13.1730   20.8600 C   0  0  0  0  0  0  0  0  0  0  0  0
  -24.7430  -11.8210   20.7440 C   0  0  0  0  0  0  0  0  0  0  0  0
  -26.3570  -13.0810   20.1080 N   0  0  0  0  0  0  0  0  0  0  0  0
  -26.0110  -11.7880   20.3480 N   0  0  0  0  0  0  0  0  0  0  0  0
  -24.0170  -10.5570   20.9320 C   0  0  0  0  0  0  0  0  0  0  0  0
  -24.4540   -9.5880   21.8620 C   0  0  0  0  0  3  0  0  0  0  0  0
  -23.7290   -8.3910   22.0420 C   0  0  0  0  0  3  0  0  0  0  0  0
  -22.5520   -8.1540   21.2930 C   0  0  0  0  0  0  0  0  0  0  0  0
  -22.1330   -9.1100   20.3540 C   0  0  0  0  0  3  0  0  0  0  0  0
  -22.8590  -10.3000   20.1720 C   0  0  0  0  0  3  0  0  0  0  0  0
  -21.7960   -7.0090   21.3820 O   0  0  0  0  0  0  0  0  0  0  0  0
  -21.6880   -6.3090   22.5570 C   0  0  0  0  0  0  0  0  0  0  0  0
  -21.1840   -6.9030   23.7340 C   0  0  0  0  0  3  0  0  0  0  0  0
  -21.0240   -6.1290   24.9000 C   0  0  0  0  0  3  0  0  0  0  0  0
  -21.3560   -4.7610   24.8890 C   0  0  0  0  0  0  0  0  0  0  0  0
  -21.8530   -4.1670   23.7160 C   0  0  0  0  0  3  0  0  0  0  0  0
  -22.0140   -4.9380   22.5530 C   0  0  0  0  0  0  0  0  0  0  0  0
  -22.4740   -4.3550   21.4190 F   0  0  0  0  0  0  0  0  0  0  0  0
  -21.1930   -4.0160   26.0080 F   0  0  0  0  0  0  0  0  0  0  0  0
  -22.9220  -13.6510   21.2370 C   0  0  0  0  0  0  0  0  0  0  0  0
  -22.2470  -12.9320   22.1260 N   0  0  0  0  0  0  0  0  0  0  0  0
  -22.4630  -14.6960   20.7800 O   0  0  0  0  0  0  0  0  0  0  0  0
  -22.6360  -12.0880   22.5200 H   0  0  0  0  0  0  0  0  0  0  0  0
  -21.3300  -13.2340   22.4250 H   0  0  0  0  0  0  0  0  0  0  0  0
  -25.5220  -15.3290   20.3480 N   0  0  0  0  0  0  0  0  0  0  0  0
  -24.8250  -15.9890   20.6730 H   0  0  0  0  0  0  0  0  0  0  0  0
  -26.4220  -15.7540   20.1610 H   0  0  0  0  0  0  0  0  0  0  0  0
  -28.8840  -24.7700   19.9880 C   0  0  0  0  0  2  0  0  0  0  0  0
  -28.3840  -26.1610   20.5980 O   0  0  0  0  0  0  0  0  0  0  0  0
  -24.5840  -31.9160   23.2170 C   0  0  0  0  0  0  0  0  0  0  0  0
  -27.3140  -27.1210   20.3500 C   0  0  0  0  0  0  0  0  0  0  0  0
  -23.4450  -30.4590   21.5810 C   0  0  0  0  0  3  0  0  0  0  0  0
  -24.9560  -28.8630   20.2180 C   0  0  0  0  0  0  0  0  0  0  0  0
  -25.9990  -30.7460   21.4780 C   0  0  0  0  0  2  0  0  0  0  0  0
  -26.1090  -29.3350   20.8510 C   0  0  0  0  0  0  0  0  0  0  0  0
  -27.2760  -28.4760   20.9040 C   0  0  0  0  0  3  0  0  0  0  0  0
  -26.1380  -26.7600   19.6610 C   0  0  0  0  0  3  0  0  0  0  0  0
  -24.9870  -27.5920   19.6070 C   0  0  0  0  0  3  0  0  0  0  0  0
  -23.7100  -29.7460   20.2240 C   0  0  0  0  0  2  0  0  0  0  0  0
  -24.6930  -31.0680   22.1450 N   0  0  0  0  0  0  0  0  0  0  0  0
  -23.4810  -32.1940   23.7130 O   0  0  0  0  0  0  0  0  0  0  0  0
  -22.7540  -29.4740   22.5550 C   0  0  0  0  0  0  0  0  0  0  0  0
  -21.4310  -29.2860   22.4090 N   0  0  0  0  0  0  0  0  0  0  0  0
  -23.4160  -28.8780   23.4100 O   0  0  0  0  0  0  0  0  0  0  0  0
  -20.9530  -29.8160   21.6920 H   0  0  0  0  0  0  0  0  0  0  0  0
  -18.0540  -28.0530   22.8750 C   0  0  0  0  0  0  0  0  0  0  0  0
  -20.6050  -28.3550   23.1840 C   0  0  0  0  0  3  0  0  0  0  0  0
  -20.7360  -26.9140   22.6400 C   0  0  0  0  0  2  0  0  0  0  0  0
  -19.6570  -26.5570   21.6120 C   0  0  0  0  0  2  0  0  0  0  0  0
  -18.2620  -26.6950   22.2260 C   0  0  0  0  0  2  0  0  0  0  0  0
  -19.1550  -28.8400   23.3100 C   0  0  0  0  0  0  0  0  0  0  0  0
  -18.9040  -30.1080   23.8770 C   0  0  0  0  0  3  0  0  0  0  0  0
  -17.5890  -30.5910   24.0130 C   0  0  0  0  0  3  0  0  0  0  0  0
  -16.5040  -29.8020   23.5930 C   0  0  0  0  0  3  0  0  0  0  0  0
  -16.7380  -28.5350   23.0300 C   0  0  0  0  0  3  0  0  0  0  0  0
  -25.8340  -32.5880   23.8610 C   0  0  0  0  0  3  0  0  0  0  0  0
  -25.4860  -33.9840   24.1710 N   0  0  0  0  0  0  0  0  0  0  0  0
  -25.8070  -35.0400   23.4120 C   0  0  0  0  0  0  0  0  0  0  0  0
  -26.4880  -34.9410   22.3880 O   0  0  0  0  0  0  0  0  0  0  0  0
  -24.8820  -34.1300   24.9660 H   0  0  0  0  0  0  0  0  0  0  0  0
  -24.0470  -36.8000   23.0300 C   0  0  0  0  0  1  0  0  0  0  0  0
  -25.2890  -36.4230   23.8550 C   0  0  0  0  0  3  0  0  0  0  0  0
  -27.3960  -37.3630   24.6980 C   0  0  0  0  0  1  0  0  0  0  0  0
  -26.3010  -37.4970   23.7410 N   0  0  0  0  0  0  0  0  0  0  0  0
  -25.8740  -38.4090   23.8740 H   0  0  0  0  0  0  0  0  0  0  0  0
  -26.3320  -31.8490   25.1660 C   0  0  1  0  0  0  0  0  0  0  0  0
  -25.2170  -31.6120   26.2120 C   0  0  0  0  0  1  0  0  0  0  0  0
  -26.9500  -30.4750   24.8220 C   0  0  0  0  0  1  0  0  0  0  0  0
  -27.4500  -32.6780   25.8420 C   0  0  0  0  0  1  0  0  0  0  0  0
  1  3  1  0
  2  1  2  0
  2  9  1  0
  3 10  2  0
  4 10  1  0
  5  1  1  0
  6  2  1  0
  7 11  1  0
  7  6  1  0
  8 11  1  0
  9  4  2  0
 11 12  1  1
 11  5  1  0
 13 25  1  0
 14 19  1  0
 15 16  1  0
 15 14  1  0
 17 16  1  0
 17 29  1  0
 17 18  1  0
 19 13  1  0
 19 18  1  0
 20 13  2  0
 21 22  1  0
 23 25  1  0
 23 24  1  0
 24  3  1  0
 24 21  1  0
 25 22  1  0
 26 27  2  0
 27 46  1  0
 28 27  1  0
 28 31  1  0
 29 30  1  0
 29 26  1  0
 30 28  2  0
 31 32  1  0
 32 33  2  0
 34 37  1  0
 34 33  1  0
 35 34  2  0
 36 35  1  0
 36 31  2  0
 37 38  1  0
 38 39  1  0
 39 40  2  0
 41 40  1  0
 41 45  1  0
 42 41  2  0
 43 38  2  0
 43 42  1  0
 44 43  1  0
 46 47  1  0
 47 50  1  0
 47 49  1  0
 48 46  2  0
 51 26  1  0
 51 52  1  0
 53 51  1  0
 54  4  1  0
 54 55  1  0
 56 67  2  0
 57 55  1  0
 57 62  1  0
 58 66  1  0
 58 68  1  0
 59 65  1  0
 59 61  1  0
 60 66  1  0
 61 62  2  0
 61 60  1  0
 63 57  2  0
 64 63  1  0
 64 59  2  0
 65 58  1  0
 66 56  1  0
 68 70  2  0
 69 68  1  0
 71 69  1  0
 72 81  2  0
 72 77  1  0
 73 69  1  0
 73 77  1  0
 74 73  1  0
 75 76  1  0
 75 74  1  0
 76 72  1  0
 77 78  2  0
 78 79  1  0
 80 79  2  0
 81 80  1  0
 82 56  1  0
 82 83  1  0
 82 92  1  0
 83 86  1  0
 84 88  1  0
 84 83  1  0
 85 84  2  0
 88 87  1  0
 90 88  1  0
 90 91  1  0
 90 89  1  0
 92 95  1  1
 92 93  1  0
 94 92  1  0
M  ISO  4  13 100  25 100  54 101  55 101
M  END
>  <TORSDO>  (80) 
F 17

>  <SCORE>  (80) 
-13.687

>  <name>  (80) 
79

>  <ligand_id>  (80) 
79

>  <original_smiles>  (80) 
[H]c1c([H])c([H])c2c(c1[H])C([H])([H])C([H])([H])C([H])([H])C2([H])N([H])C(=O)C1([H])N(C(=O)C([H])(N([H])C(=O)C([H])(N([H])C([H])([H])[H])C([H])([H])[H])C(C([H])([H])[H])(C([H])([H])[H])C([H])([H])[H])C([H])([H])c2c([H])c(OC([H])([H])c3nc4c(c(C5([H])C([H])([H])N(C(=O)N6C([H])([H])C([H])([H])C([H])([H])C([H])(n7nc(-c8c([H])c([H])c(Oc9c([H])c([H])c(F)c([H])c9F)c([H])c8[H])c(C(=O)N([H])[H])c7N([H])[H])C6([H])[H])C([H])([H])C5([H])[H])n3)C([H])([H])[N+]([H])(C([H])([H])[H])C([H])([H])C4([H])[H])c([H])c([H])c2C1([H])[H]

>  <smiles>  (80) 
[H]c1c([H])c([H])c2c(c1[H])C([H])([H])C([H])([H])C([H])([H])C2([H])N([H])C(=O)C1([H])N(C(=O)C([H])(N([H])C(=O)C([H])(N([H])C([H])([H])[H])C([H])([H])[H])C(C([H])([H])[H])(C([H])([H])[H])C([H])([H])[H])C([H])([H])c2c([H])c(OC([H])([H])c3nc4c(c(C5([H])C([H])([H])N(C(=O)N6C([H])([H])C([H])([H])C([H])([H])C([H])(n7nc(-c8c([H])c([H])c(Oc9c([H])c([H])c(F)c([H])c9F)c([H])c8[H])c(C(=O)N([H])[H])c7N([H])[H])C6([H])[H])C([H])([H])C5([H])[H])n3)C([H])([H])[N+]([H])(C([H])([H])[H])C([H])([H])C4([H])[H])c([H])c([H])c2C1([H])[H]

$$$$
80:0:0
     RDKit          3D

 96104  0  0  1  0  0  0  0  0999 V2000
  -31.0900  -20.6730   20.4740 C   0  0  0  0  0  2  0  0  0  0  0  0
  -31.9480  -19.4500   20.0380 C   0  0  0  0  0  2  0  0  0  0  0  0
  -29.1550  -18.9990   20.5260 C   0  0  0  0  0  3  0  0  0  0  0  0
  -29.5950  -20.5750   20.0950 C   0  0  0  0  0  3  0  0  0  0  0  0
  -30.1770  -17.7090   20.2010 C   0  0  0  0  0  3  0  0  0  0  0  0
  -31.5190  -18.1550   20.6370 N   0  0  0  0  0  4  0  0  0  0  0  0
  -31.5520  -18.2200   21.6410 H   0  0  0  0  0  0  0  0  0  0  0  0
  -32.1920  -17.4550   20.3620 H   0  0  0  0  0  0  0  0  0  0  0  0
  -30.5170  -14.9860   20.3100 C   0  0  0  0  0  0  0  0  0  0  0  0
  -30.3620  -12.6480   19.3570 C   0  0  0  0  0  2  0  0  0  0  0  0
  -29.4270  -12.6190   18.1280 C   0  0  0  0  0  2  0  0  0  0  0  0
  -27.9660  -12.4050   18.5660 C   0  0  0  0  0  2  0  0  0  0  0  0
  -27.5650  -13.3180   19.7580 C   0  0  0  0  0  3  0  0  0  0  0  0
  -28.6300  -13.3300   20.8780 C   0  0  0  0  0  2  0  0  0  0  0  0
  -29.8970  -13.7380   20.2600 N   0  0  0  0  0  0  0  0  0  0  0  0
  -31.7140  -15.0320   20.0120 O   0  0  0  0  0  0  0  0  0  0  0  0
  -29.7880  -16.1970   20.4730 N   0  0  0  0  0  0  0  0  0  0  0  0
  -28.8040  -16.0840   20.6690 H   0  0  0  0  0  0  0  0  0  0  0  0
  -25.1850  -13.8780   20.5160 C   0  0  0  0  0  0  0  0  0  0  0  0
  -24.1280  -13.0930   20.8870 C   0  0  0  0  0  0  0  0  0  0  0  0
  -24.6020  -11.7460   20.8500 C   0  0  0  0  0  0  0  0  0  0  0  0
  -26.2330  -13.0100   20.2650 N   0  0  0  0  0  0  0  0  0  0  0  0
  -25.8910  -11.7210   20.5310 N   0  0  0  0  0  0  0  0  0  0  0  0
  -23.8830  -10.4780   21.0380 C   0  0  0  0  0  0  0  0  0  0  0  0
  -24.3230   -9.5090   21.9670 C   0  0  0  0  0  3  0  0  0  0  0  0
  -23.6010   -8.3090   22.1450 C   0  0  0  0  0  3  0  0  0  0  0  0
  -22.4270   -8.0680   21.3940 C   0  0  0  0  0  0  0  0  0  0  0  0
  -22.0050   -9.0270   20.4530 C   0  0  0  0  0  3  0  0  0  0  0  0
  -22.7280  -10.2190   20.2730 C   0  0  0  0  0  3  0  0  0  0  0  0
  -21.6740   -6.9220   21.4820 O   0  0  0  0  0  0  0  0  0  0  0  0
  -21.6340   -6.1750   22.6330 C   0  0  0  0  0  0  0  0  0  0  0  0
  -21.2080   -6.7230   23.8630 C   0  0  0  0  0  3  0  0  0  0  0  0
  -21.1140   -5.9020   25.0040 C   0  0  0  0  0  3  0  0  0  0  0  0
  -21.4370   -4.5350   24.9170 C   0  0  0  0  0  0  0  0  0  0  0  0
  -21.8560   -3.9860   23.6930 C   0  0  0  0  0  3  0  0  0  0  0  0
  -21.9520   -4.8050   22.5530 C   0  0  0  0  0  0  0  0  0  0  0  0
  -22.3360   -4.2660   21.3700 F   0  0  0  0  0  0  0  0  0  0  0  0
  -21.3400   -3.7450   26.0120 F   0  0  0  0  0  0  0  0  0  0  0  0
  -22.7280  -13.5620   21.1620 C   0  0  0  0  0  0  0  0  0  0  0  0
  -22.0030  -12.8610   22.0270 N   0  0  0  0  0  0  0  0  0  0  0  0
  -22.2850  -14.5880   20.6470 O   0  0  0  0  0  0  0  0  0  0  0  0
  -22.3700  -12.0340   22.4740 H   0  0  0  0  0  0  0  0  0  0  0  0
  -21.0640  -13.1610   22.2510 H   0  0  0  0  0  0  0  0  0  0  0  0
  -25.3330  -15.2510   20.3400 N   0  0  0  0  0  0  0  0  0  0  0  0
  -24.5540  -15.8920   20.4630 H   0  0  0  0  0  0  0  0  0  0  0  0
  -26.1640  -15.7120   19.9900 H   0  0  0  0  0  0  0  0  0  0  0  0
  -27.8910  -18.6530   19.8920 N   0  0  0  0  0  0  0  0  0  0  0  0
  -27.9450  -18.8300   18.8940 H   0  0  0  0  0  0  0  0  0  0  0  0
  -27.1450  -19.2550   20.2220 H   0  0  0  0  0  0  0  0  0  0  0  0
  -28.7620  -21.8690   20.5430 N   0  0  0  0  0  4  0  0  0  0  0  0
  -28.5640  -21.7610   21.5250 H   0  0  0  0  0  0  0  0  0  0  0  0
  -27.8690  -21.7510   20.0850 H   0  0  0  0  0  0  0  0  0  0  0  0
  -30.2270  -23.8560   21.3300 C   0  0  0  0  0  1  0  0  0  0  0  0
  -29.1590  -23.4090   20.3090 C   0  0  0  0  0  3  0  0  0  0  0  0
  -28.0090  -24.6520   20.2760 C   0  0  0  0  0  2  0  0  0  0  0  0
  -28.2640  -26.1970   20.2890 O   0  0  0  0  0  0  0  0  0  0  0  0
  -24.6170  -31.8970   23.2680 C   0  0  0  0  0  0  0  0  0  0  0  0
  -27.1940  -27.1690   20.2490 C   0  0  0  0  0  0  0  0  0  0  0  0
  -23.4170  -30.5010   21.6300 C   0  0  0  0  0  3  0  0  0  0  0  0
  -24.8630  -28.9190   20.2160 C   0  0  0  0  0  0  0  0  0  0  0  0
  -25.9720  -30.7600   21.4700 C   0  0  0  0  0  2  0  0  0  0  0  0
  -26.0440  -29.3660   20.8200 C   0  0  0  0  0  0  0  0  0  0  0  0
  -27.2110  -28.5090   20.8150 C   0  0  0  0  0  3  0  0  0  0  0  0
  -25.9790  -26.8230   19.6150 C   0  0  0  0  0  3  0  0  0  0  0  0
  -24.8440  -27.6590   19.5980 C   0  0  0  0  0  3  0  0  0  0  0  0
  -23.6410  -29.8210   20.2530 C   0  0  0  0  0  2  0  0  0  0  0  0
  -24.6890  -31.0740   22.1780 N   0  0  0  0  0  0  0  0  0  0  0  0
  -23.5310  -32.1840   23.7930 O   0  0  0  0  0  0  0  0  0  0  0  0
  -22.7330  -29.4970   22.5930 C   0  0  0  0  0  0  0  0  0  0  0  0
  -21.4050  -29.3270   22.4640 N   0  0  0  0  0  0  0  0  0  0  0  0
  -23.4010  -28.8710   23.4210 O   0  0  0  0  0  0  0  0  0  0  0  0
  -20.9210  -29.8850   21.7720 H   0  0  0  0  0  0  0  0  0  0  0  0
  -18.0210  -28.1320   22.9630 C   0  0  0  0  0  0  0  0  0  0  0  0
  -20.5800  -28.3960   23.2380 C   0  0  0  0  0  3  0  0  0  0  0  0
  -20.6830  -26.9610   22.6730 C   0  0  0  0  0  2  0  0  0  0  0  0
  -19.5840  -26.6300   21.6560 C   0  0  0  0  0  2  0  0  0  0  0  0
  -18.2000  -26.7790   22.2930 C   0  0  0  0  0  2  0  0  0  0  0  0
  -19.1380  -28.8970   23.3920 C   0  0  0  0  0  0  0  0  0  0  0  0
  -18.9160  -30.1600   23.9800 C   0  0  0  0  0  3  0  0  0  0  0  0
  -17.6100  -30.6610   24.1400 C   0  0  0  0  0  3  0  0  0  0  0  0
  -16.5080  -29.8950   23.7260 C   0  0  0  0  0  3  0  0  0  0  0  0
  -16.7140  -28.6320   23.1430 C   0  0  0  0  0  3  0  0  0  0  0  0
  -25.8940  -32.5330   23.8960 C   0  0  0  0  0  3  0  0  0  0  0  0
  -26.4040  -31.7640   25.1770 C   0  0  1  0  0  0  0  0  0  0  0  0
  -25.3050  -31.5310   26.2420 C   0  0  0  0  0  1  0  0  0  0  0  0
  -26.9850  -30.3830   24.7940 C   0  0  0  0  0  1  0  0  0  0  0  0
  -27.5540  -32.5560   25.8410 C   0  0  0  0  0  1  0  0  0  0  0  0
  -25.5830  -33.9310   24.2280 N   0  0  0  0  0  0  0  0  0  0  0  0
  -25.9100  -34.9890   23.4740 C   0  0  0  0  0  0  0  0  0  0  0  0
  -26.5760  -34.8900   22.4390 O   0  0  0  0  0  0  0  0  0  0  0  0
  -24.9940  -34.0820   25.0350 H   0  0  0  0  0  0  0  0  0  0  0  0
  -24.1800  -36.7860   23.1420 C   0  0  0  0  0  1  0  0  0  0  0  0
  -25.4270  -36.3770   23.9410 C   0  0  0  0  0  3  0  0  0  0  0  0
  -27.5660  -37.2610   24.7600 C   0  0  0  0  0  1  0  0  0  0  0  0
  -26.4590  -37.4300   23.8240 N   0  0  0  0  0  0  0  0  0  0  0  0
  -26.0520  -38.3500   23.9770 H   0  0  0  0  0  0  0  0  0  0  0  0
  2  1  1  0
  2  6  1  0
  3 47  1  0
  4  1  1  0
  4  3  1  0
  4 50  1  0
  5 17  1  0
  5  3  1  0
  5  6  1  0
  6  7  1  0
  8  6  1  0
  9 17  1  0
 10 15  1  0
 11 12  1  0
 11 10  1  0
 13 12  1  0
 13 22  1  0
 13 14  1  0
 15  9  1  0
 15 14  1  0
 16  9  2  0
 17 18  1  0
 19 20  2  0
 20 39  1  0
 21 20  1  0
 21 24  1  0
 22 19  1  0
 22 23  1  0
 23 21  2  0
 24 25  1  0
 25 26  2  0
 27 30  1  0
 27 26  1  0
 28 27  2  0
 29 28  1  0
 29 24  2  0
 30 31  1  0
 31 32  1  0
 32 33  2  0
 34 33  1  0
 34 38  1  0
 35 34  2  0
 36 31  2  0
 36 35  1  0
 37 36  1  0
 39 40  1  0
 40 43  1  0
 40 42  1  0
 41 39  2  0
 44 45  1  0
 44 19  1  0
 46 44  1  0
 47 49  1  0
 48 47  1  0
 50 51  1  0
 52 50  1  0
 54 50  1  0
 54 53  1  0
 55 56  1  0
 55 54  1  0
 57 68  2  0
 58 56  1  0
 58 63  1  0
 59 67  1  0
 59 69  1  0
 60 66  1  0
 60 62  1  0
 61 67  1  0
 62 61  1  0
 63 62  2  0
 64 58  2  0
 65 64  1  0
 65 60  2  0
 66 59  1  0
 67 57  1  0
 69 71  2  0
 70 69  1  0
 72 70  1  0
 73 82  2  0
 73 78  1  0
 74 70  1  0
 74 78  1  0
 75 74  1  0
 76 77  1  0
 76 75  1  0
 77 73  1  0
 78 79  2  0
 79 80  1  0
 81 80  2  0
 82 81  1  0
 83 57  1  0
 83 88  1  0
 83 84  1  0
 84 87  1  1
 84 85  1  0
 86 84  1  0
 88 91  1  0
 89 93  1  0
 89 88  1  0
 90 89  2  0
 93 92  1  0
 95 93  1  0
 95 96  1  0
 95 94  1  0
M  ISO  4   9 100  17 100  55 101  56 101
M  END
>  <TORSDO>  (81) 
F 20

>  <SCORE>  (81) 
-14.771

>  <name>  (81) 
80

>  <ligand_id>  (81) 
80

>  <original_smiles>  (81) 
[H]c1c([H])c([H])c2c(c1[H])C([H])([H])C([H])([H])C([H])([H])C2([H])N([H])C(=O)C1([H])N(C(=O)C([H])(N([H])C(=O)C([H])(N([H])C([H])([H])[H])C([H])([H])[H])C(C([H])([H])[H])(C([H])([H])[H])C([H])([H])[H])C([H])([H])c2c([H])c(OC([H])([H])C([H])(C([H])([H])[H])[N+]([H])([H])C3([H])C([H])([H])C([H])([H])[N+]([H])([H])C([H])(N([H])C(=O)N4C([H])([H])C([H])([H])C([H])([H])C([H])(n5nc(-c6c([H])c([H])c(Oc7c([H])c([H])c(F)c([H])c7F)c([H])c6[H])c(C(=O)N([H])[H])c5N([H])[H])C4([H])[H])C3([H])N([H])[H])c([H])c([H])c2C1([H])[H]

>  <smiles>  (81) 
[H]c1c([H])c([H])c2c(c1[H])C([H])([H])C([H])([H])C([H])([H])C2([H])N([H])C(=O)C1([H])N(C(=O)C([H])(N([H])C(=O)C([H])(N([H])C([H])([H])[H])C([H])([H])[H])C(C([H])([H])[H])(C([H])([H])[H])C([H])([H])[H])C([H])([H])c2c([H])c(OC([H])([H])C([H])(C([H])([H])[H])[N+]([H])([H])C3([H])C([H])([H])C([H])([H])[N+]([H])([H])C([H])(N([H])C(=O)N4C([H])([H])C([H])([H])C([H])([H])C([H])(n5nc(-c6c([H])c([H])c(Oc7c([H])c([H])c(F)c([H])c7F)c([H])c6[H])c(C(=O)N([H])[H])c5N([H])[H])C4([H])[H])C3([H])N([H])[H])c([H])c([H])c2C1([H])[H]

$$$$
81:0:0
     RDKit          3D

 95104  0  0  1  0  0  0  0  0999 V2000
  -29.3460  -20.7700   20.9790 C   0  0  0  0  0  2  0  0  0  0  0  0
  -26.9980  -18.4590   18.2620 C   0  0  0  0  0  3  0  0  0  0  0  0
  -28.4610  -19.9810   19.9740 C   0  0  0  0  0  0  0  0  0  0  0  0
  -28.7190  -18.5880   19.7630 C   0  0  0  0  0  0  0  0  0  0  0  0
  -27.3540  -20.4950   19.2390 C   0  0  0  0  0  0  0  0  0  0  0  0
  -26.8270  -21.9170   19.2920 C   0  0  0  0  0  1  0  0  0  0  0  0
  -27.9910  -17.8640   18.8940 N   0  0  0  0  0  0  0  0  0  0  0  0
  -26.6450  -19.7230   18.4010 N   0  0  0  0  0  0  0  0  0  0  0  0
  -31.1420  -14.6250   20.2720 C   0  0  0  0  0  0  0  0  0  0  0  0
  -30.8150  -12.3800   19.3190 C   0  0  0  0  0  2  0  0  0  0  0  0
  -29.8930  -12.5000   18.0870 C   0  0  0  0  0  2  0  0  0  0  0  0
  -28.4100  -12.4350   18.5060 C   0  0  0  0  0  2  0  0  0  0  0  0
  -28.0730  -13.3730   19.6970 C   0  0  0  0  0  3  0  0  0  0  0  0
  -29.1140  -13.2240   20.8310 C   0  0  0  0  0  2  0  0  0  0  0  0
  -30.4380  -13.4600   20.2430 N   0  0  0  0  0  0  0  0  0  0  0  0
  -32.3280  -14.6810   19.9340 O   0  0  0  0  0  0  0  0  0  0  0  0
  -29.5780  -16.4530   21.1720 C   0  0  0  0  0  2  0  0  0  0  0  0
  -30.8500  -17.0130   19.5570 C   0  0  0  0  0  2  0  0  0  0  0  0
  -29.8490  -17.7720   20.4240 C   0  0  0  0  0  3  0  0  0  0  0  0
  -30.3960  -15.7540   20.1720 N   0  0  0  0  0  0  0  0  0  0  0  0
  -25.7060  -14.0880   20.4040 C   0  0  0  0  0  0  0  0  0  0  0  0
  -24.6020  -13.3630   20.7680 C   0  0  0  0  0  0  0  0  0  0  0  0
  -25.0030  -11.9920   20.7400 C   0  0  0  0  0  0  0  0  0  0  0  0
  -26.7100  -13.1600   20.1760 N   0  0  0  0  0  0  0  0  0  0  0  0
  -26.2910  -11.8950   20.4370 N   0  0  0  0  0  0  0  0  0  0  0  0
  -24.2170  -10.7650   20.9280 C   0  0  0  0  0  0  0  0  0  0  0  0
  -24.5890   -9.7910   21.8790 C   0  0  0  0  0  3  0  0  0  0  0  0
  -23.8070   -8.6290   22.0570 C   0  0  0  0  0  3  0  0  0  0  0  0
  -22.6400   -8.4330   21.2820 C   0  0  0  0  0  0  0  0  0  0  0  0
  -22.2870   -9.3940   20.3190 C   0  0  0  0  0  3  0  0  0  0  0  0
  -23.0680  -10.5480   20.1400 C   0  0  0  0  0  3  0  0  0  0  0  0
  -21.8370   -7.3210   21.3640 O   0  0  0  0  0  0  0  0  0  0  0  0
  -21.7170   -6.6050   22.5280 C   0  0  0  0  0  0  0  0  0  0  0  0
  -21.2590   -7.1990   23.7240 C   0  0  0  0  0  3  0  0  0  0  0  0
  -21.0850   -6.4120   24.8790 C   0  0  0  0  0  3  0  0  0  0  0  0
  -21.3610   -5.0310   24.8400 C   0  0  0  0  0  0  0  0  0  0  0  0
  -21.8130   -4.4380   23.6490 C   0  0  0  0  0  3  0  0  0  0  0  0
  -21.9880   -5.2220   22.4950 C   0  0  0  0  0  0  0  0  0  0  0  0
  -22.4040   -4.6420   21.3440 F   0  0  0  0  0  0  0  0  0  0  0  0
  -21.1840   -4.2730   25.9470 F   0  0  0  0  0  0  0  0  0  0  0  0
  -23.2280  -13.9040   21.0330 C   0  0  0  0  0  0  0  0  0  0  0  0
  -22.4710  -13.2530   21.9100 N   0  0  0  0  0  0  0  0  0  0  0  0
  -22.8330  -14.9400   20.4970 O   0  0  0  0  0  0  0  0  0  0  0  0
  -22.8020  -12.4170   22.3670 H   0  0  0  0  0  0  0  0  0  0  0  0
  -21.5490  -13.6010   22.1310 H   0  0  0  0  0  0  0  0  0  0  0  0
  -25.9290  -15.4490   20.2300 N   0  0  0  0  0  0  0  0  0  0  0  0
  -25.1930  -16.1270   20.3950 H   0  0  0  0  0  0  0  0  0  0  0  0
  -26.8020  -15.8790   19.9380 H   0  0  0  0  0  0  0  0  0  0  0  0
  -29.1630  -22.2910   21.2920 C   0  0  0  0  0  2  0  0  0  0  0  0
  -29.8210  -23.2170   20.3300 N   0  0  0  0  0  4  0  0  0  0  0  0
  -29.5060  -23.0500   19.3890 H   0  0  0  0  0  0  0  0  0  0  0  0
  -30.8000  -22.9740   20.3430 H   0  0  0  0  0  0  0  0  0  0  0  0
  -29.7490  -24.6730   20.6670 C   0  0  0  0  0  2  0  0  0  0  0  0
  -28.5140  -25.4040   20.0930 C   0  0  0  0  0  2  0  0  0  0  0  0
  -28.5700  -26.8170   20.3650 O   0  0  0  0  0  0  0  0  0  0  0  0
  -24.5900  -31.9450   23.2970 C   0  0  0  0  0  0  0  0  0  0  0  0
  -27.3830  -27.5250   20.3010 C   0  0  0  0  0  0  0  0  0  0  0  0
  -23.4490  -30.5110   21.6380 C   0  0  0  0  0  3  0  0  0  0  0  0
  -24.9610  -28.9960   20.2560 C   0  0  0  0  0  0  0  0  0  0  0  0
  -25.9730  -30.9160   21.4950 C   0  0  0  0  0  2  0  0  0  0  0  0
  -26.0970  -29.5420   20.8650 C   0  0  0  0  0  0  0  0  0  0  0  0
  -27.3110  -28.8140   20.8840 C   0  0  0  0  0  3  0  0  0  0  0  0
  -26.2240  -27.0020   19.6820 C   0  0  0  0  0  3  0  0  0  0  0  0
  -25.0190  -27.7250   19.6650 C   0  0  0  0  0  3  0  0  0  0  0  0
  -23.7020  -29.8320   20.2670 C   0  0  0  0  0  2  0  0  0  0  0  0
  -24.6870  -31.1390   22.2010 N   0  0  0  0  0  0  0  0  0  0  0  0
  -23.4910  -32.1980   23.8110 O   0  0  0  0  0  0  0  0  0  0  0  0
  -22.7980  -29.4790   22.5890 C   0  0  0  0  0  0  0  0  0  0  0  0
  -21.4820  -29.2620   22.4270 N   0  0  0  0  0  0  0  0  0  0  0  0
  -23.4750  -28.8740   23.4250 O   0  0  0  0  0  0  0  0  0  0  0  0
  -20.9950  -29.8100   21.7310 H   0  0  0  0  0  0  0  0  0  0  0  0
  -18.1250  -27.9990   22.8540 C   0  0  0  0  0  0  0  0  0  0  0  0
  -20.6690  -28.3130   23.1860 C   0  0  0  0  0  3  0  0  0  0  0  0
  -20.8170  -26.8800   22.6230 C   0  0  0  0  0  2  0  0  0  0  0  0
  -19.7460  -26.5220   21.5870 C   0  0  0  0  0  2  0  0  0  0  0  0
  -18.3450  -26.6480   22.1940 C   0  0  0  0  0  2  0  0  0  0  0  0
  -19.2170  -28.7860   23.3060 C   0  0  0  0  0  0  0  0  0  0  0  0
  -18.9590  -30.0480   23.8850 C   0  0  0  0  0  3  0  0  0  0  0  0
  -17.6410  -30.5250   24.0140 C   0  0  0  0  0  3  0  0  0  0  0  0
  -16.5620  -29.7350   23.5780 C   0  0  0  0  0  3  0  0  0  0  0  0
  -16.8060  -28.4740   23.0020 C   0  0  0  0  0  3  0  0  0  0  0  0
  -25.8490  -32.6060   23.9400 C   0  0  0  0  0  3  0  0  0  0  0  0
  -25.5120  -34.0040   24.2380 N   0  0  0  0  0  0  0  0  0  0  0  0
  -25.8420  -35.0460   23.4640 C   0  0  0  0  0  0  0  0  0  0  0  0
  -26.5350  -34.9330   22.4480 O   0  0  0  0  0  0  0  0  0  0  0  0
  -24.9020  -34.1670   25.0250 H   0  0  0  0  0  0  0  0  0  0  0  0
  -24.0900  -36.7990   23.0320 C   0  0  0  0  0  1  0  0  0  0  0  0
  -25.3200  -36.4350   23.8790 C   0  0  0  0  0  3  0  0  0  0  0  0
  -27.4190  -37.3750   24.7400 C   0  0  0  0  0  1  0  0  0  0  0  0
  -26.3370  -37.5030   23.7670 N   0  0  0  0  0  0  0  0  0  0  0  0
  -25.9120  -38.4200   23.8840 H   0  0  0  0  0  0  0  0  0  0  0  0
  -26.3450  -31.8620   25.2400 C   0  0  1  0  0  0  0  0  0  0  0  0
  -25.2280  -31.6100   26.2790 C   0  0  0  0  0  1  0  0  0  0  0  0
  -26.9710  -30.4940   24.8810 C   0  0  0  0  0  1  0  0  0  0  0  0
  -27.4580  -32.6900   25.9250 C   0  0  0  0  0  1  0  0  0  0  0  0
  1 49  1  0
  2  8  2  0
  2  7  1  0
  3  1  1  0
  4  3  1  0
  5  6  1  0
  5  3  2  0
  7  4  2  0
  8  5  1  0
 10 15  1  0
 11 12  1  0
 11 10  1  0
 13 12  1  0
 13 24  1  0
 13 14  1  0
 15  9  1  0
 15 14  1  0
 16  9  2  0
 18 20  1  0
 18 19  1  0
 19  4  1  0
 19 17  1  0
 20  9  1  0
 20 17  1  0
 21 22  2  0
 22 41  1  0
 23 22  1  0
 23 26  1  0
 24 21  1  0
 24 25  1  0
 25 23  2  0
 26 27  1  0
 27 28  2  0
 29 32  1  0
 29 28  1  0
 30 29  2  0
 31 30  1  0
 31 26  2  0
 32 33  1  0
 33 34  1  0
 34 35  2  0
 36 35  1  0
 36 40  1  0
 37 36  2  0
 38 33  2  0
 38 37  1  0
 39 38  1  0
 41 42  1  0
 42 45  1  0
 42 44  1  0
 43 41  2  0
 46 47  1  0
 46 21  1  0
 48 46  1  0
 50 52  1  0
 50 53  1  0
 50 49  1  0
 51 50  1  0
 54 55  1  0
 54 53  1  0
 56 67  2  0
 57 55  1  0
 57 62  1  0
 58 66  1  0
 58 68  1  0
 59 65  1  0
 59 61  1  0
 60 66  1  0
 61 62  2  0
 61 60  1  0
 63 57  2  0
 64 63  1  0
 64 59  2  0
 65 58  1  0
 66 56  1  0
 68 70  2  0
 69 68  1  0
 71 69  1  0
 72 81  2  0
 72 77  1  0
 73 69  1  0
 73 77  1  0
 74 73  1  0
 75 76  1  0
 75 74  1  0
 76 72  1  0
 77 78  2  0
 78 79  1  0
 80 79  2  0
 81 80  1  0
 82 56  1  0
 82 83  1  0
 82 92  1  0
 83 86  1  0
 84 88  1  0
 84 83  1  0
 85 84  2  0
 88 87  1  0
 90 88  1  0
 90 91  1  0
 90 89  1  0
 92 95  1  1
 92 93  1  0
 94 92  1  0
M  ISO  4   9 100  20 100  54 101  55 101
M  END
>  <TORSDO>  (82) 
F 21

>  <SCORE>  (82) 
-13.174

>  <name>  (82) 
81

>  <ligand_id>  (82) 
81

>  <original_smiles>  (82) 
[H]c1nc(C([H])([H])[H])c(C([H])([H])C([H])([H])[N+]([H])([H])C([H])([H])C([H])([H])Oc2c([H])c([H])c3c(c2[H])C([H])([H])N(C(=O)C([H])(N([H])C(=O)C([H])(N([H])C([H])([H])[H])C([H])([H])[H])C(C([H])([H])[H])(C([H])([H])[H])C([H])([H])[H])C([H])(C(=O)N([H])C2([H])c4c([H])c([H])c([H])c([H])c4C([H])([H])C([H])([H])C2([H])[H])C3([H])[H])c(C2([H])C([H])([H])N(C(=O)N3C([H])([H])C([H])([H])C([H])([H])C([H])(n4nc(-c5c([H])c([H])c(Oc6c([H])c([H])c(F)c([H])c6F)c([H])c5[H])c(C(=O)N([H])[H])c4N([H])[H])C3([H])[H])C2([H])[H])n1

>  <smiles>  (82) 
[H]c1nc(C([H])([H])[H])c(C([H])([H])C([H])([H])[N+]([H])([H])C([H])([H])C([H])([H])Oc2c([H])c([H])c3c(c2[H])C([H])([H])N(C(=O)C([H])(N([H])C(=O)C([H])(N([H])C([H])([H])[H])C([H])([H])[H])C(C([H])([H])[H])(C([H])([H])[H])C([H])([H])[H])C([H])(C(=O)N([H])C2([H])c4c([H])c([H])c([H])c([H])c4C([H])([H])C([H])([H])C2([H])[H])C3([H])[H])c(C2([H])C([H])([H])N(C(=O)N3C([H])([H])C([H])([H])C([H])([H])C([H])(n4nc(-c5c([H])c([H])c(Oc6c([H])c([H])c(F)c([H])c6F)c([H])c5[H])c(C(=O)N([H])[H])c4N([H])[H])C3([H])[H])C2([H])[H])n1

$$$$
82:0:0
     RDKit          3D

 90 99  0  0  1  0  0  0  0  0999 V2000
  -30.6620  -14.8510   20.3320 C   0  0  0  0  0  0  0  0  0  0  0  0
  -30.4340  -12.5440   19.3840 C   0  0  0  0  0  2  0  0  0  0  0  0
  -29.5090  -12.5490   18.1480 C   0  0  0  0  0  2  0  0  0  0  0  0
  -28.0420  -12.3720   18.5830 C   0  0  0  0  0  2  0  0  0  0  0  0
  -27.6480  -13.3190   19.7470 C   0  0  0  0  0  3  0  0  0  0  0  0
  -28.6960  -13.3160   20.8800 C   0  0  0  0  0  2  0  0  0  0  0  0
  -29.9880  -13.6460   20.2710 N   0  0  0  0  0  0  0  0  0  0  0  0
  -31.8760  -14.8560   20.1010 O   0  0  0  0  0  0  0  0  0  0  0  0
  -28.4640  -22.6550   21.2410 C   0  0  0  0  0  3  0  0  0  0  0  0
  -29.6670  -21.5050   19.1410 C   0  0  0  0  0  3  0  0  0  0  0  0
  -28.7710  -23.4940   20.1190 C   0  0  0  0  0  0  0  0  0  0  0  0
  -29.3140  -20.6580   20.2450 C   0  0  0  0  0  0  0  0  0  0  0  0
  -29.7290  -18.4630   21.5450 C   0  0  0  0  0  2  0  0  0  0  0  0
  -29.2840  -18.2720   19.1550 C   0  0  0  0  0  2  0  0  0  0  0  0
  -30.5960  -17.1490   21.3620 C   0  0  0  0  0  2  0  0  0  0  0  0
  -29.0810  -16.7120   19.5250 C   0  0  0  0  0  2  0  0  0  0  0  0
  -29.4080  -22.8640   19.0760 N   0  0  0  0  0  0  0  0  0  0  0  0
  -28.7390  -21.2960   21.3120 N   0  0  0  0  0  0  0  0  0  0  0  0
  -29.5240  -19.2060   20.2920 N   0  0  0  0  0  0  0  0  0  0  0  0
  -29.9880  -16.0650   20.5340 N   0  0  0  0  0  0  0  0  0  0  0  0
  -25.2610  -13.9320   20.4440 C   0  0  0  0  0  0  0  0  0  0  0  0
  -24.1900  -13.1700   20.8240 C   0  0  0  0  0  0  0  0  0  0  0  0
  -24.6520  -11.8180   20.8280 C   0  0  0  0  0  0  0  0  0  0  0  0
  -26.3040  -13.0460   20.2410 N   0  0  0  0  0  0  0  0  0  0  0  0
  -25.9460  -11.7700   20.5380 N   0  0  0  0  0  0  0  0  0  0  0  0
  -23.9190  -10.5610   21.0300 C   0  0  0  0  0  0  0  0  0  0  0  0
  -24.3340   -9.6090   21.9860 C   0  0  0  0  0  3  0  0  0  0  0  0
  -23.5990   -8.4180   22.1760 C   0  0  0  0  0  3  0  0  0  0  0  0
  -22.4360   -8.1720   21.4070 C   0  0  0  0  0  0  0  0  0  0  0  0
  -22.0440   -9.1110   20.4390 C   0  0  0  0  0  3  0  0  0  0  0  0
  -22.7780  -10.2930   20.2480 C   0  0  0  0  0  3  0  0  0  0  0  0
  -21.6720   -7.0350   21.5080 O   0  0  0  0  0  0  0  0  0  0  0  0
  -21.6000   -6.3170   22.6750 C   0  0  0  0  0  0  0  0  0  0  0  0
  -21.0910   -6.8790   23.8660 C   0  0  0  0  0  3  0  0  0  0  0  0
  -20.9690   -6.0840   25.0230 C   0  0  0  0  0  3  0  0  0  0  0  0
  -21.3490   -4.7280   24.9910 C   0  0  0  0  0  0  0  0  0  0  0  0
  -21.8510   -4.1670   23.8040 C   0  0  0  0  0  3  0  0  0  0  0  0
  -21.9720   -4.9590   22.6490 C   0  0  0  0  0  0  0  0  0  0  0  0
  -22.4370   -4.4060   21.5020 F   0  0  0  0  0  0  0  0  0  0  0  0
  -21.2280   -3.9620   26.1000 F   0  0  0  0  0  0  0  0  0  0  0  0
  -22.7920  -13.6540   21.0670 C   0  0  0  0  0  0  0  0  0  0  0  0
  -22.0600  -12.9810   21.9510 N   0  0  0  0  0  0  0  0  0  0  0  0
  -22.3580  -14.6620   20.5100 O   0  0  0  0  0  0  0  0  0  0  0  0
  -22.4300  -12.1660   22.4180 H   0  0  0  0  0  0  0  0  0  0  0  0
  -21.1200  -13.2820   22.1630 H   0  0  0  0  0  0  0  0  0  0  0  0
  -25.4240  -15.2980   20.2250 N   0  0  0  0  0  0  0  0  0  0  0  0
  -24.6390  -15.9390   20.2670 H   0  0  0  0  0  0  0  0  0  0  0  0
  -26.2550  -15.7200   19.8310 H   0  0  0  0  0  0  0  0  0  0  0  0
  -28.0000  -24.8810   19.8250 C   0  0  0  0  0  2  0  0  0  0  0  0
  -28.3920  -26.3120   20.1700 O   0  0  0  0  0  0  0  0  0  0  0  0
  -24.7270  -31.8300   23.2750 C   0  0  0  0  0  0  0  0  0  0  0  0
  -27.3470  -27.2890   20.0990 C   0  0  0  0  0  0  0  0  0  0  0  0
  -23.5440  -30.4930   21.5750 C   0  0  0  0  0  3  0  0  0  0  0  0
  -25.0110  -28.9940   20.1060 C   0  0  0  0  0  0  0  0  0  0  0  0
  -26.0980  -30.7800   21.4530 C   0  0  0  0  0  2  0  0  0  0  0  0
  -26.1810  -29.4220   20.7490 C   0  0  0  0  0  0  0  0  0  0  0  0
  -27.3500  -28.5840   20.7370 C   0  0  0  0  0  3  0  0  0  0  0  0
  -26.1550  -26.9660   19.4050 C   0  0  0  0  0  3  0  0  0  0  0  0
  -25.0070  -27.7750   19.4200 C   0  0  0  0  0  3  0  0  0  0  0  0
  -23.7770  -29.8740   20.1740 C   0  0  0  0  0  2  0  0  0  0  0  0
  -24.8070  -31.0510   22.1550 N   0  0  0  0  0  0  0  0  0  0  0  0
  -23.6360  -32.0950   23.8020 O   0  0  0  0  0  0  0  0  0  0  0  0
  -22.8650  -29.4430   22.4920 C   0  0  0  0  0  0  0  0  0  0  0  0
  -21.5390  -29.2740   22.3460 N   0  0  0  0  0  0  0  0  0  0  0  0
  -23.5320  -28.7860   23.2970 O   0  0  0  0  0  0  0  0  0  0  0  0
  -21.0610  -29.8560   21.6710 H   0  0  0  0  0  0  0  0  0  0  0  0
  -18.1460  -28.0990   22.8080 C   0  0  0  0  0  0  0  0  0  0  0  0
  -20.7080  -28.3160   23.0770 C   0  0  0  0  0  3  0  0  0  0  0  0
  -20.7900  -26.9080   22.4430 C   0  0  0  0  0  2  0  0  0  0  0  0
  -19.6830  -26.6430   21.4200 C   0  0  0  0  0  2  0  0  0  0  0  0
  -18.3040  -26.7770   22.0740 C   0  0  0  0  0  2  0  0  0  0  0  0
  -19.2750  -28.8300   23.2640 C   0  0  0  0  0  0  0  0  0  0  0  0
  -19.0730  -30.0680   23.9080 C   0  0  0  0  0  3  0  0  0  0  0  0
  -17.7750  -30.5750   24.1040 C   0  0  0  0  0  3  0  0  0  0  0  0
  -16.6610  -29.8430   23.6610 C   0  0  0  0  0  3  0  0  0  0  0  0
  -16.8470  -28.6050   23.0180 C   0  0  0  0  0  3  0  0  0  0  0  0
  -26.0040  -32.4440   23.9270 C   0  0  0  0  0  3  0  0  0  0  0  0
  -25.7010  -33.8430   24.2660 N   0  0  0  0  0  0  0  0  0  0  0  0
  -26.0320  -34.9010   23.5140 C   0  0  0  0  0  0  0  0  0  0  0  0
  -26.6950  -34.8010   22.4760 O   0  0  0  0  0  0  0  0  0  0  0  0
  -25.1170  -33.9930   25.0750 H   0  0  0  0  0  0  0  0  0  0  0  0
  -24.3070  -36.7040   23.1870 C   0  0  0  0  0  1  0  0  0  0  0  0
  -25.5540  -36.2900   23.9830 C   0  0  0  0  0  3  0  0  0  0  0  0
  -27.6890  -37.1720   24.8150 C   0  0  0  0  0  1  0  0  0  0  0  0
  -26.5900  -37.3380   23.8680 N   0  0  0  0  0  0  0  0  0  0  0  0
  -26.1860  -38.2600   24.0130 H   0  0  0  0  0  0  0  0  0  0  0  0
  -26.4840  -31.6580   25.2080 C   0  0  1  0  0  0  0  0  0  0  0  0
  -25.3680  -31.4170   26.2500 C   0  0  0  0  0  1  0  0  0  0  0  0
  -27.0680  -30.2770   24.8250 C   0  0  0  0  0  1  0  0  0  0  0  0
  -27.6230  -32.4380   25.9020 C   0  0  0  0  0  1  0  0  0  0  0  0
  1 20  1  0
  2  7  1  0
  3  4  1  0
  3  2  1  0
  5  4  1  0
  5 24  1  0
  5  6  1  0
  7  1  1  0
  7  6  1  0
  8  1  2  0
  9 18  1  0
 10 12  1  0
 11  9  2  0
 12 19  1  0
 12 18  2  0
 14 16  1  0
 14 19  1  0
 15 13  1  0
 16 20  1  0
 17 10  2  0
 17 11  1  0
 19 13  1  0
 20 15  1  0
 21 22  2  0
 22 23  1  0
 22 41  1  0
 23 26  1  0
 24 21  1  0
 24 25  1  0
 25 23  2  0
 26 27  1  0
 27 28  2  0
 29 32  1  0
 29 28  1  0
 30 29  2  0
 31 30  1  0
 31 26  2  0
 32 33  1  0
 33 34  1  0
 34 35  2  0
 36 35  1  0
 36 40  1  0
 37 36  2  0
 38 33  2  0
 38 37  1  0
 39 38  1  0
 41 42  1  0
 42 45  1  0
 42 44  1  0
 43 41  2  0
 46 47  1  0
 46 21  1  0
 48 46  1  0
 49 11  1  0
 49 50  1  0
 51 62  2  0
 52 50  1  0
 52 57  1  0
 53 61  1  0
 53 63  1  0
 54 60  1  0
 54 56  1  0
 55 61  1  0
 56 55  1  0
 57 56  2  0
 58 59  1  0
 58 52  2  0
 59 54  2  0
 60 53  1  0
 61 51  1  0
 63 65  2  0
 64 63  1  0
 66 64  1  0
 67 76  2  0
 67 72  1  0
 68 64  1  0
 68 72  1  0
 69 68  1  0
 70 71  1  0
 70 69  1  0
 71 67  1  0
 72 73  2  0
 73 74  1  0
 75 74  2  0
 76 75  1  0
 77 51  1  0
 77 78  1  0
 77 87  1  0
 78 81  1  0
 79 83  1  0
 79 78  1  0
 80 79  2  0
 83 82  1  0
 85 83  1  0
 85 86  1  0
 85 84  1  0
 87 90  1  1
 87 88  1  0
 89 87  1  0
M  ISO  4   1 100  20 100  49 101  50 101
M  END
>  <TORSDO>  (83) 
F 16

>  <SCORE>  (83) 
-15.328

>  <name>  (83) 
82

>  <ligand_id>  (83) 
82

>  <original_smiles>  (83) 
[H]c1nc(C([H])([H])Oc2c([H])c([H])c3c(c2[H])C([H])([H])N(C(=O)C([H])(N([H])C(=O)C([H])(N([H])C([H])([H])[H])C([H])([H])[H])C(C([H])([H])[H])(C([H])([H])[H])C([H])([H])[H])C([H])(C(=O)N([H])C2([H])c4c([H])c([H])c([H])c([H])c4C([H])([H])C([H])([H])C2([H])[H])C3([H])[H])c([H])nc1N1C([H])([H])C([H])([H])N(C(=O)N2C([H])([H])C([H])([H])C([H])([H])C([H])(n3nc(-c4c([H])c([H])c(Oc5c([H])c([H])c(F)c([H])c5F)c([H])c4[H])c(C(=O)N([H])[H])c3N([H])[H])C2([H])[H])C([H])([H])C1([H])[H]

>  <smiles>  (83) 
[H]c1nc(C([H])([H])Oc2c([H])c([H])c3c(c2[H])C([H])([H])N(C(=O)C([H])(N([H])C(=O)C([H])(N([H])C([H])([H])[H])C([H])([H])[H])C(C([H])([H])[H])(C([H])([H])[H])C([H])([H])[H])C([H])(C(=O)N([H])C2([H])c4c([H])c([H])c([H])c([H])c4C([H])([H])C([H])([H])C2([H])[H])C3([H])[H])c([H])nc1N1C([H])([H])C([H])([H])N(C(=O)N2C([H])([H])C([H])([H])C([H])([H])C([H])(n3nc(-c4c([H])c([H])c(Oc5c([H])c([H])c(F)c([H])c5F)c([H])c4[H])c(C(=O)N([H])[H])c3N([H])[H])C2([H])[H])C([H])([H])C1([H])[H]

$$$$
83:0:0
     RDKit          3D

 94102  0  0  1  0  0  0  0  0999 V2000
  -29.5730  -22.3730   20.1920 C   0  0  0  0  0  2  0  0  0  0  0  0
  -28.9040  -23.6620   19.8480 N   0  0  0  0  0  4  0  0  0  0  0  0
  -28.3250  -23.4960   19.0400 H   0  0  0  0  0  0  0  0  0  0  0  0
  -28.2950  -23.9190   20.6120 H   0  0  0  0  0  0  0  0  0  0  0  0
  -29.8140  -24.8070   19.5590 C   0  0  0  0  0  2  0  0  0  0  0  0
  -29.0930  -26.0720   19.0150 C   0  0  0  0  0  2  0  0  0  0  0  0
  -28.7160  -26.9820   20.0650 O   0  0  0  0  0  0  0  0  0  0  0  0
  -24.6600  -31.9240   23.1980 C   0  0  0  0  0  0  0  0  0  0  0  0
  -27.5070  -27.6570   20.0200 C   0  0  0  0  0  0  0  0  0  0  0  0
  -23.5280  -30.5320   21.4970 C   0  0  0  0  0  3  0  0  0  0  0  0
  -25.0540  -29.0860   20.0500 C   0  0  0  0  0  0  0  0  0  0  0  0
  -26.0450  -30.9750   21.3540 C   0  0  0  0  0  2  0  0  0  0  0  0
  -26.1850  -29.6270   20.6740 C   0  0  0  0  0  0  0  0  0  0  0  0
  -27.4080  -28.9150   20.6640 C   0  0  0  0  0  3  0  0  0  0  0  0
  -26.3450  -27.1230   19.4120 C   0  0  0  0  0  3  0  0  0  0  0  0
  -25.1300  -27.8330   19.4230 C   0  0  0  0  0  3  0  0  0  0  0  0
  -23.7820  -29.9010   20.1010 C   0  0  0  0  0  2  0  0  0  0  0  0
  -24.7610  -31.1580   22.0750 N   0  0  0  0  0  0  0  0  0  0  0  0
  -23.5620  -32.1460   23.7260 O   0  0  0  0  0  0  0  0  0  0  0  0
  -22.8970  -29.4630   22.4160 C   0  0  0  0  0  0  0  0  0  0  0  0
  -21.5740  -29.2660   22.2860 N   0  0  0  0  0  0  0  0  0  0  0  0
  -23.5930  -28.8130   23.2010 O   0  0  0  0  0  0  0  0  0  0  0  0
  -21.0730  -29.8440   21.6250 H   0  0  0  0  0  0  0  0  0  0  0  0
  -18.2110  -28.0450   22.7860 C   0  0  0  0  0  0  0  0  0  0  0  0
  -20.7740  -28.2860   23.0190 C   0  0  0  0  0  3  0  0  0  0  0  0
  -20.8630  -26.8900   22.3620 C   0  0  0  0  0  2  0  0  0  0  0  0
  -19.7410  -26.6260   21.3530 C   0  0  0  0  0  2  0  0  0  0  0  0
  -18.3720  -26.7350   22.0320 C   0  0  0  0  0  2  0  0  0  0  0  0
  -19.3390  -28.7810   23.2350 C   0  0  0  0  0  0  0  0  0  0  0  0
  -19.1350  -30.0090   23.9000 C   0  0  0  0  0  3  0  0  0  0  0  0
  -17.8340  -30.5010   24.1190 C   0  0  0  0  0  3  0  0  0  0  0  0
  -16.7200  -29.7610   23.6870 C   0  0  0  0  0  3  0  0  0  0  0  0
  -16.9100  -28.5340   23.0260 C   0  0  0  0  0  3  0  0  0  0  0  0
  -25.9140  -32.5790   23.8550 C   0  0  0  0  0  3  0  0  0  0  0  0
  -25.5710  -33.9710   24.1740 N   0  0  0  0  0  0  0  0  0  0  0  0
  -25.9030  -35.0280   23.4210 C   0  0  0  0  0  0  0  0  0  0  0  0
  -26.6020  -34.9350   22.4080 O   0  0  0  0  0  0  0  0  0  0  0  0
  -24.9510  -34.1170   24.9570 H   0  0  0  0  0  0  0  0  0  0  0  0
  -24.1500  -36.7850   23.0130 C   0  0  0  0  0  1  0  0  0  0  0  0
  -25.3760  -36.4080   23.8600 C   0  0  0  0  0  3  0  0  0  0  0  0
  -27.4640  -37.3410   24.7520 C   0  0  0  0  0  1  0  0  0  0  0  0
  -26.3900  -37.4800   23.7720 N   0  0  0  0  0  0  0  0  0  0  0  0
  -25.9620  -38.3930   23.9000 H   0  0  0  0  0  0  0  0  0  0  0  0
  -26.4090  -31.8180   25.1460 C   0  0  1  0  0  0  0  0  0  0  0  0
  -25.2900  -31.5570   26.1800 C   0  0  0  0  0  1  0  0  0  0  0  0
  -27.0310  -30.4530   24.7700 C   0  0  0  0  0  1  0  0  0  0  0  0
  -27.5220  -32.6340   25.8420 C   0  0  0  0  0  1  0  0  0  0  0  0
  -27.7060  -21.5090   21.7430 C   0  0  0  0  0  1  0  0  0  0  0  0
  -28.5410  -21.2370   20.4780 C   0  0  0  0  0  3  0  0  0  0  0  0
  -30.2700  -18.0600   21.7230 C   0  0  0  0  0  2  0  0  0  0  0  0
  -30.1660  -19.5860   21.4710 C   0  0  0  0  0  2  0  0  0  0  0  0
  -29.3710  -19.2500   19.2450 C   0  0  0  0  0  2  0  0  0  0  0  0
  -29.4280  -17.7040   19.3710 C   0  0  0  0  0  3  0  0  0  0  0  0
  -30.4620  -17.2310   20.4320 C   0  0  0  0  0  3  0  0  0  0  0  0
  -29.6680  -17.0700   17.9930 C   0  0  0  0  0  1  0  0  0  0  0  0
  -29.0590  -19.8510   20.5450 N   0  0  0  0  0  0  0  0  0  0  0  0
  -31.0740  -14.7700   20.3060 C   0  0  0  0  0  0  0  0  0  0  0  0
  -30.8350  -12.5470   19.2680 C   0  0  0  0  0  2  0  0  0  0  0  0
  -29.8820  -12.6770   18.0610 C   0  0  0  0  0  2  0  0  0  0  0  0
  -28.4110  -12.5420   18.5010 C   0  0  0  0  0  2  0  0  0  0  0  0
  -28.0660  -13.4290   19.7290 C   0  0  0  0  0  3  0  0  0  0  0  0
  -29.1270  -13.2620   20.8400 C   0  0  0  0  0  2  0  0  0  0  0  0
  -30.4450  -13.5650   20.2560 N   0  0  0  0  0  0  0  0  0  0  0  0
  -32.1980  -14.9640   19.8330 O   0  0  0  0  0  0  0  0  0  0  0  0
  -30.2930  -15.7900   20.7150 N   0  0  0  0  0  0  0  0  0  0  0  0
  -29.3990  -15.5130   21.0910 H   0  0  0  0  0  0  0  0  0  0  0  0
  -25.6850  -14.0490   20.4870 C   0  0  0  0  0  0  0  0  0  0  0  0
  -24.6140  -13.2810   20.8580 C   0  0  0  0  0  0  0  0  0  0  0  0
  -25.0600  -11.9250   20.7920 C   0  0  0  0  0  0  0  0  0  0  0  0
  -26.7160  -13.1610   20.2220 N   0  0  0  0  0  0  0  0  0  0  0  0
  -26.3440  -11.8780   20.4610 N   0  0  0  0  0  0  0  0  0  0  0  0
  -24.3240  -10.6660   20.9680 C   0  0  0  0  0  0  0  0  0  0  0  0
  -24.7020   -9.7200   21.9440 C   0  0  0  0  0  3  0  0  0  0  0  0
  -23.9670   -8.5260   22.1060 C   0  0  0  0  0  3  0  0  0  0  0  0
  -22.8400   -8.2690   21.2890 C   0  0  0  0  0  0  0  0  0  0  0  0
  -22.4820   -9.2050   20.3020 C   0  0  0  0  0  3  0  0  0  0  0  0
  -23.2170  -10.3910   20.1390 C   0  0  0  0  0  3  0  0  0  0  0  0
  -22.0830   -7.1250   21.3560 O   0  0  0  0  0  0  0  0  0  0  0  0
  -21.8810   -6.4640   22.5410 C   0  0  0  0  0  0  0  0  0  0  0  0
  -21.2520   -7.0850   23.6420 C   0  0  0  0  0  3  0  0  0  0  0  0
  -21.0010   -6.3480   24.8180 C   0  0  0  0  0  3  0  0  0  0  0  0
  -21.3710   -4.9910   24.8900 C   0  0  0  0  0  0  0  0  0  0  0  0
  -21.9930   -4.3700   23.7940 C   0  0  0  0  0  3  0  0  0  0  0  0
  -22.2450   -5.1040   22.6210 C   0  0  0  0  0  0  0  0  0  0  0  0
  -22.8250   -4.4960   21.5590 F   0  0  0  0  0  0  0  0  0  0  0  0
  -21.1240   -4.2800   26.0160 F   0  0  0  0  0  0  0  0  0  0  0  0
  -23.2270  -13.7670   21.1650 C   0  0  0  0  0  0  0  0  0  0  0  0
  -22.5070  -13.0620   22.0320 N   0  0  0  0  0  0  0  0  0  0  0  0
  -22.7890  -14.8060   20.6730 O   0  0  0  0  0  0  0  0  0  0  0  0
  -22.8730  -12.2200   22.4520 H   0  0  0  0  0  0  0  0  0  0  0  0
  -21.5780  -13.3710   22.2790 H   0  0  0  0  0  0  0  0  0  0  0  0
  -25.8610  -15.4210   20.3370 N   0  0  0  0  0  0  0  0  0  0  0  0
  -25.1020  -16.0790   20.4760 H   0  0  0  0  0  0  0  0  0  0  0  0
  -26.7100  -15.8600   20.0050 H   0  0  0  0  0  0  0  0  0  0  0  0
  1 49  1  0
  2  1  1  0
  2  4  1  0
  3  2  1  0
  5  2  1  0
  6  5  1  0
  6  7  1  0
  8 19  2  0
  9  7  1  0
  9 14  1  0
 10 18  1  0
 10 20  1  0
 11 17  1  0
 11 13  1  0
 12 18  1  0
 13 12  1  0
 14 13  2  0
 15 16  1  0
 15  9  2  0
 16 11  2  0
 17 10  1  0
 18  8  1  0
 20 22  2  0
 21 20  1  0
 23 21  1  0
 24 33  2  0
 24 29  1  0
 25 21  1  0
 25 29  1  0
 26 25  1  0
 27 28  1  0
 27 26  1  0
 28 24  1  0
 29 30  2  0
 30 31  1  0
 32 31  2  0
 33 32  1  0
 34  8  1  0
 34 35  1  0
 34 44  1  0
 35 38  1  0
 36 40  1  0
 36 35  1  0
 37 36  2  0
 40 39  1  0
 42 40  1  0
 42 43  1  0
 42 41  1  0
 44 47  1  1
 44 45  1  0
 46 44  1  0
 49 56  1  0
 49 48  1  0
 51 50  1  0
 52 53  1  0
 52 56  1  0
 53 55  1  0
 53 54  1  0
 54 65  1  0
 54 50  1  0
 56 51  1  0
 57 65  1  0
 58 63  1  0
 59 60  1  0
 59 58  1  0
 61 60  1  0
 61 70  1  0
 61 62  1  0
 63 57  1  0
 63 62  1  0
 64 57  2  0
 65 66  1  0
 67 68  2  0
 68 87  1  0
 69 68  1  0
 69 72  1  0
 70 71  1  0
 70 67  1  0
 71 69  2  0
 72 73  1  0
 73 74  2  0
 75 78  1  0
 75 74  1  0
 76 75  2  0
 77 76  1  0
 77 72  2  0
 78 79  1  0
 79 84  2  0
 79 80  1  0
 80 81  2  0
 81 82  1  0
 82 86  1  0
 83 82  2  0
 84 83  1  0
 85 84  1  0
 87 88  1  0
 88 91  1  0
 88 90  1  0
 89 87  2  0
 92 93  1  0
 92 67  1  0
 94 92  1  0
M  ISO  4   6 101   7 101  57 100  65 100
M  END
>  <TORSDO>  (84) 
F 21

>  <SCORE>  (84) 
-12.056

>  <name>  (84) 
83

>  <ligand_id>  (84) 
83

>  <original_smiles>  (84) 
[H]c1c([H])c([H])c2c(c1[H])C([H])([H])C([H])([H])C([H])([H])C2([H])N([H])C(=O)C1([H])N(C(=O)C([H])(N([H])C(=O)C([H])(N([H])C([H])([H])[H])C([H])([H])[H])C(C([H])([H])[H])(C([H])([H])[H])C([H])([H])[H])C([H])([H])c2c([H])c(OC([H])([H])C([H])([H])[N+]([H])([H])C([H])([H])C([H])(N3C([H])([H])C([H])([H])C([H])(N([H])C(=O)N4C([H])([H])C([H])([H])C([H])([H])C([H])(n5nc(-c6c([H])c([H])c(Oc7c([H])c([H])c(F)c([H])c7F)c([H])c6[H])c(C(=O)N([H])[H])c5N([H])[H])C4([H])[H])C([H])(C([H])([H])[H])C3([H])[H])C([H])([H])[H])c([H])c([H])c2C1([H])[H]

>  <smiles>  (84) 
[H]c1c([H])c([H])c2c(c1[H])C([H])([H])C([H])([H])C([H])([H])C2([H])N([H])C(=O)C1([H])N(C(=O)C([H])(N([H])C(=O)C([H])(N([H])C([H])([H])[H])C([H])([H])[H])C(C([H])([H])[H])(C([H])([H])[H])C([H])([H])[H])C([H])([H])c2c([H])c(OC([H])([H])C([H])([H])[N+]([H])([H])C([H])([H])C([H])(N3C([H])([H])C([H])([H])C([H])(N([H])C(=O)N4C([H])([H])C([H])([H])C([H])([H])C([H])(n5nc(-c6c([H])c([H])c(Oc7c([H])c([H])c(F)c([H])c7F)c([H])c6[H])c(C(=O)N([H])[H])c5N([H])[H])C4([H])[H])C([H])(C([H])([H])[H])C3([H])[H])C([H])([H])[H])c([H])c([H])c2C1([H])[H]

$$$$
84:0:0
     RDKit          3D

 93101  0  0  1  0  0  0  0  0999 V2000
  -31.5770  -22.2140   20.5350 C   0  0  0  0  0  2  0  0  0  0  0  0
  -31.6830  -20.8050   19.9740 C   0  0  0  0  0  2  0  0  0  0  0  0
  -30.1710  -21.9140   21.0650 C   0  0  0  0  0  3  0  0  0  0  0  0
  -30.3380  -20.4060   20.6220 C   0  0  0  0  0  3  0  0  0  0  0  0
  -30.5200  -19.4180   21.7400 N   0  0  0  0  0  4  0  0  0  0  0  0
  -30.0420  -19.8060   22.5360 H   0  0  0  0  0  0  0  0  0  0  0  0
  -31.4930  -19.4030   21.9900 H   0  0  0  0  0  0  0  0  0  0  0  0
  -30.0370  -17.9870   21.6590 C   0  0  0  0  0  2  0  0  0  0  0  0
  -31.9900  -17.2390   20.1100 C   0  0  0  0  0  1  0  0  0  0  0  0
  -30.4970  -17.0590   20.4710 C   0  0  0  0  0  3  0  0  0  0  0  0
  -30.7340  -14.4740   20.3010 C   0  0  0  0  0  0  0  0  0  0  0  0
  -30.3200  -12.3170   19.1860 C   0  0  0  0  0  2  0  0  0  0  0  0
  -29.3840  -12.5610   17.9860 C   0  0  0  0  0  2  0  0  0  0  0  0
  -27.9140  -12.4510   18.4330 C   0  0  0  0  0  2  0  0  0  0  0  0
  -27.6120  -13.2820   19.7100 C   0  0  0  0  0  3  0  0  0  0  0  0
  -28.6800  -13.0760   20.8060 C   0  0  0  0  0  2  0  0  0  0  0  0
  -29.9940  -13.3330   20.2050 N   0  0  0  0  0  0  0  0  0  0  0  0
  -31.8890  -14.4980   19.8890 O   0  0  0  0  0  0  0  0  0  0  0  0
  -30.0850  -15.6170   20.6590 N   0  0  0  0  0  0  0  0  0  0  0  0
  -29.1310  -15.4680   20.9560 H   0  0  0  0  0  0  0  0  0  0  0  0
  -25.2350  -13.9000   20.4570 C   0  0  0  0  0  0  0  0  0  0  0  0
  -24.1690  -13.1340   20.8410 C   0  0  0  0  0  0  0  0  0  0  0  0
  -24.6220  -11.7800   20.8110 C   0  0  0  0  0  0  0  0  0  0  0  0
  -26.2690  -13.0110   20.2140 N   0  0  0  0  0  0  0  0  0  0  0  0
  -25.9070  -11.7310   20.4870 N   0  0  0  0  0  0  0  0  0  0  0  0
  -23.8900  -10.5230   21.0150 C   0  0  0  0  0  0  0  0  0  0  0  0
  -24.3330   -9.5480   21.9380 C   0  0  0  0  0  3  0  0  0  0  0  0
  -23.6000   -8.3570   22.1260 C   0  0  0  0  0  3  0  0  0  0  0  0
  -22.4110   -8.1310   21.3930 C   0  0  0  0  0  0  0  0  0  0  0  0
  -21.9880   -9.0920   20.4580 C   0  0  0  0  0  3  0  0  0  0  0  0
  -22.7220  -10.2750   20.2670 C   0  0  0  0  0  3  0  0  0  0  0  0
  -21.6490   -6.9920   21.4940 O   0  0  0  0  0  0  0  0  0  0  0  0
  -21.6220   -6.2420   22.6410 C   0  0  0  0  0  0  0  0  0  0  0  0
  -21.2370   -6.7920   23.8830 C   0  0  0  0  0  3  0  0  0  0  0  0
  -21.1580   -5.9690   25.0240 C   0  0  0  0  0  3  0  0  0  0  0  0
  -21.4520   -4.5960   24.9260 C   0  0  0  0  0  0  0  0  0  0  0  0
  -21.8310   -4.0450   23.6890 C   0  0  0  0  0  3  0  0  0  0  0  0
  -21.9120   -4.8640   22.5500 C   0  0  0  0  0  0  0  0  0  0  0  0
  -22.2570   -4.3240   21.3560 F   0  0  0  0  0  0  0  0  0  0  0  0
  -21.3680   -3.8030   26.0190 F   0  0  0  0  0  0  0  0  0  0  0  0
  -22.7790  -13.6220   21.1310 C   0  0  0  0  0  0  0  0  0  0  0  0
  -22.0610  -12.9320   22.0090 N   0  0  0  0  0  0  0  0  0  0  0  0
  -22.3410  -14.6490   20.6150 O   0  0  0  0  0  0  0  0  0  0  0  0
  -22.4340  -12.1020   22.4460 H   0  0  0  0  0  0  0  0  0  0  0  0
  -21.1270  -13.2370   22.2470 H   0  0  0  0  0  0  0  0  0  0  0  0
  -25.4100  -15.2680   20.2720 N   0  0  0  0  0  0  0  0  0  0  0  0
  -24.6430  -15.9260   20.3470 H   0  0  0  0  0  0  0  0  0  0  0  0
  -26.2620  -15.6930   19.9270 H   0  0  0  0  0  0  0  0  0  0  0  0
  -29.0460  -22.7800   20.6240 N   0  0  0  0  0  0  0  0  0  0  0  0
  -28.8660  -22.6360   19.6330 H   0  0  0  0  0  0  0  0  0  0  0  0
  -29.2870  -24.2270   20.8380 C   0  0  0  0  0  2  0  0  0  0  0  0
  -28.1470  -25.1060   20.2420 C   0  0  0  0  0  2  0  0  0  0  0  0
  -28.3420  -26.5440   20.3080 O   0  0  0  0  0  0  0  0  0  0  0  0
  -24.5840  -31.8500   23.2470 C   0  0  0  0  0  0  0  0  0  0  0  0
  -27.2000  -27.3340   20.2210 C   0  0  0  0  0  0  0  0  0  0  0  0
  -23.3730  -30.4450   21.6120 C   0  0  0  0  0  3  0  0  0  0  0  0
  -24.8260  -28.8970   20.1930 C   0  0  0  0  0  0  0  0  0  0  0  0
  -25.9080  -30.7800   21.4210 C   0  0  0  0  0  2  0  0  0  0  0  0
  -25.9870  -29.4040   20.7860 C   0  0  0  0  0  0  0  0  0  0  0  0
  -27.1780  -28.6330   20.7930 C   0  0  0  0  0  3  0  0  0  0  0  0
  -26.0190  -26.8630   19.6010 C   0  0  0  0  0  3  0  0  0  0  0  0
  -24.8400  -27.6290   19.5910 C   0  0  0  0  0  3  0  0  0  0  0  0
  -23.5810  -29.7570   20.2360 C   0  0  0  0  0  2  0  0  0  0  0  0
  -24.6390  -31.0400   22.1500 N   0  0  0  0  0  0  0  0  0  0  0  0
  -23.5030  -32.1290   23.7840 O   0  0  0  0  0  0  0  0  0  0  0  0
  -22.7180  -29.4310   22.5780 C   0  0  0  0  0  0  0  0  0  0  0  0
  -21.3930  -29.2540   22.4540 N   0  0  0  0  0  0  0  0  0  0  0  0
  -23.3980  -28.8090   23.3980 O   0  0  0  0  0  0  0  0  0  0  0  0
  -20.9050  -29.8010   21.7570 H   0  0  0  0  0  0  0  0  0  0  0  0
  -18.0120  -28.0820   22.9590 C   0  0  0  0  0  0  0  0  0  0  0  0
  -20.5710  -28.3260   23.2320 C   0  0  0  0  0  3  0  0  0  0  0  0
  -20.6670  -26.8900   22.6650 C   0  0  0  0  0  2  0  0  0  0  0  0
  -19.5630  -26.5690   21.6540 C   0  0  0  0  0  2  0  0  0  0  0  0
  -18.1800  -26.7290   22.2910 C   0  0  0  0  0  2  0  0  0  0  0  0
  -19.1340  -28.8390   23.3870 C   0  0  0  0  0  0  0  0  0  0  0  0
  -18.9220  -30.1100   23.9670 C   0  0  0  0  0  3  0  0  0  0  0  0
  -17.6200  -30.6160   24.1320 C   0  0  0  0  0  3  0  0  0  0  0  0
  -16.5110  -29.8530   23.7240 C   0  0  0  0  0  3  0  0  0  0  0  0
  -16.7090  -28.5920   23.1380 C   0  0  0  0  0  3  0  0  0  0  0  0
  -25.8720  -32.4820   23.8620 C   0  0  0  0  0  3  0  0  0  0  0  0
  -25.5670  -33.8840   24.1790 N   0  0  0  0  0  0  0  0  0  0  0  0
  -25.9080  -34.9280   23.4150 C   0  0  0  0  0  0  0  0  0  0  0  0
  -26.5820  -34.8150   22.3880 O   0  0  0  0  0  0  0  0  0  0  0  0
  -24.9690  -34.0510   24.9760 H   0  0  0  0  0  0  0  0  0  0  0  0
  -24.1900  -36.7280   23.0430 C   0  0  0  0  0  1  0  0  0  0  0  0
  -25.4240  -36.3210   23.8620 C   0  0  0  0  0  3  0  0  0  0  0  0
  -27.5560  -37.1980   24.7050 C   0  0  0  0  0  1  0  0  0  0  0  0
  -26.4620  -37.3690   23.7530 N   0  0  0  0  0  0  0  0  0  0  0  0
  -26.0580  -38.2900   23.8960 H   0  0  0  0  0  0  0  0  0  0  0  0
  -26.3840  -31.7240   25.1460 C   0  0  1  0  0  0  0  0  0  0  0  0
  -25.2860  -31.5000   26.2140 C   0  0  0  0  0  1  0  0  0  0  0  0
  -26.9650  -30.3420   24.7660 C   0  0  0  0  0  1  0  0  0  0  0  0
  -27.5380  -32.5220   25.8010 C   0  0  0  0  0  1  0  0  0  0  0  0
  1  3  1  0
  2  1  1  0
  2  4  1  0
  3 49  1  0
  4  3  1  0
  4  5  1  0
  5  7  1  0
  5  6  1  0
  8  5  1  0
 10  9  1  0
 10 19  1  0
 10  8  1  0
 11 19  1  0
 12 17  1  0
 13 14  1  0
 13 12  1  0
 15 14  1  0
 15 24  1  0
 15 16  1  0
 17 11  1  0
 17 16  1  0
 18 11  2  0
 19 20  1  0
 21 22  2  0
 22 41  1  0
 23 22  1  0
 23 26  1  0
 24 21  1  0
 24 25  1  0
 25 23  2  0
 26 27  1  0
 27 28  2  0
 29 32  1  0
 29 28  1  0
 30 29  2  0
 31 30  1  0
 31 26  2  0
 32 33  1  0
 33 34  1  0
 34 35  2  0
 36 35  1  0
 36 40  1  0
 37 36  2  0
 38 33  2  0
 38 37  1  0
 39 38  1  0
 41 42  1  0
 42 45  1  0
 42 44  1  0
 43 41  2  0
 46 47  1  0
 46 21  1  0
 48 46  1  0
 49 51  1  0
 50 49  1  0
 52 53  1  0
 52 51  1  0
 54 65  2  0
 55 53  1  0
 55 60  1  0
 56 64  1  0
 56 66  1  0
 57 63  1  0
 57 59  1  0
 58 64  1  0
 59 60  2  0
 59 58  1  0
 61 55  2  0
 62 61  1  0
 62 57  2  0
 63 56  1  0
 64 54  1  0
 66 68  2  0
 67 66  1  0
 69 67  1  0
 70 79  2  0
 70 75  1  0
 71 67  1  0
 71 75  1  0
 72 71  1  0
 73 74  1  0
 73 72  1  0
 74 70  1  0
 75 76  2  0
 76 77  1  0
 78 77  2  0
 79 78  1  0
 80 54  1  0
 80 81  1  0
 80 90  1  0
 81 84  1  0
 82 86  1  0
 82 81  1  0
 83 82  2  0
 86 85  1  0
 88 86  1  0
 88 89  1  0
 88 87  1  0
 90 93  1  1
 90 91  1  0
 92 90  1  0
M  ISO  4  11 100  19 100  52 101  53 101
M  END
>  <TORSDO>  (85) 
F 22

>  <SCORE>  (85) 
-13.082

>  <name>  (85) 
84

>  <ligand_id>  (85) 
84

>  <original_smiles>  (85) 
[H]c1c([H])c([H])c2c(c1[H])C([H])([H])C([H])([H])C([H])([H])C2([H])N([H])C(=O)C1([H])N(C(=O)C([H])(N([H])C(=O)C([H])(N([H])C([H])([H])[H])C([H])([H])[H])C(C([H])([H])[H])(C([H])([H])[H])C([H])([H])[H])C([H])([H])c2c([H])c(OC([H])([H])C([H])([H])N([H])C3([H])C([H])([H])C([H])([H])C3([H])[N+]([H])([H])C([H])([H])C([H])(N([H])C(=O)N3C([H])([H])C([H])([H])C([H])([H])C([H])(n4nc(-c5c([H])c([H])c(Oc6c([H])c([H])c(F)c([H])c6F)c([H])c5[H])c(C(=O)N([H])[H])c4N([H])[H])C3([H])[H])C([H])([H])[H])c([H])c([H])c2C1([H])[H]

>  <smiles>  (85) 
[H]c1c([H])c([H])c2c(c1[H])C([H])([H])C([H])([H])C([H])([H])C2([H])N([H])C(=O)C1([H])N(C(=O)C([H])(N([H])C(=O)C([H])(N([H])C([H])([H])[H])C([H])([H])[H])C(C([H])([H])[H])(C([H])([H])[H])C([H])([H])[H])C([H])([H])c2c([H])c(OC([H])([H])C([H])([H])N([H])C3([H])C([H])([H])C([H])([H])C3([H])[N+]([H])([H])C([H])([H])C([H])(N([H])C(=O)N3C([H])([H])C([H])([H])C([H])([H])C([H])(n4nc(-c5c([H])c([H])c(Oc6c([H])c([H])c(F)c([H])c6F)c([H])c5[H])c(C(=O)N([H])[H])c4N([H])[H])C3([H])[H])C([H])([H])[H])c([H])c([H])c2C1([H])[H]

$$$$
85:0:0
     RDKit          3D

 95 98  0  0  1  0  0  0  0  0999 V2000
  -27.0840  -23.6230   24.4930 C   0  0  0  0  0  2  0  0  0  0  0  0
  -26.9490  -24.8910   24.8880 C   0  0  0  0  0  2  0  0  0  0  0  0
  -27.4090  -23.4810   23.0840 C   0  0  0  0  0  0  0  0  0  0  0  0
  -26.9180  -25.8770   23.7690 C   0  0  0  0  0  1  0  0  0  0  0  0
  -27.8710  -24.6620   22.6110 N   0  0  0  0  0  2  0  0  0  0  0  0
  -27.4270  -22.4100   22.4720 O   0  0  0  0  0  0  0  0  0  0  0  0
  -34.7920  -21.6020   20.5720 C   0  0  0  0  0  0  0  0  0  0  0  0
  -36.6950  -20.0980   19.2290 C   0  0  0  0  0  2  0  0  0  0  0  0
  -36.6030  -19.8550   17.6790 C   0  0  0  0  0  2  0  0  0  0  0  0
  -35.5420  -18.8030   17.3410 C   0  0  0  0  0  2  0  0  0  0  0  0
  -34.3230  -19.0110   18.2590 C   0  0  0  0  0  3  0  0  0  0  0  0
  -34.6450  -19.1120   19.7590 C   0  0  0  0  0  2  0  0  0  0  0  0
  -35.3170  -20.3860   19.9210 N   0  0  0  0  0  0  0  0  0  0  0  0
  -35.8540  -22.2890   20.7040 O   0  0  0  0  0  0  0  0  0  0  0  0
  -30.1270  -22.5630   21.1630 C   0  0  0  0  0  2  0  0  0  0  0  0
  -31.1660  -24.0810   22.2990 C   0  0  0  0  0  2  0  0  0  0  0  0
  -31.7400  -21.6920   21.1650 C   0  0  0  0  0  2  0  0  0  0  0  0
  -32.7080  -23.5940   21.4850 C   0  0  0  0  0  2  0  0  0  0  0  0
  -29.4920  -24.1080   21.7710 C   0  0  0  0  0  3  0  0  0  0  0  0
  -33.2870  -22.1660   20.9420 N   0  0  0  0  0  0  0  0  0  0  0  0
  -32.1720  -18.1810   17.2720 C   0  0  0  0  0  0  0  0  0  0  0  0
  -31.4720  -17.0230   17.4250 C   0  0  0  0  0  0  0  0  0  0  0  0
  -32.2110  -16.2310   18.3560 C   0  0  0  0  0  0  0  0  0  0  0  0
  -33.2810  -18.0450   18.0790 N   0  0  0  0  0  0  0  0  0  0  0  0
  -33.2680  -16.8970   18.7980 N   0  0  0  0  0  0  0  0  0  0  0  0
  -32.0090  -14.8520   18.8040 C   0  0  0  0  0  0  0  0  0  0  0  0
  -32.5960  -14.3620   19.9910 C   0  0  0  0  0  3  0  0  0  0  0  0
  -32.3590  -13.0360   20.4070 C   0  0  0  0  0  3  0  0  0  0  0  0
  -31.5280  -12.1900   19.6330 C   0  0  0  0  0  0  0  0  0  0  0  0
  -30.9670  -12.6780   18.4410 C   0  0  0  0  0  3  0  0  0  0  0  0
  -31.2080  -13.9950   18.0260 C   0  0  0  0  0  3  0  0  0  0  0  0
  -31.2590  -10.8800   19.9470 O   0  0  0  0  0  0  0  0  0  0  0  0
  -31.8060  -10.2790   21.0500 C   0  0  0  0  0  0  0  0  0  0  0  0
  -31.8250  -10.9100   22.3140 C   0  0  0  0  0  3  0  0  0  0  0  0
  -32.3330  -10.2250   23.4360 C   0  0  0  0  0  3  0  0  0  0  0  0
  -32.8130   -8.9080   23.2990 C   0  0  0  0  0  0  0  0  0  0  0  0
  -32.7870   -8.2750   22.0430 C   0  0  0  0  0  3  0  0  0  0  0  0
  -32.2820   -8.9590   20.9230 C   0  0  0  0  0  0  0  0  0  0  0  0
  -32.2430   -8.3370   19.7190 F   0  0  0  0  0  0  0  0  0  0  0  0
  -33.2900   -8.2470   24.3780 F   0  0  0  0  0  0  0  0  0  0  0  0
  -30.2460  -16.6310   16.6600 C   0  0  0  0  0  0  0  0  0  0  0  0
  -29.3870  -15.8160   17.2580 N   0  0  0  0  0  0  0  0  0  0  0  0
  -30.0150  -17.1030   15.5480 O   0  0  0  0  0  0  0  0  0  0  0  0
  -29.5710  -15.4520   18.1830 H   0  0  0  0  0  0  0  0  0  0  0  0
  -28.5380  -15.5450   16.7850 H   0  0  0  0  0  0  0  0  0  0  0  0
  -31.9760  -19.3210   16.4990 N   0  0  0  0  0  0  0  0  0  0  0  0
  -31.1950  -19.4100   15.8570 H   0  0  0  0  0  0  0  0  0  0  0  0
  -32.6170  -20.1040   16.4530 H   0  0  0  0  0  0  0  0  0  0  0  0
  -25.0460  -26.7710   24.1870 C   0  0  0  0  0 15  0  0  0  0  0  0
  -23.9060  -27.8120   25.3440 N   0  0  0  0  0  2  0  0  0  0  0  0
  -24.0630  -27.1820   26.1220 H   0  0  0  0  0  0  0  0  0  0  0  0
  -22.9620  -27.5990   25.0850 H   0  0  0  0  0  0  0  0  0  0  0  0
  -23.7840  -29.4540   26.4980 C   0  0  0  0  0 15  0  0  0  0  0  0
  -25.6340  -29.9840   28.1580 C   0  0  0  0  0 15  0  0  0  0  0  0
  -26.2070  -28.3380   29.4370 O   0  0  0  0  0  0  0  0  0  0  0  0
  -23.8190  -31.4950   32.6080 C   0  0  0  0  0  0  0  0  0  0  0  0
  -25.6820  -27.0940   30.3410 C   0  0  0  0  0  3  0  0  0  0  0  0
  -24.9120  -30.0890   30.9280 C   0  0  0  0  0  3  0  0  0  0  0  0
  -26.8500  -28.5870   31.8530 C   0  0  0  0  0  3  0  0  0  0  0  0
  -24.8020  -29.2540   33.1500 C   0  0  0  0  0  2  0  0  0  0  0  0
  -25.6510  -28.1880   32.4520 C   0  0  0  0  0  3  0  0  0  0  0  0
  -25.0650  -27.1860   31.6850 C   0  0  0  0  0  2  0  0  0  0  0  0
  -26.8410  -26.4440   30.6080 C   0  0  0  0  0  2  0  0  0  0  0  0
  -27.5690  -27.5490   31.1070 C   0  0  0  0  0  2  0  0  0  0  0  0
  -26.5590  -29.9760   31.3110 C   0  0  0  0  0  2  0  0  0  0  0  0
  -24.3580  -30.3030   32.2130 N   0  0  0  0  0  0  0  0  0  0  0  0
  -23.8820  -32.5670   31.9700 O   0  0  0  0  0  0  0  0  0  0  0  0
  -24.0120  -29.0350   29.7410 C   0  0  0  0  0  0  0  0  0  0  0  0
  -24.6720  -27.8100   28.7180 N   0  0  0  0  0  0  0  0  0  0  0  0
  -22.9930  -29.5680   29.4670 O   0  0  0  0  0  0  0  0  0  0  0  0
  -24.0670  -27.0440   28.4860 H   0  0  0  0  0  0  0  0  0  0  0  0
  -28.8450  -28.1780   26.3960 C   0  0  0  0  0  0  0  0  0  0  0  0
  -26.1700  -27.8410   27.4560 C   0  0  0  0  0  2  0  0  0  0  0  0
  -26.3770  -26.4950   26.9910 C   0  0  0  0  0  2  0  0  0  0  0  0
  -27.7970  -26.0500   27.1650 C   0  0  0  0  0  2  0  0  0  0  0  0
  -28.7450  -26.7070   26.1620 C   0  0  0  0  0  2  0  0  0  0  0  0
  -27.7600  -28.7960   27.1490 C   0  0  0  0  0  0  0  0  0  0  0  0
  -28.2520  -30.1810   27.4110 C   0  0  0  0  0  3  0  0  0  0  0  0
  -29.4750  -30.8100   26.9370 C   0  0  0  0  0  3  0  0  0  0  0  0
  -30.3950  -30.1090   26.1410 C   0  0  0  0  0  3  0  0  0  0  0  0
  -30.0620  -28.7710   25.8970 C   0  0  0  0  0  3  0  0  0  0  0  0
  -22.9850  -31.4460   33.8960 C   0  0  0  0  0  3  0  0  0  0  0  0
  -21.6030  -30.7630   33.5850 C   0  0  1  0  0  0  0  0  0  0  0  0
  -20.8410  -31.4360   32.4160 C   0  0  0  0  0  1  0  0  0  0  0  0
  -21.7230  -29.2450   33.2890 C   0  0  0  0  0  1  0  0  0  0  0  0
  -20.7200  -30.8180   34.8370 C   0  0  0  0  0  1  0  0  0  0  0  0
  -22.8070  -32.8180   34.3990 N   0  0  0  0  0  0  0  0  0  0  0  0
  -23.6150  -33.3580   35.3110 C   0  0  0  0  0  0  0  0  0  0  0  0
  -24.5240  -32.7320   35.8620 O   0  0  0  0  0  0  0  0  0  0  0  0
  -22.1140  -33.4200   33.9700 H   0  0  0  0  0  0  0  0  0  0  0  0
  -24.4040  -35.7370   35.0710 C   0  0  0  0  0  1  0  0  0  0  0  0
  -23.3380  -34.8200   35.6920 C   0  0  0  0  0  3  0  0  0  0  0  0
  -22.1120  -34.3990   37.7760 C   0  0  0  0  0  1  0  0  0  0  0  0
  -23.2710  -35.0390   37.1520 N   0  0  0  0  0  0  0  0  0  0  0  0
  -23.2330  -36.0350   37.3550 H   0  0  0  0  0  0  0  0  0  0  0  0
  1  2  1  0
  3  1  1  0
  4  2  1  0
  5  3  1  0
  6  3  2  0
  7 14  2  0
  7 20  1  0
  8 13  1  0
  9  8  1  0
 10  9  1  0
 11 10  1  0
 11 12  1  0
 12 13  1  0
 13  7  1  0
 15 17  1  0
 15 19  1  0
 18 16  1  0
 19 16  1  0
 19  5  1  0
 20 17  1  0
 20 18  1  0
 21 22  2  0
 21 24  1  0
 22 23  1  0
 23 25  2  0
 23 26  1  0
 24 11  1  0
 24 25  1  0
 26 27  1  0
 27 28  2  0
 29 32  1  0
 29 28  1  0
 30 29  2  0
 31 30  1  0
 31 26  2  0
 32 33  1  0
 33 34  1  0
 34 35  2  0
 36 35  1  0
 36 40  1  0
 37 36  2  0
 38 33  2  0
 38 37  1  0
 39 38  1  0
 41 42  1  0
 41 22  1  0
 42 44  1  0
 43 41  2  0
 45 42  1  0
 46 21  1  0
 47 46  1  0
 48 46  1  0
 50 51  1  0
 52 50  1  0
 55 57  1  0
 57 63  1  0
 57 62  1  0
 58 65  1  0
 58 66  1  0
 59 64  1  0
 59 61  1  0
 61 62  1  0
 61 60  1  0
 63 64  1  0
 65 59  1  0
 66 56  1  0
 66 60  1  0
 67 56  2  0
 68 58  1  0
 69 55  1  0
 69 68  1  0
 70 68  2  0
 71 69  1  0
 72 77  1  0
 74 75  1  0
 74 73  1  0
 76 72  1  0
 76 75  1  0
 77 78  2  0
 77 73  1  0
 79 78  1  0
 80 79  2  0
 81 80  1  0
 81 72  2  0
 82 56  1  0
 82 87  1  0
 83 82  1  0
 83 86  1  1
 84 83  1  0
 85 83  1  0
 87 88  1  0
 88 92  1  0
 88 89  2  0
 90 87  1  0
 92 91  1  0
 92 94  1  0
 94 95  1  0
 94 93  1  0
M  ISO  4   7 100  20 100  54 101  55 101
M  END
>  <TORSDO>  (86) 
F 20

>  <SCORE>  (86) 
22.935

>  <name>  (86) 
85

>  <ligand_id>  (86) 
85

>  <original_smiles>  (86) 
[H]C1=C([H])C([H])(C([H])([H])[N+]([H])([H])C([H])([H])C([H])([H])Oc2c([H])c([H])c3c(c2[H])C([H])([H])N(C(=O)C([H])(N([H])C(=O)C([H])(N([H])C([H])([H])[H])C([H])([H])[H])C(C([H])([H])[H])(C([H])([H])[H])C([H])([H])[H])C([H])(C(=O)N([H])C2([H])c4c([H])c([H])c([H])c([H])c4C([H])([H])C([H])([H])C2([H])[H])C3([H])[H])N(C2([H])C([H])([H])C([H])([H])N(C(=O)N3C([H])([H])C([H])([H])C([H])([H])C([H])(n4nc(-c5c([H])c([H])c(Oc6c([H])c([H])c(F)c([H])c6F)c([H])c5[H])c(C(=O)N([H])[H])c4N([H])[H])C3([H])[H])C([H])([H])C2([H])[H])C1=O

>  <smiles>  (86) 
[H]C1=C([H])C([H])(C([H])([H])[N+]([H])([H])C([H])([H])C([H])([H])Oc2c([H])c([H])c3c(c2[H])C([H])([H])N(C(=O)C([H])(N([H])C(=O)C([H])(N([H])C([H])([H])[H])C([H])([H])[H])C(C([H])([H])[H])(C([H])([H])[H])C([H])([H])[H])C([H])(C(=O)N([H])C2([H])c4c([H])c([H])c([H])c([H])c4C([H])([H])C([H])([H])C2([H])[H])C3([H])[H])N(C2([H])C([H])([H])C([H])([H])N(C(=O)N3C([H])([H])C([H])([H])C([H])([H])C([H])(n4nc(-c5c([H])c([H])c(Oc6c([H])c([H])c(F)c([H])c6F)c([H])c5[H])c(C(=O)N([H])[H])c4N([H])[H])C3([H])[H])C([H])([H])C2([H])[H])C1=O

$$$$
86:0:0
     RDKit          3D

 88 98  0  0  1  0  0  0  0  0999 V2000
  -28.6440  -23.4360   21.1930 C   0  0  0  0  0  3  0  0  0  0  0  0
  -28.6780  -23.4830   19.2270 C   0  0  0  0  0  3  0  0  0  0  0  0
  -27.9890  -24.5400   20.2220 C   0  0  0  0  0  3  0  0  0  0  0  0
  -28.5380  -22.2930   20.1820 N   0  0  1  0  0  4  0  0  0  0  0  0
  -27.5860  -21.9620   20.1500 H   0  0  0  0  0  0  0  0  0  0  0  0
  -28.2370  -26.1160   20.2800 O   0  0  0  0  0  0  0  0  0  0  0  0
  -24.6400  -31.9100   23.2470 C   0  0  0  0  0  0  0  0  0  0  0  0
  -27.1910  -27.1330   20.2230 C   0  0  0  0  0  0  0  0  0  0  0  0
  -23.4340  -30.5170   21.6110 C   0  0  0  0  0  3  0  0  0  0  0  0
  -24.8750  -28.9270   20.1850 C   0  0  0  0  0  0  0  0  0  0  0  0
  -25.9920  -30.7580   21.4470 C   0  0  0  0  0  2  0  0  0  0  0  0
  -26.0590  -29.3580   20.7960 C   0  0  0  0  0  0  0  0  0  0  0  0
  -27.2150  -28.4800   20.7930 C   0  0  0  0  0  3  0  0  0  0  0  0
  -25.9810  -26.8230   19.5630 C   0  0  0  0  0  3  0  0  0  0  0  0
  -24.8530  -27.6760   19.5500 C   0  0  0  0  0  3  0  0  0  0  0  0
  -23.6530  -29.8340   20.2350 C   0  0  0  0  0  2  0  0  0  0  0  0
  -24.7090  -31.0860   22.1560 N   0  0  0  0  0  0  0  0  0  0  0  0
  -23.5540  -32.2010   23.7750 O   0  0  0  0  0  0  0  0  0  0  0  0
  -22.7500  -29.5160   22.5770 C   0  0  0  0  0  0  0  0  0  0  0  0
  -21.4210  -29.3500   22.4520 N   0  0  0  0  0  0  0  0  0  0  0  0
  -23.4190  -28.8920   23.4050 O   0  0  0  0  0  0  0  0  0  0  0  0
  -20.9360  -29.9080   21.7620 H   0  0  0  0  0  0  0  0  0  0  0  0
  -18.0400  -28.1440   22.9480 C   0  0  0  0  0  0  0  0  0  0  0  0
  -20.5970  -28.4150   23.2240 C   0  0  0  0  0  3  0  0  0  0  0  0
  -20.7030  -26.9800   22.6580 C   0  0  0  0  0  2  0  0  0  0  0  0
  -19.6060  -26.6480   21.6410 C   0  0  0  0  0  2  0  0  0  0  0  0
  -18.2220  -26.7910   22.2800 C   0  0  0  0  0  2  0  0  0  0  0  0
  -19.1540  -28.9120   23.3780 C   0  0  0  0  0  0  0  0  0  0  0  0
  -18.9260  -30.1760   23.9660 C   0  0  0  0  0  3  0  0  0  0  0  0
  -17.6190  -30.6710   24.1280 C   0  0  0  0  0  3  0  0  0  0  0  0
  -16.5190  -29.8990   23.7130 C   0  0  0  0  0  3  0  0  0  0  0  0
  -16.7300  -28.6380   23.1280 C   0  0  0  0  0  3  0  0  0  0  0  0
  -25.9200  -32.5440   23.8720 C   0  0  0  0  0  3  0  0  0  0  0  0
  -25.6090  -33.9420   24.2120 N   0  0  0  0  0  0  0  0  0  0  0  0
  -25.9210  -35.0020   23.4550 C   0  0  0  0  0  0  0  0  0  0  0  0
  -26.5670  -34.9060   22.4080 O   0  0  0  0  0  0  0  0  0  0  0  0
  -25.0310  -34.0900   25.0270 H   0  0  0  0  0  0  0  0  0  0  0  0
  -24.1690  -36.7890   23.1730 C   0  0  0  0  0  1  0  0  0  0  0  0
  -25.4440  -36.3890   23.9330 C   0  0  0  0  0  3  0  0  0  0  0  0
  -27.6030  -37.2920   24.6830 C   0  0  0  0  0  1  0  0  0  0  0  0
  -26.4640  -37.4490   23.7800 N   0  0  0  0  0  0  0  0  0  0  0  0
  -26.0580  -38.3680   23.9400 H   0  0  0  0  0  0  0  0  0  0  0  0
  -26.4310  -31.7720   25.1500 C   0  0  1  0  0  0  0  0  0  0  0  0
  -25.3360  -31.5390   26.2180 C   0  0  0  0  0  1  0  0  0  0  0  0
  -27.0100  -30.3920   24.7660 C   0  0  0  0  0  1  0  0  0  0  0  0
  -27.5840  -32.5630   25.8130 C   0  0  0  0  0  1  0  0  0  0  0  0
  -29.5360  -21.0180   20.1560 C   0  0  0  0  0  2  0  0  0  0  0  0
  -29.6260  -18.5990   21.4670 C   0  0  0  0  0  2  0  0  0  0  0  0
  -29.1530  -19.3490   20.2490 C   0  0  0  0  0  3  0  0  0  0  0  0
  -30.0700  -17.8810   20.2100 C   0  0  0  0  0  3  0  0  0  0  0  0
  -30.5240  -15.1280   20.0230 C   0  0  0  0  0  0  0  0  0  0  0  0
  -30.4120  -12.7560   19.0730 C   0  0  0  0  0  2  0  0  0  0  0  0
  -29.4270  -12.6650   17.8840 C   0  0  0  0  0  2  0  0  0  0  0  0
  -27.9920  -12.4170   18.3820 C   0  0  0  0  0  2  0  0  0  0  0  0
  -27.6170  -13.3380   19.5700 C   0  0  0  0  0  3  0  0  0  0  0  0
  -28.7190  -13.3910   20.6500 C   0  0  0  0  0  2  0  0  0  0  0  0
  -29.9440  -13.8500   19.9820 N   0  0  0  0  0  0  0  0  0  0  0  0
  -31.7180  -15.1860   19.7070 O   0  0  0  0  0  0  0  0  0  0  0  0
  -29.7440  -16.3260   20.2320 N   0  0  0  0  0  0  0  0  0  0  0  0
  -28.7750  -16.1190   20.4250 H   0  0  0  0  0  0  0  0  0  0  0  0
  -25.2720  -13.8780   20.4340 C   0  0  0  0  0  0  0  0  0  0  0  0
  -24.2330  -13.0860   20.8380 C   0  0  0  0  0  0  0  0  0  0  0  0
  -24.7080  -11.7410   20.7660 C   0  0  0  0  0  0  0  0  0  0  0  0
  -26.3100  -13.0130   20.1300 N   0  0  0  0  0  0  0  0  0  0  0  0
  -25.9840  -11.7220   20.3980 N   0  0  0  0  0  0  0  0  0  0  0  0
  -24.0010  -10.4690   20.9680 C   0  0  0  0  0  0  0  0  0  0  0  0
  -24.4520   -9.5120   21.9040 C   0  0  0  0  0  3  0  0  0  0  0  0
  -23.7430   -8.3070   22.0940 C   0  0  0  0  0  3  0  0  0  0  0  0
  -22.5690   -8.0480   21.3490 C   0  0  0  0  0  0  0  0  0  0  0  0
  -22.1360   -8.9940   20.4020 C   0  0  0  0  0  3  0  0  0  0  0  0
  -22.8460  -10.1910   20.2100 C   0  0  0  0  0  3  0  0  0  0  0  0
  -21.8290   -6.8940   21.4480 O   0  0  0  0  0  0  0  0  0  0  0  0
  -21.7600   -6.1820   22.6190 C   0  0  0  0  0  0  0  0  0  0  0  0
  -21.2920   -6.7630   23.8170 C   0  0  0  0  0  3  0  0  0  0  0  0
  -21.1720   -5.9770   24.9810 C   0  0  0  0  0  3  0  0  0  0  0  0
  -21.5100   -4.6120   24.9460 C   0  0  0  0  0  0  0  0  0  0  0  0
  -21.9720   -4.0290   23.7520 C   0  0  0  0  0  3  0  0  0  0  0  0
  -22.0950   -4.8130   22.5910 C   0  0  0  0  0  0  0  0  0  0  0  0
  -22.5190   -4.2430   21.4380 F   0  0  0  0  0  0  0  0  0  0  0  0
  -21.3870   -3.8530   26.0610 F   0  0  0  0  0  0  0  0  0  0  0  0
  -22.8440  -13.5460   21.1740 C   0  0  0  0  0  0  0  0  0  0  0  0
  -22.1600  -12.8350   22.0620 N   0  0  0  0  0  0  0  0  0  0  0  0
  -22.3770  -14.5730   20.6830 O   0  0  0  0  0  0  0  0  0  0  0  0
  -22.5510  -12.0030   22.4800 H   0  0  0  0  0  0  0  0  0  0  0  0
  -21.2310  -13.1290   22.3310 H   0  0  0  0  0  0  0  0  0  0  0  0
  -25.4140  -15.2530   20.2680 N   0  0  0  0  0  0  0  0  0  0  0  0
  -24.6410  -15.8930   20.4130 H   0  0  0  0  0  0  0  0  0  0  0  0
  -26.2210  -15.7010   19.8530 H   0  0  0  0  0  0  0  0  0  0  0  0
  1  4  1  0
  2  4  1  0
  2  3  1  0
  2  1  1  0
  3  6  1  0
  3  1  1  0
  4  5  1  6
  7 18  2  0
  8  6  1  0
  8 13  1  0
  9 17  1  0
  9 19  1  0
 10 16  1  0
 10 12  1  0
 11 17  1  0
 12 11  1  0
 13 12  2  0
 14  8  2  0
 15 14  1  0
 15 10  2  0
 16  9  1  0
 17  7  1  0
 19 21  2  0
 20 19  1  0
 22 20  1  0
 23 32  2  0
 23 28  1  0
 24 20  1  0
 24 28  1  0
 25 24  1  0
 26 27  1  0
 26 25  1  0
 27 23  1  0
 28 29  2  0
 29 30  1  0
 31 30  2  0
 32 31  1  0
 33  7  1  0
 33 34  1  0
 33 43  1  0
 34 37  1  0
 35 39  1  0
 35 34  1  0
 36 35  2  0
 39 38  1  0
 41 39  1  0
 41 42  1  0
 41 40  1  0
 43 46  1  1
 43 44  1  0
 45 43  1  0
 47  4  1  0
 49 47  1  0
 49 48  1  0
 50 59  1  0
 50 49  1  0
 50 48  1  0
 51 59  1  0
 52 57  1  0
 53 54  1  0
 53 52  1  0
 55 54  1  0
 55 64  1  0
 55 56  1  0
 57 51  1  0
 57 56  1  0
 58 51  2  0
 59 60  1  0
 61 62  2  0
 62 81  1  0
 63 62  1  0
 63 66  1  0
 64 65  1  0
 64 61  1  0
 65 63  2  0
 66 67  1  0
 67 68  2  0
 69 72  1  0
 69 68  1  0
 70 69  2  0
 71 70  1  0
 71 66  2  0
 72 73  1  0
 73 74  1  0
 74 75  2  0
 76 75  1  0
 76 80  1  0
 77 76  2  0
 78 73  2  0
 78 77  1  0
 79 78  1  0
 81 82  1  0
 82 85  1  0
 82 84  1  0
 83 81  2  0
 86 87  1  0
 86 61  1  0
 88 86  1  0
M  ISO  4   3 101   6 101  51 100  59 100
M  END
>  <TORSDO>  (87) 
F 18

>  <SCORE>  (87) 
-14.671

>  <name>  (87) 
86

>  <ligand_id>  (87) 
86

>  <original_smiles>  (87) 
[H]c1c([H])c([H])c2c(c1[H])C([H])([H])C([H])([H])C([H])([H])C2([H])N([H])C(=O)C1([H])N(C(=O)C([H])(N([H])C(=O)C([H])(N([H])C([H])([H])[H])C([H])([H])[H])C(C([H])([H])[H])(C([H])([H])[H])C([H])([H])[H])C([H])([H])c2c([H])c(OC3([H])C([H])([H])[N+]([H])(C([H])([H])C4([H])C([H])([H])C4([H])N([H])C(=O)N4C([H])([H])C([H])([H])C([H])([H])C([H])(n5nc(-c6c([H])c([H])c(Oc7c([H])c([H])c(F)c([H])c7F)c([H])c6[H])c(C(=O)N([H])[H])c5N([H])[H])C4([H])[H])C3([H])[H])c([H])c([H])c2C1([H])[H]

>  <smiles>  (87) 
[H]c1c([H])c([H])c2c(c1[H])C([H])([H])C([H])([H])C([H])([H])C2([H])N([H])C(=O)C1([H])N(C(=O)C([H])(N([H])C(=O)C([H])(N([H])C([H])([H])[H])C([H])([H])[H])C(C([H])([H])[H])(C([H])([H])[H])C([H])([H])[H])C([H])([H])c2c([H])c(OC3([H])C([H])([H])[N+]([H])(C([H])([H])C4([H])C([H])([H])C4([H])N([H])C(=O)N4C([H])([H])C([H])([H])C([H])([H])C([H])(n5nc(-c6c([H])c([H])c(Oc7c([H])c([H])c(F)c([H])c7F)c([H])c6[H])c(C(=O)N([H])[H])c5N([H])[H])C4([H])[H])C3([H])[H])c([H])c([H])c2C1([H])[H]

$$$$
87:0:0
     RDKit          3D

 93101  0  0  1  0  0  0  0  0999 V2000
  -28.7560  -18.9270   20.6940 C   0  0  0  0  0  2  0  0  0  0  0  0
  -30.7720  -20.0720   20.1100 C   0  0  0  0  0  2  0  0  0  0  0  0
  -29.9240  -17.7590   20.7040 C   0  0  0  0  0  3  0  0  0  0  0  0
  -29.2460  -20.3980   20.1150 C   0  0  0  0  0  3  0  0  0  0  0  0
  -30.9430  -18.5130   19.8160 C   0  0  0  0  0  3  0  0  0  0  0  0
  -30.5010  -15.0330   20.3230 C   0  0  0  0  0  0  0  0  0  0  0  0
  -30.4170  -12.6900   19.3360 C   0  0  0  0  0  2  0  0  0  0  0  0
  -29.4700  -12.6380   18.1130 C   0  0  0  0  0  2  0  0  0  0  0  0
  -28.0100  -12.4120   18.5550 C   0  0  0  0  0  2  0  0  0  0  0  0
  -27.6050  -13.3220   19.7430 C   0  0  0  0  0  3  0  0  0  0  0  0
  -28.6680  -13.3260   20.8610 C   0  0  0  0  0  2  0  0  0  0  0  0
  -29.9270  -13.7640   20.2470 N   0  0  0  0  0  0  0  0  0  0  0  0
  -31.7050  -15.1430   20.0570 O   0  0  0  0  0  0  0  0  0  0  0  0
  -29.6890  -16.1950   20.4900 N   0  0  0  0  0  0  0  0  0  0  0  0
  -28.7180  -15.9410   20.5880 H   0  0  0  0  0  0  0  0  0  0  0  0
  -25.2230  -13.8850   20.4920 C   0  0  0  0  0  0  0  0  0  0  0  0
  -24.1660  -13.1020   20.8640 C   0  0  0  0  0  0  0  0  0  0  0  0
  -24.6400  -11.7550   20.8320 C   0  0  0  0  0  0  0  0  0  0  0  0
  -26.2720  -13.0140   20.2470 N   0  0  0  0  0  0  0  0  0  0  0  0
  -25.9300  -11.7270   20.5180 N   0  0  0  0  0  0  0  0  0  0  0  0
  -23.9220  -10.4880   21.0210 C   0  0  0  0  0  0  0  0  0  0  0  0
  -24.3500   -9.5300   21.9660 C   0  0  0  0  0  3  0  0  0  0  0  0
  -23.6300   -8.3280   22.1430 C   0  0  0  0  0  3  0  0  0  0  0  0
  -22.4680   -8.0760   21.3770 C   0  0  0  0  0  0  0  0  0  0  0  0
  -22.0590   -9.0240   20.4210 C   0  0  0  0  0  3  0  0  0  0  0  0
  -22.7800  -10.2160   20.2420 C   0  0  0  0  0  3  0  0  0  0  0  0
  -21.7200   -6.9270   21.4630 O   0  0  0  0  0  0  0  0  0  0  0  0
  -21.6510   -6.1990   22.6230 C   0  0  0  0  0  0  0  0  0  0  0  0
  -21.1760   -6.7610   23.8290 C   0  0  0  0  0  3  0  0  0  0  0  0
  -21.0570   -5.9580   24.9810 C   0  0  0  0  0  3  0  0  0  0  0  0
  -21.4010   -4.5950   24.9290 C   0  0  0  0  0  0  0  0  0  0  0  0
  -21.8690   -4.0320   23.7280 C   0  0  0  0  0  3  0  0  0  0  0  0
  -21.9910   -4.8320   22.5780 C   0  0  0  0  0  0  0  0  0  0  0  0
  -22.4210   -4.2790   21.4180 F   0  0  0  0  0  0  0  0  0  0  0  0
  -21.2800   -3.8210   26.0330 F   0  0  0  0  0  0  0  0  0  0  0  0
  -22.7660  -13.5700   21.1350 C   0  0  0  0  0  0  0  0  0  0  0  0
  -22.0410  -12.8660   21.9960 N   0  0  0  0  0  0  0  0  0  0  0  0
  -22.3250  -14.5970   20.6200 O   0  0  0  0  0  0  0  0  0  0  0  0
  -22.4110  -12.0360   22.4350 H   0  0  0  0  0  0  0  0  0  0  0  0
  -21.1010  -13.1610   22.2200 H   0  0  0  0  0  0  0  0  0  0  0  0
  -25.3750  -15.2570   20.3120 N   0  0  0  0  0  0  0  0  0  0  0  0
  -24.5920  -15.8940   20.4130 H   0  0  0  0  0  0  0  0  0  0  0  0
  -26.1960  -15.7010   19.9250 H   0  0  0  0  0  0  0  0  0  0  0  0
  -32.3100  -17.9930   20.0050 N   0  0  0  0  0  4  0  0  0  0  0  0
  -32.6610  -18.1970   20.9230 H   0  0  0  0  0  0  0  0  0  0  0  0
  -32.9400  -18.3830   19.3270 H   0  0  0  0  0  0  0  0  0  0  0  0
  -32.3000  -16.9860   19.8930 H   0  0  0  0  0  0  0  0  0  0  0  0
  -28.7200  -21.7980   20.7050 N   0  0  0  0  0  4  0  0  0  0  0  0
  -28.9900  -21.8330   21.6750 H   0  0  0  0  0  0  0  0  0  0  0  0
  -27.7160  -21.6910   20.7170 H   0  0  0  0  0  0  0  0  0  0  0  0
  -28.9510  -23.2700   20.1100 C   0  0  0  0  0  3  0  0  0  0  0  0
  -28.0470  -24.6420   20.5780 C   0  0  0  0  0  3  0  0  0  0  0  0
  -28.2860  -26.1740   20.2880 O   0  0  0  0  0  0  0  0  0  0  0  0
  -24.6090  -31.9020   23.2250 C   0  0  0  0  0  0  0  0  0  0  0  0
  -27.2220  -27.1560   20.2520 C   0  0  0  0  0  0  0  0  0  0  0  0
  -23.4260  -30.4920   21.5860 C   0  0  0  0  0  3  0  0  0  0  0  0
  -24.8890  -28.9090   20.1850 C   0  0  0  0  0  0  0  0  0  0  0  0
  -25.9810  -30.7600   21.4370 C   0  0  0  0  0  2  0  0  0  0  0  0
  -26.0650  -29.3610   20.7980 C   0  0  0  0  0  0  0  0  0  0  0  0
  -27.2320  -28.5030   20.8100 C   0  0  0  0  0  3  0  0  0  0  0  0
  -26.0200  -26.8130   19.5950 C   0  0  0  0  0  3  0  0  0  0  0  0
  -24.8820  -27.6490   19.5660 C   0  0  0  0  0  3  0  0  0  0  0  0
  -23.6600  -29.8040   20.2140 C   0  0  0  0  0  2  0  0  0  0  0  0
  -24.6920  -31.0740   22.1380 N   0  0  0  0  0  0  0  0  0  0  0  0
  -23.5190  -32.1860   23.7430 O   0  0  0  0  0  0  0  0  0  0  0  0
  -22.7430  -29.4890   22.5510 C   0  0  0  0  0  0  0  0  0  0  0  0
  -21.4150  -29.3210   22.4230 N   0  0  0  0  0  0  0  0  0  0  0  0
  -23.4110  -28.8650   23.3780 O   0  0  0  0  0  0  0  0  0  0  0  0
  -20.9310  -29.8750   21.7300 H   0  0  0  0  0  0  0  0  0  0  0  0
  -18.0270  -28.1450   22.9400 C   0  0  0  0  0  0  0  0  0  0  0  0
  -20.5890  -28.3880   23.1960 C   0  0  0  0  0  3  0  0  0  0  0  0
  -20.6770  -26.9560   22.6170 C   0  0  0  0  0  2  0  0  0  0  0  0
  -19.5680  -26.6440   21.6070 C   0  0  0  0  0  2  0  0  0  0  0  0
  -18.1900  -26.7960   22.2590 C   0  0  0  0  0  2  0  0  0  0  0  0
  -19.1530  -28.8980   23.3660 C   0  0  0  0  0  0  0  0  0  0  0  0
  -18.9440  -30.1590   23.9650 C   0  0  0  0  0  3  0  0  0  0  0  0
  -17.6420  -30.6670   24.1420 C   0  0  0  0  0  3  0  0  0  0  0  0
  -16.5320  -29.9100   23.7320 C   0  0  0  0  0  3  0  0  0  0  0  0
  -16.7250  -28.6510   23.1350 C   0  0  0  0  0  3  0  0  0  0  0  0
  -25.8810  -32.5470   23.8560 C   0  0  0  0  0  3  0  0  0  0  0  0
  -26.3830  -31.7900   25.1480 C   0  0  1  0  0  0  0  0  0  0  0  0
  -25.2770  -31.5640   26.2050 C   0  0  0  0  0  1  0  0  0  0  0  0
  -26.9730  -30.4080   24.7830 C   0  0  0  0  0  1  0  0  0  0  0  0
  -27.5230  -32.5940   25.8150 C   0  0  0  0  0  1  0  0  0  0  0  0
  -25.5620  -33.9470   24.1740 N   0  0  0  0  0  0  0  0  0  0  0  0
  -25.9000  -35.0000   23.4180 C   0  0  0  0  0  0  0  0  0  0  0  0
  -26.5790  -34.8950   22.3930 O   0  0  0  0  0  0  0  0  0  0  0  0
  -24.9590  -34.1030   24.9680 H   0  0  0  0  0  0  0  0  0  0  0  0
  -24.1790  -36.7990   23.0430 C   0  0  0  0  0  1  0  0  0  0  0  0
  -25.4090  -36.3900   23.8690 C   0  0  0  0  0  3  0  0  0  0  0  0
  -27.5310  -37.2770   24.7320 C   0  0  0  0  0  1  0  0  0  0  0  0
  -26.4440  -37.4420   23.7710 N   0  0  0  0  0  0  0  0  0  0  0  0
  -26.0360  -38.3630   23.9090 H   0  0  0  0  0  0  0  0  0  0  0  0
  1  3  1  0
  2  4  1  0
  3 14  1  0
  4  1  1  0
  4 48  1  0
  5 44  1  0
  5  2  1  0
  5  3  1  0
  6 14  1  0
  7 12  1  0
  8  9  1  0
  8  7  1  0
 10  9  1  0
 10 19  1  0
 10 11  1  0
 12  6  1  0
 12 11  1  0
 13  6  2  0
 14 15  1  0
 16 17  2  0
 17 36  1  0
 18 17  1  0
 18 21  1  0
 19 16  1  0
 19 20  1  0
 20 18  2  0
 21 22  1  0
 22 23  2  0
 24 27  1  0
 24 23  1  0
 25 24  2  0
 26 25  1  0
 26 21  2  0
 27 28  1  0
 28 29  1  0
 29 30  2  0
 31 30  1  0
 31 35  1  0
 32 31  2  0
 33 28  2  0
 33 32  1  0
 34 33  1  0
 36 37  1  0
 37 40  1  0
 37 39  1  0
 38 36  2  0
 41 42  1  0
 41 16  1  0
 43 41  1  0
 44 45  1  0
 46 44  1  0
 47 44  1  0
 48 50  1  0
 48 49  1  0
 51 52  2  0
 51 48  1  0
 53 52  1  0
 54 65  2  0
 55 53  1  0
 55 60  1  0
 56 64  1  0
 56 66  1  0
 57 63  1  0
 57 59  1  0
 58 64  1  0
 59 60  2  0
 59 58  1  0
 61 55  2  0
 62 61  1  0
 62 57  2  0
 63 56  1  0
 64 54  1  0
 66 68  2  0
 67 66  1  0
 69 67  1  0
 70 79  2  0
 70 75  1  0
 71 67  1  0
 71 75  1  0
 72 71  1  0
 73 74  1  0
 73 72  1  0
 74 70  1  0
 75 76  2  0
 76 77  1  0
 78 77  2  0
 79 78  1  0
 80 54  1  0
 80 85  1  0
 80 81  1  0
 81 84  1  1
 81 82  1  0
 83 81  1  0
 85 88  1  0
 86 90  1  0
 86 85  1  0
 87 86  2  0
 90 89  1  0
 92 90  1  0
 92 93  1  0
 92 91  1  0
M  ISO  4   6 100  14 100  52 101  53 101
M  END
>  <TORSDO>  (88) 
F 20

>  <SCORE>  (88) 
-14.734

>  <name>  (88) 
87

>  <ligand_id>  (88) 
87

>  <original_smiles>  (88) 
[H]c1c([H])c([H])c2c(c1[H])C([H])([H])C([H])([H])C([H])([H])C2([H])N([H])C(=O)C1([H])N(C(=O)C([H])(N([H])C(=O)C([H])(N([H])C([H])([H])[H])C([H])([H])[H])C(C([H])([H])[H])(C([H])([H])[H])C([H])([H])[H])C([H])([H])c2c([H])c(OC([H])([H])C([H])([H])[N+]([H])([H])C3([H])C([H])([H])C([H])(N([H])C(=O)N4C([H])([H])C([H])([H])C([H])([H])C([H])(n5nc(-c6c([H])c([H])c(Oc7c([H])c([H])c(F)c([H])c7F)c([H])c6[H])c(C(=O)N([H])[H])c5N([H])[H])C4([H])[H])C([H])([N+]([H])([H])[H])C3([H])[H])c([H])c([H])c2C1([H])[H]

>  <smiles>  (88) 
[H]c1c([H])c([H])c2c(c1[H])C([H])([H])C([H])([H])C([H])([H])C2([H])N([H])C(=O)C1([H])N(C(=O)C([H])(N([H])C(=O)C([H])(N([H])C([H])([H])[H])C([H])([H])[H])C(C([H])([H])[H])(C([H])([H])[H])C([H])([H])[H])C([H])([H])c2c([H])c(OC([H])([H])C([H])([H])[N+]([H])([H])C3([H])C([H])([H])C([H])(N([H])C(=O)N4C([H])([H])C([H])([H])C([H])([H])C([H])(n5nc(-c6c([H])c([H])c(Oc7c([H])c([H])c(F)c([H])c7F)c([H])c6[H])c(C(=O)N([H])[H])c5N([H])[H])C4([H])[H])C([H])([N+]([H])([H])[H])C3([H])[H])c([H])c([H])c2C1([H])[H]

$$$$
88:0:0
     RDKit          3D

 88 96  0  0  1  0  0  0  0  0999 V2000
  -28.9290  -23.1270   20.0710 C   0  0  0  0  0  0  0  0  0  0  0  0
  -27.7410  -21.5110   21.5560 C   0  0  0  0  0  1  0  0  0  0  0  0
  -28.7000  -21.7220   20.4670 N   0  0  0  0  0  0  0  0  0  0  0  0
  -29.9740  -23.3490   19.4520 O   0  0  0  0  0  0  0  0  0  0  0  0
  -30.6710  -15.3750   20.0250 C   0  0  0  0  0  0  0  0  0  0  0  0
  -30.5270  -12.9780   19.1060 C   0  0  0  0  0  2  0  0  0  0  0  0
  -29.5660  -12.8370   17.9040 C   0  0  0  0  0  2  0  0  0  0  0  0
  -28.1240  -12.5940   18.3780 C   0  0  0  0  0  2  0  0  0  0  0  0
  -27.7330  -13.5140   19.5630 C   0  0  0  0  0  3  0  0  0  0  0  0
  -28.8250  -13.6280   20.6440 C   0  0  0  0  0  2  0  0  0  0  0  0
  -30.0370  -14.1090   19.9690 N   0  0  0  0  0  0  0  0  0  0  0  0
  -31.8830  -15.3200   19.7800 O   0  0  0  0  0  0  0  0  0  0  0  0
  -28.4440  -18.9570   19.6730 C   0  0  0  0  0  2  0  0  0  0  0  0
  -30.2130  -19.3760   21.1240 C   0  0  0  0  0  2  0  0  0  0  0  0
  -29.0500  -17.4360   19.3510 C   0  0  0  0  0  2  0  0  0  0  0  0
  -30.8700  -17.9210   20.6850 C   0  0  0  0  0  2  0  0  0  0  0  0
  -29.3570  -20.2460   20.0780 C   0  0  0  0  0  3  0  0  0  0  0  0
  -30.0460  -16.6990   20.2500 N   0  0  0  0  0  0  0  0  0  0  0  0
  -25.3990  -14.0330   20.4450 C   0  0  0  0  0  0  0  0  0  0  0  0
  -24.3590  -13.2360   20.8370 C   0  0  0  0  0  0  0  0  0  0  0  0
  -24.8350  -11.8930   20.7460 C   0  0  0  0  0  0  0  0  0  0  0  0
  -26.4330  -13.1740   20.1230 N   0  0  0  0  0  0  0  0  0  0  0  0
  -26.1090  -11.8780   20.3740 N   0  0  0  0  0  0  0  0  0  0  0  0
  -24.1240  -10.6210   20.9350 C   0  0  0  0  0  0  0  0  0  0  0  0
  -24.5410   -9.6730   21.8940 C   0  0  0  0  0  3  0  0  0  0  0  0
  -23.8280   -8.4680   22.0700 C   0  0  0  0  0  3  0  0  0  0  0  0
  -22.6800   -8.2000   21.2830 C   0  0  0  0  0  0  0  0  0  0  0  0
  -22.2830   -9.1390   20.3140 C   0  0  0  0  0  3  0  0  0  0  0  0
  -22.9980  -10.3350   20.1380 C   0  0  0  0  0  3  0  0  0  0  0  0
  -21.9370   -7.0470   21.3660 O   0  0  0  0  0  0  0  0  0  0  0  0
  -21.7820   -6.3740   22.5510 C   0  0  0  0  0  0  0  0  0  0  0  0
  -21.1810   -6.9780   23.6780 C   0  0  0  0  0  3  0  0  0  0  0  0
  -20.9760   -6.2270   24.8530 C   0  0  0  0  0  3  0  0  0  0  0  0
  -21.3660   -4.8740   24.9020 C   0  0  0  0  0  0  0  0  0  0  0  0
  -21.9610   -4.2720   23.7790 C   0  0  0  0  0  3  0  0  0  0  0  0
  -22.1670   -5.0190   22.6080 C   0  0  0  0  0  0  0  0  0  0  0  0
  -22.7190   -4.4290   21.5220 F   0  0  0  0  0  0  0  0  0  0  0  0
  -21.1650   -4.1490   26.0280 F   0  0  0  0  0  0  0  0  0  0  0  0
  -22.9710  -13.6940   21.1760 C   0  0  0  0  0  0  0  0  0  0  0  0
  -22.2860  -12.9800   22.0600 N   0  0  0  0  0  0  0  0  0  0  0  0
  -22.5050  -14.7230   20.6890 O   0  0  0  0  0  0  0  0  0  0  0  0
  -22.6820  -12.1520   22.4820 H   0  0  0  0  0  0  0  0  0  0  0  0
  -21.3540  -13.2690   22.3210 H   0  0  0  0  0  0  0  0  0  0  0  0
  -25.5430  -15.4110   20.3120 N   0  0  0  0  0  0  0  0  0  0  0  0
  -24.7860  -16.0460   20.5340 H   0  0  0  0  0  0  0  0  0  0  0  0
  -26.3830  -15.8830   20.0010 H   0  0  0  0  0  0  0  0  0  0  0  0
  -27.8950  -24.5100   20.2350 C   0  0  0  0  0  2  0  0  0  0  0  0
  -28.2630  -26.1000   20.1980 O   0  0  0  0  0  0  0  0  0  0  0  0
  -24.6880  -31.9490   23.2940 C   0  0  0  0  0  0  0  0  0  0  0  0
  -27.2500  -27.1830   20.1740 C   0  0  0  0  0  0  0  0  0  0  0  0
  -23.4880  -30.5740   21.6420 C   0  0  0  0  0  3  0  0  0  0  0  0
  -24.9350  -29.0160   20.1850 C   0  0  0  0  0  0  0  0  0  0  0  0
  -26.0490  -30.8310   21.4670 C   0  0  0  0  0  2  0  0  0  0  0  0
  -26.1280  -29.4360   20.7830 C   0  0  0  0  0  0  0  0  0  0  0  0
  -27.2880  -28.5430   20.7470 C   0  0  0  0  0  3  0  0  0  0  0  0
  -26.0190  -26.9020   19.5450 C   0  0  0  0  0  3  0  0  0  0  0  0
  -24.8990  -27.7670   19.5480 C   0  0  0  0  0  3  0  0  0  0  0  0
  -23.7090  -29.9230   20.2520 C   0  0  0  0  0  2  0  0  0  0  0  0
  -24.7630  -31.1420   22.1880 N   0  0  0  0  0  0  0  0  0  0  0  0
  -23.6030  -32.2150   23.8360 O   0  0  0  0  0  0  0  0  0  0  0  0
  -22.8140  -29.5500   22.5950 C   0  0  0  0  0  0  0  0  0  0  0  0
  -21.4900  -29.3530   22.4630 N   0  0  0  0  0  0  0  0  0  0  0  0
  -23.4920  -28.9340   23.4210 O   0  0  0  0  0  0  0  0  0  0  0  0
  -20.9950  -29.9060   21.7770 H   0  0  0  0  0  0  0  0  0  0  0  0
  -18.1330  -28.0630   22.9430 C   0  0  0  0  0  0  0  0  0  0  0  0
  -20.6840  -28.3940   23.2270 C   0  0  0  0  0  3  0  0  0  0  0  0
  -20.8230  -26.9660   22.6480 C   0  0  0  0  0  2  0  0  0  0  0  0
  -19.7360  -26.6170   21.6250 C   0  0  0  0  0  2  0  0  0  0  0  0
  -18.3480  -26.7230   22.2610 C   0  0  0  0  0  2  0  0  0  0  0  0
  -19.2280  -28.8550   23.3820 C   0  0  0  0  0  0  0  0  0  0  0  0
  -18.9700  -30.1040   23.9840 C   0  0  0  0  0  3  0  0  0  0  0  0
  -17.6510  -30.5670   24.1480 C   0  0  0  0  0  3  0  0  0  0  0  0
  -16.5700  -29.7740   23.7220 C   0  0  0  0  0  3  0  0  0  0  0  0
  -16.8120  -28.5250   23.1260 C   0  0  0  0  0  3  0  0  0  0  0  0
  -25.9630  -32.5890   23.9210 C   0  0  0  0  0  3  0  0  0  0  0  0
  -25.6470  -33.9900   24.2510 N   0  0  0  0  0  0  0  0  0  0  0  0
  -25.9300  -35.0430   23.4740 C   0  0  0  0  0  0  0  0  0  0  0  0
  -26.5470  -34.9400   22.4110 O   0  0  0  0  0  0  0  0  0  0  0  0
  -25.0870  -34.1410   25.0780 H   0  0  0  0  0  0  0  0  0  0  0  0
  -24.1490  -36.8090   23.2330 C   0  0  0  0  0  1  0  0  0  0  0  0
  -25.4560  -36.4310   23.9490 C   0  0  0  0  0  3  0  0  0  0  0  0
  -27.6240  -37.3780   24.6100 C   0  0  0  0  0  1  0  0  0  0  0  0
  -26.4560  -37.5020   23.7420 N   0  0  0  0  0  0  0  0  0  0  0  0
  -26.0400  -38.4160   23.8950 H   0  0  0  0  0  0  0  0  0  0  0  0
  -26.4650  -31.8280   25.2100 C   0  0  1  0  0  0  0  0  0  0  0  0
  -25.3630  -31.6030   26.2740 C   0  0  0  0  0  1  0  0  0  0  0  0
  -27.0470  -30.4440   24.8440 C   0  0  0  0  0  1  0  0  0  0  0  0
  -27.6090  -32.6270   25.8770 C   0  0  0  0  0  1  0  0  0  0  0  0
  1 47  1  0
  1  3  1  0
  3  2  1  0
  4  1  2  0
  5 18  1  0
  6 11  1  0
  7  8  1  0
  7  6  1  0
  9  8  1  0
  9 22  1  0
  9 10  1  0
 11  5  1  0
 11 10  1  0
 12  5  2  0
 13 17  1  0
 15 13  1  0
 15 18  1  0
 16 14  1  0
 17  3  1  0
 17 14  1  0
 18 16  1  0
 19 20  2  0
 20 39  1  0
 21 20  1  0
 21 24  1  0
 22 23  1  0
 22 19  1  0
 23 21  2  0
 24 25  1  0
 25 26  2  0
 27 30  1  0
 27 26  1  0
 28 27  2  0
 29 28  1  0
 29 24  2  0
 30 31  1  0
 31 36  2  0
 31 32  1  0
 32 33  2  0
 33 34  1  0
 34 38  1  0
 35 34  2  0
 36 35  1  0
 37 36  1  0
 39 40  1  0
 40 43  1  0
 40 42  1  0
 41 39  2  0
 44 19  1  0
 44 45  1  0
 46 44  1  0
 48 47  1  0
 49 60  2  0
 50 48  1  0
 50 55  1  0
 51 59  1  0
 51 61  1  0
 52 58  1  0
 52 54  1  0
 53 59  1  0
 54 53  1  0
 55 54  2  0
 56 57  1  0
 56 50  2  0
 57 52  2  0
 58 51  1  0
 59 49  1  0
 61 63  2  0
 62 61  1  0
 64 62  1  0
 65 74  2  0
 65 70  1  0
 66 62  1  0
 66 70  1  0
 67 66  1  0
 68 69  1  0
 68 67  1  0
 69 65  1  0
 70 71  2  0
 71 72  1  0
 73 72  2  0
 74 73  1  0
 75 49  1  0
 75 76  1  0
 75 85  1  0
 76 79  1  0
 77 81  1  0
 77 76  1  0
 78 77  2  0
 81 80  1  0
 83 84  1  0
 83 81  1  0
 83 82  1  0
 85 88  1  1
 85 86  1  0
 87 85  1  0
M  ISO  4   5 100  18 100  47 101  48 101
M  END
>  <TORSDO>  (89) 
F 17

>  <SCORE>  (89) 
-15.183

>  <name>  (89) 
88

>  <ligand_id>  (89) 
88

>  <original_smiles>  (89) 
[H]c1c([H])c([H])c2c(c1[H])C([H])([H])C([H])([H])C([H])([H])C2([H])N([H])C(=O)C1([H])N(C(=O)C([H])(N([H])C(=O)C([H])(N([H])C([H])([H])[H])C([H])([H])[H])C(C([H])([H])[H])(C([H])([H])[H])C([H])([H])[H])C([H])([H])c2c([H])c(OC([H])([H])C(=O)N(C([H])([H])[H])C3([H])C([H])([H])C([H])([H])N(C(=O)N4C([H])([H])C([H])([H])C([H])([H])C([H])(n5nc(-c6c([H])c([H])c(Oc7c([H])c([H])c(F)c([H])c7F)c([H])c6[H])c(C(=O)N([H])[H])c5N([H])[H])C4([H])[H])C([H])([H])C3([H])[H])c([H])c([H])c2C1([H])[H]

>  <smiles>  (89) 
[H]c1c([H])c([H])c2c(c1[H])C([H])([H])C([H])([H])C([H])([H])C2([H])N([H])C(=O)C1([H])N(C(=O)C([H])(N([H])C(=O)C([H])(N([H])C([H])([H])[H])C([H])([H])[H])C(C([H])([H])[H])(C([H])([H])[H])C([H])([H])[H])C([H])([H])c2c([H])c(OC([H])([H])C(=O)N(C([H])([H])[H])C3([H])C([H])([H])C([H])([H])N(C(=O)N4C([H])([H])C([H])([H])C([H])([H])C([H])(n5nc(-c6c([H])c([H])c(Oc7c([H])c([H])c(F)c([H])c7F)c([H])c6[H])c(C(=O)N([H])[H])c5N([H])[H])C4([H])[H])C([H])([H])C3([H])[H])c([H])c([H])c2C1([H])[H]

$$$$
89:0:0
     RDKit          3D

 92101  0  0  1  0  0  0  0  0999 V2000
  -28.2300  -23.7780   19.1840 C   0  0  0  0  0  3  0  0  0  0  0  0
  -28.2530  -24.7250   20.2800 C   0  0  0  0  0  0  0  0  0  0  0  0
  -28.8020  -21.8890   20.5260 C   0  0  0  0  0  0  0  0  0  0  0  0
  -27.9970  -24.2550   17.7670 C   0  0  0  0  0  1  0  0  0  0  0  0
  -28.4780  -22.4020   19.3130 N   0  0  0  0  0  0  0  0  0  0  0  0
  -28.5940  -24.1060   21.4660 N   0  0  0  0  0  0  0  0  0  0  0  0
  -28.8460  -22.7490   21.5850 N   0  0  0  0  0  2  0  0  0  0  0  0
  -29.1590  -20.4640   20.7750 N   0  0  0  0  0  0  0  0  0  0  0  0
  -29.3670  -20.3380   21.7590 H   0  0  0  0  0  0  0  0  0  0  0  0
  -29.9910  -19.2630   18.7420 C   0  0  0  0  0  2  0  0  0  0  0  0
  -30.6140  -17.8760   18.8970 C   0  0  0  0  0  2  0  0  0  0  0  0
  -29.1640  -19.0930   20.0230 C   0  0  0  0  0  3  0  0  0  0  0  0
  -30.1470  -17.7400   20.3580 C   0  0  0  0  0  3  0  0  0  0  0  0
  -30.4960  -15.0050   20.4370 C   0  0  0  0  0  0  0  0  0  0  0  0
  -30.3920  -12.6420   19.5110 C   0  0  0  0  0  2  0  0  0  0  0  0
  -29.4850  -12.5810   18.2610 C   0  0  0  0  0  2  0  0  0  0  0  0
  -28.0160  -12.3680   18.6690 C   0  0  0  0  0  2  0  0  0  0  0  0
  -27.5850  -13.3060   19.8270 C   0  0  0  0  0  3  0  0  0  0  0  0
  -28.6150  -13.3370   20.9740 C   0  0  0  0  0  2  0  0  0  0  0  0
  -29.8930  -13.7470   20.3830 N   0  0  0  0  0  0  0  0  0  0  0  0
  -31.7090  -15.0440   20.2010 O   0  0  0  0  0  0  0  0  0  0  0  0
  -29.7340  -16.2130   20.5320 N   0  0  0  0  0  0  0  0  0  0  0  0
  -28.7480  -16.0600   20.6860 H   0  0  0  0  0  0  0  0  0  0  0  0
  -25.1920  -13.8830   20.5160 C   0  0  0  0  0  0  0  0  0  0  0  0
  -24.1230  -13.1080   20.8710 C   0  0  0  0  0  0  0  0  0  0  0  0
  -24.5920  -11.7570   20.8620 C   0  0  0  0  0  0  0  0  0  0  0  0
  -26.2410  -13.0050   20.3040 N   0  0  0  0  0  0  0  0  0  0  0  0
  -25.8890  -11.7230   20.5810 N   0  0  0  0  0  0  0  0  0  0  0  0
  -23.8640  -10.4960   21.0480 C   0  0  0  0  0  0  0  0  0  0  0  0
  -24.2800   -9.5340   21.9960 C   0  0  0  0  0  3  0  0  0  0  0  0
  -23.5520   -8.3380   22.1700 C   0  0  0  0  0  3  0  0  0  0  0  0
  -22.3930   -8.0940   21.3940 C   0  0  0  0  0  0  0  0  0  0  0  0
  -21.9960   -9.0430   20.4370 C   0  0  0  0  0  3  0  0  0  0  0  0
  -22.7250  -10.2320   20.2610 C   0  0  0  0  0  3  0  0  0  0  0  0
  -21.6390   -6.9480   21.4760 O   0  0  0  0  0  0  0  0  0  0  0  0
  -21.5720   -6.2110   22.6310 C   0  0  0  0  0  0  0  0  0  0  0  0
  -21.1230   -6.7720   23.8470 C   0  0  0  0  0  3  0  0  0  0  0  0
  -21.0030   -5.9610   24.9940 C   0  0  0  0  0  3  0  0  0  0  0  0
  -21.3230   -4.5920   24.9250 C   0  0  0  0  0  0  0  0  0  0  0  0
  -21.7640   -4.0310   23.7130 C   0  0  0  0  0  3  0  0  0  0  0  0
  -21.8850   -4.8390   22.5690 C   0  0  0  0  0  0  0  0  0  0  0  0
  -22.2910   -4.2890   21.3990 F   0  0  0  0  0  0  0  0  0  0  0  0
  -21.2010   -3.8110   26.0240 F   0  0  0  0  0  0  0  0  0  0  0  0
  -22.7190  -13.5840   21.1020 C   0  0  0  0  0  0  0  0  0  0  0  0
  -21.9750  -12.8970   21.9610 N   0  0  0  0  0  0  0  0  0  0  0  0
  -22.2920  -14.6010   20.5590 O   0  0  0  0  0  0  0  0  0  0  0  0
  -22.3340  -12.0720   22.4210 H   0  0  0  0  0  0  0  0  0  0  0  0
  -21.0310  -13.1980   22.1610 H   0  0  0  0  0  0  0  0  0  0  0  0
  -25.3510  -15.2520   20.3270 N   0  0  0  0  0  0  0  0  0  0  0  0
  -24.5690  -15.8930   20.4030 H   0  0  0  0  0  0  0  0  0  0  0  0
  -26.1890  -15.6960   19.9740 H   0  0  0  0  0  0  0  0  0  0  0  0
  -28.2620  -26.2050   20.2200 O   0  0  0  0  0  0  0  0  0  0  0  0
  -24.5920  -31.8720   23.2290 C   0  0  0  0  0  0  0  0  0  0  0  0
  -27.1610  -27.1390   20.2080 C   0  0  0  0  0  0  0  0  0  0  0  0
  -23.3860  -30.4660   21.6010 C   0  0  0  0  0  3  0  0  0  0  0  0
  -24.8280  -28.8790   20.1780 C   0  0  0  0  0  0  0  0  0  0  0  0
  -25.9370  -30.7330   21.4220 C   0  0  0  0  0  2  0  0  0  0  0  0
  -26.0080  -29.3330   20.7800 C   0  0  0  0  0  0  0  0  0  0  0  0
  -27.1730  -28.4770   20.7780 C   0  0  0  0  0  3  0  0  0  0  0  0
  -25.9540  -26.7810   19.5740 C   0  0  0  0  0  3  0  0  0  0  0  0
  -24.8130  -27.6160   19.5620 C   0  0  0  0  0  3  0  0  0  0  0  0
  -23.6010  -29.7790   20.2250 C   0  0  0  0  0  2  0  0  0  0  0  0
  -24.6590  -31.0460   22.1400 N   0  0  0  0  0  0  0  0  0  0  0  0
  -23.5080  -32.1600   23.7610 O   0  0  0  0  0  0  0  0  0  0  0  0
  -22.7130  -29.4650   22.5740 C   0  0  0  0  0  0  0  0  0  0  0  0
  -21.3860  -29.2870   22.4490 N   0  0  0  0  0  0  0  0  0  0  0  0
  -23.3870  -28.8510   23.4050 O   0  0  0  0  0  0  0  0  0  0  0  0
  -20.8970  -29.8350   21.7540 H   0  0  0  0  0  0  0  0  0  0  0  0
  -18.0150  -28.0550   22.9440 C   0  0  0  0  0  0  0  0  0  0  0  0
  -20.5690  -28.3500   23.2250 C   0  0  0  0  0  3  0  0  0  0  0  0
  -20.6920  -26.9130   22.6700 C   0  0  0  0  0  2  0  0  0  0  0  0
  -19.6000  -26.5630   21.6540 C   0  0  0  0  0  2  0  0  0  0  0  0
  -18.2120  -26.7000   22.2850 C   0  0  0  0  0  2  0  0  0  0  0  0
  -19.1220  -28.8360   23.3710 C   0  0  0  0  0  0  0  0  0  0  0  0
  -18.8830  -30.1020   23.9490 C   0  0  0  0  0  3  0  0  0  0  0  0
  -17.5710  -30.5880   24.1020 C   0  0  0  0  0  3  0  0  0  0  0  0
  -16.4790  -29.8040   23.6910 C   0  0  0  0  0  3  0  0  0  0  0  0
  -16.7020  -28.5390   23.1180 C   0  0  0  0  0  3  0  0  0  0  0  0
  -25.8720  -32.5120   23.8470 C   0  0  0  0  0  3  0  0  0  0  0  0
  -26.3910  -31.7480   25.1280 C   0  0  1  0  0  0  0  0  0  0  0  0
  -25.3010  -31.5180   26.2010 C   0  0  0  0  0  1  0  0  0  0  0  0
  -26.9720  -30.3680   24.7450 C   0  0  0  0  0  1  0  0  0  0  0  0
  -27.5440  -32.5460   25.7830 C   0  0  0  0  0  1  0  0  0  0  0  0
  -25.5590  -33.9100   24.1810 N   0  0  0  0  0  0  0  0  0  0  0  0
  -25.8800  -34.9690   23.4250 C   0  0  0  0  0  0  0  0  0  0  0  0
  -26.5380  -34.8710   22.3850 O   0  0  0  0  0  0  0  0  0  0  0  0
  -24.9740  -34.0590   24.9900 H   0  0  0  0  0  0  0  0  0  0  0  0
  -24.1440  -36.7620   23.1030 C   0  0  0  0  0  1  0  0  0  0  0  0
  -25.3970  -36.3560   23.8940 C   0  0  0  0  0  3  0  0  0  0  0  0
  -27.5410  -37.2470   24.6980 C   0  0  0  0  0  1  0  0  0  0  0  0
  -26.4270  -37.4110   23.7690 N   0  0  0  0  0  0  0  0  0  0  0  0
  -26.0200  -38.3300   23.9220 H   0  0  0  0  0  0  0  0  0  0  0  0
  1  4  1  0
  1  5  1  0
  1  2  1  0
  2  6  2  0
  3  8  1  0
  3  7  1  0
  5  3  2  0
  6  7  1  0
  8  9  1  0
 10 11  1  0
 10 12  1  0
 11 13  1  0
 12 13  1  0
 12  8  1  0
 13 22  1  0
 14 22  1  0
 15 20  1  0
 16 17  1  0
 16 15  1  0
 18 17  1  0
 18 27  1  0
 18 19  1  0
 20 14  1  0
 20 19  1  0
 21 14  2  0
 22 23  1  0
 24 25  2  0
 25 44  1  0
 26 25  1  0
 26 29  1  0
 27 24  1  0
 27 28  1  0
 28 26  2  0
 29 30  1  0
 30 31  2  0
 32 35  1  0
 32 31  1  0
 33 32  2  0
 34 33  1  0
 34 29  2  0
 35 36  1  0
 36 37  1  0
 37 38  2  0
 39 38  1  0
 39 43  1  0
 40 39  2  0
 41 36  2  0
 41 40  1  0
 42 41  1  0
 44 45  1  0
 45 48  1  0
 45 47  1  0
 46 44  2  0
 49 50  1  0
 49 24  1  0
 51 49  1  0
 52  2  1  0
 53 64  2  0
 54 52  1  0
 54 59  1  0
 55 63  1  0
 55 65  1  0
 56 62  1  0
 56 58  1  0
 57 63  1  0
 58 57  1  0
 59 58  2  0
 60 54  2  0
 61 60  1  0
 61 56  2  0
 62 55  1  0
 63 53  1  0
 65 67  2  0
 66 65  1  0
 68 66  1  0
 69 78  2  0
 69 74  1  0
 70 66  1  0
 70 74  1  0
 71 70  1  0
 72 73  1  0
 72 71  1  0
 73 69  1  0
 74 75  2  0
 75 76  1  0
 77 76  2  0
 78 77  1  0
 79 53  1  0
 79 84  1  0
 79 80  1  0
 80 83  1  1
 80 81  1  0
 82 80  1  0
 84 87  1  0
 85 89  1  0
 85 84  1  0
 86 85  2  0
 89 88  1  0
 91 89  1  0
 91 92  1  0
 91 90  1  0
M  ISO  4   2 101  14 100  22 100  52 101
M  END
>  <TORSDO>  (90) 
F 17

>  <SCORE>  (90) 
-15.131

>  <name>  (90) 
89

>  <ligand_id>  (90) 
89

>  <original_smiles>  (90) 
[H]c1c([H])c([H])c2c(c1[H])C([H])([H])C([H])([H])C([H])([H])C2([H])N([H])C(=O)C1([H])N(C(=O)C([H])(N([H])C(=O)C([H])(N([H])C([H])([H])[H])C([H])([H])[H])C(C([H])([H])[H])(C([H])([H])[H])C([H])([H])[H])C([H])([H])c2c([H])c(Oc3nnc(N([H])C4([H])C([H])([H])C([H])([H])C4([H])N([H])C(=O)N4C([H])([H])C([H])([H])C([H])([H])C([H])(n5nc(-c6c([H])c([H])c(Oc7c([H])c([H])c(F)c([H])c7F)c([H])c6[H])c(C(=O)N([H])[H])c5N([H])[H])C4([H])[H])nc3C([H])([H])[H])c([H])c([H])c2C1([H])[H]

>  <smiles>  (90) 
[H]c1c([H])c([H])c2c(c1[H])C([H])([H])C([H])([H])C([H])([H])C2([H])N([H])C(=O)C1([H])N(C(=O)C([H])(N([H])C(=O)C([H])(N([H])C([H])([H])[H])C([H])([H])[H])C(C([H])([H])[H])(C([H])([H])[H])C([H])([H])[H])C([H])([H])c2c([H])c(Oc3nnc(N([H])C4([H])C([H])([H])C([H])([H])C4([H])N([H])C(=O)N4C([H])([H])C([H])([H])C([H])([H])C([H])(n5nc(-c6c([H])c([H])c(Oc7c([H])c([H])c(F)c([H])c7F)c([H])c6[H])c(C(=O)N([H])[H])c5N([H])[H])C4([H])[H])nc3C([H])([H])[H])c([H])c([H])c2C1([H])[H]

$$$$
90:0:0
     RDKit          3D

 96105  0  0  1  0  0  0  0  0999 V2000
  -28.4350  -24.2800   19.5970 C   0  0  0  0  0  3  0  0  0  0  0  0
  -28.7970  -25.4870   20.1650 C   0  0  0  0  0  0  0  0  0  0  0  0
  -29.4320  -23.9190   21.5090 C   0  0  0  0  0  3  0  0  0  0  0  0
  -27.7400  -24.0250   18.2960 C   0  0  0  0  0  1  0  0  0  0  0  0
  -29.4740  -25.2420   21.3500 N   0  0  0  0  0  0  0  0  0  0  0  0
  -28.8230  -23.2640   20.4920 N   0  0  0  0  0  0  0  0  0  0  0  0
  -29.1960  -22.4810   23.6990 C   0  0  0  0  0  2  0  0  0  0  0  0
  -29.8360  -23.7880   24.0890 C   0  0  0  0  0  2  0  0  0  0  0  0
  -30.0380  -23.2390   22.6950 C   0  0  0  0  0  3  0  0  0  0  0  0
  -28.6570  -26.7480   19.6700 O   0  0  0  0  0  0  0  0  0  0  0  0
  -24.7600  -31.6880   23.0980 C   0  0  0  0  0  0  0  0  0  0  0  0
  -27.4560  -27.4180   19.8010 C   0  0  0  0  0  0  0  0  0  0  0  0
  -23.5540  -30.3010   21.4440 C   0  0  0  0  0  3  0  0  0  0  0  0
  -25.0150  -28.8520   19.9340 C   0  0  0  0  0  0  0  0  0  0  0  0
  -26.0620  -30.7400   21.1930 C   0  0  0  0  0  2  0  0  0  0  0  0
  -26.1710  -29.3900   20.5120 C   0  0  0  0  0  0  0  0  0  0  0  0
  -27.3940  -28.6780   20.4460 C   0  0  0  0  0  3  0  0  0  0  0  0
  -26.2770  -26.8930   19.2270 C   0  0  0  0  0  3  0  0  0  0  0  0
  -25.0630  -27.6030   19.2920 C   0  0  0  0  0  3  0  0  0  0  0  0
  -23.7480  -29.6700   20.0390 C   0  0  0  0  0  2  0  0  0  0  0  0
  -24.8120  -30.9240   21.9700 N   0  0  0  0  0  0  0  0  0  0  0  0
  -23.6870  -31.9110   23.6750 O   0  0  0  0  0  0  0  0  0  0  0  0
  -22.9580  -29.2320   22.3890 C   0  0  0  0  0  0  0  0  0  0  0  0
  -21.6420  -28.9910   22.2670 N   0  0  0  0  0  0  0  0  0  0  0  0
  -23.6760  -28.6250   23.1860 O   0  0  0  0  0  0  0  0  0  0  0  0
  -21.1240  -29.5340   21.5900 H   0  0  0  0  0  0  0  0  0  0  0  0
  -18.3470  -27.5790   22.7110 C   0  0  0  0  0  0  0  0  0  0  0  0
  -20.8770  -28.0010   23.0230 C   0  0  0  0  0  3  0  0  0  0  0  0
  -21.0810  -26.5830   22.4450 C   0  0  0  0  0  2  0  0  0  0  0  0
  -20.0200  -26.1920   21.4120 C   0  0  0  0  0  2  0  0  0  0  0  0
  -18.6210  -26.2440   22.0380 C   0  0  0  0  0  2  0  0  0  0  0  0
  -19.4060  -28.4090   23.1600 C   0  0  0  0  0  0  0  0  0  0  0  0
  -19.0970  -29.6550   23.7510 C   0  0  0  0  0  3  0  0  0  0  0  0
  -17.7610  -30.0690   23.8990 C   0  0  0  0  0  3  0  0  0  0  0  0
  -16.7150  -29.2350   23.4670 C   0  0  0  0  0  3  0  0  0  0  0  0
  -17.0070  -27.9930   22.8770 C   0  0  0  0  0  3  0  0  0  0  0  0
  -26.0430  -32.3380   23.7030 C   0  0  0  0  0  3  0  0  0  0  0  0
  -25.7010  -33.7140   24.0920 N   0  0  0  0  0  0  0  0  0  0  0  0
  -25.9930  -34.8030   23.3690 C   0  0  0  0  0  0  0  0  0  0  0  0
  -26.6480  -34.7590   22.3240 O   0  0  0  0  0  0  0  0  0  0  0  0
  -25.1070  -33.8190   24.9020 H   0  0  0  0  0  0  0  0  0  0  0  0
  -24.2070  -36.5560   23.1130 C   0  0  0  0  0  1  0  0  0  0  0  0
  -25.4730  -36.1580   23.8860 C   0  0  0  0  0  3  0  0  0  0  0  0
  -27.5970  -37.0740   24.7110 C   0  0  0  0  0  1  0  0  0  0  0  0
  -26.4730  -37.2440   23.7960 N   0  0  0  0  0  0  0  0  0  0  0  0
  -26.0430  -38.1460   23.9850 H   0  0  0  0  0  0  0  0  0  0  0  0
  -26.6250  -31.5370   24.9330 C   0  0  1  0  0  0  0  0  0  0  0  0
  -25.5780  -31.2310   26.0280 C   0  0  0  0  0  1  0  0  0  0  0  0
  -27.2280  -30.1890   24.4690 C   0  0  0  0  0  1  0  0  0  0  0  0
  -27.7810  -32.3350   25.5800 C   0  0  0  0  0  1  0  0  0  0  0  0
  -28.4970  -21.8250   20.3890 C   0  0  0  0  0  2  0  0  0  0  0  0
  -29.6290  -20.7790   20.6190 C   0  0  0  0  0  2  0  0  0  0  0  0
  -29.0650  -19.4020   20.6820 N   0  0  0  0  0  4  0  0  0  0  0  0
  -29.0620  -19.0800   21.6360 H   0  0  0  0  0  0  0  0  0  0  0  0
  -28.1000  -19.4660   20.4040 H   0  0  0  0  0  0  0  0  0  0  0  0
  -29.6810  -18.3630   19.8190 C   0  0  0  0  0  2  0  0  0  0  0  0
  -30.9460  -17.7100   20.4180 C   0  0  0  0  0  2  0  0  0  0  0  0
  -30.7170  -16.6990   21.5730 C   0  0  0  0  0  2  0  0  0  0  0  0
  -30.8650  -14.3930   20.5530 C   0  0  0  0  0  0  0  0  0  0  0  0
  -30.5440  -12.2570   19.3640 C   0  0  0  0  0  2  0  0  0  0  0  0
  -29.6280  -12.4730   18.1430 C   0  0  0  0  0  2  0  0  0  0  0  0
  -28.1420  -12.3730   18.5440 C   0  0  0  0  0  2  0  0  0  0  0  0
  -27.7980  -13.2080   19.8070 C   0  0  0  0  0  3  0  0  0  0  0  0
  -28.8270  -12.9550   20.9300 C   0  0  0  0  0  2  0  0  0  0  0  0
  -30.1660  -13.2390   20.3870 N   0  0  0  0  0  0  0  0  0  0  0  0
  -31.9890  -14.5800   20.0780 O   0  0  0  0  0  0  0  0  0  0  0  0
  -30.2020  -15.3770   21.1840 N   0  0  0  0  0  0  0  0  0  0  0  0
  -29.2830  -15.1250   21.5220 H   0  0  0  0  0  0  0  0  0  0  0  0
  -25.3920  -13.8670   20.4560 C   0  0  0  0  0  0  0  0  0  0  0  0
  -24.3050  -13.1190   20.8170 C   0  0  0  0  0  0  0  0  0  0  0  0
  -24.7430  -11.7590   20.8110 C   0  0  0  0  0  0  0  0  0  0  0  0
  -26.4280  -12.9660   20.2600 N   0  0  0  0  0  0  0  0  0  0  0  0
  -26.0380  -11.6930   20.5290 N   0  0  0  0  0  0  0  0  0  0  0  0
  -23.9910  -10.5120   21.0020 C   0  0  0  0  0  0  0  0  0  0  0  0
  -24.3910   -9.5470   21.9530 C   0  0  0  0  0  3  0  0  0  0  0  0
  -23.6410   -8.3640   22.1300 C   0  0  0  0  0  3  0  0  0  0  0  0
  -22.4780   -8.1380   21.3570 C   0  0  0  0  0  0  0  0  0  0  0  0
  -22.0990   -9.0900   20.3960 C   0  0  0  0  0  3  0  0  0  0  0  0
  -22.8470  -10.2640   20.2160 C   0  0  0  0  0  3  0  0  0  0  0  0
  -21.7030   -7.0060   21.4430 O   0  0  0  0  0  0  0  0  0  0  0  0
  -21.6140   -6.2810   22.6050 C   0  0  0  0  0  0  0  0  0  0  0  0
  -21.1790   -6.8650   23.8150 C   0  0  0  0  0  3  0  0  0  0  0  0
  -21.0390   -6.0670   24.9680 C   0  0  0  0  0  3  0  0  0  0  0  0
  -21.3180   -4.6890   24.9120 C   0  0  0  0  0  0  0  0  0  0  0  0
  -21.7470   -4.1060   23.7070 C   0  0  0  0  0  3  0  0  0  0  0  0
  -21.8920   -4.9010   22.5550 C   0  0  0  0  0  0  0  0  0  0  0  0
  -22.2830   -4.3300   21.3910 F   0  0  0  0  0  0  0  0  0  0  0  0
  -21.1740   -3.9220   26.0190 F   0  0  0  0  0  0  0  0  0  0  0  0
  -22.9120  -13.6250   21.0570 C   0  0  0  0  0  0  0  0  0  0  0  0
  -22.1610  -12.9620   21.9280 N   0  0  0  0  0  0  0  0  0  0  0  0
  -22.4990  -14.6440   20.5020 O   0  0  0  0  0  0  0  0  0  0  0  0
  -22.5080  -12.1400   22.4000 H   0  0  0  0  0  0  0  0  0  0  0  0
  -21.2260  -13.2820   22.1340 H   0  0  0  0  0  0  0  0  0  0  0  0
  -25.5820  -15.2320   20.2640 N   0  0  0  0  0  0  0  0  0  0  0  0
  -24.8100  -15.8870   20.3320 H   0  0  0  0  0  0  0  0  0  0  0  0
  -26.4330  -15.6550   19.9210 H   0  0  0  0  0  0  0  0  0  0  0  0
  1  4  1  0
  1  2  1  0
  1  6  1  0
  2  5  2  0
  3  9  1  0
  5  3  1  0
  6  3  1  0
  7  8  1  0
  9  7  1  0
  9  8  1  0
 10 12  1  0
 10  2  1  0
 11 22  2  0
 12 17  1  0
 13 21  1  0
 13 23  1  0
 14 20  1  0
 14 16  1  0
 15 21  1  0
 16 15  1  0
 17 16  2  0
 18 19  1  0
 18 12  2  0
 19 14  2  0
 20 13  1  0
 21 11  1  0
 23 25  2  0
 24 23  1  0
 26 24  1  0
 27 36  2  0
 27 32  1  0
 28 24  1  0
 28 32  1  0
 29 28  1  0
 30 31  1  0
 30 29  1  0
 31 27  1  0
 32 33  2  0
 33 34  1  0
 35 34  2  0
 36 35  1  0
 37 11  1  0
 37 38  1  0
 37 47  1  0
 38 41  1  0
 39 43  1  0
 39 38  1  0
 40 39  2  0
 43 42  1  0
 45 43  1  0
 45 46  1  0
 45 44  1  0
 47 50  1  1
 47 48  1  0
 49 47  1  0
 51  6  1  0
 51 52  1  0
 52 53  1  0
 53 54  1  0
 55 53  1  0
 56 57  1  0
 56 53  1  0
 57 58  1  0
 59 67  1  0
 60 65  1  0
 61 62  1  0
 61 60  1  0
 63 62  1  0
 63 72  1  0
 63 64  1  0
 65 59  1  0
 65 64  1  0
 66 59  2  0
 67 68  1  0
 67 58  1  0
 69 70  2  0
 70 89  1  0
 71 70  1  0
 71 74  1  0
 72 69  1  0
 72 73  1  0
 73 71  2  0
 74 75  1  0
 75 76  2  0
 77 80  1  0
 77 76  1  0
 78 77  2  0
 79 78  1  0
 79 74  2  0
 80 81  1  0
 81 82  1  0
 82 83  2  0
 84 83  1  0
 84 88  1  0
 85 84  2  0
 86 81  2  0
 86 85  1  0
 87 86  1  0
 89 90  1  0
 90 93  1  0
 90 92  1  0
 91 89  2  0
 94 95  1  0
 94 69  1  0
 96 94  1  0
M  ISO  4   2 101  10 101  59 100  67 100
M  END
>  <TORSDO>  (91) 
F 23

>  <SCORE>  (91) 
-11.879

>  <name>  (91) 
90

>  <ligand_id>  (91) 
90

>  <original_smiles>  (91) 
[H]c1c([H])c([H])c2c(c1[H])C([H])([H])C([H])([H])C([H])([H])C2([H])N([H])C(=O)C1([H])N(C(=O)C([H])(N([H])C(=O)C([H])(N([H])C([H])([H])[H])C([H])([H])[H])C(C([H])([H])[H])(C([H])([H])[H])C([H])([H])[H])C([H])([H])c2c([H])c(Oc3nc(C4([H])C([H])([H])C4([H])[H])n(C([H])([H])C([H])([H])[N+]([H])([H])C([H])([H])C([H])([H])C([H])([H])N([H])C(=O)N4C([H])([H])C([H])([H])C([H])([H])C([H])(n5nc(-c6c([H])c([H])c(Oc7c([H])c([H])c(F)c([H])c7F)c([H])c6[H])c(C(=O)N([H])[H])c5N([H])[H])C4([H])[H])c3C([H])([H])[H])c([H])c([H])c2C1([H])[H]

>  <smiles>  (91) 
[H]c1c([H])c([H])c2c(c1[H])C([H])([H])C([H])([H])C([H])([H])C2([H])N([H])C(=O)C1([H])N(C(=O)C([H])(N([H])C(=O)C([H])(N([H])C([H])([H])[H])C([H])([H])[H])C(C([H])([H])[H])(C([H])([H])[H])C([H])([H])[H])C([H])([H])c2c([H])c(Oc3nc(C4([H])C([H])([H])C4([H])[H])n(C([H])([H])C([H])([H])[N+]([H])([H])C([H])([H])C([H])([H])C([H])([H])N([H])C(=O)N4C([H])([H])C([H])([H])C([H])([H])C([H])(n5nc(-c6c([H])c([H])c(Oc7c([H])c([H])c(F)c([H])c7F)c([H])c6[H])c(C(=O)N([H])[H])c5N([H])[H])C4([H])[H])c3C([H])([H])[H])c([H])c([H])c2C1([H])[H]

$$$$
91:0:0
     RDKit          3D

 95104  0  0  1  0  0  0  0  0999 V2000
  -28.1190  -21.6090   18.3370 C   0  0  0  0  0  1  0  0  0  0  0  0
  -27.9970  -21.5650   19.8800 C   0  0  0  0  0  3  0  0  0  0  0  0
  -29.7960  -24.8220   20.3600 C   0  0  0  0  0  2  0  0  0  0  0  0
  -29.8050  -23.3050   20.1680 C   0  0  0  0  0  2  0  0  0  0  0  0
  -27.5520  -24.0720   20.3440 C   0  0  0  0  0  2  0  0  0  0  0  0
  -28.4220  -25.2850   19.8780 C   0  0  0  0  0  3  0  0  0  0  0  0
  -28.4350  -22.8750   20.4600 N   0  0  0  0  0  0  0  0  0  0  0  0
  -28.2310  -26.6230   20.4160 O   0  0  0  0  0  0  0  0  0  0  0  0
  -24.5070  -31.9520   23.2830 C   0  0  0  0  0  0  0  0  0  0  0  0
  -27.0660  -27.3690   20.3010 C   0  0  0  0  0  0  0  0  0  0  0  0
  -23.2780  -30.5610   21.6450 C   0  0  0  0  0  3  0  0  0  0  0  0
  -24.7060  -28.9590   20.2500 C   0  0  0  0  0  0  0  0  0  0  0  0
  -25.8120  -30.8460   21.4640 C   0  0  0  0  0  2  0  0  0  0  0  0
  -25.8700  -29.4610   20.8430 C   0  0  0  0  0  0  0  0  0  0  0  0
  -27.0470  -28.6740   20.8610 C   0  0  0  0  0  3  0  0  0  0  0  0
  -25.8900  -26.8940   19.6830 C   0  0  0  0  0  3  0  0  0  0  0  0
  -24.7160  -27.6770   19.6640 C   0  0  0  0  0  3  0  0  0  0  0  0
  -23.4830  -29.8540   20.2770 C   0  0  0  0  0  2  0  0  0  0  0  0
  -24.5500  -31.1370   22.1900 N   0  0  0  0  0  0  0  0  0  0  0  0
  -23.4290  -32.2590   23.8120 O   0  0  0  0  0  0  0  0  0  0  0  0
  -22.5910  -29.5750   22.6180 C   0  0  0  0  0  0  0  0  0  0  0  0
  -21.2640  -29.4170   22.4760 N   0  0  0  0  0  0  0  0  0  0  0  0
  -23.2480  -28.9510   23.4550 O   0  0  0  0  0  0  0  0  0  0  0  0
  -20.7950  -29.9720   21.7740 H   0  0  0  0  0  0  0  0  0  0  0  0
  -17.8580  -28.3090   22.9570 C   0  0  0  0  0  0  0  0  0  0  0  0
  -20.4190  -28.5060   23.2470 C   0  0  0  0  0  3  0  0  0  0  0  0
  -20.4910  -27.0680   22.6850 C   0  0  0  0  0  2  0  0  0  0  0  0
  -19.3910  -26.7630   21.6650 C   0  0  0  0  0  2  0  0  0  0  0  0
  -18.0060  -26.9490   22.2940 C   0  0  0  0  0  2  0  0  0  0  0  0
  -18.9920  -29.0470   23.3900 C   0  0  0  0  0  0  0  0  0  0  0  0
  -18.8020  -30.3220   23.9660 C   0  0  0  0  0  3  0  0  0  0  0  0
  -17.5090  -30.8580   24.1190 C   0  0  0  0  0  3  0  0  0  0  0  0
  -16.3900  -30.1160   23.7030 C   0  0  0  0  0  3  0  0  0  0  0  0
  -16.5640  -28.8450   23.1270 C   0  0  0  0  0  3  0  0  0  0  0  0
  -25.8040  -32.5590   23.9060 C   0  0  0  0  0  3  0  0  0  0  0  0
  -26.2830  -31.8010   25.2050 C   0  0  1  0  0  0  0  0  0  0  0  0
  -25.1710  -31.6110   26.2630 C   0  0  0  0  0  1  0  0  0  0  0  0
  -26.8390  -30.4040   24.8430 C   0  0  0  0  0  1  0  0  0  0  0  0
  -27.4420  -32.5830   25.8680 C   0  0  0  0  0  1  0  0  0  0  0  0
  -25.5350  -33.9730   24.2040 N   0  0  0  0  0  0  0  0  0  0  0  0
  -25.8820  -34.9970   23.4130 C   0  0  0  0  0  0  0  0  0  0  0  0
  -26.5350  -34.8520   22.3760 O   0  0  0  0  0  0  0  0  0  0  0  0
  -24.9670  -34.1640   25.0160 H   0  0  0  0  0  0  0  0  0  0  0  0
  -24.1810  -36.8110   23.0500 C   0  0  0  0  0  1  0  0  0  0  0  0
  -25.4360  -36.4080   23.8410 C   0  0  0  0  0  3  0  0  0  0  0  0
  -27.6020  -37.2790   24.5980 C   0  0  0  0  0  1  0  0  0  0  0  0
  -26.4860  -37.4360   23.6700 N   0  0  0  0  0  0  0  0  0  0  0  0
  -26.1000  -38.3680   23.7940 H   0  0  0  0  0  0  0  0  0  0  0  0
  -28.6500  -20.2760   20.5620 C   0  0  0  0  0  2  0  0  0  0  0  0
  -28.7090  -19.0220   19.7290 N   0  0  0  0  0  4  0  0  0  0  0  0
  -27.8400  -19.0140   19.2180 H   0  0  0  0  0  0  0  0  0  0  0  0
  -29.4370  -19.1310   19.0410 H   0  0  0  0  0  0  0  0  0  0  0  0
  -30.2650  -14.5860   19.9470 C   0  0  0  0  0  0  0  0  0  0  0  0
  -29.9690  -12.3730   18.8700 C   0  0  0  0  0  2  0  0  0  0  0  0
  -28.9380  -12.5110   17.7290 C   0  0  0  0  0  2  0  0  0  0  0  0
  -27.5100  -12.3030   18.2700 C   0  0  0  0  0  2  0  0  0  0  0  0
  -27.2310  -13.1450   19.5400 C   0  0  0  0  0  3  0  0  0  0  0  0
  -28.3730  -13.0290   20.5740 C   0  0  0  0  0  2  0  0  0  0  0  0
  -29.6280  -13.3760   19.8970 N   0  0  0  0  0  0  0  0  0  0  0  0
  -31.4020  -14.7200   19.4900 O   0  0  0  0  0  0  0  0  0  0  0  0
  -28.7070  -16.4620   19.4330 C   0  0  0  0  0  2  0  0  0  0  0  0
  -28.8100  -17.6560   20.3890 C   0  0  0  0  0  3  0  0  0  0  0  0
  -30.1630  -17.0070   20.7540 C   0  0  0  0  0  3  0  0  0  0  0  0
  -29.5490  -15.6830   20.3800 N   0  0  0  0  0  0  0  0  0  0  0  0
  -24.9010  -13.7160   20.4560 C   0  0  0  0  0  0  0  0  0  0  0  0
  -23.8730  -12.9250   20.8880 C   0  0  0  0  0  0  0  0  0  0  0  0
  -24.3470  -11.5800   20.8000 C   0  0  0  0  0  0  0  0  0  0  0  0
  -25.9310  -12.8490   20.1260 N   0  0  0  0  0  0  0  0  0  0  0  0
  -25.6100  -11.5600   20.3960 N   0  0  0  0  0  0  0  0  0  0  0  0
  -23.6530  -10.3060   21.0180 C   0  0  0  0  0  0  0  0  0  0  0  0
  -24.1530   -9.3370   21.9160 C   0  0  0  0  0  3  0  0  0  0  0  0
  -23.4580   -8.1270   22.1220 C   0  0  0  0  0  3  0  0  0  0  0  0
  -22.2500   -7.8760   21.4290 C   0  0  0  0  0  0  0  0  0  0  0  0
  -21.7690   -8.8350   20.5190 C   0  0  0  0  0  3  0  0  0  0  0  0
  -22.4650  -10.0370   20.3120 C   0  0  0  0  0  3  0  0  0  0  0  0
  -21.5190   -6.7190   21.5470 O   0  0  0  0  0  0  0  0  0  0  0  0
  -21.5650   -5.9550   22.6840 C   0  0  0  0  0  0  0  0  0  0  0  0
  -21.1830   -6.4680   23.9440 C   0  0  0  0  0  3  0  0  0  0  0  0
  -21.1830   -5.6270   25.0740 C   0  0  0  0  0  3  0  0  0  0  0  0
  -21.5500   -4.2730   24.9470 C   0  0  0  0  0  0  0  0  0  0  0  0
  -21.9230   -3.7600   23.6930 C   0  0  0  0  0  3  0  0  0  0  0  0
  -21.9280   -4.5980   22.5640 C   0  0  0  0  0  0  0  0  0  0  0  0
  -22.2690   -4.0930   21.3540 F   0  0  0  0  0  0  0  0  0  0  0  0
  -21.5400   -3.4630   26.0310 F   0  0  0  0  0  0  0  0  0  0  0  0
  -22.4940  -13.3810   21.2690 C   0  0  0  0  0  0  0  0  0  0  0  0
  -21.8430  -12.6640   22.1790 N   0  0  0  0  0  0  0  0  0  0  0  0
  -22.0060  -14.4080   20.7980 O   0  0  0  0  0  0  0  0  0  0  0  0
  -22.2520  -11.8300   22.5770 H   0  0  0  0  0  0  0  0  0  0  0  0
  -20.9240  -12.9510   22.4820 H   0  0  0  0  0  0  0  0  0  0  0  0
  -25.0400  -15.0920   20.2940 N   0  0  0  0  0  0  0  0  0  0  0  0
  -24.2810  -15.7380   20.4830 H   0  0  0  0  0  0  0  0  0  0  0  0
  -25.8700  -15.5450   19.9450 H   0  0  0  0  0  0  0  0  0  0  0  0
  -31.6710  -15.9020   22.5170 C   0  0  0  0  0  1  0  0  0  0  0  0
  -31.2580  -18.3830   22.5850 C   0  0  0  0  0  1  0  0  0  0  0  0
  -30.6580  -17.0200   22.2130 C   0  0  0  0  0  3  0  0  0  0  0  0
  2  1  1  0
  2  7  1  0
  2 49  1  0
  4  3  1  0
  4  7  1  0
  5  7  1  0
  6  5  1  0
  6  3  1  0
  6  8  1  0
  9 20  2  0
 10  8  1  0
 10 15  1  0
 11 19  1  0
 11 21  1  0
 12 18  1  0
 12 14  1  0
 13 19  1  0
 14 15  2  0
 14 13  1  0
 16 10  2  0
 17 16  1  0
 17 12  2  0
 18 11  1  0
 19  9  1  0
 21 23  2  0
 22 21  1  0
 24 22  1  0
 25 34  2  0
 25 30  1  0
 26 22  1  0
 26 30  1  0
 27 26  1  0
 28 29  1  0
 28 27  1  0
 29 25  1  0
 30 31  2  0
 31 32  1  0
 33 32  2  0
 34 33  1  0
 35  9  1  0
 35 40  1  0
 35 36  1  0
 36 39  1  1
 36 37  1  0
 38 36  1  0
 40 43  1  0
 41 45  1  0
 41 40  1  0
 42 41  2  0
 45 44  1  0
 47 48  1  0
 47 45  1  0
 47 46  1  0
 50 49  1  0
 51 50  1  0
 52 50  1  0
 53 64  1  0
 54 59  1  0
 55 56  1  0
 55 54  1  0
 57 56  1  0
 57 68  1  0
 57 58  1  0
 59 53  1  0
 59 58  1  0
 60 53  2  0
 61 64  1  0
 61 62  1  0
 62 50  1  0
 62 63  1  0
 63 95  1  0
 64 63  1  0
 65 66  2  0
 66 85  1  0
 67 66  1  0
 67 70  1  0
 68 69  1  0
 68 65  1  0
 69 67  2  0
 70 71  1  0
 71 72  2  0
 73 76  1  0
 73 72  1  0
 74 73  2  0
 75 74  1  0
 75 70  2  0
 76 77  1  0
 77 78  1  0
 78 79  2  0
 80 79  1  0
 80 84  1  0
 81 80  2  0
 82 77  2  0
 82 81  1  0
 83 82  1  0
 85 86  1  0
 86 89  1  0
 86 88  1  0
 87 85  2  0
 90 65  1  0
 90 91  1  0
 92 90  1  0
 95 93  1  0
 95 94  1  0
M  ISO  4   6 101   8 101  53 100  64 100
M  END
>  <TORSDO>  (92) 
F 20

>  <SCORE>  (92) 
-12.299

>  <name>  (92) 
91

>  <ligand_id>  (92) 
91

>  <original_smiles>  (92) 
[H]c1c([H])c([H])c2c(c1[H])C([H])([H])C([H])([H])C([H])([H])C2([H])N([H])C(=O)C1([H])N(C(=O)C([H])(N([H])C(=O)C([H])(N([H])C([H])([H])[H])C([H])([H])[H])C(C([H])([H])[H])(C([H])([H])[H])C([H])([H])[H])C([H])([H])c2c([H])c(OC3([H])C([H])([H])N(C([H])(C([H])([H])[H])C([H])([H])[N+]([H])([H])C4([H])C([H])([H])N(C(=O)N5C([H])([H])C([H])([H])C([H])([H])C([H])(n6nc(-c7c([H])c([H])c(Oc8c([H])c([H])c(F)c([H])c8F)c([H])c7[H])c(C(=O)N([H])[H])c6N([H])[H])C5([H])[H])C4([H])C([H])(C([H])([H])[H])C([H])([H])[H])C([H])([H])C3([H])[H])c([H])c([H])c2C1([H])[H]

>  <smiles>  (92) 
[H]c1c([H])c([H])c2c(c1[H])C([H])([H])C([H])([H])C([H])([H])C2([H])N([H])C(=O)C1([H])N(C(=O)C([H])(N([H])C(=O)C([H])(N([H])C([H])([H])[H])C([H])([H])[H])C(C([H])([H])[H])(C([H])([H])[H])C([H])([H])[H])C([H])([H])c2c([H])c(OC3([H])C([H])([H])N(C([H])(C([H])([H])[H])C([H])([H])[N+]([H])([H])C4([H])C([H])([H])N(C(=O)N5C([H])([H])C([H])([H])C([H])([H])C([H])(n6nc(-c7c([H])c([H])c(Oc8c([H])c([H])c(F)c([H])c8F)c([H])c7[H])c(C(=O)N([H])[H])c6N([H])[H])C5([H])[H])C4([H])C([H])(C([H])([H])[H])C([H])([H])[H])C([H])([H])C3([H])[H])c([H])c([H])c2C1([H])[H]

$$$$
92:0:0
     RDKit          3D

 91100  0  0  1  0  0  0  0  0999 V2000
  -27.8240  -21.6740   20.0090 C   0  0  0  0  0  3  0  0  0  0  0  0
  -28.4520  -22.9460   20.1930 C   0  0  0  0  0  0  0  0  0  0  0  0
  -29.9090  -21.1040   20.3750 C   0  0  0  0  0  3  0  0  0  0  0  0
  -28.5460  -18.9900   20.0070 C   0  0  0  0  0  2  0  0  0  0  0  0
  -31.0290  -18.8360   20.1280 C   0  0  0  0  0  3  0  0  0  0  0  0
  -29.7590  -17.9830   20.5240 C   0  0  0  0  0  0  0  0  0  0  0  0
  -28.7110  -20.5640   20.1380 N   0  0  0  0  0  0  0  0  0  0  0  0
  -29.7680  -22.4880   20.4330 N   0  0  0  0  0  0  0  0  0  0  0  0
  -31.0070  -20.2990   20.5290 N   0  0  0  0  0  0  0  0  0  0  0  0
  -30.5400  -23.1160   20.6220 H   0  0  0  0  0  0  0  0  0  0  0  0
  -31.9110  -20.7070   20.7570 H   0  0  0  0  0  0  0  0  0  0  0  0
  -30.4960  -15.1660   20.2650 C   0  0  0  0  0  0  0  0  0  0  0  0
  -30.4090  -12.7640   19.3570 C   0  0  0  0  0  2  0  0  0  0  0  0
  -29.4690  -12.6480   18.1330 C   0  0  0  0  0  2  0  0  0  0  0  0
  -28.0110  -12.4140   18.5730 C   0  0  0  0  0  2  0  0  0  0  0  0
  -27.5960  -13.3390   19.7430 C   0  0  0  0  0  3  0  0  0  0  0  0
  -28.6660  -13.4470   20.8510 C   0  0  0  0  0  2  0  0  0  0  0  0
  -29.9110  -13.8870   20.2130 N   0  0  0  0  0  0  0  0  0  0  0  0
  -31.7130  -15.2160   20.0620 O   0  0  0  0  0  0  0  0  0  0  0  0
  -29.6830  -16.3630   20.3330 N   0  0  0  0  0  0  0  0  0  0  0  0
  -28.7180  -16.0760   20.3560 H   0  0  0  0  0  0  0  0  0  0  0  0
  -25.2340  -13.8790   20.5410 C   0  0  0  0  0  0  0  0  0  0  0  0
  -24.1810  -13.0920   20.9150 C   0  0  0  0  0  0  0  0  0  0  0  0
  -24.6570  -11.7470   20.8730 C   0  0  0  0  0  0  0  0  0  0  0  0
  -26.2770  -13.0120   20.2750 N   0  0  0  0  0  0  0  0  0  0  0  0
  -25.9460  -11.7230   20.5460 N   0  0  0  0  0  0  0  0  0  0  0  0
  -23.9400  -10.4760   21.0610 C   0  0  0  0  0  0  0  0  0  0  0  0
  -24.3840   -9.5080   21.9890 C   0  0  0  0  0  3  0  0  0  0  0  0
  -23.6660   -8.3040   22.1670 C   0  0  0  0  0  3  0  0  0  0  0  0
  -22.4930   -8.0610   21.4150 C   0  0  0  0  0  0  0  0  0  0  0  0
  -22.0660   -9.0180   20.4770 C   0  0  0  0  0  3  0  0  0  0  0  0
  -22.7810  -10.2120   20.2970 C   0  0  0  0  0  3  0  0  0  0  0  0
  -21.7450   -6.9100   21.5010 O   0  0  0  0  0  0  0  0  0  0  0  0
  -21.7000   -6.1660   22.6520 C   0  0  0  0  0  0  0  0  0  0  0  0
  -21.2480   -6.7100   23.8730 C   0  0  0  0  0  3  0  0  0  0  0  0
  -21.1500   -5.8900   25.0170 C   0  0  0  0  0  3  0  0  0  0  0  0
  -21.4970   -4.5280   24.9400 C   0  0  0  0  0  0  0  0  0  0  0  0
  -21.9420   -3.9830   23.7220 C   0  0  0  0  0  3  0  0  0  0  0  0
  -22.0400   -4.8000   22.5830 C   0  0  0  0  0  0  0  0  0  0  0  0
  -22.4500   -4.2660   21.4060 F   0  0  0  0  0  0  0  0  0  0  0  0
  -21.3960   -3.7380   26.0340 F   0  0  0  0  0  0  0  0  0  0  0  0
  -22.7800  -13.5590   21.1900 C   0  0  0  0  0  0  0  0  0  0  0  0
  -22.0570  -12.8640   22.0600 N   0  0  0  0  0  0  0  0  0  0  0  0
  -22.3310  -14.5770   20.6630 O   0  0  0  0  0  0  0  0  0  0  0  0
  -22.4270  -12.0480   22.5210 H   0  0  0  0  0  0  0  0  0  0  0  0
  -21.1150  -13.1640   22.2750 H   0  0  0  0  0  0  0  0  0  0  0  0
  -25.3870  -15.2540   20.3770 N   0  0  0  0  0  0  0  0  0  0  0  0
  -24.6250  -15.9090   20.5090 H   0  0  0  0  0  0  0  0  0  0  0  0
  -26.2250  -15.6940   20.0260 H   0  0  0  0  0  0  0  0  0  0  0  0
  -27.7180  -24.4760   20.1190 C   0  0  0  0  0  2  0  0  0  0  0  0
  -28.1630  -26.0100   20.2730 O   0  0  0  0  0  0  0  0  0  0  0  0
  -24.6420  -31.9130   23.2450 C   0  0  0  0  0  0  0  0  0  0  0  0
  -27.1640  -27.0920   20.2140 C   0  0  0  0  0  0  0  0  0  0  0  0
  -23.4340  -30.5270   21.6120 C   0  0  0  0  0  3  0  0  0  0  0  0
  -24.8690  -28.9370   20.1800 C   0  0  0  0  0  0  0  0  0  0  0  0
  -25.9990  -30.7390   21.4560 C   0  0  0  0  0  2  0  0  0  0  0  0
  -26.0600  -29.3410   20.7960 C   0  0  0  0  0  0  0  0  0  0  0  0
  -27.2080  -28.4400   20.7920 C   0  0  0  0  0  3  0  0  0  0  0  0
  -25.9410  -26.8230   19.5550 C   0  0  0  0  0  3  0  0  0  0  0  0
  -24.8300  -27.6950   19.5390 C   0  0  0  0  0  3  0  0  0  0  0  0
  -23.6540  -29.8580   20.2310 C   0  0  0  0  0  2  0  0  0  0  0  0
  -24.7110  -31.0840   22.1580 N   0  0  0  0  0  0  0  0  0  0  0  0
  -23.5560  -32.2080   23.7710 O   0  0  0  0  0  0  0  0  0  0  0  0
  -22.7420  -29.5250   22.5720 C   0  0  0  0  0  0  0  0  0  0  0  0
  -21.4130  -29.3610   22.4440 N   0  0  0  0  0  0  0  0  0  0  0  0
  -23.4090  -28.8980   23.3990 O   0  0  0  0  0  0  0  0  0  0  0  0
  -20.9260  -29.9200   21.7560 H   0  0  0  0  0  0  0  0  0  0  0  0
  -18.0260  -28.1650   22.9510 C   0  0  0  0  0  0  0  0  0  0  0  0
  -20.5870  -28.4250   23.2160 C   0  0  0  0  0  3  0  0  0  0  0  0
  -20.6860  -26.9910   22.6440 C   0  0  0  0  0  2  0  0  0  0  0  0
  -19.5820  -26.6660   21.6340 C   0  0  0  0  0  2  0  0  0  0  0  0
  -18.2010  -26.8140   22.2790 C   0  0  0  0  0  2  0  0  0  0  0  0
  -19.1450  -28.9290   23.3780 C   0  0  0  0  0  0  0  0  0  0  0  0
  -18.9270  -30.1930   23.9660 C   0  0  0  0  0  3  0  0  0  0  0  0
  -17.6210  -30.6910   24.1340 C   0  0  0  0  0  3  0  0  0  0  0  0
  -16.5170  -29.9220   23.7250 C   0  0  0  0  0  3  0  0  0  0  0  0
  -16.7200  -28.6630   23.1360 C   0  0  0  0  0  3  0  0  0  0  0  0
  -25.9200  -32.5450   23.8730 C   0  0  0  0  0  3  0  0  0  0  0  0
  -25.6120  -33.9440   24.2120 N   0  0  0  0  0  0  0  0  0  0  0  0
  -25.9170  -35.0020   23.4460 C   0  0  0  0  0  0  0  0  0  0  0  0
  -26.5570  -34.9020   22.3970 O   0  0  0  0  0  0  0  0  0  0  0  0
  -25.0450  -34.0960   25.0340 H   0  0  0  0  0  0  0  0  0  0  0  0
  -24.1690  -36.7900   23.1590 C   0  0  0  0  0  1  0  0  0  0  0  0
  -25.4430  -36.3920   23.9210 C   0  0  0  0  0  3  0  0  0  0  0  0
  -27.6020  -37.2910   24.6700 C   0  0  0  0  0  1  0  0  0  0  0  0
  -26.4670  -37.4490   23.7660 N   0  0  0  0  0  0  0  0  0  0  0  0
  -26.0610  -38.3680   23.9220 H   0  0  0  0  0  0  0  0  0  0  0  0
  -26.4260  -31.7750   25.1550 C   0  0  1  0  0  0  0  0  0  0  0  0
  -25.3280  -31.5440   26.2210 C   0  0  0  0  0  1  0  0  0  0  0  0
  -27.0060  -30.3930   24.7780 C   0  0  0  0  0  1  0  0  0  0  0  0
  -27.5790  -32.5680   25.8180 C   0  0  0  0  0  1  0  0  0  0  0  0
  1  7  1  0
  1  2  2  0
  2  8  1  0
  3  7  1  0
  3  8  1  0
  3  9  1  0
  4  7  1  0
  4  6  1  0
  5  6  2  0
  5  9  1  0
  8 10  1  0
  9 11  1  0
 12 20  1  0
 13 18  1  0
 14 15  1  0
 14 13  1  0
 16 15  1  0
 16 25  1  0
 16 17  1  0
 18 12  1  0
 18 17  1  0
 19 12  2  0
 20 21  1  0
 20  6  1  0
 22 23  2  0
 23 42  1  0
 24 23  1  0
 24 27  1  0
 25 22  1  0
 25 26  1  0
 26 24  2  0
 27 28  1  0
 28 29  2  0
 30 33  1  0
 30 29  1  0
 31 30  2  0
 32 31  1  0
 32 27  2  0
 33 34  1  0
 34 35  1  0
 35 36  2  0
 37 36  1  0
 37 41  1  0
 38 37  2  0
 39 34  2  0
 39 38  1  0
 40 39  1  0
 42 43  1  0
 43 46  1  0
 43 45  1  0
 44 42  2  0
 47 48  1  0
 47 22  1  0
 49 47  1  0
 50  2  1  0
 50 51  1  0
 52 63  2  0
 53 51  1  0
 53 58  1  0
 54 62  1  0
 54 64  1  0
 55 61  1  0
 55 57  1  0
 56 62  1  0
 57 56  1  0
 58 57  2  0
 59 53  2  0
 60 59  1  0
 60 55  2  0
 61 54  1  0
 62 52  1  0
 64 66  2  0
 65 64  1  0
 67 65  1  0
 68 77  2  0
 68 73  1  0
 69 65  1  0
 69 73  1  0
 70 69  1  0
 71 72  1  0
 71 70  1  0
 72 68  1  0
 73 74  2  0
 74 75  1  0
 76 75  2  0
 77 76  1  0
 78 52  1  0
 78 79  1  0
 78 88  1  0
 79 82  1  0
 80 84  1  0
 80 79  1  0
 81 80  2  0
 84 83  1  0
 86 84  1  0
 86 87  1  0
 86 85  1  0
 88 91  1  1
 88 89  1  0
 90 88  1  0
M  ISO  4  12 100  20 100  50 101  51 101
M  END
>  <TORSDO>  (93) 
F 17

>  <SCORE>  (93) 
-15.848

>  <name>  (93) 
92

>  <ligand_id>  (93) 
92

>  <original_smiles>  (93) 
[H]c1c([H])c([H])c2c(c1[H])C([H])([H])C([H])([H])C([H])([H])C2([H])N([H])C(=O)C1([H])N(C(=O)C([H])(N([H])C(=O)C([H])(N([H])C([H])([H])[H])C([H])([H])[H])C(C([H])([H])[H])(C([H])([H])[H])C([H])([H])[H])C([H])([H])c2c([H])c(OC([H])([H])c3c([H])n4c([n+]3[H])N([H])C([H])([H])C([H])(N([H])C(=O)N3C([H])([H])C([H])([H])C([H])([H])C([H])(n5nc(-c6c([H])c([H])c(Oc7c([H])c([H])c(F)c([H])c7F)c([H])c6[H])c(C(=O)N([H])[H])c5N([H])[H])C3([H])[H])C4([H])[H])c([H])c([H])c2C1([H])[H]

>  <smiles>  (93) 
[H]c1c([H])c([H])c2c(c1[H])C([H])([H])C([H])([H])C([H])([H])C2([H])N([H])C(=O)C1([H])N(C(=O)C([H])(N([H])C(=O)C([H])(N([H])C([H])([H])[H])C([H])([H])[H])C(C([H])([H])[H])(C([H])([H])[H])C([H])([H])[H])C([H])([H])c2c([H])c(OC([H])([H])c3c([H])n4c([n+]3[H])N([H])C([H])([H])C([H])(N([H])C(=O)N3C([H])([H])C([H])([H])C([H])([H])C([H])(n5nc(-c6c([H])c([H])c(Oc7c([H])c([H])c(F)c([H])c7F)c([H])c6[H])c(C(=O)N([H])[H])c5N([H])[H])C3([H])[H])C4([H])[H])c([H])c([H])c2C1([H])[H]

$$$$
93:0:0
     RDKit          3D

 98107  0  0  1  0  0  0  0  0999 V2000
  -32.4370  -22.4500   20.7840 C   0  0  0  0  0  2  0  0  0  0  0  0
  -31.6920  -22.4190   22.0910 C   0  0  0  0  0  2  0  0  0  0  0  0
  -31.0450  -21.8340   20.8450 C   0  0  2  0  0  0  0  0  0  0  0  0
  -30.2670  -17.7720   20.3810 C   0  0  0  0  0  0  0  0  0  0  0  0
  -31.0770  -18.4520   19.4360 C   0  0  0  0  0  0  0  0  0  0  0  0
  -30.9150  -20.3250   20.7350 C   0  0  0  0  0  0  0  0  0  0  0  0
  -29.8740  -18.4100   21.5130 N   0  0  0  0  0  0  0  0  0  0  0  0
  -31.3900  -19.7530   19.6200 N   0  0  0  0  0  0  0  0  0  0  0  0
  -30.2040  -19.7000   21.6910 N   0  0  0  0  0  0  0  0  0  0  0  0
  -32.9390  -17.9780   17.9550 C   0  0  0  0  0  1  0  0  0  0  0  0
  -31.5170  -17.8470   18.2520 N   0  0  0  0  0  0  0  0  0  0  0  0
  -31.2000  -16.8870   18.1590 H   0  0  0  0  0  0  0  0  0  0  0  0
  -29.6100  -16.4200   20.0910 C   0  0  0  0  0  2  0  0  0  0  0  0
  -30.7680  -14.2670   20.1010 C   0  0  0  0  0  0  0  0  0  0  0  0
  -30.3980  -12.1260   18.9480 C   0  0  0  0  0  2  0  0  0  0  0  0
  -29.3870  -12.3650   17.8050 C   0  0  0  0  0  2  0  0  0  0  0  0
  -27.9350  -12.2520   18.3160 C   0  0  0  0  0  2  0  0  0  0  0  0
  -27.6900  -13.0850   19.6030 C   0  0  0  0  0  3  0  0  0  0  0  0
  -28.7970  -12.8020   20.6480 C   0  0  0  0  0  2  0  0  0  0  0  0
  -30.1070  -13.0830   20.0260 N   0  0  0  0  0  0  0  0  0  0  0  0
  -31.7890  -14.5260   19.4570 O   0  0  0  0  0  0  0  0  0  0  0  0
  -30.1130  -15.2230   20.7740 N   0  0  0  0  0  0  0  0  0  0  0  0
  -29.4770  -14.8640   21.4690 H   0  0  0  0  0  0  0  0  0  0  0  0
  -25.3500  -13.7490   20.4630 C   0  0  0  0  0  0  0  0  0  0  0  0
  -24.2890  -12.9960   20.8920 C   0  0  0  0  0  0  0  0  0  0  0  0
  -24.7130  -11.6350   20.8120 C   0  0  0  0  0  0  0  0  0  0  0  0
  -26.3570  -12.8440   20.1560 N   0  0  0  0  0  0  0  0  0  0  0  0
  -25.9790  -11.5680   20.4180 N   0  0  0  0  0  0  0  0  0  0  0  0
  -23.9700  -10.3870   21.0330 C   0  0  0  0  0  0  0  0  0  0  0  0
  -24.3970   -9.4320   21.9810 C   0  0  0  0  0  3  0  0  0  0  0  0
  -23.6570   -8.2480   22.1890 C   0  0  0  0  0  3  0  0  0  0  0  0
  -22.4750   -8.0110   21.4480 C   0  0  0  0  0  0  0  0  0  0  0  0
  -22.0640   -8.9570   20.4920 C   0  0  0  0  0  3  0  0  0  0  0  0
  -22.8060  -10.1320   20.2820 C   0  0  0  0  0  3  0  0  0  0  0  0
  -21.7060   -6.8790   21.5620 O   0  0  0  0  0  0  0  0  0  0  0  0
  -21.6140   -6.1880   22.7450 C   0  0  0  0  0  0  0  0  0  0  0  0
  -21.1210   -6.7890   23.9230 C   0  0  0  0  0  3  0  0  0  0  0  0
  -20.9770   -6.0230   25.0970 C   0  0  0  0  0  3  0  0  0  0  0  0
  -21.3190   -4.6570   25.0950 C   0  0  0  0  0  0  0  0  0  0  0  0
  -21.8060   -4.0560   23.9210 C   0  0  0  0  0  3  0  0  0  0  0  0
  -21.9510   -4.8190   22.7490 C   0  0  0  0  0  0  0  0  0  0  0  0
  -22.3990   -4.2290   21.6160 F   0  0  0  0  0  0  0  0  0  0  0  0
  -21.1760   -3.9200   26.2200 F   0  0  0  0  0  0  0  0  0  0  0  0
  -22.9240  -13.5020   21.2610 C   0  0  0  0  0  0  0  0  0  0  0  0
  -22.2360  -12.8120   22.1620 N   0  0  0  0  0  0  0  0  0  0  0  0
  -22.4770  -14.5450   20.7860 O   0  0  0  0  0  0  0  0  0  0  0  0
  -22.6100  -11.9700   22.5750 H   0  0  0  0  0  0  0  0  0  0  0  0
  -21.3210  -13.1330   22.4490 H   0  0  0  0  0  0  0  0  0  0  0  0
  -25.5370  -15.1170   20.2880 N   0  0  0  0  0  0  0  0  0  0  0  0
  -24.7890  -15.7870   20.4360 H   0  0  0  0  0  0  0  0  0  0  0  0
  -26.3640  -15.5330   19.8830 H   0  0  0  0  0  0  0  0  0  0  0  0
  -29.8520  -22.5110   20.1520 C   0  0  0  0  0  2  0  0  0  0  0  0
  -29.8220  -24.0000   20.1920 N   0  0  0  0  0  4  0  0  0  0  0  0
  -29.4720  -24.2990   19.2940 H   0  0  0  0  0  0  0  0  0  0  0  0
  -30.7640  -24.3550   20.2600 H   0  0  0  0  0  0  0  0  0  0  0  0
  -28.9320  -24.6050   21.2220 C   0  0  0  0  0  2  0  0  0  0  0  0
  -28.8750  -26.1490   21.1430 C   0  0  0  0  0  2  0  0  0  0  0  0
  -28.2400  -26.5330   19.9220 O   0  0  0  0  0  0  0  0  0  0  0  0
  -24.5050  -31.7400   23.1340 C   0  0  0  0  0  0  0  0  0  0  0  0
  -27.1030  -27.3030   20.0140 C   0  0  0  0  0  0  0  0  0  0  0  0
  -23.2840  -30.3760   21.4700 C   0  0  0  0  0  3  0  0  0  0  0  0
  -24.7220  -28.8280   20.0410 C   0  0  0  0  0  0  0  0  0  0  0  0
  -25.8140  -30.6990   21.2860 C   0  0  0  0  0  2  0  0  0  0  0  0
  -25.8830  -29.3300   20.6440 C   0  0  0  0  0  0  0  0  0  0  0  0
  -27.0760  -28.5740   20.6370 C   0  0  0  0  0  3  0  0  0  0  0  0
  -25.9310  -26.8160   19.4030 C   0  0  0  0  0  3  0  0  0  0  0  0
  -24.7390  -27.5660   19.4200 C   0  0  0  0  0  3  0  0  0  0  0  0
  -23.4910  -29.7060   20.0860 C   0  0  0  0  0  2  0  0  0  0  0  0
  -24.5530  -30.9530   22.0220 N   0  0  0  0  0  0  0  0  0  0  0  0
  -23.4270  -32.0210   23.6730 O   0  0  0  0  0  0  0  0  0  0  0  0
  -22.6130  -29.3550   22.4170 C   0  0  0  0  0  0  0  0  0  0  0  0
  -21.2810  -29.2210   22.3080 N   0  0  0  0  0  0  0  0  0  0  0  0
  -23.2870  -28.6840   23.2040 O   0  0  0  0  0  0  0  0  0  0  0  0
  -20.7970  -29.8130   21.6470 H   0  0  0  0  0  0  0  0  0  0  0  0
  -17.8720  -28.1620   22.8620 C   0  0  0  0  0  0  0  0  0  0  0  0
  -20.4460  -28.2930   23.0690 C   0  0  0  0  0  3  0  0  0  0  0  0
  -20.4650  -26.8810   22.4400 C   0  0  0  0  0  2  0  0  0  0  0  0
  -19.3210  -26.6470   21.4480 C   0  0  0  0  0  2  0  0  0  0  0  0
  -17.9660  -26.8310   22.1370 C   0  0  0  0  0  2  0  0  0  0  0  0
  -19.0360  -28.8560   23.2870 C   0  0  0  0  0  0  0  0  0  0  0  0
  -18.8930  -30.1050   23.9290 C   0  0  0  0  0  3  0  0  0  0  0  0
  -17.6180  -30.6600   24.1500 C   0  0  0  0  0  3  0  0  0  0  0  0
  -16.4690  -29.9620   23.7410 C   0  0  0  0  0  3  0  0  0  0  0  0
  -16.5960  -28.7160   23.1020 C   0  0  0  0  0  3  0  0  0  0  0  0
  -25.7990  -32.3400   23.7660 C   0  0  0  0  0  3  0  0  0  0  0  0
  -25.5110  -33.7350   24.1220 N   0  0  0  0  0  0  0  0  0  0  0  0
  -25.8520  -34.7950   23.3780 C   0  0  0  0  0  0  0  0  0  0  0  0
  -26.5160  -34.7000   22.3420 O   0  0  0  0  0  0  0  0  0  0  0  0
  -24.9200  -33.8830   24.9270 H   0  0  0  0  0  0  0  0  0  0  0  0
  -24.1540  -36.6200   23.0480 C   0  0  0  0  0  1  0  0  0  0  0  0
  -25.3830  -36.1820   23.8590 C   0  0  0  0  0  3  0  0  0  0  0  0
  -27.5210  -37.0230   24.7270 C   0  0  0  0  0  1  0  0  0  0  0  0
  -26.4330  -37.2200   23.7720 N   0  0  0  0  0  0  0  0  0  0  0  0
  -26.0390  -38.1440   23.9260 H   0  0  0  0  0  0  0  0  0  0  0  0
  -26.3100  -31.5370   25.0250 C   0  0  1  0  0  0  0  0  0  0  0  0
  -25.2160  -31.2890   26.0890 C   0  0  0  0  0  1  0  0  0  0  0  0
  -26.8780  -30.1620   24.6020 C   0  0  0  0  0  1  0  0  0  0  0  0
  -27.4710  -32.3040   25.7000 C   0  0  0  0  0  1  0  0  0  0  0  0
  1  3  1  0
  1  2  1  0
  3  2  1  0
  4  7  1  0
  5  8  1  0
  5  4  2  0
  6  3  1  0
  6  9  1  0
  7  9  2  0
  8  6  2  0
 10 11  1  0
 11  5  1  0
 12 11  1  0
 13  4  1  0
 13 22  1  0
 14 22  1  0
 15 20  1  0
 16 17  1  0
 16 15  1  0
 18 17  1  0
 18 27  1  0
 18 19  1  0
 20 14  1  0
 20 19  1  0
 21 14  2  0
 22 23  1  0
 24 25  2  0
 25 44  1  0
 26 25  1  0
 26 29  1  0
 27 28  1  0
 27 24  1  0
 28 26  2  0
 29 30  1  0
 30 31  2  0
 32 35  1  0
 32 31  1  0
 33 32  2  0
 34 33  1  0
 34 29  2  0
 35 36  1  0
 36 41  2  0
 36 37  1  0
 37 38  2  0
 39 38  1  0
 39 43  1  0
 40 39  2  0
 41 40  1  0
 42 41  1  0
 44 45  1  0
 45 48  1  0
 45 47  1  0
 46 44  2  0
 49 50  1  0
 49 24  1  0
 51 49  1  0
 52 53  1  0
  3 52  1  6
 53 55  1  0
 53 56  1  0
 54 53  1  0
 57 56  1  0
 58 60  1  0
 58 57  1  0
 59 70  2  0
 60 65  1  0
 61 69  1  0
 61 71  1  0
 62 68  1  0
 62 64  1  0
 63 69  1  0
 64 63  1  0
 65 64  2  0
 66 67  1  0
 66 60  2  0
 67 62  2  0
 68 61  1  0
 69 59  1  0
 71 73  2  0
 72 71  1  0
 74 72  1  0
 75 84  2  0
 75 80  1  0
 76 72  1  0
 76 80  1  0
 77 76  1  0
 78 79  1  0
 78 77  1  0
 79 75  1  0
 80 81  2  0
 81 82  1  0
 83 82  2  0
 84 83  1  0
 85 59  1  0
 85 86  1  0
 85 95  1  0
 86 89  1  0
 87 91  1  0
 87 86  1  0
 88 87  2  0
 91 90  1  0
 93 91  1  0
 93 94  1  0
 93 92  1  0
 95 98  1  1
 95 96  1  0
 97 95  1  0
M  ISO  4  14 100  22 100  57 101  58 101
M  END
>  <TORSDO>  (94) 
F 23

>  <SCORE>  (94) 
-11.841

>  <name>  (94) 
93

>  <ligand_id>  (94) 
93

>  <original_smiles>  (94) 
[H]c1c([H])c([H])c2c(c1[H])C([H])([H])C([H])([H])C([H])([H])C2([H])N([H])C(=O)C1([H])N(C(=O)C([H])(N([H])C(=O)C([H])(N([H])C([H])([H])[H])C([H])([H])[H])C(C([H])([H])[H])(C([H])([H])[H])C([H])([H])[H])C([H])([H])c2c([H])c(OC([H])([H])C([H])([H])[N+]([H])([H])C([H])([H])C3(c4nnc(C([H])([H])N([H])C(=O)N5C([H])([H])C([H])([H])C([H])([H])C([H])(n6nc(-c7c([H])c([H])c(Oc8c([H])c([H])c(F)c([H])c8F)c([H])c7[H])c(C(=O)N([H])[H])c6N([H])[H])C5([H])[H])c(N([H])C([H])([H])[H])n4)C([H])([H])C3([H])[H])c([H])c([H])c2C1([H])[H]

>  <smiles>  (94) 
[H]c1c([H])c([H])c2c(c1[H])C([H])([H])C([H])([H])C([H])([H])C2([H])N([H])C(=O)C1([H])N(C(=O)C([H])(N([H])C(=O)C([H])(N([H])C([H])([H])[H])C([H])([H])[H])C(C([H])([H])[H])(C([H])([H])[H])C([H])([H])[H])C([H])([H])c2c([H])c(OC([H])([H])C([H])([H])[N+]([H])([H])C([H])([H])C3(c4nnc(C([H])([H])N([H])C(=O)N5C([H])([H])C([H])([H])C([H])([H])C([H])(n6nc(-c7c([H])c([H])c(Oc8c([H])c([H])c(F)c([H])c8F)c([H])c7[H])c(C(=O)N([H])[H])c6N([H])[H])C5([H])[H])c(N([H])C([H])([H])[H])n4)C([H])([H])C3([H])[H])c([H])c([H])c2C1([H])[H]

$$$$
94:0:0
     RDKit          3D

 92101  0  0  1  0  0  0  0  0999 V2000
  -30.3380  -24.1040   20.5500 C   0  0  0  0  0  3  0  0  0  0  0  0
  -31.1590  -22.9820   20.7420 C   0  0  0  0  0  3  0  0  0  0  0  0
  -28.9820  -23.8670   20.3010 C   0  0  0  0  0  0  0  0  0  0  0  0
  -29.3940  -21.5560   20.4550 C   0  0  0  0  0  0  0  0  0  0  0  0
  -30.6860  -21.7160   20.6880 N   0  0  0  0  0  0  0  0  0  0  0  0
  -28.5310  -22.5680   20.2640 N   0  0  0  0  0  0  0  0  0  0  0  0
  -28.8970  -20.2390   20.4060 N   0  0  0  0  0  0  0  0  0  0  0  0
  -27.9000  -20.1900   20.2360 H   0  0  0  0  0  0  0  0  0  0  0  0
  -30.7060  -14.6430   20.3040 C   0  0  0  0  0  0  0  0  0  0  0  0
  -30.4130  -12.4100   19.2710 C   0  0  0  0  0  2  0  0  0  0  0  0
  -29.4600  -12.5280   18.0640 C   0  0  0  0  0  2  0  0  0  0  0  0
  -27.9980  -12.3680   18.5190 C   0  0  0  0  0  2  0  0  0  0  0  0
  -27.6510  -13.2460   19.7530 C   0  0  0  0  0  3  0  0  0  0  0  0
  -28.7290  -13.1500   20.8550 C   0  0  0  0  0  2  0  0  0  0  0  0
  -30.0230  -13.4590   20.2330 N   0  0  0  0  0  0  0  0  0  0  0  0
  -31.8940  -14.7030   19.9700 O   0  0  0  0  0  0  0  0  0  0  0  0
  -28.9840  -17.9360   19.3350 C   0  0  0  0  0  2  0  0  0  0  0  0
  -29.7170  -18.1370   21.6420 C   0  0  0  0  0  2  0  0  0  0  0  0
  -29.7490  -16.5770   19.2080 C   0  0  0  0  0  2  0  0  0  0  0  0
  -30.4750  -16.7650   21.5150 C   0  0  0  0  0  2  0  0  0  0  0  0
  -29.6360  -18.9400   20.3180 C   0  0  0  0  0  3  0  0  0  0  0  0
  -29.9980  -15.8190   20.4670 N   0  0  0  0  0  0  0  0  0  0  0  0
  -25.2760  -13.8240   20.5320 C   0  0  0  0  0  0  0  0  0  0  0  0
  -24.2180  -13.0430   20.9090 C   0  0  0  0  0  0  0  0  0  0  0  0
  -24.6830  -11.6930   20.8550 C   0  0  0  0  0  0  0  0  0  0  0  0
  -26.3170  -12.9500   20.2670 N   0  0  0  0  0  0  0  0  0  0  0  0
  -25.9690  -11.6630   20.5230 N   0  0  0  0  0  0  0  0  0  0  0  0
  -23.9630  -10.4260   21.0430 C   0  0  0  0  0  0  0  0  0  0  0  0
  -24.4050   -9.4540   21.9670 C   0  0  0  0  0  3  0  0  0  0  0  0
  -23.6850   -8.2540   22.1440 C   0  0  0  0  0  3  0  0  0  0  0  0
  -22.5080   -8.0150   21.3940 C   0  0  0  0  0  0  0  0  0  0  0  0
  -22.0860   -8.9760   20.4580 C   0  0  0  0  0  3  0  0  0  0  0  0
  -22.8060  -10.1680   20.2790 C   0  0  0  0  0  3  0  0  0  0  0  0
  -21.7580   -6.8670   21.4790 O   0  0  0  0  0  0  0  0  0  0  0  0
  -21.7040   -6.1270   22.6330 C   0  0  0  0  0  0  0  0  0  0  0  0
  -21.2590   -6.6820   23.8530 C   0  0  0  0  0  3  0  0  0  0  0  0
  -21.1530   -5.8690   25.0000 C   0  0  0  0  0  3  0  0  0  0  0  0
  -21.4800   -4.5010   24.9260 C   0  0  0  0  0  0  0  0  0  0  0  0
  -21.9160   -3.9460   23.7100 C   0  0  0  0  0  3  0  0  0  0  0  0
  -22.0250   -4.7560   22.5660 C   0  0  0  0  0  0  0  0  0  0  0  0
  -22.4250   -4.2120   21.3920 F   0  0  0  0  0  0  0  0  0  0  0  0
  -21.3710   -3.7170   26.0240 F   0  0  0  0  0  0  0  0  0  0  0  0
  -22.8240  -13.5130   21.2120 C   0  0  0  0  0  0  0  0  0  0  0  0
  -22.1170  -12.8090   22.0890 N   0  0  0  0  0  0  0  0  0  0  0  0
  -22.3720  -14.5390   20.7050 O   0  0  0  0  0  0  0  0  0  0  0  0
  -22.4970  -11.9790   22.5200 H   0  0  0  0  0  0  0  0  0  0  0  0
  -21.1830  -13.1050   22.3350 H   0  0  0  0  0  0  0  0  0  0  0  0
  -25.4360  -15.1970   20.3710 N   0  0  0  0  0  0  0  0  0  0  0  0
  -24.6790  -15.8560   20.5130 H   0  0  0  0  0  0  0  0  0  0  0  0
  -26.2960  -15.6390   20.0700 H   0  0  0  0  0  0  0  0  0  0  0  0
  -27.9710  -25.0180   19.9880 C   0  0  0  0  0  2  0  0  0  0  0  0
  -28.2870  -26.4460   20.2450 O   0  0  0  0  0  0  0  0  0  0  0  0
  -24.6300  -31.8940   23.2650 C   0  0  0  0  0  0  0  0  0  0  0  0
  -27.1950  -27.3320   20.1770 C   0  0  0  0  0  0  0  0  0  0  0  0
  -23.4120  -30.5130   21.6250 C   0  0  0  0  0  3  0  0  0  0  0  0
  -24.8470  -28.9700   20.1830 C   0  0  0  0  0  0  0  0  0  0  0  0
  -25.9550  -30.8140   21.4370 C   0  0  0  0  0  2  0  0  0  0  0  0
  -26.0230  -29.4410   20.7810 C   0  0  0  0  0  0  0  0  0  0  0  0
  -27.2010  -28.6330   20.7720 C   0  0  0  0  0  3  0  0  0  0  0  0
  -25.9940  -26.9310   19.5400 C   0  0  0  0  0  3  0  0  0  0  0  0
  -24.8340  -27.7210   19.5540 C   0  0  0  0  0  3  0  0  0  0  0  0
  -23.6170  -29.8490   20.2400 C   0  0  0  0  0  2  0  0  0  0  0  0
  -24.6860  -31.0890   22.1660 N   0  0  0  0  0  0  0  0  0  0  0  0
  -23.5500  -32.1770   23.8030 O   0  0  0  0  0  0  0  0  0  0  0  0
  -22.7480  -29.4920   22.5800 C   0  0  0  0  0  0  0  0  0  0  0  0
  -21.4210  -29.3200   22.4540 N   0  0  0  0  0  0  0  0  0  0  0  0
  -23.4250  -28.8580   23.3940 O   0  0  0  0  0  0  0  0  0  0  0  0
  -20.9330  -29.8830   21.7700 H   0  0  0  0  0  0  0  0  0  0  0  0
  -18.0380  -28.1410   22.9550 C   0  0  0  0  0  0  0  0  0  0  0  0
  -20.5980  -28.3850   23.2230 C   0  0  0  0  0  3  0  0  0  0  0  0
  -20.6910  -26.9550   22.6460 C   0  0  0  0  0  2  0  0  0  0  0  0
  -19.5860  -26.6400   21.6320 C   0  0  0  0  0  2  0  0  0  0  0  0
  -18.2060  -26.7920   22.2770 C   0  0  0  0  0  2  0  0  0  0  0  0
  -19.1610  -28.8970   23.3850 C   0  0  0  0  0  0  0  0  0  0  0  0
  -18.9500  -30.1590   23.9790 C   0  0  0  0  0  3  0  0  0  0  0  0
  -17.6480  -30.6690   24.1460 C   0  0  0  0  0  3  0  0  0  0  0  0
  -16.5390  -29.9110   23.7320 C   0  0  0  0  0  3  0  0  0  0  0  0
  -16.7340  -28.6490   23.1430 C   0  0  0  0  0  3  0  0  0  0  0  0
  -25.9190  -32.5160   23.8850 C   0  0  0  0  0  3  0  0  0  0  0  0
  -25.6200  -33.9150   24.2190 N   0  0  0  0  0  0  0  0  0  0  0  0
  -25.9340  -34.9660   23.4490 C   0  0  0  0  0  0  0  0  0  0  0  0
  -26.5750  -34.8590   22.4010 O   0  0  0  0  0  0  0  0  0  0  0  0
  -25.0470  -34.0720   25.0350 H   0  0  0  0  0  0  0  0  0  0  0  0
  -24.1850  -36.7510   23.1500 C   0  0  0  0  0  1  0  0  0  0  0  0
  -25.4580  -36.3560   23.9150 C   0  0  0  0  0  3  0  0  0  0  0  0
  -27.6210  -37.2530   24.6570 C   0  0  0  0  0  1  0  0  0  0  0  0
  -26.4820  -37.4120   23.7560 N   0  0  0  0  0  0  0  0  0  0  0  0
  -26.0790  -38.3320   23.9150 H   0  0  0  0  0  0  0  0  0  0  0  0
  -26.4330  -31.7370   25.1580 C   0  0  1  0  0  0  0  0  0  0  0  0
  -25.3400  -31.5040   26.2260 C   0  0  0  0  0  1  0  0  0  0  0  0
  -27.0060  -30.3580   24.7620 C   0  0  0  0  0  1  0  0  0  0  0  0
  -27.5900  -32.5220   25.8190 C   0  0  0  0  0  1  0  0  0  0  0  0
  1  2  2  0
  3  1  1  0
  4  5  2  0
  5  2  1  0
  6  3  2  0
  6  4  1  0
  7  4  1  0
  8  7  1  0
  9 22  1  0
 10 15  1  0
 11 12  1  0
 11 10  1  0
 13 12  1  0
 13 26  1  0
 13 14  1  0
 15  9  1  0
 15 14  1  0
 16  9  2  0
 17 21  1  0
 19 17  1  0
 19 22  1  0
 20 18  1  0
 21  7  1  0
 21 18  1  0
 22 20  1  0
 23 24  2  0
 24 43  1  0
 25 24  1  0
 25 28  1  0
 26 27  1  0
 26 23  1  0
 27 25  2  0
 28 29  1  0
 29 30  2  0
 31 34  1  0
 31 30  1  0
 32 31  2  0
 33 32  1  0
 33 28  2  0
 34 35  1  0
 35 36  1  0
 36 37  2  0
 38 37  1  0
 38 42  1  0
 39 38  2  0
 40 35  2  0
 40 39  1  0
 41 40  1  0
 43 44  1  0
 44 47  1  0
 44 46  1  0
 45 43  2  0
 48 49  1  0
 48 23  1  0
 50 48  1  0
 51 52  1  0
 51  3  1  0
 53 64  2  0
 54 52  1  0
 54 59  1  0
 55 63  1  0
 55 65  1  0
 56 62  1  0
 56 58  1  0
 57 63  1  0
 58 57  1  0
 59 58  2  0
 60 61  1  0
 60 54  2  0
 61 56  2  0
 62 55  1  0
 63 53  1  0
 65 67  2  0
 66 65  1  0
 68 66  1  0
 69 78  2  0
 69 74  1  0
 70 66  1  0
 70 74  1  0
 71 70  1  0
 72 73  1  0
 72 71  1  0
 73 69  1  0
 74 75  2  0
 75 76  1  0
 77 76  2  0
 78 77  1  0
 79 53  1  0
 79 80  1  0
 79 89  1  0
 80 83  1  0
 81 85  1  0
 81 80  1  0
 82 81  2  0
 85 84  1  0
 87 85  1  0
 87 88  1  0
 87 86  1  0
 89 92  1  1
 89 90  1  0
 91 89  1  0
M  ISO  4   9 100  22 100  51 101  52 101
M  END
>  <TORSDO>  (95) 
F 17

>  <SCORE>  (95) 
-15.013

>  <name>  (95) 
94

>  <ligand_id>  (95) 
94

>  <original_smiles>  (95) 
[H]c1nc(N([H])C2([H])C([H])([H])C([H])([H])N(C(=O)N3C([H])([H])C([H])([H])C([H])([H])C([H])(n4nc(-c5c([H])c([H])c(Oc6c([H])c([H])c(F)c([H])c6F)c([H])c5[H])c(C(=O)N([H])[H])c4N([H])[H])C3([H])[H])C([H])([H])C2([H])[H])nc(C([H])([H])Oc2c([H])c([H])c3c(c2[H])C([H])([H])N(C(=O)C([H])(N([H])C(=O)C([H])(N([H])C([H])([H])[H])C([H])([H])[H])C(C([H])([H])[H])(C([H])([H])[H])C([H])([H])[H])C([H])(C(=O)N([H])C2([H])c4c([H])c([H])c([H])c([H])c4C([H])([H])C([H])([H])C2([H])[H])C3([H])[H])c1[H]

>  <smiles>  (95) 
[H]c1nc(N([H])C2([H])C([H])([H])C([H])([H])N(C(=O)N3C([H])([H])C([H])([H])C([H])([H])C([H])(n4nc(-c5c([H])c([H])c(Oc6c([H])c([H])c(F)c([H])c6F)c([H])c5[H])c(C(=O)N([H])[H])c4N([H])[H])C3([H])[H])C([H])([H])C2([H])[H])nc(C([H])([H])Oc2c([H])c([H])c3c(c2[H])C([H])([H])N(C(=O)C([H])(N([H])C(=O)C([H])(N([H])C([H])([H])[H])C([H])([H])[H])C(C([H])([H])[H])(C([H])([H])[H])C([H])([H])[H])C([H])(C(=O)N([H])C2([H])c4c([H])c([H])c([H])c([H])c4C([H])([H])C([H])([H])C2([H])[H])C3([H])[H])c1[H]

$$$$
95:0:0
     RDKit          3D

 94103  0  0  1  0  0  0  0  0999 V2000
  -31.2150  -21.2150   21.5080 C   0  0  0  0  0  2  0  0  0  0  0  0
  -28.8240  -20.7310   20.8350 C   0  0  0  0  0  2  0  0  0  0  0  0
  -31.0860  -22.5740   20.7750 C   0  0  0  0  0  2  0  0  0  0  0  0
  -28.7780  -22.1390   20.1640 C   0  0  0  0  0  2  0  0  0  0  0  0
  -30.2410  -20.1090   21.0220 C   0  0  0  0  0  3  0  0  0  0  0  0
  -29.6980  -23.1160   20.8170 N   0  0  2  0  0  4  0  0  0  0  0  0
  -29.4350  -23.1670   21.7930 H   0  0  0  0  0  0  0  0  0  0  0  0
  -30.7420  -19.3360   19.8400 N   0  0  0  0  0  4  0  0  0  0  0  0
  -31.6850  -19.6490   19.6670 H   0  0  0  0  0  0  0  0  0  0  0  0
  -30.2220  -19.5860   19.0150 H   0  0  0  0  0  0  0  0  0  0  0  0
  -29.7140  -17.2600   19.0730 C   0  0  0  0  0  2  0  0  0  0  0  0
  -29.7420  -16.9700   20.5580 C   0  0  0  0  0  3  0  0  0  0  0  0
  -30.8400  -17.8350   19.9050 C   0  0  0  0  0  3  0  0  0  0  0  0
  -30.6130  -14.5530   20.4570 C   0  0  0  0  0  0  0  0  0  0  0  0
  -30.3670  -12.3730   19.3230 C   0  0  0  0  0  2  0  0  0  0  0  0
  -29.4140  -12.5910   18.1280 C   0  0  0  0  0  2  0  0  0  0  0  0
  -27.9410  -12.4400   18.5620 C   0  0  0  0  0  2  0  0  0  0  0  0
  -27.6090  -13.2600   19.8370 C   0  0  0  0  0  3  0  0  0  0  0  0
  -28.6710  -13.0170   20.9350 C   0  0  0  0  0  2  0  0  0  0  0  0
  -29.9940  -13.3400   20.3680 N   0  0  0  0  0  0  0  0  0  0  0  0
  -31.7340  -14.7700   19.9920 O   0  0  0  0  0  0  0  0  0  0  0  0
  -29.7960  -15.5480   20.8750 N   0  0  0  0  0  0  0  0  0  0  0  0
  -28.9470  -15.1950   21.2890 H   0  0  0  0  0  0  0  0  0  0  0  0
  -25.2100  -13.8700   20.5430 C   0  0  0  0  0  0  0  0  0  0  0  0
  -24.1430  -13.0990   20.9190 C   0  0  0  0  0  0  0  0  0  0  0  0
  -24.6030  -11.7470   20.8860 C   0  0  0  0  0  0  0  0  0  0  0  0
  -26.2550  -12.9880   20.3150 N   0  0  0  0  0  0  0  0  0  0  0  0
  -25.8920  -11.7070   20.5750 N   0  0  0  0  0  0  0  0  0  0  0  0
  -23.8750  -10.4870   21.0800 C   0  0  0  0  0  0  0  0  0  0  0  0
  -24.3240   -9.5090   21.9950 C   0  0  0  0  0  3  0  0  0  0  0  0
  -23.5970   -8.3140   22.1770 C   0  0  0  0  0  3  0  0  0  0  0  0
  -22.4070   -8.0860   21.4440 C   0  0  0  0  0  0  0  0  0  0  0  0
  -21.9770   -9.0540   20.5200 C   0  0  0  0  0  3  0  0  0  0  0  0
  -22.7050  -10.2410   20.3360 C   0  0  0  0  0  3  0  0  0  0  0  0
  -21.6520   -6.9420   21.5360 O   0  0  0  0  0  0  0  0  0  0  0  0
  -21.6430   -6.1750   22.6740 C   0  0  0  0  0  0  0  0  0  0  0  0
  -21.2810   -6.7110   23.9300 C   0  0  0  0  0  3  0  0  0  0  0  0
  -21.2160   -5.8730   25.0610 C   0  0  0  0  0  3  0  0  0  0  0  0
  -21.5030   -4.5000   24.9380 C   0  0  0  0  0  0  0  0  0  0  0  0
  -21.8570   -3.9640   23.6880 C   0  0  0  0  0  3  0  0  0  0  0  0
  -21.9260   -4.7990   22.5590 C   0  0  0  0  0  0  0  0  0  0  0  0
  -22.2480   -4.2730   21.3520 F   0  0  0  0  0  0  0  0  0  0  0  0
  -21.4340   -3.6930   26.0230 F   0  0  0  0  0  0  0  0  0  0  0  0
  -22.7470  -13.5770   21.1980 C   0  0  0  0  0  0  0  0  0  0  0  0
  -22.0220  -12.8830   22.0680 N   0  0  0  0  0  0  0  0  0  0  0  0
  -22.3080  -14.6020   20.6790 O   0  0  0  0  0  0  0  0  0  0  0  0
  -22.3870  -12.0520   22.5110 H   0  0  0  0  0  0  0  0  0  0  0  0
  -21.0860  -13.1880   22.2950 H   0  0  0  0  0  0  0  0  0  0  0  0
  -25.3690  -15.2410   20.3590 N   0  0  0  0  0  0  0  0  0  0  0  0
  -24.5890  -15.8820   20.4540 H   0  0  0  0  0  0  0  0  0  0  0  0
  -26.2030  -15.6870   19.9960 H   0  0  0  0  0  0  0  0  0  0  0  0
  -29.6390  -24.5340   20.3060 C   0  0  0  0  0  2  0  0  0  0  0  0
  -28.2610  -25.2550   20.3890 C   0  0  0  0  0  2  0  0  0  0  0  0
  -28.3810  -26.6850   20.1840 O   0  0  0  0  0  0  0  0  0  0  0  0
  -24.5930  -31.9170   23.2410 C   0  0  0  0  0  0  0  0  0  0  0  0
  -27.2120  -27.4310   20.1770 C   0  0  0  0  0  0  0  0  0  0  0  0
  -23.3790  -30.5170   21.6060 C   0  0  0  0  0  3  0  0  0  0  0  0
  -24.8250  -28.9700   20.1810 C   0  0  0  0  0  0  0  0  0  0  0  0
  -25.9090  -30.8600   21.4040 C   0  0  0  0  0  2  0  0  0  0  0  0
  -25.9880  -29.4840   20.7670 C   0  0  0  0  0  0  0  0  0  0  0  0
  -27.1850  -28.7250   20.7550 C   0  0  0  0  0  3  0  0  0  0  0  0
  -26.0250  -26.9430   19.5800 C   0  0  0  0  0  3  0  0  0  0  0  0
  -24.8410  -27.7000   19.5830 C   0  0  0  0  0  3  0  0  0  0  0  0
  -23.5850  -29.8360   20.2260 C   0  0  0  0  0  2  0  0  0  0  0  0
  -24.6450  -31.1130   22.1410 N   0  0  0  0  0  0  0  0  0  0  0  0
  -23.5140  -32.1950   23.7820 O   0  0  0  0  0  0  0  0  0  0  0  0
  -22.7260  -29.4980   22.5680 C   0  0  0  0  0  0  0  0  0  0  0  0
  -21.4000  -29.3190   22.4430 N   0  0  0  0  0  0  0  0  0  0  0  0
  -23.4080  -28.8750   23.3850 O   0  0  0  0  0  0  0  0  0  0  0  0
  -20.9100  -29.8770   21.7560 H   0  0  0  0  0  0  0  0  0  0  0  0
  -18.0240  -28.1250   22.9360 C   0  0  0  0  0  0  0  0  0  0  0  0
  -20.5810  -28.3840   23.2150 C   0  0  0  0  0  3  0  0  0  0  0  0
  -20.6840  -26.9490   22.6470 C   0  0  0  0  0  2  0  0  0  0  0  0
  -19.5860  -26.6220   21.6320 C   0  0  0  0  0  2  0  0  0  0  0  0
  -18.2020  -26.7710   22.2690 C   0  0  0  0  0  2  0  0  0  0  0  0
  -19.1420  -28.8890   23.3660 C   0  0  0  0  0  0  0  0  0  0  0  0
  -18.9210  -30.1570   23.9470 C   0  0  0  0  0  3  0  0  0  0  0  0
  -17.6160  -30.6600   24.1010 C   0  0  0  0  0  3  0  0  0  0  0  0
  -16.5120  -29.8930   23.6890 C   0  0  0  0  0  3  0  0  0  0  0  0
  -16.7180  -28.6270   23.1130 C   0  0  0  0  0  3  0  0  0  0  0  0
  -25.8820  -32.5460   23.8560 C   0  0  0  0  0  3  0  0  0  0  0  0
  -26.4050  -31.7700   25.1270 C   0  0  1  0  0  0  0  0  0  0  0  0
  -25.3190  -31.5310   26.2020 C   0  0  0  0  0  1  0  0  0  0  0  0
  -26.9820  -30.3920   24.7260 C   0  0  0  0  0  1  0  0  0  0  0  0
  -27.5630  -32.5590   25.7840 C   0  0  0  0  0  1  0  0  0  0  0  0
  -25.5780  -33.9440   24.1900 N   0  0  0  0  0  0  0  0  0  0  0  0
  -25.9080  -34.9960   23.4280 C   0  0  0  0  0  0  0  0  0  0  0  0
  -26.5740  -34.8900   22.3940 O   0  0  0  0  0  0  0  0  0  0  0  0
  -24.9900  -34.0990   24.9960 H   0  0  0  0  0  0  0  0  0  0  0  0
  -24.1800  -36.7880   23.0770 C   0  0  0  0  0  1  0  0  0  0  0  0
  -25.4230  -36.3850   23.8850 C   0  0  0  0  0  3  0  0  0  0  0  0
  -27.5650  -37.2650   24.7050 C   0  0  0  0  0  1  0  0  0  0  0  0
  -26.4570  -37.4360   23.7670 N   0  0  0  0  0  0  0  0  0  0  0  0
  -26.0530  -38.3570   23.9190 H   0  0  0  0  0  0  0  0  0  0  0  0
  2  5  1  0
  3  6  1  0
  3  1  1  0
  4  6  1  0
  4  2  1  0
  5  8  1  0
  5  1  1  0
  6  7  1  1
  9  8  1  0
 10  8  1  0
 11 13  1  0
 11 12  1  0
 12 22  1  0
 13  8  1  0
 13 12  1  0
 14 22  1  0
 15 20  1  0
 16 17  1  0
 16 15  1  0
 18 17  1  0
 18 27  1  0
 18 19  1  0
 20 14  1  0
 20 19  1  0
 21 14  2  0
 22 23  1  0
 24 25  2  0
 25 44  1  0
 26 25  1  0
 26 29  1  0
 27 24  1  0
 27 28  1  0
 28 26  2  0
 29 30  1  0
 30 31  2  0
 32 35  1  0
 32 31  1  0
 33 32  2  0
 34 33  1  0
 34 29  2  0
 35 36  1  0
 36 37  1  0
 37 38  2  0
 39 38  1  0
 39 43  1  0
 40 39  2  0
 41 36  2  0
 41 40  1  0
 42 41  1  0
 44 45  1  0
 45 48  1  0
 45 47  1  0
 46 44  2  0
 49 50  1  0
 49 24  1  0
 51 49  1  0
 52 53  1  0
 52  6  1  0
 54 53  1  0
 55 66  2  0
 56 54  1  0
 56 61  1  0
 57 65  1  0
 57 67  1  0
 58 64  1  0
 58 60  1  0
 59 65  1  0
 60 59  1  0
 61 60  2  0
 62 63  1  0
 62 56  2  0
 63 58  2  0
 64 57  1  0
 65 55  1  0
 67 69  2  0
 68 67  1  0
 70 68  1  0
 71 80  2  0
 71 76  1  0
 72 68  1  0
 72 76  1  0
 73 72  1  0
 74 75  1  0
 74 73  1  0
 75 71  1  0
 76 77  2  0
 77 78  1  0
 79 78  2  0
 80 79  1  0
 81 55  1  0
 81 86  1  0
 81 82  1  0
 82 85  1  1
 82 83  1  0
 84 82  1  0
 86 89  1  0
 87 91  1  0
 87 86  1  0
 88 87  2  0
 91 90  1  0
 93 91  1  0
 93 94  1  0
 93 92  1  0
M  ISO  4  14 100  22 100  53 101  54 101
M  END
>  <TORSDO>  (96) 
F 20

>  <SCORE>  (96) 
-14.091

>  <name>  (96) 
95

>  <ligand_id>  (96) 
95

>  <original_smiles>  (96) 
[H]c1c([H])c([H])c2c(c1[H])C([H])([H])C([H])([H])C([H])([H])C2([H])N([H])C(=O)C1([H])N(C(=O)C([H])(N([H])C(=O)C([H])(N([H])C([H])([H])[H])C([H])([H])[H])C(C([H])([H])[H])(C([H])([H])[H])C([H])([H])[H])C([H])([H])c2c([H])c(OC([H])([H])C([H])([H])[N+]3([H])C([H])([H])C([H])([H])C([H])([N+]([H])([H])C4([H])C([H])([H])C4([H])N([H])C(=O)N4C([H])([H])C([H])([H])C([H])([H])C([H])(n5nc(-c6c([H])c([H])c(Oc7c([H])c([H])c(F)c([H])c7F)c([H])c6[H])c(C(=O)N([H])[H])c5N([H])[H])C4([H])[H])C([H])([H])C3([H])[H])c([H])c([H])c2C1([H])[H]

>  <smiles>  (96) 
[H]c1c([H])c([H])c2c(c1[H])C([H])([H])C([H])([H])C([H])([H])C2([H])N([H])C(=O)C1([H])N(C(=O)C([H])(N([H])C(=O)C([H])(N([H])C([H])([H])[H])C([H])([H])[H])C(C([H])([H])[H])(C([H])([H])[H])C([H])([H])[H])C([H])([H])c2c([H])c(OC([H])([H])C([H])([H])[N+]3([H])C([H])([H])C([H])([H])C([H])([N+]([H])([H])C4([H])C([H])([H])C4([H])N([H])C(=O)N4C([H])([H])C([H])([H])C([H])([H])C([H])(n5nc(-c6c([H])c([H])c(Oc7c([H])c([H])c(F)c([H])c7F)c([H])c6[H])c(C(=O)N([H])[H])c5N([H])[H])C4([H])[H])C([H])([H])C3([H])[H])c([H])c([H])c2C1([H])[H]

$$$$
96:0:0
     RDKit          3D

 88 96  0  0  1  0  0  0  0  0999 V2000
  -28.7410  -21.8950   20.3910 N   0  0  0  0  0  4  0  0  0  0  0  0
  -29.1510  -21.9370   21.3100 H   0  0  0  0  0  0  0  0  0  0  0  0
  -27.7630  -21.7040   20.5320 H   0  0  0  0  0  0  0  0  0  0  0  0
  -29.3540  -20.5900   19.7110 C   0  0  0  0  0  2  0  0  0  0  0  0
  -30.5070  -15.0720   20.1260 C   0  0  0  0  0  0  0  0  0  0  0  0
  -30.3550  -12.7400   19.1400 C   0  0  0  0  0  2  0  0  0  0  0  0
  -29.3850  -12.6880   17.9380 C   0  0  0  0  0  2  0  0  0  0  0  0
  -27.9360  -12.4470   18.3990 C   0  0  0  0  0  2  0  0  0  0  0  0
  -27.5580  -13.3310   19.6090 C   0  0  0  0  0  3  0  0  0  0  0  0
  -28.6480  -13.3560   20.7080 C   0  0  0  0  0  2  0  0  0  0  0  0
  -29.8790  -13.8200   20.0580 N   0  0  0  0  0  0  0  0  0  0  0  0
  -31.7100  -15.0690   19.8360 O   0  0  0  0  0  0  0  0  0  0  0  0
  -28.0600  -18.1770   20.3180 C   0  0  0  0  0  2  0  0  0  0  0  0
  -28.4390  -16.6740   20.6430 C   0  0  0  0  0  2  0  0  0  0  0  0
  -30.3410  -17.7880   19.9650 C   0  0  0  0  0  2  0  0  0  0  0  0
  -29.3410  -19.0300   20.3990 C   0  0  0  0  0  3  0  0  0  0  0  0
  -29.8230  -16.3490   20.2330 N   0  0  0  0  0  0  0  0  0  0  0  0
  -25.1960  -13.9020   20.4180 C   0  0  0  0  0  0  0  0  0  0  0  0
  -24.1500  -13.1220   20.8250 C   0  0  0  0  0  0  0  0  0  0  0  0
  -24.6240  -11.7780   20.7770 C   0  0  0  0  0  0  0  0  0  0  0  0
  -26.2370  -13.0310   20.1470 N   0  0  0  0  0  0  0  0  0  0  0  0
  -25.9060  -11.7460   20.4310 N   0  0  0  0  0  0  0  0  0  0  0  0
  -23.9080  -10.5150   20.9720 C   0  0  0  0  0  0  0  0  0  0  0  0
  -24.3670   -9.5460   21.8930 C   0  0  0  0  0  3  0  0  0  0  0  0
  -23.6490   -8.3460   22.0810 C   0  0  0  0  0  3  0  0  0  0  0  0
  -22.4600   -8.1070   21.3480 C   0  0  0  0  0  0  0  0  0  0  0  0
  -22.0260   -9.0630   20.4140 C   0  0  0  0  0  3  0  0  0  0  0  0
  -22.7460  -10.2530   20.2220 C   0  0  0  0  0  3  0  0  0  0  0  0
  -21.7010   -6.9660   21.4580 O   0  0  0  0  0  0  0  0  0  0  0  0
  -21.6670   -6.2310   22.6150 C   0  0  0  0  0  0  0  0  0  0  0  0
  -21.2550   -6.7910   23.8450 C   0  0  0  0  0  3  0  0  0  0  0  0
  -21.1660   -5.9780   24.9940 C   0  0  0  0  0  3  0  0  0  0  0  0
  -21.4790   -4.6080   24.9140 C   0  0  0  0  0  0  0  0  0  0  0  0
  -21.8850   -4.0490   23.6890 C   0  0  0  0  0  3  0  0  0  0  0  0
  -21.9770   -4.8580   22.5440 C   0  0  0  0  0  0  0  0  0  0  0  0
  -22.3480   -4.3070   21.3620 F   0  0  0  0  0  0  0  0  0  0  0  0
  -21.3860   -3.8290   26.0140 F   0  0  0  0  0  0  0  0  0  0  0  0
  -22.7610  -13.5960   21.1350 C   0  0  0  0  0  0  0  0  0  0  0  0
  -22.0610  -12.9020   22.0240 N   0  0  0  0  0  0  0  0  0  0  0  0
  -22.3120  -14.6210   20.6250 O   0  0  0  0  0  0  0  0  0  0  0  0
  -22.4430  -12.0780   22.4640 H   0  0  0  0  0  0  0  0  0  0  0  0
  -21.1270  -13.1980   22.2700 H   0  0  0  0  0  0  0  0  0  0  0  0
  -25.3160  -15.2720   20.2370 N   0  0  0  0  0  0  0  0  0  0  0  0
  -24.5400  -15.9080   20.3900 H   0  0  0  0  0  0  0  0  0  0  0  0
  -26.1270  -15.7320   19.8510 H   0  0  0  0  0  0  0  0  0  0  0  0
  -28.8290  -23.3810   19.7970 C   0  0  0  0  0  3  0  0  0  0  0  0
  -28.1260  -24.7280   20.5470 C   0  0  0  0  0  3  0  0  0  0  0  0
  -28.3270  -26.2450   20.2260 O   0  0  0  0  0  0  0  0  0  0  0  0
  -24.6120  -31.8910   23.2280 C   0  0  0  0  0  0  0  0  0  0  0  0
  -27.2470  -27.1980   20.2260 C   0  0  0  0  0  0  0  0  0  0  0  0
  -23.4300  -30.4850   21.5830 C   0  0  0  0  0  3  0  0  0  0  0  0
  -24.8940  -28.9050   20.1870 C   0  0  0  0  0  0  0  0  0  0  0  0
  -25.9840  -30.7660   21.4370 C   0  0  0  0  0  2  0  0  0  0  0  0
  -26.0710  -29.3730   20.7870 C   0  0  0  0  0  0  0  0  0  0  0  0
  -27.2500  -28.5400   20.7830 C   0  0  0  0  0  3  0  0  0  0  0  0
  -26.0410  -26.8220   19.6000 C   0  0  0  0  0  3  0  0  0  0  0  0
  -24.8890  -27.6370   19.5840 C   0  0  0  0  0  3  0  0  0  0  0  0
  -23.6660  -29.7990   20.2110 C   0  0  0  0  0  2  0  0  0  0  0  0
  -24.6950  -31.0680   22.1370 N   0  0  0  0  0  0  0  0  0  0  0  0
  -23.5230  -32.1720   23.7490 O   0  0  0  0  0  0  0  0  0  0  0  0
  -22.7480  -29.4790   22.5420 C   0  0  0  0  0  0  0  0  0  0  0  0
  -21.4220  -29.3050   22.4070 N   0  0  0  0  0  0  0  0  0  0  0  0
  -23.4120  -28.8590   23.3740 O   0  0  0  0  0  0  0  0  0  0  0  0
  -20.9370  -29.8600   21.7150 H   0  0  0  0  0  0  0  0  0  0  0  0
  -18.0450  -28.0830   22.8740 C   0  0  0  0  0  0  0  0  0  0  0  0
  -20.5980  -28.3670   23.1730 C   0  0  0  0  0  3  0  0  0  0  0  0
  -20.7160  -26.9310   22.6120 C   0  0  0  0  0  2  0  0  0  0  0  0
  -19.6300  -26.5900   21.5860 C   0  0  0  0  0  2  0  0  0  0  0  0
  -18.2380  -26.7300   22.2100 C   0  0  0  0  0  2  0  0  0  0  0  0
  -19.1520  -28.8570   23.3120 C   0  0  0  0  0  0  0  0  0  0  0  0
  -18.9150  -30.1200   23.8970 C   0  0  0  0  0  3  0  0  0  0  0  0
  -17.6050  -30.6130   24.0450 C   0  0  0  0  0  3  0  0  0  0  0  0
  -16.5110  -29.8380   23.6270 C   0  0  0  0  0  3  0  0  0  0  0  0
  -16.7330  -28.5760   23.0470 C   0  0  0  0  0  3  0  0  0  0  0  0
  -25.8840  -32.5320   23.8650 C   0  0  0  0  0  3  0  0  0  0  0  0
  -26.3840  -31.7750   25.1580 C   0  0  1  0  0  0  0  0  0  0  0  0
  -25.2780  -31.5590   26.2160 C   0  0  0  0  0  1  0  0  0  0  0  0
  -26.9710  -30.3920   24.7960 C   0  0  0  0  0  1  0  0  0  0  0  0
  -27.5220  -32.5810   25.8270 C   0  0  0  0  0  1  0  0  0  0  0  0
  -25.5690  -33.9330   24.1820 N   0  0  0  0  0  0  0  0  0  0  0  0
  -25.9050  -34.9870   23.4240 C   0  0  0  0  0  0  0  0  0  0  0  0
  -26.5810  -34.8830   22.3990 O   0  0  0  0  0  0  0  0  0  0  0  0
  -24.9780  -34.0890   24.9850 H   0  0  0  0  0  0  0  0  0  0  0  0
  -24.1780  -36.7770   23.0540 C   0  0  0  0  0  1  0  0  0  0  0  0
  -25.4130  -36.3770   23.8750 C   0  0  0  0  0  3  0  0  0  0  0  0
  -27.5420  -37.2650   24.7160 C   0  0  0  0  0  1  0  0  0  0  0  0
  -26.4470  -37.4290   23.7640 N   0  0  0  0  0  0  0  0  0  0  0  0
  -26.0380  -38.3490   23.9110 H   0  0  0  0  0  0  0  0  0  0  0  0
  1  3  1  0
  1  2  1  0
  4  1  1  0
  5 17  1  0
  6 11  1  0
  7  8  1  0
  7  6  1  0
  9  8  1  0
  9 21  1  0
  9 10  1  0
 11  5  1  0
 11 10  1  0
 12  5  2  0
 13 16  1  0
 13 14  1  0
 15 17  1  0
 15 16  1  0
 16  4  1  0
 17 14  1  0
 18 19  2  0
 19 38  1  0
 20 19  1  0
 20 23  1  0
 21 18  1  0
 21 22  1  0
 22 20  2  0
 23 24  1  0
 24 25  2  0
 26 29  1  0
 26 25  1  0
 27 26  2  0
 28 27  1  0
 28 23  2  0
 29 30  1  0
 30 31  1  0
 31 32  2  0
 33 32  1  0
 33 37  1  0
 34 33  2  0
 35 30  2  0
 35 34  1  0
 36 35  1  0
 38 39  1  0
 39 42  1  0
 39 41  1  0
 40 38  2  0
 43 44  1  0
 43 18  1  0
 45 43  1  0
 46  1  1  0
 46 47  2  0
 48 50  1  0
 48 47  1  0
 49 60  2  0
 50 55  1  0
 51 59  1  0
 51 61  1  0
 52 58  1  0
 52 54  1  0
 53 59  1  0
 54 53  1  0
 55 54  2  0
 56 50  2  0
 57 56  1  0
 57 52  2  0
 58 51  1  0
 59 49  1  0
 61 63  2  0
 62 61  1  0
 64 62  1  0
 65 74  2  0
 65 70  1  0
 66 62  1  0
 66 70  1  0
 67 66  1  0
 68 69  1  0
 68 67  1  0
 69 65  1  0
 70 71  2  0
 71 72  1  0
 73 72  2  0
 74 73  1  0
 75 49  1  0
 75 80  1  0
 75 76  1  0
 76 79  1  1
 76 77  1  0
 78 76  1  0
 80 83  1  0
 81 85  1  0
 81 80  1  0
 82 81  2  0
 85 84  1  0
 87 85  1  0
 87 88  1  0
 87 86  1  0
M  ISO  4   5 100  17 100  47 101  48 101
M  END
>  <TORSDO>  (97) 
F 19

>  <SCORE>  (97) 
-14.742

>  <name>  (97) 
96

>  <ligand_id>  (97) 
96

>  <original_smiles>  (97) 
[H]c1c([H])c([H])c2c(c1[H])C([H])([H])C([H])([H])C([H])([H])C2([H])N([H])C(=O)C1([H])N(C(=O)C([H])(N([H])C(=O)C([H])(N([H])C([H])([H])[H])C([H])([H])[H])C(C([H])([H])[H])(C([H])([H])[H])C([H])([H])[H])C([H])([H])c2c([H])c(OC([H])([H])C([H])([H])[N+]([H])([H])C([H])([H])C3([H])C([H])([H])N(C(=O)N4C([H])([H])C([H])([H])C([H])([H])C([H])(n5nc(-c6c([H])c([H])c(Oc7c([H])c([H])c(F)c([H])c7F)c([H])c6[H])c(C(=O)N([H])[H])c5N([H])[H])C4([H])[H])C([H])([H])C3([H])[H])c([H])c([H])c2C1([H])[H]

>  <smiles>  (97) 
[H]c1c([H])c([H])c2c(c1[H])C([H])([H])C([H])([H])C([H])([H])C2([H])N([H])C(=O)C1([H])N(C(=O)C([H])(N([H])C(=O)C([H])(N([H])C([H])([H])[H])C([H])([H])[H])C(C([H])([H])[H])(C([H])([H])[H])C([H])([H])[H])C([H])([H])c2c([H])c(OC([H])([H])C([H])([H])[N+]([H])([H])C([H])([H])C3([H])C([H])([H])N(C(=O)N4C([H])([H])C([H])([H])C([H])([H])C([H])(n5nc(-c6c([H])c([H])c(Oc7c([H])c([H])c(F)c([H])c7F)c([H])c6[H])c(C(=O)N([H])[H])c5N([H])[H])C4([H])[H])C([H])([H])C3([H])[H])c([H])c([H])c2C1([H])[H]

$$$$
97:0:0
     RDKit          3D

 89 98  0  0  1  0  0  0  0  0999 V2000
  -30.0890  -22.7910   19.5140 C   0  0  0  0  0  3  0  0  0  0  0  0
  -28.8460  -23.0660   20.0580 C   0  0  0  0  0  0  0  0  0  0  0  0
  -29.3850  -20.6380   20.0370 C   0  0  0  0  0  3  0  0  0  0  0  0
  -27.2320  -21.3240   21.0850 C   0  0  0  0  0  1  0  0  0  0  0  0
  -28.4770  -21.6780   20.3960 N   0  0  0  0  0  0  0  0  0  0  0  0
  -30.3680  -21.4100   19.5250 N   0  0  0  0  0  0  0  0  0  0  0  0
  -31.2300  -21.0240   19.1630 H   0  0  0  0  0  0  0  0  0  0  0  0
  -30.6950  -15.3660   19.9280 C   0  0  0  0  0  0  0  0  0  0  0  0
  -30.5870  -12.9670   18.9920 C   0  0  0  0  0  2  0  0  0  0  0  0
  -29.5910  -12.8400   17.8160 C   0  0  0  0  0  2  0  0  0  0  0  0
  -28.1660  -12.5770   18.3340 C   0  0  0  0  0  2  0  0  0  0  0  0
  -27.7980  -13.4980   19.5260 C   0  0  0  0  0  3  0  0  0  0  0  0
  -28.9190  -13.5900   20.5820 C   0  0  0  0  0  2  0  0  0  0  0  0
  -30.1130  -14.0800   19.8830 N   0  0  0  0  0  0  0  0  0  0  0  0
  -31.8940  -15.3870   19.6240 O   0  0  0  0  0  0  0  0  0  0  0  0
  -29.8850  -17.7850   19.0590 C   0  0  0  0  0  2  0  0  0  0  0  0
  -30.1820  -17.8140   21.0110 C   0  0  0  0  0  2  0  0  0  0  0  0
  -29.3980  -18.9090   20.1160 C   0  0  0  0  0  3  0  0  0  0  0  0
  -29.9380  -16.6170   20.0640 N   0  0  0  0  0  0  0  0  0  0  0  0
  -25.4810  -14.0260   20.4540 C   0  0  0  0  0  0  0  0  0  0  0  0
  -24.4420  -13.2300   20.8570 C   0  0  0  0  0  0  0  0  0  0  0  0
  -24.9080  -11.8850   20.7420 C   0  0  0  0  0  0  0  0  0  0  0  0
  -26.5050  -13.1620   20.1090 N   0  0  0  0  0  0  0  0  0  0  0  0
  -26.1780  -11.8660   20.3520 N   0  0  0  0  0  0  0  0  0  0  0  0
  -24.1940  -10.6120   20.9260 C   0  0  0  0  0  0  0  0  0  0  0  0
  -24.6170   -9.6590   21.8800 C   0  0  0  0  0  3  0  0  0  0  0  0
  -23.9000   -8.4550   22.0560 C   0  0  0  0  0  3  0  0  0  0  0  0
  -22.7470   -8.1950   21.2790 C   0  0  0  0  0  0  0  0  0  0  0  0
  -22.3410   -9.1360   20.3160 C   0  0  0  0  0  3  0  0  0  0  0  0
  -23.0590  -10.3310   20.1400 C   0  0  0  0  0  3  0  0  0  0  0  0
  -22.0070   -7.0390   21.3630 O   0  0  0  0  0  0  0  0  0  0  0  0
  -21.8550   -6.3640   22.5480 C   0  0  0  0  0  0  0  0  0  0  0  0
  -21.2330   -6.9550   23.6700 C   0  0  0  0  0  3  0  0  0  0  0  0
  -21.0350   -6.2020   24.8430 C   0  0  0  0  0  3  0  0  0  0  0  0
  -21.4500   -4.8590   24.8960 C   0  0  0  0  0  0  0  0  0  0  0  0
  -22.0640   -4.2650   23.7790 C   0  0  0  0  0  3  0  0  0  0  0  0
  -22.2620   -5.0160   22.6070 C   0  0  0  0  0  0  0  0  0  0  0  0
  -22.8350   -4.4360   21.5260 F   0  0  0  0  0  0  0  0  0  0  0  0
  -21.2530   -4.1320   26.0200 F   0  0  0  0  0  0  0  0  0  0  0  0
  -23.0650  -13.6920   21.2270 C   0  0  0  0  0  0  0  0  0  0  0  0
  -22.3950  -12.9670   22.1160 N   0  0  0  0  0  0  0  0  0  0  0  0
  -22.5910  -14.7290   20.7640 O   0  0  0  0  0  0  0  0  0  0  0  0
  -22.7950  -12.1320   22.5160 H   0  0  0  0  0  0  0  0  0  0  0  0
  -21.4710  -13.2550   22.4050 H   0  0  0  0  0  0  0  0  0  0  0  0
  -25.6340  -15.4030   20.3280 N   0  0  0  0  0  0  0  0  0  0  0  0
  -24.8810  -16.0510   20.5310 H   0  0  0  0  0  0  0  0  0  0  0  0
  -26.4770  -15.8580   20.0000 H   0  0  0  0  0  0  0  0  0  0  0  0
  -27.9450  -24.5190   20.1940 C   0  0  0  0  0  2  0  0  0  0  0  0
  -28.3220  -26.0950   20.0760 O   0  0  0  0  0  0  0  0  0  0  0  0
  -24.7180  -31.9040   23.2100 C   0  0  0  0  0  0  0  0  0  0  0  0
  -27.3130  -27.1780   20.0580 C   0  0  0  0  0  0  0  0  0  0  0  0
  -23.5410  -30.5580   21.5190 C   0  0  0  0  0  3  0  0  0  0  0  0
  -25.0090  -29.0210   20.0550 C   0  0  0  0  0  0  0  0  0  0  0  0
  -26.1070  -30.7980   21.3970 C   0  0  0  0  0  2  0  0  0  0  0  0
  -26.1880  -29.4160   20.6980 C   0  0  0  0  0  0  0  0  0  0  0  0
  -27.3380  -28.5150   20.6770 C   0  0  0  0  0  3  0  0  0  0  0  0
  -26.1080  -26.9350   19.3610 C   0  0  0  0  0  3  0  0  0  0  0  0
  -24.9910  -27.8010   19.3670 C   0  0  0  0  0  3  0  0  0  0  0  0
  -23.7840  -29.9260   20.1210 C   0  0  0  0  0  2  0  0  0  0  0  0
  -24.8090  -31.1100   22.0960 N   0  0  0  0  0  0  0  0  0  0  0  0
  -23.6240  -32.1690   23.7320 O   0  0  0  0  0  0  0  0  0  0  0  0
  -22.8520  -29.5210   22.4430 C   0  0  0  0  0  0  0  0  0  0  0  0
  -21.5250  -29.3540   22.3040 N   0  0  0  0  0  0  0  0  0  0  0  0
  -23.5170  -28.8710   23.2540 O   0  0  0  0  0  0  0  0  0  0  0  0
  -21.0430  -29.9290   21.6270 H   0  0  0  0  0  0  0  0  0  0  0  0
  -18.1320  -28.1700   22.8130 C   0  0  0  0  0  0  0  0  0  0  0  0
  -20.7010  -28.3870   23.0380 C   0  0  0  0  0  3  0  0  0  0  0  0
  -20.7700  -26.9870   22.3860 C   0  0  0  0  0  2  0  0  0  0  0  0
  -19.6430  -26.7340   21.3790 C   0  0  0  0  0  2  0  0  0  0  0  0
  -18.2770  -26.8580   22.0580 C   0  0  0  0  0  2  0  0  0  0  0  0
  -19.2690  -28.8940   23.2610 C   0  0  0  0  0  0  0  0  0  0  0  0
  -19.0780  -30.1200   23.9330 C   0  0  0  0  0  3  0  0  0  0  0  0
  -17.7840  -30.6270   24.1550 C   0  0  0  0  0  3  0  0  0  0  0  0
  -16.6620  -29.9000   23.7230 C   0  0  0  0  0  3  0  0  0  0  0  0
  -16.8350  -28.6720   23.0580 C   0  0  0  0  0  3  0  0  0  0  0  0
  -25.9820  -32.5330   23.8710 C   0  0  0  0  0  3  0  0  0  0  0  0
  -25.6660  -33.9310   24.2130 N   0  0  0  0  0  0  0  0  0  0  0  0
  -25.9630  -34.9930   23.4530 C   0  0  0  0  0  0  0  0  0  0  0  0
  -26.5980  -34.8990   22.3990 O   0  0  0  0  0  0  0  0  0  0  0  0
  -25.0930  -34.0760   25.0310 H   0  0  0  0  0  0  0  0  0  0  0  0
  -24.1930  -36.7670   23.1990 C   0  0  0  0  0  1  0  0  0  0  0  0
  -25.4850  -36.3770   23.9370 C   0  0  0  0  0  3  0  0  0  0  0  0
  -27.6410  -37.3080   24.6550 C   0  0  0  0  0  1  0  0  0  0  0  0
  -26.4930  -37.4460   23.7610 N   0  0  0  0  0  0  0  0  0  0  0  0
  -26.0800  -38.3620   23.9160 H   0  0  0  0  0  0  0  0  0  0  0  0
  -26.4560  -31.7530   25.1580 C   0  0  1  0  0  0  0  0  0  0  0  0
  -25.3300  -31.5130   26.1920 C   0  0  0  0  0  1  0  0  0  0  0  0
  -27.0460  -30.3750   24.7820 C   0  0  0  0  0  1  0  0  0  0  0  0
  -27.5910  -32.5380   25.8570 C   0  0  0  0  0  1  0  0  0  0  0  0
  1  6  1  0
  1  2  2  0
  2 48  1  0
  2  5  1  0
  3  6  1  0
  3 18  1  0
  3  5  1  0
  5  4  1  0
  7  6  1  0
  8 19  1  0
  9 14  1  0
 10 11  1  0
 10  9  1  0
 12 11  1  0
 12 23  1  0
 12 13  1  0
 14  8  1  0
 14 13  1  0
 15  8  2  0
 16 19  1  0
 18 16  1  0
 18 17  1  0
 19 17  1  0
 20 21  2  0
 21 40  1  0
 22 21  1  0
 22 25  1  0
 23 24  1  0
 23 20  1  0
 24 22  2  0
 25 26  1  0
 26 27  2  0
 28 31  1  0
 28 27  1  0
 29 28  2  0
 30 29  1  0
 30 25  2  0
 31 32  1  0
 32 37  2  0
 32 33  1  0
 33 34  2  0
 34 35  1  0
 35 39  1  0
 36 35  2  0
 37 36  1  0
 38 37  1  0
 40 41  1  0
 41 44  1  0
 41 43  1  0
 42 40  2  0
 45 20  1  0
 45 46  1  0
 47 45  1  0
 49 48  1  0
 50 61  2  0
 51 49  1  0
 51 56  1  0
 52 60  1  0
 52 62  1  0
 53 59  1  0
 53 55  1  0
 54 60  1  0
 55 54  1  0
 56 55  2  0
 57 58  1  0
 57 51  2  0
 58 53  2  0
 59 52  1  0
 60 50  1  0
 62 64  2  0
 63 62  1  0
 65 63  1  0
 66 75  2  0
 66 71  1  0
 67 63  1  0
 67 71  1  0
 68 67  1  0
 69 70  1  0
 69 68  1  0
 70 66  1  0
 71 72  2  0
 72 73  1  0
 74 73  2  0
 75 74  1  0
 76 50  1  0
 76 77  1  0
 76 86  1  0
 77 80  1  0
 78 82  1  0
 78 77  1  0
 79 78  2  0
 82 81  1  0
 84 85  1  0
 84 82  1  0
 84 83  1  0
 86 89  1  1
 86 87  1  0
 88 86  1  0
M  ISO  4   8 100  19 100  48 101  49 101
M  END
>  <TORSDO>  (98) 
F 17

>  <SCORE>  (98) 
-15.040

>  <name>  (98) 
97

>  <ligand_id>  (98) 
97

>  <original_smiles>  (98) 
[H]c1c([H])c([H])c2c(c1[H])C([H])([H])C([H])([H])C([H])([H])C2([H])N([H])C(=O)C1([H])N(C(=O)C([H])(N([H])C(=O)C([H])(N([H])C([H])([H])[H])C([H])([H])[H])C(C([H])([H])[H])(C([H])([H])[H])C([H])([H])[H])C([H])([H])c2c([H])c(OC([H])([H])c3c([H])[n+]([H])c(C4([H])C([H])([H])N(C(=O)N5C([H])([H])C([H])([H])C([H])([H])C([H])(n6nc(-c7c([H])c([H])c(Oc8c([H])c([H])c(F)c([H])c8F)c([H])c7[H])c(C(=O)N([H])[H])c6N([H])[H])C5([H])[H])C4([H])[H])n3C([H])([H])[H])c([H])c([H])c2C1([H])[H]

>  <smiles>  (98) 
[H]c1c([H])c([H])c2c(c1[H])C([H])([H])C([H])([H])C([H])([H])C2([H])N([H])C(=O)C1([H])N(C(=O)C([H])(N([H])C(=O)C([H])(N([H])C([H])([H])[H])C([H])([H])[H])C(C([H])([H])[H])(C([H])([H])[H])C([H])([H])[H])C([H])([H])c2c([H])c(OC([H])([H])c3c([H])[n+]([H])c(C4([H])C([H])([H])N(C(=O)N5C([H])([H])C([H])([H])C([H])([H])C([H])(n6nc(-c7c([H])c([H])c(Oc8c([H])c([H])c(F)c([H])c8F)c([H])c7[H])c(C(=O)N([H])[H])c6N([H])[H])C5([H])[H])C4([H])[H])n3C([H])([H])[H])c([H])c([H])c2C1([H])[H]

$$$$
