0:0:0
     RDKit          3D

 98108  0  0  1  0  0  0  0  0999 V2000
  -28.5580  -21.8990   21.9510 C   0  0  0  0  0  3  0  0  0  0  0  0
  -28.0790  -21.3660   20.7430 C   0  0  0  0  0  0  0  0  0  0  0  0
  -27.3580  -22.2730   19.9290 C   0  0  0  0  0  3  0  0  0  0  0  0
  -27.6480  -23.9260   21.4840 C   0  0  0  0  0  0  0  0  0  0  0  0
  -28.3600  -23.1790   22.3130 N   0  0  0  0  0  0  0  0  0  0  0  0
  -27.1240  -23.5340   20.3370 N   0  0  0  0  0  0  0  0  0  0  0  0
  -27.6430  -21.5320   17.4300 C   0  0  0  0  0  2  0  0  0  0  0  0
  -26.9970  -22.8940   17.4120 C   0  0  0  0  0  2  0  0  0  0  0  0
  -26.7630  -21.9580   18.5840 C   0  0  0  0  0  3  0  0  0  0  0  0
  -28.1810  -19.8540   20.4450 C   0  0  0  0  0  2  0  0  0  0  0  0
  -29.5310  -19.2120   20.5170 N   0  0  0  0  0  4  0  0  0  0  0  0
  -29.9180  -19.1680   19.5880 H   0  0  0  0  0  0  0  0  0  0  0  0
  -30.1640  -19.7550   21.0760 H   0  0  0  0  0  0  0  0  0  0  0  0
  -30.5650  -17.6590   22.1590 C   0  0  0  0  0  2  0  0  0  0  0  0
  -30.7200  -16.9340   20.8370 C   0  0  0  0  0  3  0  0  0  0  0  0
  -29.5080  -17.8360   21.0930 C   0  0  0  0  0  3  0  0  0  0  0  0
  -31.1240  -14.5700   20.1420 C   0  0  0  0  0  0  0  0  0  0  0  0
  -30.7750  -12.3920   19.0250 C   0  0  0  0  0  2  0  0  0  0  0  0
  -29.8210  -12.6110   17.8320 C   0  0  0  0  0  2  0  0  0  0  0  0
  -28.3490  -12.5300   18.2760 C   0  0  0  0  0  2  0  0  0  0  0  0
  -28.0560  -13.3810   19.5390 C   0  0  0  0  0  3  0  0  0  0  0  0
  -29.1170  -13.1400   20.6360 C   0  0  0  0  0  2  0  0  0  0  0  0
  -30.4460  -13.3980   20.0480 N   0  0  0  0  0  0  0  0  0  0  0  0
  -32.1800  -14.7880   19.5340 O   0  0  0  0  0  0  0  0  0  0  0  0
  -30.4960  -15.5170   20.8570 N   0  0  0  0  0  0  0  0  0  0  0  0
  -29.6640  -15.1980   21.3280 H   0  0  0  0  0  0  0  0  0  0  0  0
  -25.6980  -14.0810   20.2940 C   0  0  0  0  0  0  0  0  0  0  0  0
  -24.6130  -13.3500   20.6890 C   0  0  0  0  0  0  0  0  0  0  0  0
  -25.0200  -11.9820   20.6470 C   0  0  0  0  0  0  0  0  0  0  0  0
  -26.7040  -13.1600   20.0420 N   0  0  0  0  0  0  0  0  0  0  0  0
  -26.2980  -11.8920   20.3040 N   0  0  0  0  0  0  0  0  0  0  0  0
  -24.2510  -10.7490   20.8610 C   0  0  0  0  0  0  0  0  0  0  0  0
  -24.6490   -9.7870   21.8150 C   0  0  0  0  0  3  0  0  0  0  0  0
  -23.8830   -8.6190   22.0150 C   0  0  0  0  0  3  0  0  0  0  0  0
  -22.7060   -8.4030   21.2600 C   0  0  0  0  0  0  0  0  0  0  0  0
  -22.3280   -9.3510   20.2950 C   0  0  0  0  0  3  0  0  0  0  0  0
  -23.0930  -10.5110   20.0930 C   0  0  0  0  0  3  0  0  0  0  0  0
  -21.9130   -7.2860   21.3670 O   0  0  0  0  0  0  0  0  0  0  0  0
  -21.8010   -6.5960   22.5470 C   0  0  0  0  0  0  0  0  0  0  0  0
  -21.3570   -7.2150   23.7370 C   0  0  0  0  0  3  0  0  0  0  0  0
  -21.1930   -6.4510   24.9080 C   0  0  0  0  0  3  0  0  0  0  0  0
  -21.4560   -5.0680   24.8900 C   0  0  0  0  0  0  0  0  0  0  0  0
  -21.8910   -4.4490   23.7060 C   0  0  0  0  0  3  0  0  0  0  0  0
  -22.0580   -5.2110   22.5360 C   0  0  0  0  0  0  0  0  0  0  0  0
  -22.4580   -4.6050   21.3930 F   0  0  0  0  0  0  0  0  0  0  0  0
  -21.2860   -4.3310   26.0140 F   0  0  0  0  0  0  0  0  0  0  0  0
  -23.2440  -13.8800   21.0030 C   0  0  0  0  0  0  0  0  0  0  0  0
  -22.5180  -13.2160   21.8960 N   0  0  0  0  0  0  0  0  0  0  0  0
  -22.8300  -14.9190   20.4900 O   0  0  0  0  0  0  0  0  0  0  0  0
  -22.8690  -12.3720   22.3260 H   0  0  0  0  0  0  0  0  0  0  0  0
  -21.6000  -13.5500   22.1510 H   0  0  0  0  0  0  0  0  0  0  0  0
  -25.9020  -15.4460   20.1070 N   0  0  0  0  0  0  0  0  0  0  0  0
  -25.1310  -16.1010   20.1930 H   0  0  0  0  0  0  0  0  0  0  0  0
  -26.7350  -15.8560   19.7050 H   0  0  0  0  0  0  0  0  0  0  0  0
  -27.3140  -25.1760   21.8500 O   0  0  0  0  0  0  0  0  0  0  0  0
  -28.2850  -25.9860   22.5120 C   0  0  0  0  0  2  0  0  0  0  0  0
  -29.2710  -26.5600   21.4720 C   0  0  0  0  0  2  0  0  0  0  0  0
  -28.6710  -26.8740   20.2080 O   0  0  0  0  0  0  0  0  0  0  0  0
  -24.6300  -31.9370   23.2170 C   0  0  0  0  0  0  0  0  0  0  0  0
  -27.5170  -27.6200   20.2030 C   0  0  0  0  0  0  0  0  0  0  0  0
  -23.5170  -30.5140   21.5300 C   0  0  0  0  0  3  0  0  0  0  0  0
  -25.0680  -29.0270   20.1460 C   0  0  0  0  0  0  0  0  0  0  0  0
  -26.0360  -30.9470   21.4200 C   0  0  0  0  0  2  0  0  0  0  0  0
  -26.1870  -29.5840   20.7820 C   0  0  0  0  0  0  0  0  0  0  0  0
  -27.4120  -28.8840   20.8260 C   0  0  0  0  0  3  0  0  0  0  0  0
  -26.3940  -27.0770   19.5480 C   0  0  0  0  0  3  0  0  0  0  0  0
  -25.1660  -27.7650   19.5330 C   0  0  0  0  0  3  0  0  0  0  0  0
  -23.7920  -29.8480   20.1570 C   0  0  0  0  0  2  0  0  0  0  0  0
  -24.7460  -31.1450   22.1150 N   0  0  0  0  0  0  0  0  0  0  0  0
  -23.5250  -32.1780   23.7170 O   0  0  0  0  0  0  0  0  0  0  0  0
  -22.8650  -29.4670   22.4570 C   0  0  0  0  0  0  0  0  0  0  0  0
  -21.5470  -29.2570   22.2930 N   0  0  0  0  0  0  0  0  0  0  0  0
  -23.5380  -28.8490   23.2890 O   0  0  0  0  0  0  0  0  0  0  0  0
  -21.0620  -29.8120   21.6030 H   0  0  0  0  0  0  0  0  0  0  0  0
  -18.1880  -28.0160   22.7170 C   0  0  0  0  0  0  0  0  0  0  0  0
  -20.7360  -28.2930   23.0310 C   0  0  0  0  0  3  0  0  0  0  0  0
  -20.8640  -26.8770   22.4220 C   0  0  0  0  0  2  0  0  0  0  0  0
  -19.7790  -26.5700   21.3840 C   0  0  0  0  0  2  0  0  0  0  0  0
  -18.3870  -26.6860   22.0100 C   0  0  0  0  0  2  0  0  0  0  0  0
  -19.2910  -28.7780   23.1840 C   0  0  0  0  0  0  0  0  0  0  0  0
  -19.0530  -30.0260   23.7990 C   0  0  0  0  0  3  0  0  0  0  0  0
  -17.7400  -30.5110   23.9560 C   0  0  0  0  0  3  0  0  0  0  0  0
  -16.6490  -29.7470   23.5090 C   0  0  0  0  0  3  0  0  0  0  0  0
  -16.8750  -28.5010   22.8950 C   0  0  0  0  0  3  0  0  0  0  0  0
  -25.8770  -32.5970   23.8840 C   0  0  0  0  0  3  0  0  0  0  0  0
  -25.5180  -33.9890   24.1940 N   0  0  0  0  0  0  0  0  0  0  0  0
  -25.8600  -35.0460   23.4480 C   0  0  0  0  0  0  0  0  0  0  0  0
  -26.5770  -34.9570   22.4460 O   0  0  0  0  0  0  0  0  0  0  0  0
  -24.8810  -34.1280   24.9630 H   0  0  0  0  0  0  0  0  0  0  0  0
  -24.1070  -36.7960   23.0120 C   0  0  0  0  0  1  0  0  0  0  0  0
  -25.3200  -36.4230   23.8780 C   0  0  0  0  0  3  0  0  0  0  0  0
  -27.4000  -37.3600   24.7920 C   0  0  0  0  0  1  0  0  0  0  0  0
  -26.3320  -37.5000   23.8040 N   0  0  0  0  0  0  0  0  0  0  0  0
  -25.8960  -38.4110   23.9310 H   0  0  0  0  0  0  0  0  0  0  0  0
  -26.3600  -31.8430   25.1810 C   0  0  1  0  0  0  0  0  0  0  0  0
  -25.2320  -31.5760   26.2070 C   0  0  0  0  0  1  0  0  0  0  0  0
  -26.9940  -30.4790   24.8130 C   0  0  0  0  0  1  0  0  0  0  0  0
  -27.4570  -32.6720   25.8930 C   0  0  0  0  0  1  0  0  0  0  0  0
  1  5  1  0
  2  1  2  0
  3  9  1  0
  3  6  1  0
  3  2  1  0
  4 55  1  0
  4  5  2  0
  6  4  2  0
  7  9  1  0
  8  7  1  0
  8  9  1  0
 10 11  1  0
 10  2  1  0
 11 13  1  0
 12 11  1  0
 15 25  1  0
 15 16  1  0
 15 14  1  0
 16 11  1  0
 16 14  1  0
 17 25  1  0
 18 23  1  0
 19 20  1  0
 19 18  1  0
 21 20  1  0
 21 30  1  0
 21 22  1  0
 23 17  1  0
 23 22  1  0
 24 17  2  0
 25 26  1  0
 27 28  2  0
 28 47  1  0
 29 28  1  0
 29 32  1  0
 30 27  1  0
 30 31  1  0
 31 29  2  0
 32 33  1  0
 33 34  2  0
 35 38  1  0
 35 34  1  0
 36 35  2  0
 37 36  1  0
 37 32  2  0
 38 39  1  0
 39 40  1  0
 40 41  2  0
 42 41  1  0
 42 46  1  0
 43 42  2  0
 44 39  2  0
 44 43  1  0
 45 44  1  0
 47 48  1  0
 48 51  1  0
 48 50  1  0
 49 47  2  0
 52 53  1  0
 52 27  1  0
 54 52  1  0
 55 56  1  0
 57 56  1  0
 58 57  1  0
 59 70  2  0
 60 58  1  0
 60 65  1  0
 61 69  1  0
 61 71  1  0
 62 68  1  0
 62 64  1  0
 63 69  1  0
 64 65  2  0
 64 63  1  0
 66 60  2  0
 67 66  1  0
 67 62  2  0
 68 61  1  0
 69 59  1  0
 71 73  2  0
 72 71  1  0
 74 72  1  0
 75 84  2  0
 75 80  1  0
 76 72  1  0
 76 80  1  0
 77 76  1  0
 78 79  1  0
 78 77  1  0
 79 75  1  0
 80 81  2  0
 81 82  1  0
 83 82  2  0
 84 83  1  0
 85 59  1  0
 85 86  1  0
 85 95  1  0
 86 89  1  0
 87 91  1  0
 87 86  1  0
 88 87  2  0
 91 90  1  0
 93 91  1  0
 93 94  1  0
 93 92  1  0
 95 98  1  1
 95 96  1  0
 97 95  1  0
M  ISO  4  17 100  25 100  57 101  58 101
M  END
>  <TORSDO>  (1) 
F 23

>  <SCORE>  (1) 
-12.286

>  <name>  (1) 
0

>  <ligand_id>  (1) 
0

>  <original_smiles>  (1) 
[H]c1nc(OC([H])([H])C([H])([H])Oc2c([H])c([H])c3c(c2[H])C([H])([H])N(C(=O)C([H])(N([H])C(=O)C([H])(N([H])C([H])([H])[H])C([H])([H])[H])C(C([H])([H])[H])(C([H])([H])[H])C([H])([H])[H])C([H])(C(=O)N([H])C2([H])c4c([H])c([H])c([H])c([H])c4C([H])([H])C([H])([H])C2([H])[H])C3([H])[H])nc(C2([H])C([H])([H])C2([H])[H])c1C([H])([H])[N+]([H])([H])C1([H])C([H])([H])C1([H])N([H])C(=O)N1C([H])([H])C([H])([H])C([H])([H])C([H])(n2nc(-c3c([H])c([H])c(Oc4c([H])c([H])c(F)c([H])c4F)c([H])c3[H])c(C(=O)N([H])[H])c2N([H])[H])C1([H])[H]

>  <smiles>  (1) 
[H]c1nc(OC([H])([H])C([H])([H])Oc2c([H])c([H])c3c(c2[H])C([H])([H])N(C(=O)C([H])(N([H])C(=O)C([H])(N([H])C([H])([H])[H])C([H])([H])[H])C(C([H])([H])[H])(C([H])([H])[H])C([H])([H])[H])C([H])(C(=O)N([H])C2([H])c4c([H])c([H])c([H])c([H])c4C([H])([H])C([H])([H])C2([H])[H])C3([H])[H])nc(C2([H])C([H])([H])C2([H])[H])c1C([H])([H])[N+]([H])([H])C1([H])C([H])([H])C1([H])N([H])C(=O)N1C([H])([H])C([H])([H])C([H])([H])C([H])(n2nc(-c3c([H])c([H])c(Oc4c([H])c([H])c(F)c([H])c4F)c([H])c3[H])c(C(=O)N([H])[H])c2N([H])[H])C1([H])[H]

$$$$
1:0:0
     RDKit          3D

 94103  0  0  1  0  0  0  0  0999 V2000
  -29.2590  -21.8380   17.4490 C   0  0  0  0  0  2  0  0  0  0  0  0
  -29.5640  -23.1560   18.1480 C   0  0  0  0  0  2  0  0  0  0  0  0
  -28.1220  -22.0480   19.5770 C   0  0  0  0  0  2  0  0  0  0  0  0
  -28.4850  -21.0210   18.4890 C   0  0  0  0  0  3  0  0  0  0  0  0
  -28.3570  -23.3440   18.9430 N   0  0  0  0  0  0  0  0  0  0  0  0
  -29.3280  -19.9160   19.0020 N   0  0  0  0  0  4  0  0  0  0  0  0
  -29.8030  -20.2450   19.8280 H   0  0  0  0  0  0  0  0  0  0  0  0
  -30.0350  -19.7280   18.3110 H   0  0  0  0  0  0  0  0  0  0  0  0
  -28.0040  -18.0160   18.0370 C   0  0  0  0  0  1  0  0  0  0  0  0
  -28.6460  -18.6330   19.3070 C   0  0  0  0  0  3  0  0  0  0  0  0
  -30.7250  -14.4550   20.5240 C   0  0  0  0  0  0  0  0  0  0  0  0
  -30.3830  -12.3220   19.3450 C   0  0  0  0  0  2  0  0  0  0  0  0
  -29.4420  -12.5300   18.1430 C   0  0  0  0  0  2  0  0  0  0  0  0
  -27.9690  -12.3770   18.5710 C   0  0  0  0  0  2  0  0  0  0  0  0
  -27.6230  -13.2130   19.8290 C   0  0  0  0  0  3  0  0  0  0  0  0
  -28.6830  -13.0240   20.9400 C   0  0  0  0  0  2  0  0  0  0  0  0
  -30.0130  -13.3050   20.3720 N   0  0  0  0  0  0  0  0  0  0  0  0
  -31.8790  -14.5910   20.1080 O   0  0  0  0  0  0  0  0  0  0  0  0
  -30.1520  -17.9220   21.3450 C   0  0  0  0  0  2  0  0  0  0  0  0
  -30.6920  -16.5620   21.8260 C   0  0  0  0  0  2  0  0  0  0  0  0
  -29.1500  -16.2120   20.0820 C   0  0  0  0  0  2  0  0  0  0  0  0
  -29.6690  -17.6390   19.9270 C   0  0  0  0  0  3  0  0  0  0  0  0
  -30.0440  -15.5190   21.0120 N   0  0  0  0  0  0  0  0  0  0  0  0
  -25.2310  -13.8410   20.5300 C   0  0  0  0  0  0  0  0  0  0  0  0
  -24.1590  -13.0720   20.8970 C   0  0  0  0  0  0  0  0  0  0  0  0
  -24.6210  -11.7200   20.8750 C   0  0  0  0  0  0  0  0  0  0  0  0
  -26.2730  -12.9530   20.3090 N   0  0  0  0  0  0  0  0  0  0  0  0
  -25.9100  -11.6740   20.5760 N   0  0  0  0  0  0  0  0  0  0  0  0
  -23.8950  -10.4600   21.0650 C   0  0  0  0  0  0  0  0  0  0  0  0
  -24.3260   -9.4970   22.0030 C   0  0  0  0  0  3  0  0  0  0  0  0
  -23.6050   -8.2980   22.1800 C   0  0  0  0  0  3  0  0  0  0  0  0
  -22.4370   -8.0550   21.4170 C   0  0  0  0  0  0  0  0  0  0  0  0
  -22.0270   -9.0070   20.4670 C   0  0  0  0  0  3  0  0  0  0  0  0
  -22.7500  -10.1970   20.2900 C   0  0  0  0  0  3  0  0  0  0  0  0
  -21.6850   -6.9090   21.5030 O   0  0  0  0  0  0  0  0  0  0  0  0
  -21.6310   -6.1690   22.6570 C   0  0  0  0  0  0  0  0  0  0  0  0
  -21.1800   -6.7220   23.8760 C   0  0  0  0  0  3  0  0  0  0  0  0
  -21.0750   -5.9080   25.0210 C   0  0  0  0  0  3  0  0  0  0  0  0
  -21.4100   -4.5420   24.9490 C   0  0  0  0  0  0  0  0  0  0  0  0
  -21.8550   -3.9900   23.7350 C   0  0  0  0  0  3  0  0  0  0  0  0
  -21.9620   -4.8010   22.5920 C   0  0  0  0  0  0  0  0  0  0  0  0
  -22.3710   -4.2590   21.4190 F   0  0  0  0  0  0  0  0  0  0  0  0
  -21.3010   -3.7580   26.0460 F   0  0  0  0  0  0  0  0  0  0  0  0
  -22.7610  -13.5510   21.1590 C   0  0  0  0  0  0  0  0  0  0  0  0
  -22.0280  -12.8560   22.0220 N   0  0  0  0  0  0  0  0  0  0  0  0
  -22.3280  -14.5770   20.6360 O   0  0  0  0  0  0  0  0  0  0  0  0
  -22.3910  -12.0270   22.4660 H   0  0  0  0  0  0  0  0  0  0  0  0
  -21.0890  -13.1590   22.2400 H   0  0  0  0  0  0  0  0  0  0  0  0
  -25.3970  -15.2100   20.3460 N   0  0  0  0  0  0  0  0  0  0  0  0
  -24.6300  -15.8670   20.4470 H   0  0  0  0  0  0  0  0  0  0  0  0
  -26.2510  -15.6420   20.0210 H   0  0  0  0  0  0  0  0  0  0  0  0
  -28.4300  -24.4410   19.9060 C   0  0  0  0  0  2  0  0  0  0  0  0
  -28.6880  -25.7870   19.2030 C   0  0  0  0  0  2  0  0  0  0  0  0
  -28.4690  -26.8660   20.1010 O   0  0  0  0  0  0  0  0  0  0  0  0
  -24.5700  -31.8900   23.2150 C   0  0  0  0  0  0  0  0  0  0  0  0
  -27.2460  -27.4990   20.1110 C   0  0  0  0  0  0  0  0  0  0  0  0
  -23.3660  -30.4830   21.5720 C   0  0  0  0  0  3  0  0  0  0  0  0
  -24.8250  -28.9550   20.1460 C   0  0  0  0  0  0  0  0  0  0  0  0
  -25.8840  -30.8650   21.3660 C   0  0  0  0  0  2  0  0  0  0  0  0
  -25.9760  -29.4940   20.7330 C   0  0  0  0  0  0  0  0  0  0  0  0
  -27.1830  -28.7680   20.7220 C   0  0  0  0  0  3  0  0  0  0  0  0
  -26.0700  -26.9550   19.5400 C   0  0  0  0  0  3  0  0  0  0  0  0
  -24.8630  -27.6810   19.5540 C   0  0  0  0  0  3  0  0  0  0  0  0
  -23.5740  -29.8030   20.1930 C   0  0  0  0  0  2  0  0  0  0  0  0
  -24.6240  -31.0940   22.1100 N   0  0  0  0  0  0  0  0  0  0  0  0
  -23.4890  -32.1550   23.7600 O   0  0  0  0  0  0  0  0  0  0  0  0
  -22.7250  -29.4560   22.5330 C   0  0  0  0  0  0  0  0  0  0  0  0
  -21.4000  -29.2740   22.4130 N   0  0  0  0  0  0  0  0  0  0  0  0
  -23.4150  -28.8280   23.3390 O   0  0  0  0  0  0  0  0  0  0  0  0
  -20.9050  -29.8360   21.7360 H   0  0  0  0  0  0  0  0  0  0  0  0
  -18.0290  -28.0900   22.9340 C   0  0  0  0  0  0  0  0  0  0  0  0
  -20.5890  -28.3330   23.1830 C   0  0  0  0  0  3  0  0  0  0  0  0
  -20.6790  -26.9070   22.5930 C   0  0  0  0  0  2  0  0  0  0  0  0
  -19.5660  -26.5980   21.5870 C   0  0  0  0  0  2  0  0  0  0  0  0
  -18.1910  -26.7450   22.2460 C   0  0  0  0  0  2  0  0  0  0  0  0
  -19.1540  -28.8420   23.3610 C   0  0  0  0  0  0  0  0  0  0  0  0
  -18.9480  -30.1030   23.9630 C   0  0  0  0  0  3  0  0  0  0  0  0
  -17.6490  -30.6110   24.1420 C   0  0  0  0  0  3  0  0  0  0  0  0
  -16.5360  -29.8550   23.7340 C   0  0  0  0  0  3  0  0  0  0  0  0
  -16.7260  -28.5960   23.1360 C   0  0  0  0  0  3  0  0  0  0  0  0
  -25.8560  -32.5250   23.8320 C   0  0  0  0  0  3  0  0  0  0  0  0
  -26.3810  -31.7540   25.1050 C   0  0  1  0  0  0  0  0  0  0  0  0
  -25.2930  -31.5080   26.1760 C   0  0  0  0  0  1  0  0  0  0  0  0
  -26.9670  -30.3800   24.7050 C   0  0  0  0  0  1  0  0  0  0  0  0
  -27.5320  -32.5510   25.7640 C   0  0  0  0  0  1  0  0  0  0  0  0
  -25.5430  -33.9210   24.1610 N   0  0  0  0  0  0  0  0  0  0  0  0
  -25.8780  -34.9730   23.4010 C   0  0  0  0  0  0  0  0  0  0  0  0
  -26.5550  -34.8690   22.3740 O   0  0  0  0  0  0  0  0  0  0  0  0
  -24.9420  -34.0760   24.9570 H   0  0  0  0  0  0  0  0  0  0  0  0
  -24.1560  -36.7670   23.0240 C   0  0  0  0  0  1  0  0  0  0  0  0
  -25.3850  -36.3600   23.8530 C   0  0  0  0  0  3  0  0  0  0  0  0
  -27.5070  -37.2420   24.7180 C   0  0  0  0  0  1  0  0  0  0  0  0
  -26.4200  -37.4140   23.7590 N   0  0  0  0  0  0  0  0  0  0  0  0
  -26.0120  -38.3330   23.9040 H   0  0  0  0  0  0  0  0  0  0  0  0
  1  2  1  0
  1  4  1  0
  2  5  1  0
  4  6  1  0
  4  3  1  0
  5  3  1  0
  5 52  1  0
  6 10  1  0
  6  7  1  0
  8  6  1  0
 10  9  1  0
 11 23  1  0
 12 17  1  0
 13 14  1  0
 13 12  1  0
 15 14  1  0
 15 27  1  0
 15 16  1  0
 17 11  1  0
 17 16  1  0
 18 11  2  0
 19 20  1  0
 21 23  1  0
 22 10  1  0
 22 21  1  0
 22 19  1  0
 23 20  1  0
 24 25  2  0
 25 44  1  0
 26 25  1  0
 26 29  1  0
 27 24  1  0
 27 28  1  0
 28 26  2  0
 29 30  1  0
 30 31  2  0
 32 35  1  0
 32 31  1  0
 33 32  2  0
 34 33  1  0
 34 29  2  0
 35 36  1  0
 36 37  1  0
 37 38  2  0
 39 38  1  0
 39 43  1  0
 40 39  2  0
 41 36  2  0
 41 40  1  0
 42 41  1  0
 44 45  1  0
 45 48  1  0
 45 47  1  0
 46 44  2  0
 49 50  1  0
 49 24  1  0
 51 49  1  0
 53 52  1  0
 53 54  1  0
 54 56  1  0
 55 66  2  0
 56 61  1  0
 57 65  1  0
 57 67  1  0
 58 64  1  0
 58 60  1  0
 59 65  1  0
 60 59  1  0
 61 60  2  0
 62 63  1  0
 62 56  2  0
 63 58  2  0
 64 57  1  0
 65 55  1  0
 67 69  2  0
 68 67  1  0
 70 68  1  0
 71 80  2  0
 71 76  1  0
 72 68  1  0
 72 76  1  0
 73 72  1  0
 74 75  1  0
 74 73  1  0
 75 71  1  0
 76 77  2  0
 77 78  1  0
 79 78  2  0
 80 79  1  0
 81 55  1  0
 81 86  1  0
 81 82  1  0
 82 85  1  1
 82 83  1  0
 84 82  1  0
 86 89  1  0
 87 91  1  0
 87 86  1  0
 88 87  2  0
 91 90  1  0
 93 91  1  0
 93 94  1  0
 93 92  1  0
M  ISO  4  11 100  23 100  53 101  54 101
M  END
>  <TORSDO>  (2) 
F 20

>  <SCORE>  (2) 
-14.144

>  <name>  (2) 
1

>  <ligand_id>  (2) 
1

>  <original_smiles>  (2) 
[H]c1c([H])c([H])c2c(c1[H])C([H])([H])C([H])([H])C([H])([H])C2([H])N([H])C(=O)C1([H])N(C(=O)C([H])(N([H])C(=O)C([H])(N([H])C([H])([H])[H])C([H])([H])[H])C(C([H])([H])[H])(C([H])([H])[H])C([H])([H])[H])C([H])([H])c2c([H])c(OC([H])([H])C([H])([H])N3C([H])([H])C([H])([H])C([H])([N+]([H])([H])C([H])(C([H])([H])[H])C4([H])C([H])([H])N(C(=O)N5C([H])([H])C([H])([H])C([H])([H])C([H])(n6nc(-c7c([H])c([H])c(Oc8c([H])c([H])c(F)c([H])c8F)c([H])c7[H])c(C(=O)N([H])[H])c6N([H])[H])C5([H])[H])C([H])([H])C4([H])[H])C3([H])[H])c([H])c([H])c2C1([H])[H]

>  <smiles>  (2) 
[H]c1c([H])c([H])c2c(c1[H])C([H])([H])C([H])([H])C([H])([H])C2([H])N([H])C(=O)C1([H])N(C(=O)C([H])(N([H])C(=O)C([H])(N([H])C([H])([H])[H])C([H])([H])[H])C(C([H])([H])[H])(C([H])([H])[H])C([H])([H])[H])C([H])([H])c2c([H])c(OC([H])([H])C([H])([H])N3C([H])([H])C([H])([H])C([H])([N+]([H])([H])C([H])(C([H])([H])[H])C4([H])C([H])([H])N(C(=O)N5C([H])([H])C([H])([H])C([H])([H])C([H])(n6nc(-c7c([H])c([H])c(Oc8c([H])c([H])c(F)c([H])c8F)c([H])c7[H])c(C(=O)N([H])[H])c6N([H])[H])C5([H])[H])C([H])([H])C4([H])[H])C3([H])[H])c([H])c([H])c2C1([H])[H]

$$$$
2:0:0
     RDKit          3D

 94103  0  0  1  0  0  0  0  0999 V2000
  -27.9640  -18.2770   18.3990 C   0  0  0  0  0  2  0  0  0  0  0  0
  -27.9060  -19.3580   20.4730 C   0  0  0  0  0  2  0  0  0  0  0  0
  -26.7360  -19.1930   18.3520 C   0  0  0  0  0  3  0  0  0  0  0  0
  -26.7160  -19.8950   19.6920 C   0  0  0  0  0  3  0  0  0  0  0  0
  -26.6530  -20.7190   18.4100 C   0  0  0  0  0  3  0  0  0  0  0  0
  -28.1700  -18.0540   19.8460 N   0  0  2  0  0  4  0  0  0  0  0  0
  -27.3830  -17.4710   20.1120 H   0  0  0  0  0  0  0  0  0  0  0  0
  -27.7100  -21.6080   17.7190 C   0  0  0  0  0  2  0  0  0  0  0  0
  -28.1180  -22.7780   18.5320 N   0  0  0  0  0  4  0  0  0  0  0  0
  -28.8330  -22.4880   19.1840 H   0  0  0  0  0  0  0  0  0  0  0  0
  -27.3130  -23.0640   19.0670 H   0  0  0  0  0  0  0  0  0  0  0  0
  -28.6270  -23.9630   17.7700 C   0  0  0  0  0  2  0  0  0  0  0  0
  -28.9100  -25.1450   18.7270 C   0  0  0  0  0  2  0  0  0  0  0  0
  -28.8370  -26.4660   18.1460 O   0  0  0  0  0  0  0  0  0  0  0  0
  -24.8770  -30.1540   22.7900 C   0  0  0  0  0  0  0  0  0  0  0  0
  -27.6360  -27.1000   18.3930 C   0  0  0  0  0  0  0  0  0  0  0  0
  -23.6770  -29.0930   20.9140 C   0  0  0  0  0  3  0  0  0  0  0  0
  -25.1280  -28.2320   19.0050 C   0  0  0  0  0  0  0  0  0  0  0  0
  -26.1110  -29.8250   20.6480 C   0  0  0  0  0  2  0  0  0  0  0  0
  -26.2830  -28.7150   19.6320 C   0  0  0  0  0  0  0  0  0  0  0  0
  -27.5470  -28.1800   19.3000 C   0  0  0  0  0  3  0  0  0  0  0  0
  -26.4630  -26.6430   17.7610 C   0  0  0  0  0  3  0  0  0  0  0  0
  -25.2120  -27.2070   18.0510 C   0  0  0  0  0  3  0  0  0  0  0  0
  -23.8160  -28.8600   19.3880 C   0  0  0  0  0  2  0  0  0  0  0  0
  -24.9140  -29.6950   21.5090 N   0  0  0  0  0  0  0  0  0  0  0  0
  -23.8350  -30.1190   23.4610 O   0  0  0  0  0  0  0  0  0  0  0  0
  -23.2660  -27.7650   21.5770 C   0  0  0  0  0  0  0  0  0  0  0  0
  -21.9890  -27.3880   21.4050 N   0  0  0  0  0  0  0  0  0  0  0  0
  -24.0780  -27.0880   22.2140 O   0  0  0  0  0  0  0  0  0  0  0  0
  -21.3730  -28.0040   20.8880 H   0  0  0  0  0  0  0  0  0  0  0  0
  -18.9240  -25.4670   21.4710 C   0  0  0  0  0  0  0  0  0  0  0  0
  -21.3830  -26.1640   21.9170 C   0  0  0  0  0  3  0  0  0  0  0  0
  -21.7950  -24.9490   21.0560 C   0  0  0  0  0  2  0  0  0  0  0  0
  -20.7680  -24.5920   19.9760 C   0  0  0  0  0  2  0  0  0  0  0  0
  -19.3880  -24.3100   20.5930 C   0  0  0  0  0  2  0  0  0  0  0  0
  -19.8650  -26.3250   22.0980 C   0  0  0  0  0  0  0  0  0  0  0  0
  -19.4020  -27.3830   22.9060 C   0  0  0  0  0  3  0  0  0  0  0  0
  -18.0250  -27.5730   23.1030 C   0  0  0  0  0  3  0  0  0  0  0  0
  -17.0920  -26.7140   22.5030 C   0  0  0  0  0  3  0  0  0  0  0  0
  -17.5420  -25.6580   21.6930 C   0  0  0  0  0  3  0  0  0  0  0  0
  -26.1340  -30.7790   23.4700 C   0  0  0  0  0  3  0  0  0  0  0  0
  -25.7170  -32.0250   24.1340 N   0  0  0  0  0  0  0  0  0  0  0  0
  -25.9800  -33.2530   23.6680 C   0  0  0  0  0  0  0  0  0  0  0  0
  -26.6630  -33.4590   22.6590 O   0  0  0  0  0  0  0  0  0  0  0  0
  -25.1050  -31.9260   24.9320 H   0  0  0  0  0  0  0  0  0  0  0  0
  -24.1630  -34.9950   23.6670 C   0  0  0  0  0  1  0  0  0  0  0  0
  -25.3760  -34.4480   24.4370 C   0  0  0  0  0  3  0  0  0  0  0  0
  -27.3930  -35.1700   25.6320 C   0  0  0  0  0  1  0  0  0  0  0  0
  -26.3480  -35.5360   24.6810 N   0  0  0  0  0  0  0  0  0  0  0  0
  -25.8830  -36.3720   25.0240 H   0  0  0  0  0  0  0  0  0  0  0  0
  -26.8200  -29.8030   24.5040 C   0  0  1  0  0  0  0  0  0  0  0  0
  -25.8470  -29.2000   25.5480 C   0  0  0  0  0  1  0  0  0  0  0  0
  -27.5000  -28.6270   23.7700 C   0  0  0  0  0  1  0  0  0  0  0  0
  -27.9410  -30.5450   25.2700 C   0  0  0  0  0  1  0  0  0  0  0  0
  -29.3240  -17.2740   20.3900 C   0  0  0  0  0  2  0  0  0  0  0  0
  -30.1590  -16.3990   19.4270 C   0  0  0  0  0  2  0  0  0  0  0  0
  -31.5790  -14.3970   19.7320 C   0  0  0  0  0  0  0  0  0  0  0  0
  -31.1460  -12.0980   18.9980 C   0  0  0  0  0  2  0  0  0  0  0  0
  -30.1300  -12.1020   17.8350 C   0  0  0  0  0  2  0  0  0  0  0  0
  -28.6900  -12.0670   18.3780 C   0  0  0  0  0  2  0  0  0  0  0  0
  -28.4240  -13.1260   19.4790 C   0  0  0  0  0  3  0  0  0  0  0  0
  -29.5480  -13.1160   20.5420 C   0  0  0  0  0  2  0  0  0  0  0  0
  -30.8430  -13.2590   19.8470 N   0  0  0  0  0  0  0  0  0  0  0  0
  -32.6670  -14.4650   19.1720 O   0  0  0  0  0  0  0  0  0  0  0  0
  -31.0430  -15.5250   20.2120 N   0  0  0  0  0  0  0  0  0  0  0  0
  -31.8040  -16.0740   20.5780 H   0  0  0  0  0  0  0  0  0  0  0  0
  -26.1890  -13.9570   20.4530 C   0  0  0  0  0  0  0  0  0  0  0  0
  -25.0690  -13.2790   20.8590 C   0  0  0  0  0  0  0  0  0  0  0  0
  -25.3590  -11.8920   20.6890 C   0  0  0  0  0  0  0  0  0  0  0  0
  -27.0950  -12.9810   20.0650 N   0  0  0  0  0  0  0  0  0  0  0  0
  -26.6050  -11.7340   20.2680 N   0  0  0  0  0  0  0  0  0  0  0  0
  -24.5020  -10.7060   20.8440 C   0  0  0  0  0  0  0  0  0  0  0  0
  -24.8500   -9.6610   21.7280 C   0  0  0  0  0  3  0  0  0  0  0  0
  -24.0070   -8.5410   21.8780 C   0  0  0  0  0  3  0  0  0  0  0  0
  -22.8000   -8.4590   21.1450 C   0  0  0  0  0  0  0  0  0  0  0  0
  -22.4720   -9.4870   20.2460 C   0  0  0  0  0  3  0  0  0  0  0  0
  -23.3180  -10.5990   20.0930 C   0  0  0  0  0  3  0  0  0  0  0  0
  -21.9340   -7.3950   21.2030 O   0  0  0  0  0  0  0  0  0  0  0  0
  -21.7580   -6.6750   22.3560 C   0  0  0  0  0  0  0  0  0  0  0  0
  -21.2800   -7.2760   23.5420 C   0  0  0  0  0  3  0  0  0  0  0  0
  -21.0480   -6.4880   24.6870 C   0  0  0  0  0  3  0  0  0  0  0  0
  -21.2860   -5.1000   24.6450 C   0  0  0  0  0  0  0  0  0  0  0  0
  -21.7560   -4.4990   23.4650 C   0  0  0  0  0  3  0  0  0  0  0  0
  -21.9900   -5.2850   22.3230 C   0  0  0  0  0  0  0  0  0  0  0  0
  -22.4240   -4.7040   21.1780 F   0  0  0  0  0  0  0  0  0  0  0  0
  -21.0560   -4.3370   25.7380 F   0  0  0  0  0  0  0  0  0  0  0  0
  -23.7600  -13.8830   21.2840 C   0  0  0  0  0  0  0  0  0  0  0  0
  -23.0230  -13.2120   22.1650 N   0  0  0  0  0  0  0  0  0  0  0  0
  -23.3970  -14.9810   20.8670 O   0  0  0  0  0  0  0  0  0  0  0  0
  -23.3240  -12.3200   22.5280 H   0  0  0  0  0  0  0  0  0  0  0  0
  -22.1550  -13.6100   22.4980 H   0  0  0  0  0  0  0  0  0  0  0  0
  -26.4840  -15.3120   20.3230 N   0  0  0  0  0  0  0  0  0  0  0  0
  -25.6370  -15.8630   20.4380 H   0  0  0  0  0  0  0  0  0  0  0  0
  -26.8660  -15.4800   19.4000 H   0  0  0  0  0  0  0  0  0  0  0  0
  1  6  1  0
  3  1  1  0
  3  5  1  0
  3  4  1  0
  4  2  1  0
  5  8  1  0
  5  4  1  0
  6  7  1  1
  6 55  1  0
  6  2  1  0
  8  9  1  0
  9 11  1  0
  9 10  1  0
 12  9  1  0
 12 13  1  0
 14 16  1  0
 14 13  1  0
 15 26  2  0
 16 21  1  0
 17 25  1  0
 17 27  1  0
 18 24  1  0
 18 20  1  0
 19 25  1  0
 20 19  1  0
 21 20  2  0
 22 23  1  0
 22 16  2  0
 23 18  2  0
 24 17  1  0
 25 15  1  0
 27 29  2  0
 28 27  1  0
 30 28  1  0
 31 40  2  0
 31 36  1  0
 32 28  1  0
 32 36  1  0
 33 32  1  0
 34 35  1  0
 34 33  1  0
 35 31  1  0
 36 37  2  0
 37 38  1  0
 39 38  2  0
 40 39  1  0
 41 15  1  0
 41 42  1  0
 41 51  1  0
 42 45  1  0
 43 42  1  0
 43 47  1  0
 44 43  2  0
 47 46  1  0
 47 49  1  0
 49 50  1  0
 49 48  1  0
 51 54  1  1
 51 52  1  0
 53 51  1  0
 56 65  1  0
 56 55  1  0
 57 63  1  0
 57 65  1  0
 58 63  1  0
 59 60  1  0
 59 58  1  0
 61 60  1  0
 61 70  1  0
 61 62  1  0
 63 62  1  0
 64 57  2  0
 65 66  1  0
 67 68  2  0
 68 87  1  0
 69 72  1  0
 69 68  1  0
 70 71  1  0
 70 67  1  0
 71 69  2  0
 72 73  1  0
 73 74  2  0
 75 78  1  0
 75 74  1  0
 76 75  2  0
 77 76  1  0
 77 72  2  0
 78 79  1  0
 79 80  1  0
 80 81  2  0
 82 81  1  0
 82 86  1  0
 83 82  2  0
 84 79  2  0
 84 83  1  0
 85 84  1  0
 87 88  1  0
 88 91  1  0
 88 90  1  0
 89 87  2  0
 92 93  1  0
 92 67  1  0
 94 92  1  0
M  ISO  4  13 101  14 101  57 100  65 100
M  END
>  <TORSDO>  (3) 
F 22

>  <SCORE>  (3) 
-8.417

>  <name>  (3) 
2

>  <ligand_id>  (3) 
2

>  <original_smiles>  (3) 
[H]c1c([H])c([H])c2c(c1[H])C([H])([H])C([H])([H])C([H])([H])C2([H])N([H])C(=O)C1([H])N(C(=O)C([H])(N([H])C(=O)C([H])(N([H])C([H])([H])[H])C([H])([H])[H])C(C([H])([H])[H])(C([H])([H])[H])C([H])([H])[H])C([H])([H])c2c([H])c(OC([H])([H])C([H])([H])[N+]([H])([H])C([H])([H])C3([H])C4([H])C3([H])C([H])([H])[N+]([H])(C([H])([H])C([H])([H])N([H])C(=O)N3C([H])([H])C([H])([H])C([H])([H])C([H])(n5nc(-c6c([H])c([H])c(Oc7c([H])c([H])c(F)c([H])c7F)c([H])c6[H])c(C(=O)N([H])[H])c5N([H])[H])C3([H])[H])C4([H])[H])c([H])c([H])c2C1([H])[H]

>  <smiles>  (3) 
[H]c1c([H])c([H])c2c(c1[H])C([H])([H])C([H])([H])C([H])([H])C2([H])N([H])C(=O)C1([H])N(C(=O)C([H])(N([H])C(=O)C([H])(N([H])C([H])([H])[H])C([H])([H])[H])C(C([H])([H])[H])(C([H])([H])[H])C([H])([H])[H])C([H])([H])c2c([H])c(OC([H])([H])C([H])([H])[N+]([H])([H])C([H])([H])C3([H])C4([H])C3([H])C([H])([H])[N+]([H])(C([H])([H])C([H])([H])N([H])C(=O)N3C([H])([H])C([H])([H])C([H])([H])C([H])(n5nc(-c6c([H])c([H])c(Oc7c([H])c([H])c(F)c([H])c7F)c([H])c6[H])c(C(=O)N([H])[H])c5N([H])[H])C3([H])[H])C4([H])[H])c([H])c([H])c2C1([H])[H]

$$$$
3:0:0
     RDKit          3D

 92101  0  0  1  0  0  0  0  0999 V2000
  -31.2510  -22.2650   20.4860 C   0  0  0  0  0  2  0  0  0  0  0  0
  -31.3380  -20.8650   19.8720 C   0  0  0  0  0  2  0  0  0  0  0  0
  -29.2900  -20.9160   20.9010 C   0  0  0  0  0  2  0  0  0  0  0  0
  -29.9070  -22.2990   21.2230 C   0  0  0  0  0  3  0  0  0  0  0  0
  -30.4530  -20.0420   20.6920 N   0  0  0  0  0  0  0  0  0  0  0  0
  -29.0590  -23.4680   20.8470 N   0  0  0  0  0  4  0  0  0  0  0  0
  -28.1670  -23.3360   21.3010 H   0  0  0  0  0  0  0  0  0  0  0  0
  -28.8880  -23.4700   19.8530 H   0  0  0  0  0  0  0  0  0  0  0  0
  -29.6050  -24.7950   21.2630 C   0  0  0  0  0  2  0  0  0  0  0  0
  -28.5420  -25.9160   21.3770 C   0  0  0  0  0  2  0  0  0  0  0  0
  -28.3960  -26.6810   20.1750 O   0  0  0  0  0  0  0  0  0  0  0  0
  -24.6170  -31.8910   23.2530 C   0  0  0  0  0  0  0  0  0  0  0  0
  -27.2580  -27.4520   20.1770 C   0  0  0  0  0  0  0  0  0  0  0  0
  -23.4070  -30.4820   21.6180 C   0  0  0  0  0  3  0  0  0  0  0  0
  -24.8600  -28.9440   20.1910 C   0  0  0  0  0  0  0  0  0  0  0  0
  -25.9290  -30.8480   21.4080 C   0  0  0  0  0  2  0  0  0  0  0  0
  -26.0170  -29.4750   20.7770 C   0  0  0  0  0  0  0  0  0  0  0  0
  -27.2210  -28.7330   20.7720 C   0  0  0  0  0  3  0  0  0  0  0  0
  -26.0900  -26.9340   19.5810 C   0  0  0  0  0  3  0  0  0  0  0  0
  -24.8900  -27.6710   19.5920 C   0  0  0  0  0  3  0  0  0  0  0  0
  -23.6120  -29.7980   20.2390 C   0  0  0  0  0  2  0  0  0  0  0  0
  -24.6700  -31.0890   22.1520 N   0  0  0  0  0  0  0  0  0  0  0  0
  -23.5380  -32.1630   23.7970 O   0  0  0  0  0  0  0  0  0  0  0  0
  -22.7620  -29.4620   22.5840 C   0  0  0  0  0  0  0  0  0  0  0  0
  -21.4380  -29.2730   22.4600 N   0  0  0  0  0  0  0  0  0  0  0  0
  -23.4500  -28.8430   23.4000 O   0  0  0  0  0  0  0  0  0  0  0  0
  -20.9440  -29.8240   21.7710 H   0  0  0  0  0  0  0  0  0  0  0  0
  -18.0710  -28.0670   22.9600 C   0  0  0  0  0  0  0  0  0  0  0  0
  -20.6270  -28.3370   23.2350 C   0  0  0  0  0  3  0  0  0  0  0  0
  -20.7380  -26.9040   22.6670 C   0  0  0  0  0  2  0  0  0  0  0  0
  -19.6380  -26.5700   21.6540 C   0  0  0  0  0  2  0  0  0  0  0  0
  -18.2550  -26.7140   22.2930 C   0  0  0  0  0  2  0  0  0  0  0  0
  -19.1860  -28.8360   23.3880 C   0  0  0  0  0  0  0  0  0  0  0  0
  -18.9600  -30.1030   23.9690 C   0  0  0  0  0  3  0  0  0  0  0  0
  -17.6530  -30.6000   24.1280 C   0  0  0  0  0  3  0  0  0  0  0  0
  -16.5530  -29.8270   23.7160 C   0  0  0  0  0  3  0  0  0  0  0  0
  -16.7630  -28.5630   23.1380 C   0  0  0  0  0  3  0  0  0  0  0  0
  -25.9050  -32.5240   23.8650 C   0  0  0  0  0  3  0  0  0  0  0  0
  -26.4350  -31.7520   25.1350 C   0  0  1  0  0  0  0  0  0  0  0  0
  -25.3520  -31.5100   26.2120 C   0  0  0  0  0  1  0  0  0  0  0  0
  -27.0170  -30.3770   24.7320 C   0  0  0  0  0  1  0  0  0  0  0  0
  -27.5890  -32.5480   25.7880 C   0  0  0  0  0  1  0  0  0  0  0  0
  -25.5970  -33.9210   24.1970 N   0  0  0  0  0  0  0  0  0  0  0  0
  -25.9230  -34.9720   23.4340 C   0  0  0  0  0  0  0  0  0  0  0  0
  -26.5880  -34.8700   22.3980 O   0  0  0  0  0  0  0  0  0  0  0  0
  -25.0060  -34.0740   25.0010 H   0  0  0  0  0  0  0  0  0  0  0  0
  -24.1880  -36.7580   23.0850 C   0  0  0  0  0  1  0  0  0  0  0  0
  -25.4340  -36.3600   23.8920 C   0  0  0  0  0  3  0  0  0  0  0  0
  -27.5720  -37.2490   24.7080 C   0  0  0  0  0  1  0  0  0  0  0  0
  -26.4630  -37.4150   23.7730 N   0  0  0  0  0  0  0  0  0  0  0  0
  -26.0560  -38.3340   23.9230 H   0  0  0  0  0  0  0  0  0  0  0  0
  -30.1530  -18.7730   20.0140 C   0  0  0  0  0  2  0  0  0  0  0  0
  -30.6970  -14.4850   20.4700 C   0  0  0  0  0  0  0  0  0  0  0  0
  -30.3480  -12.3370   19.3080 C   0  0  0  0  0  2  0  0  0  0  0  0
  -29.4050  -12.5500   18.1060 C   0  0  0  0  0  2  0  0  0  0  0  0
  -27.9350  -12.4040   18.5420 C   0  0  0  0  0  2  0  0  0  0  0  0
  -27.6020  -13.2400   19.8060 C   0  0  0  0  0  3  0  0  0  0  0  0
  -28.6640  -13.0420   20.9120 C   0  0  0  0  0  2  0  0  0  0  0  0
  -29.9880  -13.3280   20.3360 N   0  0  0  0  0  0  0  0  0  0  0  0
  -31.8250  -14.6230   19.9880 O   0  0  0  0  0  0  0  0  0  0  0  0
  -30.8220  -16.7130   21.5640 C   0  0  0  0  0  2  0  0  0  0  0  0
  -29.1350  -16.3730   20.3460 C   0  0  0  0  0  2  0  0  0  0  0  0
  -29.7520  -17.6270   20.9630 C   0  0  0  0  0  3  0  0  0  0  0  0
  -30.0830  -15.5270   21.0860 N   0  0  0  0  0  0  0  0  0  0  0  0
  -25.2060  -13.8490   20.5230 C   0  0  0  0  0  0  0  0  0  0  0  0
  -24.1400  -13.0770   20.9000 C   0  0  0  0  0  0  0  0  0  0  0  0
  -24.6030  -11.7260   20.8720 C   0  0  0  0  0  0  0  0  0  0  0  0
  -26.2520  -12.9680   20.2930 N   0  0  0  0  0  0  0  0  0  0  0  0
  -25.8930  -11.6860   20.5610 N   0  0  0  0  0  0  0  0  0  0  0  0
  -23.8790  -10.4640   21.0670 C   0  0  0  0  0  0  0  0  0  0  0  0
  -24.3260   -9.4910   21.9890 C   0  0  0  0  0  3  0  0  0  0  0  0
  -23.6040   -8.2940   22.1730 C   0  0  0  0  0  3  0  0  0  0  0  0
  -22.4180   -8.0600   21.4360 C   0  0  0  0  0  0  0  0  0  0  0  0
  -21.9890   -9.0210   20.5030 C   0  0  0  0  0  3  0  0  0  0  0  0
  -22.7130  -10.2120   20.3180 C   0  0  0  0  0  3  0  0  0  0  0  0
  -21.6650   -6.9150   21.5300 O   0  0  0  0  0  0  0  0  0  0  0  0
  -21.6480   -6.1570   22.6730 C   0  0  0  0  0  0  0  0  0  0  0  0
  -21.2700   -6.6970   23.9210 C   0  0  0  0  0  3  0  0  0  0  0  0
  -21.2000   -5.8660   25.0560 C   0  0  0  0  0  3  0  0  0  0  0  0
  -21.4970   -4.4940   24.9440 C   0  0  0  0  0  0  0  0  0  0  0  0
  -21.8690   -3.9530   23.7010 C   0  0  0  0  0  3  0  0  0  0  0  0
  -21.9400   -4.7820   22.5680 C   0  0  0  0  0  0  0  0  0  0  0  0
  -22.2790   -4.2510   21.3680 F   0  0  0  0  0  0  0  0  0  0  0  0
  -21.4230   -3.6930   26.0320 F   0  0  0  0  0  0  0  0  0  0  0  0
  -22.7440  -13.5550   21.1750 C   0  0  0  0  0  0  0  0  0  0  0  0
  -22.0190  -12.8610   22.0460 N   0  0  0  0  0  0  0  0  0  0  0  0
  -22.3020  -14.5770   20.6520 O   0  0  0  0  0  0  0  0  0  0  0  0
  -22.3880  -12.0340   22.4910 H   0  0  0  0  0  0  0  0  0  0  0  0
  -21.0810  -13.1610   22.2710 H   0  0  0  0  0  0  0  0  0  0  0  0
  -25.3650  -15.2190   20.3360 N   0  0  0  0  0  0  0  0  0  0  0  0
  -24.5950  -15.8690   20.4400 H   0  0  0  0  0  0  0  0  0  0  0  0
  -26.2080  -15.6540   19.9870 H   0  0  0  0  0  0  0  0  0  0  0  0
  1  4  1  0
  2  1  1  0
  2  5  1  0
  3  4  1  0
  4  6  1  0
  5  3  1  0
  6  9  1  0
  6  7  1  0
  8  6  1  0
  9 10  1  0
 11 13  1  0
 11 10  1  0
 12 23  2  0
 13 18  1  0
 14 22  1  0
 14 24  1  0
 15 21  1  0
 15 17  1  0
 16 22  1  0
 17 16  1  0
 18 17  2  0
 19 20  1  0
 19 13  2  0
 20 15  2  0
 21 14  1  0
 22 12  1  0
 24 26  2  0
 25 24  1  0
 27 25  1  0
 28 37  2  0
 28 33  1  0
 29 25  1  0
 29 33  1  0
 30 29  1  0
 31 32  1  0
 31 30  1  0
 32 28  1  0
 33 34  2  0
 34 35  1  0
 36 35  2  0
 37 36  1  0
 38 12  1  0
 38 43  1  0
 38 39  1  0
 39 42  1  1
 39 40  1  0
 41 39  1  0
 43 46  1  0
 44 48  1  0
 44 43  1  0
 45 44  2  0
 48 47  1  0
 50 48  1  0
 50 51  1  0
 50 49  1  0
 52  5  1  0
 53 64  1  0
 54 59  1  0
 55 56  1  0
 55 54  1  0
 57 56  1  0
 57 68  1  0
 57 58  1  0
 59 53  1  0
 59 58  1  0
 60 53  2  0
 62 63  1  0
 62 64  1  0
 63 52  1  0
 63 61  1  0
 64 61  1  0
 65 66  2  0
 66 85  1  0
 67 66  1  0
 67 70  1  0
 68 65  1  0
 68 69  1  0
 69 67  2  0
 70 71  1  0
 71 72  2  0
 73 76  1  0
 73 72  1  0
 74 73  2  0
 75 74  1  0
 75 70  2  0
 76 77  1  0
 77 78  1  0
 78 79  2  0
 80 79  1  0
 80 84  1  0
 81 80  2  0
 82 77  2  0
 82 81  1  0
 83 82  1  0
 85 86  1  0
 86 89  1  0
 86 88  1  0
 87 85  2  0
 90 91  1  0
 90 65  1  0
 92 90  1  0
M  ISO  4  10 101  11 101  53 100  64 100
M  END
>  <TORSDO>  (4) 
F 20

>  <SCORE>  (4) 
-14.122

>  <name>  (4) 
3

>  <ligand_id>  (4) 
3

>  <original_smiles>  (4) 
[H]c1c([H])c([H])c2c(c1[H])C([H])([H])C([H])([H])C([H])([H])C2([H])N([H])C(=O)C1([H])N(C(=O)C([H])(N([H])C(=O)C([H])(N([H])C([H])([H])[H])C([H])([H])[H])C(C([H])([H])[H])(C([H])([H])[H])C([H])([H])[H])C([H])([H])c2c([H])c(OC([H])([H])C([H])([H])[N+]([H])([H])C3([H])C([H])([H])N(C([H])([H])C4([H])C([H])([H])N(C(=O)N5C([H])([H])C([H])([H])C([H])([H])C([H])(n6nc(-c7c([H])c([H])c(Oc8c([H])c([H])c(F)c([H])c8F)c([H])c7[H])c(C(=O)N([H])[H])c6N([H])[H])C5([H])[H])C4([H])[H])C([H])([H])C3([H])[H])c([H])c([H])c2C1([H])[H]

>  <smiles>  (4) 
[H]c1c([H])c([H])c2c(c1[H])C([H])([H])C([H])([H])C([H])([H])C2([H])N([H])C(=O)C1([H])N(C(=O)C([H])(N([H])C(=O)C([H])(N([H])C([H])([H])[H])C([H])([H])[H])C(C([H])([H])[H])(C([H])([H])[H])C([H])([H])[H])C([H])([H])c2c([H])c(OC([H])([H])C([H])([H])[N+]([H])([H])C3([H])C([H])([H])N(C([H])([H])C4([H])C([H])([H])N(C(=O)N5C([H])([H])C([H])([H])C([H])([H])C([H])(n6nc(-c7c([H])c([H])c(Oc8c([H])c([H])c(F)c([H])c8F)c([H])c7[H])c(C(=O)N([H])[H])c6N([H])[H])C5([H])[H])C4([H])[H])C([H])([H])C3([H])[H])c([H])c([H])c2C1([H])[H]

$$$$
4:0:0
     RDKit          3D

 91100  0  0  1  0  0  0  0  0999 V2000
  -29.4460  -23.3440   18.9760 C   0  0  0  0  0  3  0  0  0  0  0  0
  -29.8610  -22.0290   18.8170 C   0  0  0  0  0  0  0  0  0  0  0  0
  -29.3950  -21.2700   19.9500 C   0  0  0  0  0  0  0  0  0  0  0  0
  -29.0000  -18.7410   21.0190 C   0  0  0  0  0  2  0  0  0  0  0  0
  -30.1740  -18.7290   19.3330 C   0  0  0  0  0  2  0  0  0  0  0  0
  -30.1020  -17.6810   20.5220 C   0  0  0  0  0  3  0  0  0  0  0  0
  -28.7210  -22.2000   20.7310 N   0  0  0  0  0  0  0  0  0  0  0  0
  -28.7480  -23.5100   20.1550 N   0  0  0  0  0  0  0  0  0  0  0  0
  -29.7350  -19.8070   20.2790 N   0  0  0  0  0  0  0  0  0  0  0  0
  -30.5290  -14.9740   20.1520 C   0  0  0  0  0  0  0  0  0  0  0  0
  -30.3730  -12.6450   19.1630 C   0  0  0  0  0  2  0  0  0  0  0  0
  -29.3990  -12.6170   17.9630 C   0  0  0  0  0  2  0  0  0  0  0  0
  -27.9500  -12.4050   18.4400 C   0  0  0  0  0  2  0  0  0  0  0  0
  -27.5810  -13.3150   19.6400 C   0  0  0  0  0  3  0  0  0  0  0  0
  -28.6700  -13.3080   20.7320 C   0  0  0  0  0  2  0  0  0  0  0  0
  -29.9210  -13.7240   20.0850 N   0  0  0  0  0  0  0  0  0  0  0  0
  -31.7320  -15.0380   19.8820 O   0  0  0  0  0  0  0  0  0  0  0  0
  -29.7530  -16.1520   20.3190 N   0  0  0  0  0  0  0  0  0  0  0  0
  -28.7700  -15.9540   20.4150 H   0  0  0  0  0  0  0  0  0  0  0  0
  -25.2200  -13.8870   20.4470 C   0  0  0  0  0  0  0  0  0  0  0  0
  -24.1680  -13.1080   20.8380 C   0  0  0  0  0  0  0  0  0  0  0  0
  -24.6320  -11.7580   20.7850 C   0  0  0  0  0  0  0  0  0  0  0  0
  -26.2580  -13.0120   20.1730 N   0  0  0  0  0  0  0  0  0  0  0  0
  -25.9150  -11.7260   20.4440 N   0  0  0  0  0  0  0  0  0  0  0  0
  -23.9120  -10.4930   20.9830 C   0  0  0  0  0  0  0  0  0  0  0  0
  -24.3530   -9.5290   21.9170 C   0  0  0  0  0  3  0  0  0  0  0  0
  -23.6310   -8.3300   22.1010 C   0  0  0  0  0  3  0  0  0  0  0  0
  -22.4550   -8.0870   21.3510 C   0  0  0  0  0  0  0  0  0  0  0  0
  -22.0340   -9.0390   20.4070 C   0  0  0  0  0  3  0  0  0  0  0  0
  -22.7560  -10.2290   20.2200 C   0  0  0  0  0  3  0  0  0  0  0  0
  -21.7040   -6.9410   21.4460 O   0  0  0  0  0  0  0  0  0  0  0  0
  -21.6480   -6.2110   22.6070 C   0  0  0  0  0  0  0  0  0  0  0  0
  -21.1800   -6.7670   23.8160 C   0  0  0  0  0  3  0  0  0  0  0  0
  -21.0720   -5.9620   24.9670 C   0  0  0  0  0  3  0  0  0  0  0  0
  -21.4260   -4.6010   24.9110 C   0  0  0  0  0  0  0  0  0  0  0  0
  -21.8880   -4.0440   23.7060 C   0  0  0  0  0  3  0  0  0  0  0  0
  -21.9960   -4.8450   22.5560 C   0  0  0  0  0  0  0  0  0  0  0  0
  -22.4210   -4.2980   21.3930 F   0  0  0  0  0  0  0  0  0  0  0  0
  -21.3160   -3.8250   26.0150 F   0  0  0  0  0  0  0  0  0  0  0  0
  -22.7760  -13.5810   21.1440 C   0  0  0  0  0  0  0  0  0  0  0  0
  -22.0690  -12.8770   22.0200 N   0  0  0  0  0  0  0  0  0  0  0  0
  -22.3260  -14.6110   20.6420 O   0  0  0  0  0  0  0  0  0  0  0  0
  -22.4460  -12.0440   22.4470 H   0  0  0  0  0  0  0  0  0  0  0  0
  -21.1360  -13.1760   22.2690 H   0  0  0  0  0  0  0  0  0  0  0  0
  -25.3750  -15.2590   20.2740 N   0  0  0  0  0  0  0  0  0  0  0  0
  -24.5990  -15.9020   20.3950 H   0  0  0  0  0  0  0  0  0  0  0  0
  -26.1940  -15.7010   19.8770 H   0  0  0  0  0  0  0  0  0  0  0  0
  -32.1850  -21.5460   17.9700 C   0  0  0  0  0  1  0  0  0  0  0  0
  -30.6840  -21.5330   17.6540 C   0  0  0  0  0  2  0  0  0  0  0  0
  -28.0240  -24.7900   20.7280 C   0  0  0  0  0  2  0  0  0  0  0  0
  -28.3370  -26.2020   20.2450 O   0  0  0  0  0  0  0  0  0  0  0  0
  -24.6590  -31.8800   23.2210 C   0  0  0  0  0  0  0  0  0  0  0  0
  -27.2830  -27.1840   20.2180 C   0  0  0  0  0  0  0  0  0  0  0  0
  -23.4780  -30.4800   21.5700 C   0  0  0  0  0  3  0  0  0  0  0  0
  -24.9460  -28.9110   20.1630 C   0  0  0  0  0  0  0  0  0  0  0  0
  -26.0340  -30.7590   21.4280 C   0  0  0  0  0  2  0  0  0  0  0  0
  -26.1190  -29.3660   20.7790 C   0  0  0  0  0  0  0  0  0  0  0  0
  -27.2920  -28.5210   20.7860 C   0  0  0  0  0  3  0  0  0  0  0  0
  -26.0860  -26.8320   19.5590 C   0  0  0  0  0  3  0  0  0  0  0  0
  -24.9420  -27.6570   19.5360 C   0  0  0  0  0  3  0  0  0  0  0  0
  -23.7150  -29.8030   20.1950 C   0  0  0  0  0  2  0  0  0  0  0  0
  -24.7430  -31.0620   22.1280 N   0  0  0  0  0  0  0  0  0  0  0  0
  -23.5670  -32.1590   23.7400 O   0  0  0  0  0  0  0  0  0  0  0  0
  -22.7980  -29.4700   22.5270 C   0  0  0  0  0  0  0  0  0  0  0  0
  -21.4690  -29.3040   22.3980 N   0  0  0  0  0  0  0  0  0  0  0  0
  -23.4660  -28.8380   23.3490 O   0  0  0  0  0  0  0  0  0  0  0  0
  -20.9880  -29.8660   21.7110 H   0  0  0  0  0  0  0  0  0  0  0  0
  -18.0780  -28.1290   22.9080 C   0  0  0  0  0  0  0  0  0  0  0  0
  -20.6420  -28.3660   23.1630 C   0  0  0  0  0  3  0  0  0  0  0  0
  -20.7260  -26.9390   22.5740 C   0  0  0  0  0  2  0  0  0  0  0  0
  -19.6160  -26.6360   21.5630 C   0  0  0  0  0  2  0  0  0  0  0  0
  -18.2390  -26.7850   22.2160 C   0  0  0  0  0  2  0  0  0  0  0  0
  -19.2060  -28.8780   23.3380 C   0  0  0  0  0  0  0  0  0  0  0  0
  -19.0010  -30.1350   23.9470 C   0  0  0  0  0  3  0  0  0  0  0  0
  -17.7000  -30.6440   24.1290 C   0  0  0  0  0  3  0  0  0  0  0  0
  -16.5880  -29.8930   23.7130 C   0  0  0  0  0  3  0  0  0  0  0  0
  -16.7780  -28.6370   23.1080 C   0  0  0  0  0  3  0  0  0  0  0  0
  -25.9300  -32.5210   23.8590 C   0  0  0  0  0  3  0  0  0  0  0  0
  -25.6120  -33.9220   24.1770 N   0  0  0  0  0  0  0  0  0  0  0  0
  -25.9500  -34.9740   23.4200 C   0  0  0  0  0  0  0  0  0  0  0  0
  -26.6300  -34.8690   22.3960 O   0  0  0  0  0  0  0  0  0  0  0  0
  -25.0120  -34.0780   24.9730 H   0  0  0  0  0  0  0  0  0  0  0  0
  -24.2290  -36.7720   23.0460 C   0  0  0  0  0  1  0  0  0  0  0  0
  -25.4600  -36.3650   23.8720 C   0  0  0  0  0  3  0  0  0  0  0  0
  -27.5810  -37.2510   24.7330 C   0  0  0  0  0  1  0  0  0  0  0  0
  -26.4940  -37.4170   23.7720 N   0  0  0  0  0  0  0  0  0  0  0  0
  -26.0850  -38.3370   23.9120 H   0  0  0  0  0  0  0  0  0  0  0  0
  -26.4250  -31.7640   25.1520 C   0  0  1  0  0  0  0  0  0  0  0  0
  -25.3140  -31.5350   26.2050 C   0  0  0  0  0  1  0  0  0  0  0  0
  -27.0160  -30.3830   24.7870 C   0  0  0  0  0  1  0  0  0  0  0  0
  -27.5640  -32.5660   25.8230 C   0  0  0  0  0  1  0  0  0  0  0  0
  1  8  1  0
  2  1  2  0
  2  3  1  0
  3  9  1  0
  3  7  2  0
  5  9  1  0
  5  6  1  0
  6 18  1  0
  6  4  1  0
  8 50  1  0
  8  7  1  0
  9  4  1  0
 10 18  1  0
 11 16  1  0
 12 13  1  0
 12 11  1  0
 14 13  1  0
 14 23  1  0
 14 15  1  0
 16 10  1  0
 16 15  1  0
 17 10  2  0
 18 19  1  0
 20 21  2  0
 21 40  1  0
 22 21  1  0
 22 25  1  0
 23 24  1  0
 23 20  1  0
 24 22  2  0
 25 26  1  0
 26 27  2  0
 28 31  1  0
 28 27  1  0
 29 28  2  0
 30 29  1  0
 30 25  2  0
 31 32  1  0
 32 33  1  0
 33 34  2  0
 35 34  1  0
 35 39  1  0
 36 35  2  0
 37 32  2  0
 37 36  1  0
 38 37  1  0
 40 41  1  0
 41 44  1  0
 41 43  1  0
 42 40  2  0
 45 46  1  0
 45 20  1  0
 47 45  1  0
 49 48  1  0
 49  2  1  0
 51 50  1  0
 52 63  2  0
 53 51  1  0
 53 58  1  0
 54 62  1  0
 54 64  1  0
 55 61  1  0
 55 57  1  0
 56 62  1  0
 57 58  2  0
 57 56  1  0
 59 53  2  0
 60 59  1  0
 60 55  2  0
 61 54  1  0
 62 52  1  0
 64 66  2  0
 65 64  1  0
 67 65  1  0
 68 77  2  0
 68 73  1  0
 69 65  1  0
 69 73  1  0
 70 69  1  0
 71 72  1  0
 71 70  1  0
 72 68  1  0
 73 74  2  0
 74 75  1  0
 76 75  2  0
 77 76  1  0
 78 52  1  0
 78 79  1  0
 78 88  1  0
 79 82  1  0
 80 84  1  0
 80 79  1  0
 81 80  2  0
 84 83  1  0
 86 84  1  0
 86 87  1  0
 86 85  1  0
 88 91  1  1
 88 89  1  0
 90 88  1  0
M  ISO  4  10 100  18 100  50 101  51 101
M  END
>  <TORSDO>  (5) 
F 18

>  <SCORE>  (5) 
-14.343

>  <name>  (5) 
4

>  <ligand_id>  (5) 
4

>  <original_smiles>  (5) 
[H]c1c([H])c([H])c2c(c1[H])C([H])([H])C([H])([H])C([H])([H])C2([H])N([H])C(=O)C1([H])N(C(=O)C([H])(N([H])C(=O)C([H])(N([H])C([H])([H])[H])C([H])([H])[H])C(C([H])([H])[H])(C([H])([H])[H])C([H])([H])[H])C([H])([H])c2c([H])c(OC([H])([H])n3nc(N4C([H])([H])C([H])(N([H])C(=O)N5C([H])([H])C([H])([H])C([H])([H])C([H])(n6nc(-c7c([H])c([H])c(Oc8c([H])c([H])c(F)c([H])c8F)c([H])c7[H])c(C(=O)N([H])[H])c6N([H])[H])C5([H])[H])C4([H])[H])c(C([H])([H])C([H])([H])[H])c3[H])c([H])c([H])c2C1([H])[H]

>  <smiles>  (5) 
[H]c1c([H])c([H])c2c(c1[H])C([H])([H])C([H])([H])C([H])([H])C2([H])N([H])C(=O)C1([H])N(C(=O)C([H])(N([H])C(=O)C([H])(N([H])C([H])([H])[H])C([H])([H])[H])C(C([H])([H])[H])(C([H])([H])[H])C([H])([H])[H])C([H])([H])c2c([H])c(OC([H])([H])n3nc(N4C([H])([H])C([H])(N([H])C(=O)N5C([H])([H])C([H])([H])C([H])([H])C([H])(n6nc(-c7c([H])c([H])c(Oc8c([H])c([H])c(F)c([H])c8F)c([H])c7[H])c(C(=O)N([H])[H])c6N([H])[H])C5([H])[H])C4([H])[H])c(C([H])([H])C([H])([H])[H])c3[H])c([H])c([H])c2C1([H])[H]

$$$$
5:0:0
     RDKit          3D

 91100  0  0  1  0  0  0  0  0999 V2000
  -29.8730  -21.7060   20.1260 C   0  0  0  0  0  3  0  0  0  0  0  0
  -27.7570  -22.1520   20.0270 C   0  0  0  0  0  3  0  0  0  0  0  0
  -29.1740  -20.5120   20.0410 C   0  0  0  0  0  0  0  0  0  0  0  0
  -27.8180  -20.8180   20.0170 N   0  0  0  0  0  0  0  0  0  0  0  0
  -28.9530  -22.7660   20.0520 N   0  0  0  0  0  0  0  0  0  0  0  0
  -29.6840  -19.2030   19.7960 N   0  0  0  0  0  0  0  0  0  0  0  0
  -29.4230  -18.9250   18.8510 H   0  0  0  0  0  0  0  0  0  0  0  0
  -30.7250  -14.5560   20.1630 C   0  0  0  0  0  0  0  0  0  0  0  0
  -30.3670  -12.3880   19.0220 C   0  0  0  0  0  2  0  0  0  0  0  0
  -29.3690  -12.5910   17.8590 C   0  0  0  0  0  2  0  0  0  0  0  0
  -27.9220  -12.4270   18.3560 C   0  0  0  0  0  2  0  0  0  0  0  0
  -27.6360  -13.2760   19.6220 C   0  0  0  0  0  3  0  0  0  0  0  0
  -28.7420  -13.0890   20.6860 C   0  0  0  0  0  2  0  0  0  0  0  0
  -30.0340  -13.3850   20.0560 N   0  0  0  0  0  0  0  0  0  0  0  0
  -31.8450  -14.7020   19.6620 O   0  0  0  0  0  0  0  0  0  0  0  0
  -30.7630  -17.8040   21.5700 C   0  0  0  0  0  2  0  0  0  0  0  0
  -30.7760  -16.2940   21.8630 C   0  0  0  0  0  2  0  0  0  0  0  0
  -29.4520  -16.6700   19.9280 C   0  0  0  0  0  2  0  0  0  0  0  0
  -29.5400  -18.0290   20.6840 C   0  0  0  0  0  3  0  0  0  0  0  0
  -30.0940  -15.6100   20.7520 N   0  0  0  0  0  0  0  0  0  0  0  0
  -25.2780  -13.8840   20.4470 C   0  0  0  0  0  0  0  0  0  0  0  0
  -24.2210  -13.1100   20.8450 C   0  0  0  0  0  0  0  0  0  0  0  0
  -24.6780  -11.7580   20.7800 C   0  0  0  0  0  0  0  0  0  0  0  0
  -26.3070  -13.0010   20.1580 N   0  0  0  0  0  0  0  0  0  0  0  0
  -25.9560  -11.7170   20.4230 N   0  0  0  0  0  0  0  0  0  0  0  0
  -23.9550  -10.4950   20.9780 C   0  0  0  0  0  0  0  0  0  0  0  0
  -24.4040   -9.5260   21.9030 C   0  0  0  0  0  3  0  0  0  0  0  0
  -23.6820   -8.3280   22.0900 C   0  0  0  0  0  3  0  0  0  0  0  0
  -22.4960   -8.0930   21.3540 C   0  0  0  0  0  0  0  0  0  0  0  0
  -22.0680   -9.0480   20.4140 C   0  0  0  0  0  3  0  0  0  0  0  0
  -22.7930  -10.2380   20.2270 C   0  0  0  0  0  3  0  0  0  0  0  0
  -21.7470   -6.9470   21.4480 O   0  0  0  0  0  0  0  0  0  0  0  0
  -21.7010   -6.2150   22.6040 C   0  0  0  0  0  0  0  0  0  0  0  0
  -21.2490   -6.7690   23.8210 C   0  0  0  0  0  3  0  0  0  0  0  0
  -21.1510   -5.9600   24.9700 C   0  0  0  0  0  3  0  0  0  0  0  0
  -21.4940   -4.5970   24.9020 C   0  0  0  0  0  0  0  0  0  0  0  0
  -21.9400   -4.0400   23.6900 C   0  0  0  0  0  3  0  0  0  0  0  0
  -22.0370   -4.8480   22.5430 C   0  0  0  0  0  0  0  0  0  0  0  0
  -22.4460   -4.3020   21.3720 F   0  0  0  0  0  0  0  0  0  0  0  0
  -21.3940   -3.8180   26.0040 F   0  0  0  0  0  0  0  0  0  0  0  0
  -22.8350  -13.5860   21.1710 C   0  0  0  0  0  0  0  0  0  0  0  0
  -22.1340  -12.8780   22.0500 N   0  0  0  0  0  0  0  0  0  0  0  0
  -22.3800  -14.6190   20.6860 O   0  0  0  0  0  0  0  0  0  0  0  0
  -22.5100  -12.0330   22.4570 H   0  0  0  0  0  0  0  0  0  0  0  0
  -21.2140  -13.1910   22.3230 H   0  0  0  0  0  0  0  0  0  0  0  0
  -25.4440  -15.2580   20.2890 N   0  0  0  0  0  0  0  0  0  0  0  0
  -24.6980  -15.9170   20.4830 H   0  0  0  0  0  0  0  0  0  0  0  0
  -26.2990  -15.7050   19.9880 H   0  0  0  0  0  0  0  0  0  0  0  0
  -29.2500  -24.2170   19.9020 C   0  0  0  0  0  3  0  0  0  0  0  0
  -28.2090  -25.2070   20.5170 C   0  0  0  0  0  3  0  0  0  0  0  0
  -28.4160  -26.6220   20.2170 O   0  0  0  0  0  0  0  0  0  0  0  0
  -24.6030  -31.9100   23.2460 C   0  0  0  0  0  0  0  0  0  0  0  0
  -27.2770  -27.4190   20.1880 C   0  0  0  0  0  0  0  0  0  0  0  0
  -23.4160  -30.5080   21.5950 C   0  0  0  0  0  3  0  0  0  0  0  0
  -24.8890  -28.9680   20.1820 C   0  0  0  0  0  0  0  0  0  0  0  0
  -25.9530  -30.8400   21.4390 C   0  0  0  0  0  2  0  0  0  0  0  0
  -26.0460  -29.4710   20.7930 C   0  0  0  0  0  0  0  0  0  0  0  0
  -27.2450  -28.7060   20.7940 C   0  0  0  0  0  3  0  0  0  0  0  0
  -26.1060  -26.9660   19.5390 C   0  0  0  0  0  3  0  0  0  0  0  0
  -24.9170  -27.7160   19.5530 C   0  0  0  0  0  3  0  0  0  0  0  0
  -23.6470  -29.8330   20.2200 C   0  0  0  0  0  2  0  0  0  0  0  0
  -24.6740  -31.1010   22.1510 N   0  0  0  0  0  0  0  0  0  0  0  0
  -23.5150  -32.1880   23.7690 O   0  0  0  0  0  0  0  0  0  0  0  0
  -22.7570  -29.4810   22.5470 C   0  0  0  0  0  0  0  0  0  0  0  0
  -21.4320  -29.3050   22.4170 N   0  0  0  0  0  0  0  0  0  0  0  0
  -23.4330  -28.8480   23.3620 O   0  0  0  0  0  0  0  0  0  0  0  0
  -20.9460  -29.8710   21.7360 H   0  0  0  0  0  0  0  0  0  0  0  0
  -18.0420  -28.1510   22.9360 C   0  0  0  0  0  0  0  0  0  0  0  0
  -20.6070  -28.3700   23.1840 C   0  0  0  0  0  3  0  0  0  0  0  0
  -20.6830  -26.9420   22.5930 C   0  0  0  0  0  2  0  0  0  0  0  0
  -19.5670  -26.6460   21.5860 C   0  0  0  0  0  2  0  0  0  0  0  0
  -18.1940  -26.8060   22.2440 C   0  0  0  0  0  2  0  0  0  0  0  0
  -19.1760  -28.8920   23.3640 C   0  0  0  0  0  0  0  0  0  0  0  0
  -18.9830  -30.1530   23.9690 C   0  0  0  0  0  3  0  0  0  0  0  0
  -17.6870  -30.6720   24.1540 C   0  0  0  0  0  3  0  0  0  0  0  0
  -16.5690  -29.9260   23.7400 C   0  0  0  0  0  3  0  0  0  0  0  0
  -16.7450  -28.6690   23.1350 C   0  0  0  0  0  3  0  0  0  0  0  0
  -25.8790  -32.5440   23.8810 C   0  0  0  0  0  3  0  0  0  0  0  0
  -26.3780  -31.7830   25.1710 C   0  0  1  0  0  0  0  0  0  0  0  0
  -25.2690  -31.5510   26.2250 C   0  0  0  0  0  1  0  0  0  0  0  0
  -26.9740  -30.4060   24.7970 C   0  0  0  0  0  1  0  0  0  0  0  0
  -27.5170  -32.5880   25.8400 C   0  0  0  0  0  1  0  0  0  0  0  0
  -25.5690  -33.9460   24.1950 N   0  0  0  0  0  0  0  0  0  0  0  0
  -25.9070  -34.9930   23.4290 C   0  0  0  0  0  0  0  0  0  0  0  0
  -26.5850  -34.8780   22.4030 O   0  0  0  0  0  0  0  0  0  0  0  0
  -24.9700  -34.1160   24.9900 H   0  0  0  0  0  0  0  0  0  0  0  0
  -24.1870  -36.7820   23.0240 C   0  0  0  0  0  1  0  0  0  0  0  0
  -25.4060  -36.3810   23.8680 C   0  0  0  0  0  3  0  0  0  0  0  0
  -27.5180  -37.2630   24.7470 C   0  0  0  0  0  1  0  0  0  0  0  0
  -26.4420  -37.4280   23.7760 N   0  0  0  0  0  0  0  0  0  0  0  0
  -26.0380  -38.3510   23.9110 H   0  0  0  0  0  0  0  0  0  0  0  0
  2  5  1  0
  3  1  2  0
  4  2  2  0
  4  3  1  0
  5  1  1  0
  6  3  1  0
  7  6  1  0
  8 20  1  0
  9 14  1  0
 10 11  1  0
 10  9  1  0
 12 11  1  0
 12 24  1  0
 12 13  1  0
 14  8  1  0
 14 13  1  0
 15  8  2  0
 16 17  1  0
 18 19  1  0
 18 20  1  0
 19  6  1  0
 19 16  1  0
 20 17  1  0
 21 22  2  0
 22 41  1  0
 23 22  1  0
 23 26  1  0
 24 25  1  0
 24 21  1  0
 25 23  2  0
 26 27  1  0
 27 28  2  0
 29 32  1  0
 29 28  1  0
 30 29  2  0
 31 30  1  0
 31 26  2  0
 32 33  1  0
 33 34  1  0
 34 35  2  0
 36 35  1  0
 36 40  1  0
 37 36  2  0
 38 33  2  0
 38 37  1  0
 39 38  1  0
 41 42  1  0
 42 45  1  0
 42 44  1  0
 43 41  2  0
 46 21  1  0
 46 47  1  0
 48 46  1  0
 49  5  1  0
 49 50  2  0
 51 50  1  0
 52 63  2  0
 53 51  1  0
 53 58  1  0
 54 62  1  0
 54 64  1  0
 55 61  1  0
 55 57  1  0
 56 62  1  0
 57 58  2  0
 57 56  1  0
 59 60  1  0
 59 53  2  0
 60 55  2  0
 61 54  1  0
 62 52  1  0
 64 66  2  0
 65 64  1  0
 67 65  1  0
 68 77  2  0
 68 73  1  0
 69 65  1  0
 69 73  1  0
 70 69  1  0
 71 72  1  0
 71 70  1  0
 72 68  1  0
 73 74  2  0
 74 75  1  0
 76 75  2  0
 77 76  1  0
 78 52  1  0
 78 83  1  0
 78 79  1  0
 79 82  1  1
 79 80  1  0
 81 79  1  0
 83 86  1  0
 84 88  1  0
 84 83  1  0
 85 84  2  0
 88 87  1  0
 90 88  1  0
 90 91  1  0
 90 89  1  0
M  ISO  4   8 100  20 100  50 101  51 101
M  END
>  <TORSDO>  (6) 
F 19

>  <SCORE>  (6) 
-14.453

>  <name>  (6) 
5

>  <ligand_id>  (6) 
5

>  <original_smiles>  (6) 
[H]c1c([H])c([H])c2c(c1[H])C([H])([H])C([H])([H])C([H])([H])C2([H])N([H])C(=O)C1([H])N(C(=O)C([H])(N([H])C(=O)C([H])(N([H])C([H])([H])[H])C([H])([H])[H])C(C([H])([H])[H])(C([H])([H])[H])C([H])([H])[H])C([H])([H])c2c([H])c(OC([H])([H])C([H])([H])n3c([H])nc(N([H])C4([H])C([H])([H])N(C(=O)N5C([H])([H])C([H])([H])C([H])([H])C([H])(n6nc(-c7c([H])c([H])c(Oc8c([H])c([H])c(F)c([H])c8F)c([H])c7[H])c(C(=O)N([H])[H])c6N([H])[H])C5([H])[H])C([H])([H])C4([H])[H])c3[H])c([H])c([H])c2C1([H])[H]

>  <smiles>  (6) 
[H]c1c([H])c([H])c2c(c1[H])C([H])([H])C([H])([H])C([H])([H])C2([H])N([H])C(=O)C1([H])N(C(=O)C([H])(N([H])C(=O)C([H])(N([H])C([H])([H])[H])C([H])([H])[H])C(C([H])([H])[H])(C([H])([H])[H])C([H])([H])[H])C([H])([H])c2c([H])c(OC([H])([H])C([H])([H])n3c([H])nc(N([H])C4([H])C([H])([H])N(C(=O)N5C([H])([H])C([H])([H])C([H])([H])C([H])(n6nc(-c7c([H])c([H])c(Oc8c([H])c([H])c(F)c([H])c8F)c([H])c7[H])c(C(=O)N([H])[H])c6N([H])[H])C5([H])[H])C([H])([H])C4([H])[H])c3[H])c([H])c([H])c2C1([H])[H]

$$$$
6:0:0
     RDKit          3D

 92101  0  0  1  0  0  0  0  0999 V2000
  -29.9060  -22.6050   21.4180 C   0  0  0  0  0  2  0  0  0  0  0  0
  -29.5840  -21.4770   20.6120 C   0  0  0  0  0  0  0  0  0  0  0  0
  -28.8920  -24.0160   19.9160 C   0  0  0  0  0  0  0  0  0  0  0  0
  -29.5630  -23.8760   21.0680 N   0  0  0  0  0  0  0  0  0  0  0  0
  -28.8730  -21.7000   19.4740 N   0  0  0  0  0  0  0  0  0  0  0  0
  -28.5350  -22.9670   19.1290 N   0  0  0  0  0  2  0  0  0  0  0  0
  -30.0200  -20.1740   20.9890 N   0  0  0  0  0  0  0  0  0  0  0  0
  -30.6510  -20.1600   21.7850 H   0  0  0  0  0  0  0  0  0  0  0  0
  -30.8800  -14.6660   19.9680 C   0  0  0  0  0  0  0  0  0  0  0  0
  -30.5490  -12.4600   18.8820 C   0  0  0  0  0  2  0  0  0  0  0  0
  -29.5230  -12.6160   17.7390 C   0  0  0  0  0  2  0  0  0  0  0  0
  -28.0850  -12.4520   18.2710 C   0  0  0  0  0  2  0  0  0  0  0  0
  -27.8190  -13.2860   19.5530 C   0  0  0  0  0  3  0  0  0  0  0  0
  -28.9590  -13.1090   20.5820 C   0  0  0  0  0  2  0  0  0  0  0  0
  -30.2140  -13.4690   19.9080 N   0  0  0  0  0  0  0  0  0  0  0  0
  -32.0300  -14.7560   19.5220 O   0  0  0  0  0  0  0  0  0  0  0  0
  -29.6710  -17.7780   21.6310 C   0  0  0  0  0  2  0  0  0  0  0  0
  -30.4930  -18.2810   19.3720 C   0  0  0  0  0  2  0  0  0  0  0  0
  -29.3730  -16.2970   21.2210 C   0  0  0  0  0  2  0  0  0  0  0  0
  -30.1300  -16.8230   18.9450 C   0  0  0  0  0  2  0  0  0  0  0  0
  -29.5910  -18.8380   20.4950 C   0  0  0  0  0  3  0  0  0  0  0  0
  -30.1170  -15.8140   20.0380 N   0  0  0  0  0  0  0  0  0  0  0  0
  -25.4940  -13.8590   20.4810 C   0  0  0  0  0  0  0  0  0  0  0  0
  -24.4560  -13.0740   20.9020 C   0  0  0  0  0  0  0  0  0  0  0  0
  -24.9070  -11.7230   20.7790 C   0  0  0  0  0  0  0  0  0  0  0  0
  -26.5130  -12.9870   20.1310 N   0  0  0  0  0  0  0  0  0  0  0  0
  -26.1690  -11.6950   20.3700 N   0  0  0  0  0  0  0  0  0  0  0  0
  -24.1910  -10.4560   20.9730 C   0  0  0  0  0  0  0  0  0  0  0  0
  -24.6300   -9.4950   21.9100 C   0  0  0  0  0  3  0  0  0  0  0  0
  -23.9130   -8.2920   22.0900 C   0  0  0  0  0  3  0  0  0  0  0  0
  -22.7430   -8.0430   21.3340 C   0  0  0  0  0  0  0  0  0  0  0  0
  -22.3230   -8.9920   20.3880 C   0  0  0  0  0  3  0  0  0  0  0  0
  -23.0400  -10.1860   20.2050 C   0  0  0  0  0  3  0  0  0  0  0  0
  -21.9980   -6.8910   21.4250 O   0  0  0  0  0  0  0  0  0  0  0  0
  -21.8650   -6.2110   22.6090 C   0  0  0  0  0  0  0  0  0  0  0  0
  -21.3060   -6.8150   23.7560 C   0  0  0  0  0  3  0  0  0  0  0  0
  -21.1230   -6.0590   24.9310 C   0  0  0  0  0  3  0  0  0  0  0  0
  -21.4900   -4.7000   24.9600 C   0  0  0  0  0  0  0  0  0  0  0  0
  -22.0420   -4.0960   23.8160 C   0  0  0  0  0  3  0  0  0  0  0  0
  -22.2260   -4.8490   22.6430 C   0  0  0  0  0  0  0  0  0  0  0  0
  -22.7390   -4.2580   21.5380 F   0  0  0  0  0  0  0  0  0  0  0  0
  -21.3080   -3.9710   26.0850 F   0  0  0  0  0  0  0  0  0  0  0  0
  -23.0860  -13.5430   21.3010 C   0  0  0  0  0  0  0  0  0  0  0  0
  -22.4250  -12.8140   22.1930 N   0  0  0  0  0  0  0  0  0  0  0  0
  -22.6150  -14.5890   20.8590 O   0  0  0  0  0  0  0  0  0  0  0  0
  -22.8200  -11.9660   22.5720 H   0  0  0  0  0  0  0  0  0  0  0  0
  -21.5100  -13.1080   22.5020 H   0  0  0  0  0  0  0  0  0  0  0  0
  -25.6490  -15.2350   20.3450 N   0  0  0  0  0  0  0  0  0  0  0  0
  -24.8940  -15.8840   20.5360 H   0  0  0  0  0  0  0  0  0  0  0  0
  -26.4690  -15.6830   19.9550 H   0  0  0  0  0  0  0  0  0  0  0  0
  -28.6890  -25.4580   19.3310 C   0  0  0  0  0  2  0  0  0  0  0  0
  -28.4620  -26.6000   20.2270 O   0  0  0  0  0  0  0  0  0  0  0  0
  -24.6510  -31.8940   23.2250 C   0  0  0  0  0  0  0  0  0  0  0  0
  -27.2930  -27.3650   20.1750 C   0  0  0  0  0  0  0  0  0  0  0  0
  -23.4440  -30.4660   21.6110 C   0  0  0  0  0  3  0  0  0  0  0  0
  -24.8950  -28.9190   20.1870 C   0  0  0  0  0  0  0  0  0  0  0  0
  -25.9740  -30.8180   21.3940 C   0  0  0  0  0  2  0  0  0  0  0  0
  -26.0610  -29.4370   20.7630 C   0  0  0  0  0  0  0  0  0  0  0  0
  -27.2580  -28.6680   20.7530 C   0  0  0  0  0  3  0  0  0  0  0  0
  -26.0930  -26.8770   19.6040 C   0  0  0  0  0  3  0  0  0  0  0  0
  -24.9110  -27.6420   19.6040 C   0  0  0  0  0  3  0  0  0  0  0  0
  -23.6500  -29.7760   20.2350 C   0  0  0  0  0  2  0  0  0  0  0  0
  -24.7080  -31.0770   22.1340 N   0  0  0  0  0  0  0  0  0  0  0  0
  -23.5700  -32.1650   23.7680 O   0  0  0  0  0  0  0  0  0  0  0  0
  -22.8050  -29.4510   22.5870 C   0  0  0  0  0  0  0  0  0  0  0  0
  -21.4800  -29.2560   22.4710 N   0  0  0  0  0  0  0  0  0  0  0  0
  -23.4980  -28.8420   23.4070 O   0  0  0  0  0  0  0  0  0  0  0  0
  -20.9810  -29.7990   21.7820 H   0  0  0  0  0  0  0  0  0  0  0  0
  -18.1210  -28.0300   23.0070 C   0  0  0  0  0  0  0  0  0  0  0  0
  -20.6780  -28.3190   23.2590 C   0  0  0  0  0  3  0  0  0  0  0  0
  -20.7920  -26.8810   22.6990 C   0  0  0  0  0  2  0  0  0  0  0  0
  -19.6870  -26.5350   21.6960 C   0  0  0  0  0  2  0  0  0  0  0  0
  -18.3080  -26.6730   22.3460 C   0  0  0  0  0  2  0  0  0  0  0  0
  -19.2340  -28.8080   23.4210 C   0  0  0  0  0  0  0  0  0  0  0  0
  -19.0060  -30.0770   23.9970 C   0  0  0  0  0  3  0  0  0  0  0  0
  -17.6970  -30.5660   24.1640 C   0  0  0  0  0  3  0  0  0  0  0  0
  -16.5980  -29.7840   23.7670 C   0  0  0  0  0  3  0  0  0  0  0  0
  -16.8110  -28.5180   23.1940 C   0  0  0  0  0  3  0  0  0  0  0  0
  -25.9340  -32.5450   23.8280 C   0  0  0  0  0  3  0  0  0  0  0  0
  -25.6110  -33.9400   24.1570 N   0  0  0  0  0  0  0  0  0  0  0  0
  -25.9270  -34.9950   23.3940 C   0  0  0  0  0  0  0  0  0  0  0  0
  -26.5910  -34.8960   22.3590 O   0  0  0  0  0  0  0  0  0  0  0  0
  -25.0190  -34.0900   24.9610 H   0  0  0  0  0  0  0  0  0  0  0  0
  -24.1860  -36.7740   23.0360 C   0  0  0  0  0  1  0  0  0  0  0  0
  -25.4270  -36.3780   23.8510 C   0  0  0  0  0  3  0  0  0  0  0  0
  -27.5480  -37.2840   24.6960 C   0  0  0  0  0  1  0  0  0  0  0  0
  -26.4520  -37.4400   23.7430 N   0  0  0  0  0  0  0  0  0  0  0  0
  -26.0360  -38.3570   23.8840 H   0  0  0  0  0  0  0  0  0  0  0  0
  -26.4760  -31.7840   25.1000 C   0  0  1  0  0  0  0  0  0  0  0  0
  -25.3990  -31.5310   26.1800 C   0  0  0  0  0  1  0  0  0  0  0  0
  -27.0780  -30.4160   24.7040 C   0  0  0  0  0  1  0  0  0  0  0  0
  -27.6200  -32.5990   25.7490 C   0  0  0  0  0  1  0  0  0  0  0  0
  2  7  1  0
  2  1  1  0
  3  4  2  0
  4  1  1  0
  5  2  2  0
  6  5  1  0
  6  3  1  0
  7  8  1  0
  9 22  1  0
 10 15  1  0
 11 12  1  0
 11 10  1  0
 13 12  1  0
 13 26  1  0
 13 14  1  0
 15  9  1  0
 15 14  1  0
 16  9  2  0
 18 21  1  0
 19 17  1  0
 20 18  1  0
 20 22  1  0
 21  7  1  0
 21 17  1  0
 22 19  1  0
 23 24  2  0
 24 43  1  0
 25 24  1  0
 25 28  1  0
 26 27  1  0
 26 23  1  0
 27 25  2  0
 28 29  1  0
 29 30  2  0
 31 34  1  0
 31 30  1  0
 32 31  2  0
 33 32  1  0
 33 28  2  0
 34 35  1  0
 35 40  2  0
 35 36  1  0
 36 37  2  0
 37 38  1  0
 38 42  1  0
 39 38  2  0
 40 39  1  0
 41 40  1  0
 43 44  1  0
 44 47  1  0
 44 46  1  0
 45 43  2  0
 48 23  1  0
 48 49  1  0
 50 48  1  0
 51  3  1  0
 51 52  1  0
 53 64  2  0
 54 52  1  0
 54 59  1  0
 55 63  1  0
 55 65  1  0
 56 62  1  0
 56 58  1  0
 57 63  1  0
 58 57  1  0
 59 58  2  0
 60 54  2  0
 61 60  1  0
 61 56  2  0
 62 55  1  0
 63 53  1  0
 65 67  2  0
 66 65  1  0
 68 66  1  0
 69 78  2  0
 69 74  1  0
 70 66  1  0
 70 74  1  0
 71 70  1  0
 72 73  1  0
 72 71  1  0
 73 69  1  0
 74 75  2  0
 75 76  1  0
 77 76  2  0
 78 77  1  0
 79 53  1  0
 79 80  1  0
 79 89  1  0
 80 83  1  0
 81 85  1  0
 81 80  1  0
 82 81  2  0
 85 84  1  0
 87 85  1  0
 87 88  1  0
 87 86  1  0
 89 92  1  1
 89 90  1  0
 91 89  1  0
M  ISO  4   9 100  22 100  51 101  52 101
M  END
>  <TORSDO>  (7) 
F 18

>  <SCORE>  (7) 
-14.059

>  <name>  (7) 
6

>  <ligand_id>  (7) 
6

>  <original_smiles>  (7) 
[H]c1nc(C([H])([H])Oc2c([H])c([H])c3c(c2[H])C([H])([H])N(C(=O)C([H])(N([H])C(=O)C([H])(N([H])C([H])([H])[H])C([H])([H])[H])C(C([H])([H])[H])(C([H])([H])[H])C([H])([H])[H])C([H])(C(=O)N([H])C2([H])c4c([H])c([H])c([H])c([H])c4C([H])([H])C([H])([H])C2([H])[H])C3([H])[H])nnc1N([H])C1([H])C([H])([H])C([H])([H])N(C(=O)N2C([H])([H])C([H])([H])C([H])([H])C([H])(n3nc(-c4c([H])c([H])c(Oc5c([H])c([H])c(F)c([H])c5F)c([H])c4[H])c(C(=O)N([H])[H])c3N([H])[H])C2([H])[H])C([H])([H])C1([H])[H]

>  <smiles>  (7) 
[H]c1nc(C([H])([H])Oc2c([H])c([H])c3c(c2[H])C([H])([H])N(C(=O)C([H])(N([H])C(=O)C([H])(N([H])C([H])([H])[H])C([H])([H])[H])C(C([H])([H])[H])(C([H])([H])[H])C([H])([H])[H])C([H])(C(=O)N([H])C2([H])c4c([H])c([H])c([H])c([H])c4C([H])([H])C([H])([H])C2([H])[H])C3([H])[H])nnc1N([H])C1([H])C([H])([H])C([H])([H])N(C(=O)N2C([H])([H])C([H])([H])C([H])([H])C([H])(n3nc(-c4c([H])c([H])c(Oc5c([H])c([H])c(F)c([H])c5F)c([H])c4[H])c(C(=O)N([H])[H])c3N([H])[H])C2([H])[H])C([H])([H])C1([H])[H]

$$$$
7:0:0
     RDKit          3D

 91100  0  0  1  0  0  0  0  0999 V2000
  -29.8840  -20.6990   19.0570 C   0  0  0  0  0  2  0  0  0  0  0  0
  -30.1190  -22.2130   19.2410 C   0  0  0  0  0  2  0  0  0  0  0  0
  -28.8920  -21.5790   21.0770 C   0  0  0  0  0  2  0  0  0  0  0  0
  -29.1280  -20.2280   20.3110 C   0  0  0  0  0  3  0  0  0  0  0  0
  -29.0130  -22.6690   20.0840 N   0  0  0  0  0  0  0  0  0  0  0  0
  -31.2280  -19.3590   21.4140 C   0  0  0  0  0  1  0  0  0  0  0  0
  -29.7950  -19.1170   21.1000 N   0  0  2  0  0  4  0  0  0  0  0  0
  -29.3350  -19.2030   21.9970 H   0  0  0  0  0  0  0  0  0  0  0  0
  -30.7160  -14.5550   20.2590 C   0  0  0  0  0  0  0  0  0  0  0  0
  -30.4130  -12.3520   19.1800 C   0  0  0  0  0  2  0  0  0  0  0  0
  -29.4500  -12.5160   17.9870 C   0  0  0  0  0  2  0  0  0  0  0  0
  -27.9840  -12.3810   18.4440 C   0  0  0  0  0  2  0  0  0  0  0  0
  -27.6650  -13.2370   19.6990 C   0  0  0  0  0  3  0  0  0  0  0  0
  -28.7440  -13.0710   20.7920 C   0  0  0  0  0  2  0  0  0  0  0  0
  -30.0420  -13.3730   20.1750 N   0  0  0  0  0  0  0  0  0  0  0  0
  -31.8910  -14.6570   19.8960 O   0  0  0  0  0  0  0  0  0  0  0  0
  -30.2820  -16.9370   19.6430 C   0  0  0  0  0  2  0  0  0  0  0  0
  -29.8910  -16.5150   21.6050 C   0  0  0  0  0  2  0  0  0  0  0  0
  -29.4590  -17.6850   20.6960 C   0  0  0  0  0  3  0  0  0  0  0  0
  -29.9490  -15.6800   20.3810 N   0  0  0  0  0  0  0  0  0  0  0  0
  -25.2900  -13.8420   20.4690 C   0  0  0  0  0  0  0  0  0  0  0  0
  -24.2260  -13.0710   20.8490 C   0  0  0  0  0  0  0  0  0  0  0  0
  -24.6810  -11.7170   20.7970 C   0  0  0  0  0  0  0  0  0  0  0  0
  -26.3260  -12.9580   20.2100 N   0  0  0  0  0  0  0  0  0  0  0  0
  -25.9650  -11.6750   20.4700 N   0  0  0  0  0  0  0  0  0  0  0  0
  -23.9520  -10.4560   20.9890 C   0  0  0  0  0  0  0  0  0  0  0  0
  -24.3770   -9.4900   21.9270 C   0  0  0  0  0  3  0  0  0  0  0  0
  -23.6480   -8.2950   22.1040 C   0  0  0  0  0  3  0  0  0  0  0  0
  -22.4790   -8.0570   21.3440 C   0  0  0  0  0  0  0  0  0  0  0  0
  -22.0730   -9.0100   20.3940 C   0  0  0  0  0  3  0  0  0  0  0  0
  -22.8030  -10.1970   20.2140 C   0  0  0  0  0  3  0  0  0  0  0  0
  -21.7200   -6.9150   21.4340 O   0  0  0  0  0  0  0  0  0  0  0  0
  -21.6380   -6.1940   22.5990 C   0  0  0  0  0  0  0  0  0  0  0  0
  -21.1390   -6.7610   23.7930 C   0  0  0  0  0  3  0  0  0  0  0  0
  -21.0050   -5.9650   24.9470 C   0  0  0  0  0  3  0  0  0  0  0  0
  -21.3610   -4.6030   24.9120 C   0  0  0  0  0  0  0  0  0  0  0  0
  -21.8540   -4.0370   23.7240 C   0  0  0  0  0  3  0  0  0  0  0  0
  -21.9880   -4.8310   22.5690 C   0  0  0  0  0  0  0  0  0  0  0  0
  -22.4430   -4.2730   21.4210 F   0  0  0  0  0  0  0  0  0  0  0  0
  -21.2280   -3.8370   26.0200 F   0  0  0  0  0  0  0  0  0  0  0  0
  -22.8360  -13.5490   21.1490 C   0  0  0  0  0  0  0  0  0  0  0  0
  -22.1230  -12.8490   22.0240 N   0  0  0  0  0  0  0  0  0  0  0  0
  -22.3910  -14.5790   20.6430 O   0  0  0  0  0  0  0  0  0  0  0  0
  -22.4970  -12.0150   22.4530 H   0  0  0  0  0  0  0  0  0  0  0  0
  -21.1890  -13.1490   22.2670 H   0  0  0  0  0  0  0  0  0  0  0  0
  -25.4600  -15.2130   20.3000 N   0  0  0  0  0  0  0  0  0  0  0  0
  -24.7050  -15.8770   20.4330 H   0  0  0  0  0  0  0  0  0  0  0  0
  -26.3170  -15.6420   19.9750 H   0  0  0  0  0  0  0  0  0  0  0  0
  -29.1910  -24.0610   20.5990 C   0  0  0  0  0  2  0  0  0  0  0  0
  -28.1340  -25.0810   20.0370 C   0  0  0  0  0  2  0  0  0  0  0  0
  -28.3320  -26.5120   20.2970 O   0  0  0  0  0  0  0  0  0  0  0  0
  -24.6090  -31.8990   23.2360 C   0  0  0  0  0  0  0  0  0  0  0  0
  -27.2090  -27.3420   20.2150 C   0  0  0  0  0  0  0  0  0  0  0  0
  -23.3990  -30.4940   21.6030 C   0  0  0  0  0  3  0  0  0  0  0  0
  -24.8470  -28.9350   20.1890 C   0  0  0  0  0  0  0  0  0  0  0  0
  -25.9380  -30.8100   21.4190 C   0  0  0  0  0  2  0  0  0  0  0  0
  -26.0130  -29.4310   20.7850 C   0  0  0  0  0  0  0  0  0  0  0  0
  -27.1980  -28.6430   20.7940 C   0  0  0  0  0  3  0  0  0  0  0  0
  -26.0220  -26.8990   19.5830 C   0  0  0  0  0  3  0  0  0  0  0  0
  -24.8520  -27.6730   19.5820 C   0  0  0  0  0  3  0  0  0  0  0  0
  -23.6120  -29.8080   20.2280 C   0  0  0  0  0  2  0  0  0  0  0  0
  -24.6660  -31.0850   22.1430 N   0  0  0  0  0  0  0  0  0  0  0  0
  -23.5270  -32.1820   23.7690 O   0  0  0  0  0  0  0  0  0  0  0  0
  -22.7350  -29.4840   22.5690 C   0  0  0  0  0  0  0  0  0  0  0  0
  -21.4100  -29.3060   22.4370 N   0  0  0  0  0  0  0  0  0  0  0  0
  -23.4110  -28.8640   23.3950 O   0  0  0  0  0  0  0  0  0  0  0  0
  -20.9250  -29.8540   21.7400 H   0  0  0  0  0  0  0  0  0  0  0  0
  -18.0230  -28.1500   22.9490 C   0  0  0  0  0  0  0  0  0  0  0  0
  -20.5850  -28.3790   23.2120 C   0  0  0  0  0  3  0  0  0  0  0  0
  -20.6700  -26.9460   22.6370 C   0  0  0  0  0  2  0  0  0  0  0  0
  -19.5610  -26.6360   21.6280 C   0  0  0  0  0  2  0  0  0  0  0  0
  -18.1820  -26.7980   22.2760 C   0  0  0  0  0  2  0  0  0  0  0  0
  -19.1520  -28.9000   23.3740 C   0  0  0  0  0  0  0  0  0  0  0  0
  -18.9490  -30.1680   23.9630 C   0  0  0  0  0  3  0  0  0  0  0  0
  -17.6520  -30.6840   24.1330 C   0  0  0  0  0  3  0  0  0  0  0  0
  -16.5360  -29.9310   23.7250 C   0  0  0  0  0  3  0  0  0  0  0  0
  -16.7230  -28.6660   23.1370 C   0  0  0  0  0  3  0  0  0  0  0  0
  -25.8940  -32.5280   23.8530 C   0  0  0  0  0  3  0  0  0  0  0  0
  -26.4130  -31.7570   25.1280 C   0  0  1  0  0  0  0  0  0  0  0  0
  -25.3190  -31.5170   26.1950 C   0  0  0  0  0  1  0  0  0  0  0  0
  -26.9960  -30.3800   24.7340 C   0  0  0  0  0  1  0  0  0  0  0  0
  -27.5610  -32.5520   25.7920 C   0  0  0  0  0  1  0  0  0  0  0  0
  -25.5880  -33.9270   24.1820 N   0  0  0  0  0  0  0  0  0  0  0  0
  -25.9090  -34.9790   23.4170 C   0  0  0  0  0  0  0  0  0  0  0  0
  -26.5670  -34.8740   22.3780 O   0  0  0  0  0  0  0  0  0  0  0  0
  -24.9990  -34.0820   24.9880 H   0  0  0  0  0  0  0  0  0  0  0  0
  -24.1770  -36.7720   23.0760 C   0  0  0  0  0  1  0  0  0  0  0  0
  -25.4250  -36.3670   23.8770 C   0  0  0  0  0  3  0  0  0  0  0  0
  -27.5620  -37.2600   24.6940 C   0  0  0  0  0  1  0  0  0  0  0  0
  -26.4550  -37.4210   23.7550 N   0  0  0  0  0  0  0  0  0  0  0  0
  -26.0480  -38.3400   23.9030 H   0  0  0  0  0  0  0  0  0  0  0  0
  1  2  1  0
  1  4  1  0
  2  5  1  0
  4  3  1  0
  4  7  1  0
  5 49  1  0
  5  3  1  0
  7  6  1  0
  7  8  1  1
  9 20  1  0
 10 15  1  0
 11 12  1  0
 11 10  1  0
 13 12  1  0
 13 24  1  0
 13 14  1  0
 15  9  1  0
 15 14  1  0
 16  9  2  0
 17 20  1  0
 17 19  1  0
 19  7  1  0
 19 18  1  0
 20 18  1  0
 21 22  2  0
 22 41  1  0
 23 22  1  0
 23 26  1  0
 24 21  1  0
 24 25  1  0
 25 23  2  0
 26 27  1  0
 27 28  2  0
 29 32  1  0
 29 28  1  0
 30 29  2  0
 31 30  1  0
 31 26  2  0
 32 33  1  0
 33 34  1  0
 34 35  2  0
 36 35  1  0
 36 40  1  0
 37 36  2  0
 38 33  2  0
 38 37  1  0
 39 38  1  0
 41 42  1  0
 42 45  1  0
 42 44  1  0
 43 41  2  0
 46 47  1  0
 46 21  1  0
 48 46  1  0
 50 51  1  0
 50 49  1  0
 52 63  2  0
 53 51  1  0
 53 58  1  0
 54 62  1  0
 54 64  1  0
 55 61  1  0
 55 57  1  0
 56 62  1  0
 57 58  2  0
 57 56  1  0
 59 53  2  0
 60 59  1  0
 60 55  2  0
 61 54  1  0
 62 52  1  0
 64 66  2  0
 65 64  1  0
 67 65  1  0
 68 77  2  0
 68 73  1  0
 69 65  1  0
 69 73  1  0
 70 69  1  0
 71 72  1  0
 71 70  1  0
 72 68  1  0
 73 74  2  0
 74 75  1  0
 76 75  2  0
 77 76  1  0
 78 52  1  0
 78 83  1  0
 78 79  1  0
 79 82  1  1
 79 80  1  0
 81 79  1  0
 83 86  1  0
 84 88  1  0
 84 83  1  0
 85 84  2  0
 88 87  1  0
 90 88  1  0
 90 91  1  0
 90 89  1  0
M  ISO  4   9 100  20 100  50 101  51 101
M  END
>  <TORSDO>  (8) 
F 19

>  <SCORE>  (8) 
-14.573

>  <name>  (8) 
7

>  <ligand_id>  (8) 
7

>  <original_smiles>  (8) 
[H]c1c([H])c([H])c2c(c1[H])C([H])([H])C([H])([H])C([H])([H])C2([H])N([H])C(=O)C1([H])N(C(=O)C([H])(N([H])C(=O)C([H])(N([H])C([H])([H])[H])C([H])([H])[H])C(C([H])([H])[H])(C([H])([H])[H])C([H])([H])[H])C([H])([H])c2c([H])c(OC([H])([H])C([H])([H])N3C([H])([H])C([H])([H])C([H])([N+]([H])(C([H])([H])[H])C4([H])C([H])([H])N(C(=O)N5C([H])([H])C([H])([H])C([H])([H])C([H])(n6nc(-c7c([H])c([H])c(Oc8c([H])c([H])c(F)c([H])c8F)c([H])c7[H])c(C(=O)N([H])[H])c6N([H])[H])C5([H])[H])C4([H])[H])C3([H])[H])c([H])c([H])c2C1([H])[H]

>  <smiles>  (8) 
[H]c1c([H])c([H])c2c(c1[H])C([H])([H])C([H])([H])C([H])([H])C2([H])N([H])C(=O)C1([H])N(C(=O)C([H])(N([H])C(=O)C([H])(N([H])C([H])([H])[H])C([H])([H])[H])C(C([H])([H])[H])(C([H])([H])[H])C([H])([H])[H])C([H])([H])c2c([H])c(OC([H])([H])C([H])([H])N3C([H])([H])C([H])([H])C([H])([N+]([H])(C([H])([H])[H])C4([H])C([H])([H])N(C(=O)N5C([H])([H])C([H])([H])C([H])([H])C([H])(n6nc(-c7c([H])c([H])c(Oc8c([H])c([H])c(F)c([H])c8F)c([H])c7[H])c(C(=O)N([H])[H])c6N([H])[H])C5([H])[H])C4([H])[H])C3([H])[H])c([H])c([H])c2C1([H])[H]

$$$$
8:0:0
     RDKit          3D

 91100  0  0  1  0  0  0  0  0999 V2000
  -27.8440  -23.8020   22.4220 C   0  0  0  0  0  2  0  0  0  0  0  0
  -28.6830  -22.7620   20.6470 C   0  0  0  0  0  0  0  0  0  0  0  0
  -28.2110  -25.0510   20.6190 C   0  0  0  0  0  0  0  0  0  0  0  0
  -28.2850  -22.6600   21.8980 N   0  0  0  0  0  0  0  0  0  0  0  0
  -27.7720  -25.0090   21.8680 N   0  0  0  0  0  0  0  0  0  0  0  0
  -28.6870  -23.9430   19.9470 N   0  0  0  0  0  0  0  0  0  0  0  0
  -29.0680  -21.4930   20.0550 N   0  0  0  0  0  0  0  0  0  0  0  0
  -29.2920  -21.5850   19.0700 H   0  0  0  0  0  0  0  0  0  0  0  0
  -28.2980  -26.3550   20.0700 O   0  0  0  0  0  0  0  0  0  0  0  0
  -24.6170  -31.8840   23.2180 C   0  0  0  0  0  0  0  0  0  0  0  0
  -27.2040  -27.2680   20.1350 C   0  0  0  0  0  0  0  0  0  0  0  0
  -23.4070  -30.4930   21.5790 C   0  0  0  0  0  3  0  0  0  0  0  0
  -24.8530  -28.9400   20.1360 C   0  0  0  0  0  0  0  0  0  0  0  0
  -25.9520  -30.7940   21.3880 C   0  0  0  0  0  2  0  0  0  0  0  0
  -26.0300  -29.4080   20.7360 C   0  0  0  0  0  0  0  0  0  0  0  0
  -27.2090  -28.5860   20.7240 C   0  0  0  0  0  3  0  0  0  0  0  0
  -26.0050  -26.8820   19.5000 C   0  0  0  0  0  3  0  0  0  0  0  0
  -24.8470  -27.6870   19.5060 C   0  0  0  0  0  3  0  0  0  0  0  0
  -23.6180  -29.8240   20.1950 C   0  0  0  0  0  2  0  0  0  0  0  0
  -24.6790  -31.0770   22.1180 N   0  0  0  0  0  0  0  0  0  0  0  0
  -23.5360  -32.1560   23.7600 O   0  0  0  0  0  0  0  0  0  0  0  0
  -22.7490  -29.4720   22.5390 C   0  0  0  0  0  0  0  0  0  0  0  0
  -21.4210  -29.2950   22.4250 N   0  0  0  0  0  0  0  0  0  0  0  0
  -23.4340  -28.8400   23.3490 O   0  0  0  0  0  0  0  0  0  0  0  0
  -20.9260  -29.8550   21.7450 H   0  0  0  0  0  0  0  0  0  0  0  0
  -18.0510  -28.0800   22.9470 C   0  0  0  0  0  0  0  0  0  0  0  0
  -20.6100  -28.3500   23.1960 C   0  0  0  0  0  3  0  0  0  0  0  0
  -20.7130  -26.9220   22.6110 C   0  0  0  0  0  2  0  0  0  0  0  0
  -19.6040  -26.6010   21.6040 C   0  0  0  0  0  2  0  0  0  0  0  0
  -18.2270  -26.7360   22.2610 C   0  0  0  0  0  2  0  0  0  0  0  0
  -19.1700  -28.8450   23.3720 C   0  0  0  0  0  0  0  0  0  0  0  0
  -18.9500  -30.1020   23.9750 C   0  0  0  0  0  3  0  0  0  0  0  0
  -17.6450  -30.5960   24.1570 C   0  0  0  0  0  3  0  0  0  0  0  0
  -16.5400  -29.8280   23.7470 C   0  0  0  0  0  3  0  0  0  0  0  0
  -16.7440  -28.5730   23.1480 C   0  0  0  0  0  3  0  0  0  0  0  0
  -25.9000  -32.5190   23.8360 C   0  0  0  0  0  3  0  0  0  0  0  0
  -25.5880  -33.9170   24.1710 N   0  0  0  0  0  0  0  0  0  0  0  0
  -25.9210  -34.9750   23.4180 C   0  0  0  0  0  0  0  0  0  0  0  0
  -26.5900  -34.8750   22.3860 O   0  0  0  0  0  0  0  0  0  0  0  0
  -24.9940  -34.0680   24.9730 H   0  0  0  0  0  0  0  0  0  0  0  0
  -24.2010  -36.7770   23.0680 C   0  0  0  0  0  1  0  0  0  0  0  0
  -25.4360  -36.3620   23.8830 C   0  0  0  0  0  3  0  0  0  0  0  0
  -27.5690  -37.2370   24.7330 C   0  0  0  0  0  1  0  0  0  0  0  0
  -26.4730  -37.4120   23.7820 N   0  0  0  0  0  0  0  0  0  0  0  0
  -26.0690  -38.3330   23.9310 H   0  0  0  0  0  0  0  0  0  0  0  0
  -26.4200  -31.7490   25.1130 C   0  0  1  0  0  0  0  0  0  0  0  0
  -25.3310  -31.5120   26.1840 C   0  0  0  0  0  1  0  0  0  0  0  0
  -27.0030  -30.3710   24.7230 C   0  0  0  0  0  1  0  0  0  0  0  0
  -27.5720  -32.5450   25.7700 C   0  0  0  0  0  1  0  0  0  0  0  0
  -29.7260  -20.2650   20.7120 C   0  0  0  0  0  2  0  0  0  0  0  0
  -30.6190  -14.9280   20.3280 C   0  0  0  0  0  0  0  0  0  0  0  0
  -30.4620  -12.5970   19.3970 C   0  0  0  0  0  2  0  0  0  0  0  0
  -29.5320  -12.5780   18.1650 C   0  0  0  0  0  2  0  0  0  0  0  0
  -28.0640  -12.3860   18.5960 C   0  0  0  0  0  2  0  0  0  0  0  0
  -27.6620  -13.3150   19.7700 C   0  0  0  0  0  3  0  0  0  0  0  0
  -28.7150  -13.3250   20.8960 C   0  0  0  0  0  2  0  0  0  0  0  0
  -29.9960  -13.6930   20.2820 N   0  0  0  0  0  0  0  0  0  0  0  0
  -31.8400  -14.9750   20.1390 O   0  0  0  0  0  0  0  0  0  0  0  0
  -29.4300  -18.1810   18.9510 C   0  0  0  0  0  2  0  0  0  0  0  0
  -29.2980  -16.6230   19.0420 C   0  0  0  0  0  2  0  0  0  0  0  0
  -30.1010  -17.4380   21.0520 C   0  0  0  0  0  2  0  0  0  0  0  0
  -29.3240  -18.6930   20.3830 C   0  0  0  0  0  3  0  0  0  0  0  0
  -29.8480  -16.1170   20.3230 N   0  0  0  0  0  0  0  0  0  0  0  0
  -25.2830  -13.9170   20.5010 C   0  0  0  0  0  0  0  0  0  0  0  0
  -24.2120  -13.1470   20.8650 C   0  0  0  0  0  0  0  0  0  0  0  0
  -24.6710  -11.7950   20.8410 C   0  0  0  0  0  0  0  0  0  0  0  0
  -26.3220  -13.0310   20.2670 N   0  0  0  0  0  0  0  0  0  0  0  0
  -25.9640  -11.7510   20.5390 N   0  0  0  0  0  0  0  0  0  0  0  0
  -23.9400  -10.5350   21.0290 C   0  0  0  0  0  0  0  0  0  0  0  0
  -24.3630   -9.5690   21.9680 C   0  0  0  0  0  3  0  0  0  0  0  0
  -23.6320   -8.3740   22.1450 C   0  0  0  0  0  3  0  0  0  0  0  0
  -22.4630   -8.1400   21.3830 C   0  0  0  0  0  0  0  0  0  0  0  0
  -22.0590   -9.0950   20.4330 C   0  0  0  0  0  3  0  0  0  0  0  0
  -22.7910  -10.2810   20.2550 C   0  0  0  0  0  3  0  0  0  0  0  0
  -21.7040   -6.9980   21.4680 O   0  0  0  0  0  0  0  0  0  0  0  0
  -21.6430   -6.2590   22.6230 C   0  0  0  0  0  0  0  0  0  0  0  0
  -21.1990   -6.8160   23.8410 C   0  0  0  0  0  3  0  0  0  0  0  0
  -21.0870   -6.0030   24.9870 C   0  0  0  0  0  3  0  0  0  0  0  0
  -21.4070   -4.6340   24.9150 C   0  0  0  0  0  0  0  0  0  0  0  0
  -21.8450   -4.0770   23.7010 C   0  0  0  0  0  3  0  0  0  0  0  0
  -21.9590   -4.8870   22.5570 C   0  0  0  0  0  0  0  0  0  0  0  0
  -22.3610   -4.3400   21.3840 F   0  0  0  0  0  0  0  0  0  0  0  0
  -21.2920   -3.8520   26.0130 F   0  0  0  0  0  0  0  0  0  0  0  0
  -22.8160  -13.6310   21.1260 C   0  0  0  0  0  0  0  0  0  0  0  0
  -22.0790  -12.9380   21.9870 N   0  0  0  0  0  0  0  0  0  0  0  0
  -22.3870  -14.6590   20.6030 O   0  0  0  0  0  0  0  0  0  0  0  0
  -22.4380  -12.1080   22.4330 H   0  0  0  0  0  0  0  0  0  0  0  0
  -21.1410  -13.2440   22.2050 H   0  0  0  0  0  0  0  0  0  0  0  0
  -25.4550  -15.2870   20.3250 N   0  0  0  0  0  0  0  0  0  0  0  0
  -24.6960  -15.9490   20.4470 H   0  0  0  0  0  0  0  0  0  0  0  0
  -26.3210  -15.7250   20.0420 H   0  0  0  0  0  0  0  0  0  0  0  0
  2  4  2  0
  3  5  2  0
  4  1  1  0
  5  1  1  0
  6  3  2  0
  6  2  1  0
  7  2  1  0
  7 50  1  0
  8  7  1  0
  9 11  1  0
  9  3  1  0
 10 21  2  0
 11 16  1  0
 12 20  1  0
 12 22  1  0
 13 19  1  0
 13 15  1  0
 14 20  1  0
 15 14  1  0
 16 15  2  0
 17 18  1  0
 17 11  2  0
 18 13  2  0
 19 12  1  0
 20 10  1  0
 22 24  2  0
 23 22  1  0
 25 23  1  0
 26 35  2  0
 26 31  1  0
 27 23  1  0
 27 31  1  0
 28 27  1  0
 29 30  1  0
 29 28  1  0
 30 26  1  0
 31 32  2  0
 32 33  1  0
 34 33  2  0
 35 34  1  0
 36 10  1  0
 36 37  1  0
 36 46  1  0
 37 40  1  0
 38 42  1  0
 38 37  1  0
 39 38  2  0
 42 41  1  0
 44 42  1  0
 44 45  1  0
 44 43  1  0
 46 49  1  1
 46 47  1  0
 48 46  1  0
 52 57  1  0
 53 54  1  0
 53 52  1  0
 55 54  1  0
 55 67  1  0
 55 56  1  0
 57 51  1  0
 57 56  1  0
 58 51  2  0
 59 60  1  0
 59 62  1  0
 60 63  1  0
 62 50  1  0
 62 61  1  0
 63 51  1  0
 63 61  1  0
 64 65  2  0
 65 84  1  0
 66 65  1  0
 66 69  1  0
 67 64  1  0
 67 68  1  0
 68 66  2  0
 69 70  1  0
 70 71  2  0
 72 75  1  0
 72 71  1  0
 73 72  2  0
 74 73  1  0
 74 69  2  0
 75 76  1  0
 76 77  1  0
 77 78  2  0
 79 78  1  0
 79 83  1  0
 80 79  2  0
 81 76  2  0
 81 80  1  0
 82 81  1  0
 84 85  1  0
 85 88  1  0
 85 87  1  0
 86 84  2  0
 89 90  1  0
 89 64  1  0
 91 89  1  0
M  ISO  4   3 101   9 101  51 100  63 100
M  END
>  <TORSDO>  (9) 
F 17

>  <SCORE>  (9) 
-14.790

>  <name>  (9) 
8

>  <ligand_id>  (9) 
8

>  <original_smiles>  (9) 
[H]c1nc(Oc2c([H])c([H])c3c(c2[H])C([H])([H])N(C(=O)C([H])(N([H])C(=O)C([H])(N([H])C([H])([H])[H])C([H])([H])[H])C(C([H])([H])[H])(C([H])([H])[H])C([H])([H])[H])C([H])(C(=O)N([H])C2([H])c4c([H])c([H])c([H])c([H])c4C([H])([H])C([H])([H])C2([H])[H])C3([H])[H])nc(N([H])C([H])([H])C2([H])C([H])([H])N(C(=O)N3C([H])([H])C([H])([H])C([H])([H])C([H])(n4nc(-c5c([H])c([H])c(Oc6c([H])c([H])c(F)c([H])c6F)c([H])c5[H])c(C(=O)N([H])[H])c4N([H])[H])C3([H])[H])C([H])([H])C2([H])[H])n1

>  <smiles>  (9) 
[H]c1nc(Oc2c([H])c([H])c3c(c2[H])C([H])([H])N(C(=O)C([H])(N([H])C(=O)C([H])(N([H])C([H])([H])[H])C([H])([H])[H])C(C([H])([H])[H])(C([H])([H])[H])C([H])([H])[H])C([H])(C(=O)N([H])C2([H])c4c([H])c([H])c([H])c([H])c4C([H])([H])C([H])([H])C2([H])[H])C3([H])[H])nc(N([H])C([H])([H])C2([H])C([H])([H])N(C(=O)N3C([H])([H])C([H])([H])C([H])([H])C([H])(n4nc(-c5c([H])c([H])c(Oc6c([H])c([H])c(F)c([H])c6F)c([H])c5[H])c(C(=O)N([H])[H])c4N([H])[H])C3([H])[H])C([H])([H])C2([H])[H])n1

$$$$
9:0:0
     RDKit          3D

 93102  0  0  1  0  0  0  0  0999 V2000
  -28.8760  -23.1740   20.8100 C   0  0  0  0  0  3  0  0  0  0  0  0
  -28.8620  -24.0700   19.7400 C   0  0  0  0  0  0  0  0  0  0  0  0
  -29.0130  -21.8380   20.2480 C   0  0  0  0  0  0  0  0  0  0  0  0
  -29.0690  -21.8940   18.9390 N   0  0  0  0  0  0  0  0  0  0  0  0
  -28.9820  -23.2190   18.6340 N   0  0  0  0  0  0  0  0  0  0  0  0
  -29.0790  -20.5920   20.9570 N   0  0  0  0  0  0  0  0  0  0  0  0
  -29.0150  -20.6610   21.9680 H   0  0  0  0  0  0  0  0  0  0  0  0
  -30.7020  -14.8510   20.1440 C   0  0  0  0  0  0  0  0  0  0  0  0
  -30.3440  -12.6200   19.0860 C   0  0  0  0  0  2  0  0  0  0  0  0
  -29.3610  -12.7090   17.9030 C   0  0  0  0  0  2  0  0  0  0  0  0
  -27.9210  -12.5040   18.4010 C   0  0  0  0  0  2  0  0  0  0  0  0
  -27.5960  -13.3750   19.6420 C   0  0  0  0  0  3  0  0  0  0  0  0
  -28.7110  -13.3190   20.7140 C   0  0  0  0  0  2  0  0  0  0  0  0
  -29.9680  -13.6830   20.0540 N   0  0  0  0  0  0  0  0  0  0  0  0
  -31.8830  -14.8040   19.7830 O   0  0  0  0  0  0  0  0  0  0  0  0
  -28.4140  -18.1090   20.5870 C   0  0  0  0  0  2  0  0  0  0  0  0
  -30.6900  -18.6300   21.1410 C   0  0  0  0  0  2  0  0  0  0  0  0
  -28.8150  -16.6280   20.1670 C   0  0  0  0  0  2  0  0  0  0  0  0
  -31.1610  -17.2310   20.6120 C   0  0  0  0  0  2  0  0  0  0  0  0
  -29.4740  -19.2380   20.4080 C   0  0  0  0  0  3  0  0  0  0  0  0
  -30.1750  -16.1070   20.4980 N   0  0  0  0  0  0  0  0  0  0  0  0
  -25.2490  -13.9350   20.5050 C   0  0  0  0  0  0  0  0  0  0  0  0
  -24.2060  -13.1440   20.9030 C   0  0  0  0  0  0  0  0  0  0  0  0
  -24.6740  -11.7980   20.8140 C   0  0  0  0  0  0  0  0  0  0  0  0
  -26.2830  -13.0680   20.1950 N   0  0  0  0  0  0  0  0  0  0  0  0
  -25.9490  -11.7760   20.4460 N   0  0  0  0  0  0  0  0  0  0  0  0
  -23.9640  -10.5260   20.9980 C   0  0  0  0  0  0  0  0  0  0  0  0
  -24.4030   -9.5640   21.9330 C   0  0  0  0  0  3  0  0  0  0  0  0
  -23.6910   -8.3580   22.1060 C   0  0  0  0  0  3  0  0  0  0  0  0
  -22.5260   -8.1060   21.3430 C   0  0  0  0  0  0  0  0  0  0  0  0
  -22.1070   -9.0560   20.3960 C   0  0  0  0  0  3  0  0  0  0  0  0
  -22.8200  -10.2550   20.2210 C   0  0  0  0  0  3  0  0  0  0  0  0
  -21.7850   -6.9520   21.4250 O   0  0  0  0  0  0  0  0  0  0  0  0
  -21.6920   -6.2390   22.5940 C   0  0  0  0  0  0  0  0  0  0  0  0
  -21.1500   -6.8030   23.7690 C   0  0  0  0  0  3  0  0  0  0  0  0
  -21.0090   -6.0140   24.9290 C   0  0  0  0  0  3  0  0  0  0  0  0
  -21.3990   -4.6610   24.9120 C   0  0  0  0  0  0  0  0  0  0  0  0
  -21.9320   -4.0960   23.7400 C   0  0  0  0  0  3  0  0  0  0  0  0
  -22.0750   -4.8830   22.5830 C   0  0  0  0  0  0  0  0  0  0  0  0
  -22.5700   -4.3290   21.4510 F   0  0  0  0  0  0  0  0  0  0  0  0
  -21.2550   -3.9000   26.0220 F   0  0  0  0  0  0  0  0  0  0  0  0
  -22.8190  -13.6060   21.2490 C   0  0  0  0  0  0  0  0  0  0  0  0
  -22.1320  -12.8790   22.1220 N   0  0  0  0  0  0  0  0  0  0  0  0
  -22.3580  -14.6460   20.7810 O   0  0  0  0  0  0  0  0  0  0  0  0
  -22.5190  -12.0370   22.5200 H   0  0  0  0  0  0  0  0  0  0  0  0
  -21.2040  -13.1710   22.3960 H   0  0  0  0  0  0  0  0  0  0  0  0
  -25.3910  -15.3100   20.3540 N   0  0  0  0  0  0  0  0  0  0  0  0
  -24.6210  -15.9500   20.5150 H   0  0  0  0  0  0  0  0  0  0  0  0
  -26.2140  -15.7660   19.9830 H   0  0  0  0  0  0  0  0  0  0  0  0
  -27.6030  -23.7550   16.6550 C   0  0  0  0  0  1  0  0  0  0  0  0
  -29.0160  -23.5660   17.2210 C   0  0  0  0  0  2  0  0  0  0  0  0
  -28.8240  -25.6240   19.4630 C   0  0  0  0  0  2  0  0  0  0  0  0
  -28.4650  -26.5840   20.5260 O   0  0  0  0  0  0  0  0  0  0  0  0
  -24.5920  -31.9860   23.3490 C   0  0  0  0  0  0  0  0  0  0  0  0
  -27.3460  -27.4280   20.3960 C   0  0  0  0  0  0  0  0  0  0  0  0
  -23.4500  -30.5560   21.6920 C   0  0  0  0  0  3  0  0  0  0  0  0
  -24.9590  -29.0140   20.3130 C   0  0  0  0  0  0  0  0  0  0  0  0
  -25.9900  -30.9050   21.5710 C   0  0  0  0  0  2  0  0  0  0  0  0
  -26.1040  -29.5220   20.9390 C   0  0  0  0  0  0  0  0  0  0  0  0
  -27.2960  -28.7360   20.9780 C   0  0  0  0  0  3  0  0  0  0  0  0
  -26.1700  -26.9700   19.7620 C   0  0  0  0  0  3  0  0  0  0  0  0
  -24.9940  -27.7440   19.7180 C   0  0  0  0  0  3  0  0  0  0  0  0
  -23.7080  -29.8700   20.3240 C   0  0  0  0  0  2  0  0  0  0  0  0
  -24.6950  -31.1690   22.2610 N   0  0  0  0  0  0  0  0  0  0  0  0
  -23.4920  -32.2530   23.8540 O   0  0  0  0  0  0  0  0  0  0  0  0
  -22.7780  -29.5390   22.6450 C   0  0  0  0  0  0  0  0  0  0  0  0
  -21.4610  -29.3300   22.4770 N   0  0  0  0  0  0  0  0  0  0  0  0
  -23.4410  -28.9420   23.4960 O   0  0  0  0  0  0  0  0  0  0  0  0
  -20.9850  -29.8650   21.7630 H   0  0  0  0  0  0  0  0  0  0  0  0
  -18.0940  -28.0720   22.8870 C   0  0  0  0  0  0  0  0  0  0  0  0
  -20.6370  -28.3860   23.2340 C   0  0  0  0  0  3  0  0  0  0  0  0
  -20.7850  -26.9500   22.6800 C   0  0  0  0  0  2  0  0  0  0  0  0
  -19.7210  -26.5920   21.6360 C   0  0  0  0  0  2  0  0  0  0  0  0
  -18.3170  -26.7190   22.2350 C   0  0  0  0  0  2  0  0  0  0  0  0
  -19.1830  -28.8620   23.3410 C   0  0  0  0  0  0  0  0  0  0  0  0
  -18.9200  -30.1280   23.9090 C   0  0  0  0  0  3  0  0  0  0  0  0
  -17.6010  -30.6050   24.0270 C   0  0  0  0  0  3  0  0  0  0  0  0
  -16.5260  -29.8120   23.5890 C   0  0  0  0  0  3  0  0  0  0  0  0
  -16.7720  -28.5490   23.0240 C   0  0  0  0  0  3  0  0  0  0  0  0
  -25.8500  -32.6440   23.9980 C   0  0  0  0  0  3  0  0  0  0  0  0
  -25.5110  -34.0390   24.3110 N   0  0  0  0  0  0  0  0  0  0  0  0
  -25.8330  -35.0910   23.5470 C   0  0  0  0  0  0  0  0  0  0  0  0
  -26.5190  -34.9910   22.5250 O   0  0  0  0  0  0  0  0  0  0  0  0
  -24.9020  -34.1900   25.1030 H   0  0  0  0  0  0  0  0  0  0  0  0
  -24.0800  -36.8520   23.1550 C   0  0  0  0  0  1  0  0  0  0  0  0
  -25.3160  -36.4750   23.9870 C   0  0  0  0  0  3  0  0  0  0  0  0
  -27.4180  -37.4110   24.8460 C   0  0  0  0  0  1  0  0  0  0  0  0
  -26.3330  -37.5450   23.8790 N   0  0  0  0  0  0  0  0  0  0  0  0
  -25.9080  -38.4600   24.0040 H   0  0  0  0  0  0  0  0  0  0  0  0
  -26.3450  -31.8900   25.2940 C   0  0  1  0  0  0  0  0  0  0  0  0
  -25.2230  -31.6190   26.3230 C   0  0  0  0  0  1  0  0  0  0  0  0
  -26.9850  -30.5310   24.9260 C   0  0  0  0  0  1  0  0  0  0  0  0
  -27.4460  -32.7200   25.9940 C   0  0  0  0  0  1  0  0  0  0  0  0
  2  1  2  0
  3  1  1  0
  3  6  1  0
  4  3  2  0
  5  4  1  0
  5  2  1  0
  6  7  1  0
  8 21  1  0
  9 14  1  0
 10 11  1  0
 10  9  1  0
 12 11  1  0
 12 25  1  0
 12 13  1  0
 14  8  1  0
 14 13  1  0
 15  8  2  0
 18 21  1  0
 18 16  1  0
 19 17  1  0
 20 16  1  0
 20  6  1  0
 20 17  1  0
 21 19  1  0
 22 23  2  0
 23 42  1  0
 24 23  1  0
 24 27  1  0
 25 26  1  0
 25 22  1  0
 26 24  2  0
 27 28  1  0
 28 29  2  0
 30 33  1  0
 30 29  1  0
 31 30  2  0
 32 31  1  0
 32 27  2  0
 33 34  1  0
 34 35  1  0
 35 36  2  0
 37 36  1  0
 37 41  1  0
 38 37  2  0
 39 34  2  0
 39 38  1  0
 40 39  1  0
 42 43  1  0
 43 46  1  0
 43 45  1  0
 44 42  2  0
 47 22  1  0
 47 48  1  0
 49 47  1  0
 50 51  1  0
 51  5  1  0
 52  2  1  0
 52 53  1  0
 54 65  2  0
 55 53  1  0
 55 60  1  0
 56 64  1  0
 56 66  1  0
 57 63  1  0
 57 59  1  0
 58 64  1  0
 59 60  2  0
 59 58  1  0
 61 55  2  0
 62 61  1  0
 62 57  2  0
 63 56  1  0
 64 54  1  0
 66 68  2  0
 67 66  1  0
 69 67  1  0
 70 79  2  0
 70 75  1  0
 71 67  1  0
 71 75  1  0
 72 71  1  0
 73 74  1  0
 73 72  1  0
 74 70  1  0
 75 76  2  0
 76 77  1  0
 78 77  2  0
 79 78  1  0
 80 54  1  0
 80 81  1  0
 80 90  1  0
 81 84  1  0
 82 86  1  0
 82 81  1  0
 83 82  2  0
 86 85  1  0
 88 86  1  0
 88 89  1  0
 88 87  1  0
 90 93  1  1
 90 91  1  0
 92 90  1  0
M  ISO  4   8 100  21 100  52 101  53 101
M  END
>  <TORSDO>  (10) 
F 18

>  <SCORE>  (10) 
-14.328

>  <name>  (10) 
9

>  <ligand_id>  (10) 
9

>  <original_smiles>  (10) 
[H]c1c([H])c([H])c2c(c1[H])C([H])([H])C([H])([H])C([H])([H])C2([H])N([H])C(=O)C1([H])N(C(=O)C([H])(N([H])C(=O)C([H])(N([H])C([H])([H])[H])C([H])([H])[H])C(C([H])([H])[H])(C([H])([H])[H])C([H])([H])[H])C([H])([H])c2c([H])c(OC([H])([H])c3c([H])c(N([H])C4([H])C([H])([H])C([H])([H])N(C(=O)N5C([H])([H])C([H])([H])C([H])([H])C([H])(n6nc(-c7c([H])c([H])c(Oc8c([H])c([H])c(F)c([H])c8F)c([H])c7[H])c(C(=O)N([H])[H])c6N([H])[H])C5([H])[H])C([H])([H])C4([H])[H])nn3C([H])([H])C([H])([H])[H])c([H])c([H])c2C1([H])[H]

>  <smiles>  (10) 
[H]c1c([H])c([H])c2c(c1[H])C([H])([H])C([H])([H])C([H])([H])C2([H])N([H])C(=O)C1([H])N(C(=O)C([H])(N([H])C(=O)C([H])(N([H])C([H])([H])[H])C([H])([H])[H])C(C([H])([H])[H])(C([H])([H])[H])C([H])([H])[H])C([H])([H])c2c([H])c(OC([H])([H])c3c([H])c(N([H])C4([H])C([H])([H])C([H])([H])N(C(=O)N5C([H])([H])C([H])([H])C([H])([H])C([H])(n6nc(-c7c([H])c([H])c(Oc8c([H])c([H])c(F)c([H])c8F)c([H])c7[H])c(C(=O)N([H])[H])c6N([H])[H])C5([H])[H])C([H])([H])C4([H])[H])nn3C([H])([H])C([H])([H])[H])c([H])c([H])c2C1([H])[H]

$$$$
10:0:0
     RDKit          3D

 96105  0  0  1  0  0  0  0  0999 V2000
  -30.7490  -14.4800   20.4330 C   0  0  0  0  0  0  0  0  0  0  0  0
  -30.4910  -12.2370   19.4720 C   0  0  0  0  0  2  0  0  0  0  0  0
  -29.5790  -12.3480   18.2330 C   0  0  0  0  0  2  0  0  0  0  0  0
  -28.0950  -12.2380   18.6350 C   0  0  0  0  0  2  0  0  0  0  0  0
  -27.7180  -13.1610   19.8260 C   0  0  0  0  0  3  0  0  0  0  0  0
  -28.7520  -13.0490   20.9720 C   0  0  0  0  0  2  0  0  0  0  0  0
  -30.0860  -13.2960   20.4050 N   0  0  0  0  0  0  0  0  0  0  0  0
  -31.9240  -14.6100   20.0760 O   0  0  0  0  0  0  0  0  0  0  0  0
  -29.0180  -21.4240   18.8450 C   0  0  0  0  0  3  0  0  0  0  0  0
  -28.5120  -20.1230   19.0200 C   0  0  0  0  0  3  0  0  0  0  0  0
  -29.9240  -21.9060   19.8080 C   0  0  0  0  0  0  0  0  0  0  0  0
  -28.9480  -19.3740   20.1370 C   0  0  0  0  0  0  0  0  0  0  0  0
  -28.5900  -17.1620   19.1600 C   0  0  0  0  0  2  0  0  0  0  0  0
  -28.6950  -17.3720   21.6200 C   0  0  0  0  0  2  0  0  0  0  0  0
  -29.8840  -16.3440   19.2100 C   0  0  0  0  0  2  0  0  0  0  0  0
  -29.9220  -16.4310   21.6370 C   0  0  0  0  0  2  0  0  0  0  0  0
  -30.2800  -21.1620   20.8880 N   0  0  0  0  0  0  0  0  0  0  0  0
  -29.8000  -19.9180   21.0450 N   0  0  0  0  0  0  0  0  0  0  0  0
  -28.5230  -18.0430   20.3250 N   0  0  0  0  0  0  0  0  0  0  0  0
  -29.9440  -15.5610   20.4530 N   0  0  0  0  0  0  0  0  0  0  0  0
  -25.3270  -13.8090   20.5300 C   0  0  0  0  0  0  0  0  0  0  0  0
  -24.2380  -13.0520   20.8700 C   0  0  0  0  0  0  0  0  0  0  0  0
  -24.6710  -11.6930   20.8140 C   0  0  0  0  0  0  0  0  0  0  0  0
  -26.3560  -12.9100   20.2920 N   0  0  0  0  0  0  0  0  0  0  0  0
  -25.9640  -11.6310   20.5200 N   0  0  0  0  0  0  0  0  0  0  0  0
  -23.9160  -10.4420   20.9710 C   0  0  0  0  0  0  0  0  0  0  0  0
  -24.3410   -9.4300   21.8600 C   0  0  0  0  0  3  0  0  0  0  0  0
  -23.5910   -8.2440   22.0060 C   0  0  0  0  0  3  0  0  0  0  0  0
  -22.4000   -8.0620   21.2650 C   0  0  0  0  0  0  0  0  0  0  0  0
  -21.9910   -9.0630   20.3650 C   0  0  0  0  0  3  0  0  0  0  0  0
  -22.7420  -10.2400   20.2170 C   0  0  0  0  0  3  0  0  0  0  0  0
  -21.6200   -6.9330   21.3220 O   0  0  0  0  0  0  0  0  0  0  0  0
  -21.5930   -6.1330   22.4370 C   0  0  0  0  0  0  0  0  0  0  0  0
  -21.2460   -6.6390   23.7100 C   0  0  0  0  0  3  0  0  0  0  0  0
  -21.1650   -5.7700   24.8150 C   0  0  0  0  0  3  0  0  0  0  0  0
  -21.4200   -4.3960   24.6510 C   0  0  0  0  0  0  0  0  0  0  0  0
  -21.7590   -3.8880   23.3840 C   0  0  0  0  0  3  0  0  0  0  0  0
  -21.8440   -4.7560   22.2800 C   0  0  0  0  0  0  0  0  0  0  0  0
  -22.1490   -4.2590   21.0570 F   0  0  0  0  0  0  0  0  0  0  0  0
  -21.3340   -3.5580   25.7100 F   0  0  0  0  0  0  0  0  0  0  0  0
  -22.8490  -13.5540   21.1380 C   0  0  0  0  0  0  0  0  0  0  0  0
  -22.1020  -12.8630   21.9920 N   0  0  0  0  0  0  0  0  0  0  0  0
  -22.4340  -14.5950   20.6280 O   0  0  0  0  0  0  0  0  0  0  0  0
  -22.4460  -12.0190   22.4250 H   0  0  0  0  0  0  0  0  0  0  0  0
  -21.1700  -13.1840   22.2140 H   0  0  0  0  0  0  0  0  0  0  0  0
  -25.5230  -15.1790   20.3870 N   0  0  0  0  0  0  0  0  0  0  0  0
  -24.7740  -15.8510   20.5100 H   0  0  0  0  0  0  0  0  0  0  0  0
  -26.4090  -15.6070   20.1550 H   0  0  0  0  0  0  0  0  0  0  0  0
  -30.5850  -23.2700   19.6530 C   0  0  0  0  0  2  0  0  0  0  0  0
  -29.7510  -24.3710   20.1890 N   0  0  0  0  0  4  0  0  0  0  0  0
  -29.5110  -24.1550   21.1440 H   0  0  0  0  0  0  0  0  0  0  0  0
  -28.8930  -24.3720   19.6580 H   0  0  0  0  0  0  0  0  0  0  0  0
  -31.5660  -25.9050   21.0140 C   0  0  0  0  0  1  0  0  0  0  0  0
  -30.3530  -25.7310   20.0760 C   0  0  0  0  0  3  0  0  0  0  0  0
  -29.3010  -26.8310   20.3350 C   0  0  0  0  0  2  0  0  0  0  0  0
  -28.2550  -26.6800   19.3810 O   0  0  0  0  0  0  0  0  0  0  0  0
  -24.5700  -31.6410   23.0010 C   0  0  0  0  0  0  0  0  0  0  0  0
  -27.1200  -27.4440   19.5470 C   0  0  0  0  0  0  0  0  0  0  0  0
  -23.2980  -30.3230   21.3340 C   0  0  0  0  0  3  0  0  0  0  0  0
  -24.7000  -28.8900   19.7580 C   0  0  0  0  0  0  0  0  0  0  0  0
  -25.8030  -30.7310   21.0400 C   0  0  0  0  0  2  0  0  0  0  0  0
  -25.8740  -29.3990   20.3280 C   0  0  0  0  0  0  0  0  0  0  0  0
  -27.0840  -28.6820   20.2330 C   0  0  0  0  0  3  0  0  0  0  0  0
  -25.9330  -26.9490   18.9680 C   0  0  0  0  0  3  0  0  0  0  0  0
  -24.7220  -27.6590   19.0790 C   0  0  0  0  0  3  0  0  0  0  0  0
  -23.4490  -29.7250   19.9090 C   0  0  0  0  0  2  0  0  0  0  0  0
  -24.5770  -30.9100   21.8510 N   0  0  0  0  0  0  0  0  0  0  0  0
  -23.5140  -31.8670   23.6080 O   0  0  0  0  0  0  0  0  0  0  0  0
  -22.7040  -29.2400   22.2620 C   0  0  0  0  0  0  0  0  0  0  0  0
  -21.3770  -29.0470   22.1810 N   0  0  0  0  0  0  0  0  0  0  0  0
  -23.4300  -28.5790   23.0090 O   0  0  0  0  0  0  0  0  0  0  0  0
  -20.8520  -29.6350   21.5480 H   0  0  0  0  0  0  0  0  0  0  0  0
  -18.0450  -27.7610   22.7210 C   0  0  0  0  0  0  0  0  0  0  0  0
  -20.6040  -28.0570   22.9290 C   0  0  0  0  0  3  0  0  0  0  0  0
  -20.7180  -26.6580   22.2810 C   0  0  0  0  0  2  0  0  0  0  0  0
  -19.5910  -26.3620   21.2850 C   0  0  0  0  0  2  0  0  0  0  0  0
  -18.2280  -26.4480   21.9760 C   0  0  0  0  0  2  0  0  0  0  0  0
  -19.1620  -28.5240   23.1530 C   0  0  0  0  0  0  0  0  0  0  0  0
  -18.9380  -29.7540   23.8090 C   0  0  0  0  0  3  0  0  0  0  0  0
  -17.6310  -30.2210   24.0360 C   0  0  0  0  0  3  0  0  0  0  0  0
  -16.5290  -29.4550   23.6200 C   0  0  0  0  0  3  0  0  0  0  0  0
  -16.7370  -28.2260   22.9680 C   0  0  0  0  0  3  0  0  0  0  0  0
  -25.8810  -32.2450   23.5950 C   0  0  0  0  0  3  0  0  0  0  0  0
  -26.4840  -31.3870   24.7750 C   0  0  1  0  0  0  0  0  0  0  0  0
  -25.4620  -31.0550   25.8860 C   0  0  0  0  0  1  0  0  0  0  0  0
  -27.0530  -30.0520   24.2410 C   0  0  0  0  0  1  0  0  0  0  0  0
  -27.6660  -32.1450   25.4230 C   0  0  0  0  0  1  0  0  0  0  0  0
  -25.5740  -33.6090   24.0460 N   0  0  0  0  0  0  0  0  0  0  0  0
  -25.8530  -34.7200   23.3500 C   0  0  0  0  0  0  0  0  0  0  0  0
  -26.4690  -34.7040   22.2810 O   0  0  0  0  0  0  0  0  0  0  0  0
  -25.0220  -33.6940   24.8870 H   0  0  0  0  0  0  0  0  0  0  0  0
  -24.0790  -36.4960   23.2260 C   0  0  0  0  0  1  0  0  0  0  0  0
  -25.3710  -36.0610   23.9340 C   0  0  0  0  0  3  0  0  0  0  0  0
  -27.5390  -36.9240   24.6970 C   0  0  0  0  0  1  0  0  0  0  0  0
  -26.3790  -37.1400   23.8380 N   0  0  0  0  0  0  0  0  0  0  0  0
  -25.9690  -38.0390   24.0790 H   0  0  0  0  0  0  0  0  0  0  0  0
  1 20  1  0
  2  7  1  0
  3  4  1  0
  3  2  1  0
  5  4  1  0
  5 24  1  0
  5  6  1  0
  7  1  1  0
  7  6  1  0
  8  1  2  0
  9 10  2  0
  9 11  1  0
 10 12  1  0
 11 17  2  0
 12 19  1  0
 12 18  2  0
 13 15  1  0
 13 19  1  0
 14 16  1  0
 15 20  1  0
 17 18  1  0
 19 14  1  0
 20 16  1  0
 21 22  2  0
 22 41  1  0
 23 22  1  0
 23 26  1  0
 24 25  1  0
 24 21  1  0
 25 23  2  0
 26 27  1  0
 27 28  2  0
 29 32  1  0
 29 28  1  0
 30 29  2  0
 31 30  1  0
 31 26  2  0
 32 33  1  0
 33 34  1  0
 34 35  2  0
 36 35  1  0
 36 40  1  0
 37 36  2  0
 38 33  2  0
 38 37  1  0
 39 38  1  0
 41 42  1  0
 42 45  1  0
 42 44  1  0
 43 41  2  0
 46 47  1  0
 46 21  1  0
 48 46  1  0
 49 11  1  0
 49 50  1  0
 50 51  1  0
 52 50  1  0
 54 50  1  0
 54 55  1  0
 54 53  1  0
 56 58  1  0
 56 55  1  0
 57 68  2  0
 58 63  1  0
 59 67  1  0
 59 69  1  0
 60 66  1  0
 60 62  1  0
 61 67  1  0
 62 61  1  0
 63 62  2  0
 64 65  1  0
 64 58  2  0
 65 60  2  0
 66 59  1  0
 67 57  1  0
 69 71  2  0
 70 69  1  0
 72 70  1  0
 73 82  2  0
 73 78  1  0
 74 70  1  0
 74 78  1  0
 75 74  1  0
 76 77  1  0
 76 75  1  0
 77 73  1  0
 78 79  2  0
 79 80  1  0
 81 80  2  0
 82 81  1  0
 83 57  1  0
 83 88  1  0
 83 84  1  0
 84 87  1  1
 84 85  1  0
 86 84  1  0
 88 91  1  0
 89 93  1  0
 89 88  1  0
 90 89  2  0
 93 92  1  0
 95 93  1  0
 95 96  1  0
 95 94  1  0
M  ISO  4   1 100  20 100  55 101  56 101
M  END
>  <TORSDO>  (11) 
F 19

>  <SCORE>  (11) 
-12.866

>  <name>  (11) 
10

>  <ligand_id>  (11) 
10

>  <original_smiles>  (11) 
[H]c1c(N2C([H])([H])C([H])([H])N(C(=O)N3C([H])([H])C([H])([H])C([H])([H])C([H])(n4nc(-c5c([H])c([H])c(Oc6c([H])c([H])c(F)c([H])c6F)c([H])c5[H])c(C(=O)N([H])[H])c4N([H])[H])C3([H])[H])C([H])([H])C2([H])[H])nnc(C([H])([H])[N+]([H])([H])C([H])(C([H])([H])[H])C([H])([H])Oc2c([H])c([H])c3c(c2[H])C([H])([H])N(C(=O)C([H])(N([H])C(=O)C([H])(N([H])C([H])([H])[H])C([H])([H])[H])C(C([H])([H])[H])(C([H])([H])[H])C([H])([H])[H])C([H])(C(=O)N([H])C2([H])c4c([H])c([H])c([H])c([H])c4C([H])([H])C([H])([H])C2([H])[H])C3([H])[H])c1[H]

>  <smiles>  (11) 
[H]c1c(N2C([H])([H])C([H])([H])N(C(=O)N3C([H])([H])C([H])([H])C([H])([H])C([H])(n4nc(-c5c([H])c([H])c(Oc6c([H])c([H])c(F)c([H])c6F)c([H])c5[H])c(C(=O)N([H])[H])c4N([H])[H])C3([H])[H])C([H])([H])C2([H])[H])nnc(C([H])([H])[N+]([H])([H])C([H])(C([H])([H])[H])C([H])([H])Oc2c([H])c([H])c3c(c2[H])C([H])([H])N(C(=O)C([H])(N([H])C(=O)C([H])(N([H])C([H])([H])[H])C([H])([H])[H])C(C([H])([H])[H])(C([H])([H])[H])C([H])([H])[H])C([H])(C(=O)N([H])C2([H])c4c([H])c([H])c([H])c([H])c4C([H])([H])C([H])([H])C2([H])[H])C3([H])[H])c1[H]

$$$$
11:0:0
     RDKit          3D

 94103  0  0  1  0  0  0  0  0999 V2000
  -29.6410  -21.4100   22.7740 C   0  0  0  0  0  2  0  0  0  0  0  0
  -28.6100  -21.2080   20.4300 C   0  0  0  0  0  2  0  0  0  0  0  0
  -30.2150  -22.7750   22.3250 C   0  0  0  0  0  2  0  0  0  0  0  0
  -29.2830  -22.5570   20.0970 C   0  0  0  0  0  2  0  0  0  0  0  0
  -29.2480  -20.4420   21.6250 C   0  0  0  0  0  3  0  0  0  0  0  0
  -29.3430  -23.4190   21.3070 N   0  0  2  0  0  4  0  0  0  0  0  0
  -28.4160  -23.4350   21.7090 H   0  0  0  0  0  0  0  0  0  0  0  0
  -30.3270  -19.4720   21.2520 N   0  0  0  0  0  4  0  0  0  0  0  0
  -31.0040  -19.8820   20.6270 H   0  0  0  0  0  0  0  0  0  0  0  0
  -30.8180  -19.2440   22.1020 H   0  0  0  0  0  0  0  0  0  0  0  0
  -30.9710  -14.7060   20.3540 C   0  0  0  0  0  0  0  0  0  0  0  0
  -30.6930  -12.4760   19.3670 C   0  0  0  0  0  2  0  0  0  0  0  0
  -29.7770  -12.6220   18.1350 C   0  0  0  0  0  2  0  0  0  0  0  0
  -28.2910  -12.5070   18.5410 C   0  0  0  0  0  2  0  0  0  0  0  0
  -27.9240  -13.3970   19.7580 C   0  0  0  0  0  3  0  0  0  0  0  0
  -28.9690  -13.2720   20.8900 C   0  0  0  0  0  2  0  0  0  0  0  0
  -30.3000  -13.5250   20.3160 N   0  0  0  0  0  0  0  0  0  0  0  0
  -32.1630  -14.8170   20.0540 O   0  0  0  0  0  0  0  0  0  0  0  0
  -30.1070  -17.9480   19.2300 C   0  0  0  0  0  2  0  0  0  0  0  0
  -29.8360  -16.4470   19.1070 C   0  0  0  0  0  2  0  0  0  0  0  0
  -30.4780  -16.9130   21.3350 C   0  0  0  0  0  2  0  0  0  0  0  0
  -29.8470  -18.1710   20.7090 C   0  0  0  0  0  3  0  0  0  0  0  0
  -30.1890  -15.8140   20.3980 N   0  0  0  0  0  0  0  0  0  0  0  0
  -25.5360  -14.0560   20.4520 C   0  0  0  0  0  0  0  0  0  0  0  0
  -24.4490  -13.3050   20.8090 C   0  0  0  0  0  0  0  0  0  0  0  0
  -24.8850  -11.9450   20.7830 C   0  0  0  0  0  0  0  0  0  0  0  0
  -26.5650  -13.1530   20.2310 N   0  0  0  0  0  0  0  0  0  0  0  0
  -26.1780  -11.8800   20.4890 N   0  0  0  0  0  0  0  0  0  0  0  0
  -24.1360  -10.6950   20.9650 C   0  0  0  0  0  0  0  0  0  0  0  0
  -24.5180   -9.7470   21.9400 C   0  0  0  0  0  3  0  0  0  0  0  0
  -23.7750   -8.5590   22.1090 C   0  0  0  0  0  3  0  0  0  0  0  0
  -22.6370   -8.3120   21.3050 C   0  0  0  0  0  0  0  0  0  0  0  0
  -22.2770   -9.2490   20.3210 C   0  0  0  0  0  3  0  0  0  0  0  0
  -23.0190  -10.4290   20.1480 C   0  0  0  0  0  3  0  0  0  0  0  0
  -21.8680   -7.1760   21.3820 O   0  0  0  0  0  0  0  0  0  0  0  0
  -21.7180   -6.4880   22.5600 C   0  0  0  0  0  0  0  0  0  0  0  0
  -21.1440   -7.0830   23.7050 C   0  0  0  0  0  3  0  0  0  0  0  0
  -20.9480   -6.3180   24.8710 C   0  0  0  0  0  3  0  0  0  0  0  0
  -21.3170   -4.9580   24.8920 C   0  0  0  0  0  0  0  0  0  0  0  0
  -21.8830   -4.3640   23.7510 C   0  0  0  0  0  3  0  0  0  0  0  0
  -22.0820   -5.1270   22.5870 C   0  0  0  0  0  0  0  0  0  0  0  0
  -22.6090   -4.5450   21.4840 F   0  0  0  0  0  0  0  0  0  0  0  0
  -21.1200   -4.2200   26.0100 F   0  0  0  0  0  0  0  0  0  0  0  0
  -23.0570  -13.8060   21.0670 C   0  0  0  0  0  0  0  0  0  0  0  0
  -22.3080  -13.1160   21.9200 N   0  0  0  0  0  0  0  0  0  0  0  0
  -22.6410  -14.8400   20.5430 O   0  0  0  0  0  0  0  0  0  0  0  0
  -22.6570  -12.2810   22.3670 H   0  0  0  0  0  0  0  0  0  0  0  0
  -21.3690  -13.4260   22.1310 H   0  0  0  0  0  0  0  0  0  0  0  0
  -25.7320  -15.4230   20.2760 N   0  0  0  0  0  0  0  0  0  0  0  0
  -24.9870  -16.0990   20.3960 H   0  0  0  0  0  0  0  0  0  0  0  0
  -26.6070  -15.8410   19.9890 H   0  0  0  0  0  0  0  0  0  0  0  0
  -29.6720  -24.8580   21.0480 C   0  0  0  0  0  2  0  0  0  0  0  0
  -28.6090  -25.5790   20.1800 C   0  0  0  0  0  2  0  0  0  0  0  0
  -28.7000  -27.0090   20.2580 O   0  0  0  0  0  0  0  0  0  0  0  0
  -24.7180  -31.9900   23.3560 C   0  0  0  0  0  0  0  0  0  0  0  0
  -27.5060  -27.7040   20.2060 C   0  0  0  0  0  0  0  0  0  0  0  0
  -23.5570  -30.5880   21.6800 C   0  0  0  0  0  3  0  0  0  0  0  0
  -25.0610  -29.1310   20.2250 C   0  0  0  0  0  0  0  0  0  0  0  0
  -26.0670  -31.0370   21.4920 C   0  0  0  0  0  2  0  0  0  0  0  0
  -26.1990  -29.6830   20.8250 C   0  0  0  0  0  0  0  0  0  0  0  0
  -27.4240  -28.9800   20.8060 C   0  0  0  0  0  3  0  0  0  0  0  0
  -26.3490  -27.1720   19.5850 C   0  0  0  0  0  3  0  0  0  0  0  0
  -25.1320  -27.8760   19.5980 C   0  0  0  0  0  3  0  0  0  0  0  0
  -23.7860  -29.9400   20.2880 C   0  0  0  0  0  2  0  0  0  0  0  0
  -24.7980  -31.2180   22.2360 N   0  0  0  0  0  0  0  0  0  0  0  0
  -23.6270  -32.2150   23.9000 O   0  0  0  0  0  0  0  0  0  0  0  0
  -22.9370  -29.5280   22.6180 C   0  0  0  0  0  0  0  0  0  0  0  0
  -21.6220  -29.2940   22.4700 N   0  0  0  0  0  0  0  0  0  0  0  0
  -23.6350  -28.9170   23.4320 O   0  0  0  0  0  0  0  0  0  0  0  0
  -21.1200  -29.8440   21.7860 H   0  0  0  0  0  0  0  0  0  0  0  0
  -18.2880  -27.9760   22.9180 C   0  0  0  0  0  0  0  0  0  0  0  0
  -20.8340  -28.3130   23.2140 C   0  0  0  0  0  3  0  0  0  0  0  0
  -20.9880  -26.8990   22.6060 C   0  0  0  0  0  2  0  0  0  0  0  0
  -19.9030  -26.5630   21.5780 C   0  0  0  0  0  2  0  0  0  0  0  0
  -18.5130  -26.6490   22.2150 C   0  0  0  0  0  2  0  0  0  0  0  0
  -19.3790  -28.7650   23.3740 C   0  0  0  0  0  0  0  0  0  0  0  0
  -19.1160  -30.0080   23.9890 C   0  0  0  0  0  3  0  0  0  0  0  0
  -17.7950  -30.4630   24.1560 C   0  0  0  0  0  3  0  0  0  0  0  0
  -16.7190  -29.6710   23.7200 C   0  0  0  0  0  3  0  0  0  0  0  0
  -16.9660  -28.4290   23.1070 C   0  0  0  0  0  3  0  0  0  0  0  0
  -25.9820  -32.6460   23.9940 C   0  0  0  0  0  3  0  0  0  0  0  0
  -26.4760  -31.9060   25.2980 C   0  0  1  0  0  0  0  0  0  0  0  0
  -25.3560  -31.6580   26.3340 C   0  0  0  0  0  1  0  0  0  0  0  0
  -27.1040  -30.5380   24.9430 C   0  0  0  0  0  1  0  0  0  0  0  0
  -27.5840  -32.7370   25.9870 C   0  0  0  0  0  1  0  0  0  0  0  0
  -25.6530  -34.0470   24.2860 N   0  0  0  0  0  0  0  0  0  0  0  0
  -25.9770  -35.0830   23.4990 C   0  0  0  0  0  0  0  0  0  0  0  0
  -26.6550  -34.9610   22.4770 O   0  0  0  0  0  0  0  0  0  0  0  0
  -25.0530  -34.2140   25.0790 H   0  0  0  0  0  0  0  0  0  0  0  0
  -24.2210  -36.8360   23.0930 C   0  0  0  0  0  1  0  0  0  0  0  0
  -25.4680  -36.4760   23.9160 C   0  0  0  0  0  3  0  0  0  0  0  0
  -27.5800  -37.4260   24.7320 C   0  0  0  0  0  1  0  0  0  0  0  0
  -26.4850  -37.5420   23.7730 N   0  0  0  0  0  0  0  0  0  0  0  0
  -26.0610  -38.4590   23.8830 H   0  0  0  0  0  0  0  0  0  0  0  0
  2  5  1  0
  3  1  1  0
  4  2  1  0
  4  6  1  0
  5  8  1  0
  5  1  1  0
  6  7  1  1
  6  3  1  0
  8 10  1  0
  9  8  1  0
 11 23  1  0
 12 17  1  0
 13 14  1  0
 13 12  1  0
 15 14  1  0
 15 27  1  0
 15 16  1  0
 17 11  1  0
 17 16  1  0
 18 11  2  0
 19 22  1  0
 20 19  1  0
 20 23  1  0
 22  8  1  0
 22 21  1  0
 23 21  1  0
 24 25  2  0
 25 44  1  0
 26 25  1  0
 26 29  1  0
 27 24  1  0
 27 28  1  0
 28 26  2  0
 29 30  1  0
 30 31  2  0
 32 35  1  0
 32 31  1  0
 33 32  2  0
 34 33  1  0
 34 29  2  0
 35 36  1  0
 36 41  2  0
 36 37  1  0
 37 38  2  0
 38 39  1  0
 39 43  1  0
 40 39  2  0
 41 40  1  0
 42 41  1  0
 44 45  1  0
 45 48  1  0
 45 47  1  0
 46 44  2  0
 49 50  1  0
 49 24  1  0
 51 49  1  0
 52  6  1  0
 53 54  1  0
 53 52  1  0
 55 66  2  0
 56 54  1  0
 56 61  1  0
 57 65  1  0
 57 67  1  0
 58 64  1  0
 58 60  1  0
 59 65  1  0
 60 59  1  0
 61 60  2  0
 62 63  1  0
 62 56  2  0
 63 58  2  0
 64 57  1  0
 65 55  1  0
 67 69  2  0
 68 67  1  0
 70 68  1  0
 71 80  2  0
 71 76  1  0
 72 68  1  0
 72 76  1  0
 73 72  1  0
 74 75  1  0
 74 73  1  0
 75 71  1  0
 76 77  2  0
 77 78  1  0
 79 78  2  0
 80 79  1  0
 81 55  1  0
 81 86  1  0
 81 82  1  0
 82 85  1  1
 82 83  1  0
 84 82  1  0
 86 89  1  0
 87 91  1  0
 87 86  1  0
 88 87  2  0
 91 90  1  0
 93 94  1  0
 93 91  1  0
 93 92  1  0
M  ISO  4  11 100  23 100  53 101  54 101
M  END
>  <TORSDO>  (12) 
F 19

>  <SCORE>  (12) 
-13.913

>  <name>  (12) 
11

>  <ligand_id>  (12) 
11

>  <original_smiles>  (12) 
[H]c1c([H])c([H])c2c(c1[H])C([H])([H])C([H])([H])C([H])([H])C2([H])N([H])C(=O)C1([H])N(C(=O)C([H])(N([H])C(=O)C([H])(N([H])C([H])([H])[H])C([H])([H])[H])C(C([H])([H])[H])(C([H])([H])[H])C([H])([H])[H])C([H])([H])c2c([H])c(OC([H])([H])C([H])([H])[N+]3([H])C([H])([H])C([H])([H])C([H])([N+]([H])([H])C4([H])C([H])([H])N(C(=O)N5C([H])([H])C([H])([H])C([H])([H])C([H])(n6nc(-c7c([H])c([H])c(Oc8c([H])c([H])c(F)c([H])c8F)c([H])c7[H])c(C(=O)N([H])[H])c6N([H])[H])C5([H])[H])C([H])([H])C4([H])[H])C([H])([H])C3([H])[H])c([H])c([H])c2C1([H])[H]

>  <smiles>  (12) 
[H]c1c([H])c([H])c2c(c1[H])C([H])([H])C([H])([H])C([H])([H])C2([H])N([H])C(=O)C1([H])N(C(=O)C([H])(N([H])C(=O)C([H])(N([H])C([H])([H])[H])C([H])([H])[H])C(C([H])([H])[H])(C([H])([H])[H])C([H])([H])[H])C([H])([H])c2c([H])c(OC([H])([H])C([H])([H])[N+]3([H])C([H])([H])C([H])([H])C([H])([N+]([H])([H])C4([H])C([H])([H])N(C(=O)N5C([H])([H])C([H])([H])C([H])([H])C([H])(n6nc(-c7c([H])c([H])c(Oc8c([H])c([H])c(F)c([H])c8F)c([H])c7[H])c(C(=O)N([H])[H])c6N([H])[H])C5([H])[H])C([H])([H])C4([H])[H])C([H])([H])C3([H])[H])c([H])c([H])c2C1([H])[H]

$$$$
12:0:0
     RDKit          3D

 92101  0  0  1  0  0  0  0  0999 V2000
  -29.8780  -18.6890   20.5740 C   0  0  0  0  0  0  0  0  0  0  0  0
  -31.3750  -20.0730   19.6790 C   0  0  0  0  0  0  0  0  0  0  0  0
  -29.5160  -20.9850   20.5250 C   0  0  0  0  0  0  0  0  0  0  0  0
  -32.7340  -20.2510   19.0420 C   0  0  0  0  0  1  0  0  0  0  0  0
  -31.0440  -18.8160   19.9620 N   0  0  0  0  0  4  0  0  0  0  0  0
  -29.0890  -19.7530   20.9090 N   0  0  0  0  0  0  0  0  0  0  0  0
  -30.6690  -21.1830   19.8960 N   0  0  0  0  0  2  0  0  0  0  0  0
  -30.6170  -14.8770   20.2910 C   0  0  0  0  0  0  0  0  0  0  0  0
  -30.4560  -12.5720   19.3420 C   0  0  0  0  0  2  0  0  0  0  0  0
  -29.5230  -12.5480   18.1130 C   0  0  0  0  0  2  0  0  0  0  0  0
  -28.0420  -12.4020   18.5430 C   0  0  0  0  0  2  0  0  0  0  0  0
  -27.6360  -13.3040   19.7430 C   0  0  0  0  0  3  0  0  0  0  0  0
  -28.7040  -13.2930   20.8570 C   0  0  0  0  0  2  0  0  0  0  0  0
  -29.9890  -13.6500   20.2400 N   0  0  0  0  0  0  0  0  0  0  0  0
  -31.8420  -14.9400   20.1450 O   0  0  0  0  0  0  0  0  0  0  0  0
  -27.9200  -17.0100   19.0420 C   0  0  0  0  0  2  0  0  0  0  0  0
  -27.9180  -17.1260   20.5740 C   0  0  0  0  0  2  0  0  0  0  0  0
  -29.2290  -16.2600   18.7360 C   0  0  0  0  0  2  0  0  0  0  0  0
  -29.4080  -17.1990   20.9040 C   0  0  0  0  0  3  0  0  0  0  0  0
  -29.8430  -16.0130   20.0480 N   0  0  0  0  0  0  0  0  0  0  0  0
  -25.2300  -13.8670   20.4520 C   0  0  0  0  0  0  0  0  0  0  0  0
  -24.1740  -13.0850   20.8280 C   0  0  0  0  0  0  0  0  0  0  0  0
  -24.6610  -11.7440   20.8150 C   0  0  0  0  0  0  0  0  0  0  0  0
  -26.2950  -13.0030   20.2370 N   0  0  0  0  0  0  0  0  0  0  0  0
  -25.9550  -11.7190   20.5190 N   0  0  0  0  0  0  0  0  0  0  0  0
  -23.9470  -10.4780   21.0050 C   0  0  0  0  0  0  0  0  0  0  0  0
  -24.3760   -9.5250   21.9540 C   0  0  0  0  0  3  0  0  0  0  0  0
  -23.6610   -8.3220   22.1280 C   0  0  0  0  0  3  0  0  0  0  0  0
  -22.5030   -8.0680   21.3530 C   0  0  0  0  0  0  0  0  0  0  0  0
  -22.0970   -9.0100   20.3920 C   0  0  0  0  0  3  0  0  0  0  0  0
  -22.8140  -10.2040   20.2160 C   0  0  0  0  0  3  0  0  0  0  0  0
  -21.7590   -6.9170   21.4390 O   0  0  0  0  0  0  0  0  0  0  0  0
  -21.6860   -6.1940   22.6020 C   0  0  0  0  0  0  0  0  0  0  0  0
  -21.2100   -6.7630   23.8030 C   0  0  0  0  0  3  0  0  0  0  0  0
  -21.0870   -5.9660   24.9590 C   0  0  0  0  0  3  0  0  0  0  0  0
  -21.4280   -4.6010   24.9150 C   0  0  0  0  0  0  0  0  0  0  0  0
  -21.8970   -4.0320   23.7170 C   0  0  0  0  0  3  0  0  0  0  0  0
  -22.0220   -4.8260   22.5640 C   0  0  0  0  0  0  0  0  0  0  0  0
  -22.4560   -4.2650   21.4090 F   0  0  0  0  0  0  0  0  0  0  0  0
  -21.3010   -3.8350   26.0230 F   0  0  0  0  0  0  0  0  0  0  0  0
  -22.7700  -13.5580   21.0790 C   0  0  0  0  0  0  0  0  0  0  0  0
  -22.0360  -12.8660   21.9430 N   0  0  0  0  0  0  0  0  0  0  0  0
  -22.3310  -14.5770   20.5470 O   0  0  0  0  0  0  0  0  0  0  0  0
  -22.4080  -12.0490   22.4040 H   0  0  0  0  0  0  0  0  0  0  0  0
  -21.0910  -13.1570   22.1510 H   0  0  0  0  0  0  0  0  0  0  0  0
  -25.3380  -15.2330   20.2520 N   0  0  0  0  0  0  0  0  0  0  0  0
  -24.5370  -15.8460   20.3650 H   0  0  0  0  0  0  0  0  0  0  0  0
  -26.1660  -15.7120   19.9230 H   0  0  0  0  0  0  0  0  0  0  0  0
  -28.5830  -22.2590   20.7310 C   0  0  0  0  0  2  0  0  0  0  0  0
  -29.0880  -23.7760   20.4660 C   0  0  0  0  0  3  0  0  0  0  0  0
  -27.9970  -24.9620   20.5580 C   0  0  0  0  0  3  0  0  0  0  0  0
  -28.2920  -26.4090   20.2630 O   0  0  0  0  0  0  0  0  0  0  0  0
  -24.6170  -31.9190   23.2370 C   0  0  0  0  0  0  0  0  0  0  0  0
  -27.2010  -27.3050   20.2070 C   0  0  0  0  0  0  0  0  0  0  0  0
  -23.4110  -30.5200   21.6000 C   0  0  0  0  0  3  0  0  0  0  0  0
  -24.8560  -28.9620   20.1760 C   0  0  0  0  0  0  0  0  0  0  0  0
  -25.9540  -30.8210   21.4190 C   0  0  0  0  0  2  0  0  0  0  0  0
  -26.0290  -29.4350   20.7800 C   0  0  0  0  0  0  0  0  0  0  0  0
  -27.2040  -28.6180   20.7890 C   0  0  0  0  0  3  0  0  0  0  0  0
  -26.0090  -26.9100   19.5580 C   0  0  0  0  0  3  0  0  0  0  0  0
  -24.8500  -27.7070   19.5550 C   0  0  0  0  0  3  0  0  0  0  0  0
  -23.6230  -29.8410   20.2210 C   0  0  0  0  0  2  0  0  0  0  0  0
  -24.6800  -31.1060   22.1400 N   0  0  0  0  0  0  0  0  0  0  0  0
  -23.5340  -32.1980   23.7730 O   0  0  0  0  0  0  0  0  0  0  0  0
  -22.7460  -29.5070   22.5640 C   0  0  0  0  0  0  0  0  0  0  0  0
  -21.4190  -29.3270   22.4390 N   0  0  0  0  0  0  0  0  0  0  0  0
  -23.4230  -28.8850   23.3860 O   0  0  0  0  0  0  0  0  0  0  0  0
  -20.9290  -29.8790   21.7490 H   0  0  0  0  0  0  0  0  0  0  0  0
  -18.0450  -28.1280   22.9470 C   0  0  0  0  0  0  0  0  0  0  0  0
  -20.6020  -28.3920   23.2160 C   0  0  0  0  0  3  0  0  0  0  0  0
  -20.7060  -26.9580   22.6470 C   0  0  0  0  0  2  0  0  0  0  0  0
  -19.6050  -26.6290   21.6340 C   0  0  0  0  0  2  0  0  0  0  0  0
  -18.2230  -26.7760   22.2780 C   0  0  0  0  0  2  0  0  0  0  0  0
  -19.1610  -28.8940   23.3740 C   0  0  0  0  0  0  0  0  0  0  0  0
  -18.9390  -30.1580   23.9600 C   0  0  0  0  0  3  0  0  0  0  0  0
  -17.6340  -30.6560   24.1260 C   0  0  0  0  0  3  0  0  0  0  0  0
  -16.5310  -29.8870   23.7160 C   0  0  0  0  0  3  0  0  0  0  0  0
  -16.7380  -28.6250   23.1300 C   0  0  0  0  0  3  0  0  0  0  0  0
  -25.9020  -32.5520   23.8550 C   0  0  0  0  0  3  0  0  0  0  0  0
  -26.4240  -31.7820   25.1300 C   0  0  1  0  0  0  0  0  0  0  0  0
  -25.3370  -31.5450   26.2040 C   0  0  0  0  0  1  0  0  0  0  0  0
  -27.0060  -30.4030   24.7410 C   0  0  0  0  0  1  0  0  0  0  0  0
  -27.5730  -32.5810   25.7910 C   0  0  0  0  0  1  0  0  0  0  0  0
  -25.5920  -33.9500   24.1880 N   0  0  0  0  0  0  0  0  0  0  0  0
  -25.9130  -35.0040   23.4280 C   0  0  0  0  0  0  0  0  0  0  0  0
  -26.5710  -34.9020   22.3860 O   0  0  0  0  0  0  0  0  0  0  0  0
  -25.0120  -34.1040   24.9990 H   0  0  0  0  0  0  0  0  0  0  0  0
  -24.1800  -36.7960   23.0950 C   0  0  0  0  0  1  0  0  0  0  0  0
  -25.4290  -36.3900   23.8910 C   0  0  0  0  0  3  0  0  0  0  0  0
  -27.5700  -37.2810   24.7020 C   0  0  0  0  0  1  0  0  0  0  0  0
  -26.4580  -37.4460   23.7690 N   0  0  0  0  0  0  0  0  0  0  0  0
  -26.0500  -38.3640   23.9230 H   0  0  0  0  0  0  0  0  0  0  0  0
  1  6  1  0
  2  7  1  0
  2  5  2  0
  3 49  1  0
  3  6  2  0
  4  2  1  0
  5  1  2  0
  7  3  1  0
  9 14  1  0
 10 11  1  0
 10  9  1  0
 12 11  1  0
 12 24  1  0
 12 13  1  0
 14  8  1  0
 14 13  1  0
 15  8  2  0
 16 17  1  0
 17 19  1  0
 18 16  1  0
 18 20  1  0
 19  1  1  0
 20  8  1  0
 20 19  1  0
 21 22  2  0
 22 41  1  0
 23 22  1  0
 23 26  1  0
 24 21  1  0
 24 25  1  0
 25 23  2  0
 26 27  1  0
 27 28  2  0
 29 32  1  0
 29 28  1  0
 30 29  2  0
 31 30  1  0
 31 26  2  0
 32 33  1  0
 33 34  1  0
 34 35  2  0
 36 35  1  0
 36 40  1  0
 37 36  2  0
 38 33  2  0
 38 37  1  0
 39 38  1  0
 41 42  1  0
 42 45  1  0
 42 44  1  0
 43 41  2  0
 46 47  1  0
 46 21  1  0
 48 46  1  0
 50 51  2  0
 50 49  1  0
 52 51  1  0
 53 64  2  0
 54 52  1  0
 54 59  1  0
 55 63  1  0
 55 65  1  0
 56 62  1  0
 56 58  1  0
 57 63  1  0
 58 59  2  0
 58 57  1  0
 60 54  2  0
 61 60  1  0
 61 56  2  0
 62 55  1  0
 63 53  1  0
 65 67  2  0
 66 65  1  0
 68 66  1  0
 69 78  2  0
 69 74  1  0
 70 66  1  0
 70 74  1  0
 71 70  1  0
 72 73  1  0
 72 71  1  0
 73 69  1  0
 74 75  2  0
 75 76  1  0
 77 76  2  0
 78 77  1  0
 79 53  1  0
 79 84  1  0
 79 80  1  0
 80 83  1  1
 80 81  1  0
 82 80  1  0
 84 87  1  0
 85 89  1  0
 85 84  1  0
 86 85  2  0
 89 88  1  0
 91 89  1  0
 91 92  1  0
 91 90  1  0
M  ISO  4   8 100  20 100  51 101  52 101
M  END
>  <TORSDO>  (13) 
F 19

>  <SCORE>  (13) 
-14.312

>  <name>  (13) 
12

>  <ligand_id>  (13) 
12

>  <original_smiles>  (13) 
[H]c1c([H])c([H])c2c(c1[H])C([H])([H])C([H])([H])C([H])([H])C2([H])N([H])C(=O)C1([H])N(C(=O)C([H])(N([H])C(=O)C([H])(N([H])C([H])([H])[H])C([H])([H])[H])C(C([H])([H])[H])(C([H])([H])[H])C([H])([H])[H])C([H])([H])c2c([H])c(OC([H])([H])C([H])([H])C([H])([H])c3nc(C([H])([H])[H])nc(C4([H])N(C(=O)N5C([H])([H])C([H])([H])C([H])([H])C([H])(n6nc(-c7c([H])c([H])c(Oc8c([H])c([H])c(F)c([H])c8F)c([H])c7[H])c(C(=O)N([H])[H])c6N([H])[H])C5([H])[H])C([H])([H])C([H])([H])C4([H])[H])n3)c([H])c([H])c2C1([H])[H]

>  <smiles>  (13) 
[H]c1c([H])c([H])c2c(c1[H])C([H])([H])C([H])([H])C([H])([H])C2([H])N([H])C(=O)C1([H])N(C(=O)C([H])(N([H])C(=O)C([H])(N([H])C([H])([H])[H])C([H])([H])[H])C(C([H])([H])[H])(C([H])([H])[H])C([H])([H])[H])C([H])([H])c2c([H])c(OC([H])([H])C([H])([H])C([H])([H])c3nc(C([H])([H])[H])nc(C4([H])N(C(=O)N5C([H])([H])C([H])([H])C([H])([H])C([H])(n6nc(-c7c([H])c([H])c(Oc8c([H])c([H])c(F)c([H])c8F)c([H])c7[H])c(C(=O)N([H])[H])c6N([H])[H])C5([H])[H])C([H])([H])C([H])([H])C4([H])[H])n3)c([H])c([H])c2C1([H])[H]

$$$$
13:0:0
     RDKit          3D

 97107  0  0  1  0  0  0  0  0999 V2000
  -31.7030  -24.3960   19.7710 C   0  0  0  0  0  0  0  0  0  0  0  0
  -30.5450  -22.5050   19.9650 C   0  0  0  0  0  0  0  0  0  0  0  0
  -29.5180  -24.4980   20.1540 C   0  0  0  0  0  0  0  0  0  0  0  0
  -31.7290  -23.0690   19.7600 N   0  0  0  0  0  4  0  0  0  0  0  0
  -30.6440  -25.1720   19.9460 N   0  0  0  0  0  0  0  0  0  0  0  0
  -29.4030  -23.1600   20.1960 N   0  0  0  0  0  2  0  0  0  0  0  0
  -34.2050  -24.8710   20.4010 C   0  0  0  0  0  2  0  0  0  0  0  0
  -33.4900  -26.1940   20.4170 C   0  0  0  0  0  2  0  0  0  0  0  0
  -33.0040  -25.0890   19.5020 C   0  0  0  0  0  3  0  0  0  0  0  0
  -30.5250  -20.9610   19.9210 C   0  0  0  0  0  2  0  0  0  0  0  0
  -31.2080  -20.8280   22.3220 C   0  0  0  0  0  1  0  0  0  0  0  0
  -30.3350  -20.2900   21.2440 N   0  0  2  0  0  4  0  0  0  0  0  0
  -29.4110  -20.5980   21.5110 H   0  0  0  0  0  0  0  0  0  0  0  0
  -31.1480  -14.7570   20.0580 C   0  0  0  0  0  0  0  0  0  0  0  0
  -30.7180  -12.5900   18.9430 C   0  0  0  0  0  2  0  0  0  0  0  0
  -29.7290  -12.7610   17.7740 C   0  0  0  0  0  2  0  0  0  0  0  0
  -28.2780  -12.6320   18.2710 C   0  0  0  0  0  2  0  0  0  0  0  0
  -27.9960  -13.5020   19.5220 C   0  0  0  0  0  3  0  0  0  0  0  0
  -29.1020  -13.3420   20.5910 C   0  0  0  0  0  2  0  0  0  0  0  0
  -30.4010  -13.6160   19.9520 N   0  0  0  0  0  0  0  0  0  0  0  0
  -32.2760  -14.8410   19.5690 O   0  0  0  0  0  0  0  0  0  0  0  0
  -31.6260  -18.0560   21.4780 C   0  0  0  0  0  2  0  0  0  0  0  0
  -29.6460  -18.1210   20.0150 C   0  0  0  0  0  2  0  0  0  0  0  0
  -31.4190  -16.5420   21.7380 C   0  0  0  0  0  2  0  0  0  0  0  0
  -29.4610  -16.5850   20.1720 C   0  0  0  0  0  2  0  0  0  0  0  0
  -30.2800  -18.7790   21.2540 C   0  0  0  0  0  3  0  0  0  0  0  0
  -30.6180  -15.8300   20.7160 N   0  0  0  0  0  0  0  0  0  0  0  0
  -25.6710  -14.1710   20.3860 C   0  0  0  0  0  0  0  0  0  0  0  0
  -24.5940  -13.4250   20.7770 C   0  0  0  0  0  0  0  0  0  0  0  0
  -24.9990  -12.0600   20.6690 C   0  0  0  0  0  0  0  0  0  0  0  0
  -26.6660  -13.2600   20.0670 N   0  0  0  0  0  0  0  0  0  0  0  0
  -26.2710  -11.9830   20.2980 N   0  0  0  0  0  0  0  0  0  0  0  0
  -24.2350  -10.8200   20.8400 C   0  0  0  0  0  0  0  0  0  0  0  0
  -24.6370   -9.8280   21.7620 C   0  0  0  0  0  3  0  0  0  0  0  0
  -23.8770   -8.6490   21.9210 C   0  0  0  0  0  3  0  0  0  0  0  0
  -22.7010   -8.4570   21.1580 C   0  0  0  0  0  0  0  0  0  0  0  0
  -22.3190   -9.4360   20.2240 C   0  0  0  0  0  3  0  0  0  0  0  0
  -23.0790  -10.6050   20.0630 C   0  0  0  0  0  3  0  0  0  0  0  0
  -21.9130   -7.3330   21.2280 O   0  0  0  0  0  0  0  0  0  0  0  0
  -21.7810   -6.6180   22.3910 C   0  0  0  0  0  0  0  0  0  0  0  0
  -21.2770   -7.2030   23.5730 C   0  0  0  0  0  3  0  0  0  0  0  0
  -21.0930   -6.4140   24.7250 C   0  0  0  0  0  3  0  0  0  0  0  0
  -21.4050   -5.0420   24.6980 C   0  0  0  0  0  0  0  0  0  0  0  0
  -21.9030   -4.4560   23.5200 C   0  0  0  0  0  3  0  0  0  0  0  0
  -22.0880   -5.2430   22.3690 C   0  0  0  0  0  0  0  0  0  0  0  0
  -22.5480   -4.6690   21.2310 F   0  0  0  0  0  0  0  0  0  0  0  0
  -21.2210   -4.2820   25.8020 F   0  0  0  0  0  0  0  0  0  0  0  0
  -23.2300  -13.9430   21.1350 C   0  0  0  0  0  0  0  0  0  0  0  0
  -22.5210  -13.2430   22.0140 N   0  0  0  0  0  0  0  0  0  0  0  0
  -22.8060  -15.0000   20.6710 O   0  0  0  0  0  0  0  0  0  0  0  0
  -22.8780  -12.3880   22.4100 H   0  0  0  0  0  0  0  0  0  0  0  0
  -21.6080  -13.5710   22.2950 H   0  0  0  0  0  0  0  0  0  0  0  0
  -25.8810  -15.5410   20.2530 N   0  0  0  0  0  0  0  0  0  0  0  0
  -25.1420  -16.2160   20.4160 H   0  0  0  0  0  0  0  0  0  0  0  0
  -26.7220  -15.9560   19.8730 H   0  0  0  0  0  0  0  0  0  0  0  0
  -28.2270  -25.3240   20.3340 C   0  0  0  0  0  2  0  0  0  0  0  0
  -28.3700  -26.7660   20.4460 O   0  0  0  0  0  0  0  0  0  0  0  0
  -24.5670  -32.0640   23.3700 C   0  0  0  0  0  0  0  0  0  0  0  0
  -27.2030  -27.5220   20.3910 C   0  0  0  0  0  0  0  0  0  0  0  0
  -23.3570  -30.6190   21.7720 C   0  0  0  0  0  3  0  0  0  0  0  0
  -24.8060  -29.0520   20.3750 C   0  0  0  0  0  0  0  0  0  0  0  0
  -25.8860  -30.9710   21.5520 C   0  0  0  0  0  2  0  0  0  0  0  0
  -25.9710  -29.5840   20.9430 C   0  0  0  0  0  0  0  0  0  0  0  0
  -27.1700  -28.8280   20.9450 C   0  0  0  0  0  3  0  0  0  0  0  0
  -26.0130  -27.0190   19.8100 C   0  0  0  0  0  3  0  0  0  0  0  0
  -24.8250  -27.7700   19.8060 C   0  0  0  0  0  3  0  0  0  0  0  0
  -23.5610  -29.9100   20.4080 C   0  0  0  0  0  2  0  0  0  0  0  0
  -24.6230  -31.2350   22.2890 N   0  0  0  0  0  0  0  0  0  0  0  0
  -23.4890  -32.3470   23.9100 O   0  0  0  0  0  0  0  0  0  0  0  0
  -22.7140  -29.6200   22.7610 C   0  0  0  0  0  0  0  0  0  0  0  0
  -21.4110  -29.3480   22.5770 N   0  0  0  0  0  0  0  0  0  0  0  0
  -23.3860  -29.0900   23.6490 O   0  0  0  0  0  0  0  0  0  0  0  0
  -20.9260  -29.8320   21.8340 H   0  0  0  0  0  0  0  0  0  0  0  0
  -18.1210  -27.8860   22.8980 C   0  0  0  0  0  0  0  0  0  0  0  0
  -20.6100  -28.4100   23.3640 C   0  0  0  0  0  3  0  0  0  0  0  0
  -20.8900  -26.9480   22.9440 C   0  0  0  0  0  2  0  0  0  0  0  0
  -19.9220  -26.4320   21.8760 C   0  0  0  0  0  2  0  0  0  0  0  0
  -18.4780  -26.5040   22.3780 C   0  0  0  0  0  2  0  0  0  0  0  0
  -19.1230  -28.7860   23.3450 C   0  0  0  0  0  0  0  0  0  0  0  0
  -18.7400  -30.0730   23.7840 C   0  0  0  0  0  3  0  0  0  0  0  0
  -17.3880  -30.4610   23.7850 C   0  0  0  0  0  3  0  0  0  0  0  0
  -16.3980  -29.5600   23.3540 C   0  0  0  0  0  3  0  0  0  0  0  0
  -16.7650  -28.2750   22.9160 C   0  0  0  0  0  3  0  0  0  0  0  0
  -25.8550  -32.7140   23.9660 C   0  0  0  0  0  3  0  0  0  0  0  0
  -26.3800  -31.9830   25.2620 C   0  0  1  0  0  0  0  0  0  0  0  0
  -25.2870  -31.7590   26.3340 C   0  0  0  0  0  1  0  0  0  0  0  0
  -26.9790  -30.6040   24.9030 C   0  0  0  0  0  1  0  0  0  0  0  0
  -27.5160  -32.8090   25.9070 C   0  0  0  0  0  1  0  0  0  0  0  0
  -25.5480  -34.1230   24.2530 N   0  0  0  0  0  0  0  0  0  0  0  0
  -25.9060  -35.1520   23.4760 C   0  0  0  0  0  0  0  0  0  0  0  0
  -26.5990  -35.0180   22.4640 O   0  0  0  0  0  0  0  0  0  0  0  0
  -24.9360  -34.3020   25.0350 H   0  0  0  0  0  0  0  0  0  0  0  0
  -24.1940  -36.9410   23.0360 C   0  0  0  0  0  1  0  0  0  0  0  0
  -25.4140  -36.5540   23.8860 C   0  0  0  0  0  3  0  0  0  0  0  0
  -27.5300  -37.4540   24.7460 C   0  0  0  0  0  1  0  0  0  0  0  0
  -26.4540  -37.5990   23.7700 N   0  0  0  0  0  0  0  0  0  0  0  0
  -26.0470  -38.5250   23.8790 H   0  0  0  0  0  0  0  0  0  0  0  0
  1  5  1  0
  2  6  1  0
  3  6  1  0
  3 56  1  0
  4  1  2  0
  4  2  2  0
  5  3  2  0
  7  8  1  0
  9  1  1  0
  9  7  1  0
  9  8  1  0
 10  2  1  0
 10 12  1  0
 12 13  1  1
 12 11  1  0
 14 27  1  0
 15 20  1  0
 16 17  1  0
 16 15  1  0
 18 17  1  0
 18 31  1  0
 18 19  1  0
 20 14  1  0
 20 19  1  0
 21 14  2  0
 22 24  1  0
 23 25  1  0
 23 26  1  0
 25 27  1  0
 26 12  1  0
 26 22  1  0
 27 24  1  0
 28 29  2  0
 29 48  1  0
 30 29  1  0
 30 33  1  0
 31 32  1  0
 31 28  1  0
 32 30  2  0
 33 34  1  0
 34 35  2  0
 36 39  1  0
 36 35  1  0
 37 36  2  0
 38 37  1  0
 38 33  2  0
 39 40  1  0
 40 41  1  0
 41 42  2  0
 43 42  1  0
 43 47  1  0
 44 43  2  0
 45 40  2  0
 45 44  1  0
 46 45  1  0
 48 49  1  0
 49 52  1  0
 49 51  1  0
 50 48  2  0
 53 28  1  0
 53 54  1  0
 55 53  1  0
 56 57  1  0
 58 69  2  0
 59 57  1  0
 59 64  1  0
 60 68  1  0
 60 70  1  0
 61 67  1  0
 61 63  1  0
 62 68  1  0
 63 64  2  0
 63 62  1  0
 65 59  2  0
 66 65  1  0
 66 61  2  0
 67 60  1  0
 68 58  1  0
 70 72  2  0
 71 70  1  0
 73 71  1  0
 74 83  2  0
 74 79  1  0
 75 71  1  0
 76 75  1  0
 77 78  1  0
 77 76  1  0
 78 74  1  0
 79 75  1  0
 79 80  2  0
 80 81  1  0
 82 81  2  0
 83 82  1  0
 84 58  1  0
 84 89  1  0
 84 85  1  0
 85 88  1  1
 85 86  1  0
 87 85  1  0
 89 92  1  0
 90 94  1  0
 90 89  1  0
 91 90  2  0
 94 93  1  0
 96 97  1  0
 96 94  1  0
 96 95  1  0
M  ISO  4  14 100  27 100  56 101  57 101
M  END
>  <TORSDO>  (14) 
F 20

>  <SCORE>  (14) 
-13.169

>  <name>  (14) 
13

>  <ligand_id>  (14) 
13

>  <original_smiles>  (14) 
[H]c1c([H])c([H])c2c(c1[H])C([H])([H])C([H])([H])C([H])([H])C2([H])N([H])C(=O)C1([H])N(C(=O)C([H])(N([H])C(=O)C([H])(N([H])C([H])([H])[H])C([H])([H])[H])C(C([H])([H])[H])(C([H])([H])[H])C([H])([H])[H])C([H])([H])c2c([H])c(OC([H])([H])c3nc(C4([H])C([H])([H])C4([H])[H])nc(C([H])([H])[N+]([H])(C([H])([H])[H])C4([H])C([H])([H])C([H])([H])N(C(=O)N5C([H])([H])C([H])([H])C([H])([H])C([H])(n6nc(-c7c([H])c([H])c(Oc8c([H])c([H])c(F)c([H])c8F)c([H])c7[H])c(C(=O)N([H])[H])c6N([H])[H])C5([H])[H])C([H])([H])C4([H])[H])n3)c([H])c([H])c2C1([H])[H]

>  <smiles>  (14) 
[H]c1c([H])c([H])c2c(c1[H])C([H])([H])C([H])([H])C([H])([H])C2([H])N([H])C(=O)C1([H])N(C(=O)C([H])(N([H])C(=O)C([H])(N([H])C([H])([H])[H])C([H])([H])[H])C(C([H])([H])[H])(C([H])([H])[H])C([H])([H])[H])C([H])([H])c2c([H])c(OC([H])([H])c3nc(C4([H])C([H])([H])C4([H])[H])nc(C([H])([H])[N+]([H])(C([H])([H])[H])C4([H])C([H])([H])C([H])([H])N(C(=O)N5C([H])([H])C([H])([H])C([H])([H])C([H])(n6nc(-c7c([H])c([H])c(Oc8c([H])c([H])c(F)c([H])c8F)c([H])c7[H])c(C(=O)N([H])[H])c6N([H])[H])C5([H])[H])C([H])([H])C4([H])[H])n3)c([H])c([H])c2C1([H])[H]

$$$$
14:0:0
     RDKit          3D

 98108  0  0  1  0  0  0  0  0999 V2000
  -29.5190  -21.2680   21.6430 C   0  0  0  0  0  3  0  0  0  0  0  0
  -29.4270  -22.5930   21.1540 C   0  0  0  0  0  0  0  0  0  0  0  0
  -28.5850  -22.7870   20.0380 C   0  0  0  0  0  0  0  0  0  0  0  0
  -28.7890  -20.2610   20.9680 C   0  0  0  0  0  0  0  0  0  0  0  0
  -30.2240  -23.7620   21.7710 C   0  0  0  0  0  2  0  0  0  0  0  0
  -28.5090  -24.1430   19.3840 C   0  0  0  0  0  2  0  0  0  0  0  0
  -29.8720  -24.8220   19.5110 C   0  0  0  0  0  2  0  0  0  0  0  0
  -27.8870  -21.7840   19.4460 N   0  0  0  0  0  0  0  0  0  0  0  0
  -27.9950  -20.5350   19.9050 N   0  0  0  0  0  0  0  0  0  0  0  0
  -28.8050  -18.9290   21.3740 N   0  0  0  0  0  0  0  0  0  0  0  0
  -30.2260  -25.0120   20.9420 N   0  0  2  0  0  4  0  0  0  0  0  0
  -28.8580  -18.9070   22.3880 H   0  0  0  0  0  0  0  0  0  0  0  0
  -29.4280  -25.5180   21.3010 H   0  0  0  0  0  0  0  0  0  0  0  0
  -31.9020  -14.3980   19.8230 C   0  0  0  0  0  0  0  0  0  0  0  0
  -31.7370  -11.9490   19.5570 C   0  0  0  0  0  2  0  0  0  0  0  0
  -30.7840  -11.6320   18.3860 C   0  0  0  0  0  2  0  0  0  0  0  0
  -29.3140  -11.6160   18.8600 C   0  0  0  0  0  2  0  0  0  0  0  0
  -28.9370  -12.8630   19.7000 C   0  0  0  0  0  3  0  0  0  0  0  0
  -29.9870  -13.0900   20.8020 C   0  0  0  0  0  2  0  0  0  0  0  0
  -31.3060  -13.2210   20.1560 N   0  0  0  0  0  0  0  0  0  0  0  0
  -32.9360  -14.4610   19.1440 O   0  0  0  0  0  0  0  0  0  0  0  0
  -29.5360  -17.3000   19.5270 C   0  0  0  0  0  2  0  0  0  0  0  0
  -30.2000  -16.9750   21.8940 C   0  0  0  0  0  2  0  0  0  0  0  0
  -30.7510  -16.4400   19.0860 C   0  0  0  0  0  2  0  0  0  0  0  0
  -31.4070  -16.1270   21.4520 C   0  0  0  0  0  2  0  0  0  0  0  0
  -29.8480  -18.0420   20.8450 C   0  0  0  0  0  3  0  0  0  0  0  0
  -31.1830  -15.5020   20.1400 N   0  0  0  0  0  0  0  0  0  0  0  0
  -26.7530  -13.7400   20.7500 C   0  0  0  0  0  0  0  0  0  0  0  0
  -25.5960  -13.1080   21.1100 C   0  0  0  0  0  0  0  0  0  0  0  0
  -25.7970  -11.7230   20.8210 C   0  0  0  0  0  0  0  0  0  0  0  0
  -27.5960  -12.7510   20.2630 N   0  0  0  0  0  0  0  0  0  0  0  0
  -27.0270  -11.5210   20.3640 N   0  0  0  0  0  0  0  0  0  0  0  0
  -24.8690  -10.5880   20.8910 C   0  0  0  0  0  0  0  0  0  0  0  0
  -25.0900   -9.5030   21.7690 C   0  0  0  0  0  3  0  0  0  0  0  0
  -24.1740   -8.4330   21.8290 C   0  0  0  0  0  3  0  0  0  0  0  0
  -23.0190   -8.4390   21.0100 C   0  0  0  0  0  0  0  0  0  0  0  0
  -22.8170   -9.5090   20.1200 C   0  0  0  0  0  3  0  0  0  0  0  0
  -23.7340  -10.5710   20.0580 C   0  0  0  0  0  3  0  0  0  0  0  0
  -22.0900   -7.4280   20.9820 O   0  0  0  0  0  0  0  0  0  0  0  0
  -21.5930   -6.8750   22.1340 C   0  0  0  0  0  0  0  0  0  0  0  0
  -21.0470   -7.6700   23.1650 C   0  0  0  0  0  3  0  0  0  0  0  0
  -20.4950   -7.0580   24.3090 C   0  0  0  0  0  3  0  0  0  0  0  0
  -20.4680   -5.6550   24.4120 C   0  0  0  0  0  0  0  0  0  0  0  0
  -20.9990   -4.8620   23.3810 C   0  0  0  0  0  3  0  0  0  0  0  0
  -21.5610   -5.4720   22.2440 C   0  0  0  0  0  0  0  0  0  0  0  0
  -22.0580   -4.7030   21.2460 F   0  0  0  0  0  0  0  0  0  0  0  0
  -19.9270   -5.0650   25.5040 F   0  0  0  0  0  0  0  0  0  0  0  0
  -24.3370  -13.7610   21.6060 C   0  0  0  0  0  0  0  0  0  0  0  0
  -23.5840  -13.0700   22.4520 N   0  0  0  0  0  0  0  0  0  0  0  0
  -24.0410  -14.9110   21.2800 O   0  0  0  0  0  0  0  0  0  0  0  0
  -23.8470  -12.1390   22.7390 H   0  0  0  0  0  0  0  0  0  0  0  0
  -22.7350  -13.4740   22.8220 H   0  0  0  0  0  0  0  0  0  0  0  0
  -27.1520  -15.0710   20.7810 N   0  0  0  0  0  0  0  0  0  0  0  0
  -26.5630  -15.8050   21.1630 H   0  0  0  0  0  0  0  0  0  0  0  0
  -28.0630  -15.3960   20.4880 H   0  0  0  0  0  0  0  0  0  0  0  0
  -31.3430  -25.9740   21.1930 C   0  0  0  0  0  2  0  0  0  0  0  0
  -32.1840  -26.4170   19.9490 C   0  0  0  0  0  2  0  0  0  0  0  0
  -31.8420  -27.7380   19.4760 O   0  0  0  0  0  0  0  0  0  0  0  0
  -26.2900  -29.3530   23.5280 C   0  0  0  0  0  0  0  0  0  0  0  0
  -30.4930  -28.0130   19.4600 C   0  0  0  0  0  0  0  0  0  0  0  0
  -25.7520  -28.4580   21.2840 C   0  0  0  0  0  3  0  0  0  0  0  0
  -27.7010  -28.3590   19.6380 C   0  0  0  0  0  0  0  0  0  0  0  0
  -27.9050  -29.7890   21.6810 C   0  0  0  0  0  2  0  0  0  0  0  0
  -28.5430  -28.9750   20.5720 C   0  0  0  0  0  0  0  0  0  0  0  0
  -29.9420  -28.8180   20.4810 C   0  0  0  0  0  3  0  0  0  0  0  0
  -29.6360  -27.4270   18.5010 C   0  0  0  0  0  3  0  0  0  0  0  0
  -28.2420  -27.5890   18.5940 C   0  0  0  0  0  3  0  0  0  0  0  0
  -26.2140  -28.5730   19.8050 C   0  0  0  0  0  2  0  0  0  0  0  0
  -26.6640  -29.1870   22.2290 N   0  0  0  0  0  0  0  0  0  0  0  0
  -25.1960  -28.9390   23.9370 O   0  0  0  0  0  0  0  0  0  0  0  0
  -25.5820  -26.9640   21.6330 C   0  0  0  0  0  0  0  0  0  0  0  0
  -24.5930  -26.3110   21.0030 N   0  0  0  0  0  0  0  0  0  0  0  0
  -26.3410  -26.4140   22.4350 O   0  0  0  0  0  0  0  0  0  0  0  0
  -24.0140  -26.8350   20.3630 H   0  0  0  0  0  0  0  0  0  0  0  0
  -22.4190  -23.6750   19.8250 C   0  0  0  0  0  0  0  0  0  0  0  0
  -24.2670  -24.8960   21.1530 C   0  0  0  0  0  3  0  0  0  0  0  0
  -25.2640  -24.0070   20.3750 C   0  0  0  0  0  2  0  0  0  0  0  0
  -24.7920  -23.6570   18.9610 C   0  0  0  0  0  2  0  0  0  0  0  0
  -23.4610  -22.9120   19.0200 C   0  0  0  0  0  2  0  0  0  0  0  0
  -22.7970  -24.6180   20.8170 C   0  0  0  0  0  0  0  0  0  0  0  0
  -21.7890  -25.3260   21.5070 C   0  0  0  0  0  3  0  0  0  0  0  0
  -20.4280  -25.0980   21.2290 C   0  0  0  0  0  3  0  0  0  0  0  0
  -20.0580  -24.1460   20.2630 C   0  0  0  0  0  3  0  0  0  0  0  0
  -21.0530  -23.4380   19.5650 C   0  0  0  0  0  3  0  0  0  0  0  0
  -27.2080  -30.0860   24.5570 C   0  0  0  0  0  3  0  0  0  0  0  0
  -26.5060  -31.3050   24.9810 N   0  0  0  0  0  0  0  0  0  0  0  0
  -26.7640  -32.5340   24.5130 C   0  0  0  0  0  0  0  0  0  0  0  0
  -27.6770  -32.7690   23.7180 O   0  0  0  0  0  0  0  0  0  0  0  0
  -25.7110  -31.1800   25.5890 H   0  0  0  0  0  0  0  0  0  0  0  0
  -24.8250  -34.0280   23.9240 C   0  0  0  0  0  1  0  0  0  0  0  0
  -25.8660  -33.6870   25.0030 C   0  0  0  0  0  3  0  0  0  0  0  0
  -27.4690  -34.7350   26.5420 C   0  0  0  0  0  1  0  0  0  0  0  0
  -26.6170  -34.9070   25.3670 N   0  0  0  0  0  0  0  0  0  0  0  0
  -25.9830  -35.6800   25.5420 H   0  0  0  0  0  0  0  0  0  0  0  0
  -27.5860  -29.1930   25.8010 C   0  0  1  0  0  0  0  0  0  0  0  0
  -26.3680  -28.5270   26.4790 C   0  0  0  0  0  1  0  0  0  0  0  0
  -28.5670  -28.0690   25.3890 C   0  0  0  0  0  1  0  0  0  0  0  0
  -28.3070  -30.0540   26.8650 C   0  0  0  0  0  1  0  0  0  0  0  0
  2  1  1  0
  2  5  1  0
  3  2  2  0
  4 10  1  0
  4  1  2  0
  6  7  1  0
  6  3  1  0
  7 11  1  0
  8  9  2  0
  8  3  1  0
  9  4  1  0
 10 12  1  0
 11 56  1  0
 11 13  1  1
 11  5  1  0
 14 27  1  0
 14 20  1  0
 15 20  1  0
 16 17  1  0
 16 15  1  0
 18 17  1  0
 18 31  1  0
 18 19  1  0
 20 19  1  0
 21 14  2  0
 22 26  1  0
 24 22  1  0
 24 27  1  0
 25 23  1  0
 26 10  1  0
 26 23  1  0
 27 25  1  0
 28 53  1  0
 28 29  2  0
 29 48  1  0
 30 33  1  0
 30 29  1  0
 31 32  1  0
 31 28  1  0
 32 30  2  0
 33 34  1  0
 34 35  2  0
 36 35  1  0
 37 36  2  0
 38 37  1  0
 38 33  2  0
 39 36  1  0
 39 40  1  0
 40 45  2  0
 40 41  1  0
 41 42  2  0
 42 43  1  0
 43 47  1  0
 44 43  2  0
 45 44  1  0
 46 45  1  0
 48 49  1  0
 49 51  1  0
 49 52  1  0
 50 48  2  0
 53 54  1  0
 55 53  1  0
 57 56  1  0
 58 57  1  0
 59 70  2  0
 60 58  1  0
 60 65  1  0
 61 71  1  0
 61 69  1  0
 62 68  1  0
 62 64  1  0
 63 69  1  0
 64 63  1  0
 65 64  2  0
 66 67  1  0
 66 60  2  0
 67 62  2  0
 68 61  1  0
 69 59  1  0
 71 73  2  0
 72 71  1  0
 74 72  1  0
 75 80  1  0
 76 72  1  0
 77 76  1  0
 78 79  1  0
 78 77  1  0
 79 75  1  0
 80 76  1  0
 80 81  2  0
 82 81  1  0
 83 82  2  0
 84 75  2  0
 84 83  1  0
 85 59  1  0
 85 86  1  0
 85 95  1  0
 86 89  1  0
 87 86  1  0
 87 91  1  0
 88 87  2  0
 91 90  1  0
 91 93  1  0
 93 94  1  0
 93 92  1  0
 95 96  1  1
 95 98  1  0
 97 95  1  0
M  ISO  4  14 100  27 100  57 101  58 101
M  END
>  <TORSDO>  (15) 
F 18

>  <SCORE>  (15) 
-7.140

>  <name>  (15) 
14

>  <ligand_id>  (15) 
14

>  <original_smiles>  (15) 
[H]c1c([H])c([H])c2c(c1[H])C([H])([H])C([H])([H])C([H])([H])C2([H])N([H])C(=O)C1([H])N(C(=O)C([H])(N([H])C(=O)C([H])(N([H])C([H])([H])[H])C([H])([H])[H])C(C([H])([H])[H])(C([H])([H])[H])C([H])([H])[H])C([H])([H])c2c([H])c(OC([H])([H])C([H])([H])[N+]3([H])C([H])([H])c4c(nnc(N([H])C5([H])C([H])([H])C([H])([H])N(C(=O)N6C([H])([H])C([H])([H])C([H])([H])C([H])(n7nc(-c8c([H])c([H])c(Oc9c([H])c([H])c(F)c([H])c9F)c([H])c8[H])c(C(=O)N([H])[H])c7N([H])[H])C6([H])[H])C([H])([H])C5([H])[H])c4[H])C([H])([H])C3([H])[H])c([H])c([H])c2C1([H])[H]

>  <smiles>  (15) 
[H]c1c([H])c([H])c2c(c1[H])C([H])([H])C([H])([H])C([H])([H])C2([H])N([H])C(=O)C1([H])N(C(=O)C([H])(N([H])C(=O)C([H])(N([H])C([H])([H])[H])C([H])([H])[H])C(C([H])([H])[H])(C([H])([H])[H])C([H])([H])[H])C([H])([H])c2c([H])c(OC([H])([H])C([H])([H])[N+]3([H])C([H])([H])c4c(nnc(N([H])C5([H])C([H])([H])C([H])([H])N(C(=O)N6C([H])([H])C([H])([H])C([H])([H])C([H])(n7nc(-c8c([H])c([H])c(Oc9c([H])c([H])c(F)c([H])c9F)c([H])c8[H])c(C(=O)N([H])[H])c7N([H])[H])C6([H])[H])C([H])([H])C5([H])[H])c4[H])C([H])([H])C3([H])[H])c([H])c([H])c2C1([H])[H]

$$$$
15:0:0
     RDKit          3D

 93102  0  0  1  0  0  0  0  0999 V2000
  -30.4510  -21.3710   18.6990 C   0  0  0  0  0  2  0  0  0  0  0  0
  -30.7820  -19.8750   18.7880 C   0  0  0  0  0  2  0  0  0  0  0  0
  -29.6070  -20.4430   20.7810 C   0  0  0  0  0  2  0  0  0  0  0  0
  -30.1310  -21.7640   20.1440 C   0  0  0  0  0  3  0  0  0  0  0  0
  -29.8870  -19.3270   19.8290 N   0  0  2  0  0  4  0  0  0  0  0  0
  -29.0070  -19.1700   19.3600 H   0  0  0  0  0  0  0  0  0  0  0  0
  -30.8380  -14.4540   19.9890 C   0  0  0  0  0  0  0  0  0  0  0  0
  -30.4290  -12.3150   18.8190 C   0  0  0  0  0  2  0  0  0  0  0  0
  -29.3910  -12.5580   17.7020 C   0  0  0  0  0  2  0  0  0  0  0  0
  -27.9550  -12.4200   18.2490 C   0  0  0  0  0  2  0  0  0  0  0  0
  -27.7360  -13.2100   19.5670 C   0  0  0  0  0  3  0  0  0  0  0  0
  -28.8820  -12.9410   20.5670 C   0  0  0  0  0  2  0  0  0  0  0  0
  -30.1450  -13.2810   19.8960 N   0  0  0  0  0  0  0  0  0  0  0  0
  -31.9500  -14.5880   19.4690 O   0  0  0  0  0  0  0  0  0  0  0  0
  -29.4880  -17.5140   21.6000 C   0  0  0  0  0  2  0  0  0  0  0  0
  -29.8120  -16.0090   21.6620 C   0  0  0  0  0  2  0  0  0  0  0  0
  -30.1690  -16.7970   19.4540 C   0  0  0  0  0  2  0  0  0  0  0  0
  -30.3040  -18.0060   20.4110 C   0  0  0  0  0  3  0  0  0  0  0  0
  -30.1050  -15.5700   20.2860 N   0  0  0  0  0  0  0  0  0  0  0  0
  -25.4250  -13.8170   20.5190 C   0  0  0  0  0  0  0  0  0  0  0  0
  -24.3790  -13.0460   20.9460 C   0  0  0  0  0  0  0  0  0  0  0  0
  -24.8050  -11.6910   20.8090 C   0  0  0  0  0  0  0  0  0  0  0  0
  -26.4270  -12.9300   20.1520 N   0  0  0  0  0  0  0  0  0  0  0  0
  -26.0620  -11.6430   20.3820 N   0  0  0  0  0  0  0  0  0  0  0  0
  -24.0720  -10.4330   21.0040 C   0  0  0  0  0  0  0  0  0  0  0  0
  -24.5270   -9.4460   21.9060 C   0  0  0  0  0  3  0  0  0  0  0  0
  -23.7960   -8.2530   22.0890 C   0  0  0  0  0  3  0  0  0  0  0  0
  -22.5950   -8.0380   21.3710 C   0  0  0  0  0  0  0  0  0  0  0  0
  -22.1590   -9.0150   20.4570 C   0  0  0  0  0  3  0  0  0  0  0  0
  -22.8900  -10.2000   20.2720 C   0  0  0  0  0  3  0  0  0  0  0  0
  -21.8320   -6.9010   21.4660 O   0  0  0  0  0  0  0  0  0  0  0  0
  -21.7580   -6.1780   22.6300 C   0  0  0  0  0  0  0  0  0  0  0  0
  -21.2940   -6.7500   23.8350 C   0  0  0  0  0  3  0  0  0  0  0  0
  -21.1700   -5.9530   24.9900 C   0  0  0  0  0  3  0  0  0  0  0  0
  -21.4990   -4.5840   24.9420 C   0  0  0  0  0  0  0  0  0  0  0  0
  -21.9560   -4.0120   23.7410 C   0  0  0  0  0  3  0  0  0  0  0  0
  -22.0820   -4.8070   22.5890 C   0  0  0  0  0  0  0  0  0  0  0  0
  -22.5030   -4.2460   21.4300 F   0  0  0  0  0  0  0  0  0  0  0  0
  -21.3720   -3.8170   26.0490 F   0  0  0  0  0  0  0  0  0  0  0  0
  -23.0230  -13.5340   21.3690 C   0  0  0  0  0  0  0  0  0  0  0  0
  -22.3650  -12.8190   22.2740 N   0  0  0  0  0  0  0  0  0  0  0  0
  -22.5570  -14.5850   20.9290 O   0  0  0  0  0  0  0  0  0  0  0  0
  -22.7550  -11.9690   22.6530 H   0  0  0  0  0  0  0  0  0  0  0  0
  -21.4580  -13.1280   22.5960 H   0  0  0  0  0  0  0  0  0  0  0  0
  -25.6040  -15.1910   20.3920 N   0  0  0  0  0  0  0  0  0  0  0  0
  -24.8660  -15.8530   20.6030 H   0  0  0  0  0  0  0  0  0  0  0  0
  -26.4380  -15.6290   20.0220 H   0  0  0  0  0  0  0  0  0  0  0  0
  -29.4160  -24.2120   20.2600 C   0  0  0  0  0  0  0  0  0  0  0  0
  -29.1730  -22.8840   20.2350 N   0  0  0  0  0  0  0  0  0  0  0  0
  -30.5440  -24.6900   20.4000 O   0  0  0  0  0  0  0  0  0  0  0  0
  -28.1960  -22.6340   20.1510 H   0  0  0  0  0  0  0  0  0  0  0  0
  -28.1790  -25.1070   20.0300 C   0  0  0  0  0  2  0  0  0  0  0  0
  -28.3810  -26.5250   20.2500 O   0  0  0  0  0  0  0  0  0  0  0  0
  -24.5600  -31.8120   23.1800 C   0  0  0  0  0  0  0  0  0  0  0  0
  -27.2260  -27.3010   20.1890 C   0  0  0  0  0  0  0  0  0  0  0  0
  -23.3690  -30.3890   21.5490 C   0  0  0  0  0  3  0  0  0  0  0  0
  -24.8360  -28.8390   20.1560 C   0  0  0  0  0  0  0  0  0  0  0  0
  -25.9020  -30.7380   21.3710 C   0  0  0  0  0  2  0  0  0  0  0  0
  -25.9940  -29.3580   20.7480 C   0  0  0  0  0  0  0  0  0  0  0  0
  -27.1910  -28.5990   20.7610 C   0  0  0  0  0  3  0  0  0  0  0  0
  -26.0400  -26.8160   19.5800 C   0  0  0  0  0  3  0  0  0  0  0  0
  -24.8560  -27.5670   19.5680 C   0  0  0  0  0  3  0  0  0  0  0  0
  -23.5920  -29.6970   20.1810 C   0  0  0  0  0  2  0  0  0  0  0  0
  -24.6290  -30.9950   22.0910 N   0  0  0  0  0  0  0  0  0  0  0  0
  -23.4740  -32.0910   23.7060 O   0  0  0  0  0  0  0  0  0  0  0  0
  -22.7100  -29.3770   22.5160 C   0  0  0  0  0  0  0  0  0  0  0  0
  -21.3910  -29.1750   22.3650 N   0  0  0  0  0  0  0  0  0  0  0  0
  -23.3830  -28.7790   23.3590 O   0  0  0  0  0  0  0  0  0  0  0  0
  -20.9090  -29.7100   21.6560 H   0  0  0  0  0  0  0  0  0  0  0  0
  -18.0250  -27.9300   22.7960 C   0  0  0  0  0  0  0  0  0  0  0  0
  -20.5690  -28.2450   23.1380 C   0  0  0  0  0  3  0  0  0  0  0  0
  -20.7150  -26.7990   22.6080 C   0  0  0  0  0  2  0  0  0  0  0  0
  -19.6520  -26.4260   21.5720 C   0  0  0  0  0  2  0  0  0  0  0  0
  -18.2470  -26.5640   22.1690 C   0  0  0  0  0  2  0  0  0  0  0  0
  -19.1170  -28.7260   23.2370 C   0  0  0  0  0  0  0  0  0  0  0  0
  -18.8560  -30.0020   23.7810 C   0  0  0  0  0  3  0  0  0  0  0  0
  -17.5390  -30.4840   23.8910 C   0  0  0  0  0  3  0  0  0  0  0  0
  -16.4620  -29.6860   23.4680 C   0  0  0  0  0  3  0  0  0  0  0  0
  -16.7050  -28.4110   22.9270 C   0  0  0  0  0  3  0  0  0  0  0  0
  -25.8400  -32.4540   23.8010 C   0  0  0  0  0  3  0  0  0  0  0  0
  -25.5090  -33.8380   24.1620 N   0  0  0  0  0  0  0  0  0  0  0  0
  -25.8080  -34.9100   23.4160 C   0  0  0  0  0  0  0  0  0  0  0  0
  -26.4620  -34.8380   22.3720 O   0  0  0  0  0  0  0  0  0  0  0  0
  -24.9250  -33.9650   24.9760 H   0  0  0  0  0  0  0  0  0  0  0  0
  -24.0390  -36.6740   23.1170 C   0  0  0  0  0  1  0  0  0  0  0  0
  -25.2980  -36.2790   23.9060 C   0  0  0  0  0  3  0  0  0  0  0  0
  -27.4220  -37.1940   24.7300 C   0  0  0  0  0  1  0  0  0  0  0  0
  -26.3080  -37.3550   23.8010 N   0  0  0  0  0  0  0  0  0  0  0  0
  -25.8850  -38.2640   23.9670 H   0  0  0  0  0  0  0  0  0  0  0  0
  -26.3830  -31.6640   25.0540 C   0  0  1  0  0  0  0  0  0  0  0  0
  -25.3060  -31.3780   26.1260 C   0  0  0  0  0  1  0  0  0  0  0  0
  -26.9920  -30.3090   24.6250 C   0  0  0  0  0  1  0  0  0  0  0  0
  -27.5220  -32.4670   25.7260 C   0  0  0  0  0  1  0  0  0  0  0  0
  1  2  1  0
  1  4  1  0
  2  5  1  0
  4 49  1  0
  4  3  1  0
  5  6  1  6
  5 18  1  0
  5  3  1  0
  7 19  1  0
  8 13  1  0
  9 10  1  0
  9  8  1  0
 11 10  1  0
 11 23  1  0
 11 12  1  0
 13  7  1  0
 13 12  1  0
 14  7  2  0
 15 16  1  0
 17 19  1  0
 18 17  1  0
 18 15  1  0
 19 16  1  0
 20 21  2  0
 21 40  1  0
 22 21  1  0
 22 25  1  0
 23 24  1  0
 23 20  1  0
 24 22  2  0
 25 26  1  0
 26 27  2  0
 28 31  1  0
 28 27  1  0
 29 28  2  0
 30 29  1  0
 30 25  2  0
 31 32  1  0
 32 33  1  0
 33 34  2  0
 35 34  1  0
 35 39  1  0
 36 35  2  0
 37 32  2  0
 37 36  1  0
 38 37  1  0
 40 41  1  0
 41 44  1  0
 41 43  1  0
 42 40  2  0
 45 20  1  0
 45 46  1  0
 47 45  1  0
 48 50  2  0
 49 48  1  0
 51 49  1  0
 52 53  1  0
 52 48  1  0
 54 65  2  0
 55 53  1  0
 55 60  1  0
 56 64  1  0
 56 66  1  0
 57 63  1  0
 57 59  1  0
 58 64  1  0
 59 60  2  0
 59 58  1  0
 61 55  2  0
 62 61  1  0
 62 57  2  0
 63 56  1  0
 64 54  1  0
 66 68  2  0
 67 66  1  0
 69 67  1  0
 70 79  2  0
 70 75  1  0
 71 67  1  0
 71 75  1  0
 72 71  1  0
 73 74  1  0
 73 72  1  0
 74 70  1  0
 75 76  2  0
 76 77  1  0
 78 77  2  0
 79 78  1  0
 80 54  1  0
 80 81  1  0
 80 90  1  0
 81 84  1  0
 82 86  1  0
 82 81  1  0
 83 82  2  0
 86 85  1  0
 88 86  1  0
 88 89  1  0
 88 87  1  0
 90 93  1  1
 90 91  1  0
 92 90  1  0
M  ISO  4   7 100  19 100  52 101  53 101
M  END
>  <TORSDO>  (16) 
F 18

>  <SCORE>  (16) 
-13.977

>  <name>  (16) 
15

>  <ligand_id>  (16) 
15

>  <original_smiles>  (16) 
[H]c1c([H])c([H])c2c(c1[H])C([H])([H])C([H])([H])C([H])([H])C2([H])N([H])C(=O)C1([H])N(C(=O)C([H])(N([H])C(=O)C([H])(N([H])C([H])([H])[H])C([H])([H])[H])C(C([H])([H])[H])(C([H])([H])[H])C([H])([H])[H])C([H])([H])c2c([H])c(OC([H])([H])C(=O)N([H])C3([H])C([H])([H])C([H])([H])[N+]([H])(C4([H])C([H])([H])N(C(=O)N5C([H])([H])C([H])([H])C([H])([H])C([H])(n6nc(-c7c([H])c([H])c(Oc8c([H])c([H])c(F)c([H])c8F)c([H])c7[H])c(C(=O)N([H])[H])c6N([H])[H])C5([H])[H])C([H])([H])C4([H])[H])C3([H])[H])c([H])c([H])c2C1([H])[H]

>  <smiles>  (16) 
[H]c1c([H])c([H])c2c(c1[H])C([H])([H])C([H])([H])C([H])([H])C2([H])N([H])C(=O)C1([H])N(C(=O)C([H])(N([H])C(=O)C([H])(N([H])C([H])([H])[H])C([H])([H])[H])C(C([H])([H])[H])(C([H])([H])[H])C([H])([H])[H])C([H])([H])c2c([H])c(OC([H])([H])C(=O)N([H])C3([H])C([H])([H])C([H])([H])[N+]([H])(C4([H])C([H])([H])N(C(=O)N5C([H])([H])C([H])([H])C([H])([H])C([H])(n6nc(-c7c([H])c([H])c(Oc8c([H])c([H])c(F)c([H])c8F)c([H])c7[H])c(C(=O)N([H])[H])c6N([H])[H])C5([H])[H])C([H])([H])C4([H])[H])C3([H])[H])c([H])c([H])c2C1([H])[H]

$$$$
16:0:0
     RDKit          3D

 93103  0  0  1  0  0  0  0  0999 V2000
  -29.3840  -21.5600   19.3450 C   0  0  0  0  0  2  0  0  0  0  0  0
  -31.0370  -14.9580   19.5060 C   0  0  0  0  0  0  0  0  0  0  0  0
  -30.7370  -12.6820   18.4740 C   0  0  0  0  0  2  0  0  0  0  0  0
  -29.6370  -12.7200   17.3890 C   0  0  0  0  0  2  0  0  0  0  0  0
  -28.2380  -12.5250   18.0080 C   0  0  0  0  0  2  0  0  0  0  0  0
  -28.0250  -13.3780   19.2870 C   0  0  0  0  0  3  0  0  0  0  0  0
  -29.2330  -13.2540   20.2420 C   0  0  0  0  0  2  0  0  0  0  0  0
  -30.4040  -13.7210   19.4860 N   0  0  0  0  0  0  0  0  0  0  0  0
  -32.1680  -15.0250   19.0110 O   0  0  0  0  0  0  0  0  0  0  0  0
  -30.8090  -17.5920   19.4460 C   0  0  0  0  0  2  0  0  0  0  0  0
  -29.2910  -16.4470   20.7450 C   0  0  0  0  0  2  0  0  0  0  0  0
  -28.5310  -20.0450   21.2980 C   0  0  0  0  0  2  0  0  0  0  0  0
  -29.6140  -18.6690   19.5550 C   0  0  0  0  0  3  0  0  0  0  0  0
  -29.6340  -20.1780   20.2180 C   0  0  0  0  0  3  0  0  0  0  0  0
  -28.6640  -17.8330   20.4150 C   0  0  0  0  0  3  0  0  0  0  0  0
  -30.3440  -16.1680   19.7570 N   0  0  0  0  0  0  0  0  0  0  0  0
  -28.3300  -18.6190   21.6090 N   0  0  0  0  0  4  0  0  0  0  0  0
  -27.3880  -18.4370   21.9170 H   0  0  0  0  0  0  0  0  0  0  0  0
  -28.9570  -18.3650   22.3580 H   0  0  0  0  0  0  0  0  0  0  0  0
  -25.7770  -13.9470   20.3800 C   0  0  0  0  0  0  0  0  0  0  0  0
  -24.7580  -13.1630   20.8480 C   0  0  0  0  0  0  0  0  0  0  0  0
  -25.1770  -11.8110   20.6480 C   0  0  0  0  0  0  0  0  0  0  0  0
  -26.7580  -13.0730   19.9420 N   0  0  0  0  0  0  0  0  0  0  0  0
  -26.4110  -11.7790   20.1580 N   0  0  0  0  0  0  0  0  0  0  0  0
  -24.4500  -10.5500   20.8410 C   0  0  0  0  0  0  0  0  0  0  0  0
  -24.8870   -9.5780   21.7680 C   0  0  0  0  0  3  0  0  0  0  0  0
  -24.1590   -8.3830   21.9490 C   0  0  0  0  0  3  0  0  0  0  0  0
  -22.9800   -8.1480   21.2010 C   0  0  0  0  0  0  0  0  0  0  0  0
  -22.5640   -9.1070   20.2600 C   0  0  0  0  0  3  0  0  0  0  0  0
  -23.2920  -10.2950   20.0790 C   0  0  0  0  0  3  0  0  0  0  0  0
  -22.2220   -7.0050   21.2940 O   0  0  0  0  0  0  0  0  0  0  0  0
  -22.0320   -6.3620   22.4910 C   0  0  0  0  0  0  0  0  0  0  0  0
  -21.4350   -7.0080   23.5970 C   0  0  0  0  0  3  0  0  0  0  0  0
  -21.1960   -6.2910   24.7870 C   0  0  0  0  0  3  0  0  0  0  0  0
  -21.5410   -4.9290   24.8700 C   0  0  0  0  0  0  0  0  0  0  0  0
  -22.1280   -4.2820   23.7670 C   0  0  0  0  0  3  0  0  0  0  0  0
  -22.3700   -4.9960   22.5820 C   0  0  0  0  0  0  0  0  0  0  0  0
  -22.9160   -4.3630   21.5160 F   0  0  0  0  0  0  0  0  0  0  0  0
  -21.3030   -4.2380   26.0090 F   0  0  0  0  0  0  0  0  0  0  0  0
  -23.4270  -13.6390   21.3530 C   0  0  0  0  0  0  0  0  0  0  0  0
  -22.8230  -12.9040   22.2810 N   0  0  0  0  0  0  0  0  0  0  0  0
  -22.9390  -14.6980   20.9610 O   0  0  0  0  0  0  0  0  0  0  0  0
  -23.2340  -12.0480   22.6210 H   0  0  0  0  0  0  0  0  0  0  0  0
  -21.9340  -13.2030   22.6560 H   0  0  0  0  0  0  0  0  0  0  0  0
  -25.9410  -15.3260   20.2610 N   0  0  0  0  0  0  0  0  0  0  0  0
  -25.1380  -15.9350   20.3710 H   0  0  0  0  0  0  0  0  0  0  0  0
  -26.6420  -15.7100   19.6420 H   0  0  0  0  0  0  0  0  0  0  0  0
  -29.6680  -24.0640   20.3120 C   0  0  0  0  0  2  0  0  0  0  0  0
  -28.0440  -23.8420   19.1580 C   0  0  0  0  0  2  0  0  0  0  0  0
  -28.4070  -25.0010   20.1480 C   0  0  0  0  0  3  0  0  0  0  0  0
  -28.8250  -22.8670   19.9960 N   0  0  1  0  0  4  0  0  0  0  0  0
  -28.2630  -22.6460   20.8020 H   0  0  0  0  0  0  0  0  0  0  0  0
  -28.5500  -26.4610   19.7610 O   0  0  0  0  0  0  0  0  0  0  0  0
  -24.6900  -31.7240   23.0030 C   0  0  0  0  0  0  0  0  0  0  0  0
  -27.4150  -27.3110   19.7790 C   0  0  0  0  0  0  0  0  0  0  0  0
  -23.5170  -30.3460   21.3230 C   0  0  0  0  0  3  0  0  0  0  0  0
  -25.0070  -28.8860   19.8320 C   0  0  0  0  0  0  0  0  0  0  0  0
  -26.0470  -30.7440   21.1290 C   0  0  0  0  0  2  0  0  0  0  0  0
  -26.1680  -29.3860   20.4340 C   0  0  0  0  0  0  0  0  0  0  0  0
  -27.3780  -28.6150   20.3880 C   0  0  0  0  0  3  0  0  0  0  0  0
  -26.2270  -26.8770   19.1570 C   0  0  0  0  0  3  0  0  0  0  0  0
  -25.0420  -27.6420   19.1810 C   0  0  0  0  0  3  0  0  0  0  0  0
  -23.7430  -29.7220   19.9210 C   0  0  0  0  0  2  0  0  0  0  0  0
  -24.7710  -30.9560   21.8760 N   0  0  0  0  0  0  0  0  0  0  0  0
  -23.6040  -31.9450   23.5570 O   0  0  0  0  0  0  0  0  0  0  0  0
  -22.8920  -29.2800   22.2540 C   0  0  0  0  0  0  0  0  0  0  0  0
  -21.5680  -29.0750   22.1420 N   0  0  0  0  0  0  0  0  0  0  0  0
  -23.5970  -28.6390   23.0380 O   0  0  0  0  0  0  0  0  0  0  0  0
  -21.0560  -29.6450   21.4830 H   0  0  0  0  0  0  0  0  0  0  0  0
  -18.2260  -27.7830   22.6600 C   0  0  0  0  0  0  0  0  0  0  0  0
  -20.7850  -28.0870   22.8860 C   0  0  0  0  0  3  0  0  0  0  0  0
  -20.9020  -26.6850   22.2430 C   0  0  0  0  0  2  0  0  0  0  0  0
  -19.7850  -26.3850   21.2370 C   0  0  0  0  0  2  0  0  0  0  0  0
  -18.4160  -26.4700   21.9170 C   0  0  0  0  0  2  0  0  0  0  0  0
  -19.3390  -28.5490   23.1010 C   0  0  0  0  0  0  0  0  0  0  0  0
  -19.1070  -29.7760   23.7580 C   0  0  0  0  0  3  0  0  0  0  0  0
  -17.7970  -30.2410   23.9760 C   0  0  0  0  0  3  0  0  0  0  0  0
  -16.6990  -29.4720   23.5510 C   0  0  0  0  0  3  0  0  0  0  0  0
  -16.9150  -28.2440   22.8990 C   0  0  0  0  0  3  0  0  0  0  0  0
  -25.9560  -32.3760   23.6390 C   0  0  0  0  0  3  0  0  0  0  0  0
  -25.6000  -33.7490   24.0290 N   0  0  0  0  0  0  0  0  0  0  0  0
  -25.8950  -34.8440   23.3160 C   0  0  0  0  0  0  0  0  0  0  0  0
  -26.5600  -34.8060   22.2770 O   0  0  0  0  0  0  0  0  0  0  0  0
  -24.9990  -33.8470   24.8330 H   0  0  0  0  0  0  0  0  0  0  0  0
  -24.1100  -36.5980   23.0510 C   0  0  0  0  0  1  0  0  0  0  0  0
  -25.3690  -36.1960   23.8370 C   0  0  0  0  0  3  0  0  0  0  0  0
  -27.4780  -37.1170   24.6970 C   0  0  0  0  0  1  0  0  0  0  0  0
  -26.3670  -37.2850   23.7620 N   0  0  0  0  0  0  0  0  0  0  0  0
  -25.9330  -38.1850   23.9440 H   0  0  0  0  0  0  0  0  0  0  0  0
  -26.5100  -31.5740   24.8800 C   0  0  1  0  0  0  0  0  0  0  0  0
  -25.4360  -31.2580   25.9470 C   0  0  0  0  0  1  0  0  0  0  0  0
  -27.1370  -30.2340   24.4300 C   0  0  0  0  0  1  0  0  0  0  0  0
  -27.6390  -32.3810   25.5640 C   0  0  0  0  0  1  0  0  0  0  0  0
  1 51  1  0
  2 16  1  0
  3  8  1  0
  4  5  1  0
  4  3  1  0
  6  5  1  0
  6 23  1  0
  6  7  1  0
  8  2  1  0
  8  7  1  0
  9  2  2  0
 10 16  1  0
 12 17  1  0
 13 10  1  0
 13 14  1  0
 13 15  1  0
 14  1  1  0
 14 12  1  0
 15 11  1  0
 15 17  1  0
 16 11  1  0
 17 18  1  0
 17 19  1  0
 20 21  2  0
 21 40  1  0
 22 25  1  0
 22 21  1  0
 23 24  1  0
 23 20  1  0
 24 22  2  0
 25 26  1  0
 26 27  2  0
 28 31  1  0
 28 27  1  0
 29 28  2  0
 30 29  1  0
 30 25  2  0
 31 32  1  0
 32 37  2  0
 32 33  1  0
 33 34  2  0
 34 35  1  0
 35 39  1  0
 36 35  2  0
 37 36  1  0
 38 37  1  0
 40 41  1  0
 41 43  1  0
 41 44  1  0
 42 40  2  0
 45 46  1  0
 45 20  1  0
 47 45  1  0
 49 51  1  0
 49 50  1  0
 50 53  1  0
 50 48  1  0
 51 48  1  0
 51 52  1  1
 53 55  1  0
 54 65  2  0
 55 60  1  0
 56 64  1  0
 56 66  1  0
 57 63  1  0
 57 59  1  0
 58 64  1  0
 59 58  1  0
 60 59  2  0
 61 62  1  0
 61 55  2  0
 62 57  2  0
 63 56  1  0
 64 54  1  0
 66 68  2  0
 67 66  1  0
 69 67  1  0
 70 79  2  0
 70 75  1  0
 71 67  1  0
 71 75  1  0
 72 71  1  0
 73 74  1  0
 73 72  1  0
 74 70  1  0
 75 76  2  0
 76 77  1  0
 78 77  2  0
 79 78  1  0
 80 54  1  0
 80 81  1  0
 80 90  1  0
 81 84  1  0
 82 86  1  0
 82 81  1  0
 83 82  2  0
 86 85  1  0
 88 86  1  0
 88 89  1  0
 88 87  1  0
 90 93  1  1
 90 91  1  0
 92 90  1  0
M  ISO  4   2 100  16 100  50 101  53 101
M  END
>  <TORSDO>  (17) 
F 17

>  <SCORE>  (17) 
-11.621

>  <name>  (17) 
16

>  <ligand_id>  (17) 
16

>  <original_smiles>  (17) 
[H]c1c([H])c([H])c2c(c1[H])C([H])([H])C([H])([H])C([H])([H])C2([H])N([H])C(=O)C1([H])N(C(=O)C([H])(N([H])C(=O)C([H])(N([H])C([H])([H])[H])C([H])([H])[H])C(C([H])([H])[H])(C([H])([H])[H])C([H])([H])[H])C([H])([H])c2c([H])c(OC3([H])C([H])([H])[N+]([H])(C([H])([H])C4([H])C5([H])C([H])([H])N(C(=O)N6C([H])([H])C([H])([H])C([H])([H])C([H])(n7nc(-c8c([H])c([H])c(Oc9c([H])c([H])c(F)c([H])c9F)c([H])c8[H])c(C(=O)N([H])[H])c7N([H])[H])C6([H])[H])C([H])([H])C5([H])[N+]([H])([H])C4([H])[H])C3([H])[H])c([H])c([H])c2C1([H])[H]

>  <smiles>  (17) 
[H]c1c([H])c([H])c2c(c1[H])C([H])([H])C([H])([H])C([H])([H])C2([H])N([H])C(=O)C1([H])N(C(=O)C([H])(N([H])C(=O)C([H])(N([H])C([H])([H])[H])C([H])([H])[H])C(C([H])([H])[H])(C([H])([H])[H])C([H])([H])[H])C([H])([H])c2c([H])c(OC3([H])C([H])([H])[N+]([H])(C([H])([H])C4([H])C5([H])C([H])([H])N(C(=O)N6C([H])([H])C([H])([H])C([H])([H])C([H])(n7nc(-c8c([H])c([H])c(Oc9c([H])c([H])c(F)c([H])c9F)c([H])c8[H])c(C(=O)N([H])[H])c7N([H])[H])C6([H])[H])C([H])([H])C5([H])[N+]([H])([H])C4([H])[H])C3([H])[H])c([H])c([H])c2C1([H])[H]

$$$$
17:0:0
     RDKit          3D

 92101  0  0  1  0  0  0  0  0999 V2000
  -28.7930  -21.8340   21.1980 C   0  0  0  0  0  2  0  0  0  0  0  0
  -30.3750  -22.1600   19.4950 C   0  0  0  0  0  2  0  0  0  0  0  0
  -28.7310  -20.2840   20.8760 C   0  0  0  0  0  2  0  0  0  0  0  0
  -30.2800  -20.6540   19.1010 C   0  0  0  0  0  2  0  0  0  0  0  0
  -29.1100  -22.6980   20.0320 N   0  0  0  0  0  0  0  0  0  0  0  0
  -30.0000  -19.7730   20.2760 N   0  0  2  0  0  4  0  0  0  0  0  0
  -30.7230  -19.9640   20.9520 H   0  0  0  0  0  0  0  0  0  0  0  0
  -31.6960  -17.5020   21.1500 C   0  0  0  0  0  2  0  0  0  0  0  0
  -31.5630  -17.8930   19.6690 C   0  0  0  0  0  2  0  0  0  0  0  0
  -30.1900  -17.1980   21.1290 C   0  0  0  0  0  3  0  0  0  0  0  0
  -30.0890  -18.2750   19.9530 C   0  0  0  0  0  3  0  0  0  0  0  0
  -30.5980  -14.6480   20.4170 C   0  0  0  0  0  0  0  0  0  0  0  0
  -30.3220  -12.4250   19.3450 C   0  0  0  0  0  2  0  0  0  0  0  0
  -29.3760  -12.5570   18.1330 C   0  0  0  0  0  2  0  0  0  0  0  0
  -27.9060  -12.4090   18.5720 C   0  0  0  0  0  2  0  0  0  0  0  0
  -27.5600  -13.2800   19.8100 C   0  0  0  0  0  3  0  0  0  0  0  0
  -28.6250  -13.1370   20.9200 C   0  0  0  0  0  2  0  0  0  0  0  0
  -29.9300  -13.4570   20.3250 N   0  0  0  0  0  0  0  0  0  0  0  0
  -31.7590  -14.7410   20.0140 O   0  0  0  0  0  0  0  0  0  0  0  0
  -29.8700  -15.7410   20.8180 N   0  0  0  0  0  0  0  0  0  0  0  0
  -28.9180  -15.4920   21.0380 H   0  0  0  0  0  0  0  0  0  0  0  0
  -25.1780  -13.8860   20.5530 C   0  0  0  0  0  0  0  0  0  0  0  0
  -24.1090  -13.1160   20.9250 C   0  0  0  0  0  0  0  0  0  0  0  0
  -24.5630  -11.7620   20.8790 C   0  0  0  0  0  0  0  0  0  0  0  0
  -26.2150  -13.0010   20.3040 N   0  0  0  0  0  0  0  0  0  0  0  0
  -25.8510  -11.7180   20.5600 N   0  0  0  0  0  0  0  0  0  0  0  0
  -23.8300  -10.5020   21.0630 C   0  0  0  0  0  0  0  0  0  0  0  0
  -24.2550   -9.5310   21.9950 C   0  0  0  0  0  3  0  0  0  0  0  0
  -23.5230   -8.3360   22.1680 C   0  0  0  0  0  3  0  0  0  0  0  0
  -22.3510   -8.1060   21.4080 C   0  0  0  0  0  0  0  0  0  0  0  0
  -21.9460   -9.0660   20.4650 C   0  0  0  0  0  3  0  0  0  0  0  0
  -22.6780  -10.2520   20.2900 C   0  0  0  0  0  3  0  0  0  0  0  0
  -21.5910   -6.9640   21.4910 O   0  0  0  0  0  0  0  0  0  0  0  0
  -21.5240   -6.2250   22.6450 C   0  0  0  0  0  0  0  0  0  0  0  0
  -21.0570   -6.7780   23.8570 C   0  0  0  0  0  3  0  0  0  0  0  0
  -20.9390   -5.9650   25.0010 C   0  0  0  0  0  3  0  0  0  0  0  0
  -21.2780   -4.6000   24.9350 C   0  0  0  0  0  0  0  0  0  0  0  0
  -21.7370   -4.0470   23.7270 C   0  0  0  0  0  3  0  0  0  0  0  0
  -21.8570   -4.8570   22.5840 C   0  0  0  0  0  0  0  0  0  0  0  0
  -22.2810   -4.3140   21.4180 F   0  0  0  0  0  0  0  0  0  0  0  0
  -21.1560   -3.8170   26.0330 F   0  0  0  0  0  0  0  0  0  0  0  0
  -22.7170  -13.5990   21.2120 C   0  0  0  0  0  0  0  0  0  0  0  0
  -21.9900  -12.8950   22.0730 N   0  0  0  0  0  0  0  0  0  0  0  0
  -22.2850  -14.6350   20.7110 O   0  0  0  0  0  0  0  0  0  0  0  0
  -22.3530  -12.0550   22.4980 H   0  0  0  0  0  0  0  0  0  0  0  0
  -21.0560  -13.1990   22.3080 H   0  0  0  0  0  0  0  0  0  0  0  0
  -25.3500  -15.2570   20.3850 N   0  0  0  0  0  0  0  0  0  0  0  0
  -24.5840  -15.9130   20.4940 H   0  0  0  0  0  0  0  0  0  0  0  0
  -26.1900  -15.6890   20.0200 H   0  0  0  0  0  0  0  0  0  0  0  0
  -29.2680  -24.1560   20.3690 C   0  0  0  0  0  3  0  0  0  0  0  0
  -28.0850  -25.1190   19.9670 C   0  0  0  0  0  3  0  0  0  0  0  0
  -28.2750  -26.5620   20.1970 O   0  0  0  0  0  0  0  0  0  0  0  0
  -24.5760  -31.9250   23.2480 C   0  0  0  0  0  0  0  0  0  0  0  0
  -27.1480  -27.3910   20.1500 C   0  0  0  0  0  0  0  0  0  0  0  0
  -23.3540  -30.5390   21.6110 C   0  0  0  0  0  3  0  0  0  0  0  0
  -24.7850  -28.9940   20.1670 C   0  0  0  0  0  0  0  0  0  0  0  0
  -25.8900  -30.8540   21.4080 C   0  0  0  0  0  2  0  0  0  0  0  0
  -25.9590  -29.4800   20.7550 C   0  0  0  0  0  0  0  0  0  0  0  0
  -27.1440  -28.6910   20.7380 C   0  0  0  0  0  3  0  0  0  0  0  0
  -25.9510  -26.9530   19.5370 C   0  0  0  0  0  3  0  0  0  0  0  0
  -24.7820  -27.7340   19.5490 C   0  0  0  0  0  3  0  0  0  0  0  0
  -23.5520  -29.8700   20.2270 C   0  0  0  0  0  2  0  0  0  0  0  0
  -24.6260  -31.1220   22.1460 N   0  0  0  0  0  0  0  0  0  0  0  0
  -23.4990  -32.2060   23.7910 O   0  0  0  0  0  0  0  0  0  0  0  0
  -22.6950  -29.5200   22.5710 C   0  0  0  0  0  0  0  0  0  0  0  0
  -21.3690  -29.3400   22.4440 N   0  0  0  0  0  0  0  0  0  0  0  0
  -23.3750  -28.8950   23.3890 O   0  0  0  0  0  0  0  0  0  0  0  0
  -20.8810  -29.8970   21.7560 H   0  0  0  0  0  0  0  0  0  0  0  0
  -17.9900  -28.1560   22.9500 C   0  0  0  0  0  0  0  0  0  0  0  0
  -20.5500  -28.4050   23.2150 C   0  0  0  0  0  3  0  0  0  0  0  0
  -20.6450  -26.9750   22.6360 C   0  0  0  0  0  2  0  0  0  0  0  0
  -19.5400  -26.6580   21.6250 C   0  0  0  0  0  2  0  0  0  0  0  0
  -18.1600  -26.8070   22.2720 C   0  0  0  0  0  2  0  0  0  0  0  0
  -19.1130  -28.9130   23.3780 C   0  0  0  0  0  0  0  0  0  0  0  0
  -18.9000  -30.1760   23.9720 C   0  0  0  0  0  3  0  0  0  0  0  0
  -17.5970  -30.6820   24.1410 C   0  0  0  0  0  3  0  0  0  0  0  0
  -16.4890  -29.9210   23.7290 C   0  0  0  0  0  3  0  0  0  0  0  0
  -16.6860  -28.6600   23.1390 C   0  0  0  0  0  3  0  0  0  0  0  0
  -25.8680  -32.5470   23.8630 C   0  0  0  0  0  3  0  0  0  0  0  0
  -26.3900  -31.7670   25.1320 C   0  0  1  0  0  0  0  0  0  0  0  0
  -25.3010  -31.5280   26.2050 C   0  0  0  0  0  1  0  0  0  0  0  0
  -26.9660  -30.3900   24.7300 C   0  0  0  0  0  1  0  0  0  0  0  0
  -27.5460  -32.5540   25.7920 C   0  0  0  0  0  1  0  0  0  0  0  0
  -25.5700  -33.9460   24.2000 N   0  0  0  0  0  0  0  0  0  0  0  0
  -25.8900  -34.9980   23.4350 C   0  0  0  0  0  0  0  0  0  0  0  0
  -26.5380  -34.8940   22.3910 O   0  0  0  0  0  0  0  0  0  0  0  0
  -24.9910  -34.1010   25.0130 H   0  0  0  0  0  0  0  0  0  0  0  0
  -24.1590  -36.7960   23.1190 C   0  0  0  0  0  1  0  0  0  0  0  0
  -25.4160  -36.3870   23.9040 C   0  0  0  0  0  3  0  0  0  0  0  0
  -27.5670  -37.2700   24.6940 C   0  0  0  0  0  1  0  0  0  0  0  0
  -26.4480  -37.4390   23.7700 N   0  0  0  0  0  0  0  0  0  0  0  0
  -26.0470  -38.3590   23.9220 H   0  0  0  0  0  0  0  0  0  0  0  0
  2  5  1  0
  3  1  1  0
  4  2  1  0
  4  6  1  0
  5 50  1  0
  5  1  1  0
  6  3  1  0
  6  7  1  1
  9  8  1  0
 10 20  1  0
 10  8  1  0
 11  9  1  0
 11  6  1  0
 11 10  1  0
 12 20  1  0
 13 18  1  0
 14 15  1  0
 14 13  1  0
 16 15  1  0
 16 25  1  0
 16 17  1  0
 18 12  1  0
 18 17  1  0
 19 12  2  0
 20 21  1  0
 22 23  2  0
 23 42  1  0
 24 23  1  0
 24 27  1  0
 25 22  1  0
 25 26  1  0
 26 24  2  0
 27 28  1  0
 28 29  2  0
 30 33  1  0
 30 29  1  0
 31 30  2  0
 32 31  1  0
 32 27  2  0
 33 34  1  0
 34 35  1  0
 35 36  2  0
 37 36  1  0
 37 41  1  0
 38 37  2  0
 39 34  2  0
 39 38  1  0
 40 39  1  0
 42 43  1  0
 43 46  1  0
 43 45  1  0
 44 42  2  0
 47 48  1  0
 47 22  1  0
 49 47  1  0
 51 52  1  0
 51 50  2  0
 53 64  2  0
 54 52  1  0
 54 59  1  0
 55 63  1  0
 55 65  1  0
 56 62  1  0
 56 58  1  0
 57 63  1  0
 58 57  1  0
 59 58  2  0
 60 61  1  0
 60 54  2  0
 61 56  2  0
 62 55  1  0
 63 53  1  0
 65 67  2  0
 66 65  1  0
 68 66  1  0
 69 78  2  0
 69 74  1  0
 70 66  1  0
 70 74  1  0
 71 70  1  0
 72 73  1  0
 72 71  1  0
 73 69  1  0
 74 75  2  0
 75 76  1  0
 77 76  2  0
 78 77  1  0
 79 53  1  0
 79 84  1  0
 79 80  1  0
 80 83  1  1
 80 81  1  0
 82 80  1  0
 84 87  1  0
 85 89  1  0
 85 84  1  0
 86 85  2  0
 89 88  1  0
 91 89  1  0
 91 92  1  0
 91 90  1  0
M  ISO  4  12 100  20 100  51 101  52 101
M  END
>  <TORSDO>  (18) 
F 19

>  <SCORE>  (18) 
-14.344

>  <name>  (18) 
17

>  <ligand_id>  (18) 
17

>  <original_smiles>  (18) 
[H]c1c([H])c([H])c2c(c1[H])C([H])([H])C([H])([H])C([H])([H])C2([H])N([H])C(=O)C1([H])N(C(=O)C([H])(N([H])C(=O)C([H])(N([H])C([H])([H])[H])C([H])([H])[H])C(C([H])([H])[H])(C([H])([H])[H])C([H])([H])[H])C([H])([H])c2c([H])c(OC([H])([H])C([H])([H])N3C([H])([H])C([H])([H])[N+]([H])(C4([H])C([H])([H])C([H])([H])C4([H])N([H])C(=O)N4C([H])([H])C([H])([H])C([H])([H])C([H])(n5nc(-c6c([H])c([H])c(Oc7c([H])c([H])c(F)c([H])c7F)c([H])c6[H])c(C(=O)N([H])[H])c5N([H])[H])C4([H])[H])C([H])([H])C3([H])[H])c([H])c([H])c2C1([H])[H]

>  <smiles>  (18) 
[H]c1c([H])c([H])c2c(c1[H])C([H])([H])C([H])([H])C([H])([H])C2([H])N([H])C(=O)C1([H])N(C(=O)C([H])(N([H])C(=O)C([H])(N([H])C([H])([H])[H])C([H])([H])[H])C(C([H])([H])[H])(C([H])([H])[H])C([H])([H])[H])C([H])([H])c2c([H])c(OC([H])([H])C([H])([H])N3C([H])([H])C([H])([H])[N+]([H])(C4([H])C([H])([H])C([H])([H])C4([H])N([H])C(=O)N4C([H])([H])C([H])([H])C([H])([H])C([H])(n5nc(-c6c([H])c([H])c(Oc7c([H])c([H])c(F)c([H])c7F)c([H])c6[H])c(C(=O)N([H])[H])c5N([H])[H])C4([H])[H])C([H])([H])C3([H])[H])c([H])c([H])c2C1([H])[H]

$$$$
18:0:0
     RDKit          3D

 92100  0  0  1  0  0  0  0  0999 V2000
  -28.8930  -22.7120   20.6980 N   0  0  0  0  0  4  0  0  0  0  0  0
  -29.8420  -22.8010   21.0280 H   0  0  0  0  0  0  0  0  0  0  0  0
  -28.3120  -22.6690   21.5230 H   0  0  0  0  0  0  0  0  0  0  0  0
  -29.6010  -24.2670   18.8420 C   0  0  0  0  0  1  0  0  0  0  0  0
  -28.5430  -23.9790   19.9260 C   0  0  0  0  0  3  0  0  0  0  0  0
  -28.3610  -25.2640   20.8460 C   0  0  0  0  0  2  0  0  0  0  0  0
  -28.4410  -26.5990   20.2360 O   0  0  0  0  0  0  0  0  0  0  0  0
  -24.6210  -31.8970   23.2550 C   0  0  0  0  0  0  0  0  0  0  0  0
  -27.2980  -27.3890   20.2350 C   0  0  0  0  0  0  0  0  0  0  0  0
  -23.4390  -30.4830   21.6090 C   0  0  0  0  0  3  0  0  0  0  0  0
  -24.9130  -28.9410   20.2010 C   0  0  0  0  0  0  0  0  0  0  0  0
  -25.9700  -30.8370   21.4390 C   0  0  0  0  0  2  0  0  0  0  0  0
  -26.0690  -29.4570   20.8030 C   0  0  0  0  0  0  0  0  0  0  0  0
  -27.2670  -28.6930   20.8080 C   0  0  0  0  0  3  0  0  0  0  0  0
  -26.1270  -26.9090   19.6170 C   0  0  0  0  0  3  0  0  0  0  0  0
  -24.9420  -27.6720   19.5970 C   0  0  0  0  0  3  0  0  0  0  0  0
  -23.6670  -29.8020   20.2330 C   0  0  0  0  0  2  0  0  0  0  0  0
  -24.6940  -31.0880   22.1580 N   0  0  0  0  0  0  0  0  0  0  0  0
  -23.5330  -32.1680   23.7820 O   0  0  0  0  0  0  0  0  0  0  0  0
  -22.7810  -29.4640   22.5680 C   0  0  0  0  0  0  0  0  0  0  0  0
  -21.4560  -29.2800   22.4360 N   0  0  0  0  0  0  0  0  0  0  0  0
  -23.4610  -28.8440   23.3890 O   0  0  0  0  0  0  0  0  0  0  0  0
  -20.9690  -29.8310   21.7440 H   0  0  0  0  0  0  0  0  0  0  0  0
  -18.0830  -28.0760   22.9290 C   0  0  0  0  0  0  0  0  0  0  0  0
  -20.6400  -28.3430   23.2060 C   0  0  0  0  0  3  0  0  0  0  0  0
  -20.7480  -26.9110   22.6330 C   0  0  0  0  0  2  0  0  0  0  0  0
  -19.6510  -26.5840   21.6160 C   0  0  0  0  0  2  0  0  0  0  0  0
  -18.2650  -26.7260   22.2550 C   0  0  0  0  0  2  0  0  0  0  0  0
  -19.1980  -28.8420   23.3610 C   0  0  0  0  0  0  0  0  0  0  0  0
  -18.9730  -30.1050   23.9510 C   0  0  0  0  0  3  0  0  0  0  0  0
  -17.6670  -30.6030   24.1120 C   0  0  0  0  0  3  0  0  0  0  0  0
  -16.5660  -29.8340   23.6940 C   0  0  0  0  0  3  0  0  0  0  0  0
  -16.7750  -28.5730   23.1080 C   0  0  0  0  0  3  0  0  0  0  0  0
  -25.8960  -32.5410   23.8830 C   0  0  0  0  0  3  0  0  0  0  0  0
  -26.4100  -31.7780   25.1660 C   0  0  1  0  0  0  0  0  0  0  0  0
  -25.3130  -31.5320   26.2280 C   0  0  0  0  0  1  0  0  0  0  0  0
  -27.0070  -30.4050   24.7840 C   0  0  0  0  0  1  0  0  0  0  0  0
  -27.5510  -32.5840   25.8310 C   0  0  0  0  0  1  0  0  0  0  0  0
  -25.5760  -33.9380   24.2030 N   0  0  0  0  0  0  0  0  0  0  0  0
  -25.9040  -34.9890   23.4390 C   0  0  0  0  0  0  0  0  0  0  0  0
  -26.5790  -34.8830   22.4110 O   0  0  0  0  0  0  0  0  0  0  0  0
  -24.9780  -34.0950   25.0010 H   0  0  0  0  0  0  0  0  0  0  0  0
  -24.1620  -36.7650   23.0700 C   0  0  0  0  0  1  0  0  0  0  0  0
  -25.4060  -36.3780   23.8850 C   0  0  0  0  0  3  0  0  0  0  0  0
  -27.5330  -37.2840   24.7090 C   0  0  0  0  0  1  0  0  0  0  0  0
  -26.4310  -37.4370   23.7630 N   0  0  0  0  0  0  0  0  0  0  0  0
  -26.0170  -38.3550   23.9040 H   0  0  0  0  0  0  0  0  0  0  0  0
  -28.7610  -21.3560   20.0290 C   0  0  0  0  0  2  0  0  0  0  0  0
  -31.1380  -20.3520   20.0600 C   0  0  0  0  0  1  0  0  0  0  0  0
  -29.7050  -20.2180   20.6170 C   0  0  0  0  0  3  0  0  0  0  0  0
  -30.6970  -14.6570   20.0100 C   0  0  0  0  0  0  0  0  0  0  0  0
  -30.3620  -12.4480   18.9330 C   0  0  0  0  0  2  0  0  0  0  0  0
  -29.3550  -12.6030   17.7730 C   0  0  0  0  0  2  0  0  0  0  0  0
  -27.9130  -12.4440   18.2890 C   0  0  0  0  0  2  0  0  0  0  0  0
  -27.6300  -13.2930   19.5580 C   0  0  0  0  0  3  0  0  0  0  0  0
  -28.7520  -13.1320   20.6060 C   0  0  0  0  0  2  0  0  0  0  0  0
  -30.0190  -13.4680   19.9450 N   0  0  0  0  0  0  0  0  0  0  0  0
  -31.8590  -14.7280   19.5950 O   0  0  0  0  0  0  0  0  0  0  0  0
  -29.4280  -16.3720   21.3520 C   0  0  0  0  0  2  0  0  0  0  0  0
  -30.1880  -16.8970   19.0900 C   0  0  0  0  0  2  0  0  0  0  0  0
  -29.7840  -17.8860   21.5640 C   0  0  0  0  0  2  0  0  0  0  0  0
  -29.2230  -18.1250   19.2160 C   0  0  0  0  0  2  0  0  0  0  0  0
  -29.9530  -15.8150   20.0850 N   0  0  0  0  0  0  0  0  0  0  0  0
  -29.2280  -18.7930   20.5330 N   0  0  0  0  0  0  0  0  0  0  0  0
  -25.2850  -13.8740   20.4260 C   0  0  0  0  0  0  0  0  0  0  0  0
  -24.2380  -13.0920   20.8380 C   0  0  0  0  0  0  0  0  0  0  0  0
  -24.6980  -11.7430   20.7530 C   0  0  0  0  0  0  0  0  0  0  0  0
  -26.3130  -13.0000   20.1150 N   0  0  0  0  0  0  0  0  0  0  0  0
  -25.9690  -11.7110   20.3720 N   0  0  0  0  0  0  0  0  0  0  0  0
  -23.9820  -10.4750   20.9560 C   0  0  0  0  0  0  0  0  0  0  0  0
  -24.4400   -9.5080   21.8780 C   0  0  0  0  0  3  0  0  0  0  0  0
  -23.7250   -8.3070   22.0680 C   0  0  0  0  0  3  0  0  0  0  0  0
  -22.5350   -8.0650   21.3390 C   0  0  0  0  0  0  0  0  0  0  0  0
  -22.0990   -9.0210   20.4050 C   0  0  0  0  0  3  0  0  0  0  0  0
  -22.8150  -10.2140   20.2130 C   0  0  0  0  0  3  0  0  0  0  0  0
  -21.7870   -6.9180   21.4410 O   0  0  0  0  0  0  0  0  0  0  0  0
  -21.7290   -6.1980   22.6070 C   0  0  0  0  0  0  0  0  0  0  0  0
  -21.2910   -6.7760   23.8190 C   0  0  0  0  0  3  0  0  0  0  0  0
  -21.1840   -5.9830   24.9790 C   0  0  0  0  0  3  0  0  0  0  0  0
  -21.5010   -4.6120   24.9270 C   0  0  0  0  0  0  0  0  0  0  0  0
  -21.9310   -4.0340   23.7200 C   0  0  0  0  0  3  0  0  0  0  0  0
  -22.0430   -4.8250   22.5630 C   0  0  0  0  0  0  0  0  0  0  0  0
  -22.4390   -4.2580   21.3970 F   0  0  0  0  0  0  0  0  0  0  0  0
  -21.3890   -3.8480   26.0380 F   0  0  0  0  0  0  0  0  0  0  0  0
  -22.8600  -13.5630   21.1970 C   0  0  0  0  0  0  0  0  0  0  0  0
  -22.1840  -12.8510   22.0940 N   0  0  0  0  0  0  0  0  0  0  0  0
  -22.3910  -14.5950   20.7200 O   0  0  0  0  0  0  0  0  0  0  0  0
  -22.5780  -12.0150   22.5000 H   0  0  0  0  0  0  0  0  0  0  0  0
  -21.2600  -13.1450   22.3770 H   0  0  0  0  0  0  0  0  0  0  0  0
  -25.4450  -15.2480   20.2670 N   0  0  0  0  0  0  0  0  0  0  0  0
  -24.6950  -15.9090   20.4400 H   0  0  0  0  0  0  0  0  0  0  0  0
  -26.2860  -15.6850   19.9110 H   0  0  0  0  0  0  0  0  0  0  0  0
  1  2  1  0
  1  3  1  0
  5  4  1  0
  5  1  1  0
  5  6  1  0
  7  6  1  0
  8 19  2  0
  9  7  1  0
  9 14  1  0
 10 18  1  0
 10 20  1  0
 11 17  1  0
 11 13  1  0
 12 18  1  0
 13 14  2  0
 13 12  1  0
 15  9  2  0
 16 15  1  0
 16 11  2  0
 17 10  1  0
 18  8  1  0
 20 22  2  0
 21 20  1  0
 23 21  1  0
 24 33  2  0
 24 29  1  0
 25 21  1  0
 25 29  1  0
 26 25  1  0
 27 28  1  0
 27 26  1  0
 28 24  1  0
 29 30  2  0
 30 31  1  0
 32 31  2  0
 33 32  1  0
 34  8  1  0
 34 39  1  0
 34 35  1  0
 35 38  1  1
 35 36  1  0
 37 35  1  0
 39 42  1  0
 40 44  1  0
 40 39  1  0
 41 40  2  0
 44 43  1  0
 46 44  1  0
 46 47  1  0
 46 45  1  0
 48 50  1  0
 48  1  1  0
 50 49  1  0
 51 63  1  0
 52 57  1  0
 53 54  1  0
 53 52  1  0
 55 54  1  0
 55 68  1  0
 55 56  1  0
 57 51  1  0
 57 56  1  0
 58 51  2  0
 59 61  1  0
 60 62  1  0
 60 63  1  0
 62 64  1  0
 63 59  1  0
 64 50  1  0
 64 61  1  0
 65 66  2  0
 66 85  1  0
 67 66  1  0
 67 70  1  0
 68 69  1  0
 68 65  1  0
 69 67  2  0
 70 71  1  0
 71 72  2  0
 73 76  1  0
 73 72  1  0
 74 73  2  0
 75 74  1  0
 75 70  2  0
 76 77  1  0
 77 78  1  0
 78 79  2  0
 80 79  1  0
 80 84  1  0
 81 80  2  0
 82 77  2  0
 82 81  1  0
 83 82  1  0
 85 86  1  0
 86 89  1  0
 86 88  1  0
 87 85  2  0
 90 65  1  0
 90 91  1  0
 92 90  1  0
M  ISO  4   6 101   7 101  51 100  63 100
M  END
>  <TORSDO>  (19) 
F 20

>  <SCORE>  (19) 
-13.640

>  <name>  (19) 
18

>  <ligand_id>  (19) 
18

>  <original_smiles>  (19) 
[H]c1c([H])c([H])c2c(c1[H])C([H])([H])C([H])([H])C([H])([H])C2([H])N([H])C(=O)C1([H])N(C(=O)C([H])(N([H])C(=O)C([H])(N([H])C([H])([H])[H])C([H])([H])[H])C(C([H])([H])[H])(C([H])([H])[H])C([H])([H])[H])C([H])([H])c2c([H])c(OC([H])([H])C([H])(C([H])([H])[H])[N+]([H])([H])C([H])([H])C([H])(N3C([H])([H])C([H])([H])N(C(=O)N4C([H])([H])C([H])([H])C([H])([H])C([H])(n5nc(-c6c([H])c([H])c(Oc7c([H])c([H])c(F)c([H])c7F)c([H])c6[H])c(C(=O)N([H])[H])c5N([H])[H])C4([H])[H])C([H])([H])C3([H])[H])C([H])([H])[H])c([H])c([H])c2C1([H])[H]

>  <smiles>  (19) 
[H]c1c([H])c([H])c2c(c1[H])C([H])([H])C([H])([H])C([H])([H])C2([H])N([H])C(=O)C1([H])N(C(=O)C([H])(N([H])C(=O)C([H])(N([H])C([H])([H])[H])C([H])([H])[H])C(C([H])([H])[H])(C([H])([H])[H])C([H])([H])[H])C([H])([H])c2c([H])c(OC([H])([H])C([H])(C([H])([H])[H])[N+]([H])([H])C([H])([H])C([H])(N3C([H])([H])C([H])([H])N(C(=O)N4C([H])([H])C([H])([H])C([H])([H])C([H])(n5nc(-c6c([H])c([H])c(Oc7c([H])c([H])c(F)c([H])c7F)c([H])c6[H])c(C(=O)N([H])[H])c5N([H])[H])C4([H])[H])C([H])([H])C3([H])[H])C([H])([H])[H])c([H])c([H])c2C1([H])[H]

$$$$
19:0:0
     RDKit          3D

 95104  0  0  1  0  0  0  0  0999 V2000
  -26.3150  -23.1890   21.3270 N   0  0  0  0  0  4  0  0  0  0  0  0
  -26.0890  -23.0760   20.3540 H   0  0  0  0  0  0  0  0  0  0  0  0
  -25.6830  -22.5950   21.8180 H   0  0  0  0  0  0  0  0  0  0  0  0
  -24.4620  -24.4420   21.9220 C   0  0  0  0  0  2  0  0  0  0  0  0
  -24.6770  -25.8700   21.4810 C   0  0  0  0  0  2  0  0  0  0  0  0
  -26.1080  -24.4430   21.9970 C   0  0  0  0  0  3  0  0  0  0  0  0
  -26.2490  -25.7870   21.0950 C   0  0  0  0  0  3  0  0  0  0  0  0
  -27.6260  -26.5300   20.7080 O   0  0  0  0  0  0  0  0  0  0  0  0
  -24.5450  -31.8300   23.1950 C   0  0  0  0  0  0  0  0  0  0  0  0
  -27.4940  -27.7150   19.9940 C   0  0  0  0  0  3  0  0  0  0  0  0
  -23.4350  -30.4360   21.4500 C   0  0  0  0  0  3  0  0  0  0  0  0
  -25.0600  -29.1480   19.9720 C   0  0  0  0  0  0  0  0  0  0  0  0
  -25.9870  -30.9700   21.3860 C   0  0  0  0  0  2  0  0  0  0  0  0
  -26.2050  -29.6590   20.6510 C   0  0  0  0  0  0  0  0  0  0  0  0
  -27.4530  -28.9480   20.7220 C   0  0  0  0  0  3  0  0  0  0  0  0
  -26.5020  -27.5130   19.0270 C   0  0  0  0  0  2  0  0  0  0  0  0
  -25.2060  -28.0240   19.1520 C   0  0  0  0  0  3  0  0  0  0  0  0
  -23.7650  -29.9120   20.0340 C   0  0  0  0  0  2  0  0  0  0  0  0
  -24.6490  -31.1000   22.0480 N   0  0  0  0  0  0  0  0  0  0  0  0
  -23.4450  -32.0170   23.7580 O   0  0  0  0  0  0  0  0  0  0  0  0
  -22.8390  -29.3400   22.3340 C   0  0  0  0  0  0  0  0  0  0  0  0
  -21.5020  -29.0860   22.2390 N   0  0  0  0  0  0  0  0  0  0  0  0
  -23.5240  -28.7160   23.1070 O   0  0  0  0  0  0  0  0  0  0  0  0
  -20.9970  -29.5430   21.5370 H   0  0  0  0  0  0  0  0  0  0  0  0
  -18.0980  -27.6450   22.5650 C   0  0  0  0  0  0  0  0  0  0  0  0
  -20.6900  -28.0840   22.9590 C   0  0  0  0  0  3  0  0  0  0  0  0
  -20.9250  -26.7370   22.2450 C   0  0  0  0  0  2  0  0  0  0  0  0
  -19.7740  -26.4160   21.2120 C   0  0  0  0  0  2  0  0  0  0  0  0
  -18.3440  -26.4390   21.6790 C   0  0  0  0  0  2  0  0  0  0  0  0
  -19.1940  -28.3950   23.0620 C   0  0  0  0  0  0  0  0  0  0  0  0
  -18.8840  -29.6490   23.6380 C   0  0  0  0  0  3  0  0  0  0  0  0
  -17.5890  -30.0500   23.8530 C   0  0  0  0  0  3  0  0  0  0  0  0
  -16.5120  -29.2700   23.4140 C   0  0  0  0  0  3  0  0  0  0  0  0
  -16.7740  -28.0830   22.7550 C   0  0  0  0  0  3  0  0  0  0  0  0
  -25.7870  -32.5120   23.8530 C   0  0  0  0  0  3  0  0  0  0  0  0
  -25.4210  -33.8930   24.1640 N   0  0  0  0  0  0  0  0  0  0  0  0
  -25.7490  -34.9590   23.4210 C   0  0  0  0  0  0  0  0  0  0  0  0
  -26.4750  -34.8850   22.4280 O   0  0  0  0  0  0  0  0  0  0  0  0
  -24.7880  -34.0160   24.9380 H   0  0  0  0  0  0  0  0  0  0  0  0
  -23.9530  -36.6830   22.9780 C   0  0  0  0  0  1  0  0  0  0  0  0
  -25.1710  -36.3300   23.8470 C   0  0  0  0  0  3  0  0  0  0  0  0
  -27.2220  -37.3280   24.7740 C   0  0  0  0  0  1  0  0  0  0  0  0
  -26.1550  -37.4320   23.7850 N   0  0  0  0  0  0  0  0  0  0  0  0
  -25.6910  -38.3250   23.9160 H   0  0  0  0  0  0  0  0  0  0  0  0
  -26.2760  -31.7780   25.1580 C   0  0  1  0  0  0  0  0  0  0  0  0
  -25.1390  -31.4950   26.1740 C   0  0  0  0  0  1  0  0  0  0  0  0
  -26.9610  -30.4240   24.8440 C   0  0  0  0  0  1  0  0  0  0  0  0
  -27.3450  -32.6310   25.8930 C   0  0  0  0  0  1  0  0  0  0  0  0
  -27.5430  -22.5000   21.4970 C   0  0  0  0  0  2  0  0  0  0  0  0
  -27.5240  -21.5310   20.3240 C   0  0  0  0  0  2  0  0  0  0  0  0
  -28.8070  -20.7590   20.5480 C   0  0  0  0  0  2  0  0  0  0  0  0
  -29.2700  -20.1700   19.2920 C   0  0  0  0  0  2  0  0  0  0  0  0
  -31.2700  -15.0470   19.6160 C   0  0  0  0  0  0  0  0  0  0  0  0
  -31.1560  -12.6270   19.1170 C   0  0  0  0  0  2  0  0  0  0  0  0
  -30.2280  -12.3390   17.9150 C   0  0  0  0  0  2  0  0  0  0  0  0
  -28.7510  -12.2390   18.3570 C   0  0  0  0  0  2  0  0  0  0  0  0
  -28.3400  -13.4000   19.3010 C   0  0  0  0  0  3  0  0  0  0  0  0
  -29.3710  -13.5760   20.4360 C   0  0  0  0  0  2  0  0  0  0  0  0
  -30.6650  -13.8390   19.8020 N   0  0  0  0  0  0  0  0  0  0  0  0
  -32.4010  -15.1100   19.1240 O   0  0  0  0  0  0  0  0  0  0  0  0
  -29.6210  -16.6890   20.7110 C   0  0  0  0  0  2  0  0  0  0  0  0
  -30.8010  -17.1940   18.5910 C   0  0  0  0  0  2  0  0  0  0  0  0
  -29.3810  -18.2110   20.7150 C   0  0  0  0  0  2  0  0  0  0  0  0
  -29.6350  -18.0820   18.2080 C   0  0  0  0  0  2  0  0  0  0  0  0
  -30.4650  -16.1700   19.6030 N   0  0  0  0  0  0  0  0  0  0  0  0
  -29.0240  -18.7500   19.3730 N   0  0  2  0  0  4  0  0  0  0  0  0
  -28.0250  -18.6020   19.2860 H   0  0  0  0  0  0  0  0  0  0  0  0
  -26.0690  -14.2090   20.1600 C   0  0  0  0  0  0  0  0  0  0  0  0
  -24.9410  -13.5150   20.5800 C   0  0  0  0  0  0  0  0  0  0  0  0
  -25.2810  -12.1460   20.4890 C   0  0  0  0  0  0  0  0  0  0  0  0
  -26.9950  -13.2310   19.8370 N   0  0  0  0  0  0  0  0  0  0  0  0
  -26.5370  -11.9870   20.0940 N   0  0  0  0  0  0  0  0  0  0  0  0
  -24.4470  -10.9450   20.6980 C   0  0  0  0  0  0  0  0  0  0  0  0
  -24.8150   -9.9320   21.6100 C   0  0  0  0  0  3  0  0  0  0  0  0
  -23.9840   -8.8050   21.8010 C   0  0  0  0  0  3  0  0  0  0  0  0
  -22.7760   -8.6890   21.0790 C   0  0  0  0  0  0  0  0  0  0  0  0
  -22.4270   -9.6850   20.1540 C   0  0  0  0  0  3  0  0  0  0  0  0
  -23.2570  -10.8050   19.9610 C   0  0  0  0  0  3  0  0  0  0  0  0
  -21.9140   -7.6240   21.1940 O   0  0  0  0  0  0  0  0  0  0  0  0
  -21.7790   -6.9340   22.3700 C   0  0  0  0  0  0  0  0  0  0  0  0
  -21.3790   -7.5680   23.5670 C   0  0  0  0  0  3  0  0  0  0  0  0
  -21.1910   -6.8090   24.7380 C   0  0  0  0  0  3  0  0  0  0  0  0
  -21.3850   -5.4150   24.7120 C   0  0  0  0  0  0  0  0  0  0  0  0
  -21.7770   -4.7790   23.5210 C   0  0  0  0  0  3  0  0  0  0  0  0
  -21.9740   -5.5370   22.3540 C   0  0  0  0  0  0  0  0  0  0  0  0
  -22.3370   -4.9180   21.2030 F   0  0  0  0  0  0  0  0  0  0  0  0
  -21.1910   -4.6840   25.8330 F   0  0  0  0  0  0  0  0  0  0  0  0
  -23.6250  -14.1380   20.9250 C   0  0  0  0  0  0  0  0  0  0  0  0
  -22.8910  -13.5280   21.8710 N   0  0  0  0  0  0  0  0  0  0  0  0
  -23.2410  -15.1730   20.4070 O   0  0  0  0  0  0  0  0  0  0  0  0
  -23.2020  -12.6880   22.3260 H   0  0  0  0  0  0  0  0  0  0  0  0
  -22.0110  -13.9390   22.1420 H   0  0  0  0  0  0  0  0  0  0  0  0
  -26.3420  -15.5530   20.0050 N   0  0  0  0  0  0  0  0  0  0  0  0
  -25.5230  -16.1580   20.0490 H   0  0  0  0  0  0  0  0  0  0  0  0
  -26.9660  -15.8130   19.2430 H   0  0  0  0  0  0  0  0  0  0  0  0
  1 49  1  0
  1  3  1  0
  2  1  1  0
  4  6  1  0
  5  4  1  0
  6  1  1  0
  7  8  1  0
  7  5  1  0
  7  6  1  0
  9 20  2  0
 10  8  1  0
 10 15  1  0
 11 19  1  0
 11 21  1  0
 12 18  1  0
 12 14  1  0
 13 19  1  0
 14 15  2  0
 14 13  1  0
 16 17  1  0
 16 10  1  0
 17 12  2  0
 18 11  1  0
 19  9  1  0
 21 23  2  0
 22 21  1  0
 24 22  1  0
 25 34  2  0
 25 30  1  0
 26 22  1  0
 26 30  1  0
 27 26  1  0
 28 29  1  0
 28 27  1  0
 29 25  1  0
 30 31  2  0
 31 32  1  0
 33 32  2  0
 34 33  1  0
 35  9  1  0
 35 36  1  0
 35 45  1  0
 36 39  1  0
 37 41  1  0
 37 36  1  0
 38 37  2  0
 41 40  1  0
 43 41  1  0
 43 44  1  0
 43 42  1  0
 45 48  1  1
 45 46  1  0
 47 45  1  0
 50 51  1  0
 50 49  1  0
 52 66  1  0
 52 51  1  0
 53 59  1  0
 54 59  1  0
 55 56  1  0
 55 54  1  0
 57 56  1  0
 57 71  1  0
 57 58  1  0
 59 58  1  0
 60 53  2  0
 61 63  1  0
 62 65  1  0
 64 62  1  0
 64 66  1  0
 65 53  1  0
 65 61  1  0
 66 63  1  0
 66 67  1  6
 68 69  2  0
 69 88  1  0
 70 69  1  0
 70 73  1  0
 71 72  1  0
 71 68  1  0
 72 70  2  0
 73 74  1  0
 74 75  2  0
 76 79  1  0
 76 75  1  0
 77 76  2  0
 78 77  1  0
 78 73  2  0
 79 80  1  0
 80 81  1  0
 81 82  2  0
 83 82  1  0
 83 87  1  0
 84 83  2  0
 85 80  2  0
 85 84  1  0
 86 85  1  0
 88 89  1  0
 89 92  1  0
 89 91  1  0
 90 88  2  0
 93 94  1  0
 93 68  1  0
 95 93  1  0
M  ISO  4   7 101   8 101  53 100  65 100
M  END
>  <TORSDO>  (20) 
F 21

>  <SCORE>  (20) 
-12.933

>  <name>  (20) 
19

>  <ligand_id>  (20) 
19

>  <original_smiles>  (20) 
[H]c1c([H])c([H])c2c(c1[H])C([H])([H])C([H])([H])C([H])([H])C2([H])N([H])C(=O)C1([H])N(C(=O)C([H])(N([H])C(=O)C([H])(N([H])C([H])([H])[H])C([H])([H])[H])C(C([H])([H])[H])(C([H])([H])[H])C([H])([H])[H])C([H])([H])c2c([H])c(OC3([H])C([H])([H])C([H])([H])C3([H])[N+]([H])([H])C([H])([H])C([H])([H])C([H])([H])C([H])([H])[N+]3([H])C([H])([H])C([H])([H])N(C(=O)N4C([H])([H])C([H])([H])C([H])([H])C([H])(n5nc(-c6c([H])c([H])c(Oc7c([H])c([H])c(F)c([H])c7F)c([H])c6[H])c(C(=O)N([H])[H])c5N([H])[H])C4([H])[H])C([H])([H])C3([H])[H])c([H])c([H])c2C1([H])[H]

>  <smiles>  (20) 
[H]c1c([H])c([H])c2c(c1[H])C([H])([H])C([H])([H])C([H])([H])C2([H])N([H])C(=O)C1([H])N(C(=O)C([H])(N([H])C(=O)C([H])(N([H])C([H])([H])[H])C([H])([H])[H])C(C([H])([H])[H])(C([H])([H])[H])C([H])([H])[H])C([H])([H])c2c([H])c(OC3([H])C([H])([H])C([H])([H])C3([H])[N+]([H])([H])C([H])([H])C([H])([H])C([H])([H])C([H])([H])[N+]3([H])C([H])([H])C([H])([H])N(C(=O)N4C([H])([H])C([H])([H])C([H])([H])C([H])(n5nc(-c6c([H])c([H])c(Oc7c([H])c([H])c(F)c([H])c7F)c([H])c6[H])c(C(=O)N([H])[H])c5N([H])[H])C4([H])[H])C([H])([H])C3([H])[H])c([H])c([H])c2C1([H])[H]

$$$$
20:0:0
     RDKit          3D

 94103  0  0  1  0  0  0  0  0999 V2000
  -29.7340  -22.1550   21.7430 C   0  0  0  0  0  3  0  0  0  0  0  0
  -29.3980  -23.4950   21.6090 C   0  0  0  0  0  3  0  0  0  0  0  0
  -29.3460  -21.5160   20.5300 C   0  0  0  0  0  0  0  0  0  0  0  0
  -29.8140  -18.8890   21.1010 C   0  0  0  0  0  2  0  0  0  0  0  0
  -29.5490  -19.6140   18.8480 C   0  0  0  0  0  2  0  0  0  0  0  0
  -30.2670  -17.6190   20.1970 C   0  0  0  0  0  3  0  0  0  0  0  0
  -29.5380  -18.0510   18.8980 C   0  0  0  0  0  3  0  0  0  0  0  0
  -28.8120  -22.4760   19.7170 N   0  0  0  0  0  0  0  0  0  0  0  0
  -28.8180  -23.7240   20.3690 N   0  0  0  0  0  0  0  0  0  0  0  0
  -29.5140  -20.0920   20.2260 N   0  0  0  0  0  0  0  0  0  0  0  0
  -30.7490  -14.9730   20.3610 C   0  0  0  0  0  0  0  0  0  0  0  0
  -30.5590  -12.6810   19.3550 C   0  0  0  0  0  2  0  0  0  0  0  0
  -29.6240  -12.7340   18.1250 C   0  0  0  0  0  2  0  0  0  0  0  0
  -28.1560  -12.5480   18.5520 C   0  0  0  0  0  2  0  0  0  0  0  0
  -27.7720  -13.4280   19.7710 C   0  0  0  0  0  3  0  0  0  0  0  0
  -28.8320  -13.3630   20.8940 C   0  0  0  0  0  2  0  0  0  0  0  0
  -30.1230  -13.7400   20.3040 N   0  0  0  0  0  0  0  0  0  0  0  0
  -31.9240  -15.0620   19.9950 O   0  0  0  0  0  0  0  0  0  0  0  0
  -29.9930  -16.1330   20.5830 N   0  0  0  0  0  0  0  0  0  0  0  0
  -29.0610  -15.9570   20.9260 H   0  0  0  0  0  0  0  0  0  0  0  0
  -25.3830  -14.0000   20.5040 C   0  0  0  0  0  0  0  0  0  0  0  0
  -24.3200  -13.2200   20.8700 C   0  0  0  0  0  0  0  0  0  0  0  0
  -24.7880  -11.8720   20.8320 C   0  0  0  0  0  0  0  0  0  0  0  0
  -26.4300  -13.1260   20.2620 N   0  0  0  0  0  0  0  0  0  0  0  0
  -26.0810  -11.8400   20.5220 N   0  0  0  0  0  0  0  0  0  0  0  0
  -24.0640  -10.6060   21.0140 C   0  0  0  0  0  0  0  0  0  0  0  0
  -24.4850   -9.6420   21.9570 C   0  0  0  0  0  3  0  0  0  0  0  0
  -23.7610   -8.4440   22.1270 C   0  0  0  0  0  3  0  0  0  0  0  0
  -22.6010   -8.1980   21.3540 C   0  0  0  0  0  0  0  0  0  0  0  0
  -22.1990   -9.1500   20.4000 C   0  0  0  0  0  3  0  0  0  0  0  0
  -22.9250  -10.3410   20.2280 C   0  0  0  0  0  3  0  0  0  0  0  0
  -21.8500   -7.0500   21.4330 O   0  0  0  0  0  0  0  0  0  0  0  0
  -21.7670   -6.3230   22.5920 C   0  0  0  0  0  0  0  0  0  0  0  0
  -21.2540   -6.8790   23.7850 C   0  0  0  0  0  3  0  0  0  0  0  0
  -21.1200   -6.0760   24.9350 C   0  0  0  0  0  3  0  0  0  0  0  0
  -21.4890   -4.7190   24.8950 C   0  0  0  0  0  0  0  0  0  0  0  0
  -21.9940   -4.1620   23.7070 C   0  0  0  0  0  3  0  0  0  0  0  0
  -22.1300   -4.9610   22.5590 C   0  0  0  0  0  0  0  0  0  0  0  0
  -22.5980   -4.4150   21.4100 F   0  0  0  0  0  0  0  0  0  0  0  0
  -21.3530   -3.9460   25.9970 F   0  0  0  0  0  0  0  0  0  0  0  0
  -22.9220  -13.6930   21.1420 C   0  0  0  0  0  0  0  0  0  0  0  0
  -22.1930  -12.9910   22.0030 N   0  0  0  0  0  0  0  0  0  0  0  0
  -22.4830  -14.7210   20.6260 O   0  0  0  0  0  0  0  0  0  0  0  0
  -22.5600  -12.1590   22.4420 H   0  0  0  0  0  0  0  0  0  0  0  0
  -21.2560  -13.2920   22.2270 H   0  0  0  0  0  0  0  0  0  0  0  0
  -25.5400  -15.3730   20.3310 N   0  0  0  0  0  0  0  0  0  0  0  0
  -24.7620  -16.0150   20.4350 H   0  0  0  0  0  0  0  0  0  0  0  0
  -26.3700  -15.8150   19.9590 H   0  0  0  0  0  0  0  0  0  0  0  0
  -30.0720  -17.4290   17.6760 N   0  0  0  0  0  4  0  0  0  0  0  0
  -31.0320  -17.6800   17.5310 H   0  0  0  0  0  0  0  0  0  0  0  0
  -29.5410  -17.7310   16.8780 H   0  0  0  0  0  0  0  0  0  0  0  0
  -30.0100  -16.4300   17.7300 H   0  0  0  0  0  0  0  0  0  0  0  0
  -28.0770  -24.9530   19.7920 C   0  0  0  0  0  2  0  0  0  0  0  0
  -28.3240  -26.3510   20.2840 O   0  0  0  0  0  0  0  0  0  0  0  0
  -24.6000  -31.9360   23.2170 C   0  0  0  0  0  0  0  0  0  0  0  0
  -27.2570  -27.3070   20.1810 C   0  0  0  0  0  0  0  0  0  0  0  0
  -23.4210  -30.5210   21.5800 C   0  0  0  0  0  3  0  0  0  0  0  0
  -24.8950  -28.9850   20.1540 C   0  0  0  0  0  0  0  0  0  0  0  0
  -25.9680  -30.8380   21.4170 C   0  0  0  0  0  2  0  0  0  0  0  0
  -26.0630  -29.4510   20.7700 C   0  0  0  0  0  0  0  0  0  0  0  0
  -27.2420  -28.6230   20.7830 C   0  0  0  0  0  3  0  0  0  0  0  0
  -26.0700  -26.9550   19.4930 C   0  0  0  0  0  3  0  0  0  0  0  0
  -24.9080  -27.7470   19.5040 C   0  0  0  0  0  3  0  0  0  0  0  0
  -23.6510  -29.8520   20.2010 C   0  0  0  0  0  2  0  0  0  0  0  0
  -24.6830  -31.1170   22.1270 N   0  0  0  0  0  0  0  0  0  0  0  0
  -23.5090  -32.2060   23.7420 O   0  0  0  0  0  0  0  0  0  0  0  0
  -22.7620  -29.5010   22.5400 C   0  0  0  0  0  0  0  0  0  0  0  0
  -21.4370  -29.3110   22.4120 N   0  0  0  0  0  0  0  0  0  0  0  0
  -23.4430  -28.8820   23.3620 O   0  0  0  0  0  0  0  0  0  0  0  0
  -20.9440  -29.8630   21.7240 H   0  0  0  0  0  0  0  0  0  0  0  0
  -18.0630  -28.1000   22.9350 C   0  0  0  0  0  0  0  0  0  0  0  0
  -20.6240  -28.3660   23.1840 C   0  0  0  0  0  3  0  0  0  0  0  0
  -20.7240  -26.9380   22.5980 C   0  0  0  0  0  2  0  0  0  0  0  0
  -19.6140  -26.6200   21.5900 C   0  0  0  0  0  2  0  0  0  0  0  0
  -18.2380  -26.7570   22.2480 C   0  0  0  0  0  2  0  0  0  0  0  0
  -19.1850  -28.8630   23.3600 C   0  0  0  0  0  0  0  0  0  0  0  0
  -18.9660  -30.1200   23.9640 C   0  0  0  0  0  3  0  0  0  0  0  0
  -17.6610  -30.6140   24.1480 C   0  0  0  0  0  3  0  0  0  0  0  0
  -16.5550  -29.8490   23.7390 C   0  0  0  0  0  3  0  0  0  0  0  0
  -16.7580  -28.5940   23.1370 C   0  0  0  0  0  3  0  0  0  0  0  0
  -25.8700  -32.5900   23.8420 C   0  0  0  0  0  3  0  0  0  0  0  0
  -26.3840  -31.8320   25.1270 C   0  0  1  0  0  0  0  0  0  0  0  0
  -25.2850  -31.5810   26.1850 C   0  0  0  0  0  1  0  0  0  0  0  0
  -26.9940  -30.4610   24.7510 C   0  0  0  0  0  1  0  0  0  0  0  0
  -27.5160  -32.6470   25.7980 C   0  0  0  0  0  1  0  0  0  0  0  0
  -25.5390  -33.9860   24.1650 N   0  0  0  0  0  0  0  0  0  0  0  0
  -25.8680  -35.0430   23.4090 C   0  0  0  0  0  0  0  0  0  0  0  0
  -26.5490  -34.9440   22.3850 O   0  0  0  0  0  0  0  0  0  0  0  0
  -24.9350  -34.1360   24.9600 H   0  0  0  0  0  0  0  0  0  0  0  0
  -24.1410  -36.8310   23.0180 C   0  0  0  0  0  1  0  0  0  0  0  0
  -25.3620  -36.4270   23.8590 C   0  0  0  0  0  3  0  0  0  0  0  0
  -27.4650  -37.3270   24.7550 C   0  0  0  0  0  1  0  0  0  0  0  0
  -26.3920  -37.4860   23.7770 N   0  0  0  0  0  0  0  0  0  0  0  0
  -25.9750  -38.4050   23.9090 H   0  0  0  0  0  0  0  0  0  0  0  0
  2  1  2  0
  3  1  1  0
  5  7  1  0
  5 10  1  0
  6 19  1  0
  6  4  1  0
  7 49  1  0
  7  6  1  0
  8  9  1  0
  8  3  2  0
  9  2  1  0
 10  3  1  0
 10  4  1  0
 11 19  1  0
 12 17  1  0
 13 14  1  0
 13 12  1  0
 15 14  1  0
 15 24  1  0
 15 16  1  0
 17 11  1  0
 17 16  1  0
 18 11  2  0
 19 20  1  0
 21 22  2  0
 22 41  1  0
 23 22  1  0
 23 26  1  0
 24 21  1  0
 24 25  1  0
 25 23  2  0
 26 27  1  0
 27 28  2  0
 29 32  1  0
 29 28  1  0
 30 29  2  0
 31 30  1  0
 31 26  2  0
 32 33  1  0
 33 34  1  0
 34 35  2  0
 36 35  1  0
 36 40  1  0
 37 36  2  0
 38 33  2  0
 38 37  1  0
 39 38  1  0
 41 42  1  0
 42 45  1  0
 42 44  1  0
 43 41  2  0
 46 47  1  0
 46 21  1  0
 48 46  1  0
 49 52  1  0
 50 49  1  0
 51 49  1  0
 53 54  1  0
 53  9  1  0
 55 66  2  0
 56 54  1  0
 56 61  1  0
 57 65  1  0
 57 67  1  0
 58 64  1  0
 58 60  1  0
 59 65  1  0
 60 61  2  0
 60 59  1  0
 62 63  1  0
 62 56  2  0
 63 58  2  0
 64 57  1  0
 65 55  1  0
 67 69  2  0
 68 67  1  0
 70 68  1  0
 71 80  2  0
 71 76  1  0
 72 68  1  0
 72 76  1  0
 73 72  1  0
 74 75  1  0
 74 73  1  0
 75 71  1  0
 76 77  2  0
 77 78  1  0
 79 78  2  0
 80 79  1  0
 81 55  1  0
 81 86  1  0
 81 82  1  0
 82 85  1  1
 82 83  1  0
 84 82  1  0
 86 89  1  0
 87 91  1  0
 87 86  1  0
 88 87  2  0
 91 90  1  0
 93 91  1  0
 93 94  1  0
 93 92  1  0
M  ISO  4  11 100  19 100  53 101  54 101
M  END
>  <TORSDO>  (21) 
F 18

>  <SCORE>  (21) 
-14.913

>  <name>  (21) 
20

>  <ligand_id>  (21) 
20

>  <original_smiles>  (21) 
[H]c1c([H])c([H])c2c(c1[H])C([H])([H])C([H])([H])C([H])([H])C2([H])N([H])C(=O)C1([H])N(C(=O)C([H])(N([H])C(=O)C([H])(N([H])C([H])([H])[H])C([H])([H])[H])C(C([H])([H])[H])(C([H])([H])[H])C([H])([H])[H])C([H])([H])c2c([H])c(OC([H])([H])n3nc(N4C([H])([H])C([H])(N([H])C(=O)N5C([H])([H])C([H])([H])C([H])([H])C([H])(n6nc(-c7c([H])c([H])c(Oc8c([H])c([H])c(F)c([H])c8F)c([H])c7[H])c(C(=O)N([H])[H])c6N([H])[H])C5([H])[H])C([H])([N+]([H])([H])[H])C4([H])[H])c([H])c3[H])c([H])c([H])c2C1([H])[H]

>  <smiles>  (21) 
[H]c1c([H])c([H])c2c(c1[H])C([H])([H])C([H])([H])C([H])([H])C2([H])N([H])C(=O)C1([H])N(C(=O)C([H])(N([H])C(=O)C([H])(N([H])C([H])([H])[H])C([H])([H])[H])C(C([H])([H])[H])(C([H])([H])[H])C([H])([H])[H])C([H])([H])c2c([H])c(OC([H])([H])n3nc(N4C([H])([H])C([H])(N([H])C(=O)N5C([H])([H])C([H])([H])C([H])([H])C([H])(n6nc(-c7c([H])c([H])c(Oc8c([H])c([H])c(F)c([H])c8F)c([H])c7[H])c(C(=O)N([H])[H])c6N([H])[H])C5([H])[H])C([H])([N+]([H])([H])[H])C4([H])[H])c([H])c3[H])c([H])c([H])c2C1([H])[H]

$$$$
21:0:0
     RDKit          3D

 95104  0  0  1  0  0  0  0  0999 V2000
  -30.2060  -20.9710   18.9160 C   0  0  0  0  0  3  0  0  0  0  0  0
  -29.9860  -22.3030   18.9640 C   0  0  0  0  0  2  0  0  0  0  0  0
  -30.1450  -20.1630   20.0970 C   0  0  0  0  0  0  0  0  0  0  0  0
  -29.5620  -22.1360   21.2760 C   0  0  0  0  0  0  0  0  0  0  0  0
  -29.7850  -20.8490   21.2460 N   0  0  0  0  0  0  0  0  0  0  0  0
  -29.6830  -22.9670   20.1500 N   0  0  0  0  0  0  0  0  0  0  0  0
  -29.1950  -22.7470   22.4540 N   0  0  0  0  0  0  0  0  0  0  0  0
  -30.3850  -18.8860   20.1310 N   0  0  0  0  0  0  0  0  0  0  0  0
  -29.0910  -22.2560   23.3330 H   0  0  0  0  0  0  0  0  0  0  0  0
  -28.9960  -23.7330   22.5640 H   0  0  0  0  0  0  0  0  0  0  0  0
  -30.6570  -18.4590   19.2540 H   0  0  0  0  0  0  0  0  0  0  0  0
  -30.8410  -14.4720   20.0980 C   0  0  0  0  0  0  0  0  0  0  0  0
  -30.4370  -12.3560   18.8740 C   0  0  0  0  0  2  0  0  0  0  0  0
  -29.4190  -12.5790   17.7380 C   0  0  0  0  0  2  0  0  0  0  0  0
  -27.9760  -12.4140   18.2540 C   0  0  0  0  0  2  0  0  0  0  0  0
  -27.7220  -13.2040   19.5630 C   0  0  0  0  0  3  0  0  0  0  0  0
  -28.8530  -12.9330   20.5900 C   0  0  0  0  0  2  0  0  0  0  0  0
  -30.1210  -13.3140   19.9540 N   0  0  0  0  0  0  0  0  0  0  0  0
  -31.9580  -14.5730   19.5810 O   0  0  0  0  0  0  0  0  0  0  0  0
  -28.9280  -17.3960   21.5020 C   0  0  0  0  0  2  0  0  0  0  0  0
  -28.9450  -16.0460   20.7810 C   0  0  0  0  0  2  0  0  0  0  0  0
  -31.1900  -16.6940   21.1700 C   0  0  0  0  0  2  0  0  0  0  0  0
  -30.3200  -17.9710   21.3040 C   0  0  0  0  0  3  0  0  0  0  0  0
  -30.3300  -15.5450   20.7880 N   0  0  0  0  0  0  0  0  0  0  0  0
  -25.3750  -13.8240   20.4180 C   0  0  0  0  0  0  0  0  0  0  0  0
  -24.3220  -13.0540   20.8290 C   0  0  0  0  0  0  0  0  0  0  0  0
  -24.7690  -11.7000   20.7470 C   0  0  0  0  0  0  0  0  0  0  0  0
  -26.3980  -12.9370   20.1140 N   0  0  0  0  0  0  0  0  0  0  0  0
  -26.0390  -11.6540   20.3660 N   0  0  0  0  0  0  0  0  0  0  0  0
  -24.0460  -10.4390   20.9480 C   0  0  0  0  0  0  0  0  0  0  0  0
  -24.4960   -9.4720   21.8740 C   0  0  0  0  0  3  0  0  0  0  0  0
  -23.7740   -8.2740   22.0630 C   0  0  0  0  0  3  0  0  0  0  0  0
  -22.5900   -8.0360   21.3270 C   0  0  0  0  0  0  0  0  0  0  0  0
  -22.1590   -8.9920   20.3910 C   0  0  0  0  0  3  0  0  0  0  0  0
  -22.8800  -10.1810   20.2000 C   0  0  0  0  0  3  0  0  0  0  0  0
  -21.8370   -6.8900   21.4270 O   0  0  0  0  0  0  0  0  0  0  0  0
  -21.7690   -6.1750   22.5960 C   0  0  0  0  0  0  0  0  0  0  0  0
  -21.3060   -6.7550   23.7970 C   0  0  0  0  0  3  0  0  0  0  0  0
  -21.1860   -5.9660   24.9590 C   0  0  0  0  0  3  0  0  0  0  0  0
  -21.5160   -4.5990   24.9200 C   0  0  0  0  0  0  0  0  0  0  0  0
  -21.9710   -4.0180   23.7230 C   0  0  0  0  0  3  0  0  0  0  0  0
  -22.0950   -4.8040   22.5630 C   0  0  0  0  0  0  0  0  0  0  0  0
  -22.5150   -4.2360   21.4070 F   0  0  0  0  0  0  0  0  0  0  0  0
  -21.3920   -3.8380   26.0320 F   0  0  0  0  0  0  0  0  0  0  0  0
  -22.9460  -13.5370   21.1870 C   0  0  0  0  0  0  0  0  0  0  0  0
  -22.2600  -12.8280   22.0780 N   0  0  0  0  0  0  0  0  0  0  0  0
  -22.4880  -14.5770   20.7150 O   0  0  0  0  0  0  0  0  0  0  0  0
  -22.6440  -11.9880   22.4840 H   0  0  0  0  0  0  0  0  0  0  0  0
  -21.3400  -13.1350   22.3580 H   0  0  0  0  0  0  0  0  0  0  0  0
  -25.5380  -15.1960   20.2550 N   0  0  0  0  0  0  0  0  0  0  0  0
  -24.7800  -15.8510   20.4170 H   0  0  0  0  0  0  0  0  0  0  0  0
  -26.3640  -15.6320   19.8710 H   0  0  0  0  0  0  0  0  0  0  0  0
  -29.7350  -24.4450   20.2060 C   0  0  0  0  0  2  0  0  0  0  0  0
  -28.3610  -25.1490   20.0920 C   0  0  0  0  0  2  0  0  0  0  0  0
  -28.4600  -26.5870   20.2070 O   0  0  0  0  0  0  0  0  0  0  0  0
  -24.5730  -31.8030   23.1640 C   0  0  0  0  0  0  0  0  0  0  0  0
  -27.2820  -27.3190   20.1700 C   0  0  0  0  0  0  0  0  0  0  0  0
  -23.4020  -30.3840   21.5140 C   0  0  0  0  0  3  0  0  0  0  0  0
  -24.8840  -28.8390   20.1300 C   0  0  0  0  0  0  0  0  0  0  0  0
  -25.9340  -30.7420   21.3600 C   0  0  0  0  0  2  0  0  0  0  0  0
  -26.0340  -29.3650   20.7310 C   0  0  0  0  0  0  0  0  0  0  0  0
  -27.2370  -28.6160   20.7420 C   0  0  0  0  0  3  0  0  0  0  0  0
  -26.1050  -26.8130   19.5710 C   0  0  0  0  0  3  0  0  0  0  0  0
  -24.9160  -27.5620   19.5490 C   0  0  0  0  0  3  0  0  0  0  0  0
  -23.6400  -29.6970   20.1440 C   0  0  0  0  0  2  0  0  0  0  0  0
  -24.6540  -30.9920   22.0710 N   0  0  0  0  0  0  0  0  0  0  0  0
  -23.4810  -32.0780   23.6800 O   0  0  0  0  0  0  0  0  0  0  0  0
  -22.7360  -29.3680   22.4710 C   0  0  0  0  0  0  0  0  0  0  0  0
  -21.4140  -29.1830   22.3210 N   0  0  0  0  0  0  0  0  0  0  0  0
  -23.4050  -28.7500   23.3020 O   0  0  0  0  0  0  0  0  0  0  0  0
  -20.9340  -29.7310   21.6220 H   0  0  0  0  0  0  0  0  0  0  0  0
  -18.0330  -27.9860   22.7670 C   0  0  0  0  0  0  0  0  0  0  0  0
  -20.5850  -28.2500   23.0840 C   0  0  0  0  0  3  0  0  0  0  0  0
  -20.7010  -26.8150   22.5210 C   0  0  0  0  0  2  0  0  0  0  0  0
  -19.6180  -26.4820   21.4890 C   0  0  0  0  0  2  0  0  0  0  0  0
  -18.2250  -26.6310   22.1060 C   0  0  0  0  0  2  0  0  0  0  0  0
  -19.1430  -28.7520   23.2120 C   0  0  0  0  0  0  0  0  0  0  0  0
  -18.9120  -30.0210   23.7870 C   0  0  0  0  0  3  0  0  0  0  0  0
  -17.6040  -30.5230   23.9250 C   0  0  0  0  0  3  0  0  0  0  0  0
  -16.5080  -29.7530   23.4980 C   0  0  0  0  0  3  0  0  0  0  0  0
  -16.7240  -28.4870   22.9250 C   0  0  0  0  0  3  0  0  0  0  0  0
  -25.8450  -32.4450   23.8010 C   0  0  0  0  0  3  0  0  0  0  0  0
  -25.5160  -33.8330   24.1450 N   0  0  0  0  0  0  0  0  0  0  0  0
  -25.8420  -34.8990   23.4010 C   0  0  0  0  0  0  0  0  0  0  0  0
  -26.5250  -34.8160   22.3760 O   0  0  0  0  0  0  0  0  0  0  0  0
  -24.9100  -33.9720   24.9420 H   0  0  0  0  0  0  0  0  0  0  0  0
  -24.0980  -36.6750   23.0420 C   0  0  0  0  0  1  0  0  0  0  0  0
  -25.3300  -36.2750   23.8680 C   0  0  0  0  0  3  0  0  0  0  0  0
  -27.4380  -37.1760   24.7490 C   0  0  0  0  0  1  0  0  0  0  0  0
  -26.3530  -37.3410   23.7860 N   0  0  0  0  0  0  0  0  0  0  0  0
  -25.9330  -38.2550   23.9350 H   0  0  0  0  0  0  0  0  0  0  0  0
  -26.3650  -31.6640   25.0700 C   0  0  1  0  0  0  0  0  0  0  0  0
  -25.2690  -31.3940   26.1280 C   0  0  0  0  0  1  0  0  0  0  0  0
  -26.9730  -30.3020   24.6620 C   0  0  0  0  0  1  0  0  0  0  0  0
  -27.4990  -32.4670   25.7510 C   0  0  0  0  0  1  0  0  0  0  0  0
  1  2  1  0
  1  3  2  0
  2  6  1  0
  3  8  1  0
  3  5  1  0
  4  7  1  0
  5  4  2  0
  6 53  1  0
  6  4  1  0
  7 10  1  0
  7  9  1  0
 11  8  1  0
 12 24  1  0
 13 18  1  0
 14 15  1  0
 14 13  1  0
 16 15  1  0
 16 28  1  0
 16 17  1  0
 18 12  1  0
 18 17  1  0
 19 12  2  0
 21 24  1  0
 21 20  1  0
 22 23  1  0
 23  8  1  0
 23 20  1  0
 24 22  1  0
 25 26  2  0
 26 45  1  0
 27 26  1  0
 27 30  1  0
 28 29  1  0
 28 25  1  0
 29 27  2  0
 30 31  1  0
 31 32  2  0
 33 36  1  0
 33 32  1  0
 34 33  2  0
 35 34  1  0
 35 30  2  0
 36 37  1  0
 37 38  1  0
 38 39  2  0
 40 39  1  0
 40 44  1  0
 41 40  2  0
 42 37  2  0
 42 41  1  0
 43 42  1  0
 45 46  1  0
 46 49  1  0
 46 48  1  0
 47 45  2  0
 50 51  1  0
 50 25  1  0
 52 50  1  0
 54 53  1  0
 54 55  1  0
 56 67  2  0
 57 55  1  0
 57 62  1  0
 58 66  1  0
 58 68  1  0
 59 65  1  0
 59 61  1  0
 60 66  1  0
 61 62  2  0
 61 60  1  0
 63 57  2  0
 64 63  1  0
 64 59  2  0
 65 58  1  0
 66 56  1  0
 68 70  2  0
 69 68  1  0
 71 69  1  0
 72 81  2  0
 72 77  1  0
 73 69  1  0
 73 77  1  0
 74 73  1  0
 75 76  1  0
 75 74  1  0
 76 72  1  0
 77 78  2  0
 78 79  1  0
 80 79  2  0
 81 80  1  0
 82 56  1  0
 82 83  1  0
 82 92  1  0
 83 86  1  0
 84 88  1  0
 84 83  1  0
 85 84  2  0
 88 87  1  0
 90 88  1  0
 90 91  1  0
 90 89  1  0
 92 95  1  1
 92 93  1  0
 94 92  1  0
M  ISO  4  12 100  24 100  54 101  55 101
M  END
>  <TORSDO>  (22) 
F 18

>  <SCORE>  (22) 
-14.209

>  <name>  (22) 
21

>  <ligand_id>  (22) 
21

>  <original_smiles>  (22) 
[H]c1c([H])c([H])c2c(c1[H])C([H])([H])C([H])([H])C([H])([H])C2([H])N([H])C(=O)C1([H])N(C(=O)C([H])(N([H])C(=O)C([H])(N([H])C([H])([H])[H])C([H])([H])[H])C(C([H])([H])[H])(C([H])([H])[H])C([H])([H])[H])C([H])([H])c2c([H])c(OC([H])([H])C([H])([H])n3c(N([H])[H])nc(=[N+]([H])C4([H])C([H])([H])N(C(=O)N5C([H])([H])C([H])([H])C([H])([H])C([H])(n6nc(-c7c([H])c([H])c(Oc8c([H])c([H])c(F)c([H])c8F)c([H])c7[H])c(C(=O)N([H])[H])c6N([H])[H])C5([H])[H])C([H])([H])C4([H])[H])c([H])c3[H])c([H])c([H])c2C1([H])[H]

>  <smiles>  (22) 
[H]c1c([H])c([H])c2c(c1[H])C([H])([H])C([H])([H])C([H])([H])C2([H])N([H])C(=O)C1([H])N(C(=O)C([H])(N([H])C(=O)C([H])(N([H])C([H])([H])[H])C([H])([H])[H])C(C([H])([H])[H])(C([H])([H])[H])C([H])([H])[H])C([H])([H])c2c([H])c(OC([H])([H])C([H])([H])n3c(N([H])[H])nc(=[N+]([H])C4([H])C([H])([H])N(C(=O)N5C([H])([H])C([H])([H])C([H])([H])C([H])(n6nc(-c7c([H])c([H])c(Oc8c([H])c([H])c(F)c([H])c8F)c([H])c7[H])c(C(=O)N([H])[H])c6N([H])[H])C5([H])[H])C([H])([H])C4([H])[H])c([H])c3[H])c([H])c([H])c2C1([H])[H]

$$$$
22:0:0
     RDKit          3D

 90 99  0  0  1  0  0  0  0  0999 V2000
  -27.7050  -22.4880   20.6480 C   0  0  0  0  0  2  0  0  0  0  0  0
  -28.5330  -23.6330   20.4180 C   0  0  0  0  0  0  0  0  0  0  0  0
  -29.4240  -21.0250   20.1540 C   0  0  0  0  0  0  0  0  0  0  0  0
  -28.1430  -21.1870   20.5150 N   0  0  0  0  0  0  0  0  0  0  0  0
  -29.8190  -23.3680   20.0400 N   0  0  0  0  0  0  0  0  0  0  0  0
  -30.2470  -22.0790   19.9010 N   0  0  0  0  0  0  0  0  0  0  0  0
  -28.0640  -25.0980   20.8690 C   0  0  0  0  0  2  0  0  0  0  0  0
  -28.3900  -26.3980   20.1860 O   0  0  0  0  0  0  0  0  0  0  0  0
  -24.7030  -31.8800   23.2230 C   0  0  0  0  0  0  0  0  0  0  0  0
  -27.3270  -27.3250   20.1470 C   0  0  0  0  0  0  0  0  0  0  0  0
  -23.5020  -30.4770   21.5850 C   0  0  0  0  0  3  0  0  0  0  0  0
  -24.9650  -28.9480   20.1400 C   0  0  0  0  0  0  0  0  0  0  0  0
  -26.0410  -30.8130   21.3890 C   0  0  0  0  0  2  0  0  0  0  0  0
  -26.1340  -29.4340   20.7390 C   0  0  0  0  0  0  0  0  0  0  0  0
  -27.3250  -28.6350   20.7310 C   0  0  0  0  0  3  0  0  0  0  0  0
  -26.1430  -26.9110   19.5050 C   0  0  0  0  0  3  0  0  0  0  0  0
  -24.9760  -27.6960   19.5080 C   0  0  0  0  0  3  0  0  0  0  0  0
  -23.7170  -29.8080   20.2020 C   0  0  0  0  0  2  0  0  0  0  0  0
  -24.7690  -31.0740   22.1240 N   0  0  0  0  0  0  0  0  0  0  0  0
  -23.6200  -32.1470   23.7630 O   0  0  0  0  0  0  0  0  0  0  0  0
  -22.8520  -29.4540   22.5450 C   0  0  0  0  0  0  0  0  0  0  0  0
  -21.5250  -29.2750   22.4330 N   0  0  0  0  0  0  0  0  0  0  0  0
  -23.5400  -28.8260   23.3550 O   0  0  0  0  0  0  0  0  0  0  0  0
  -21.0290  -29.8360   21.7540 H   0  0  0  0  0  0  0  0  0  0  0  0
  -18.1580  -28.0500   22.9380 C   0  0  0  0  0  0  0  0  0  0  0  0
  -20.7160  -28.3270   23.2000 C   0  0  0  0  0  3  0  0  0  0  0  0
  -20.8280  -26.8980   22.6190 C   0  0  0  0  0  2  0  0  0  0  0  0
  -19.7240  -26.5700   21.6090 C   0  0  0  0  0  2  0  0  0  0  0  0
  -18.3410  -26.7040   22.2550 C   0  0  0  0  0  2  0  0  0  0  0  0
  -19.2730  -28.8190   23.3680 C   0  0  0  0  0  0  0  0  0  0  0  0
  -19.0480  -30.0790   23.9650 C   0  0  0  0  0  3  0  0  0  0  0  0
  -17.7400  -30.5710   24.1330 C   0  0  0  0  0  3  0  0  0  0  0  0
  -16.6390  -29.7960   23.7270 C   0  0  0  0  0  3  0  0  0  0  0  0
  -16.8490  -28.5370   23.1360 C   0  0  0  0  0  3  0  0  0  0  0  0
  -25.9820  -32.5230   23.8420 C   0  0  0  0  0  3  0  0  0  0  0  0
  -25.6660  -33.9200   24.1760 N   0  0  0  0  0  0  0  0  0  0  0  0
  -25.9920  -34.9760   23.4200 C   0  0  0  0  0  0  0  0  0  0  0  0
  -26.6600  -34.8800   22.3860 O   0  0  0  0  0  0  0  0  0  0  0  0
  -25.0880  -34.0730   24.9880 H   0  0  0  0  0  0  0  0  0  0  0  0
  -24.2540  -36.7610   23.0710 C   0  0  0  0  0  1  0  0  0  0  0  0
  -25.4970  -36.3610   23.8830 C   0  0  0  0  0  3  0  0  0  0  0  0
  -27.6270  -37.2520   24.7190 C   0  0  0  0  0  1  0  0  0  0  0  0
  -26.5220  -37.4190   23.7780 N   0  0  0  0  0  0  0  0  0  0  0  0
  -26.1090  -38.3340   23.9390 H   0  0  0  0  0  0  0  0  0  0  0  0
  -26.5130  -31.7540   25.1160 C   0  0  1  0  0  0  0  0  0  0  0  0
  -25.4260  -31.5000   26.1840 C   0  0  0  0  0  1  0  0  0  0  0  0
  -27.1110  -30.3850   24.7140 C   0  0  0  0  0  1  0  0  0  0  0  0
  -27.6570  -32.5610   25.7740 C   0  0  0  0  0  1  0  0  0  0  0  0
  -30.0050  -19.7620   20.0240 O   0  0  0  0  0  0  0  0  0  0  0  0
  -30.6920  -14.7870   19.9550 C   0  0  0  0  0  0  0  0  0  0  0  0
  -30.4630  -12.5380   18.8780 C   0  0  0  0  0  2  0  0  0  0  0  0
  -29.4400  -12.6380   17.7220 C   0  0  0  0  0  2  0  0  0  0  0  0
  -28.0040  -12.4370   18.2480 C   0  0  0  0  0  2  0  0  0  0  0  0
  -27.7130  -13.2870   19.5180 C   0  0  0  0  0  3  0  0  0  0  0  0
  -28.8440  -13.1340   20.5560 C   0  0  0  0  0  2  0  0  0  0  0  0
  -30.0840  -13.5480   19.8960 N   0  0  0  0  0  0  0  0  0  0  0  0
  -31.8210  -14.9180   19.4670 O   0  0  0  0  0  0  0  0  0  0  0  0
  -29.4310  -17.8570   21.6450 C   0  0  0  0  0  2  0  0  0  0  0  0
  -29.3370  -16.3070   21.5040 C   0  0  0  0  0  2  0  0  0  0  0  0
  -30.0100  -17.2240   19.4450 C   0  0  0  0  0  2  0  0  0  0  0  0
  -29.3470  -18.4410   20.2260 C   0  0  0  0  0  3  0  0  0  0  0  0
  -29.9070  -15.9210   20.1980 N   0  0  0  0  0  0  0  0  0  0  0  0
  -25.3790  -13.8560   20.4150 C   0  0  0  0  0  0  0  0  0  0  0  0
  -24.3430  -13.0700   20.8370 C   0  0  0  0  0  0  0  0  0  0  0  0
  -24.8070  -11.7210   20.7440 C   0  0  0  0  0  0  0  0  0  0  0  0
  -26.4060  -12.9860   20.0880 N   0  0  0  0  0  0  0  0  0  0  0  0
  -26.0720  -11.6940   20.3450 N   0  0  0  0  0  0  0  0  0  0  0  0
  -24.1010  -10.4510   20.9600 C   0  0  0  0  0  0  0  0  0  0  0  0
  -24.5530   -9.5050   21.9060 C   0  0  0  0  0  3  0  0  0  0  0  0
  -23.8480   -8.3000   22.1060 C   0  0  0  0  0  3  0  0  0  0  0  0
  -22.6740   -8.0310   21.3610 C   0  0  0  0  0  0  0  0  0  0  0  0
  -22.2410   -8.9660   20.4050 C   0  0  0  0  0  3  0  0  0  0  0  0
  -22.9490  -10.1630   20.2030 C   0  0  0  0  0  3  0  0  0  0  0  0
  -21.9380   -6.8760   21.4700 O   0  0  0  0  0  0  0  0  0  0  0  0
  -21.8390   -6.1940   22.6570 C   0  0  0  0  0  0  0  0  0  0  0  0
  -21.3390   -6.8050   23.8270 C   0  0  0  0  0  3  0  0  0  0  0  0
  -21.1900   -6.0500   25.0060 C   0  0  0  0  0  3  0  0  0  0  0  0
  -21.5290   -4.6830   25.0170 C   0  0  0  0  0  0  0  0  0  0  0  0
  -22.0200   -4.0710   23.8500 C   0  0  0  0  0  3  0  0  0  0  0  0
  -22.1730   -4.8260   22.6720 C   0  0  0  0  0  0  0  0  0  0  0  0
  -22.6280   -4.2260   21.5450 F   0  0  0  0  0  0  0  0  0  0  0  0
  -21.3790   -3.9550   26.1480 F   0  0  0  0  0  0  0  0  0  0  0  0
  -22.9670  -13.5330   21.2200 C   0  0  0  0  0  0  0  0  0  0  0  0
  -22.3120  -12.8210   22.1310 N   0  0  0  0  0  0  0  0  0  0  0  0
  -22.4830  -14.5610   20.7480 O   0  0  0  0  0  0  0  0  0  0  0  0
  -22.7190  -11.9900   22.5370 H   0  0  0  0  0  0  0  0  0  0  0  0
  -21.3930  -13.1110   22.4300 H   0  0  0  0  0  0  0  0  0  0  0  0
  -25.5320  -15.2320   20.2620 N   0  0  0  0  0  0  0  0  0  0  0  0
  -24.7860  -15.8890   20.4670 H   0  0  0  0  0  0  0  0  0  0  0  0
  -26.3740  -15.6790   19.9230 H   0  0  0  0  0  0  0  0  0  0  0  0
  2  1  1  0
  2  7  1  0
  3  4  2  0
  4  1  1  0
  5  2  2  0
  6  5  1  0
  6  3  2  0
  8  7  1  0
  9 20  2  0
 10  8  1  0
 10 15  1  0
 11 19  1  0
 11 21  1  0
 12 18  1  0
 12 14  1  0
 13 19  1  0
 14 13  1  0
 15 14  2  0
 16 17  1  0
 16 10  2  0
 17 12  2  0
 18 11  1  0
 19  9  1  0
 21 23  2  0
 22 21  1  0
 24 22  1  0
 25 34  2  0
 25 30  1  0
 26 22  1  0
 26 30  1  0
 27 26  1  0
 28 29  1  0
 28 27  1  0
 29 25  1  0
 30 31  2  0
 31 32  1  0
 33 32  2  0
 34 33  1  0
 35  9  1  0
 35 36  1  0
 35 45  1  0
 36 39  1  0
 37 41  1  0
 37 36  1  0
 38 37  2  0
 41 40  1  0
 43 41  1  0
 43 44  1  0
 43 42  1  0
 45 48  1  1
 45 46  1  0
 47 45  1  0
 49  3  1  0
 50 62  1  0
 51 56  1  0
 52 53  1  0
 52 51  1  0
 54 53  1  0
 54 66  1  0
 54 55  1  0
 56 50  1  0
 56 55  1  0
 57 50  2  0
 59 58  1  0
 60 62  1  0
 60 61  1  0
 61 49  1  0
 61 58  1  0
 62 59  1  0
 63 64  2  0
 64 83  1  0
 65 64  1  0
 65 68  1  0
 66 67  1  0
 66 63  1  0
 67 65  2  0
 68 69  1  0
 69 70  2  0
 71 74  1  0
 71 70  1  0
 72 71  2  0
 73 72  1  0
 73 68  2  0
 74 75  1  0
 75 80  2  0
 75 76  1  0
 76 77  2  0
 77 78  1  0
 78 82  1  0
 79 78  2  0
 80 79  1  0
 81 80  1  0
 83 84  1  0
 84 87  1  0
 84 86  1  0
 85 83  2  0
 88 63  1  0
 88 89  1  0
 90 88  1  0
M  ISO  4   7 101   8 101  50 100  62 100
M  END
>  <TORSDO>  (23) 
F 18

>  <SCORE>  (23) 
-13.767

>  <name>  (23) 
22

>  <ligand_id>  (23) 
22

>  <original_smiles>  (23) 
[H]c1nc(OC2([H])C([H])([H])N(C(=O)N3C([H])([H])C([H])([H])C([H])([H])C([H])(n4nc(-c5c([H])c([H])c(Oc6c([H])c([H])c(F)c([H])c6F)c([H])c5[H])c(C(=O)N([H])[H])c4N([H])[H])C3([H])[H])C([H])([H])C2([H])[H])nnc1C([H])([H])Oc1c([H])c([H])c2c(c1[H])C([H])([H])N(C(=O)C([H])(N([H])C(=O)C([H])(N([H])C([H])([H])[H])C([H])([H])[H])C(C([H])([H])[H])(C([H])([H])[H])C([H])([H])[H])C([H])(C(=O)N([H])C1([H])c3c([H])c([H])c([H])c([H])c3C([H])([H])C([H])([H])C1([H])[H])C2([H])[H]

>  <smiles>  (23) 
[H]c1nc(OC2([H])C([H])([H])N(C(=O)N3C([H])([H])C([H])([H])C([H])([H])C([H])(n4nc(-c5c([H])c([H])c(Oc6c([H])c([H])c(F)c([H])c6F)c([H])c5[H])c(C(=O)N([H])[H])c4N([H])[H])C3([H])[H])C([H])([H])C2([H])[H])nnc1C([H])([H])Oc1c([H])c([H])c2c(c1[H])C([H])([H])N(C(=O)C([H])(N([H])C(=O)C([H])(N([H])C([H])([H])[H])C([H])([H])[H])C(C([H])([H])[H])(C([H])([H])[H])C([H])([H])[H])C([H])(C(=O)N([H])C1([H])c3c([H])c([H])c([H])c([H])c3C([H])([H])C([H])([H])C1([H])[H])C2([H])[H]

$$$$
23:0:0
     RDKit          3D

 93103  0  0  1  0  0  0  0  0999 V2000
  -27.5500  -20.3340   19.2640 C   0  0  0  0  0  3  0  0  0  0  0  0
  -26.8770  -21.4280   18.6790 C   0  0  0  0  0  0  0  0  0  0  0  0
  -28.6620  -20.8460   19.8850 C   0  0  0  0  0  0  0  0  0  0  0  0
  -27.4940  -22.5570   18.9240 N   0  0  0  0  0  0  0  0  0  0  0  0
  -28.5790  -22.3180   19.7000 N   0  0  0  0  0  0  0  0  0  0  0  0
  -29.0790  -18.8400   21.4170 C   0  0  0  0  0  2  0  0  0  0  0  0
  -30.1130  -18.7610   19.7030 C   0  0  0  0  0  2  0  0  0  0  0  0
  -30.1830  -17.8180   20.9570 C   0  0  0  0  0  3  0  0  0  0  0  0
  -29.6450  -19.9210   20.5410 N   0  0  0  0  0  0  0  0  0  0  0  0
  -30.6000  -15.1770   20.5420 C   0  0  0  0  0  0  0  0  0  0  0  0
  -30.4510  -12.9560   19.3630 C   0  0  0  0  0  2  0  0  0  0  0  0
  -29.5170  -13.0770   18.1370 C   0  0  0  0  0  2  0  0  0  0  0  0
  -28.0490  -12.8470   18.5450 C   0  0  0  0  0  2  0  0  0  0  0  0
  -27.6540  -13.6430   19.8170 C   0  0  0  0  0  3  0  0  0  0  0  0
  -28.7080  -13.5060   20.9360 C   0  0  0  0  0  2  0  0  0  0  0  0
  -29.9930  -13.9430   20.3760 N   0  0  0  0  0  0  0  0  0  0  0  0
  -31.7940  -15.2920   20.2450 O   0  0  0  0  0  0  0  0  0  0  0  0
  -29.8220  -16.3070   20.8400 N   0  0  0  0  0  0  0  0  0  0  0  0
  -28.8540  -16.0930   21.0280 H   0  0  0  0  0  0  0  0  0  0  0  0
  -25.2490  -14.1550   20.5390 C   0  0  0  0  0  0  0  0  0  0  0  0
  -24.1930  -13.3470   20.8580 C   0  0  0  0  0  0  0  0  0  0  0  0
  -24.6820  -12.0070   20.7790 C   0  0  0  0  0  0  0  0  0  0  0  0
  -26.3120  -13.3050   20.2790 N   0  0  0  0  0  0  0  0  0  0  0  0
  -25.9780  -12.0060   20.4890 N   0  0  0  0  0  0  0  0  0  0  0  0
  -23.9760  -10.7260   20.9060 C   0  0  0  0  0  0  0  0  0  0  0  0
  -24.4500   -9.7040   21.7590 C   0  0  0  0  0  3  0  0  0  0  0  0
  -23.7440   -8.4870   21.8810 C   0  0  0  0  0  3  0  0  0  0  0  0
  -22.5480   -8.2840   21.1510 C   0  0  0  0  0  0  0  0  0  0  0  0
  -22.0930   -9.2960   20.2870 C   0  0  0  0  0  3  0  0  0  0  0  0
  -22.8000  -10.5040   20.1640 C   0  0  0  0  0  3  0  0  0  0  0  0
  -21.8120   -7.1240   21.1860 O   0  0  0  0  0  0  0  0  0  0  0  0
  -21.8680   -6.2670   22.2560 C   0  0  0  0  0  0  0  0  0  0  0  0
  -21.5690   -6.6940   23.5680 C   0  0  0  0  0  3  0  0  0  0  0  0
  -21.5710   -5.7650   24.6270 C   0  0  0  0  0  3  0  0  0  0  0  0
  -21.8620   -4.4110   24.3760 C   0  0  0  0  0  0  0  0  0  0  0  0
  -22.1540   -3.9840   23.0690 C   0  0  0  0  0  3  0  0  0  0  0  0
  -22.1550   -4.9100   22.0110 C   0  0  0  0  0  0  0  0  0  0  0  0
  -22.4160   -4.4890   20.7500 F   0  0  0  0  0  0  0  0  0  0  0  0
  -21.8570   -3.5170   25.3920 F   0  0  0  0  0  0  0  0  0  0  0  0
  -22.7830  -13.7890   21.1220 C   0  0  0  0  0  0  0  0  0  0  0  0
  -22.0630  -13.0660   21.9730 N   0  0  0  0  0  0  0  0  0  0  0  0
  -22.3280  -14.8110   20.6100 O   0  0  0  0  0  0  0  0  0  0  0  0
  -22.4430  -12.2400   22.4100 H   0  0  0  0  0  0  0  0  0  0  0  0
  -21.1170  -13.3440   22.1880 H   0  0  0  0  0  0  0  0  0  0  0  0
  -25.3930  -15.5340   20.4240 N   0  0  0  0  0  0  0  0  0  0  0  0
  -24.6170  -16.1700   20.5700 H   0  0  0  0  0  0  0  0  0  0  0  0
  -26.2350  -16.0030   20.1220 H   0  0  0  0  0  0  0  0  0  0  0  0
  -24.8310  -22.7040   17.6350 C   0  0  0  0  0  2  0  0  0  0  0  0
  -24.2730  -21.5760   18.4630 C   0  0  0  0  0  2  0  0  0  0  0  0
  -25.6380  -21.4350   17.8260 C   0  0  0  0  0  3  0  0  0  0  0  0
  -29.2700  -23.6660   20.0530 C   0  0  0  0  0  3  0  0  0  0  0  0
  -28.4010  -25.0690   19.7650 C   0  0  0  0  0  3  0  0  0  0  0  0
  -28.6920  -26.5470   20.0650 O   0  0  0  0  0  0  0  0  0  0  0  0
  -24.8300  -31.8360   23.3720 C   0  0  0  0  0  0  0  0  0  0  0  0
  -27.6060  -27.4860   20.0450 C   0  0  0  0  0  0  0  0  0  0  0  0
  -23.7090  -30.5560   21.5860 C   0  0  0  0  0  3  0  0  0  0  0  0
  -25.2330  -29.1470   20.0840 C   0  0  0  0  0  0  0  0  0  0  0  0
  -26.2550  -30.9020   21.5220 C   0  0  0  0  0  2  0  0  0  0  0  0
  -26.3820  -29.5740   20.7630 C   0  0  0  0  0  0  0  0  0  0  0  0
  -27.5720  -28.7590   20.7310 C   0  0  0  0  0  3  0  0  0  0  0  0
  -26.4270  -27.1550   19.3360 C   0  0  0  0  0  3  0  0  0  0  0  0
  -25.2670  -27.9510   19.3550 C   0  0  0  0  0  3  0  0  0  0  0  0
  -23.9830  -30.0030   20.1640 C   0  0  0  0  0  2  0  0  0  0  0  0
  -24.9490  -31.1140   22.2180 N   0  0  0  0  0  0  0  0  0  0  0  0
  -23.7230  -32.0530   23.8890 O   0  0  0  0  0  0  0  0  0  0  0  0
  -23.0290  -29.4560   22.4380 C   0  0  0  0  0  0  0  0  0  0  0  0
  -21.7090  -29.2700   22.2550 N   0  0  0  0  0  0  0  0  0  0  0  0
  -23.6900  -28.7760   23.2290 O   0  0  0  0  0  0  0  0  0  0  0  0
  -21.2320  -29.8760   21.6030 H   0  0  0  0  0  0  0  0  0  0  0  0
  -18.3370  -27.9840   22.5540 C   0  0  0  0  0  0  0  0  0  0  0  0
  -20.8830  -28.2580   22.9190 C   0  0  0  0  0  3  0  0  0  0  0  0
  -21.0240  -26.8820   22.2270 C   0  0  0  0  0  2  0  0  0  0  0  0
  -19.9560  -26.6310   21.1580 C   0  0  0  0  0  2  0  0  0  0  0  0
  -18.5540  -26.7010   21.7710 C   0  0  0  0  0  2  0  0  0  0  0  0
  -19.4300  -28.7240   23.0790 C   0  0  0  0  0  0  0  0  0  0  0  0
  -19.1720  -29.9290   23.7680 C   0  0  0  0  0  3  0  0  0  0  0  0
  -17.8540  -30.3940   23.9380 C   0  0  0  0  0  3  0  0  0  0  0  0
  -16.7740  -29.6490   23.4300 C   0  0  0  0  0  3  0  0  0  0  0  0
  -17.0180  -28.4460   22.7450 C   0  0  0  0  0  3  0  0  0  0  0  0
  -26.0760  -32.4400   24.0900 C   0  0  0  0  0  3  0  0  0  0  0  0
  -26.5050  -31.6300   25.3750 C   0  0  1  0  0  0  0  0  0  0  0  0
  -25.3450  -31.3720   26.3650 C   0  0  0  0  0  1  0  0  0  0  0  0
  -27.1030  -30.2600   24.9840 C   0  0  0  0  0  1  0  0  0  0  0  0
  -27.6150  -32.3970   26.1320 C   0  0  0  0  0  1  0  0  0  0  0  0
  -25.7600  -33.8310   24.4430 N   0  0  0  0  0  0  0  0  0  0  0  0
  -26.1370  -34.9040   23.7350 C   0  0  0  0  0  0  0  0  0  0  0  0
  -26.8570  -34.8260   22.7360 O   0  0  0  0  0  0  0  0  0  0  0  0
  -25.1370  -33.9690   25.2250 H   0  0  0  0  0  0  0  0  0  0  0  0
  -24.4480  -36.7260   23.3440 C   0  0  0  0  0  1  0  0  0  0  0  0
  -25.6380  -36.2820   24.2100 C   0  0  0  0  0  3  0  0  0  0  0  0
  -27.7280  -37.1220   25.1900 C   0  0  0  0  0  1  0  0  0  0  0  0
  -26.6830  -37.3300   24.1890 N   0  0  0  0  0  0  0  0  0  0  0  0
  -26.2760  -38.2480   24.3420 H   0  0  0  0  0  0  0  0  0  0  0  0
  1  3  2  0
  2  4  2  0
  2  1  1  0
  3  9  1  0
  4  5  1  0
  5  3  1  0
  5 51  1  0
  7  9  1  0
  7  8  1  0
  8 18  1  0
  8  6  1  0
  9  6  1  0
 10 18  1  0
 11 16  1  0
 12 13  1  0
 12 11  1  0
 14 13  1  0
 14 23  1  0
 14 15  1  0
 16 10  1  0
 16 15  1  0
 17 10  2  0
 18 19  1  0
 20 21  2  0
 21 40  1  0
 22 21  1  0
 22 25  1  0
 23 24  1  0
 23 20  1  0
 24 22  2  0
 25 26  1  0
 26 27  2  0
 28 31  1  0
 28 27  1  0
 29 28  2  0
 30 29  1  0
 30 25  2  0
 31 32  1  0
 32 33  1  0
 33 34  2  0
 35 34  1  0
 35 39  1  0
 36 35  2  0
 37 32  2  0
 37 36  1  0
 38 37  1  0
 40 41  1  0
 41 44  1  0
 41 43  1  0
 42 40  2  0
 45 20  1  0
 45 46  1  0
 47 45  1  0
 48 50  1  0
 48 49  1  0
 50 49  1  0
 50  2  1  0
 52 51  2  0
 52 53  1  0
 54 65  2  0
 55 53  1  0
 55 60  1  0
 56 64  1  0
 56 66  1  0
 57 63  1  0
 57 59  1  0
 58 64  1  0
 59 58  1  0
 60 59  2  0
 61 62  1  0
 61 55  2  0
 62 57  2  0
 63 56  1  0
 64 54  1  0
 66 68  2  0
 67 66  1  0
 69 67  1  0
 70 79  2  0
 70 75  1  0
 71 67  1  0
 71 75  1  0
 72 71  1  0
 73 74  1  0
 73 72  1  0
 74 70  1  0
 75 76  2  0
 76 77  1  0
 78 77  2  0
 79 78  1  0
 80 54  1  0
 80 85  1  0
 80 81  1  0
 81 84  1  1
 81 82  1  0
 83 81  1  0
 85 88  1  0
 86 90  1  0
 86 85  1  0
 87 86  2  0
 90 89  1  0
 92 90  1  0
 92 93  1  0
 92 91  1  0
M  ISO  4  10 100  18 100  52 101  53 101
M  END
>  <TORSDO>  (24) 
F 20

>  <SCORE>  (24) 
-12.627

>  <name>  (24) 
23

>  <ligand_id>  (24) 
23

>  <original_smiles>  (24) 
[H]c1c([H])c([H])c2c(c1[H])C([H])([H])C([H])([H])C([H])([H])C2([H])N([H])C(=O)C1([H])N(C(=O)C([H])(N([H])C(=O)C([H])(N([H])C([H])([H])[H])C([H])([H])[H])C(C([H])([H])[H])(C([H])([H])[H])C([H])([H])[H])C([H])([H])c2c([H])c(OC([H])([H])C([H])([H])n3nc(C4([H])C([H])([H])C4([H])[H])c([H])c3N3C([H])([H])C([H])(N([H])C(=O)N4C([H])([H])C([H])([H])C([H])([H])C([H])(n5nc(-c6c([H])c([H])c(Oc7c([H])c([H])c(F)c([H])c7F)c([H])c6[H])c(C(=O)N([H])[H])c5N([H])[H])C4([H])[H])C3([H])[H])c([H])c([H])c2C1([H])[H]

>  <smiles>  (24) 
[H]c1c([H])c([H])c2c(c1[H])C([H])([H])C([H])([H])C([H])([H])C2([H])N([H])C(=O)C1([H])N(C(=O)C([H])(N([H])C(=O)C([H])(N([H])C([H])([H])[H])C([H])([H])[H])C(C([H])([H])[H])(C([H])([H])[H])C([H])([H])[H])C([H])([H])c2c([H])c(OC([H])([H])C([H])([H])n3nc(C4([H])C([H])([H])C4([H])[H])c([H])c3N3C([H])([H])C([H])(N([H])C(=O)N4C([H])([H])C([H])([H])C([H])([H])C([H])(n5nc(-c6c([H])c([H])c(Oc7c([H])c([H])c(F)c([H])c7F)c([H])c6[H])c(C(=O)N([H])[H])c5N([H])[H])C4([H])[H])C3([H])[H])c([H])c([H])c2C1([H])[H]

$$$$
24:0:0
     RDKit          3D

 94103  0  0  1  0  0  0  0  0999 V2000
  -31.3190  -22.3720   19.8170 C   0  0  0  0  0  2  0  0  0  0  0  0
  -30.7910  -20.9810   19.3910 C   0  0  0  0  0  2  0  0  0  0  0  0
  -28.5680  -21.6960   20.1210 C   0  0  0  0  0  2  0  0  0  0  0  0
  -29.0040  -23.3170   20.3420 C   0  0  0  0  0  3  0  0  0  0  0  0
  -30.3240  -23.5320   19.5620 C   0  0  0  0  0  3  0  0  0  0  0  0
  -29.6360  -20.5260   20.2140 N   0  0  1  0  0  4  0  0  0  0  0  0
  -29.9410  -20.5290   21.1760 H   0  0  0  0  0  0  0  0  0  0  0  0
  -30.9430  -24.8340   19.8970 N   0  0  0  0  0  4  0  0  0  0  0  0
  -31.2440  -24.8670   20.8550 H   0  0  0  0  0  0  0  0  0  0  0  0
  -30.2840  -25.5830   19.7540 H   0  0  0  0  0  0  0  0  0  0  0  0
  -31.7400  -25.0130   19.3120 H   0  0  0  0  0  0  0  0  0  0  0  0
  -27.9660  -24.6250   20.0650 C   0  0  0  0  0  2  0  0  0  0  0  0
  -28.2450  -26.1450   20.2770 O   0  0  0  0  0  0  0  0  0  0  0  0
  -24.6240  -31.8420   23.2440 C   0  0  0  0  0  0  0  0  0  0  0  0
  -27.1930  -27.1330   20.2060 C   0  0  0  0  0  0  0  0  0  0  0  0
  -23.4240  -30.4580   21.5960 C   0  0  0  0  0  3  0  0  0  0  0  0
  -24.8710  -28.8840   20.1700 C   0  0  0  0  0  0  0  0  0  0  0  0
  -25.9790  -30.7140   21.4420 C   0  0  0  0  0  2  0  0  0  0  0  0
  -26.0500  -29.3250   20.7830 C   0  0  0  0  0  0  0  0  0  0  0  0
  -27.2120  -28.4670   20.7830 C   0  0  0  0  0  3  0  0  0  0  0  0
  -25.9870  -26.7930   19.5540 C   0  0  0  0  0  3  0  0  0  0  0  0
  -24.8520  -27.6310   19.5400 C   0  0  0  0  0  3  0  0  0  0  0  0
  -23.6470  -29.7850   20.2160 C   0  0  0  0  0  2  0  0  0  0  0  0
  -24.6960  -31.0260   22.1480 N   0  0  0  0  0  0  0  0  0  0  0  0
  -23.5370  -32.1290   23.7690 O   0  0  0  0  0  0  0  0  0  0  0  0
  -22.7390  -29.4480   22.5520 C   0  0  0  0  0  0  0  0  0  0  0  0
  -21.4100  -29.2870   22.4220 N   0  0  0  0  0  0  0  0  0  0  0  0
  -23.4050  -28.8140   23.3740 O   0  0  0  0  0  0  0  0  0  0  0  0
  -20.9280  -29.8490   21.7350 H   0  0  0  0  0  0  0  0  0  0  0  0
  -18.0190  -28.1130   22.9210 C   0  0  0  0  0  0  0  0  0  0  0  0
  -20.5800  -28.3520   23.1890 C   0  0  0  0  0  3  0  0  0  0  0  0
  -20.6700  -26.9230   22.6060 C   0  0  0  0  0  2  0  0  0  0  0  0
  -19.5650  -26.6140   21.5910 C   0  0  0  0  0  2  0  0  0  0  0  0
  -18.1850  -26.7660   22.2350 C   0  0  0  0  0  2  0  0  0  0  0  0
  -19.1430  -28.8640   23.3540 C   0  0  0  0  0  0  0  0  0  0  0  0
  -18.9340  -30.1230   23.9570 C   0  0  0  0  0  3  0  0  0  0  0  0
  -17.6330  -30.6320   24.1280 C   0  0  0  0  0  3  0  0  0  0  0  0
  -16.5230  -29.8780   23.7100 C   0  0  0  0  0  3  0  0  0  0  0  0
  -16.7160  -28.6190   23.1120 C   0  0  0  0  0  3  0  0  0  0  0  0
  -25.9030  -32.4700   23.8780 C   0  0  0  0  0  3  0  0  0  0  0  0
  -26.4030  -31.6960   25.1600 C   0  0  1  0  0  0  0  0  0  0  0  0
  -25.2990  -31.4660   26.2190 C   0  0  0  0  0  1  0  0  0  0  0  0
  -26.9810  -30.3150   24.7770 C   0  0  0  0  0  1  0  0  0  0  0  0
  -27.5530  -32.4840   25.8300 C   0  0  0  0  0  1  0  0  0  0  0  0
  -25.5940  -33.8700   24.2130 N   0  0  0  0  0  0  0  0  0  0  0  0
  -25.9140  -34.9260   23.4530 C   0  0  0  0  0  0  0  0  0  0  0  0
  -26.5660  -34.8250   22.4110 O   0  0  0  0  0  0  0  0  0  0  0  0
  -25.0120  -34.0220   25.0240 H   0  0  0  0  0  0  0  0  0  0  0  0
  -24.1720  -36.7170   23.1490 C   0  0  0  0  0  1  0  0  0  0  0  0
  -25.4380  -36.3150   23.9230 C   0  0  0  0  0  3  0  0  0  0  0  0
  -27.5910  -37.2100   24.6930 C   0  0  0  0  0  1  0  0  0  0  0  0
  -26.4640  -37.3710   23.7780 N   0  0  0  0  0  0  0  0  0  0  0  0
  -26.0590  -38.2910   23.9320 H   0  0  0  0  0  0  0  0  0  0  0  0
  -29.2700  -18.9900   19.9360 C   0  0  0  0  0  2  0  0  0  0  0  0
  -30.5710  -14.9290   20.0640 C   0  0  0  0  0  0  0  0  0  0  0  0
  -30.3600  -12.5940   19.0870 C   0  0  0  0  0  2  0  0  0  0  0  0
  -29.3760  -12.5560   17.8960 C   0  0  0  0  0  2  0  0  0  0  0  0
  -27.9330  -12.3570   18.3960 C   0  0  0  0  0  2  0  0  0  0  0  0
  -27.5830  -13.2870   19.5880 C   0  0  0  0  0  3  0  0  0  0  0  0
  -28.6860  -13.2950   20.6670 C   0  0  0  0  0  2  0  0  0  0  0  0
  -29.9290  -13.6950   19.9950 N   0  0  0  0  0  0  0  0  0  0  0  0
  -31.7600  -14.9430   19.7300 O   0  0  0  0  0  0  0  0  0  0  0  0
  -29.6500  -16.7790   21.5210 C   0  0  0  0  0  2  0  0  0  0  0  0
  -30.1910  -17.6620   20.4130 C   0  0  2  0  0  0  0  0  0  0  0  0
  -31.6890  -17.9230   20.3520 C   0  0  0  0  0  1  0  0  0  0  0  0
  -29.8400  -16.1470   20.2550 N   0  0  0  0  0  0  0  0  0  0  0  0
  -25.2460  -13.8780   20.4430 C   0  0  0  0  0  0  0  0  0  0  0  0
  -24.1900  -13.1070   20.8450 C   0  0  0  0  0  0  0  0  0  0  0  0
  -24.6390  -11.7530   20.7770 C   0  0  0  0  0  0  0  0  0  0  0  0
  -26.2670  -12.9930   20.1450 N   0  0  0  0  0  0  0  0  0  0  0  0
  -25.9150  -11.7090   20.4110 N   0  0  0  0  0  0  0  0  0  0  0  0
  -23.9070  -10.4950   20.9800 C   0  0  0  0  0  0  0  0  0  0  0  0
  -24.3580   -9.5180   21.8950 C   0  0  0  0  0  3  0  0  0  0  0  0
  -23.6250   -8.3270   22.0880 C   0  0  0  0  0  3  0  0  0  0  0  0
  -22.4290   -8.1030   21.3640 C   0  0  0  0  0  0  0  0  0  0  0  0
  -21.9980   -9.0690   20.4370 C   0  0  0  0  0  3  0  0  0  0  0  0
  -22.7310  -10.2520   20.2430 C   0  0  0  0  0  3  0  0  0  0  0  0
  -21.6670   -6.9650   21.4660 O   0  0  0  0  0  0  0  0  0  0  0  0
  -21.6290   -6.2250   22.6220 C   0  0  0  0  0  0  0  0  0  0  0  0
  -21.2160   -6.7850   23.8500 C   0  0  0  0  0  3  0  0  0  0  0  0
  -21.1240   -5.9730   24.9990 C   0  0  0  0  0  3  0  0  0  0  0  0
  -21.4340   -4.6020   24.9180 C   0  0  0  0  0  0  0  0  0  0  0  0
  -21.8410   -4.0420   23.6950 C   0  0  0  0  0  3  0  0  0  0  0  0
  -21.9340   -4.8510   22.5480 C   0  0  0  0  0  0  0  0  0  0  0  0
  -22.3050   -4.3030   21.3670 F   0  0  0  0  0  0  0  0  0  0  0  0
  -21.3390   -3.8200   26.0190 F   0  0  0  0  0  0  0  0  0  0  0  0
  -22.8100  -13.5960   21.1780 C   0  0  0  0  0  0  0  0  0  0  0  0
  -22.1120  -12.8990   22.0670 N   0  0  0  0  0  0  0  0  0  0  0  0
  -22.3620  -14.6300   20.6860 O   0  0  0  0  0  0  0  0  0  0  0  0
  -22.4880  -12.0620   22.4870 H   0  0  0  0  0  0  0  0  0  0  0  0
  -21.1870  -13.2070   22.3330 H   0  0  0  0  0  0  0  0  0  0  0  0
  -25.4190  -15.2490   20.2810 N   0  0  0  0  0  0  0  0  0  0  0  0
  -24.6690  -15.9140   20.4390 H   0  0  0  0  0  0  0  0  0  0  0  0
  -26.2660  -15.6820   19.9360 H   0  0  0  0  0  0  0  0  0  0  0  0
  2  1  1  0
  2  6  1  0
  3  6  1  0
  3  4  1  0
  4 12  1  0
  5  1  1  0
  5  8  1  0
  5  4  1  0
  6  7  1  1
  8  9  1  0
 10  8  1  0
 11  8  1  0
 12 13  1  0
 14 25  2  0
 15 13  1  0
 15 20  1  0
 16 24  1  0
 16 26  1  0
 17 23  1  0
 17 19  1  0
 18 24  1  0
 19 18  1  0
 20 19  2  0
 21 15  2  0
 22 21  1  0
 22 17  2  0
 23 16  1  0
 24 14  1  0
 26 28  2  0
 27 26  1  0
 29 27  1  0
 30 39  2  0
 30 35  1  0
 31 27  1  0
 31 35  1  0
 32 31  1  0
 33 34  1  0
 33 32  1  0
 34 30  1  0
 35 36  2  0
 36 37  1  0
 38 37  2  0
 39 38  1  0
 40 14  1  0
 40 45  1  0
 40 41  1  0
 41 44  1  1
 41 42  1  0
 43 41  1  0
 45 48  1  0
 46 50  1  0
 46 45  1  0
 47 46  2  0
 50 49  1  0
 52 50  1  0
 52 53  1  0
 52 51  1  0
 54  6  1  0
 54 64  1  0
 55 66  1  0
 56 61  1  0
 57 58  1  0
 57 56  1  0
 59 58  1  0
 59 70  1  0
 59 60  1  0
 61 55  1  0
 61 60  1  0
 62 55  2  0
 64 65  1  1
 64 63  1  0
 66 64  1  0
 66 63  1  0
 67 68  2  0
 68 87  1  0
 69 68  1  0
 69 72  1  0
 70 71  1  0
 70 67  1  0
 71 69  2  0
 72 73  1  0
 73 74  2  0
 75 78  1  0
 75 74  1  0
 76 75  2  0
 77 76  1  0
 77 72  2  0
 78 79  1  0
 79 80  1  0
 80 81  2  0
 82 81  1  0
 82 86  1  0
 83 82  2  0
 84 79  2  0
 84 83  1  0
 85 84  1  0
 87 88  1  0
 88 91  1  0
 88 90  1  0
 89 87  2  0
 92 93  1  0
 92 67  1  0
 94 92  1  0
M  ISO  4  12 101  13 101  55 100  66 100
M  END
>  <TORSDO>  (25) 
F 19

>  <SCORE>  (25) 
-14.446

>  <name>  (25) 
24

>  <ligand_id>  (25) 
24

>  <original_smiles>  (25) 
[H]c1c([H])c([H])c2c(c1[H])C([H])([H])C([H])([H])C([H])([H])C2([H])N([H])C(=O)C1([H])N(C(=O)C([H])(N([H])C(=O)C([H])(N([H])C([H])([H])[H])C([H])([H])[H])C(C([H])([H])[H])(C([H])([H])[H])C([H])([H])[H])C([H])([H])c2c([H])c(OC([H])([H])C3([H])C([H])([N+]([H])([H])[H])C([H])([H])C([H])([H])[N+]([H])(C([H])([H])C4(C([H])([H])[H])N(C(=O)N5C([H])([H])C([H])([H])C([H])([H])C([H])(n6nc(-c7c([H])c([H])c(Oc8c([H])c([H])c(F)c([H])c8F)c([H])c7[H])c(C(=O)N([H])[H])c6N([H])[H])C5([H])[H])C4([H])[H])C3([H])[H])c([H])c([H])c2C1([H])[H]

>  <smiles>  (25) 
[H]c1c([H])c([H])c2c(c1[H])C([H])([H])C([H])([H])C([H])([H])C2([H])N([H])C(=O)C1([H])N(C(=O)C([H])(N([H])C(=O)C([H])(N([H])C([H])([H])[H])C([H])([H])[H])C(C([H])([H])[H])(C([H])([H])[H])C([H])([H])[H])C([H])([H])c2c([H])c(OC([H])([H])C3([H])C([H])([N+]([H])([H])[H])C([H])([H])C([H])([H])[N+]([H])(C([H])([H])C4(C([H])([H])[H])N(C(=O)N5C([H])([H])C([H])([H])C([H])([H])C([H])(n6nc(-c7c([H])c([H])c(Oc8c([H])c([H])c(F)c([H])c8F)c([H])c7[H])c(C(=O)N([H])[H])c6N([H])[H])C5([H])[H])C4([H])[H])C3([H])[H])c([H])c([H])c2C1([H])[H]

$$$$
25:0:0
     RDKit          3D

 93102  0  0  1  0  0  0  0  0999 V2000
  -29.1040  -22.7940   20.5910 C   0  0  0  0  0  3  0  0  0  0  0  0
  -29.0610  -21.2340   20.1510 C   0  0  0  0  0  3  0  0  0  0  0  0
  -27.6700  -21.9500   22.2010 C   0  0  0  0  0  2  0  0  0  0  0  0
  -26.8470  -21.2400   21.0850 C   0  0  0  0  0  3  0  0  0  0  0  0
  -25.7330  -22.1100   20.4780 C   0  0  0  0  0  1  0  0  0  0  0  0
  -28.4850  -23.0450   21.6780 N   0  0  0  0  0  2  0  0  0  0  0  0
  -27.7990  -20.7730   20.0670 N   0  0  0  0  0  0  0  0  0  0  0  0
  -30.0470  -20.2300   20.0730 N   0  0  0  0  0  0  0  0  0  0  0  0
  -27.6090  -19.8900   19.6220 H   0  0  0  0  0  0  0  0  0  0  0  0
  -31.0030  -20.5390   20.1740 H   0  0  0  0  0  0  0  0  0  0  0  0
  -31.3630  -15.4840   19.8430 C   0  0  0  0  0  0  0  0  0  0  0  0
  -31.2010  -13.1760   18.8660 C   0  0  0  0  0  2  0  0  0  0  0  0
  -30.1960  -13.1700   17.6930 C   0  0  0  0  0  2  0  0  0  0  0  0
  -28.7630  -12.9430   18.2120 C   0  0  0  0  0  2  0  0  0  0  0  0
  -28.4170  -13.8440   19.4270 C   0  0  0  0  0  3  0  0  0  0  0  0
  -29.5360  -13.8340   20.4890 C   0  0  0  0  0  2  0  0  0  0  0  0
  -30.7730  -14.2350   19.8140 N   0  0  0  0  0  0  0  0  0  0  0  0
  -32.5370  -15.5980   19.4810 O   0  0  0  0  0  0  0  0  0  0  0  0
  -30.5390  -17.7750   18.9810 C   0  0  0  0  0  2  0  0  0  0  0  0
  -30.5940  -17.7110   20.9900 C   0  0  0  0  0  2  0  0  0  0  0  0
  -29.8110  -18.6730   20.0290 C   0  0  0  0  0  3  0  0  0  0  0  0
  -30.5400  -16.6220   19.9520 N   0  0  0  0  0  0  0  0  0  0  0  0
  -26.0960  -14.3750   20.3740 C   0  0  0  0  0  0  0  0  0  0  0  0
  -25.0580  -13.5750   20.7690 C   0  0  0  0  0  0  0  0  0  0  0  0
  -25.5170  -12.2300   20.6150 C   0  0  0  0  0  0  0  0  0  0  0  0
  -27.1150  -13.5170   19.9990 N   0  0  0  0  0  0  0  0  0  0  0  0
  -26.7800  -12.2180   20.2080 N   0  0  0  0  0  0  0  0  0  0  0  0
  -24.8050  -10.9560   20.7760 C   0  0  0  0  0  0  0  0  0  0  0  0
  -25.1860  -10.0120   21.7560 C   0  0  0  0  0  3  0  0  0  0  0  0
  -24.4740   -8.8030   21.9030 C   0  0  0  0  0  3  0  0  0  0  0  0
  -23.3660   -8.5260   21.0680 C   0  0  0  0  0  0  0  0  0  0  0  0
  -23.0040   -9.4560   20.0770 C   0  0  0  0  0  3  0  0  0  0  0  0
  -23.7180  -10.6580   19.9290 C   0  0  0  0  0  3  0  0  0  0  0  0
  -22.6320   -7.3650   21.1200 O   0  0  0  0  0  0  0  0  0  0  0  0
  -22.2710   -6.7960   22.3150 C   0  0  0  0  0  0  0  0  0  0  0  0
  -21.5200   -7.5020   23.2800 C   0  0  0  0  0  3  0  0  0  0  0  0
  -21.1100   -6.8560   24.4630 C   0  0  0  0  0  3  0  0  0  0  0  0
  -21.4420   -5.5040   24.6790 C   0  0  0  0  0  0  0  0  0  0  0  0
  -22.1840   -4.7980   23.7170 C   0  0  0  0  0  3  0  0  0  0  0  0
  -22.5950   -5.4420   22.5370 C   0  0  0  0  0  0  0  0  0  0  0  0
  -23.2930   -4.7520   21.6020 F   0  0  0  0  0  0  0  0  0  0  0  0
  -21.0420   -4.8800   25.8120 F   0  0  0  0  0  0  0  0  0  0  0  0
  -23.6850  -14.0300   21.1720 C   0  0  0  0  0  0  0  0  0  0  0  0
  -23.0370  -13.2980   22.0710 N   0  0  0  0  0  0  0  0  0  0  0  0
  -23.1980  -15.0680   20.7240 O   0  0  0  0  0  0  0  0  0  0  0  0
  -23.4470  -12.4600   22.4550 H   0  0  0  0  0  0  0  0  0  0  0  0
  -22.1190  -13.5810   22.3830 H   0  0  0  0  0  0  0  0  0  0  0  0
  -26.2530  -15.7540   20.2780 N   0  0  0  0  0  0  0  0  0  0  0  0
  -25.5090  -16.4030   20.5040 H   0  0  0  0  0  0  0  0  0  0  0  0
  -27.0930  -16.2040   19.9390 H   0  0  0  0  0  0  0  0  0  0  0  0
  -29.5090  -24.1240   19.7610 C   0  0  0  0  0  3  0  0  0  0  0  0
  -28.5210  -25.4430   19.9280 C   0  0  0  0  0  3  0  0  0  0  0  0
  -28.4890  -26.7180   19.0950 O   0  0  0  0  0  0  0  0  0  0  0  0
  -24.6910  -31.6610   22.9100 C   0  0  0  0  0  0  0  0  0  0  0  0
  -27.3710  -27.5870   19.2210 C   0  0  0  0  0  0  0  0  0  0  0  0
  -23.4910  -30.4440   21.1290 C   0  0  0  0  0  3  0  0  0  0  0  0
  -24.9590  -29.1460   19.4710 C   0  0  0  0  0  0  0  0  0  0  0  0
  -26.0180  -30.8650   20.9320 C   0  0  0  0  0  2  0  0  0  0  0  0
  -26.1290  -29.5820   20.1050 C   0  0  0  0  0  0  0  0  0  0  0  0
  -27.3390  -28.8180   19.9680 C   0  0  0  0  0  3  0  0  0  0  0  0
  -26.1740  -27.2370   18.5580 C   0  0  0  0  0  3  0  0  0  0  0  0
  -24.9850  -27.9830   18.6860 C   0  0  0  0  0  3  0  0  0  0  0  0
  -23.6930  -29.9640   19.6670 C   0  0  0  0  0  2  0  0  0  0  0  0
  -24.7530  -31.0010   21.7150 N   0  0  0  0  0  0  0  0  0  0  0  0
  -23.6130  -31.8240   23.5020 O   0  0  0  0  0  0  0  0  0  0  0  0
  -22.8900  -29.2860   21.9650 C   0  0  0  0  0  0  0  0  0  0  0  0
  -21.5640  -29.0860   21.8630 N   0  0  0  0  0  0  0  0  0  0  0  0
  -23.6140  -28.5770   22.6650 O   0  0  0  0  0  0  0  0  0  0  0  0
  -21.0340  -29.7150   21.2750 H   0  0  0  0  0  0  0  0  0  0  0  0
  -18.2240  -27.8410   22.4880 C   0  0  0  0  0  0  0  0  0  0  0  0
  -20.8020  -28.0250   22.5240 C   0  0  0  0  0  3  0  0  0  0  0  0
  -20.8020  -26.7300   21.6800 C   0  0  0  0  0  2  0  0  0  0  0  0
  -19.5930  -26.6160   20.7480 C   0  0  0  0  0  2  0  0  0  0  0  0
  -18.2910  -26.6460   21.5530 C   0  0  0  0  0  2  0  0  0  0  0  0
  -19.4010  -28.4980   22.9320 C   0  0  0  0  0  0  0  0  0  0  0  0
  -19.2820  -29.6240   23.7760 C   0  0  0  0  0  3  0  0  0  0  0  0
  -18.0160  -30.0930   24.1730 C   0  0  0  0  0  3  0  0  0  0  0  0
  -16.8530  -29.4300   23.7430 C   0  0  0  0  0  3  0  0  0  0  0  0
  -16.9590  -28.3030   22.9080 C   0  0  0  0  0  3  0  0  0  0  0  0
  -25.9640  -32.2600   23.5810 C   0  0  0  0  0  3  0  0  0  0  0  0
  -25.6160  -33.5950   24.0900 N   0  0  0  0  0  0  0  0  0  0  0  0
  -25.8620  -34.7440   23.4470 C   0  0  0  0  0  0  0  0  0  0  0  0
  -26.4750  -34.7940   22.3780 O   0  0  0  0  0  0  0  0  0  0  0  0
  -25.0650  -33.6270   24.9340 H   0  0  0  0  0  0  0  0  0  0  0  0
  -24.0360  -36.4750   23.4130 C   0  0  0  0  0  1  0  0  0  0  0  0
  -25.3470  -36.0470   24.0920 C   0  0  0  0  0  3  0  0  0  0  0  0
  -27.4830  -36.9510   24.8940 C   0  0  0  0  0  1  0  0  0  0  0  0
  -26.3200  -37.1590   24.0350 N   0  0  0  0  0  0  0  0  0  0  0  0
  -25.8830  -38.0370   24.2980 H   0  0  0  0  0  0  0  0  0  0  0  0
  -26.5340  -31.3590   24.7450 C   0  0  1  0  0  0  0  0  0  0  0  0
  -25.4760  -30.9620   25.8000 C   0  0  0  0  0  1  0  0  0  0  0  0
  -27.1450  -30.0560   24.1800 C   0  0  0  0  0  1  0  0  0  0  0  0
  -27.6780  -32.1030   25.4710 C   0  0  0  0  0  1  0  0  0  0  0  0
  1 51  1  0
  1  6  1  0
  2  8  1  0
  2  1  1  0
  4  5  1  0
  4  3  1  0
  6  3  1  0
  7  2  1  0
  7  4  1  0
  8 10  1  0
  9  7  1  0
 11 22  1  0
 12 17  1  0
 13 14  1  0
 13 12  1  0
 15 14  1  0
 15 26  1  0
 15 16  1  0
 17 11  1  0
 17 16  1  0
 18 11  2  0
 19 22  1  0
 19 21  1  0
 21  8  1  0
 21 20  1  0
 22 20  1  0
 23 24  2  0
 24 43  1  0
 25 24  1  0
 25 28  1  0
 26 27  1  0
 26 23  1  0
 27 25  2  0
 28 29  1  0
 29 30  2  0
 31 34  1  0
 31 30  1  0
 32 31  2  0
 33 32  1  0
 33 28  2  0
 34 35  1  0
 35 40  2  0
 35 36  1  0
 36 37  2  0
 37 38  1  0
 38 42  1  0
 39 38  2  0
 40 39  1  0
 41 40  1  0
 43 44  1  0
 44 47  1  0
 44 46  1  0
 45 43  2  0
 48 23  1  0
 48 49  1  0
 50 48  1  0
 51 52  2  0
 53 55  1  0
 53 52  1  0
 54 65  2  0
 55 60  1  0
 56 64  1  0
 56 66  1  0
 57 63  1  0
 57 59  1  0
 58 64  1  0
 59 58  1  0
 60 59  2  0
 61 62  1  0
 61 55  2  0
 62 57  2  0
 63 56  1  0
 64 54  1  0
 66 68  2  0
 67 66  1  0
 69 67  1  0
 70 79  2  0
 70 75  1  0
 71 67  1  0
 71 75  1  0
 72 71  1  0
 73 74  1  0
 73 72  1  0
 74 70  1  0
 75 76  2  0
 76 77  1  0
 78 77  2  0
 79 78  1  0
 80 54  1  0
 80 81  1  0
 80 90  1  0
 81 84  1  0
 82 81  1  0
 82 86  1  0
 83 82  2  0
 86 85  1  0
 88 86  1  0
 88 89  1  0
 88 87  1  0
 90 93  1  1
 90 91  1  0
 92 90  1  0
M  ISO  4  11 100  22 100  52 101  53 101
M  END
>  <TORSDO>  (26) 
F 18

>  <SCORE>  (26) 
-8.506

>  <name>  (26) 
25

>  <ligand_id>  (26) 
25

>  <original_smiles>  (26) 
[H]c1c([H])c([H])c2c(c1[H])C([H])([H])C([H])([H])C([H])([H])C2([H])N([H])C(=O)C1([H])N(C(=O)C([H])(N([H])C(=O)C([H])(N([H])C([H])([H])[H])C([H])([H])[H])C(C([H])([H])[H])(C([H])([H])[H])C([H])([H])[H])C([H])([H])c2c([H])c(OC([H])([H])C([H])([H])C3=NC([H])([H])C([H])(C([H])([H])[H])[N+]([H])=C3N([H])C3([H])C([H])([H])N(C(=O)N4C([H])([H])C([H])([H])C([H])([H])C([H])(n5nc(-c6c([H])c([H])c(Oc7c([H])c([H])c(F)c([H])c7F)c([H])c6[H])c(C(=O)N([H])[H])c5N([H])[H])C4([H])[H])C3([H])[H])c([H])c([H])c2C1([H])[H]

>  <smiles>  (26) 
[H]c1c([H])c([H])c2c(c1[H])C([H])([H])C([H])([H])C([H])([H])C2([H])N([H])C(=O)C1([H])N(C(=O)C([H])(N([H])C(=O)C([H])(N([H])C([H])([H])[H])C([H])([H])[H])C(C([H])([H])[H])(C([H])([H])[H])C([H])([H])[H])C([H])([H])c2c([H])c(OC([H])([H])C([H])([H])C3=NC([H])([H])C([H])(C([H])([H])[H])[N+]([H])=C3N([H])C3([H])C([H])([H])N(C(=O)N4C([H])([H])C([H])([H])C([H])([H])C([H])(n5nc(-c6c([H])c([H])c(Oc7c([H])c([H])c(F)c([H])c7F)c([H])c6[H])c(C(=O)N([H])[H])c5N([H])[H])C4([H])[H])C3([H])[H])c([H])c([H])c2C1([H])[H]

$$$$
26:0:0
     RDKit          3D

 89 97  0  0  1  0  0  0  0  0999 V2000
  -30.3960  -15.6900   20.2810 C   0  0  0  0  0  0  0  0  0  0  0  0
  -30.4200  -13.1860   19.4340 C   0  0  0  0  0  2  0  0  0  0  0  0
  -29.5310  -12.8480   18.2090 C   0  0  0  0  0  2  0  0  0  0  0  0
  -28.0880  -12.5460   18.6410 C   0  0  0  0  0  2  0  0  0  0  0  0
  -27.5990  -13.5420   19.7170 C   0  0  0  0  0  3  0  0  0  0  0  0
  -28.6240  -13.7940   20.8420 C   0  0  0  0  0  2  0  0  0  0  0  0
  -29.8210  -14.3640   20.1930 N   0  0  0  0  0  0  0  0  0  0  0  0
  -31.6290  -15.6010   20.1210 O   0  0  0  0  0  0  0  0  0  0  0  0
  -29.7810  -18.2280   21.3670 C   0  0  0  0  0  2  0  0  0  0  0  0
  -29.0600  -19.8110   21.3750 C   0  0  0  0  0  2  0  0  0  0  0  0
  -29.0950  -19.7510   19.1310 C   0  0  0  0  0  2  0  0  0  0  0  0
  -29.7380  -18.1470   19.1310 C   0  0  0  0  0  3  0  0  0  0  0  0
  -29.7050  -17.0740   20.2850 N   0  0  0  0  0  0  0  0  0  0  0  0
  -29.2850  -20.8520   20.2280 N   0  0  1  0  0  4  0  0  0  0  0  0
  -30.2800  -21.0270   20.2670 H   0  0  0  0  0  0  0  0  0  0  0  0
  -25.2350  -14.1080   20.4400 C   0  0  0  0  0  0  0  0  0  0  0  0
  -24.1620  -13.3390   20.7970 C   0  0  0  0  0  0  0  0  0  0  0  0
  -24.6250  -11.9880   20.7990 C   0  0  0  0  0  0  0  0  0  0  0  0
  -26.2730  -13.2240   20.2240 N   0  0  0  0  0  0  0  0  0  0  0  0
  -25.9230  -11.9420   20.5130 N   0  0  0  0  0  0  0  0  0  0  0  0
  -23.8900  -10.7330   20.9980 C   0  0  0  0  0  0  0  0  0  0  0  0
  -24.3050   -9.7710   21.9460 C   0  0  0  0  0  3  0  0  0  0  0  0
  -23.5610   -8.5850   22.1320 C   0  0  0  0  0  3  0  0  0  0  0  0
  -22.3900   -8.3550   21.3720 C   0  0  0  0  0  0  0  0  0  0  0  0
  -21.9940   -9.3060   20.4160 C   0  0  0  0  0  3  0  0  0  0  0  0
  -22.7380  -10.4820   20.2270 C   0  0  0  0  0  3  0  0  0  0  0  0
  -21.6190   -7.2200   21.4690 O   0  0  0  0  0  0  0  0  0  0  0  0
  -21.5650   -6.4810   22.6240 C   0  0  0  0  0  0  0  0  0  0  0  0
  -21.1480   -7.0470   23.8490 C   0  0  0  0  0  3  0  0  0  0  0  0
  -21.0400   -6.2370   24.9980 C   0  0  0  0  0  3  0  0  0  0  0  0
  -21.3390   -4.8630   24.9210 C   0  0  0  0  0  0  0  0  0  0  0  0
  -21.7490   -4.2970   23.7010 C   0  0  0  0  0  3  0  0  0  0  0  0
  -21.8570   -5.1040   22.5550 C   0  0  0  0  0  0  0  0  0  0  0  0
  -22.2320   -4.5520   21.3750 F   0  0  0  0  0  0  0  0  0  0  0  0
  -21.2270   -4.0810   26.0200 F   0  0  0  0  0  0  0  0  0  0  0  0
  -22.7660  -13.8320   21.0290 C   0  0  0  0  0  0  0  0  0  0  0  0
  -22.0210  -13.1710   21.9050 N   0  0  0  0  0  0  0  0  0  0  0  0
  -22.3410  -14.8370   20.4620 O   0  0  0  0  0  0  0  0  0  0  0  0
  -22.3800  -12.3570   22.3860 H   0  0  0  0  0  0  0  0  0  0  0  0
  -21.0850  -13.4890   22.1070 H   0  0  0  0  0  0  0  0  0  0  0  0
  -25.4070  -15.4760   20.2490 N   0  0  0  0  0  0  0  0  0  0  0  0
  -24.6510  -16.1390   20.3810 H   0  0  0  0  0  0  0  0  0  0  0  0
  -26.2760  -15.9160   19.9750 H   0  0  0  0  0  0  0  0  0  0  0  0
  -29.2210  -17.4650   17.8380 C   0  0  0  0  0  2  0  0  0  0  0  0
  -29.7280  -18.1230   16.6860 O   0  0  0  0  0  0  0  0  0  0  0  0
  -29.3650  -17.7050   15.9110 H   0  0  0  0  0  0  0  0  0  0  0  0
  -28.6360  -22.4490   19.9270 C   0  0  0  0  0  2  0  0  0  0  0  0
  -28.4750  -24.1530   20.7070 C   0  0  0  0  0  2  0  0  0  0  0  0
  -28.4190  -25.8410   20.3230 O   0  0  0  0  0  0  0  0  0  0  0  0
  -24.6900  -31.9220   23.2440 C   0  0  0  0  0  0  0  0  0  0  0  0
  -27.3740  -26.9570   20.3390 C   0  0  0  0  0  0  0  0  0  0  0  0
  -23.5550  -30.5000   21.5910 C   0  0  0  0  0  3  0  0  0  0  0  0
  -25.0600  -28.8870   20.2190 C   0  0  0  0  0  0  0  0  0  0  0  0
  -26.1310  -30.7210   21.5020 C   0  0  0  0  0  2  0  0  0  0  0  0
  -26.2370  -29.2930   20.8630 C   0  0  0  0  0  0  0  0  0  0  0  0
  -27.3840  -28.3550   20.8880 C   0  0  0  0  0  3  0  0  0  0  0  0
  -26.1650  -26.7380   19.6400 C   0  0  0  0  0  3  0  0  0  0  0  0
  -25.0580  -27.6330   19.5840 C   0  0  0  0  0  3  0  0  0  0  0  0
  -23.8290  -29.8040   20.2280 C   0  0  0  0  0  2  0  0  0  0  0  0
  -24.8130  -31.0750   22.1670 N   0  0  0  0  0  0  0  0  0  0  0  0
  -23.5850  -32.1990   23.7410 O   0  0  0  0  0  0  0  0  0  0  0  0
  -22.8500  -29.5030   22.5490 C   0  0  0  0  0  0  0  0  0  0  0  0
  -21.5230  -29.3340   22.4140 N   0  0  0  0  0  0  0  0  0  0  0  0
  -23.5120  -28.8770   23.3800 O   0  0  0  0  0  0  0  0  0  0  0  0
  -21.0380  -29.8910   21.7220 H   0  0  0  0  0  0  0  0  0  0  0  0
  -18.1400  -28.1140   22.9130 C   0  0  0  0  0  0  0  0  0  0  0  0
  -20.7000  -28.3830   23.1730 C   0  0  0  0  0  3  0  0  0  0  0  0
  -20.8030  -26.9590   22.5760 C   0  0  0  0  0  2  0  0  0  0  0  0
  -19.6980  -26.6470   21.5620 C   0  0  0  0  0  2  0  0  0  0  0  0
  -18.3180  -26.7760   22.2150 C   0  0  0  0  0  2  0  0  0  0  0  0
  -19.2570  -28.8760   23.3490 C   0  0  0  0  0  0  0  0  0  0  0  0
  -19.0330  -30.1260   23.9660 C   0  0  0  0  0  3  0  0  0  0  0  0
  -17.7260  -30.6140   24.1540 C   0  0  0  0  0  3  0  0  0  0  0  0
  -16.6240  -29.8520   23.7320 C   0  0  0  0  0  3  0  0  0  0  0  0
  -16.8310  -28.6040   23.1180 C   0  0  0  0  0  3  0  0  0  0  0  0
  -25.9320  -32.5980   23.9010 C   0  0  0  0  0  3  0  0  0  0  0  0
  -26.4100  -31.8610   25.2140 C   0  0  1  0  0  0  0  0  0  0  0  0
  -25.2810  -31.6340   26.2480 C   0  0  0  0  0  1  0  0  0  0  0  0
  -27.0220  -30.4820   24.8840 C   0  0  0  0  0  1  0  0  0  0  0  0
  -27.5250  -32.6840   25.9000 C   0  0  0  0  0  1  0  0  0  0  0  0
  -25.5850  -33.9980   24.2120 N   0  0  0  0  0  0  0  0  0  0  0  0
  -25.9120  -35.0600   23.4600 C   0  0  0  0  0  0  0  0  0  0  0  0
  -26.6010  -34.9620   22.4420 O   0  0  0  0  0  0  0  0  0  0  0  0
  -24.9710  -34.1420   25.0000 H   0  0  0  0  0  0  0  0  0  0  0  0
  -24.1560  -36.8240   23.0840 C   0  0  0  0  0  1  0  0  0  0  0  0
  -25.3980  -36.4430   23.9060 C   0  0  0  0  0  3  0  0  0  0  0  0
  -27.5070  -37.3750   24.7520 C   0  0  0  0  0  1  0  0  0  0  0  0
  -26.4140  -37.5140   23.7940 N   0  0  0  0  0  0  0  0  0  0  0  0
  -25.9890  -38.4270   23.9270 H   0  0  0  0  0  0  0  0  0  0  0  0
  1 13  1  0
  2  7  1  0
  3  4  1  0
  3  2  1  0
  5  4  1  0
  5 19  1  0
  5  6  1  0
  7  1  1  0
  7  6  1  0
  8  1  2  0
  9 10  1  0
 11 14  1  0
 12 44  1  0
 12 11  1  0
 12 13  1  0
 13  9  1  0
 14 15  1  1
 14 10  1  0
 16 17  2  0
 17 18  1  0
 17 36  1  0
 18 21  1  0
 19 16  1  0
 19 20  1  0
 20 18  2  0
 21 22  1  0
 22 23  2  0
 24 27  1  0
 24 23  1  0
 25 24  2  0
 26 25  1  0
 26 21  2  0
 27 28  1  0
 28 29  1  0
 29 30  2  0
 31 30  1  0
 31 35  1  0
 32 31  2  0
 33 28  2  0
 33 32  1  0
 34 33  1  0
 36 37  1  0
 37 40  1  0
 37 39  1  0
 38 36  2  0
 41 42  1  0
 41 16  1  0
 43 41  1  0
 45 44  1  0
 46 45  1  0
 47 14  1  0
 47 48  1  0
 49 51  1  0
 49 48  1  0
 50 61  2  0
 51 56  1  0
 52 60  1  0
 52 62  1  0
 53 59  1  0
 53 55  1  0
 54 60  1  0
 55 56  2  0
 55 54  1  0
 57 51  2  0
 58 57  1  0
 58 53  2  0
 59 52  1  0
 60 50  1  0
 62 64  2  0
 63 62  1  0
 65 63  1  0
 66 75  2  0
 66 71  1  0
 67 63  1  0
 67 71  1  0
 68 67  1  0
 69 70  1  0
 69 68  1  0
 70 66  1  0
 71 72  2  0
 72 73  1  0
 74 73  2  0
 75 74  1  0
 76 50  1  0
 76 81  1  0
 76 77  1  0
 77 80  1  1
 77 78  1  0
 79 77  1  0
 81 84  1  0
 82 86  1  0
 82 81  1  0
 83 82  2  0
 86 85  1  0
 88 86  1  0
 88 89  1  0
 88 87  1  0
M  ISO  4   1 100  13 100  48 101  49 101
M  END
>  <TORSDO>  (27) 
F 19

>  <SCORE>  (27) 
-14.783

>  <name>  (27) 
26

>  <ligand_id>  (27) 
26

>  <original_smiles>  (27) 
[H]OC([H])([H])C1([H])N(C(=O)N2C([H])([H])C([H])([H])C([H])([H])C([H])(n3nc(-c4c([H])c([H])c(Oc5c([H])c([H])c(F)c([H])c5F)c([H])c4[H])c(C(=O)N([H])[H])c3N([H])[H])C2([H])[H])C([H])([H])C([H])([H])[N+]([H])(C([H])([H])C([H])([H])Oc2c([H])c([H])c3c(c2[H])C([H])([H])N(C(=O)C([H])(N([H])C(=O)C([H])(N([H])C([H])([H])[H])C([H])([H])[H])C(C([H])([H])[H])(C([H])([H])[H])C([H])([H])[H])C([H])(C(=O)N([H])C2([H])c4c([H])c([H])c([H])c([H])c4C([H])([H])C([H])([H])C2([H])[H])C3([H])[H])C1([H])[H]

>  <smiles>  (27) 
[H]OC([H])([H])C1([H])N(C(=O)N2C([H])([H])C([H])([H])C([H])([H])C([H])(n3nc(-c4c([H])c([H])c(Oc5c([H])c([H])c(F)c([H])c5F)c([H])c4[H])c(C(=O)N([H])[H])c3N([H])[H])C2([H])[H])C([H])([H])C([H])([H])[N+]([H])(C([H])([H])C([H])([H])Oc2c([H])c([H])c3c(c2[H])C([H])([H])N(C(=O)C([H])(N([H])C(=O)C([H])(N([H])C([H])([H])[H])C([H])([H])[H])C(C([H])([H])[H])(C([H])([H])[H])C([H])([H])[H])C([H])(C(=O)N([H])C2([H])c4c([H])c([H])c([H])c([H])c4C([H])([H])C([H])([H])C2([H])[H])C3([H])[H])C1([H])[H]

$$$$
27:0:0
     RDKit          3D

 91 99  0  0  1  0  0  0  0  0999 V2000
  -28.7700  -22.6000   20.6360 N   0  0  0  0  0  4  0  0  0  0  0  0
  -28.1200  -22.5370   21.4040 H   0  0  0  0  0  0  0  0  0  0  0  0
  -29.6840  -22.6810   21.0520 H   0  0  0  0  0  0  0  0  0  0  0  0
  -28.4840  -23.8870   19.8710 C   0  0  0  0  0  3  0  0  0  0  0  0
  -28.2610  -25.1800   20.7750 C   0  0  0  0  0  3  0  0  0  0  0  0
  -28.3910  -26.5370   20.2040 O   0  0  0  0  0  0  0  0  0  0  0  0
  -24.6110  -31.8820   23.2390 C   0  0  0  0  0  0  0  0  0  0  0  0
  -27.2620  -27.3540   20.2030 C   0  0  0  0  0  0  0  0  0  0  0  0
  -23.4260  -30.4780   21.5880 C   0  0  0  0  0  3  0  0  0  0  0  0
  -24.8900  -28.9320   20.1740 C   0  0  0  0  0  0  0  0  0  0  0  0
  -25.9600  -30.8160   21.4170 C   0  0  0  0  0  2  0  0  0  0  0  0
  -26.0510  -29.4370   20.7780 C   0  0  0  0  0  0  0  0  0  0  0  0
  -27.2440  -28.6600   20.7790 C   0  0  0  0  0  3  0  0  0  0  0  0
  -26.0830  -26.8880   19.5860 C   0  0  0  0  0  3  0  0  0  0  0  0
  -24.9070  -27.6640   19.5710 C   0  0  0  0  0  3  0  0  0  0  0  0
  -23.6500  -29.8000   20.2090 C   0  0  0  0  0  2  0  0  0  0  0  0
  -24.6850  -31.0770   22.1390 N   0  0  0  0  0  0  0  0  0  0  0  0
  -23.5220  -32.1540   23.7650 O   0  0  0  0  0  0  0  0  0  0  0  0
  -22.7610  -29.4590   22.5440 C   0  0  0  0  0  0  0  0  0  0  0  0
  -21.4350  -29.2810   22.4110 N   0  0  0  0  0  0  0  0  0  0  0  0
  -23.4350  -28.8300   23.3640 O   0  0  0  0  0  0  0  0  0  0  0  0
  -20.9530  -29.8350   21.7190 H   0  0  0  0  0  0  0  0  0  0  0  0
  -18.0550  -28.0840   22.8850 C   0  0  0  0  0  0  0  0  0  0  0  0
  -20.6110  -28.3400   23.1730 C   0  0  0  0  0  3  0  0  0  0  0  0
  -20.7180  -26.9100   22.5920 C   0  0  0  0  0  2  0  0  0  0  0  0
  -19.6210  -26.5910   21.5720 C   0  0  0  0  0  2  0  0  0  0  0  0
  -18.2360  -26.7360   22.2060 C   0  0  0  0  0  2  0  0  0  0  0  0
  -19.1720  -28.8440   23.3240 C   0  0  0  0  0  0  0  0  0  0  0  0
  -18.9500  -30.1050   23.9160 C   0  0  0  0  0  3  0  0  0  0  0  0
  -17.6440  -30.6070   24.0770 C   0  0  0  0  0  3  0  0  0  0  0  0
  -16.5430  -29.8440   23.6530 C   0  0  0  0  0  3  0  0  0  0  0  0
  -16.7480  -28.5840   23.0630 C   0  0  0  0  0  3  0  0  0  0  0  0
  -25.8870  -32.5180   23.8720 C   0  0  0  0  0  3  0  0  0  0  0  0
  -26.3910  -31.7520   25.1570 C   0  0  1  0  0  0  0  0  0  0  0  0
  -25.2860  -31.5180   26.2120 C   0  0  0  0  0  1  0  0  0  0  0  0
  -26.9780  -30.3750   24.7720 C   0  0  0  0  0  1  0  0  0  0  0  0
  -27.5360  -32.5490   25.8250 C   0  0  0  0  0  1  0  0  0  0  0  0
  -25.5730  -33.9180   24.1940 N   0  0  0  0  0  0  0  0  0  0  0  0
  -25.9100  -34.9690   23.4340 C   0  0  0  0  0  0  0  0  0  0  0  0
  -26.5890  -34.8650   22.4100 O   0  0  0  0  0  0  0  0  0  0  0  0
  -24.9740  -34.0770   24.9910 H   0  0  0  0  0  0  0  0  0  0  0  0
  -24.1820  -36.7590   23.0590 C   0  0  0  0  0  1  0  0  0  0  0  0
  -25.4180  -36.3590   23.8820 C   0  0  0  0  0  3  0  0  0  0  0  0
  -27.5430  -37.2490   24.7280 C   0  0  0  0  0  1  0  0  0  0  0  0
  -26.4500  -37.4130   23.7740 N   0  0  0  0  0  0  0  0  0  0  0  0
  -26.0400  -38.3330   23.9160 H   0  0  0  0  0  0  0  0  0  0  0  0
  -28.7010  -21.2520   19.9420 C   0  0  0  0  0  2  0  0  0  0  0  0
  -31.0490  -20.6460   19.1190 C   0  0  0  0  0  1  0  0  0  0  0  0
  -29.9730  -20.3230   20.1710 C   0  0  0  0  0  3  0  0  0  0  0  0
  -30.6770  -14.6450   20.1900 C   0  0  0  0  0  0  0  0  0  0  0  0
  -30.3680  -12.4260   19.1340 C   0  0  0  0  0  2  0  0  0  0  0  0
  -29.4000  -12.5690   17.9410 C   0  0  0  0  0  2  0  0  0  0  0  0
  -27.9410  -12.4180   18.4120 C   0  0  0  0  0  2  0  0  0  0  0  0
  -27.6180  -13.2760   19.6660 C   0  0  0  0  0  3  0  0  0  0  0  0
  -28.7100  -13.1480   20.7490 C   0  0  0  0  0  2  0  0  0  0  0  0
  -29.9950  -13.4610   20.1180 N   0  0  0  0  0  0  0  0  0  0  0  0
  -31.8630  -14.7080   19.8510 O   0  0  0  0  0  0  0  0  0  0  0  0
  -30.3600  -16.6980   21.4770 C   0  0  0  0  0  2  0  0  0  0  0  0
  -29.7350  -16.5990   19.1040 C   0  0  0  0  0  2  0  0  0  0  0  0
  -29.7500  -18.1430   21.5180 C   0  0  0  0  0  2  0  0  0  0  0  0
  -29.1430  -18.0430   19.2440 C   0  0  0  0  0  2  0  0  0  0  0  0
  -29.9600  -15.8120   20.3520 N   0  0  0  0  0  0  0  0  0  0  0  0
  -29.8980  -18.8200   20.2280 N   0  0  0  0  0  0  0  0  0  0  0  0
  -25.2490  -13.8560   20.4620 C   0  0  0  0  0  0  0  0  0  0  0  0
  -24.1940  -13.0750   20.8500 C   0  0  0  0  0  0  0  0  0  0  0  0
  -24.6590  -11.7260   20.7960 C   0  0  0  0  0  0  0  0  0  0  0  0
  -26.2880  -12.9810   20.1920 N   0  0  0  0  0  0  0  0  0  0  0  0
  -25.9430  -11.6950   20.4550 N   0  0  0  0  0  0  0  0  0  0  0  0
  -23.9420  -10.4590   20.9940 C   0  0  0  0  0  0  0  0  0  0  0  0
  -24.3900   -9.4930   21.9220 C   0  0  0  0  0  3  0  0  0  0  0  0
  -23.6720   -8.2920   22.1080 C   0  0  0  0  0  3  0  0  0  0  0  0
  -22.4920   -8.0480   21.3660 C   0  0  0  0  0  0  0  0  0  0  0  0
  -22.0630   -9.0030   20.4270 C   0  0  0  0  0  3  0  0  0  0  0  0
  -22.7820  -10.1950   20.2400 C   0  0  0  0  0  3  0  0  0  0  0  0
  -21.7430   -6.9010   21.4610 O   0  0  0  0  0  0  0  0  0  0  0  0
  -21.6960   -6.1670   22.6190 C   0  0  0  0  0  0  0  0  0  0  0  0
  -21.2590   -6.7280   23.8390 C   0  0  0  0  0  3  0  0  0  0  0  0
  -21.1590   -5.9210   24.9900 C   0  0  0  0  0  3  0  0  0  0  0  0
  -21.4840   -4.5520   24.9220 C   0  0  0  0  0  0  0  0  0  0  0  0
  -21.9130   -3.9900   23.7060 C   0  0  0  0  0  3  0  0  0  0  0  0
  -22.0150   -4.7950   22.5580 C   0  0  0  0  0  0  0  0  0  0  0  0
  -22.4080   -4.2440   21.3830 F   0  0  0  0  0  0  0  0  0  0  0  0
  -21.3810   -3.7740   26.0240 F   0  0  0  0  0  0  0  0  0  0  0  0
  -22.8020  -13.5450   21.1600 C   0  0  0  0  0  0  0  0  0  0  0  0
  -22.0990  -12.8410   22.0400 N   0  0  0  0  0  0  0  0  0  0  0  0
  -22.3490  -14.5730   20.6580 O   0  0  0  0  0  0  0  0  0  0  0  0
  -22.4810  -12.0100   22.4680 H   0  0  0  0  0  0  0  0  0  0  0  0
  -21.1660  -13.1370   22.2890 H   0  0  0  0  0  0  0  0  0  0  0  0
  -25.4060  -15.2290   20.2940 N   0  0  0  0  0  0  0  0  0  0  0  0
  -24.6470  -15.8850   20.4400 H   0  0  0  0  0  0  0  0  0  0  0  0
  -26.2620  -15.6730   19.9880 H   0  0  0  0  0  0  0  0  0  0  0  0
  1  3  1  0
  1  2  1  0
  4  1  1  0
  4  5  2  0
  6  5  1  0
  7 18  2  0
  8  6  1  0
  8 13  1  0
  9 17  1  0
  9 19  1  0
 10 16  1  0
 10 12  1  0
 11 17  1  0
 12 13  2  0
 12 11  1  0
 14  8  2  0
 15 14  1  0
 15 10  2  0
 16  9  1  0
 17  7  1  0
 19 21  2  0
 20 19  1  0
 22 20  1  0
 23 32  2  0
 23 28  1  0
 24 20  1  0
 24 28  1  0
 25 24  1  0
 26 27  1  0
 26 25  1  0
 27 23  1  0
 28 29  2  0
 29 30  1  0
 31 30  2  0
 32 31  1  0
 33  7  1  0
 33 38  1  0
 33 34  1  0
 34 37  1  1
 34 35  1  0
 36 34  1  0
 38 41  1  0
 39 43  1  0
 39 38  1  0
 40 39  2  0
 43 42  1  0
 45 43  1  0
 45 46  1  0
 45 44  1  0
 47 49  1  0
 47  1  1  0
 49 48  1  0
 49 63  1  0
 50 62  1  0
 51 56  1  0
 52 53  1  0
 52 51  1  0
 54 53  1  0
 54 67  1  0
 54 55  1  0
 56 50  1  0
 56 55  1  0
 57 50  2  0
 58 60  1  0
 59 61  1  0
 59 62  1  0
 61 63  1  0
 62 58  1  0
 63 60  1  0
 64 65  2  0
 65 84  1  0
 66 65  1  0
 66 69  1  0
 67 68  1  0
 67 64  1  0
 68 66  2  0
 69 70  1  0
 70 71  2  0
 72 75  1  0
 72 71  1  0
 73 72  2  0
 74 73  1  0
 74 69  2  0
 75 76  1  0
 76 77  1  0
 77 78  2  0
 79 78  1  0
 79 83  1  0
 80 79  2  0
 81 76  2  0
 81 80  1  0
 82 81  1  0
 84 85  1  0
 85 88  1  0
 85 87  1  0
 86 84  2  0
 89 90  1  0
 89 64  1  0
 91 89  1  0
M  ISO  4   5 101   6 101  50 100  62 100
M  END
>  <TORSDO>  (28) 
F 20

>  <SCORE>  (28) 
-13.650

>  <name>  (28) 
27

>  <ligand_id>  (28) 
27

>  <original_smiles>  (28) 
[H]c1c([H])c([H])c2c(c1[H])C([H])([H])C([H])([H])C([H])([H])C2([H])N([H])C(=O)C1([H])N(C(=O)C([H])(N([H])C(=O)C([H])(N([H])C([H])([H])[H])C([H])([H])[H])C(C([H])([H])[H])(C([H])([H])[H])C([H])([H])[H])C([H])([H])c2c([H])c(OC([H])([H])C([H])([H])[N+]([H])([H])C([H])([H])C([H])(N3C([H])([H])C([H])([H])N(C(=O)N4C([H])([H])C([H])([H])C([H])([H])C([H])(n5nc(-c6c([H])c([H])c(Oc7c([H])c([H])c(F)c([H])c7F)c([H])c6[H])c(C(=O)N([H])[H])c5N([H])[H])C4([H])[H])C([H])([H])C3([H])[H])C([H])([H])[H])c([H])c([H])c2C1([H])[H]

>  <smiles>  (28) 
[H]c1c([H])c([H])c2c(c1[H])C([H])([H])C([H])([H])C([H])([H])C2([H])N([H])C(=O)C1([H])N(C(=O)C([H])(N([H])C(=O)C([H])(N([H])C([H])([H])[H])C([H])([H])[H])C(C([H])([H])[H])(C([H])([H])[H])C([H])([H])[H])C([H])([H])c2c([H])c(OC([H])([H])C([H])([H])[N+]([H])([H])C([H])([H])C([H])(N3C([H])([H])C([H])([H])N(C(=O)N4C([H])([H])C([H])([H])C([H])([H])C([H])(n5nc(-c6c([H])c([H])c(Oc7c([H])c([H])c(F)c([H])c7F)c([H])c6[H])c(C(=O)N([H])[H])c5N([H])[H])C4([H])[H])C([H])([H])C3([H])[H])C([H])([H])[H])c([H])c([H])c2C1([H])[H]

$$$$
28:0:0
     RDKit          3D

 96105  0  0  1  0  0  0  0  0999 V2000
  -30.7780  -15.3370   19.6330 C   0  0  0  0  0  0  0  0  0  0  0  0
  -30.6140  -12.9040   19.0460 C   0  0  0  0  0  2  0  0  0  0  0  0
  -29.6630  -12.6690   17.8530 C   0  0  0  0  0  2  0  0  0  0  0  0
  -28.2250  -12.4670   18.3580 C   0  0  0  0  0  2  0  0  0  0  0  0
  -27.8040  -13.5450   19.3880 C   0  0  0  0  0  3  0  0  0  0  0  0
  -28.8830  -13.8050   20.4630 C   0  0  0  0  0  2  0  0  0  0  0  0
  -30.1400  -14.1130   19.7710 N   0  0  0  0  0  0  0  0  0  0  0  0
  -31.9620  -15.3260   19.2900 O   0  0  0  0  0  0  0  0  0  0  0  0
  -29.3140  -23.1100   17.4330 C   0  0  0  0  0  3  0  0  0  0  0  0
  -29.7530  -21.7650   17.7030 C   0  0  0  0  0  0  0  0  0  0  0  0
  -28.3000  -23.7170   18.2240 C   0  0  0  0  0  0  0  0  0  0  0  0
  -29.1750  -21.0100   18.7700 C   0  0  0  0  0  0  0  0  0  0  0  0
  -28.5690  -18.5270   18.8800 C   0  0  0  0  0  2  0  0  0  0  0  0
  -29.2360  -17.0940   18.7070 C   0  0  0  0  0  2  0  0  0  0  0  0
  -30.3630  -19.2690   20.2040 C   0  0  0  0  0  2  0  0  0  0  0  0
  -30.9510  -17.7730   20.2740 C   0  0  0  0  0  3  0  0  0  0  0  0
  -30.7930  -21.1240   16.8020 C   0  0  0  0  0  1  0  0  0  0  0  0
  -27.8100  -22.9390   19.2530 N   0  0  0  0  0  0  0  0  0  0  0  0
  -28.2290  -21.6610   19.5200 N   0  0  0  0  0  0  0  0  0  0  0  0
  -29.5410  -19.6170   19.0330 N   0  0  0  0  0  0  0  0  0  0  0  0
  -30.1290  -16.5830   19.7990 N   0  0  0  0  0  0  0  0  0  0  0  0
  -25.5080  -14.1730   20.3280 C   0  0  0  0  0  0  0  0  0  0  0  0
  -24.4420  -13.4150   20.7280 C   0  0  0  0  0  0  0  0  0  0  0  0
  -24.8530  -12.0530   20.5960 C   0  0  0  0  0  0  0  0  0  0  0  0
  -26.4970  -13.2720   19.9690 N   0  0  0  0  0  0  0  0  0  0  0  0
  -26.1170  -11.9890   20.1970 N   0  0  0  0  0  0  0  0  0  0  0  0
  -24.0970  -10.8070   20.7700 C   0  0  0  0  0  0  0  0  0  0  0  0
  -24.4500   -9.8600   21.7560 C   0  0  0  0  0  3  0  0  0  0  0  0
  -23.6950   -8.6790   21.9170 C   0  0  0  0  0  3  0  0  0  0  0  0
  -22.5730   -8.4360   21.0880 C   0  0  0  0  0  0  0  0  0  0  0  0
  -22.2390   -9.3710   20.0940 C   0  0  0  0  0  3  0  0  0  0  0  0
  -22.9950  -10.5430   19.9310 C   0  0  0  0  0  3  0  0  0  0  0  0
  -21.7960   -7.3040   21.1570 O   0  0  0  0  0  0  0  0  0  0  0  0
  -21.5250   -6.6890   22.3520 C   0  0  0  0  0  0  0  0  0  0  0  0
  -20.8490   -7.3540   23.3970 C   0  0  0  0  0  3  0  0  0  0  0  0
  -20.5290   -6.6620   24.5830 C   0  0  0  0  0  3  0  0  0  0  0  0
  -20.8760   -5.3050   24.7210 C   0  0  0  0  0  0  0  0  0  0  0  0
  -21.5450   -4.6380   23.6790 C   0  0  0  0  0  3  0  0  0  0  0  0
  -21.8660   -5.3280   22.4970 C   0  0  0  0  0  0  0  0  0  0  0  0
  -22.4910   -4.6760   21.4870 F   0  0  0  0  0  0  0  0  0  0  0  0
  -20.5620   -4.6370   25.8560 F   0  0  0  0  0  0  0  0  0  0  0  0
  -23.0850  -13.9230   21.1180 C   0  0  0  0  0  0  0  0  0  0  0  0
  -22.4130  -13.2330   22.0330 N   0  0  0  0  0  0  0  0  0  0  0  0
  -22.6340  -14.9660   20.6480 O   0  0  0  0  0  0  0  0  0  0  0  0
  -22.7920  -12.3890   22.4330 H   0  0  0  0  0  0  0  0  0  0  0  0
  -21.5050  -13.5570   22.3400 H   0  0  0  0  0  0  0  0  0  0  0  0
  -25.7160  -15.5440   20.2150 N   0  0  0  0  0  0  0  0  0  0  0  0
  -24.9930  -16.2230   20.4290 H   0  0  0  0  0  0  0  0  0  0  0  0
  -26.5680  -15.9670   19.8730 H   0  0  0  0  0  0  0  0  0  0  0  0
  -27.4240  -24.9840   17.7350 C   0  0  0  0  0  2  0  0  0  0  0  0
  -27.7010  -26.4780   17.8710 O   0  0  0  0  0  0  0  0  0  0  0  0
  -24.1450  -30.9520   22.4270 C   0  0  0  0  0  0  0  0  0  0  0  0
  -26.5680  -27.3120   18.1360 C   0  0  0  0  0  0  0  0  0  0  0  0
  -22.8070  -29.7510   20.7420 C   0  0  0  0  0  3  0  0  0  0  0  0
  -24.1190  -28.6850   18.8190 C   0  0  0  0  0  0  0  0  0  0  0  0
  -25.2530  -30.3760   20.2460 C   0  0  0  0  0  2  0  0  0  0  0  0
  -25.3380  -29.1600   19.3200 C   0  0  0  0  0  0  0  0  0  0  0  0
  -26.5630  -28.4880   18.9730 C   0  0  0  0  0  3  0  0  0  0  0  0
  -25.3080  -26.9460   17.6030 C   0  0  0  0  0  3  0  0  0  0  0  0
  -24.1090  -27.5920   17.9500 C   0  0  0  0  0  3  0  0  0  0  0  0
  -22.8400  -29.3850   19.2370 C   0  0  0  0  0  2  0  0  0  0  0  0
  -24.0960  -30.3690   21.1920 N   0  0  0  0  0  0  0  0  0  0  0  0
  -23.1480  -30.9950   23.1630 O   0  0  0  0  0  0  0  0  0  0  0  0
  -22.4100  -28.4990   21.5630 C   0  0  0  0  0  0  0  0  0  0  0  0
  -21.1090  -28.1550   21.5610 N   0  0  0  0  0  0  0  0  0  0  0  0
  -23.2650  -27.8470   22.1670 O   0  0  0  0  0  0  0  0  0  0  0  0
  -20.4640  -28.7450   21.0520 H   0  0  0  0  0  0  0  0  0  0  0  0
  -18.0210  -26.3650   22.1580 C   0  0  0  0  0  0  0  0  0  0  0  0
  -20.5280  -26.9920   22.2340 C   0  0  0  0  0  3  0  0  0  0  0  0
  -20.7690  -25.7000   21.4190 C   0  0  0  0  0  2  0  0  0  0  0  0
  -19.6150  -25.3610   20.4700 C   0  0  0  0  0  2  0  0  0  0  0  0
  -18.3100  -25.1810   21.2500 C   0  0  0  0  0  2  0  0  0  0  0  0
  -19.0580  -27.2240   22.6070 C   0  0  0  0  0  0  0  0  0  0  0  0
  -18.7280  -28.3270   23.4230 C   0  0  0  0  0  3  0  0  0  0  0  0
  -17.3920  -28.5790   23.7870 C   0  0  0  0  0  3  0  0  0  0  0  0
  -16.3720  -27.7180   23.3510 C   0  0  0  0  0  3  0  0  0  0  0  0
  -16.6860  -26.6100   22.5450 C   0  0  0  0  0  3  0  0  0  0  0  0
  -25.4510  -31.6130   22.9640 C   0  0  0  0  0  3  0  0  0  0  0  0
  -25.0770  -32.8820   23.6080 N   0  0  0  0  0  0  0  0  0  0  0  0
  -25.2640  -34.0940   23.0700 C   0  0  0  0  0  0  0  0  0  0  0  0
  -25.8390  -34.2650   21.9920 O   0  0  0  0  0  0  0  0  0  0  0  0
  -24.5530  -32.8150   24.4680 H   0  0  0  0  0  0  0  0  0  0  0  0
  -23.4170  -35.7970   23.2150 C   0  0  0  0  0  1  0  0  0  0  0  0
  -24.7290  -35.3100   23.8510 C   0  0  0  0  0  3  0  0  0  0  0  0
  -26.8550  -36.1380   24.7610 C   0  0  0  0  0  1  0  0  0  0  0  0
  -25.6920  -36.4310   23.9270 N   0  0  0  0  0  0  0  0  0  0  0  0
  -25.2430  -37.2670   24.2920 H   0  0  0  0  0  0  0  0  0  0  0  0
  -26.2420  -30.6930   23.9730 C   0  0  1  0  0  0  0  0  0  0  0  0
  -25.3730  -30.1520   25.1330 C   0  0  0  0  0  1  0  0  0  0  0  0
  -26.8590  -29.4780   23.2440 C   0  0  0  0  0  1  0  0  0  0  0  0
  -27.4220  -31.4840   24.5850 C   0  0  0  0  0  1  0  0  0  0  0  0
  -31.5920  -17.5220   21.6680 C   0  0  0  0  0  2  0  0  0  0  0  0
  -31.2130  -17.3970   24.1170 C   0  0  0  0  0  1  0  0  0  0  0  0
  -30.6110  -17.5560   22.7780 N   0  0  0  0  0  4  0  0  0  0  0  0
  -30.1120  -18.4320   22.7650 H   0  0  0  0  0  0  0  0  0  0  0  0
  -29.9310  -16.8240   22.6590 H   0  0  0  0  0  0  0  0  0  0  0  0
  1  7  1  0
  1 21  1  0
  2  7  1  0
  3  4  1  0
  3  2  1  0
  5  4  1  0
  5 25  1  0
  5  6  1  0
  7  6  1  0
  8  1  2  0
  9 10  2  0
  9 11  1  0
 10 12  1  0
 11 18  2  0
 12 20  1  0
 12 19  2  0
 13 20  1  0
 14 13  1  0
 14 21  1  0
 15 16  1  0
 16 92  1  0
 17 10  1  0
 18 19  1  0
 20 15  1  0
 21 16  1  0
 22 23  2  0
 23 42  1  0
 24 23  1  0
 24 27  1  0
 25 26  1  0
 25 22  1  0
 26 24  2  0
 27 28  1  0
 28 29  2  0
 30 33  1  0
 30 29  1  0
 31 30  2  0
 32 31  1  0
 32 27  2  0
 33 34  1  0
 34 39  2  0
 34 35  1  0
 35 36  2  0
 36 37  1  0
 37 41  1  0
 38 37  2  0
 39 38  1  0
 40 39  1  0
 42 43  1  0
 43 46  1  0
 43 45  1  0
 44 42  2  0
 47 22  1  0
 47 48  1  0
 49 47  1  0
 50 51  1  0
 50 11  1  0
 51 53  1  0
 52 63  2  0
 53 58  1  0
 54 62  1  0
 54 64  1  0
 55 61  1  0
 55 57  1  0
 56 62  1  0
 57 56  1  0
 58 57  2  0
 59 60  1  0
 59 53  2  0
 60 55  2  0
 61 54  1  0
 62 52  1  0
 64 66  2  0
 65 64  1  0
 67 65  1  0
 68 77  2  0
 68 73  1  0
 69 65  1  0
 69 73  1  0
 70 69  1  0
 71 72  1  0
 71 70  1  0
 72 68  1  0
 73 74  2  0
 74 75  1  0
 76 75  2  0
 77 76  1  0
 78 52  1  0
 78 79  1  0
 78 88  1  0
 79 82  1  0
 80 79  1  0
 80 84  1  0
 81 80  2  0
 84 83  1  0
 84 86  1  0
 86 87  1  0
 86 85  1  0
 88 91  1  1
 88 89  1  0
 90 88  1  0
 92 94  1  0
 94 93  1  0
 95 94  1  0
 96 94  1  0
M  ISO  4   1 100  21 100  50 101  51 101
M  END
>  <TORSDO>  (29) 
F 18

>  <SCORE>  (29) 
-8.998

>  <name>  (29) 
28

>  <ligand_id>  (29) 
28

>  <original_smiles>  (29) 
[H]c1c([H])c([H])c2c(c1[H])C([H])([H])C([H])([H])C([H])([H])C2([H])N([H])C(=O)C1([H])N(C(=O)C([H])(N([H])C(=O)C([H])(N([H])C([H])([H])[H])C([H])([H])[H])C(C([H])([H])[H])(C([H])([H])[H])C([H])([H])[H])C([H])([H])c2c([H])c(OC([H])([H])c3nnc(N4C([H])([H])C([H])([H])N(C(=O)N5C([H])([H])C([H])([H])C([H])([H])C([H])(n6nc(-c7c([H])c([H])c(Oc8c([H])c([H])c(F)c([H])c8F)c([H])c7[H])c(C(=O)N([H])[H])c6N([H])[H])C5([H])[H])C([H])(C([H])([H])[N+]([H])([H])C([H])([H])[H])C4([H])[H])c(C([H])([H])[H])c3[H])c([H])c([H])c2C1([H])[H]

>  <smiles>  (29) 
[H]c1c([H])c([H])c2c(c1[H])C([H])([H])C([H])([H])C([H])([H])C2([H])N([H])C(=O)C1([H])N(C(=O)C([H])(N([H])C(=O)C([H])(N([H])C([H])([H])[H])C([H])([H])[H])C(C([H])([H])[H])(C([H])([H])[H])C([H])([H])[H])C([H])([H])c2c([H])c(OC([H])([H])c3nnc(N4C([H])([H])C([H])([H])N(C(=O)N5C([H])([H])C([H])([H])C([H])([H])C([H])(n6nc(-c7c([H])c([H])c(Oc8c([H])c([H])c(F)c([H])c8F)c([H])c7[H])c(C(=O)N([H])[H])c6N([H])[H])C5([H])[H])C([H])(C([H])([H])[N+]([H])([H])C([H])([H])[H])C4([H])[H])c(C([H])([H])[H])c3[H])c([H])c([H])c2C1([H])[H]

$$$$
29:0:0
     RDKit          3D

 97106  0  0  1  0  0  0  0  0999 V2000
  -31.0150  -23.2840   21.4130 N   0  0  0  0  0  4  0  0  0  0  0  0
  -30.2930  -22.9240   20.8080 H   0  0  0  0  0  0  0  0  0  0  0  0
  -31.8020  -23.5180   20.8280 H   0  0  0  0  0  0  0  0  0  0  0  0
  -31.4110  -22.2380   22.3940 C   0  0  0  0  0  2  0  0  0  0  0  0
  -31.9970  -19.6130   22.5370 C   0  0  0  0  0  2  0  0  0  0  0  0
  -30.3030  -19.9940   21.4760 C   0  0  0  0  0  2  0  0  0  0  0  0
  -31.5450  -20.8550   21.7380 C   0  0  0  0  0  3  0  0  0  0  0  0
  -31.1840  -18.8270   21.5980 N   0  0  2  0  0  4  0  0  0  0  0  0
  -31.6790  -18.7000   20.7280 H   0  0  0  0  0  0  0  0  0  0  0  0
  -30.6490  -14.4080   20.0640 C   0  0  0  0  0  0  0  0  0  0  0  0
  -30.2200  -12.3350   18.7750 C   0  0  0  0  0  2  0  0  0  0  0  0
  -29.1970  -12.5820   17.6500 C   0  0  0  0  0  2  0  0  0  0  0  0
  -27.7590  -12.4030   18.1650 C   0  0  0  0  0  2  0  0  0  0  0  0
  -27.5150  -13.1490   19.5010 C   0  0  0  0  0  3  0  0  0  0  0  0
  -28.6510  -12.8630   20.5170 C   0  0  0  0  0  2  0  0  0  0  0  0
  -29.9280  -13.2530   19.8980 N   0  0  0  0  0  0  0  0  0  0  0  0
  -31.6390  -14.6320   19.3510 O   0  0  0  0  0  0  0  0  0  0  0  0
  -29.1560  -17.2930   21.5760 C   0  0  0  0  0  2  0  0  0  0  0  0
  -29.0430  -15.7740   21.4620 C   0  0  0  0  0  2  0  0  0  0  0  0
  -31.3440  -16.3300   21.4460 C   0  0  0  0  0  2  0  0  0  0  0  0
  -30.5910  -17.5320   22.0390 C   0  0  0  0  0  3  0  0  0  0  0  0
  -30.3720  -15.2660   21.0920 N   0  0  0  0  0  0  0  0  0  0  0  0
  -25.1550  -13.6860   20.3780 C   0  0  0  0  0  0  0  0  0  0  0  0
  -24.1350  -12.8800   20.8120 C   0  0  0  0  0  0  0  0  0  0  0  0
  -24.6280  -11.5430   20.7290 C   0  0  0  0  0  0  0  0  0  0  0  0
  -26.2010  -12.8370   20.0600 N   0  0  0  0  0  0  0  0  0  0  0  0
  -25.8920  -11.5410   20.3230 N   0  0  0  0  0  0  0  0  0  0  0  0
  -23.9470  -10.2580   20.9500 C   0  0  0  0  0  0  0  0  0  0  0  0
  -24.4100   -9.3370   21.9170 C   0  0  0  0  0  3  0  0  0  0  0  0
  -23.7320   -8.1170   22.1210 C   0  0  0  0  0  3  0  0  0  0  0  0
  -22.5770   -7.8110   21.3630 C   0  0  0  0  0  0  0  0  0  0  0  0
  -22.1350   -8.7220   20.3890 C   0  0  0  0  0  3  0  0  0  0  0  0
  -22.8130   -9.9340   20.1800 C   0  0  0  0  0  3  0  0  0  0  0  0
  -21.8660   -6.6400   21.4800 O   0  0  0  0  0  0  0  0  0  0  0  0
  -21.7750   -5.9690   22.6750 C   0  0  0  0  0  0  0  0  0  0  0  0
  -21.2360   -6.5750   23.8320 C   0  0  0  0  0  3  0  0  0  0  0  0
  -21.0920   -5.8270   25.0160 C   0  0  0  0  0  3  0  0  0  0  0  0
  -21.4820   -4.4740   25.0500 C   0  0  0  0  0  0  0  0  0  0  0  0
  -22.0140   -3.8680   23.8970 C   0  0  0  0  0  3  0  0  0  0  0  0
  -22.1580   -4.6130   22.7140 C   0  0  0  0  0  0  0  0  0  0  0  0
  -22.6520   -4.0150   21.6020 F   0  0  0  0  0  0  0  0  0  0  0  0
  -21.3350   -3.7550   26.1850 F   0  0  0  0  0  0  0  0  0  0  0  0
  -22.7480  -13.3180   21.1870 C   0  0  0  0  0  0  0  0  0  0  0  0
  -22.1010  -12.6030   22.1040 N   0  0  0  0  0  0  0  0  0  0  0  0
  -22.2490  -14.3370   20.7070 O   0  0  0  0  0  0  0  0  0  0  0  0
  -22.5120  -11.7780   22.5130 H   0  0  0  0  0  0  0  0  0  0  0  0
  -21.1760  -12.8850   22.3950 H   0  0  0  0  0  0  0  0  0  0  0  0
  -25.2710  -15.0640   20.2110 N   0  0  0  0  0  0  0  0  0  0  0  0
  -24.4920  -15.6930   20.3720 H   0  0  0  0  0  0  0  0  0  0  0  0
  -26.0650  -15.5190   19.7800 H   0  0  0  0  0  0  0  0  0  0  0  0
  -30.4970  -24.5320   22.0130 C   0  0  0  0  0  2  0  0  0  0  0  0
  -30.0580  -25.5540   20.9310 C   0  0  0  0  0  3  0  0  0  0  0  0
  -30.9570  -26.7030   20.9020 N   0  0  0  0  0  0  0  0  0  0  0  0
  -30.8950  -27.2050   21.7840 H   0  0  0  0  0  0  0  0  0  0  0  0
  -30.5820  -27.3660   20.2320 H   0  0  0  0  0  0  0  0  0  0  0  0
  -28.6050  -26.0500   21.1070 C   0  0  0  0  0  2  0  0  0  0  0  0
  -28.2190  -26.6860   19.8890 O   0  0  0  0  0  0  0  0  0  0  0  0
  -24.4730  -31.8050   23.1170 C   0  0  0  0  0  0  0  0  0  0  0  0
  -27.0540  -27.4020   19.9690 C   0  0  0  0  0  0  0  0  0  0  0  0
  -23.2350  -30.4230   21.4840 C   0  0  0  0  0  3  0  0  0  0  0  0
  -24.6600  -28.8790   20.0350 C   0  0  0  0  0  0  0  0  0  0  0  0
  -25.7570  -30.7760   21.2470 C   0  0  0  0  0  2  0  0  0  0  0  0
  -25.8250  -29.4080   20.6070 C   0  0  0  0  0  0  0  0  0  0  0  0
  -27.0260  -28.6730   20.5790 C   0  0  0  0  0  3  0  0  0  0  0  0
  -25.8800  -26.8770   19.3940 C   0  0  0  0  0  3  0  0  0  0  0  0
  -24.6790  -27.6120   19.4280 C   0  0  0  0  0  3  0  0  0  0  0  0
  -23.4200  -29.7430   20.1010 C   0  0  0  0  0  2  0  0  0  0  0  0
  -24.5080  -31.0170   22.0080 N   0  0  0  0  0  0  0  0  0  0  0  0
  -23.4020  -32.0820   23.6730 O   0  0  0  0  0  0  0  0  0  0  0  0
  -22.5890  -29.4000   22.4470 C   0  0  0  0  0  0  0  0  0  0  0  0
  -21.2620  -29.2350   22.3370 N   0  0  0  0  0  0  0  0  0  0  0  0
  -23.2780  -28.7570   23.2420 O   0  0  0  0  0  0  0  0  0  0  0  0
  -20.7650  -29.8070   21.6710 H   0  0  0  0  0  0  0  0  0  0  0  0
  -17.8750  -28.1240   22.9120 C   0  0  0  0  0  0  0  0  0  0  0  0
  -20.4470  -28.3040   23.1120 C   0  0  0  0  0  3  0  0  0  0  0  0
  -20.4920  -26.8840   22.5040 C   0  0  0  0  0  2  0  0  0  0  0  0
  -19.3510  -26.6170   21.5170 C   0  0  0  0  0  2  0  0  0  0  0  0
  -17.9920  -26.7870   22.2040 C   0  0  0  0  0  2  0  0  0  0  0  0
  -19.0270  -28.8430   23.3270 C   0  0  0  0  0  0  0  0  0  0  0  0
  -18.8610  -30.1020   23.9460 C   0  0  0  0  0  3  0  0  0  0  0  0
  -17.5750  -30.6340   24.1620 C   0  0  0  0  0  3  0  0  0  0  0  0
  -16.4380  -29.9090   23.7660 C   0  0  0  0  0  3  0  0  0  0  0  0
  -16.5900  -28.6570   23.1450 C   0  0  0  0  0  3  0  0  0  0  0  0
  -25.7740  -32.4170   23.7240 C   0  0  0  0  0  3  0  0  0  0  0  0
  -25.4760  -33.8120   24.0770 N   0  0  0  0  0  0  0  0  0  0  0  0
  -25.8340  -34.8730   23.3430 C   0  0  0  0  0  0  0  0  0  0  0  0
  -26.5180  -34.7840   22.3210 O   0  0  0  0  0  0  0  0  0  0  0  0
  -24.8640  -33.9610   24.8670 H   0  0  0  0  0  0  0  0  0  0  0  0
  -24.1580  -36.7100   22.9820 C   0  0  0  0  0  1  0  0  0  0  0  0
  -25.3640  -36.2580   23.8230 C   0  0  0  0  0  3  0  0  0  0  0  0
  -27.4810  -37.0750   24.7600 C   0  0  0  0  0  1  0  0  0  0  0  0
  -26.4220  -37.2870   23.7750 N   0  0  0  0  0  0  0  0  0  0  0  0
  -26.0300  -38.2110   23.9320 H   0  0  0  0  0  0  0  0  0  0  0  0
  -26.3220  -31.6230   24.9720 C   0  0  1  0  0  0  0  0  0  0  0  0
  -25.2460  -31.3420   26.0480 C   0  0  0  0  0  1  0  0  0  0  0  0
  -26.9270  -30.2670   24.5390 C   0  0  0  0  0  1  0  0  0  0  0  0
  -27.4720  -32.4250   25.6300 C   0  0  0  0  0  1  0  0  0  0  0  0
  1 51  1  0
  1  4  1  0
  2  1  1  0
  3  1  1  0
  6  8  1  0
  6  7  1  0
  7  4  1  0
  7  5  1  0
  8  9  1  6
  8 21  1  0
  8  5  1  0
 10 22  1  0
 11 16  1  0
 12 13  1  0
 12 11  1  0
 14 13  1  0
 14 26  1  0
 14 15  1  0
 16 10  1  0
 16 15  1  0
 17 10  2  0
 18 21  1  0
 19 18  1  0
 21 20  1  0
 22 20  1  0
 22 19  1  0
 23 24  2  0
 24 43  1  0
 25 24  1  0
 25 28  1  0
 26 27  1  0
 26 23  1  0
 27 25  2  0
 28 29  1  0
 29 30  2  0
 31 34  1  0
 31 30  1  0
 32 31  2  0
 33 32  1  0
 33 28  2  0
 34 35  1  0
 35 40  2  0
 35 36  1  0
 36 37  2  0
 37 38  1  0
 38 42  1  0
 39 38  2  0
 40 39  1  0
 41 40  1  0
 43 44  1  0
 44 47  1  0
 44 46  1  0
 45 43  2  0
 48 49  1  0
 48 23  1  0
 50 48  1  0
 52 56  1  0
 52 51  1  0
 53 52  1  0
 53 54  1  0
 55 53  1  0
 57 59  1  0
 57 56  1  0
 58 69  2  0
 59 64  1  0
 60 68  1  0
 60 70  1  0
 61 67  1  0
 61 63  1  0
 62 68  1  0
 63 62  1  0
 64 63  2  0
 65 66  1  0
 65 59  2  0
 66 61  2  0
 67 60  1  0
 68 58  1  0
 70 72  2  0
 71 70  1  0
 73 71  1  0
 74 83  2  0
 74 79  1  0
 75 71  1  0
 75 79  1  0
 76 75  1  0
 77 78  1  0
 77 76  1  0
 78 74  1  0
 79 80  2  0
 80 81  1  0
 82 81  2  0
 83 82  1  0
 84 58  1  0
 84 85  1  0
 84 94  1  0
 85 88  1  0
 86 90  1  0
 86 85  1  0
 87 86  2  0
 90 89  1  0
 92 90  1  0
 92 93  1  0
 92 91  1  0
 94 97  1  1
 94 95  1  0
 96 94  1  0
M  ISO  4  10 100  22 100  56 101  57 101
M  END
>  <TORSDO>  (30) 
F 22

>  <SCORE>  (30) 
-11.877

>  <name>  (30) 
29

>  <ligand_id>  (30) 
29

>  <original_smiles>  (30) 
[H]c1c([H])c([H])c2c(c1[H])C([H])([H])C([H])([H])C([H])([H])C2([H])N([H])C(=O)C1([H])N(C(=O)C([H])(N([H])C(=O)C([H])(N([H])C([H])([H])[H])C([H])([H])[H])C(C([H])([H])[H])(C([H])([H])[H])C([H])([H])[H])C([H])([H])c2c([H])c(OC([H])([H])C([H])(N([H])[H])C([H])([H])[N+]([H])([H])C([H])([H])C3([H])C([H])([H])[N+]([H])(C4([H])C([H])([H])N(C(=O)N5C([H])([H])C([H])([H])C([H])([H])C([H])(n6nc(-c7c([H])c([H])c(Oc8c([H])c([H])c(F)c([H])c8F)c([H])c7[H])c(C(=O)N([H])[H])c6N([H])[H])C5([H])[H])C([H])([H])C4([H])[H])C3([H])[H])c([H])c([H])c2C1([H])[H]

>  <smiles>  (30) 
[H]c1c([H])c([H])c2c(c1[H])C([H])([H])C([H])([H])C([H])([H])C2([H])N([H])C(=O)C1([H])N(C(=O)C([H])(N([H])C(=O)C([H])(N([H])C([H])([H])[H])C([H])([H])[H])C(C([H])([H])[H])(C([H])([H])[H])C([H])([H])[H])C([H])([H])c2c([H])c(OC([H])([H])C([H])(N([H])[H])C([H])([H])[N+]([H])([H])C([H])([H])C3([H])C([H])([H])[N+]([H])(C4([H])C([H])([H])N(C(=O)N5C([H])([H])C([H])([H])C([H])([H])C([H])(n6nc(-c7c([H])c([H])c(Oc8c([H])c([H])c(F)c([H])c8F)c([H])c7[H])c(C(=O)N([H])[H])c6N([H])[H])C5([H])[H])C([H])([H])C4([H])[H])C3([H])[H])c([H])c([H])c2C1([H])[H]

$$$$
30:0:0
     RDKit          3D

 95104  0  0  1  0  0  0  0  0999 V2000
  -25.7170  -19.9600   18.8890 C   0  0  0  0  0  2  0  0  0  0  0  0
  -26.7920  -20.5930   18.0060 C   0  0  0  0  0  2  0  0  0  0  0  0
  -26.4890  -18.8550   19.6020 C   0  0  0  0  0  2  0  0  0  0  0  0
  -28.0810  -20.5330   18.8620 C   0  0  0  0  0  3  0  0  0  0  0  0
  -27.8670  -19.3720   19.7820 N   0  0  2  0  0  4  0  0  0  0  0  0
  -27.8490  -19.8880   20.6590 H   0  0  0  0  0  0  0  0  0  0  0  0
  -30.8050  -14.4290   19.9770 C   0  0  0  0  0  0  0  0  0  0  0  0
  -30.3700  -12.2470   18.9280 C   0  0  0  0  0  2  0  0  0  0  0  0
  -29.3780  -12.4750   17.7700 C   0  0  0  0  0  2  0  0  0  0  0  0
  -27.9360  -12.3380   18.2860 C   0  0  0  0  0  2  0  0  0  0  0  0
  -27.6680  -13.1930   19.5540 C   0  0  0  0  0  3  0  0  0  0  0  0
  -28.7910  -13.0190   20.6000 C   0  0  0  0  0  2  0  0  0  0  0  0
  -30.0810  -13.2760   19.9390 N   0  0  0  0  0  0  0  0  0  0  0  0
  -31.9790  -14.4750   19.5950 O   0  0  0  0  0  0  0  0  0  0  0  0
  -29.2630  -17.5710   18.6300 C   0  0  0  0  0  2  0  0  0  0  0  0
  -28.6750  -17.3340   21.0580 C   0  0  0  0  0  2  0  0  0  0  0  0
  -30.3980  -16.5540   18.8760 C   0  0  0  0  0  2  0  0  0  0  0  0
  -29.7980  -16.2790   21.2160 C   0  0  0  0  0  2  0  0  0  0  0  0
  -28.9560  -18.3540   19.9220 C   0  0  0  0  0  3  0  0  0  0  0  0
  -30.0810  -15.5830   19.9510 N   0  0  0  0  0  0  0  0  0  0  0  0
  -25.3330  -13.8150   20.4290 C   0  0  0  0  0  0  0  0  0  0  0  0
  -24.2740  -13.0570   20.8560 C   0  0  0  0  0  0  0  0  0  0  0  0
  -24.7080  -11.6960   20.7630 C   0  0  0  0  0  0  0  0  0  0  0  0
  -26.3450  -12.9200   20.1160 N   0  0  0  0  0  0  0  0  0  0  0  0
  -25.9770  -11.6380   20.3770 N   0  0  0  0  0  0  0  0  0  0  0  0
  -23.9600  -10.4480   20.9650 C   0  0  0  0  0  0  0  0  0  0  0  0
  -24.4060   -9.4710   21.8800 C   0  0  0  0  0  3  0  0  0  0  0  0
  -23.6740   -8.2800   22.0640 C   0  0  0  0  0  3  0  0  0  0  0  0
  -22.4820   -8.0590   21.3330 C   0  0  0  0  0  0  0  0  0  0  0  0
  -22.0580   -9.0260   20.4010 C   0  0  0  0  0  3  0  0  0  0  0  0
  -22.7900  -10.2120   20.2160 C   0  0  0  0  0  3  0  0  0  0  0  0
  -21.7210   -6.9160   21.4320 O   0  0  0  0  0  0  0  0  0  0  0  0
  -21.6250   -6.2070   22.6040 C   0  0  0  0  0  0  0  0  0  0  0  0
  -21.1650   -6.7990   23.7980 C   0  0  0  0  0  3  0  0  0  0  0  0
  -21.0160   -6.0180   24.9600 C   0  0  0  0  0  3  0  0  0  0  0  0
  -21.3220   -4.6440   24.9330 C   0  0  0  0  0  0  0  0  0  0  0  0
  -21.7760   -4.0510   23.7430 C   0  0  0  0  0  3  0  0  0  0  0  0
  -21.9240   -4.8280   22.5810 C   0  0  0  0  0  0  0  0  0  0  0  0
  -22.3430   -4.2450   21.4330 F   0  0  0  0  0  0  0  0  0  0  0  0
  -21.1720   -3.8910   26.0460 F   0  0  0  0  0  0  0  0  0  0  0  0
  -22.9050  -13.5440   21.2240 C   0  0  0  0  0  0  0  0  0  0  0  0
  -22.2460  -12.8680   22.1590 N   0  0  0  0  0  0  0  0  0  0  0  0
  -22.4280  -14.5600   20.7220 O   0  0  0  0  0  0  0  0  0  0  0  0
  -21.3280  -13.1670   22.4510 H   0  0  0  0  0  0  0  0  0  0  0  0
  -22.6960  -12.1230   22.6700 H   0  0  0  0  0  0  0  0  0  0  0  0
  -25.5180  -15.1830   20.2540 N   0  0  0  0  0  0  0  0  0  0  0  0
  -24.7630  -15.8460   20.3680 H   0  0  0  0  0  0  0  0  0  0  0  0
  -26.3290  -15.5630   19.7850 H   0  0  0  0  0  0  0  0  0  0  0  0
  -28.2610  -21.8000   19.7350 C   0  0  0  0  0  0  0  0  0  0  0  0
  -28.5400  -23.0000   19.1820 N   0  0  0  0  0  0  0  0  0  0  0  0
  -28.1250  -21.6830   20.9550 O   0  0  0  0  0  0  0  0  0  0  0  0
  -28.7060  -23.0680   18.1850 H   0  0  0  0  0  0  0  0  0  0  0  0
  -28.5930  -24.2300   19.9940 C   0  0  0  0  0  2  0  0  0  0  0  0
  -28.7300  -25.5440   19.1930 C   0  0  0  0  0  2  0  0  0  0  0  0
  -28.5150  -26.7070   20.0170 O   0  0  0  0  0  0  0  0  0  0  0  0
  -24.5290  -31.7440   23.1320 C   0  0  0  0  0  0  0  0  0  0  0  0
  -27.2980  -27.3680   20.0180 C   0  0  0  0  0  0  0  0  0  0  0  0
  -23.3730  -30.3480   21.4490 C   0  0  0  0  0  3  0  0  0  0  0  0
  -24.8680  -28.8380   20.0410 C   0  0  0  0  0  0  0  0  0  0  0  0
  -25.9040  -30.7260   21.3240 C   0  0  0  0  0  2  0  0  0  0  0  0
  -26.0100  -29.3710   20.6460 C   0  0  0  0  0  0  0  0  0  0  0  0
  -27.2250  -28.6430   20.6290 C   0  0  0  0  0  3  0  0  0  0  0  0
  -26.1190  -26.8360   19.4430 C   0  0  0  0  0  3  0  0  0  0  0  0
  -24.9130  -27.5660   19.4470 C   0  0  0  0  0  3  0  0  0  0  0  0
  -23.6160  -29.6850   20.0660 C   0  0  0  0  0  2  0  0  0  0  0  0
  -24.6150  -30.9570   22.0230 N   0  0  0  0  0  0  0  0  0  0  0  0
  -23.4330  -32.0000   23.6540 O   0  0  0  0  0  0  0  0  0  0  0  0
  -22.7130  -29.3110   22.3850 C   0  0  0  0  0  0  0  0  0  0  0  0
  -21.3890  -29.1330   22.2440 N   0  0  0  0  0  0  0  0  0  0  0  0
  -23.3900  -28.6700   23.1930 O   0  0  0  0  0  0  0  0  0  0  0  0
  -20.9090  -29.6960   21.5560 H   0  0  0  0  0  0  0  0  0  0  0  0
  -18.0050  -27.9560   22.7050 C   0  0  0  0  0  0  0  0  0  0  0  0
  -20.5640  -28.1830   22.9870 C   0  0  0  0  0  3  0  0  0  0  0  0
  -20.6560  -26.7690   22.3680 C   0  0  0  0  0  2  0  0  0  0  0  0
  -19.5520  -26.4850   21.3470 C   0  0  0  0  0  2  0  0  0  0  0  0
  -18.1710  -26.6250   21.9950 C   0  0  0  0  0  2  0  0  0  0  0  0
  -19.1290  -28.6970   23.1580 C   0  0  0  0  0  0  0  0  0  0  0  0
  -18.9210  -29.9460   23.7770 C   0  0  0  0  0  3  0  0  0  0  0  0
  -17.6210  -30.4540   23.9610 C   0  0  0  0  0  3  0  0  0  0  0  0
  -16.5110  -29.7070   23.5320 C   0  0  0  0  0  3  0  0  0  0  0  0
  -16.7040  -28.4630   22.9060 C   0  0  0  0  0  3  0  0  0  0  0  0
  -25.7990  -32.3790   23.7830 C   0  0  0  0  0  3  0  0  0  0  0  0
  -26.3070  -31.5980   25.0590 C   0  0  1  0  0  0  0  0  0  0  0  0
  -25.2060  -31.3330   26.1120 C   0  0  0  0  0  1  0  0  0  0  0  0
  -26.9150  -30.2350   24.6630 C   0  0  0  0  0  1  0  0  0  0  0  0
  -27.4340  -32.4000   25.7540 C   0  0  0  0  0  1  0  0  0  0  0  0
  -25.4700  -33.7670   24.1340 N   0  0  0  0  0  0  0  0  0  0  0  0
  -25.7880  -34.8370   23.3910 C   0  0  0  0  0  0  0  0  0  0  0  0
  -26.4620  -34.7590   22.3600 O   0  0  0  0  0  0  0  0  0  0  0  0
  -24.8790  -33.9050   24.9410 H   0  0  0  0  0  0  0  0  0  0  0  0
  -24.0270  -36.5970   23.0580 C   0  0  0  0  0  1  0  0  0  0  0  0
  -25.2750  -36.2090   23.8660 C   0  0  0  0  0  3  0  0  0  0  0  0
  -27.3890  -37.1210   24.7180 C   0  0  0  0  0  1  0  0  0  0  0  0
  -26.2890  -37.2820   23.7690 N   0  0  0  0  0  0  0  0  0  0  0  0
  -25.8670  -38.1940   23.9250 H   0  0  0  0  0  0  0  0  0  0  0  0
  1  3  1  0
  2  4  1  0
  2  1  1  0
  3  5  1  0
  4 49  1  0
  4  5  1  0
  5 19  1  0
  5  6  1  1
  8 13  1  0
  9 10  1  0
  9  8  1  0
 11 10  1  0
 11 24  1  0
 11 12  1  0
 13  7  1  0
 13 12  1  0
 14  7  2  0
 15 17  1  0
 16 18  1  0
 17 20  1  0
 19 15  1  0
 19 16  1  0
 20  7  1  0
 20 18  1  0
 21 22  2  0
 22 41  1  0
 23 22  1  0
 23 26  1  0
 24 25  1  0
 24 21  1  0
 25 23  2  0
 26 27  1  0
 27 28  2  0
 29 32  1  0
 29 28  1  0
 30 29  2  0
 31 30  1  0
 31 26  2  0
 32 33  1  0
 33 34  1  0
 34 35  2  0
 36 35  1  0
 36 40  1  0
 37 36  2  0
 38 33  2  0
 38 37  1  0
 39 38  1  0
 41 42  1  0
 42 44  1  0
 42 45  1  0
 43 41  2  0
 46 47  1  0
 46 21  1  0
 48 46  1  0
 49 51  2  0
 50 49  1  0
 50 53  1  0
 52 50  1  0
 54 53  1  0
 54 55  1  0
 55 57  1  0
 56 67  2  0
 57 62  1  0
 58 66  1  0
 58 68  1  0
 59 65  1  0
 59 61  1  0
 60 66  1  0
 61 60  1  0
 62 61  2  0
 63 64  1  0
 63 57  2  0
 64 59  2  0
 65 58  1  0
 66 56  1  0
 68 70  2  0
 69 68  1  0
 71 69  1  0
 72 81  2  0
 72 77  1  0
 73 69  1  0
 73 77  1  0
 74 73  1  0
 75 76  1  0
 75 74  1  0
 76 72  1  0
 77 78  2  0
 78 79  1  0
 80 79  2  0
 81 80  1  0
 82 56  1  0
 82 87  1  0
 82 83  1  0
 83 86  1  1
 83 84  1  0
 85 83  1  0
 87 90  1  0
 88 92  1  0
 88 87  1  0
 89 88  2  0
 92 91  1  0
 94 92  1  0
 94 95  1  0
 94 93  1  0
M  ISO  4   7 100  20 100  54 101  55 101
M  END
>  <TORSDO>  (31) 
F 19

>  <SCORE>  (31) 
-13.410

>  <name>  (31) 
30

>  <ligand_id>  (31) 
30

>  <original_smiles>  (31) 
[H]c1c([H])c([H])c2c(c1[H])C([H])([H])C([H])([H])C([H])([H])C2([H])N([H])C(=O)C1([H])N(C(=O)C([H])(N([H])C(=O)C([H])(N([H])C([H])([H])[H])C([H])([H])[H])C(C([H])([H])[H])(C([H])([H])[H])C([H])([H])[H])C([H])([H])c2c([H])c(OC([H])([H])C([H])([H])N([H])C(=O)C3([H])C([H])([H])C([H])([H])C([H])([H])[N+]3([H])C3([H])C([H])([H])C([H])([H])N(C(=O)N4C([H])([H])C([H])([H])C([H])([H])C([H])(n5nc(-c6c([H])c([H])c(Oc7c([H])c([H])c(F)c([H])c7F)c([H])c6[H])c(C(=O)N([H])[H])c5N([H])[H])C4([H])[H])C([H])([H])C3([H])[H])c([H])c([H])c2C1([H])[H]

>  <smiles>  (31) 
[H]c1c([H])c([H])c2c(c1[H])C([H])([H])C([H])([H])C([H])([H])C2([H])N([H])C(=O)C1([H])N(C(=O)C([H])(N([H])C(=O)C([H])(N([H])C([H])([H])[H])C([H])([H])[H])C(C([H])([H])[H])(C([H])([H])[H])C([H])([H])[H])C([H])([H])c2c([H])c(OC([H])([H])C([H])([H])N([H])C(=O)C3([H])C([H])([H])C([H])([H])C([H])([H])[N+]3([H])C3([H])C([H])([H])C([H])([H])N(C(=O)N4C([H])([H])C([H])([H])C([H])([H])C([H])(n5nc(-c6c([H])c([H])c(Oc7c([H])c([H])c(F)c([H])c7F)c([H])c6[H])c(C(=O)N([H])[H])c5N([H])[H])C4([H])[H])C([H])([H])C3([H])[H])c([H])c([H])c2C1([H])[H]

$$$$
31:0:0
     RDKit          3D

 92100  0  0  1  0  0  0  0  0999 V2000
  -27.1660  -23.3150   19.2730 C   0  0  0  0  0  2  0  0  0  0  0  0
  -28.6530  -23.7300   19.4390 C   0  0  0  0  0  3  0  0  0  0  0  0
  -27.4180  -22.0670   20.1620 C   0  0  0  0  0  3  0  0  0  0  0  0
  -28.7570  -22.0160   19.4340 C   0  0  0  0  0  3  0  0  0  0  0  0
  -26.4790  -20.9530   20.1390 N   0  0  0  0  0  0  0  0  0  0  0  0
  -25.5280  -21.3160   20.1470 H   0  0  0  0  0  0  0  0  0  0  0  0
  -26.5360  -20.4530   21.0230 H   0  0  0  0  0  0  0  0  0  0  0  0
  -29.8290  -20.9300   19.8670 N   0  0  0  0  0  4  0  0  0  0  0  0
  -30.1130  -21.1280   20.8120 H   0  0  0  0  0  0  0  0  0  0  0  0
  -30.6360  -21.0890   19.2900 H   0  0  0  0  0  0  0  0  0  0  0  0
  -29.4990  -19.3660   19.7640 C   0  0  0  0  0  3  0  0  0  0  0  0
  -30.6070  -18.0870   19.9470 C   0  0  0  0  0  3  0  0  0  0  0  0
  -31.0040  -15.3360   19.8250 C   0  0  0  0  0  0  0  0  0  0  0  0
  -30.8350  -12.9420   18.9850 C   0  0  0  0  0  2  0  0  0  0  0  0
  -29.8670  -12.8590   17.7830 C   0  0  0  0  0  2  0  0  0  0  0  0
  -28.4170  -12.6780   18.2740 C   0  0  0  0  0  2  0  0  0  0  0  0
  -28.0540  -13.6530   19.4270 C   0  0  0  0  0  3  0  0  0  0  0  0
  -29.1470  -13.6940   20.5150 C   0  0  0  0  0  2  0  0  0  0  0  0
  -30.3980  -14.0790   19.8480 N   0  0  0  0  0  0  0  0  0  0  0  0
  -32.1910  -15.3820   19.4870 O   0  0  0  0  0  0  0  0  0  0  0  0
  -30.2470  -16.5350   19.9870 N   0  0  0  0  0  0  0  0  0  0  0  0
  -29.2840  -16.3470   20.2300 H   0  0  0  0  0  0  0  0  0  0  0  0
  -25.7430  -14.2920   20.3140 C   0  0  0  0  0  0  0  0  0  0  0  0
  -24.6670  -13.5480   20.7080 C   0  0  0  0  0  0  0  0  0  0  0  0
  -25.0690  -12.1800   20.5910 C   0  0  0  0  0  0  0  0  0  0  0  0
  -26.7320  -13.3840   19.9790 N   0  0  0  0  0  0  0  0  0  0  0  0
  -26.3380  -12.1040   20.2090 N   0  0  0  0  0  0  0  0  0  0  0  0
  -24.2980  -10.9420   20.7650 C   0  0  0  0  0  0  0  0  0  0  0  0
  -24.6930   -9.9490   21.6880 C   0  0  0  0  0  3  0  0  0  0  0  0
  -23.9250   -8.7770   21.8520 C   0  0  0  0  0  3  0  0  0  0  0  0
  -22.7460   -8.5900   21.0910 C   0  0  0  0  0  0  0  0  0  0  0  0
  -22.3680   -9.5710   20.1580 C   0  0  0  0  0  3  0  0  0  0  0  0
  -23.1370  -10.7350   19.9930 C   0  0  0  0  0  3  0  0  0  0  0  0
  -21.9520   -7.4710   21.1640 O   0  0  0  0  0  0  0  0  0  0  0  0
  -21.8080   -6.7620   22.3310 C   0  0  0  0  0  0  0  0  0  0  0  0
  -21.2470   -7.3430   23.4880 C   0  0  0  0  0  3  0  0  0  0  0  0
  -21.0550   -6.5620   24.6460 C   0  0  0  0  0  3  0  0  0  0  0  0
  -21.4110   -5.2000   24.6440 C   0  0  0  0  0  0  0  0  0  0  0  0
  -21.9670   -4.6190   23.4910 C   0  0  0  0  0  3  0  0  0  0  0  0
  -22.1630   -5.3970   22.3370 C   0  0  0  0  0  0  0  0  0  0  0  0
  -22.6780   -4.8270   21.2210 F   0  0  0  0  0  0  0  0  0  0  0  0
  -21.2210   -4.4480   25.7520 F   0  0  0  0  0  0  0  0  0  0  0  0
  -23.3090  -14.0700   21.0770 C   0  0  0  0  0  0  0  0  0  0  0  0
  -22.6030  -13.3760   21.9620 N   0  0  0  0  0  0  0  0  0  0  0  0
  -22.8850  -15.1290   20.6150 O   0  0  0  0  0  0  0  0  0  0  0  0
  -22.9560  -12.5170   22.3580 H   0  0  0  0  0  0  0  0  0  0  0  0
  -21.6940  -13.7100   22.2490 H   0  0  0  0  0  0  0  0  0  0  0  0
  -25.9600  -15.6620   20.1860 N   0  0  0  0  0  0  0  0  0  0  0  0
  -25.2280  -16.3440   20.3560 H   0  0  0  0  0  0  0  0  0  0  0  0
  -26.7900  -16.0670   19.7740 H   0  0  0  0  0  0  0  0  0  0  0  0
  -28.6300  -25.0390   20.4930 C   0  0  0  0  0  2  0  0  0  0  0  0
  -28.6320  -26.5600   20.1480 O   0  0  0  0  0  0  0  0  0  0  0  0
  -24.7160  -31.9790   23.2920 C   0  0  0  0  0  0  0  0  0  0  0  0
  -27.5010  -27.4500   20.1890 C   0  0  0  0  0  0  0  0  0  0  0  0
  -23.5880  -30.5980   21.5890 C   0  0  0  0  0  3  0  0  0  0  0  0
  -25.1120  -29.1060   20.1520 C   0  0  0  0  0  0  0  0  0  0  0  0
  -26.1340  -30.9520   21.4770 C   0  0  0  0  0  2  0  0  0  0  0  0
  -26.2640  -29.5810   20.7950 C   0  0  0  0  0  0  0  0  0  0  0  0
  -27.4610  -28.7710   20.7900 C   0  0  0  0  0  3  0  0  0  0  0  0
  -26.3200  -27.0650   19.5230 C   0  0  0  0  0  3  0  0  0  0  0  0
  -25.1530  -27.8620   19.5010 C   0  0  0  0  0  3  0  0  0  0  0  0
  -23.8550  -29.9640   20.1970 C   0  0  0  0  0  2  0  0  0  0  0  0
  -24.8310  -31.1960   22.1760 N   0  0  0  0  0  0  0  0  0  0  0  0
  -23.6130  -32.2140   23.8080 O   0  0  0  0  0  0  0  0  0  0  0  0
  -22.9240  -29.5420   22.5090 C   0  0  0  0  0  0  0  0  0  0  0  0
  -21.6040  -29.3380   22.3540 N   0  0  0  0  0  0  0  0  0  0  0  0
  -23.6000  -28.9110   23.3240 O   0  0  0  0  0  0  0  0  0  0  0  0
  -21.1130  -29.8950   21.6700 H   0  0  0  0  0  0  0  0  0  0  0  0
  -18.2460  -28.0580   22.7880 C   0  0  0  0  0  0  0  0  0  0  0  0
  -20.7970  -28.3550   23.0820 C   0  0  0  0  0  3  0  0  0  0  0  0
  -20.9320  -26.9510   22.4480 C   0  0  0  0  0  2  0  0  0  0  0  0
  -19.8420  -26.6490   21.4160 C   0  0  0  0  0  2  0  0  0  0  0  0
  -18.4540  -26.7440   22.0550 C   0  0  0  0  0  2  0  0  0  0  0  0
  -19.3470  -28.8220   23.2570 C   0  0  0  0  0  0  0  0  0  0  0  0
  -19.1020  -30.0510   23.9040 C   0  0  0  0  0  3  0  0  0  0  0  0
  -17.7860  -30.5190   24.0880 C   0  0  0  0  0  3  0  0  0  0  0  0
  -16.6990  -29.7510   23.6380 C   0  0  0  0  0  3  0  0  0  0  0  0
  -16.9300  -28.5230   22.9930 C   0  0  0  0  0  3  0  0  0  0  0  0
  -25.9630  -32.6350   23.9610 C   0  0  0  0  0  3  0  0  0  0  0  0
  -25.6220  -34.0330   24.2700 N   0  0  0  0  0  0  0  0  0  0  0  0
  -25.9610  -35.0860   23.5150 C   0  0  0  0  0  0  0  0  0  0  0  0
  -26.6590  -34.9830   22.5020 O   0  0  0  0  0  0  0  0  0  0  0  0
  -25.0030  -34.1870   25.0520 H   0  0  0  0  0  0  0  0  0  0  0  0
  -24.2180  -36.8550   23.1090 C   0  0  0  0  0  1  0  0  0  0  0  0
  -25.4460  -36.4720   23.9500 C   0  0  0  0  0  3  0  0  0  0  0  0
  -27.5390  -37.4060   24.8330 C   0  0  0  0  0  1  0  0  0  0  0  0
  -26.4670  -37.5400   23.8500 N   0  0  0  0  0  0  0  0  0  0  0  0
  -26.0430  -38.4570   23.9660 H   0  0  0  0  0  0  0  0  0  0  0  0
  -26.4300  -31.8840   25.2700 C   0  0  1  0  0  0  0  0  0  0  0  0
  -25.2860  -31.6170   26.2780 C   0  0  0  0  0  1  0  0  0  0  0  0
  -27.0730  -30.5240   24.9200 C   0  0  0  0  0  1  0  0  0  0  0  0
  -27.5170  -32.7140   25.9910 C   0  0  0  0  0  1  0  0  0  0  0  0
  1  2  1  0
  1  3  1  0
  2 51  1  0
  3  5  1  0
  4  2  1  0
  4  8  1  0
  4  3  1  0
  5  6  1  0
  5  7  1  0
  8  9  1  0
 10  8  1  0
 11  8  1  0
 11 12  2  0
 12 21  1  0
 13 19  1  0
 13 21  1  0
 14 19  1  0
 15 16  1  0
 15 14  1  0
 17 16  1  0
 17 26  1  0
 17 18  1  0
 19 18  1  0
 20 13  2  0
 21 22  1  0
 23 24  2  0
 24 43  1  0
 25 24  1  0
 25 28  1  0
 26 27  1  0
 26 23  1  0
 27 25  2  0
 28 29  1  0
 29 30  2  0
 31 34  1  0
 31 30  1  0
 32 31  2  0
 33 32  1  0
 33 28  2  0
 34 35  1  0
 35 40  2  0
 35 36  1  0
 36 37  2  0
 38 37  1  0
 38 42  1  0
 39 38  2  0
 40 39  1  0
 41 40  1  0
 43 44  1  0
 44 47  1  0
 44 46  1  0
 45 43  2  0
 48 23  1  0
 48 49  1  0
 50 48  1  0
 52 54  1  0
 52 51  1  0
 53 64  2  0
 54 59  1  0
 55 63  1  0
 55 65  1  0
 56 62  1  0
 56 58  1  0
 57 63  1  0
 58 57  1  0
 59 58  2  0
 60 54  2  0
 61 60  1  0
 61 56  2  0
 62 55  1  0
 63 53  1  0
 65 67  2  0
 66 65  1  0
 68 66  1  0
 69 78  2  0
 69 74  1  0
 70 66  1  0
 70 74  1  0
 71 70  1  0
 72 73  1  0
 72 71  1  0
 73 69  1  0
 74 75  2  0
 75 76  1  0
 77 76  2  0
 78 77  1  0
 79 53  1  0
 79 80  1  0
 79 89  1  0
 80 83  1  0
 81 85  1  0
 81 80  1  0
 82 81  2  0
 85 84  1  0
 87 85  1  0
 87 88  1  0
 87 86  1  0
 89 92  1  1
 89 90  1  0
 91 89  1  0
M  ISO  4  13 100  21 100  51 101  52 101
M  END
>  <TORSDO>  (32) 
F 21

>  <SCORE>  (32) 
-12.753

>  <name>  (32) 
31

>  <ligand_id>  (32) 
31

>  <original_smiles>  (32) 
[H]c1c([H])c([H])c2c(c1[H])C([H])([H])C([H])([H])C([H])([H])C2([H])N([H])C(=O)C1([H])N(C(=O)C([H])(N([H])C(=O)C([H])(N([H])C([H])([H])[H])C([H])([H])[H])C(C([H])([H])[H])(C([H])([H])[H])C([H])([H])[H])C([H])([H])c2c([H])c(OC([H])([H])C3([H])C([H])([H])C([H])(N([H])[H])C3([H])[N+]([H])([H])C([H])([H])C([H])([H])N([H])C(=O)N3C([H])([H])C([H])([H])C([H])([H])C([H])(n4nc(-c5c([H])c([H])c(Oc6c([H])c([H])c(F)c([H])c6F)c([H])c5[H])c(C(=O)N([H])[H])c4N([H])[H])C3([H])[H])c([H])c([H])c2C1([H])[H]

>  <smiles>  (32) 
[H]c1c([H])c([H])c2c(c1[H])C([H])([H])C([H])([H])C([H])([H])C2([H])N([H])C(=O)C1([H])N(C(=O)C([H])(N([H])C(=O)C([H])(N([H])C([H])([H])[H])C([H])([H])[H])C(C([H])([H])[H])(C([H])([H])[H])C([H])([H])[H])C([H])([H])c2c([H])c(OC([H])([H])C3([H])C([H])([H])C([H])(N([H])[H])C3([H])[N+]([H])([H])C([H])([H])C([H])([H])N([H])C(=O)N3C([H])([H])C([H])([H])C([H])([H])C([H])(n4nc(-c5c([H])c([H])c(Oc6c([H])c([H])c(F)c([H])c6F)c([H])c5[H])c(C(=O)N([H])[H])c4N([H])[H])C3([H])[H])c([H])c([H])c2C1([H])[H]

$$$$
32:0:0
     RDKit          3D

 97106  0  0  1  0  0  0  0  0999 V2000
  -29.3010  -24.0720   20.4890 C   0  0  0  0  0  3  0  0  0  0  0  0
  -30.5640  -24.4560   19.7980 N   0  0  0  0  0  4  0  0  0  0  0  0
  -31.1990  -23.6750   19.8080 H   0  0  0  0  0  0  0  0  0  0  0  0
  -30.3560  -24.6590   18.8330 H   0  0  0  0  0  0  0  0  0  0  0  0
  -31.3140  -25.6010   20.3670 C   0  0  0  0  0  2  0  0  0  0  0  0
  -32.0880  -27.7920   19.2930 C   0  0  0  0  0  1  0  0  0  0  0  0
  -32.2360  -26.2630   19.3180 C   0  0  0  0  0  2  0  0  0  0  0  0
  -28.9970  -22.5170   20.2190 C   0  0  0  0  0  2  0  0  0  0  0  0
  -31.1650  -21.7860   21.5690 C   0  0  0  0  0  2  0  0  0  0  0  0
  -31.4720  -20.3100   21.4330 C   0  0  0  0  0  2  0  0  0  0  0  0
  -29.7430  -21.4410   21.1120 C   0  0  0  0  0  3  0  0  0  0  0  0
  -30.3540  -20.2050   20.4820 N   0  0  2  0  0  4  0  0  0  0  0  0
  -30.6890  -20.4460   19.5620 H   0  0  0  0  0  0  0  0  0  0  0  0
  -30.6760  -14.6170   20.0110 C   0  0  0  0  0  0  0  0  0  0  0  0
  -30.3570  -12.4110   18.9320 C   0  0  0  0  0  2  0  0  0  0  0  0
  -29.3560  -12.5800   17.7710 C   0  0  0  0  0  2  0  0  0  0  0  0
  -27.9080  -12.4230   18.2810 C   0  0  0  0  0  2  0  0  0  0  0  0
  -27.6270  -13.2720   19.5510 C   0  0  0  0  0  3  0  0  0  0  0  0
  -28.7450  -13.0980   20.6020 C   0  0  0  0  0  2  0  0  0  0  0  0
  -30.0180  -13.4210   19.9500 N   0  0  0  0  0  0  0  0  0  0  0  0
  -31.8200  -14.7350   19.5620 O   0  0  0  0  0  0  0  0  0  0  0  0
  -29.9380  -17.8300   21.5780 C   0  0  0  0  0  2  0  0  0  0  0  0
  -30.1860  -18.0770   19.1290 C   0  0  0  0  0  2  0  0  0  0  0  0
  -29.4180  -16.3640   21.3710 C   0  0  0  0  0  2  0  0  0  0  0  0
  -29.6400  -16.6280   18.9610 C   0  0  0  0  0  2  0  0  0  0  0  0
  -29.6830  -18.8330   20.3940 C   0  0  0  0  0  3  0  0  0  0  0  0
  -29.8810  -15.7370   20.1160 N   0  0  0  0  0  0  0  0  0  0  0  0
  -25.2930  -13.8770   20.4430 C   0  0  0  0  0  0  0  0  0  0  0  0
  -24.2420  -13.1040   20.8570 C   0  0  0  0  0  0  0  0  0  0  0  0
  -24.6810  -11.7490   20.7510 C   0  0  0  0  0  0  0  0  0  0  0  0
  -26.3080  -12.9920   20.1130 N   0  0  0  0  0  0  0  0  0  0  0  0
  -25.9480  -11.7060   20.3580 N   0  0  0  0  0  0  0  0  0  0  0  0
  -23.9530  -10.4900   20.9500 C   0  0  0  0  0  0  0  0  0  0  0  0
  -24.4000   -9.5140   21.8690 C   0  0  0  0  0  3  0  0  0  0  0  0
  -23.6710   -8.3180   22.0520 C   0  0  0  0  0  3  0  0  0  0  0  0
  -22.4840   -8.0910   21.3170 C   0  0  0  0  0  0  0  0  0  0  0  0
  -22.0590   -9.0550   20.3870 C   0  0  0  0  0  3  0  0  0  0  0  0
  -22.7870  -10.2410   20.2000 C   0  0  0  0  0  3  0  0  0  0  0  0
  -21.7260   -6.9490   21.4120 O   0  0  0  0  0  0  0  0  0  0  0  0
  -21.6440   -6.2340   22.5800 C   0  0  0  0  0  0  0  0  0  0  0  0
  -21.1800   -6.8160   23.7790 C   0  0  0  0  0  3  0  0  0  0  0  0
  -21.0440   -6.0280   24.9390 C   0  0  0  0  0  3  0  0  0  0  0  0
  -21.3630   -4.6570   24.9020 C   0  0  0  0  0  0  0  0  0  0  0  0
  -21.8210   -4.0740   23.7070 C   0  0  0  0  0  3  0  0  0  0  0  0
  -21.9580   -4.8590   22.5490 C   0  0  0  0  0  0  0  0  0  0  0  0
  -22.3790   -4.2870   21.3950 F   0  0  0  0  0  0  0  0  0  0  0  0
  -21.2260   -3.8980   26.0140 F   0  0  0  0  0  0  0  0  0  0  0  0
  -22.8710  -13.5890   21.2320 C   0  0  0  0  0  0  0  0  0  0  0  0
  -22.1880  -12.8820   22.1250 N   0  0  0  0  0  0  0  0  0  0  0  0
  -22.4160  -14.6330   20.7660 O   0  0  0  0  0  0  0  0  0  0  0  0
  -22.5710  -12.0390   22.5280 H   0  0  0  0  0  0  0  0  0  0  0  0
  -21.2700  -13.1910   22.4120 H   0  0  0  0  0  0  0  0  0  0  0  0
  -25.4630  -15.2500   20.3020 N   0  0  0  0  0  0  0  0  0  0  0  0
  -24.7130  -15.9060   20.4880 H   0  0  0  0  0  0  0  0  0  0  0  0
  -26.2970  -15.6920   19.9350 H   0  0  0  0  0  0  0  0  0  0  0  0
  -28.1400  -25.0670   20.0570 C   0  0  0  0  0  2  0  0  0  0  0  0
  -28.3370  -26.5180   20.2490 O   0  0  0  0  0  0  0  0  0  0  0  0
  -24.6100  -31.8790   23.2500 C   0  0  0  0  0  0  0  0  0  0  0  0
  -27.2150  -27.3510   20.1820 C   0  0  0  0  0  0  0  0  0  0  0  0
  -23.4040  -30.4800   21.6110 C   0  0  0  0  0  3  0  0  0  0  0  0
  -24.8530  -28.9450   20.1760 C   0  0  0  0  0  0  0  0  0  0  0  0
  -25.9430  -30.8080   21.4300 C   0  0  0  0  0  2  0  0  0  0  0  0
  -26.0200  -29.4380   20.7710 C   0  0  0  0  0  0  0  0  0  0  0  0
  -27.2070  -28.6520   20.7640 C   0  0  0  0  0  3  0  0  0  0  0  0
  -26.0270  -26.9090   19.5570 C   0  0  0  0  0  3  0  0  0  0  0  0
  -24.8570  -27.6860   19.5600 C   0  0  0  0  0  3  0  0  0  0  0  0
  -23.6140  -29.8110   20.2280 C   0  0  0  0  0  2  0  0  0  0  0  0
  -24.6690  -31.0740   22.1510 N   0  0  0  0  0  0  0  0  0  0  0  0
  -23.5280  -32.1550   23.7880 O   0  0  0  0  0  0  0  0  0  0  0  0
  -22.7480  -29.4590   22.5710 C   0  0  0  0  0  0  0  0  0  0  0  0
  -21.4240  -29.2760   22.4460 N   0  0  0  0  0  0  0  0  0  0  0  0
  -23.4310  -28.8330   23.3870 O   0  0  0  0  0  0  0  0  0  0  0  0
  -20.9320  -29.8320   21.7610 H   0  0  0  0  0  0  0  0  0  0  0  0
  -18.0500  -28.0710   22.9470 C   0  0  0  0  0  0  0  0  0  0  0  0
  -20.6070  -28.3380   23.2190 C   0  0  0  0  0  3  0  0  0  0  0  0
  -20.7130  -26.9050   22.6470 C   0  0  0  0  0  2  0  0  0  0  0  0
  -19.6130  -26.5770   21.6320 C   0  0  0  0  0  2  0  0  0  0  0  0
  -18.2300  -26.7200   22.2730 C   0  0  0  0  0  2  0  0  0  0  0  0
  -19.1660  -28.8370   23.3760 C   0  0  0  0  0  0  0  0  0  0  0  0
  -18.9420  -30.1020   23.9620 C   0  0  0  0  0  3  0  0  0  0  0  0
  -17.6350  -30.5990   24.1240 C   0  0  0  0  0  3  0  0  0  0  0  0
  -16.5340  -29.8290   23.7130 C   0  0  0  0  0  3  0  0  0  0  0  0
  -16.7430  -28.5660   23.1290 C   0  0  0  0  0  3  0  0  0  0  0  0
  -25.8950  -32.5110   23.8700 C   0  0  0  0  0  3  0  0  0  0  0  0
  -25.5830  -33.9070   24.2050 N   0  0  0  0  0  0  0  0  0  0  0  0
  -25.9040  -34.9640   23.4480 C   0  0  0  0  0  0  0  0  0  0  0  0
  -26.5640  -34.8660   22.4090 O   0  0  0  0  0  0  0  0  0  0  0  0
  -24.9950  -34.0560   25.0130 H   0  0  0  0  0  0  0  0  0  0  0  0
  -24.1640  -36.7520   23.1140 C   0  0  0  0  0  1  0  0  0  0  0  0
  -25.4140  -36.3470   23.9140 C   0  0  0  0  0  3  0  0  0  0  0  0
  -27.5500  -37.2410   24.7320 C   0  0  0  0  0  1  0  0  0  0  0  0
  -26.4410  -37.4050   23.7970 N   0  0  0  0  0  0  0  0  0  0  0  0
  -26.0310  -38.3220   23.9470 H   0  0  0  0  0  0  0  0  0  0  0  0
  -26.4200  -31.7390   25.1440 C   0  0  1  0  0  0  0  0  0  0  0  0
  -25.3310  -31.4950   26.2150 C   0  0  0  0  0  1  0  0  0  0  0  0
  -27.0110  -30.3640   24.7520 C   0  0  0  0  0  1  0  0  0  0  0  0
  -27.5670  -32.5400   25.8050 C   0  0  0  0  0  1  0  0  0  0  0  0
  1 56  1  0
  2  3  1  0
  2  5  1  0
  2  1  1  0
  4  2  1  0
  6  7  1  0
  7  5  1  0
  8  1  1  0
 10  9  1  0
 11  8  1  0
 11  9  1  0
 12 13  1  6
 12 11  1  0
 12 10  1  0
 14 27  1  0
 15 20  1  0
 16 17  1  0
 16 15  1  0
 18 17  1  0
 18 31  1  0
 18 19  1  0
 20 14  1  0
 20 19  1  0
 21 14  2  0
 24 22  1  0
 25 23  1  0
 25 27  1  0
 26 23  1  0
 26 12  1  0
 26 22  1  0
 27 24  1  0
 28 29  2  0
 29 48  1  0
 30 29  1  0
 30 33  1  0
 31 32  1  0
 31 28  1  0
 32 30  2  0
 33 34  1  0
 34 35  2  0
 36 39  1  0
 36 35  1  0
 37 36  2  0
 38 37  1  0
 38 33  2  0
 39 40  1  0
 40 41  1  0
 41 42  2  0
 43 42  1  0
 43 47  1  0
 44 43  2  0
 45 40  2  0
 45 44  1  0
 46 45  1  0
 48 49  1  0
 49 52  1  0
 49 51  1  0
 50 48  2  0
 53 28  1  0
 53 54  1  0
 55 53  1  0
 56 57  1  0
 58 69  2  0
 59 57  1  0
 59 64  1  0
 60 68  1  0
 60 70  1  0
 61 67  1  0
 61 63  1  0
 62 68  1  0
 63 62  1  0
 64 63  2  0
 65 66  1  0
 65 59  2  0
 66 61  2  0
 67 60  1  0
 68 58  1  0
 70 72  2  0
 71 70  1  0
 73 71  1  0
 74 83  2  0
 74 79  1  0
 75 71  1  0
 75 79  1  0
 76 75  1  0
 77 78  1  0
 77 76  1  0
 78 74  1  0
 79 80  2  0
 80 81  1  0
 82 81  2  0
 83 82  1  0
 84 58  1  0
 84 85  1  0
 84 94  1  0
 85 88  1  0
 86 90  1  0
 86 85  1  0
 87 86  2  0
 90 89  1  0
 92 90  1  0
 92 93  1  0
 92 91  1  0
 94 97  1  1
 94 95  1  0
 96 94  1  0
M  ISO  4  14 100  27 100  56 101  57 101
M  END
>  <TORSDO>  (33) 
F 22

>  <SCORE>  (33) 
-13.109

>  <name>  (33) 
32

>  <ligand_id>  (33) 
32

>  <original_smiles>  (33) 
[H]c1c([H])c([H])c2c(c1[H])C([H])([H])C([H])([H])C([H])([H])C2([H])N([H])C(=O)C1([H])N(C(=O)C([H])(N([H])C(=O)C([H])(N([H])C([H])([H])[H])C([H])([H])[H])C(C([H])([H])[H])(C([H])([H])[H])C([H])([H])[H])C([H])([H])c2c([H])c(OC([H])([H])C([H])(C([H])([H])C3([H])C([H])([H])C([H])([H])[N+]3([H])C3([H])C([H])([H])C([H])([H])N(C(=O)N4C([H])([H])C([H])([H])C([H])([H])C([H])(n5nc(-c6c([H])c([H])c(Oc7c([H])c([H])c(F)c([H])c7F)c([H])c6[H])c(C(=O)N([H])[H])c5N([H])[H])C4([H])[H])C([H])([H])C3([H])[H])[N+]([H])([H])C([H])([H])C([H])([H])C([H])([H])[H])c([H])c([H])c2C1([H])[H]

>  <smiles>  (33) 
[H]c1c([H])c([H])c2c(c1[H])C([H])([H])C([H])([H])C([H])([H])C2([H])N([H])C(=O)C1([H])N(C(=O)C([H])(N([H])C(=O)C([H])(N([H])C([H])([H])[H])C([H])([H])[H])C(C([H])([H])[H])(C([H])([H])[H])C([H])([H])[H])C([H])([H])c2c([H])c(OC([H])([H])C([H])(C([H])([H])C3([H])C([H])([H])C([H])([H])[N+]3([H])C3([H])C([H])([H])C([H])([H])N(C(=O)N4C([H])([H])C([H])([H])C([H])([H])C([H])(n5nc(-c6c([H])c([H])c(Oc7c([H])c([H])c(F)c([H])c7F)c([H])c6[H])c(C(=O)N([H])[H])c5N([H])[H])C4([H])[H])C([H])([H])C3([H])[H])[N+]([H])([H])C([H])([H])C([H])([H])C([H])([H])[H])c([H])c([H])c2C1([H])[H]

$$$$
33:0:0
     RDKit          3D

104113  0  0  1  0  0  0  0  0999 V2000
  -29.6580  -17.9640   19.8090 C   0  0  0  0  0  2  0  0  0  0  0  0
  -29.8580  -19.5060   20.0500 C   0  0  0  0  0  2  0  0  0  0  0  0
  -29.8330  -19.1130   22.4480 C   0  0  0  0  0  2  0  0  0  0  0  0
  -29.5570  -17.5900   22.2820 C   0  0  0  0  0  3  0  0  0  0  0  0
  -30.1730  -17.0530   20.9650 C   0  0  0  0  0  3  0  0  0  0  0  0
  -29.2830  -19.9670   21.3470 N   0  0  1  0  0  4  0  0  0  0  0  0
  -28.2920  -19.7880   21.3160 H   0  0  0  0  0  0  0  0  0  0  0  0
  -30.6440  -14.5610   20.4970 C   0  0  0  0  0  0  0  0  0  0  0  0
  -30.4290  -12.3400   19.4320 C   0  0  0  0  0  2  0  0  0  0  0  0
  -29.4950  -12.4910   18.2110 C   0  0  0  0  0  2  0  0  0  0  0  0
  -28.0180  -12.3410   18.6310 C   0  0  0  0  0  2  0  0  0  0  0  0
  -27.6540  -13.2060   19.8680 C   0  0  0  0  0  3  0  0  0  0  0  0
  -28.7020  -13.0300   20.9900 C   0  0  0  0  0  2  0  0  0  0  0  0
  -30.0180  -13.3510   20.4170 N   0  0  0  0  0  0  0  0  0  0  0  0
  -31.8140  -14.7280   20.1430 O   0  0  0  0  0  0  0  0  0  0  0  0
  -29.8370  -15.6090   20.7980 N   0  0  0  0  0  0  0  0  0  0  0  0
  -28.8820  -15.3510   21.0010 H   0  0  0  0  0  0  0  0  0  0  0  0
  -25.2570  -13.8160   20.5700 C   0  0  0  0  0  0  0  0  0  0  0  0
  -24.1820  -13.0430   20.9220 C   0  0  0  0  0  0  0  0  0  0  0  0
  -24.6370  -11.6900   20.8760 C   0  0  0  0  0  0  0  0  0  0  0  0
  -26.2990  -12.9310   20.3370 N   0  0  0  0  0  0  0  0  0  0  0  0
  -25.9300  -11.6480   20.5800 N   0  0  0  0  0  0  0  0  0  0  0  0
  -23.9040  -10.4280   21.0420 C   0  0  0  0  0  0  0  0  0  0  0  0
  -24.3610   -9.4200   21.9200 C   0  0  0  0  0  3  0  0  0  0  0  0
  -23.6300   -8.2230   22.0750 C   0  0  0  0  0  3  0  0  0  0  0  0
  -22.4280   -8.0270   21.3540 C   0  0  0  0  0  0  0  0  0  0  0  0
  -21.9900   -9.0240   20.4640 C   0  0  0  0  0  3  0  0  0  0  0  0
  -22.7220  -10.2130   20.3060 C   0  0  0  0  0  3  0  0  0  0  0  0
  -21.6640   -6.8870   21.4250 O   0  0  0  0  0  0  0  0  0  0  0  0
  -21.6840   -6.0730   22.5290 C   0  0  0  0  0  0  0  0  0  0  0  0
  -21.4000   -6.5640   23.8220 C   0  0  0  0  0  3  0  0  0  0  0  0
  -21.3660   -5.6790   24.9180 C   0  0  0  0  0  3  0  0  0  0  0  0
  -21.6050   -4.3050   24.7230 C   0  0  0  0  0  0  0  0  0  0  0  0
  -21.8810   -3.8140   23.4350 C   0  0  0  0  0  3  0  0  0  0  0  0
  -21.9190   -4.6960   22.3410 C   0  0  0  0  0  0  0  0  0  0  0  0
  -22.1660   -4.2140   21.0980 F   0  0  0  0  0  0  0  0  0  0  0  0
  -21.5640   -3.4540   25.7740 F   0  0  0  0  0  0  0  0  0  0  0  0
  -22.7850  -13.5240   21.1890 C   0  0  0  0  0  0  0  0  0  0  0  0
  -22.0500  -12.8210   22.0430 N   0  0  0  0  0  0  0  0  0  0  0  0
  -22.3540  -14.5560   20.6750 O   0  0  0  0  0  0  0  0  0  0  0  0
  -22.4090  -11.9830   22.4760 H   0  0  0  0  0  0  0  0  0  0  0  0
  -21.1140  -13.1250   22.2700 H   0  0  0  0  0  0  0  0  0  0  0  0
  -25.4320  -15.1860   20.4100 N   0  0  0  0  0  0  0  0  0  0  0  0
  -24.6600  -15.8390   20.4940 H   0  0  0  0  0  0  0  0  0  0  0  0
  -26.2760  -15.6180   20.0570 H   0  0  0  0  0  0  0  0  0  0  0  0
  -29.4760  -21.4220   21.7270 C   0  0  0  0  0  2  0  0  0  0  0  0
  -29.9550  -23.4990   20.3060 C   0  0  0  0  0  2  0  0  0  0  0  0
  -28.9930  -22.6660   20.9130 C   0  0  0  0  0  3  0  0  0  0  0  0
  -27.7030  -23.2520   21.0040 C   0  0  0  0  0  3  0  0  0  0  0  0
  -28.5010  -25.2800   20.2110 C   0  0  0  0  0  0  0  0  0  0  0  0
  -29.7100  -24.7840   19.9680 N   0  0  0  0  0  0  0  0  0  0  0  0
  -27.4800  -24.5510   20.6670 N   0  0  0  0  0  0  0  0  0  0  0  0
  -25.8690  -23.0630   22.7810 C   0  0  0  0  0  1  0  0  0  0  0  0
  -26.4710  -22.4950   21.4890 C   0  0  0  0  0  2  0  0  0  0  0  0
  -28.4100  -26.6430   20.0320 O   0  0  0  0  0  0  0  0  0  0  0  0
  -24.6160  -31.8640   23.2040 C   0  0  0  0  0  0  0  0  0  0  0  0
  -27.2210  -27.3670   20.1050 C   0  0  0  0  0  0  0  0  0  0  0  0
  -23.4070  -30.4870   21.5440 C   0  0  0  0  0  3  0  0  0  0  0  0
  -24.8500  -28.9380   20.1150 C   0  0  0  0  0  0  0  0  0  0  0  0
  -25.9430  -30.8060   21.3680 C   0  0  0  0  0  2  0  0  0  0  0  0
  -26.0120  -29.4320   20.7220 C   0  0  0  0  0  0  0  0  0  0  0  0
  -27.1960  -28.6510   20.7180 C   0  0  0  0  0  3  0  0  0  0  0  0
  -26.0450  -26.9150   19.4700 C   0  0  0  0  0  3  0  0  0  0  0  0
  -24.8630  -27.6810   19.4890 C   0  0  0  0  0  3  0  0  0  0  0  0
  -23.6160  -29.8130   20.1620 C   0  0  0  0  0  2  0  0  0  0  0  0
  -24.6740  -31.0690   22.0970 N   0  0  0  0  0  0  0  0  0  0  0  0
  -23.5350  -32.1410   23.7410 O   0  0  0  0  0  0  0  0  0  0  0  0
  -22.7440  -29.4650   22.4960 C   0  0  0  0  0  0  0  0  0  0  0  0
  -21.4160  -29.3020   22.3710 N   0  0  0  0  0  0  0  0  0  0  0  0
  -23.4210  -28.8220   23.3040 O   0  0  0  0  0  0  0  0  0  0  0  0
  -20.9300  -29.8780   21.7000 H   0  0  0  0  0  0  0  0  0  0  0  0
  -18.0290  -28.1360   22.8520 C   0  0  0  0  0  0  0  0  0  0  0  0
  -20.5890  -28.3630   23.1310 C   0  0  0  0  0  3  0  0  0  0  0  0
  -20.6760  -26.9360   22.5410 C   0  0  0  0  0  2  0  0  0  0  0  0
  -19.5740  -26.6350   21.5230 C   0  0  0  0  0  2  0  0  0  0  0  0
  -18.1920  -26.7910   22.1630 C   0  0  0  0  0  2  0  0  0  0  0  0
  -19.1560  -28.8800   23.2920 C   0  0  0  0  0  0  0  0  0  0  0  0
  -18.9470  -30.1420   23.8900 C   0  0  0  0  0  3  0  0  0  0  0  0
  -17.6480  -30.6570   24.0560 C   0  0  0  0  0  3  0  0  0  0  0  0
  -16.5360  -29.9070   23.6330 C   0  0  0  0  0  3  0  0  0  0  0  0
  -16.7280  -28.6480   23.0360 C   0  0  0  0  0  3  0  0  0  0  0  0
  -25.9040  -32.4800   23.8360 C   0  0  0  0  0  3  0  0  0  0  0  0
  -25.5860  -33.8590   24.2290 N   0  0  0  0  0  0  0  0  0  0  0  0
  -25.9030  -34.9470   23.5140 C   0  0  0  0  0  0  0  0  0  0  0  0
  -26.5620  -34.8950   22.4730 O   0  0  0  0  0  0  0  0  0  0  0  0
  -24.9900  -33.9760   25.0370 H   0  0  0  0  0  0  0  0  0  0  0  0
  -24.1480  -36.7310   23.2650 C   0  0  0  0  0  1  0  0  0  0  0  0
  -25.4090  -36.3090   24.0360 C   0  0  0  0  0  3  0  0  0  0  0  0
  -27.5590  -37.1760   24.8430 C   0  0  0  0  0  1  0  0  0  0  0  0
  -26.4250  -37.3800   23.9460 N   0  0  0  0  0  0  0  0  0  0  0  0
  -26.0120  -38.2850   24.1550 H   0  0  0  0  0  0  0  0  0  0  0  0
  -26.4410  -31.6620   25.0730 C   0  0  1  0  0  0  0  0  0  0  0  0
  -25.3670  -31.3770   26.1480 C   0  0  0  0  0  1  0  0  0  0  0  0
  -27.0250  -30.3050   24.6160 C   0  0  0  0  0  1  0  0  0  0  0  0
  -27.5990  -32.4310   25.7470 C   0  0  0  0  0  1  0  0  0  0  0  0
  -30.0870  -16.7890   23.4940 C   0  0  0  0  0  2  0  0  0  0  0  0
  -29.3060  -17.0480   24.6950 N   0  0  0  0  0  0  0  0  0  0  0  0
  -28.3400  -16.7630   24.5440 H   0  0  0  0  0  0  0  0  0  0  0  0
  -29.8560  -16.2700   25.8000 C   0  0  0  0  0  2  0  0  0  0  0  0
  -29.1350  -16.6300   27.1090 C   0  0  0  0  0  2  0  0  0  0  0  0
  -29.3480  -16.6980   29.5680 C   0  0  0  0  0  1  0  0  0  0  0  0
  -29.9640  -16.3130   28.2860 N   0  0  0  0  0  4  0  0  0  0  0  0
  -30.1550  -15.3250   28.3020 H   0  0  0  0  0  0  0  0  0  0  0  0
  -30.8440  -16.7950   28.2010 H   0  0  0  0  0  0  0  0  0  0  0  0
  1  2  1  0
  1  5  1  0
  2  6  1  0
  4  3  1  0
  4 96  1  0
  5 16  1  0
  5  4  1  0
  6 46  1  0
  6  3  1  0
  6  7  1  6
  8 16  1  0
  9 14  1  0
 10 11  1  0
 10  9  1  0
 12 11  1  0
 12 21  1  0
 12 13  1  0
 14  8  1  0
 14 13  1  0
 15  8  2  0
 16 17  1  0
 18 19  2  0
 19 38  1  0
 20 19  1  0
 20 23  1  0
 21 18  1  0
 21 22  1  0
 22 20  2  0
 23 24  1  0
 24 25  2  0
 26 29  1  0
 26 25  1  0
 27 26  2  0
 28 27  1  0
 28 23  2  0
 29 30  1  0
 30 31  1  0
 31 32  2  0
 33 32  1  0
 33 37  1  0
 34 33  2  0
 35 30  2  0
 35 34  1  0
 36 35  1  0
 38 39  1  0
 39 42  1  0
 39 41  1  0
 40 38  2  0
 43 44  1  0
 43 18  1  0
 45 43  1  0
 47 48  1  0
 48 49  1  0
 48 46  1  0
 49 54  1  0
 50 52  2  0
 51 50  2  0
 51 47  1  0
 52 49  1  0
 54 53  1  0
 55 57  1  0
 55 50  1  0
 56 67  2  0
 57 62  1  0
 58 66  1  0
 58 68  1  0
 59 65  1  0
 59 61  1  0
 60 66  1  0
 61 60  1  0
 62 61  2  0
 63 64  1  0
 63 57  2  0
 64 59  2  0
 65 58  1  0
 66 56  1  0
 68 70  2  0
 69 68  1  0
 71 69  1  0
 72 81  2  0
 72 77  1  0
 73 69  1  0
 73 77  1  0
 74 73  1  0
 75 76  1  0
 75 74  1  0
 76 72  1  0
 77 78  2  0
 78 79  1  0
 80 79  2  0
 81 80  1  0
 82 56  1  0
 82 83  1  0
 82 92  1  0
 83 86  1  0
 84 88  1  0
 84 83  1  0
 85 84  2  0
 88 87  1  0
 90 88  1  0
 90 91  1  0
 90 89  1  0
 92 95  1  1
 92 93  1  0
 94 92  1  0
 96 97  1  0
 97 99  1  0
 98 97  1  0
 99100  1  0
100102  1  0
102103  1  0
102101  1  0
104102  1  0
M  ISO  4   8 100  16 100  50 101  55 101
M  END
>  <TORSDO>  (34) 
F 24

>  <SCORE>  (34) 
21.227

>  <name>  (34) 
33

>  <ligand_id>  (34) 
33

>  <original_smiles>  (34) 
[H]c1nc(Oc2c([H])c([H])c3c(c2[H])C([H])([H])N(C(=O)C([H])(N([H])C(=O)C([H])(N([H])C([H])([H])[H])C([H])([H])[H])C(C([H])([H])[H])(C([H])([H])[H])C([H])([H])[H])C([H])(C(=O)N([H])C2([H])c4c([H])c([H])c([H])c([H])c4C([H])([H])C([H])([H])C2([H])[H])C3([H])[H])nc(C([H])([H])C([H])([H])[H])c1C([H])([H])[N+]1([H])C([H])([H])C([H])([H])C([H])(N([H])C(=O)N2C([H])([H])C([H])([H])C([H])([H])C([H])(n3nc(-c4c([H])c([H])c(Oc5c([H])c([H])c(F)c([H])c5F)c([H])c4[H])c(C(=O)N([H])[H])c3N([H])[H])C2([H])[H])C([H])(C([H])([H])N([H])C([H])([H])C([H])([H])[N+]([H])([H])C([H])([H])[H])C1([H])[H]

>  <smiles>  (34) 
[H]c1nc(Oc2c([H])c([H])c3c(c2[H])C([H])([H])N(C(=O)C([H])(N([H])C(=O)C([H])(N([H])C([H])([H])[H])C([H])([H])[H])C(C([H])([H])[H])(C([H])([H])[H])C([H])([H])[H])C([H])(C(=O)N([H])C2([H])c4c([H])c([H])c([H])c([H])c4C([H])([H])C([H])([H])C2([H])[H])C3([H])[H])nc(C([H])([H])C([H])([H])[H])c1C([H])([H])[N+]1([H])C([H])([H])C([H])([H])C([H])(N([H])C(=O)N2C([H])([H])C([H])([H])C([H])([H])C([H])(n3nc(-c4c([H])c([H])c(Oc5c([H])c([H])c(F)c([H])c5F)c([H])c4[H])c(C(=O)N([H])[H])c3N([H])[H])C2([H])[H])C([H])(C([H])([H])N([H])C([H])([H])C([H])([H])[N+]([H])([H])C([H])([H])[H])C1([H])[H]

$$$$
34:0:0
     RDKit          3D

 93102  0  0  1  0  0  0  0  0999 V2000
  -30.4440  -23.0620   19.6750 C   0  0  0  0  0  2  0  0  0  0  0  0
  -28.4690  -23.5930   19.4520 C   0  0  0  0  0  2  0  0  0  0  0  0
  -29.1350  -22.3100   19.9320 C   0  0  0  0  0  3  0  0  0  0  0  0
  -29.6870  -24.3030   19.8410 N   0  0  2  0  0  4  0  0  0  0  0  0
  -29.6330  -24.5670   20.8150 H   0  0  0  0  0  0  0  0  0  0  0  0
  -28.8040  -21.0140   19.2000 C   0  0  0  0  0  2  0  0  0  0  0  0
  -29.5700  -19.8700   19.7290 N   0  0  0  0  0  4  0  0  0  0  0  0
  -30.5310  -19.9670   19.4440 H   0  0  0  0  0  0  0  0  0  0  0  0
  -29.5400  -19.8820   20.7360 H   0  0  0  0  0  0  0  0  0  0  0  0
  -29.0600  -18.5700   19.2610 C   0  0  0  0  0  2  0  0  0  0  0  0
  -30.6570  -14.4540   20.5990 C   0  0  0  0  0  0  0  0  0  0  0  0
  -30.4190  -12.2560   19.5600 C   0  0  0  0  0  2  0  0  0  0  0  0
  -29.5130  -12.4540   18.3260 C   0  0  0  0  0  2  0  0  0  0  0  0
  -28.0200  -12.3520   18.7070 C   0  0  0  0  0  2  0  0  0  0  0  0
  -27.6460  -13.1950   19.9560 C   0  0  0  0  0  3  0  0  0  0  0  0
  -28.6760  -12.9990   21.0940 C   0  0  0  0  0  2  0  0  0  0  0  0
  -30.0190  -13.2590   20.5490 N   0  0  0  0  0  0  0  0  0  0  0  0
  -31.8610  -14.6140   20.3790 O   0  0  0  0  0  0  0  0  0  0  0  0
  -29.6170  -16.0490   19.1100 C   0  0  0  0  0  2  0  0  0  0  0  0
  -29.9890  -16.8240   21.0390 C   0  0  0  0  0  2  0  0  0  0  0  0
  -29.9870  -17.4190   19.6340 C   0  0  0  0  0  3  0  0  0  0  0  0
  -29.8070  -15.4880   20.4570 N   0  0  0  0  0  0  0  0  0  0  0  0
  -25.2250  -13.8270   20.5620 C   0  0  0  0  0  0  0  0  0  0  0  0
  -24.1430  -13.0610   20.8990 C   0  0  0  0  0  0  0  0  0  0  0  0
  -24.6030  -11.7090   20.9100 C   0  0  0  0  0  0  0  0  0  0  0  0
  -26.2790  -12.9380   20.3950 N   0  0  0  0  0  0  0  0  0  0  0  0
  -25.9050  -11.6620   20.6590 N   0  0  0  0  0  0  0  0  0  0  0  0
  -23.8700  -10.4510   21.0920 C   0  0  0  0  0  0  0  0  0  0  0  0
  -24.2900   -9.4850   22.0340 C   0  0  0  0  0  3  0  0  0  0  0  0
  -23.5620   -8.2890   22.2030 C   0  0  0  0  0  3  0  0  0  0  0  0
  -22.4000   -8.0510   21.4310 C   0  0  0  0  0  0  0  0  0  0  0  0
  -22.0020   -9.0060   20.4770 C   0  0  0  0  0  3  0  0  0  0  0  0
  -22.7310  -10.1930   20.3050 C   0  0  0  0  0  3  0  0  0  0  0  0
  -21.6420   -6.9080   21.5110 O   0  0  0  0  0  0  0  0  0  0  0  0
  -21.5950   -6.1550   22.6560 C   0  0  0  0  0  0  0  0  0  0  0  0
  -21.1970   -6.7050   23.8960 C   0  0  0  0  0  3  0  0  0  0  0  0
  -21.1010   -5.8790   25.0340 C   0  0  0  0  0  3  0  0  0  0  0  0
  -21.3870   -4.5040   24.9330 C   0  0  0  0  0  0  0  0  0  0  0  0
  -21.7740   -3.9540   23.6990 C   0  0  0  0  0  3  0  0  0  0  0  0
  -21.8770   -4.7770   22.5640 C   0  0  0  0  0  0  0  0  0  0  0  0
  -22.2320   -4.2390   21.3720 F   0  0  0  0  0  0  0  0  0  0  0  0
  -21.2840   -3.7080   26.0230 F   0  0  0  0  0  0  0  0  0  0  0  0
  -22.7350  -13.5410   21.1090 C   0  0  0  0  0  0  0  0  0  0  0  0
  -21.9760  -12.8580   21.9570 N   0  0  0  0  0  0  0  0  0  0  0  0
  -22.3170  -14.5590   20.5550 O   0  0  0  0  0  0  0  0  0  0  0  0
  -22.3230  -12.0350   22.4260 H   0  0  0  0  0  0  0  0  0  0  0  0
  -21.0300  -13.1620   22.1410 H   0  0  0  0  0  0  0  0  0  0  0  0
  -25.3970  -15.1920   20.3630 N   0  0  0  0  0  0  0  0  0  0  0  0
  -24.6280  -15.8510   20.4370 H   0  0  0  0  0  0  0  0  0  0  0  0
  -26.2730  -15.6310   20.1080 H   0  0  0  0  0  0  0  0  0  0  0  0
  -30.0960  -25.4480   18.9960 C   0  0  0  0  0  2  0  0  0  0  0  0
  -28.9540  -26.4560   18.7990 C   0  0  0  0  0  2  0  0  0  0  0  0
  -28.4490  -26.8180   20.0810 O   0  0  0  0  0  0  0  0  0  0  0  0
  -24.6170  -31.8840   23.2220 C   0  0  0  0  0  0  0  0  0  0  0  0
  -27.2590  -27.4990   20.0880 C   0  0  0  0  0  0  0  0  0  0  0  0
  -23.3950  -30.4790   21.5890 C   0  0  0  0  0  3  0  0  0  0  0  0
  -24.8400  -28.9480   20.1490 C   0  0  0  0  0  0  0  0  0  0  0  0
  -25.9130  -30.8570   21.3600 C   0  0  0  0  0  2  0  0  0  0  0  0
  -25.9970  -29.4890   20.7250 C   0  0  0  0  0  0  0  0  0  0  0  0
  -27.2050  -28.7640   20.7040 C   0  0  0  0  0  3  0  0  0  0  0  0
  -26.0830  -26.9490   19.5280 C   0  0  0  0  0  3  0  0  0  0  0  0
  -24.8750  -27.6720   19.5540 C   0  0  0  0  0  3  0  0  0  0  0  0
  -23.5920  -29.8000   20.2070 C   0  0  0  0  0  2  0  0  0  0  0  0
  -24.6600  -31.0860   22.1160 N   0  0  0  0  0  0  0  0  0  0  0  0
  -23.5420  -32.1540   23.7750 O   0  0  0  0  0  0  0  0  0  0  0  0
  -22.7590  -29.4560   22.5550 C   0  0  0  0  0  0  0  0  0  0  0  0
  -21.4340  -29.2720   22.4420 N   0  0  0  0  0  0  0  0  0  0  0  0
  -23.4520  -28.8320   23.3640 O   0  0  0  0  0  0  0  0  0  0  0  0
  -20.9360  -29.8270   21.7600 H   0  0  0  0  0  0  0  0  0  0  0  0
  -18.0690  -28.0650   22.9610 C   0  0  0  0  0  0  0  0  0  0  0  0
  -20.6270  -28.3340   23.2200 C   0  0  0  0  0  3  0  0  0  0  0  0
  -20.7330  -26.9010   22.6490 C   0  0  0  0  0  2  0  0  0  0  0  0
  -19.6270  -26.5700   21.6410 C   0  0  0  0  0  2  0  0  0  0  0  0
  -18.2480  -26.7140   22.2900 C   0  0  0  0  0  2  0  0  0  0  0  0
  -19.1870  -28.8320   23.3840 C   0  0  0  0  0  0  0  0  0  0  0  0
  -18.9650  -30.0970   23.9700 C   0  0  0  0  0  3  0  0  0  0  0  0
  -17.6590  -30.5960   24.1390 C   0  0  0  0  0  3  0  0  0  0  0  0
  -16.5570  -29.8240   23.7320 C   0  0  0  0  0  3  0  0  0  0  0  0
  -16.7620  -28.5610   23.1500 C   0  0  0  0  0  3  0  0  0  0  0  0
  -25.9120  -32.5140   23.8270 C   0  0  0  0  0  3  0  0  0  0  0  0
  -25.6020  -33.9060   24.1770 N   0  0  0  0  0  0  0  0  0  0  0  0
  -25.9220  -34.9670   23.4250 C   0  0  0  0  0  0  0  0  0  0  0  0
  -26.5800  -34.8770   22.3840 O   0  0  0  0  0  0  0  0  0  0  0  0
  -25.0120  -34.0500   24.9840 H   0  0  0  0  0  0  0  0  0  0  0  0
  -24.1790  -36.7540   23.1080 C   0  0  0  0  0  1  0  0  0  0  0  0
  -25.4330  -36.3490   23.9010 C   0  0  0  0  0  3  0  0  0  0  0  0
  -27.5770  -37.2300   24.7100 C   0  0  0  0  0  1  0  0  0  0  0  0
  -26.4600  -37.4070   23.7860 N   0  0  0  0  0  0  0  0  0  0  0  0
  -26.0520  -38.3230   23.9520 H   0  0  0  0  0  0  0  0  0  0  0  0
  -26.4580  -31.7280   25.0810 C   0  0  1  0  0  0  0  0  0  0  0  0
  -25.3900  -31.4710   26.1670 C   0  0  0  0  0  1  0  0  0  0  0  0
  -27.0390  -30.3580   24.6570 C   0  0  0  0  0  1  0  0  0  0  0  0
  -27.6190  -32.5180   25.7300 C   0  0  0  0  0  1  0  0  0  0  0  0
  1  4  1  0
  1  3  1  0
  2  4  1  0
  2  3  1  0
  3  6  1  0
  4  5  1  1
  6  7  1  0
  7  9  1  0
  8  7  1  0
 10  7  1  0
 12 17  1  0
 13 14  1  0
 13 12  1  0
 15 14  1  0
 15 26  1  0
 15 16  1  0
 17 11  1  0
 17 16  1  0
 18 11  2  0
 19 21  1  0
 19 22  1  0
 21 10  1  0
 21 20  1  0
 22 11  1  0
 22 20  1  0
 23 24  2  0
 24 25  1  0
 24 43  1  0
 25 28  1  0
 26 23  1  0
 26 27  1  0
 27 25  2  0
 28 29  1  0
 29 30  2  0
 31 34  1  0
 31 30  1  0
 32 31  2  0
 33 32  1  0
 33 28  2  0
 34 35  1  0
 35 36  1  0
 36 37  2  0
 38 37  1  0
 38 42  1  0
 39 38  2  0
 40 35  2  0
 40 39  1  0
 41 40  1  0
 43 44  1  0
 44 47  1  0
 44 46  1  0
 45 43  2  0
 48 49  1  0
 48 23  1  0
 50 48  1  0
 51  4  1  0
 52 51  1  0
 52 53  1  0
 53 55  1  0
 54 65  2  0
 55 60  1  0
 56 64  1  0
 56 66  1  0
 57 63  1  0
 57 59  1  0
 58 64  1  0
 59 58  1  0
 60 59  2  0
 61 62  1  0
 61 55  2  0
 62 57  2  0
 63 56  1  0
 64 54  1  0
 66 68  2  0
 67 66  1  0
 69 67  1  0
 70 79  2  0
 70 75  1  0
 71 67  1  0
 71 75  1  0
 72 71  1  0
 73 74  1  0
 73 72  1  0
 74 70  1  0
 75 76  2  0
 76 77  1  0
 78 77  2  0
 79 78  1  0
 80 54  1  0
 80 81  1  0
 80 90  1  0
 81 84  1  0
 82 86  1  0
 82 81  1  0
 83 82  2  0
 86 85  1  0
 88 86  1  0
 88 89  1  0
 88 87  1  0
 90 93  1  1
 90 91  1  0
 92 90  1  0
M  ISO  4  11 100  22 100  52 101  53 101
M  END
>  <TORSDO>  (35) 
F 21

>  <SCORE>  (35) 
-13.226

>  <name>  (35) 
34

>  <ligand_id>  (35) 
34

>  <original_smiles>  (35) 
[H]c1c([H])c([H])c2c(c1[H])C([H])([H])C([H])([H])C([H])([H])C2([H])N([H])C(=O)C1([H])N(C(=O)C([H])(N([H])C(=O)C([H])(N([H])C([H])([H])[H])C([H])([H])[H])C(C([H])([H])[H])(C([H])([H])[H])C([H])([H])[H])C([H])([H])c2c([H])c(OC([H])([H])C([H])([H])[N+]3([H])C([H])([H])C([H])(C([H])([H])[N+]([H])([H])C([H])([H])C4([H])C([H])([H])N(C(=O)N5C([H])([H])C([H])([H])C([H])([H])C([H])(n6nc(-c7c([H])c([H])c(Oc8c([H])c([H])c(F)c([H])c8F)c([H])c7[H])c(C(=O)N([H])[H])c6N([H])[H])C5([H])[H])C4([H])[H])C3([H])[H])c([H])c([H])c2C1([H])[H]

>  <smiles>  (35) 
[H]c1c([H])c([H])c2c(c1[H])C([H])([H])C([H])([H])C([H])([H])C2([H])N([H])C(=O)C1([H])N(C(=O)C([H])(N([H])C(=O)C([H])(N([H])C([H])([H])[H])C([H])([H])[H])C(C([H])([H])[H])(C([H])([H])[H])C([H])([H])[H])C([H])([H])c2c([H])c(OC([H])([H])C([H])([H])[N+]3([H])C([H])([H])C([H])(C([H])([H])[N+]([H])([H])C([H])([H])C4([H])C([H])([H])N(C(=O)N5C([H])([H])C([H])([H])C([H])([H])C([H])(n6nc(-c7c([H])c([H])c(Oc8c([H])c([H])c(F)c([H])c8F)c([H])c7[H])c(C(=O)N([H])[H])c6N([H])[H])C5([H])[H])C4([H])[H])C3([H])[H])c([H])c([H])c2C1([H])[H]

$$$$
35:0:0
     RDKit          3D

104114  0  0  1  0  0  0  0  0999 V2000
  -30.2810  -25.8860   21.4220 C   0  0  0  0  0  3  0  0  0  0  0  0
  -29.6170  -23.7120   21.9380 C   0  0  0  0  0  0  0  0  0  0  0  0
  -28.8930  -23.6380   20.7010 C   0  0  0  0  0  0  0  0  0  0  0  0
  -29.5060  -25.8610   20.2500 C   0  0  0  0  0  0  0  0  0  0  0  0
  -30.3400  -24.8220   22.2510 N   0  0  0  0  0  0  0  0  0  0  0  0
  -28.8620  -24.7190   19.8700 N   0  0  0  0  0  0  0  0  0  0  0  0
  -31.0050  -22.4810   23.7540 C   0  0  0  0  0  2  0  0  0  0  0  0
  -30.8170  -21.1870   24.5710 C   0  0  0  0  0  2  0  0  0  0  0  0
  -29.0350  -21.3020   23.0280 C   0  0  0  0  0  2  0  0  0  0  0  0
  -29.6370  -22.7130   23.1100 C   0  0  0  0  0  3  0  0  0  0  0  0
  -29.4460  -20.7050   24.3040 N   0  0  0  0  0  4  0  0  0  0  0  0
  -28.8380  -21.0700   25.0190 H   0  0  0  0  0  0  0  0  0  0  0  0
  -29.3720  -19.6990   24.3220 H   0  0  0  0  0  0  0  0  0  0  0  0
  -29.3120  -27.0260   19.5220 O   0  0  0  0  0  0  0  0  0  0  0  0
  -25.0300  -31.0660   23.5740 C   0  0  0  0  0  0  0  0  0  0  0  0
  -28.0880  -27.6380   19.6740 C   0  0  0  0  0  0  0  0  0  0  0  0
  -23.9500  -29.7610   21.7690 C   0  0  0  0  0  3  0  0  0  0  0  0
  -25.5170  -28.7310   20.0480 C   0  0  0  0  0  0  0  0  0  0  0  0
  -26.3780  -30.5410   21.5380 C   0  0  0  0  0  2  0  0  0  0  0  0
  -26.6240  -29.3230   20.6730 C   0  0  0  0  0  0  0  0  0  0  0  0
  -27.9170  -28.7770   20.4940 C   0  0  0  0  0  3  0  0  0  0  0  0
  -26.9720  -27.0840   19.0200 C   0  0  0  0  0  3  0  0  0  0  0  0
  -25.6850  -27.6070   19.2230 C   0  0  0  0  0  3  0  0  0  0  0  0
  -24.1660  -29.3610   20.2870 C   0  0  0  0  0  2  0  0  0  0  0  0
  -25.1370  -30.4670   22.3530 N   0  0  0  0  0  0  0  0  0  0  0  0
  -23.9560  -31.0660   24.1910 O   0  0  0  0  0  0  0  0  0  0  0  0
  -23.5290  -28.5060   22.5690 C   0  0  0  0  0  0  0  0  0  0  0  0
  -22.3550  -27.9450   22.2340 N   0  0  0  0  0  0  0  0  0  0  0  0
  -24.2640  -28.0450   23.4480 O   0  0  0  0  0  0  0  0  0  0  0  0
  -21.8040  -28.3940   21.5140 H   0  0  0  0  0  0  0  0  0  0  0  0
  -19.6950  -25.5230   21.9020 C   0  0  0  0  0  0  0  0  0  0  0  0
  -21.7790  -26.7400   22.8290 C   0  0  0  0  0  3  0  0  0  0  0  0
  -22.5720  -25.4800   22.4120 C   0  0  0  0  0  2  0  0  0  0  0  0
  -22.0020  -24.7890   21.1680 C   0  0  0  0  0  2  0  0  0  0  0  0
  -20.5490  -24.3690   21.4060 C   0  0  0  0  0  2  0  0  0  0  0  0
  -20.2750  -26.6430   22.5560 C   0  0  0  0  0  0  0  0  0  0  0  0
  -19.4380  -27.7040   22.9670 C   0  0  0  0  0  3  0  0  0  0  0  0
  -18.0500  -27.6590   22.7360 C   0  0  0  0  0  3  0  0  0  0  0  0
  -17.4800  -26.5410   22.1020 C   0  0  0  0  0  3  0  0  0  0  0  0
  -18.3010  -25.4750   21.6910 C   0  0  0  0  0  3  0  0  0  0  0  0
  -26.2400  -31.7940   24.2370 C   0  0  0  0  0  3  0  0  0  0  0  0
  -25.8010  -33.1490   24.5890 N   0  0  0  0  0  0  0  0  0  0  0  0
  -26.1810  -34.2620   23.9440 C   0  0  0  0  0  0  0  0  0  0  0  0
  -27.0030  -34.2550   23.0240 O   0  0  0  0  0  0  0  0  0  0  0  0
  -25.0860  -33.2240   25.2980 H   0  0  0  0  0  0  0  0  0  0  0  0
  -24.4340  -35.9860   23.4090 C   0  0  0  0  0  1  0  0  0  0  0  0
  -25.5490  -35.5940   24.3910 C   0  0  0  0  0  3  0  0  0  0  0  0
  -27.4760  -36.5120   25.6050 C   0  0  0  0  0  1  0  0  0  0  0  0
  -26.5270  -36.6970   24.5100 N   0  0  0  0  0  0  0  0  0  0  0  0
  -26.0540  -37.5860   24.6460 H   0  0  0  0  0  0  0  0  0  0  0  0
  -26.7970  -31.0420   25.5070 C   0  0  1  0  0  0  0  0  0  0  0  0
  -25.7130  -30.6890   26.5500 C   0  0  0  0  0  1  0  0  0  0  0  0
  -27.5000  -29.7300   25.1010 C   0  0  0  0  0  1  0  0  0  0  0  0
  -27.8660  -31.9150   26.2060 C   0  0  0  0  0  1  0  0  0  0  0  0
  -27.9500  -22.4980   20.2520 C   0  0  0  0  0  2  0  0  0  0  0  0
  -28.5420  -21.1800   19.8920 N   0  0  0  0  0  4  0  0  0  0  0  0
  -27.7820  -20.6440   19.4990 H   0  0  0  0  0  0  0  0  0  0  0  0
  -28.8060  -20.6610   20.7080 H   0  0  0  0  0  0  0  0  0  0  0  0
  -29.6190  -21.1140   18.8850 C   0  0  0  0  0  2  0  0  0  0  0  0
  -30.8760  -20.4080   19.4430 C   0  0  0  0  0  2  0  0  0  0  0  0
  -31.4630  -19.3790   18.4460 C   0  0  0  0  0  2  0  0  0  0  0  0
  -32.7780  -14.5100   19.6510 C   0  0  0  0  0  0  0  0  0  0  0  0
  -32.0100  -12.3440   18.8260 C   0  0  0  0  0  2  0  0  0  0  0  0
  -31.0590  -12.5620   17.6350 C   0  0  0  0  0  2  0  0  0  0  0  0
  -29.6030  -12.7440   18.1160 C   0  0  0  0  0  2  0  0  0  0  0  0
  -29.4700  -13.7790   19.2650 C   0  0  0  0  0  3  0  0  0  0  0  0
  -30.5460  -13.5600   20.3510 C   0  0  0  0  0  2  0  0  0  0  0  0
  -31.8680  -13.5040   19.7060 N   0  0  0  0  0  0  0  0  0  0  0  0
  -33.9410  -14.3660   19.2660 O   0  0  0  0  0  0  0  0  0  0  0  0
  -32.0840  -16.2920   18.2780 C   0  0  0  0  0  2  0  0  0  0  0  0
  -32.8020  -16.6820   20.6510 C   0  0  0  0  0  2  0  0  0  0  0  0
  -32.9820  -17.5090   18.0070 C   0  0  0  0  0  2  0  0  0  0  0  0
  -32.6090  -18.1930   20.3650 C   0  0  0  0  0  2  0  0  0  0  0  0
  -32.2640  -15.7490   19.6370 N   0  0  0  0  0  0  0  0  0  0  0  0
  -32.6590  -18.6200   18.9290 N   0  0  2  0  0  4  0  0  0  0  0  0
  -33.4460  -19.2500   18.8370 H   0  0  0  0  0  0  0  0  0  0  0  0
  -27.3330  -14.8620   20.2030 C   0  0  0  0  0  0  0  0  0  0  0  0
  -26.1220  -14.3350   20.5710 C   0  0  0  0  0  0  0  0  0  0  0  0
  -26.2390  -12.9210   20.3970 C   0  0  0  0  0  0  0  0  0  0  0  0
  -28.1180  -13.7840   19.8200 N   0  0  0  0  0  0  0  0  0  0  0  0
  -27.4660  -12.6070   20.0010 N   0  0  0  0  0  0  0  0  0  0  0  0
  -25.2380  -11.8560   20.5340 C   0  0  0  0  0  0  0  0  0  0  0  0
  -25.4960  -10.6970   21.2980 C   0  0  0  0  0  3  0  0  0  0  0  0
  -24.5090   -9.6940   21.4300 C   0  0  0  0  0  3  0  0  0  0  0  0
  -23.2480   -9.8500   20.8030 C   0  0  0  0  0  0  0  0  0  0  0  0
  -23.0030  -11.0000   20.0340 C   0  0  0  0  0  3  0  0  0  0  0  0
  -23.9890  -11.9910   19.8960 C   0  0  0  0  0  3  0  0  0  0  0  0
  -22.2360   -8.9220   20.8600 O   0  0  0  0  0  0  0  0  0  0  0  0
  -22.1070   -8.0650   21.9230 C   0  0  0  0  0  0  0  0  0  0  0  0
  -21.9720   -8.5330   23.2490 C   0  0  0  0  0  3  0  0  0  0  0  0
  -21.7670   -7.6170   24.3000 C   0  0  0  0  0  3  0  0  0  0  0  0
  -21.6840   -6.2380   24.0310 C   0  0  0  0  0  0  0  0  0  0  0  0
  -21.8050   -5.7710   22.7100 C   0  0  0  0  0  3  0  0  0  0  0  0
  -22.0110   -6.6840   21.6600 C   0  0  0  0  0  0  0  0  0  0  0  0
  -22.1090   -6.2300   20.3900 F   0  0  0  0  0  0  0  0  0  0  0  0
  -21.4750   -5.3610   25.0420 F   0  0  0  0  0  0  0  0  0  0  0  0
  -24.8940  -15.0940   20.9720 C   0  0  0  0  0  0  0  0  0  0  0  0
  -24.0720  -14.4990   21.8330 N   0  0  0  0  0  0  0  0  0  0  0  0
  -24.6820  -16.2320   20.5620 O   0  0  0  0  0  0  0  0  0  0  0  0
  -23.2210  -14.9560   22.1250 H   0  0  0  0  0  0  0  0  0  0  0  0
  -24.2880  -13.5790   22.1860 H   0  0  0  0  0  0  0  0  0  0  0  0
  -27.8290  -16.1590   20.1370 N   0  0  0  0  0  0  0  0  0  0  0  0
  -27.2660  -16.9700   20.3540 H   0  0  0  0  0  0  0  0  0  0  0  0
  -28.7670  -16.3870   19.8400 H   0  0  0  0  0  0  0  0  0  0  0  0
  1  5  2  0
  2  5  1  0
  3  2  2  0
  4  1  1  0
  6  4  2  0
  6  3  1  0
  7  8  1  0
  9 10  1  0
  9 11  1  0
 10  2  1  0
 10  7  1  0
 11 13  1  0
 11  8  1  0
 11 12  1  0
 14 16  1  0
 14  4  1  0
 15 26  2  0
 16 21  1  0
 17 25  1  0
 17 27  1  0
 18 24  1  0
 18 20  1  0
 19 25  1  0
 20 19  1  0
 21 20  2  0
 22 23  1  0
 22 16  2  0
 23 18  2  0
 24 17  1  0
 25 15  1  0
 27 29  2  0
 28 27  1  0
 30 28  1  0
 31 36  1  0
 32 28  1  0
 33 32  1  0
 34 35  1  0
 34 33  1  0
 35 31  1  0
 36 32  1  0
 36 37  2  0
 38 37  1  0
 39 38  2  0
 40 31  2  0
 40 39  1  0
 41 15  1  0
 41 42  1  0
 41 51  1  0
 42 45  1  0
 43 47  1  0
 43 42  1  0
 44 43  2  0
 47 46  1  0
 47 49  1  0
 49 50  1  0
 49 48  1  0
 51 54  1  1
 51 52  1  0
 53 51  1  0
 55  3  1  0
 56 55  1  0
 56 58  1  0
 57 56  1  0
 59 60  1  0
 59 56  1  0
 61 75  1  0
 61 60  1  0
 62 68  1  0
 63 68  1  0
 64 65  1  0
 64 63  1  0
 66 65  1  0
 66 80  1  0
 66 67  1  0
 68 67  1  0
 69 62  2  0
 70 74  1  0
 72 70  1  0
 72 75  1  0
 73 71  1  0
 74 62  1  0
 74 71  1  0
 75 73  1  0
 75 76  1  1
 77 78  2  0
 78 97  1  0
 79 82  1  0
 79 78  1  0
 80 81  1  0
 80 77  1  0
 81 79  2  0
 82 83  1  0
 83 84  2  0
 85 88  1  0
 85 84  1  0
 86 85  2  0
 87 86  1  0
 87 82  2  0
 88 89  1  0
 89 90  1  0
 90 91  2  0
 92 91  1  0
 92 96  1  0
 93 92  2  0
 94 89  2  0
 94 93  1  0
 95 94  1  0
 97 98  1  0
 98100  1  0
 98101  1  0
 99 97  2  0
102 77  1  0
102103  1  0
104102  1  0
M  ISO  4   4 101  14 101  62 100  74 100
M  END
>  <TORSDO>  (36) 
F 22

>  <SCORE>  (36) 
-7.111

>  <name>  (36) 
35

>  <ligand_id>  (36) 
35

>  <original_smiles>  (36) 
[H]c1nc(C2([H])C([H])([H])C([H])([H])[N+]([H])([H])C2([H])[H])c(C([H])([H])[N+]([H])([H])C([H])([H])C([H])([H])C([H])([H])[N+]2([H])C([H])([H])C([H])([H])N(C(=O)N3C([H])([H])C([H])([H])C([H])([H])C([H])(n4nc(-c5c([H])c([H])c(Oc6c([H])c([H])c(F)c([H])c6F)c([H])c5[H])c(C(=O)N([H])[H])c4N([H])[H])C3([H])[H])C([H])([H])C2([H])[H])nc1Oc1c([H])c([H])c2c(c1[H])C([H])([H])N(C(=O)C([H])(N([H])C(=O)C([H])(N([H])C([H])([H])[H])C([H])([H])[H])C(C([H])([H])[H])(C([H])([H])[H])C([H])([H])[H])C([H])(C(=O)N([H])C1([H])c3c([H])c([H])c([H])c([H])c3C([H])([H])C([H])([H])C1([H])[H])C2([H])[H]

>  <smiles>  (36) 
[H]c1nc(C2([H])C([H])([H])C([H])([H])[N+]([H])([H])C2([H])[H])c(C([H])([H])[N+]([H])([H])C([H])([H])C([H])([H])C([H])([H])[N+]2([H])C([H])([H])C([H])([H])N(C(=O)N3C([H])([H])C([H])([H])C([H])([H])C([H])(n4nc(-c5c([H])c([H])c(Oc6c([H])c([H])c(F)c([H])c6F)c([H])c5[H])c(C(=O)N([H])[H])c4N([H])[H])C3([H])[H])C([H])([H])C2([H])[H])nc1Oc1c([H])c([H])c2c(c1[H])C([H])([H])N(C(=O)C([H])(N([H])C(=O)C([H])(N([H])C([H])([H])[H])C([H])([H])[H])C(C([H])([H])[H])(C([H])([H])[H])C([H])([H])[H])C([H])(C(=O)N([H])C1([H])c3c([H])c([H])c([H])c([H])c3C([H])([H])C([H])([H])C1([H])[H])C2([H])[H]

$$$$
36:0:0
     RDKit          3D

 95104  0  0  1  0  0  0  0  0999 V2000
  -27.6930  -21.7550   20.6420 C   0  0  0  0  0  3  0  0  0  0  0  0
  -27.2030  -22.9850   21.1090 C   0  0  0  0  0  0  0  0  0  0  0  0
  -28.5460  -21.7760   19.5300 C   0  0  0  0  0  0  0  0  0  0  0  0
  -28.3350  -24.1250   19.4670 C   0  0  0  0  0  0  0  0  0  0  0  0
  -26.2630  -23.0680   22.2940 C   0  0  0  0  0  1  0  0  0  0  0  0
  -27.5270  -24.1510   20.5210 N   0  0  0  0  0  0  0  0  0  0  0  0
  -28.8620  -22.9810   18.9570 N   0  0  0  0  0  0  0  0  0  0  0  0
  -29.0190  -20.4290   18.9020 C   0  0  0  0  0  2  0  0  0  0  0  0
  -29.8460  -19.5580   19.8040 N   0  0  0  0  0  4  0  0  0  0  0  0
  -29.4970  -19.7090   20.7350 H   0  0  0  0  0  0  0  0  0  0  0  0
  -30.7850  -19.9180   19.7650 H   0  0  0  0  0  0  0  0  0  0  0  0
  -29.8780  -18.0740   19.5170 C   0  0  0  0  0  2  0  0  0  0  0  0
  -30.9660  -14.7940   19.6390 C   0  0  0  0  0  0  0  0  0  0  0  0
  -30.5080  -12.6210   18.5090 C   0  0  0  0  0  2  0  0  0  0  0  0
  -29.4480  -12.7670   17.3990 C   0  0  0  0  0  2  0  0  0  0  0  0
  -28.0340  -12.6040   17.9790 C   0  0  0  0  0  2  0  0  0  0  0  0
  -27.8100  -13.4830   19.2320 C   0  0  0  0  0  3  0  0  0  0  0  0
  -28.9650  -13.3330   20.2390 C   0  0  0  0  0  2  0  0  0  0  0  0
  -30.2390  -13.6300   19.5540 N   0  0  0  0  0  0  0  0  0  0  0  0
  -31.9070  -15.0250   18.8740 O   0  0  0  0  0  0  0  0  0  0  0  0
  -31.2570  -16.5970   22.7680 C   0  0  0  0  0  2  0  0  0  0  0  0
  -30.4810  -17.6380   21.9860 C   0  0  0  0  0  2  0  0  0  0  0  0
  -30.9390  -15.3230   21.9820 C   0  0  0  0  0  2  0  0  0  0  0  0
  -30.7410  -17.2180   20.5360 C   0  0  0  0  0  3  0  0  0  0  0  0
  -30.6010  -15.7100   20.5890 N   0  0  0  0  0  0  0  0  0  0  0  0
  -25.5260  -14.1010   20.2360 C   0  0  0  0  0  0  0  0  0  0  0  0
  -24.4900  -13.3310   20.7040 C   0  0  0  0  0  0  0  0  0  0  0  0
  -24.9150  -11.9750   20.5630 C   0  0  0  0  0  0  0  0  0  0  0  0
  -26.5130  -13.2110   19.8490 N   0  0  0  0  0  0  0  0  0  0  0  0
  -26.1610  -11.9250   20.1090 N   0  0  0  0  0  0  0  0  0  0  0  0
  -24.1890  -10.7150   20.7790 C   0  0  0  0  0  0  0  0  0  0  0  0
  -24.6350   -9.7610   21.7200 C   0  0  0  0  0  3  0  0  0  0  0  0
  -23.9100   -8.5680   21.9300 C   0  0  0  0  0  3  0  0  0  0  0  0
  -22.7220   -8.3210   21.2010 C   0  0  0  0  0  0  0  0  0  0  0  0
  -22.2970   -9.2600   20.2450 C   0  0  0  0  0  3  0  0  0  0  0  0
  -23.0230  -10.4460   20.0350 C   0  0  0  0  0  3  0  0  0  0  0  0
  -21.9670   -7.1770   21.3220 O   0  0  0  0  0  0  0  0  0  0  0  0
  -21.8450   -6.5180   22.5180 C   0  0  0  0  0  0  0  0  0  0  0  0
  -21.3220   -7.1450   23.6700 C   0  0  0  0  0  3  0  0  0  0  0  0
  -21.1500   -6.4050   24.8580 C   0  0  0  0  0  3  0  0  0  0  0  0
  -21.4890   -5.0400   24.8940 C   0  0  0  0  0  0  0  0  0  0  0  0
  -22.0020   -4.4120   23.7470 C   0  0  0  0  0  3  0  0  0  0  0  0
  -22.1770   -5.1470   22.5610 C   0  0  0  0  0  0  0  0  0  0  0  0
  -22.6520   -4.5300   21.4530 F   0  0  0  0  0  0  0  0  0  0  0  0
  -21.3150   -4.3300   26.0340 F   0  0  0  0  0  0  0  0  0  0  0  0
  -23.1430  -13.8210   21.1490 C   0  0  0  0  0  0  0  0  0  0  0  0
  -22.5220  -13.1350   22.1060 N   0  0  0  0  0  0  0  0  0  0  0  0
  -22.6490  -14.8440   20.6790 O   0  0  0  0  0  0  0  0  0  0  0  0
  -22.9300  -12.3090   22.5160 H   0  0  0  0  0  0  0  0  0  0  0  0
  -21.6220  -13.4430   22.4420 H   0  0  0  0  0  0  0  0  0  0  0  0
  -25.7070  -15.4710   20.0890 N   0  0  0  0  0  0  0  0  0  0  0  0
  -25.0040  -16.1550   20.3420 H   0  0  0  0  0  0  0  0  0  0  0  0
  -26.5160  -15.8750   19.6320 H   0  0  0  0  0  0  0  0  0  0  0  0
  -28.6000  -25.4920   18.7460 C   0  0  0  0  0  2  0  0  0  0  0  0
  -28.4750  -26.7730   19.4850 O   0  0  0  0  0  0  0  0  0  0  0  0
  -24.6220  -31.7460   23.0370 C   0  0  0  0  0  0  0  0  0  0  0  0
  -27.2850  -27.5070   19.5630 C   0  0  0  0  0  0  0  0  0  0  0  0
  -23.4030  -30.3880   21.3710 C   0  0  0  0  0  3  0  0  0  0  0  0
  -24.8480  -28.9810   19.7950 C   0  0  0  0  0  0  0  0  0  0  0  0
  -25.9140  -30.8290   21.0940 C   0  0  0  0  0  2  0  0  0  0  0  0
  -26.0210  -29.4960   20.3640 C   0  0  0  0  0  0  0  0  0  0  0  0
  -27.2380  -28.7640   20.2400 C   0  0  0  0  0  3  0  0  0  0  0  0
  -26.0810  -27.0330   18.9950 C   0  0  0  0  0  3  0  0  0  0  0  0
  -24.8780  -27.7560   19.1100 C   0  0  0  0  0  3  0  0  0  0  0  0
  -23.5790  -29.7890   19.9490 C   0  0  0  0  0  2  0  0  0  0  0  0
  -24.6670  -31.0020   21.8930 N   0  0  0  0  0  0  0  0  0  0  0  0
  -23.5530  -31.9460   23.6320 O   0  0  0  0  0  0  0  0  0  0  0  0
  -22.8220  -29.2950   22.3030 C   0  0  0  0  0  0  0  0  0  0  0  0
  -21.5120  -29.0200   22.1730 N   0  0  0  0  0  0  0  0  0  0  0  0
  -23.5490  -28.6960   23.0970 O   0  0  0  0  0  0  0  0  0  0  0  0
  -20.9810  -29.5660   21.5100 H   0  0  0  0  0  0  0  0  0  0  0  0
  -18.2570  -27.4970   22.5820 C   0  0  0  0  0  0  0  0  0  0  0  0
  -20.7710  -27.9940   22.9100 C   0  0  0  0  0  3  0  0  0  0  0  0
  -21.0200  -26.5910   22.3100 C   0  0  0  0  0  2  0  0  0  0  0  0
  -19.9750  -26.1830   21.2670 C   0  0  0  0  0  2  0  0  0  0  0  0
  -18.5750  -26.1830   21.8890 C   0  0  0  0  0  2  0  0  0  0  0  0
  -19.2880  -28.3540   23.0480 C   0  0  0  0  0  0  0  0  0  0  0  0
  -18.9390  -29.5780   23.6570 C   0  0  0  0  0  3  0  0  0  0  0  0
  -17.5900  -29.9500   23.8060 C   0  0  0  0  0  3  0  0  0  0  0  0
  -16.5720  -29.0890   23.3590 C   0  0  0  0  0  3  0  0  0  0  0  0
  -16.9050  -27.8650   22.7530 C   0  0  0  0  0  3  0  0  0  0  0  0
  -25.9040  -32.3970   23.6420 C   0  0  0  0  0  3  0  0  0  0  0  0
  -26.5020  -31.5860   24.8590 C   0  0  1  0  0  0  0  0  0  0  0  0
  -25.4530  -31.2330   25.9380 C   0  0  0  0  0  1  0  0  0  0  0  0
  -27.1510  -30.2680   24.3770 C   0  0  0  0  0  1  0  0  0  0  0  0
  -27.6250  -32.4040   25.5430 C   0  0  0  0  0  1  0  0  0  0  0  0
  -25.5550  -33.7620   24.0610 N   0  0  0  0  0  0  0  0  0  0  0  0
  -25.8180  -34.8690   23.3550 C   0  0  0  0  0  0  0  0  0  0  0  0
  -26.4530  -34.8500   22.2960 O   0  0  0  0  0  0  0  0  0  0  0  0
  -24.9890  -33.8490   24.8910 H   0  0  0  0  0  0  0  0  0  0  0  0
  -24.0200  -36.6210   23.1520 C   0  0  0  0  0  1  0  0  0  0  0  0
  -25.2950  -36.2090   23.9070 C   0  0  0  0  0  3  0  0  0  0  0  0
  -27.4130  -37.1190   24.7460 C   0  0  0  0  0  1  0  0  0  0  0  0
  -26.2870  -37.3020   23.8350 N   0  0  0  0  0  0  0  0  0  0  0  0
  -25.8520  -38.1960   24.0460 H   0  0  0  0  0  0  0  0  0  0  0  0
  1  2  2  0
  2  5  1  0
  3  1  1  0
  4  6  2  0
  6  2  1  0
  7  4  1  0
  7  3  2  0
  8  3  1  0
  8  9  1  0
  9 10  1  0
 11  9  1  0
 12  9  1  0
 13 25  1  0
 14 19  1  0
 15 16  1  0
 15 14  1  0
 17 16  1  0
 17 29  1  0
 17 18  1  0
 19 13  1  0
 19 18  1  0
 20 13  2  0
 22 21  1  0
 23 21  1  0
 24 12  1  0
 24 25  1  0
 24 22  1  0
 25 23  1  0
 26 27  2  0
 27 46  1  0
 28 27  1  0
 28 31  1  0
 29 30  1  0
 29 26  1  0
 30 28  2  0
 31 32  1  0
 32 33  2  0
 34 37  1  0
 34 33  1  0
 35 34  2  0
 36 35  1  0
 36 31  2  0
 37 38  1  0
 38 43  2  0
 38 39  1  0
 39 40  2  0
 40 41  1  0
 41 45  1  0
 42 41  2  0
 43 42  1  0
 44 43  1  0
 46 47  1  0
 47 50  1  0
 47 49  1  0
 48 46  2  0
 51 26  1  0
 51 52  1  0
 53 51  1  0
 54  4  1  0
 54 55  1  0
 55 57  1  0
 56 67  2  0
 57 62  1  0
 58 66  1  0
 58 68  1  0
 59 65  1  0
 59 61  1  0
 60 66  1  0
 61 60  1  0
 62 61  2  0
 63 64  1  0
 63 57  2  0
 64 59  2  0
 65 58  1  0
 66 56  1  0
 68 70  2  0
 69 68  1  0
 71 69  1  0
 72 81  2  0
 72 77  1  0
 73 69  1  0
 73 77  1  0
 74 73  1  0
 75 76  1  0
 75 74  1  0
 76 72  1  0
 77 78  2  0
 78 79  1  0
 80 79  2  0
 81 80  1  0
 82 56  1  0
 82 87  1  0
 82 83  1  0
 83 86  1  1
 83 84  1  0
 85 83  1  0
 87 90  1  0
 88 92  1  0
 88 87  1  0
 89 88  2  0
 92 91  1  0
 94 92  1  0
 94 95  1  0
 94 93  1  0
M  ISO  4  13 100  25 100  54 101  55 101
M  END
>  <TORSDO>  (37) 
F 20

>  <SCORE>  (37) 
-11.190

>  <name>  (37) 
36

>  <ligand_id>  (37) 
36

>  <original_smiles>  (37) 
[H]c1c(C([H])([H])[H])nc(C([H])([H])Oc2c([H])c([H])c3c(c2[H])C([H])([H])N(C(=O)C([H])(N([H])C(=O)C([H])(N([H])C([H])([H])[H])C([H])([H])[H])C(C([H])([H])[H])(C([H])([H])[H])C([H])([H])[H])C([H])(C(=O)N([H])C2([H])c4c([H])c([H])c([H])c([H])c4C([H])([H])C([H])([H])C2([H])[H])C3([H])[H])nc1C([H])([H])[N+]([H])([H])C([H])([H])C1([H])N(C(=O)N2C([H])([H])C([H])([H])C([H])([H])C([H])(n3nc(-c4c([H])c([H])c(Oc5c([H])c([H])c(F)c([H])c5F)c([H])c4[H])c(C(=O)N([H])[H])c3N([H])[H])C2([H])[H])C([H])([H])C([H])([H])C1([H])[H]

>  <smiles>  (37) 
[H]c1c(C([H])([H])[H])nc(C([H])([H])Oc2c([H])c([H])c3c(c2[H])C([H])([H])N(C(=O)C([H])(N([H])C(=O)C([H])(N([H])C([H])([H])[H])C([H])([H])[H])C(C([H])([H])[H])(C([H])([H])[H])C([H])([H])[H])C([H])(C(=O)N([H])C2([H])c4c([H])c([H])c([H])c([H])c4C([H])([H])C([H])([H])C2([H])[H])C3([H])[H])nc1C([H])([H])[N+]([H])([H])C([H])([H])C1([H])N(C(=O)N2C([H])([H])C([H])([H])C([H])([H])C([H])(n3nc(-c4c([H])c([H])c(Oc5c([H])c([H])c(F)c([H])c5F)c([H])c4[H])c(C(=O)N([H])[H])c3N([H])[H])C2([H])[H])C([H])([H])C([H])([H])C1([H])[H]

$$$$
37:0:0
     RDKit          3D

 93102  0  0  1  0  0  0  0  0999 V2000
  -30.9640  -22.0670   17.8800 C   0  0  0  0  0  0  0  0  0  0  0  0
  -29.9040  -21.1800   19.4420 C   0  0  0  0  0  3  0  0  0  0  0  0
  -31.8910  -22.2450   16.7270 C   0  0  0  0  0  1  0  0  0  0  0  0
  -30.6390  -20.8480   18.3850 N   0  0  0  0  0  0  0  0  0  0  0  0
  -30.4380  -23.1110   18.5040 N   0  0  0  0  0  2  0  0  0  0  0  0
  -29.7070  -22.5770   19.5230 N   0  0  0  0  0  0  0  0  0  0  0  0
  -29.4890  -20.0800   20.2670 N   0  0  0  0  0  0  0  0  0  0  0  0
  -28.9770  -20.4060   21.0780 H   0  0  0  0  0  0  0  0  0  0  0  0
  -30.6200  -14.8650   20.0110 C   0  0  0  0  0  0  0  0  0  0  0  0
  -30.3640  -12.6070   18.9340 C   0  0  0  0  0  2  0  0  0  0  0  0
  -29.3420  -12.6500   17.7750 C   0  0  0  0  0  2  0  0  0  0  0  0
  -27.9080  -12.4230   18.2980 C   0  0  0  0  0  2  0  0  0  0  0  0
  -27.6000  -13.2850   19.5490 C   0  0  0  0  0  3  0  0  0  0  0  0
  -28.7350  -13.1820   20.5920 C   0  0  0  0  0  2  0  0  0  0  0  0
  -29.9620  -13.6420   19.9250 N   0  0  0  0  0  0  0  0  0  0  0  0
  -31.7960  -14.8980   19.6340 O   0  0  0  0  0  0  0  0  0  0  0  0
  -28.4350  -17.8820   21.0450 C   0  0  0  0  0  2  0  0  0  0  0  0
  -28.5900  -16.3700   20.7430 C   0  0  0  0  0  2  0  0  0  0  0  0
  -30.5020  -17.5060   19.9870 C   0  0  0  0  0  2  0  0  0  0  0  0
  -29.3150  -18.5820   20.0170 C   0  0  0  0  0  3  0  0  0  0  0  0
  -29.9510  -16.0980   20.2350 N   0  0  0  0  0  0  0  0  0  0  0  0
  -25.2730  -13.8840   20.4540 C   0  0  0  0  0  0  0  0  0  0  0  0
  -24.2240  -13.1070   20.8660 C   0  0  0  0  0  0  0  0  0  0  0  0
  -24.6770  -11.7550   20.7690 C   0  0  0  0  0  0  0  0  0  0  0  0
  -26.2910  -13.0030   20.1200 N   0  0  0  0  0  0  0  0  0  0  0  0
  -25.9430  -11.7180   20.3750 N   0  0  0  0  0  0  0  0  0  0  0  0
  -23.9590  -10.4930   20.9740 C   0  0  0  0  0  0  0  0  0  0  0  0
  -24.4240   -9.5190   21.8860 C   0  0  0  0  0  3  0  0  0  0  0  0
  -23.7050   -8.3180   22.0750 C   0  0  0  0  0  3  0  0  0  0  0  0
  -22.5090   -8.0870   21.3530 C   0  0  0  0  0  0  0  0  0  0  0  0
  -22.0660   -9.0510   20.4290 C   0  0  0  0  0  3  0  0  0  0  0  0
  -22.7860  -10.2430   20.2370 C   0  0  0  0  0  3  0  0  0  0  0  0
  -21.7590   -6.9410   21.4530 O   0  0  0  0  0  0  0  0  0  0  0  0
  -21.7120   -6.2110   22.6130 C   0  0  0  0  0  0  0  0  0  0  0  0
  -21.2540   -6.7700   23.8270 C   0  0  0  0  0  3  0  0  0  0  0  0
  -21.1540   -5.9660   24.9780 C   0  0  0  0  0  3  0  0  0  0  0  0
  -21.5030   -4.6030   24.9210 C   0  0  0  0  0  0  0  0  0  0  0  0
  -21.9550   -4.0440   23.7120 C   0  0  0  0  0  3  0  0  0  0  0  0
  -22.0570   -4.8460   22.5610 C   0  0  0  0  0  0  0  0  0  0  0  0
  -22.4730   -4.2970   21.3950 F   0  0  0  0  0  0  0  0  0  0  0  0
  -21.3990   -3.8290   26.0250 F   0  0  0  0  0  0  0  0  0  0  0  0
  -22.8520  -13.5870   21.2340 C   0  0  0  0  0  0  0  0  0  0  0  0
  -22.1690  -12.8770   22.1240 N   0  0  0  0  0  0  0  0  0  0  0  0
  -22.3930  -14.6300   20.7680 O   0  0  0  0  0  0  0  0  0  0  0  0
  -22.5550  -12.0360   22.5280 H   0  0  0  0  0  0  0  0  0  0  0  0
  -21.2490  -13.1810   22.4090 H   0  0  0  0  0  0  0  0  0  0  0  0
  -25.4270  -15.2580   20.3120 N   0  0  0  0  0  0  0  0  0  0  0  0
  -24.6840  -15.9150   20.5260 H   0  0  0  0  0  0  0  0  0  0  0  0
  -26.2700  -15.7070   19.9850 H   0  0  0  0  0  0  0  0  0  0  0  0
  -30.2060  -24.1840   21.3660 C   0  0  0  0  0  1  0  0  0  0  0  0
  -29.1030  -23.6540   20.4360 C   0  0  0  0  0  3  0  0  0  0  0  0
  -28.3380  -24.9340   19.7410 C   0  0  0  0  0  2  0  0  0  0  0  0
  -28.3850  -26.3630   20.2570 O   0  0  0  0  0  0  0  0  0  0  0  0
  -24.6520  -31.8650   23.2330 C   0  0  0  0  0  0  0  0  0  0  0  0
  -27.2790  -27.2550   20.1710 C   0  0  0  0  0  0  0  0  0  0  0  0
  -23.4650  -30.4680   21.5900 C   0  0  0  0  0  3  0  0  0  0  0  0
  -24.9220  -28.9220   20.1590 C   0  0  0  0  0  0  0  0  0  0  0  0
  -26.0110  -30.7680   21.4270 C   0  0  0  0  0  2  0  0  0  0  0  0
  -26.0930  -29.3870   20.7720 C   0  0  0  0  0  0  0  0  0  0  0  0
  -27.2670  -28.5650   20.7710 C   0  0  0  0  0  3  0  0  0  0  0  0
  -26.0850  -26.8760   19.5130 C   0  0  0  0  0  3  0  0  0  0  0  0
  -24.9250  -27.6740   19.5220 C   0  0  0  0  0  3  0  0  0  0  0  0
  -23.6890  -29.8030   20.2070 C   0  0  0  0  0  2  0  0  0  0  0  0
  -24.7300  -31.0520   22.1380 N   0  0  0  0  0  0  0  0  0  0  0  0
  -23.5630  -32.1430   23.7560 O   0  0  0  0  0  0  0  0  0  0  0  0
  -22.7970  -29.4460   22.5430 C   0  0  0  0  0  0  0  0  0  0  0  0
  -21.4710  -29.2730   22.4130 N   0  0  0  0  0  0  0  0  0  0  0  0
  -23.4720  -28.8120   23.3590 O   0  0  0  0  0  0  0  0  0  0  0  0
  -20.9860  -29.8310   21.7230 H   0  0  0  0  0  0  0  0  0  0  0  0
  -18.0870  -28.0950   22.9190 C   0  0  0  0  0  0  0  0  0  0  0  0
  -20.6480  -28.3350   23.1790 C   0  0  0  0  0  3  0  0  0  0  0  0
  -20.7400  -26.9090   22.5890 C   0  0  0  0  0  2  0  0  0  0  0  0
  -19.6300  -26.6030   21.5790 C   0  0  0  0  0  2  0  0  0  0  0  0
  -18.2520  -26.7510   22.2310 C   0  0  0  0  0  2  0  0  0  0  0  0
  -19.2120  -28.8460   23.3510 C   0  0  0  0  0  0  0  0  0  0  0  0
  -19.0020  -30.1050   23.9550 C   0  0  0  0  0  3  0  0  0  0  0  0
  -17.7010  -30.6100   24.1340 C   0  0  0  0  0  3  0  0  0  0  0  0
  -16.5900  -29.8560   23.7170 C   0  0  0  0  0  3  0  0  0  0  0  0
  -16.7850  -28.6020   23.1130 C   0  0  0  0  0  3  0  0  0  0  0  0
  -25.9280  -32.5010   23.8660 C   0  0  0  0  0  3  0  0  0  0  0  0
  -25.6090  -33.8980   24.1910 N   0  0  0  0  0  0  0  0  0  0  0  0
  -25.9290  -34.9530   23.4270 C   0  0  0  0  0  0  0  0  0  0  0  0
  -26.5890  -34.8490   22.3890 O   0  0  0  0  0  0  0  0  0  0  0  0
  -25.0140  -34.0530   24.9920 H   0  0  0  0  0  0  0  0  0  0  0  0
  -24.1800  -36.7320   23.0970 C   0  0  0  0  0  1  0  0  0  0  0  0
  -25.4370  -36.3390   23.8870 C   0  0  0  0  0  3  0  0  0  0  0  0
  -27.5770  -37.2470   24.6820 C   0  0  0  0  0  1  0  0  0  0  0  0
  -26.4590  -37.4000   23.7540 N   0  0  0  0  0  0  0  0  0  0  0  0
  -26.0470  -38.3170   23.9040 H   0  0  0  0  0  0  0  0  0  0  0  0
  -26.4330  -31.7340   25.1500 C   0  0  1  0  0  0  0  0  0  0  0  0
  -25.3270  -31.5010   26.2050 C   0  0  0  0  0  1  0  0  0  0  0  0
  -27.0220  -30.3550   24.7710 C   0  0  0  0  0  1  0  0  0  0  0  0
  -27.5750  -32.5320   25.8200 C   0  0  0  0  0  1  0  0  0  0  0  0
  1  4  2  0
  1  5  1  0
  2  6  1  0
  2  7  1  0
  3  1  1  0
  4  2  1  0
  5  6  1  0
  6 51  1  0
  7  8  1  0
  9 21  1  0
 10 15  1  0
 11 12  1  0
 11 10  1  0
 13 12  1  0
 13 25  1  0
 13 14  1  0
 15  9  1  0
 15 14  1  0
 16  9  2  0
 18 17  1  0
 19 20  1  0
 19 21  1  0
 20  7  1  0
 20 17  1  0
 21 18  1  0
 22 23  2  0
 23 42  1  0
 24 23  1  0
 24 27  1  0
 25 26  1  0
 25 22  1  0
 26 24  2  0
 27 28  1  0
 28 29  2  0
 30 33  1  0
 30 29  1  0
 31 30  2  0
 32 31  1  0
 32 27  2  0
 33 34  1  0
 34 35  1  0
 35 36  2  0
 37 36  1  0
 37 41  1  0
 38 37  2  0
 39 34  2  0
 39 38  1  0
 40 39  1  0
 42 43  1  0
 43 46  1  0
 43 45  1  0
 44 42  2  0
 47 22  1  0
 47 48  1  0
 49 47  1  0
 51 50  1  0
 52 53  1  0
 52 51  1  0
 54 65  2  0
 55 53  1  0
 55 60  1  0
 56 64  1  0
 56 66  1  0
 57 63  1  0
 57 59  1  0
 58 64  1  0
 59 58  1  0
 60 59  2  0
 61 62  1  0
 61 55  2  0
 62 57  2  0
 63 56  1  0
 64 54  1  0
 66 68  2  0
 67 66  1  0
 69 67  1  0
 70 79  2  0
 70 75  1  0
 71 67  1  0
 71 75  1  0
 72 71  1  0
 73 74  1  0
 73 72  1  0
 74 70  1  0
 75 76  2  0
 76 77  1  0
 78 77  2  0
 79 78  1  0
 80 54  1  0
 80 81  1  0
 80 90  1  0
 81 84  1  0
 82 86  1  0
 82 81  1  0
 83 82  2  0
 86 85  1  0
 88 86  1  0
 88 89  1  0
 88 87  1  0
 90 93  1  1
 90 91  1  0
 92 90  1  0
M  ISO  4   9 100  21 100  52 101  53 101
M  END
>  <TORSDO>  (38) 
F 18

>  <SCORE>  (38) 
-14.095

>  <name>  (38) 
37

>  <ligand_id>  (38) 
37

>  <original_smiles>  (38) 
[H]c1c([H])c([H])c2c(c1[H])C([H])([H])C([H])([H])C([H])([H])C2([H])N([H])C(=O)C1([H])N(C(=O)C([H])(N([H])C(=O)C([H])(N([H])C([H])([H])[H])C([H])([H])[H])C(C([H])([H])[H])(C([H])([H])[H])C([H])([H])[H])C([H])([H])c2c([H])c(OC([H])([H])C([H])(n3nc(C([H])([H])[H])nc3N([H])C3([H])C([H])([H])N(C(=O)N4C([H])([H])C([H])([H])C([H])([H])C([H])(n5nc(-c6c([H])c([H])c(Oc7c([H])c([H])c(F)c([H])c7F)c([H])c6[H])c(C(=O)N([H])[H])c5N([H])[H])C4([H])[H])C([H])([H])C3([H])[H])C([H])([H])[H])c([H])c([H])c2C1([H])[H]

>  <smiles>  (38) 
[H]c1c([H])c([H])c2c(c1[H])C([H])([H])C([H])([H])C([H])([H])C2([H])N([H])C(=O)C1([H])N(C(=O)C([H])(N([H])C(=O)C([H])(N([H])C([H])([H])[H])C([H])([H])[H])C(C([H])([H])[H])(C([H])([H])[H])C([H])([H])[H])C([H])([H])c2c([H])c(OC([H])([H])C([H])(n3nc(C([H])([H])[H])nc3N([H])C3([H])C([H])([H])N(C(=O)N4C([H])([H])C([H])([H])C([H])([H])C([H])(n5nc(-c6c([H])c([H])c(Oc7c([H])c([H])c(F)c([H])c7F)c([H])c6[H])c(C(=O)N([H])[H])c5N([H])[H])C4([H])[H])C([H])([H])C3([H])[H])C([H])([H])[H])c([H])c([H])c2C1([H])[H]

$$$$
38:0:0
     RDKit          3D

 96105  0  0  1  0  0  0  0  0999 V2000
  -28.3810  -21.2480   21.8680 C   0  0  0  0  0  2  0  0  0  0  0  0
  -30.4720  -21.0900   20.4360 C   0  0  0  0  0  3  0  0  0  0  0  0
  -28.4420  -22.7540   21.5110 C   0  0  0  0  0  2  0  0  0  0  0  0
  -30.7160  -22.6340   20.6660 C   0  0  0  0  0  3  0  0  0  0  0  0
  -29.5590  -20.2930   21.4130 C   0  0  0  0  0  3  0  0  0  0  0  0
  -29.7890  -23.3310   21.6110 N   0  0  1  0  0  4  0  0  0  0  0  0
  -30.0900  -23.0920   22.5440 H   0  0  0  0  0  0  0  0  0  0  0  0
  -27.5720  -18.1100   19.6160 C   0  0  0  0  0  2  0  0  0  0  0  0
  -28.8250  -17.7230   19.0740 C   0  0  0  0  0  3  0  0  0  0  0  0
  -29.6790  -17.9480   20.1260 C   0  0  0  0  0  3  0  0  0  0  0  0
  -27.7210  -18.8450   20.6850 N   0  0  0  0  0  2  0  0  0  0  0  0
  -29.0570  -19.0300   20.7760 N   0  0  0  0  0  0  0  0  0  0  0  0
  -28.5940  -18.3200   16.6640 C   0  0  0  0  0  1  0  0  0  0  0  0
  -29.0940  -17.2620   17.6600 C   0  0  0  0  0  2  0  0  0  0  0  0
  -30.9960  -17.2720   20.4950 C   0  0  0  0  0  2  0  0  0  0  0  0
  -31.3970  -14.7670   20.4290 C   0  0  0  0  0  0  0  0  0  0  0  0
  -30.9980  -12.5740   19.3660 C   0  0  0  0  0  2  0  0  0  0  0  0
  -30.1230  -12.8680   18.1330 C   0  0  0  0  0  2  0  0  0  0  0  0
  -28.6350  -12.8010   18.5220 C   0  0  0  0  0  2  0  0  0  0  0  0
  -28.3070  -13.6350   19.7880 C   0  0  0  0  0  3  0  0  0  0  0  0
  -29.3310  -13.3690   20.9220 C   0  0  0  0  0  2  0  0  0  0  0  0
  -30.6790  -13.5990   20.3750 N   0  0  0  0  0  0  0  0  0  0  0  0
  -32.5210  -14.8720   19.9290 O   0  0  0  0  0  0  0  0  0  0  0  0
  -30.7460  -15.8550   20.8850 N   0  0  0  0  0  0  0  0  0  0  0  0
  -29.8630  -15.6980   21.3370 H   0  0  0  0  0  0  0  0  0  0  0  0
  -25.9220  -14.3700   20.3990 C   0  0  0  0  0  0  0  0  0  0  0  0
  -24.7940  -13.6710   20.7200 C   0  0  0  0  0  0  0  0  0  0  0  0
  -25.1680  -12.2930   20.6860 C   0  0  0  0  0  0  0  0  0  0  0  0
  -26.9210  -13.4300   20.2050 N   0  0  0  0  0  0  0  0  0  0  0  0
  -26.4630  -12.1750   20.4230 N   0  0  0  0  0  0  0  0  0  0  0  0
  -24.3560  -11.0900   20.8310 C   0  0  0  0  0  0  0  0  0  0  0  0
  -24.7260  -10.0560   21.7200 C   0  0  0  0  0  3  0  0  0  0  0  0
  -23.9200   -8.9070   21.8630 C   0  0  0  0  0  3  0  0  0  0  0  0
  -22.7290   -8.7880   21.1050 C   0  0  0  0  0  0  0  0  0  0  0  0
  -22.3670   -9.8130   20.2120 C   0  0  0  0  0  3  0  0  0  0  0  0
  -23.1770  -10.9510   20.0730 C   0  0  0  0  0  3  0  0  0  0  0  0
  -21.8940   -7.6970   21.1580 O   0  0  0  0  0  0  0  0  0  0  0  0
  -21.8050   -6.9130   22.2800 C   0  0  0  0  0  0  0  0  0  0  0  0
  -21.4720   -7.4510   23.5460 C   0  0  0  0  0  3  0  0  0  0  0  0
  -21.3240   -6.5970   24.6590 C   0  0  0  0  0  3  0  0  0  0  0  0
  -21.5090   -5.2090   24.5070 C   0  0  0  0  0  0  0  0  0  0  0  0
  -21.8350   -4.6700   23.2510 C   0  0  0  0  0  3  0  0  0  0  0  0
  -21.9840   -5.5220   22.1400 C   0  0  0  0  0  0  0  0  0  0  0  0
  -22.2810   -4.9970   20.9270 F   0  0  0  0  0  0  0  0  0  0  0  0
  -21.3560   -4.3900   25.5720 F   0  0  0  0  0  0  0  0  0  0  0  0
  -23.4260  -14.2470   20.9650 C   0  0  0  0  0  0  0  0  0  0  0  0
  -22.6370  -13.6030   21.8150 N   0  0  0  0  0  0  0  0  0  0  0  0
  -23.0660  -15.2990   20.4390 O   0  0  0  0  0  0  0  0  0  0  0  0
  -22.9360  -12.7450   22.2610 H   0  0  0  0  0  0  0  0  0  0  0  0
  -21.7240  -13.9750   22.0390 H   0  0  0  0  0  0  0  0  0  0  0  0
  -26.1700  -15.7120   20.2220 N   0  0  0  0  0  0  0  0  0  0  0  0
  -25.4270  -16.4030   20.2370 H   0  0  0  0  0  0  0  0  0  0  0  0
  -27.0660  -16.0690   19.9140 H   0  0  0  0  0  0  0  0  0  0  0  0
  -29.7760  -24.8540   21.5960 C   0  0  0  0  0  2  0  0  0  0  0  0
  -29.2610  -25.5960   20.2950 C   0  0  0  0  0  2  0  0  0  0  0  0
  -29.0120  -27.0170   20.5180 O   0  0  0  0  0  0  0  0  0  0  0  0
  -24.7330  -31.9580   23.3550 C   0  0  0  0  0  0  0  0  0  0  0  0
  -27.7580  -27.6260   20.4140 C   0  0  0  0  0  0  0  0  0  0  0  0
  -23.6710  -30.5070   21.6480 C   0  0  0  0  0  3  0  0  0  0  0  0
  -25.2680  -29.0300   20.3000 C   0  0  0  0  0  0  0  0  0  0  0  0
  -26.1840  -30.9720   21.5740 C   0  0  0  0  0  2  0  0  0  0  0  0
  -26.3660  -29.6040   20.9390 C   0  0  0  0  0  0  0  0  0  0  0  0
  -27.6020  -28.9110   20.9930 C   0  0  0  0  0  3  0  0  0  0  0  0
  -26.6340  -27.0670   19.7450 C   0  0  0  0  0  3  0  0  0  0  0  0
  -25.3990  -27.7620   19.6920 C   0  0  0  0  0  3  0  0  0  0  0  0
  -23.9750  -29.8270   20.2850 C   0  0  0  0  0  2  0  0  0  0  0  0
  -24.8760  -31.1650   22.2520 N   0  0  0  0  0  0  0  0  0  0  0  0
  -23.6150  -32.1810   23.8470 O   0  0  0  0  0  0  0  0  0  0  0  0
  -23.0130  -29.4670   22.5800 C   0  0  0  0  0  0  0  0  0  0  0  0
  -21.7090  -29.2180   22.3810 N   0  0  0  0  0  0  0  0  0  0  0  0
  -23.6770  -28.8860   23.4390 O   0  0  0  0  0  0  0  0  0  0  0  0
  -21.2370  -29.7250   21.6470 H   0  0  0  0  0  0  0  0  0  0  0  0
  -18.3750  -27.8790   22.7000 C   0  0  0  0  0  0  0  0  0  0  0  0
  -20.8980  -28.2570   23.1260 C   0  0  0  0  0  3  0  0  0  0  0  0
  -21.0880  -26.8180   22.5930 C   0  0  0  0  0  2  0  0  0  0  0  0
  -20.0810  -26.4350   21.5030 C   0  0  0  0  0  2  0  0  0  0  0  0
  -18.6470  -26.5410   22.0350 C   0  0  0  0  0  2  0  0  0  0  0  0
  -19.4300  -28.6900   23.1960 C   0  0  0  0  0  0  0  0  0  0  0  0
  -19.1180  -29.9400   23.7740 C   0  0  0  0  0  3  0  0  0  0  0  0
  -17.7850  -30.3780   23.8580 C   0  0  0  0  0  3  0  0  0  0  0  0
  -16.7430  -29.5640   23.3880 C   0  0  0  0  0  3  0  0  0  0  0  0
  -17.0400  -28.3180   22.8070 C   0  0  0  0  0  3  0  0  0  0  0  0
  -25.9590  -32.6390   24.0380 C   0  0  0  0  0  3  0  0  0  0  0  0
  -25.5970  -34.0390   24.2950 N   0  0  0  0  0  0  0  0  0  0  0  0
  -25.9500  -35.0740   23.5160 C   0  0  0  0  0  0  0  0  0  0  0  0
  -26.6800  -34.9510   22.5340 O   0  0  0  0  0  0  0  0  0  0  0  0
  -24.9430  -34.2050   25.0440 H   0  0  0  0  0  0  0  0  0  0  0  0
  -24.1910  -36.8020   23.0130 C   0  0  0  0  0  1  0  0  0  0  0  0
  -25.4050  -36.4650   23.8930 C   0  0  0  0  0  3  0  0  0  0  0  0
  -27.4810  -37.4450   24.7670 C   0  0  0  0  0  1  0  0  0  0  0  0
  -26.4120  -37.5430   23.7760 N   0  0  0  0  0  0  0  0  0  0  0  0
  -25.9740  -38.4560   23.8660 H   0  0  0  0  0  0  0  0  0  0  0  0
  -26.4070  -31.9250   25.3730 C   0  0  1  0  0  0  0  0  0  0  0  0
  -25.2390  -31.6460   26.3460 C   0  0  0  0  0  1  0  0  0  0  0  0
  -27.0970  -30.5760   25.0670 C   0  0  0  0  0  1  0  0  0  0  0  0
  -27.4470  -32.7990   26.1150 C   0  0  0  0  0  1  0  0  0  0  0  0
  2  4  2  0
  3  6  1  0
  3  1  1  0
  4  6  1  0
  5  2  1  0
  5  1  1  0
  6  7  1  1
  8 11  1  0
  9 14  1  0
  9  8  1  0
  9 10  1  0
 10 15  1  0
 10 12  1  0
 12 11  1  0
 12  5  1  0
 13 14  1  0
 15 24  1  0
 16 24  1  0
 17 22  1  0
 18 19  1  0
 18 17  1  0
 20 19  1  0
 20 29  1  0
 20 21  1  0
 22 16  1  0
 22 21  1  0
 23 16  2  0
 24 25  1  0
 26 27  2  0
 27 46  1  0
 28 27  1  0
 28 31  1  0
 29 26  1  0
 29 30  1  0
 30 28  2  0
 31 32  1  0
 32 33  2  0
 34 37  1  0
 34 33  1  0
 35 34  2  0
 36 35  1  0
 36 31  2  0
 37 38  1  0
 38 39  1  0
 39 40  2  0
 41 40  1  0
 41 45  1  0
 42 41  2  0
 43 38  2  0
 43 42  1  0
 44 43  1  0
 46 47  1  0
 47 50  1  0
 47 49  1  0
 48 46  2  0
 51 52  1  0
 51 26  1  0
 53 51  1  0
 54  6  1  0
 55 56  1  0
 55 54  1  0
 57 68  2  0
 58 56  1  0
 58 63  1  0
 59 67  1  0
 59 69  1  0
 60 62  1  0
 61 67  1  0
 62 63  2  0
 62 61  1  0
 64 58  2  0
 65 64  1  0
 65 60  2  0
 66 60  1  0
 66 59  1  0
 67 57  1  0
 69 71  2  0
 70 69  1  0
 72 70  1  0
 73 82  2  0
 73 78  1  0
 74 70  1  0
 74 78  1  0
 75 74  1  0
 76 77  1  0
 76 75  1  0
 77 73  1  0
 78 79  2  0
 79 80  1  0
 81 80  2  0
 82 81  1  0
 83 57  1  0
 83 84  1  0
 83 93  1  0
 84 87  1  0
 85 89  1  0
 85 84  1  0
 86 85  2  0
 89 88  1  0
 91 92  1  0
 91 89  1  0
 91 90  1  0
 93 96  1  1
 93 94  1  0
 95 93  1  0
M  ISO  4  16 100  24 100  55 101  56 101
M  END
>  <TORSDO>  (39) 
F 21

>  <SCORE>  (39) 
-11.777

>  <name>  (39) 
38

>  <ligand_id>  (39) 
38

>  <original_smiles>  (39) 
[H]c1nn(C2([H])C([H])([H])C([H])([H])[N+]([H])(C([H])([H])C([H])([H])Oc3c([H])c([H])c4c(c3[H])C([H])([H])N(C(=O)C([H])(N([H])C(=O)C([H])(N([H])C([H])([H])[H])C([H])([H])[H])C(C([H])([H])[H])(C([H])([H])[H])C([H])([H])[H])C([H])(C(=O)N([H])C3([H])c5c([H])c([H])c([H])c([H])c5C([H])([H])C([H])([H])C3([H])[H])C4([H])[H])C([H])([H])C2([H])[H])c(C([H])([H])N([H])C(=O)N2C([H])([H])C([H])([H])C([H])([H])C([H])(n3nc(-c4c([H])c([H])c(Oc5c([H])c([H])c(F)c([H])c5F)c([H])c4[H])c(C(=O)N([H])[H])c3N([H])[H])C2([H])[H])c1C([H])([H])C([H])([H])[H]

>  <smiles>  (39) 
[H]c1nn(C2([H])C([H])([H])C([H])([H])[N+]([H])(C([H])([H])C([H])([H])Oc3c([H])c([H])c4c(c3[H])C([H])([H])N(C(=O)C([H])(N([H])C(=O)C([H])(N([H])C([H])([H])[H])C([H])([H])[H])C(C([H])([H])[H])(C([H])([H])[H])C([H])([H])[H])C([H])(C(=O)N([H])C3([H])c5c([H])c([H])c([H])c([H])c5C([H])([H])C([H])([H])C3([H])[H])C4([H])[H])C([H])([H])C2([H])[H])c(C([H])([H])N([H])C(=O)N2C([H])([H])C([H])([H])C([H])([H])C([H])(n3nc(-c4c([H])c([H])c(Oc5c([H])c([H])c(F)c([H])c5F)c([H])c4[H])c(C(=O)N([H])[H])c3N([H])[H])C2([H])[H])c1C([H])([H])C([H])([H])[H]

$$$$
39:0:0
     RDKit          3D

 93101  0  0  1  0  0  0  0  0999 V2000
  -31.0400  -22.6780   22.0940 C   0  0  0  0  0  1  0  0  0  0  0  0
  -30.2470  -22.2000   20.8600 C   0  0  0  0  0  3  0  0  0  0  0  0
  -29.1120  -23.0940   20.5820 N   0  0  0  0  0  0  0  0  0  0  0  0
  -28.6490  -22.7890   19.7290 H   0  0  0  0  0  0  0  0  0  0  0  0
  -29.4260  -24.5250   20.4530 C   0  0  0  0  0  2  0  0  0  0  0  0
  -28.1670  -25.3090   20.0220 C   0  0  0  0  0  2  0  0  0  0  0  0
  -28.3220  -26.7330   20.1410 O   0  0  0  0  0  0  0  0  0  0  0  0
  -24.5860  -31.9460   23.2530 C   0  0  0  0  0  0  0  0  0  0  0  0
  -27.1580  -27.4820   20.1290 C   0  0  0  0  0  0  0  0  0  0  0  0
  -23.3520  -30.5590   21.6210 C   0  0  0  0  0  3  0  0  0  0  0  0
  -24.7780  -29.0210   20.1730 C   0  0  0  0  0  0  0  0  0  0  0  0
  -25.8820  -30.8970   21.4000 C   0  0  0  0  0  2  0  0  0  0  0  0
  -25.9490  -29.5300   20.7470 C   0  0  0  0  0  0  0  0  0  0  0  0
  -27.1430  -28.7690   20.7180 C   0  0  0  0  0  3  0  0  0  0  0  0
  -25.9620  -26.9940   19.5480 C   0  0  0  0  0  3  0  0  0  0  0  0
  -24.7800  -27.7540   19.5700 C   0  0  0  0  0  3  0  0  0  0  0  0
  -23.5420  -29.8890   20.2350 C   0  0  0  0  0  2  0  0  0  0  0  0
  -24.6260  -31.1480   22.1490 N   0  0  0  0  0  0  0  0  0  0  0  0
  -23.5110  -32.2240   23.8050 O   0  0  0  0  0  0  0  0  0  0  0  0
  -22.7030  -29.5370   22.5820 C   0  0  0  0  0  0  0  0  0  0  0  0
  -21.3770  -29.3580   22.4600 N   0  0  0  0  0  0  0  0  0  0  0  0
  -23.3880  -28.9090   23.3930 O   0  0  0  0  0  0  0  0  0  0  0  0
  -20.8860  -29.9150   21.7750 H   0  0  0  0  0  0  0  0  0  0  0  0
  -18.0010  -28.1720   22.9730 C   0  0  0  0  0  0  0  0  0  0  0  0
  -20.5610  -28.4230   23.2360 C   0  0  0  0  0  3  0  0  0  0  0  0
  -20.6570  -26.9910   22.6620 C   0  0  0  0  0  2  0  0  0  0  0  0
  -19.5520  -26.6700   21.6510 C   0  0  0  0  0  2  0  0  0  0  0  0
  -18.1720  -26.8220   22.2980 C   0  0  0  0  0  2  0  0  0  0  0  0
  -19.1230  -28.9310   23.3980 C   0  0  0  0  0  0  0  0  0  0  0  0
  -18.9110  -30.1970   23.9880 C   0  0  0  0  0  3  0  0  0  0  0  0
  -17.6090  -30.7040   24.1530 C   0  0  0  0  0  3  0  0  0  0  0  0
  -16.5010  -29.9410   23.7460 C   0  0  0  0  0  3  0  0  0  0  0  0
  -16.6980  -28.6770   23.1640 C   0  0  0  0  0  3  0  0  0  0  0  0
  -25.8820  -32.5650   23.8620 C   0  0  0  0  0  3  0  0  0  0  0  0
  -25.5880  -33.9630   24.2010 N   0  0  0  0  0  0  0  0  0  0  0  0
  -25.9080  -35.0150   23.4350 C   0  0  0  0  0  0  0  0  0  0  0  0
  -26.5540  -34.9090   22.3890 O   0  0  0  0  0  0  0  0  0  0  0  0
  -25.0100  -34.1190   25.0140 H   0  0  0  0  0  0  0  0  0  0  0  0
  -24.1770  -36.8130   23.1200 C   0  0  0  0  0  1  0  0  0  0  0  0
  -25.4350  -36.4040   23.9030 C   0  0  0  0  0  3  0  0  0  0  0  0
  -27.5910  -37.2810   24.6880 C   0  0  0  0  0  1  0  0  0  0  0  0
  -26.4700  -37.4520   23.7660 N   0  0  0  0  0  0  0  0  0  0  0  0
  -26.0720  -38.3740   23.9220 H   0  0  0  0  0  0  0  0  0  0  0  0
  -26.4130  -31.7830   25.1250 C   0  0  1  0  0  0  0  0  0  0  0  0
  -25.3320  -31.5400   26.2050 C   0  0  0  0  0  1  0  0  0  0  0  0
  -26.9840  -30.4050   24.7170 C   0  0  0  0  0  1  0  0  0  0  0  0
  -27.5770  -32.5650   25.7760 C   0  0  0  0  0  1  0  0  0  0  0  0
  -29.7110  -20.7490   21.0590 C   0  0  0  0  0  2  0  0  0  0  0  0
  -30.7460  -19.7040   20.8510 N   0  0  0  0  0  4  0  0  0  0  0  0
  -30.9790  -19.6580   19.8730 H   0  0  0  0  0  0  0  0  0  0  0  0
  -31.5730  -20.0070   21.3420 H   0  0  0  0  0  0  0  0  0  0  0  0
  -30.6350  -14.4920   20.1690 C   0  0  0  0  0  0  0  0  0  0  0  0
  -30.2080  -12.3980   18.9210 C   0  0  0  0  0  2  0  0  0  0  0  0
  -29.1970  -12.6090   17.7780 C   0  0  0  0  0  2  0  0  0  0  0  0
  -27.7580  -12.4240   18.2920 C   0  0  0  0  0  2  0  0  0  0  0  0
  -27.4840  -13.2410   19.5770 C   0  0  0  0  0  3  0  0  0  0  0  0
  -28.6040  -13.0300   20.6260 C   0  0  0  0  0  2  0  0  0  0  0  0
  -29.8970  -13.3550   20.0000 N   0  0  0  0  0  0  0  0  0  0  0  0
  -31.6820  -14.6860   19.5430 O   0  0  0  0  0  0  0  0  0  0  0  0
  -31.6470  -17.4400   21.5000 C   0  0  0  0  0  2  0  0  0  0  0  0
  -29.3700  -17.6130   20.4780 C   0  0  0  0  0  2  0  0  0  0  0  0
  -31.2750  -16.0180   21.9970 C   0  0  0  0  0  2  0  0  0  0  0  0
  -29.0550  -16.2100   21.0460 C   0  0  0  0  0  2  0  0  0  0  0  0
  -30.4030  -18.3460   21.3600 C   0  0  0  0  0  3  0  0  0  0  0  0
  -30.2630  -15.3700   21.1410 N   0  0  0  0  0  0  0  0  0  0  0  0
  -25.1320  -13.8330   20.4350 C   0  0  0  0  0  0  0  0  0  0  0  0
  -24.0890  -13.0490   20.8480 C   0  0  0  0  0  0  0  0  0  0  0  0
  -24.5540  -11.7000   20.7700 C   0  0  0  0  0  0  0  0  0  0  0  0
  -26.1640  -12.9580   20.1300 N   0  0  0  0  0  0  0  0  0  0  0  0
  -25.8250  -11.6720   20.3910 N   0  0  0  0  0  0  0  0  0  0  0  0
  -23.8470  -10.4310   20.9770 C   0  0  0  0  0  0  0  0  0  0  0  0
  -24.3100   -9.4710   21.9030 C   0  0  0  0  0  3  0  0  0  0  0  0
  -23.6030   -8.2660   22.0970 C   0  0  0  0  0  3  0  0  0  0  0  0
  -22.4210   -8.0110   21.3620 C   0  0  0  0  0  0  0  0  0  0  0  0
  -21.9780   -8.9590   20.4240 C   0  0  0  0  0  3  0  0  0  0  0  0
  -22.6850  -10.1570   20.2290 C   0  0  0  0  0  3  0  0  0  0  0  0
  -21.6830   -6.8560   21.4650 O   0  0  0  0  0  0  0  0  0  0  0  0
  -21.6400   -6.1320   22.6290 C   0  0  0  0  0  0  0  0  0  0  0  0
  -21.2060   -6.7020   23.8470 C   0  0  0  0  0  3  0  0  0  0  0  0
  -21.1130   -5.9030   25.0030 C   0  0  0  0  0  3  0  0  0  0  0  0
  -21.4410   -4.5360   24.9450 C   0  0  0  0  0  0  0  0  0  0  0  0
  -21.8690   -3.9650   23.7330 C   0  0  0  0  0  3  0  0  0  0  0  0
  -21.9660   -4.7600   22.5780 C   0  0  0  0  0  0  0  0  0  0  0  0
  -22.3570   -4.2020   21.4070 F   0  0  0  0  0  0  0  0  0  0  0  0
  -21.3440   -3.7650   26.0550 F   0  0  0  0  0  0  0  0  0  0  0  0
  -22.7050  -13.5130   21.2010 C   0  0  0  0  0  0  0  0  0  0  0  0
  -22.0290  -12.7970   22.0940 N   0  0  0  0  0  0  0  0  0  0  0  0
  -22.2340  -14.5430   20.7230 O   0  0  0  0  0  0  0  0  0  0  0  0
  -22.4240  -11.9620   22.5010 H   0  0  0  0  0  0  0  0  0  0  0  0
  -21.1040  -13.0890   22.3740 H   0  0  0  0  0  0  0  0  0  0  0  0
  -25.2800  -15.2070   20.2710 N   0  0  0  0  0  0  0  0  0  0  0  0
  -24.5170  -15.8550   20.4350 H   0  0  0  0  0  0  0  0  0  0  0  0
  -26.1050  -15.6560   19.8960 H   0  0  0  0  0  0  0  0  0  0  0  0
  2 48  1  0
  2  1  1  0
  3  2  1  0
  4  3  1  0
  5  3  1  0
  6  7  1  0
  6  5  1  0
  8 19  2  0
  9  7  1  0
  9 14  1  0
 10 18  1  0
 10 20  1  0
 11 17  1  0
 11 13  1  0
 12 18  1  0
 13 12  1  0
 14 13  2  0
 15 16  1  0
 15  9  2  0
 16 11  2  0
 17 10  1  0
 18  8  1  0
 20 22  2  0
 21 20  1  0
 23 21  1  0
 24 33  2  0
 24 29  1  0
 25 21  1  0
 25 29  1  0
 26 25  1  0
 27 28  1  0
 27 26  1  0
 28 24  1  0
 29 30  2  0
 30 31  1  0
 32 31  2  0
 33 32  1  0
 34  8  1  0
 34 35  1  0
 34 44  1  0
 35 38  1  0
 36 40  1  0
 36 35  1  0
 37 36  2  0
 40 39  1  0
 42 40  1  0
 42 43  1  0
 42 41  1  0
 44 47  1  1
 44 45  1  0
 46 44  1  0
 49 48  1  0
 49 51  1  0
 50 49  1  0
 52 65  1  0
 53 58  1  0
 54 55  1  0
 54 53  1  0
 56 55  1  0
 56 69  1  0
 56 57  1  0
 58 52  1  0
 58 57  1  0
 59 52  2  0
 60 62  1  0
 61 63  1  0
 61 64  1  0
 63 65  1  0
 64 49  1  0
 64 60  1  0
 65 62  1  0
 66 67  2  0
 67 86  1  0
 68 67  1  0
 68 71  1  0
 69 70  1  0
 69 66  1  0
 70 68  2  0
 71 72  1  0
 72 73  2  0
 74 77  1  0
 74 73  1  0
 75 74  2  0
 76 75  1  0
 76 71  2  0
 77 78  1  0
 78 79  1  0
 79 80  2  0
 81 80  1  0
 81 85  1  0
 82 81  2  0
 83 78  2  0
 83 82  1  0
 84 83  1  0
 86 87  1  0
 87 90  1  0
 87 89  1  0
 88 86  2  0
 91 92  1  0
 91 66  1  0
 93 91  1  0
M  ISO  4   6 101   7 101  52 100  65 100
M  END
>  <TORSDO>  (40) 
F 21

>  <SCORE>  (40) 
-13.014

>  <name>  (40) 
39

>  <ligand_id>  (40) 
39

>  <original_smiles>  (40) 
[H]c1c([H])c([H])c2c(c1[H])C([H])([H])C([H])([H])C([H])([H])C2([H])N([H])C(=O)C1([H])N(C(=O)C([H])(N([H])C(=O)C([H])(N([H])C([H])([H])[H])C([H])([H])[H])C(C([H])([H])[H])(C([H])([H])[H])C([H])([H])[H])C([H])([H])c2c([H])c(OC([H])([H])C([H])([H])N([H])C([H])(C([H])([H])[H])C([H])([H])[N+]([H])([H])C3([H])C([H])([H])C([H])([H])N(C(=O)N4C([H])([H])C([H])([H])C([H])([H])C([H])(n5nc(-c6c([H])c([H])c(Oc7c([H])c([H])c(F)c([H])c7F)c([H])c6[H])c(C(=O)N([H])[H])c5N([H])[H])C4([H])[H])C([H])([H])C3([H])[H])c([H])c([H])c2C1([H])[H]

>  <smiles>  (40) 
[H]c1c([H])c([H])c2c(c1[H])C([H])([H])C([H])([H])C([H])([H])C2([H])N([H])C(=O)C1([H])N(C(=O)C([H])(N([H])C(=O)C([H])(N([H])C([H])([H])[H])C([H])([H])[H])C(C([H])([H])[H])(C([H])([H])[H])C([H])([H])[H])C([H])([H])c2c([H])c(OC([H])([H])C([H])([H])N([H])C([H])(C([H])([H])[H])C([H])([H])[N+]([H])([H])C3([H])C([H])([H])C([H])([H])N(C(=O)N4C([H])([H])C([H])([H])C([H])([H])C([H])(n5nc(-c6c([H])c([H])c(Oc7c([H])c([H])c(F)c([H])c7F)c([H])c6[H])c(C(=O)N([H])[H])c5N([H])[H])C4([H])[H])C([H])([H])C3([H])[H])c([H])c([H])c2C1([H])[H]

$$$$
40:0:0
     RDKit          3D

100109  0  0  1  0  0  0  0  0999 V2000
  -31.1320  -14.5270   20.7240 C   0  0  0  0  0  0  0  0  0  0  0  0
  -30.8600  -12.3180   19.6740 C   0  0  0  0  0  2  0  0  0  0  0  0
  -30.0340  -12.4660   18.3740 C   0  0  0  0  0  2  0  0  0  0  0  0
  -28.5170  -12.5350   18.6220 C   0  0  0  0  0  2  0  0  0  0  0  0
  -28.1160  -13.3680   19.8700 C   0  0  0  0  0  3  0  0  0  0  0  0
  -29.0600  -13.1330   21.0680 C   0  0  0  0  0  2  0  0  0  0  0  0
  -30.4360  -13.3630   20.6120 N   0  0  0  0  0  0  0  0  0  0  0  0
  -32.3450  -14.6120   20.5310 O   0  0  0  0  0  0  0  0  0  0  0  0
  -29.5670  -18.9410   19.4810 C   0  0  0  0  0  0  0  0  0  0  0  0
  -29.8970  -18.7520   18.1080 C   0  0  0  0  0  0  0  0  0  0  0  0
  -30.3720  -16.7670   19.9510 C   0  0  0  0  0  0  0  0  0  0  0  0
  -30.8340  -16.6940   18.5880 C   0  0  0  0  0  0  0  0  0  0  0  0
  -29.7890  -17.9370   20.3820 N   0  0  0  0  0  0  0  0  0  0  0  0
  -30.5550  -17.6560   17.6970 N   0  0  0  0  0  0  0  0  0  0  0  0
  -30.3730  -15.6330   20.8310 N   0  0  0  0  0  0  0  0  0  0  0  0
  -31.7450  -15.4370   17.8320 Cl  0  0  0  0  0  0  0  0  0  0  0  0
  -29.5070  -15.4970   21.3270 H   0  0  0  0  0  0  0  0  0  0  0  0
  -28.1640  -20.4900   21.1410 C   0  0  0  0  0  2  0  0  0  0  0  0
  -30.3760  -21.1950   20.3600 C   0  0  0  0  0  2  0  0  0  0  0  0
  -27.7410  -21.9920   21.3400 C   0  0  0  0  0  2  0  0  0  0  0  0
  -29.9490  -22.6650   20.3180 C   0  0  0  0  0  2  0  0  0  0  0  0
  -29.1690  -20.3440   19.9900 C   0  0  0  0  0  3  0  0  0  0  0  0
  -28.8720  -22.9990   21.3120 N   0  0  1  0  0  4  0  0  0  0  0  0
  -29.3190  -22.8630   22.2080 H   0  0  0  0  0  0  0  0  0  0  0  0
  -28.4510  -24.4640   21.3360 C   0  0  0  0  0  3  0  0  0  0  0  0
  -29.1060  -25.3770   20.2250 C   0  0  0  0  0  3  0  0  0  0  0  0
  -28.9960  -26.8130   20.2670 O   0  0  0  0  0  0  0  0  0  0  0  0
  -24.7140  -31.6480   23.0990 C   0  0  0  0  0  0  0  0  0  0  0  0
  -27.7940  -27.4610   20.0990 C   0  0  0  0  0  0  0  0  0  0  0  0
  -23.7010  -30.2320   21.3440 C   0  0  0  0  0  3  0  0  0  0  0  0
  -25.3280  -28.8380   19.9610 C   0  0  0  0  0  0  0  0  0  0  0  0
  -26.2020  -30.7580   21.3080 C   0  0  0  0  0  2  0  0  0  0  0  0
  -26.4130  -29.4190   20.6260 C   0  0  0  0  0  0  0  0  0  0  0  0
  -27.6500  -28.7420   20.6810 C   0  0  0  0  0  3  0  0  0  0  0  0
  -26.7020  -26.9000   19.4040 C   0  0  0  0  0  3  0  0  0  0  0  0
  -25.4690  -27.5820   19.3440 C   0  0  0  0  0  3  0  0  0  0  0  0
  -24.0320  -29.6160   19.9600 C   0  0  0  0  0  2  0  0  0  0  0  0
  -24.8860  -30.8940   21.9760 N   0  0  0  0  0  0  0  0  0  0  0  0
  -23.5860  -31.8350   23.5790 O   0  0  0  0  0  0  0  0  0  0  0  0
  -23.0640  -29.1370   22.2300 C   0  0  0  0  0  0  0  0  0  0  0  0
  -21.7440  -28.9410   22.0820 N   0  0  0  0  0  0  0  0  0  0  0  0
  -23.7570  -28.4680   23.0020 O   0  0  0  0  0  0  0  0  0  0  0  0
  -21.2490  -29.5360   21.4350 H   0  0  0  0  0  0  0  0  0  0  0  0
  -18.3740  -27.7250   22.5460 C   0  0  0  0  0  0  0  0  0  0  0  0
  -20.9380  -27.9380   22.7790 C   0  0  0  0  0  3  0  0  0  0  0  0
  -21.0170  -26.5680   22.0660 C   0  0  0  0  0  2  0  0  0  0  0  0
  -19.8890  -26.3480   21.0540 C   0  0  0  0  0  2  0  0  0  0  0  0
  -18.5220  -26.4440   21.7410 C   0  0  0  0  0  2  0  0  0  0  0  0
  -19.5090  -28.4370   23.0170 C   0  0  0  0  0  0  0  0  0  0  0  0
  -19.3170  -29.6430   23.7260 C   0  0  0  0  0  3  0  0  0  0  0  0
  -18.0210  -30.1370   23.9650 C   0  0  0  0  0  3  0  0  0  0  0  0
  -16.9010  -29.4210   23.5110 C   0  0  0  0  0  3  0  0  0  0  0  0
  -17.0780  -28.2140   22.8100 C   0  0  0  0  0  3  0  0  0  0  0  0
  -25.9170  -32.3400   23.8170 C   0  0  0  0  0  3  0  0  0  0  0  0
  -26.3830  -31.5760   25.1190 C   0  0  1  0  0  0  0  0  0  0  0  0
  -25.2340  -31.2850   26.1110 C   0  0  0  0  0  1  0  0  0  0  0  0
  -27.0490  -30.2290   24.7530 C   0  0  0  0  0  1  0  0  0  0  0  0
  -27.4570  -32.4100   25.8570 C   0  0  0  0  0  1  0  0  0  0  0  0
  -25.5130  -33.7130   24.1380 N   0  0  0  0  0  0  0  0  0  0  0  0
  -25.8400  -34.7900   23.4090 C   0  0  0  0  0  0  0  0  0  0  0  0
  -26.5850  -34.7320   22.4260 O   0  0  0  0  0  0  0  0  0  0  0  0
  -24.8590  -33.8290   24.9000 H   0  0  0  0  0  0  0  0  0  0  0  0
  -24.0390  -36.4800   22.9490 C   0  0  0  0  0  1  0  0  0  0  0  0
  -25.2480  -36.1450   23.8380 C   0  0  0  0  0  3  0  0  0  0  0  0
  -27.2660  -37.1450   24.8120 C   0  0  0  0  0  1  0  0  0  0  0  0
  -26.2250  -37.2550   23.7930 N   0  0  0  0  0  0  0  0  0  0  0  0
  -25.7570  -38.1510   23.9120 H   0  0  0  0  0  0  0  0  0  0  0  0
  -25.6870  -14.0550   20.3410 C   0  0  0  0  0  0  0  0  0  0  0  0
  -24.5710  -13.3150   20.6400 C   0  0  0  0  0  0  0  0  0  0  0  0
  -25.0000  -11.9580   20.7030 C   0  0  0  0  0  0  0  0  0  0  0  0
  -26.7230  -13.1400   20.2380 N   0  0  0  0  0  0  0  0  0  0  0  0
  -26.3110  -11.8760   20.5140 N   0  0  0  0  0  0  0  0  0  0  0  0
  -24.2280  -10.7200   20.8770 C   0  0  0  0  0  0  0  0  0  0  0  0
  -24.6020   -9.7460   21.8260 C   0  0  0  0  0  3  0  0  0  0  0  0
  -23.8310   -8.5700   21.9850 C   0  0  0  0  0  3  0  0  0  0  0  0
  -22.6780   -8.3660   21.1910 C   0  0  0  0  0  0  0  0  0  0  0  0
  -22.3220   -9.3330   20.2320 C   0  0  0  0  0  3  0  0  0  0  0  0
  -23.0900  -10.4980   20.0740 C   0  0  0  0  0  3  0  0  0  0  0  0
  -21.8900   -7.2400   21.2550 O   0  0  0  0  0  0  0  0  0  0  0  0
  -21.8500   -6.4530   22.3780 C   0  0  0  0  0  0  0  0  0  0  0  0
  -21.4940   -6.9730   23.6420 C   0  0  0  0  0  3  0  0  0  0  0  0
  -21.3930   -6.1150   24.7550 C   0  0  0  0  0  3  0  0  0  0  0  0
  -21.6370   -4.7360   24.6100 C   0  0  0  0  0  0  0  0  0  0  0  0
  -21.9860   -4.2150   23.3490 C   0  0  0  0  0  3  0  0  0  0  0  0
  -22.0860   -5.0690   22.2380 C   0  0  0  0  0  0  0  0  0  0  0  0
  -22.4010   -4.5570   21.0240 F   0  0  0  0  0  0  0  0  0  0  0  0
  -21.5330   -3.9100   25.6770 F   0  0  0  0  0  0  0  0  0  0  0  0
  -23.1720  -13.8380   20.7780 C   0  0  0  0  0  0  0  0  0  0  0  0
  -22.3610  -13.1960   21.6140 N   0  0  0  0  0  0  0  0  0  0  0  0
  -22.8000  -14.8430   20.1760 O   0  0  0  0  0  0  0  0  0  0  0  0
  -22.6670  -12.3720   22.1050 H   0  0  0  0  0  0  0  0  0  0  0  0
  -21.4200  -13.5350   21.7530 H   0  0  0  0  0  0  0  0  0  0  0  0
  -25.9140  -15.4080   20.1280 N   0  0  0  0  0  0  0  0  0  0  0  0
  -25.1600  -16.0850   20.0520 H   0  0  0  0  0  0  0  0  0  0  0  0
  -26.8140  -15.7780   19.8550 H   0  0  0  0  0  0  0  0  0  0  0  0
  -29.6210  -19.7470   16.9820 C   0  0  0  0  0  2  0  0  0  0  0  0
  -29.5100  -19.9900   14.5100 C   0  0  0  0  0  1  0  0  0  0  0  0
  -29.6740  -19.0840   15.6620 N   0  0  0  0  0  4  0  0  0  0  0  0
  -30.5540  -18.6000   15.6060 H   0  0  0  0  0  0  0  0  0  0  0  0
  -28.9590  -18.3720   15.6390 H   0  0  0  0  0  0  0  0  0  0  0  0
  1 15  1  0
  2  7  1  0
  3  4  1  0
  3  2  1  0
  5  4  1  0
  5 71  1  0
  5  6  1  0
  7  1  1  0
  7  6  1  0
  8  1  2  0
  9 13  1  0
 10  9  2  0
 11 13  2  0
 11 15  1  0
 12 11  1  0
 14 10  1  0
 14 12  2  0
 15 17  1  0
 16 12  1  0
 18 20  1  0
 21 19  1  0
 21 23  1  0
 22  9  1  0
 22 19  1  0
 22 18  1  0
 23 25  1  0
 23 20  1  0
 23 24  1  1
 26 27  1  0
 26 25  2  0
 28 39  2  0
 29 27  1  0
 29 34  1  0
 30 38  1  0
 30 40  1  0
 31 33  1  0
 32 38  1  0
 33 34  2  0
 33 32  1  0
 35 29  2  0
 36 35  1  0
 36 31  2  0
 37 31  1  0
 37 30  1  0
 38 28  1  0
 40 42  2  0
 41 40  1  0
 43 41  1  0
 44 53  2  0
 44 49  1  0
 45 41  1  0
 45 49  1  0
 46 45  1  0
 47 48  1  0
 47 46  1  0
 48 44  1  0
 49 50  2  0
 50 51  1  0
 52 51  2  0
 53 52  1  0
 54 28  1  0
 54 59  1  0
 54 55  1  0
 55 58  1  1
 55 56  1  0
 57 55  1  0
 59 62  1  0
 60 64  1  0
 60 59  1  0
 61 60  2  0
 64 63  1  0
 66 64  1  0
 66 67  1  0
 66 65  1  0
 68 69  2  0
 69 70  1  0
 69 88  1  0
 70 73  1  0
 71 68  1  0
 71 72  1  0
 72 70  2  0
 73 74  1  0
 74 75  2  0
 76 79  1  0
 76 75  1  0
 77 76  2  0
 78 77  1  0
 78 73  2  0
 79 80  1  0
 80 81  1  0
 81 82  2  0
 83 82  1  0
 83 87  1  0
 84 83  2  0
 85 80  2  0
 85 84  1  0
 86 85  1  0
 88 89  1  0
 89 92  1  0
 89 91  1  0
 90 88  2  0
 93 68  1  0
 94 93  1  0
 95 93  1  0
 96 10  1  0
 97 98  1  0
 98 96  1  0
 99 98  1  0
100 98  1  0
M  ISO  4   1 100  15 100  26 101  27 101
M  END
>  <TORSDO>  (41) 
F 20

>  <SCORE>  (41) 
-12.607

>  <name>  (41) 
40

>  <ligand_id>  (41) 
40

>  <original_smiles>  (41) 
[H]c1c([H])c([H])c2c(c1[H])C([H])([H])C([H])([H])C([H])([H])C2([H])N([H])C(=O)C1([H])N(C(=O)C([H])(N([H])C(=O)C([H])(N([H])C([H])([H])[H])C([H])([H])[H])C(C([H])([H])[H])(C([H])([H])[H])C([H])([H])[H])C([H])([H])c2c([H])c(OC([H])([H])C([H])([H])[N+]3([H])C([H])([H])C([H])([H])C([H])(c4nc(N([H])C(=O)N5C([H])([H])C([H])([H])C([H])([H])C([H])(n6nc(-c7c([H])c([H])c(Oc8c([H])c([H])c(F)c([H])c8F)c([H])c7[H])c(C(=O)N([H])[H])c6N([H])[H])C5([H])[H])c(Cl)nc4C([H])([H])[N+]([H])([H])C([H])([H])[H])C([H])([H])C3([H])[H])c([H])c([H])c2C1([H])[H]

>  <smiles>  (41) 
[H]c1c([H])c([H])c2c(c1[H])C([H])([H])C([H])([H])C([H])([H])C2([H])N([H])C(=O)C1([H])N(C(=O)C([H])(N([H])C(=O)C([H])(N([H])C([H])([H])[H])C([H])([H])[H])C(C([H])([H])[H])(C([H])([H])[H])C([H])([H])[H])C([H])([H])c2c([H])c(OC([H])([H])C([H])([H])[N+]3([H])C([H])([H])C([H])([H])C([H])(c4nc(N([H])C(=O)N5C([H])([H])C([H])([H])C([H])([H])C([H])(n6nc(-c7c([H])c([H])c(Oc8c([H])c([H])c(F)c([H])c8F)c([H])c7[H])c(C(=O)N([H])[H])c6N([H])[H])C5([H])[H])c(Cl)nc4C([H])([H])[N+]([H])([H])C([H])([H])[H])C([H])([H])C3([H])[H])c([H])c([H])c2C1([H])[H]

$$$$
41:0:0
     RDKit          3D

 93103  0  0  1  0  0  0  0  0999 V2000
  -30.7430  -21.3030   19.6650 C   0  0  0  0  0  3  0  0  0  0  0  0
  -30.2610  -23.6050   19.7110 C   0  0  0  0  0  0  0  0  0  0  0  0
  -28.9520  -23.3800   20.2120 C   0  0  0  0  0  0  0  0  0  0  0  0
  -29.4820  -20.9320   20.1870 C   0  0  0  0  0  0  0  0  0  0  0  0
  -31.1210  -22.5870   19.4350 N   0  0  0  0  0  0  0  0  0  0  0  0
  -28.5910  -22.0120   20.4450 N   0  0  0  0  0  0  0  0  0  0  0  0
  -30.5540  -14.9610   20.0290 C   0  0  0  0  0  0  0  0  0  0  0  0
  -30.2680  -12.6570   19.0230 C   0  0  0  0  0  2  0  0  0  0  0  0
  -29.2710  -12.6610   17.8440 C   0  0  0  0  0  2  0  0  0  0  0  0
  -27.8380  -12.4430   18.3600 C   0  0  0  0  0  2  0  0  0  0  0  0
  -27.5090  -13.3340   19.5860 C   0  0  0  0  0  3  0  0  0  0  0  0
  -28.6330  -13.3430   20.6440 C   0  0  0  0  0  2  0  0  0  0  0  0
  -29.8640  -13.7500   19.9570 N   0  0  0  0  0  0  0  0  0  0  0  0
  -31.7520  -14.9170   19.7290 O   0  0  0  0  0  0  0  0  0  0  0  0
  -30.0920  -18.7320   21.3830 C   0  0  0  0  0  3  0  0  0  0  0  0
  -28.9790  -18.5310   19.3000 C   0  0  0  0  0  3  0  0  0  0  0  0
  -30.8120  -17.3700   20.8800 C   0  0  0  0  0  3  0  0  0  0  0  0
  -28.8300  -16.9430   19.6560 C   0  0  0  0  0  3  0  0  0  0  0  0
  -29.2220  -19.4860   20.4290 N   0  0  0  0  0  0  0  0  0  0  0  0
  -29.9730  -16.2350   20.3420 N   0  0  0  0  0  0  0  0  0  0  0  0
  -25.1800  -13.8850   20.4810 C   0  0  0  0  0  0  0  0  0  0  0  0
  -24.1380  -13.0990   20.8890 C   0  0  0  0  0  0  0  0  0  0  0  0
  -24.6010  -11.7510   20.7990 C   0  0  0  0  0  0  0  0  0  0  0  0
  -26.2070  -13.0170   20.1590 N   0  0  0  0  0  0  0  0  0  0  0  0
  -25.8720  -11.7250   20.4170 N   0  0  0  0  0  0  0  0  0  0  0  0
  -23.8850  -10.4830   20.9950 C   0  0  0  0  0  0  0  0  0  0  0  0
  -24.3430   -9.5070   21.9070 C   0  0  0  0  0  3  0  0  0  0  0  0
  -23.6250   -8.3060   22.0920 C   0  0  0  0  0  3  0  0  0  0  0  0
  -22.4330   -8.0720   21.3650 C   0  0  0  0  0  0  0  0  0  0  0  0
  -21.9920   -9.0370   20.4430 C   0  0  0  0  0  3  0  0  0  0  0  0
  -22.7120  -10.2290   20.2560 C   0  0  0  0  0  3  0  0  0  0  0  0
  -21.6820   -6.9250   21.4640 O   0  0  0  0  0  0  0  0  0  0  0  0
  -21.6370   -6.1910   22.6210 C   0  0  0  0  0  0  0  0  0  0  0  0
  -21.1850   -6.7460   23.8390 C   0  0  0  0  0  3  0  0  0  0  0  0
  -21.0900   -5.9360   24.9880 C   0  0  0  0  0  3  0  0  0  0  0  0
  -21.4360   -4.5730   24.9210 C   0  0  0  0  0  0  0  0  0  0  0  0
  -21.8800   -4.0170   23.7080 C   0  0  0  0  0  3  0  0  0  0  0  0
  -21.9780   -4.8240   22.5610 C   0  0  0  0  0  0  0  0  0  0  0  0
  -22.3860   -4.2800   21.3890 F   0  0  0  0  0  0  0  0  0  0  0  0
  -21.3380   -3.7930   26.0230 F   0  0  0  0  0  0  0  0  0  0  0  0
  -22.7580  -13.5700   21.2450 C   0  0  0  0  0  0  0  0  0  0  0  0
  -22.0770  -12.8550   22.1340 N   0  0  0  0  0  0  0  0  0  0  0  0
  -22.2950  -14.6060   20.7710 O   0  0  0  0  0  0  0  0  0  0  0  0
  -22.4660  -12.0170   22.5400 H   0  0  0  0  0  0  0  0  0  0  0  0
  -21.1520  -13.1520   22.4130 H   0  0  0  0  0  0  0  0  0  0  0  0
  -25.3330  -15.2590   20.3290 N   0  0  0  0  0  0  0  0  0  0  0  0
  -24.5740  -15.9100   20.5010 H   0  0  0  0  0  0  0  0  0  0  0  0
  -26.1660  -15.7060   19.9700 H   0  0  0  0  0  0  0  0  0  0  0  0
  -32.2630  -25.3090   19.5010 C   0  0  0  0  0  2  0  0  0  0  0  0
  -31.2820  -25.9010   20.4730 C   0  0  0  0  0  2  0  0  0  0  0  0
  -30.7870  -24.9750   19.3780 C   0  0  0  0  0  3  0  0  0  0  0  0
  -27.9050  -24.6430   20.3670 C   0  0  0  0  0  2  0  0  0  0  0  0
  -28.2390  -26.1680   20.2970 O   0  0  0  0  0  0  0  0  0  0  0  0
  -24.6270  -31.8820   23.2550 C   0  0  0  0  0  0  0  0  0  0  0  0
  -27.1920  -27.1570   20.2410 C   0  0  0  0  0  0  0  0  0  0  0  0
  -23.4270  -30.4820   21.6220 C   0  0  0  0  0  3  0  0  0  0  0  0
  -24.8720  -28.9080   20.2010 C   0  0  0  0  0  0  0  0  0  0  0  0
  -25.9810  -30.7460   21.4570 C   0  0  0  0  0  2  0  0  0  0  0  0
  -26.0530  -29.3520   20.8100 C   0  0  0  0  0  0  0  0  0  0  0  0
  -27.2160  -28.4920   20.8130 C   0  0  0  0  0  3  0  0  0  0  0  0
  -25.9870  -26.8230   19.5840 C   0  0  0  0  0  3  0  0  0  0  0  0
  -24.8510  -27.6570   19.5720 C   0  0  0  0  0  3  0  0  0  0  0  0
  -23.6470  -29.8050   20.2440 C   0  0  0  0  0  2  0  0  0  0  0  0
  -24.6980  -31.0580   22.1660 N   0  0  0  0  0  0  0  0  0  0  0  0
  -23.5410  -32.1690   23.7820 O   0  0  0  0  0  0  0  0  0  0  0  0
  -22.7490  -29.4750   22.5860 C   0  0  0  0  0  0  0  0  0  0  0  0
  -21.4220  -29.3000   22.4570 N   0  0  0  0  0  0  0  0  0  0  0  0
  -23.4210  -28.8540   23.4130 O   0  0  0  0  0  0  0  0  0  0  0  0
  -20.9370  -29.8550   21.7650 H   0  0  0  0  0  0  0  0  0  0  0  0
  -18.0410  -28.1000   22.9590 C   0  0  0  0  0  0  0  0  0  0  0  0
  -20.5990  -28.3670   23.2310 C   0  0  0  0  0  3  0  0  0  0  0  0
  -20.7030  -26.9310   22.6650 C   0  0  0  0  0  2  0  0  0  0  0  0
  -19.6030  -26.6010   21.6490 C   0  0  0  0  0  2  0  0  0  0  0  0
  -18.2210  -26.7480   22.2900 C   0  0  0  0  0  2  0  0  0  0  0  0
  -19.1570  -28.8670   23.3860 C   0  0  0  0  0  0  0  0  0  0  0  0
  -18.9340  -30.1310   23.9730 C   0  0  0  0  0  3  0  0  0  0  0  0
  -17.6280  -30.6290   24.1360 C   0  0  0  0  0  3  0  0  0  0  0  0
  -16.5260  -29.8590   23.7250 C   0  0  0  0  0  3  0  0  0  0  0  0
  -16.7330  -28.5960   23.1420 C   0  0  0  0  0  3  0  0  0  0  0  0
  -25.9060  -32.5180   23.8790 C   0  0  0  0  0  3  0  0  0  0  0  0
  -25.5950  -33.9180   24.2080 N   0  0  0  0  0  0  0  0  0  0  0  0
  -25.9090  -34.9720   23.4420 C   0  0  0  0  0  0  0  0  0  0  0  0
  -26.5610  -34.8680   22.4000 O   0  0  0  0  0  0  0  0  0  0  0  0
  -25.0150  -34.0720   25.0190 H   0  0  0  0  0  0  0  0  0  0  0  0
  -24.1650  -36.7590   23.1230 C   0  0  0  0  0  1  0  0  0  0  0  0
  -25.4280  -36.3610   23.9060 C   0  0  0  0  0  3  0  0  0  0  0  0
  -27.5740  -37.2640   24.6860 C   0  0  0  0  0  1  0  0  0  0  0  0
  -26.4520  -37.4190   23.7630 N   0  0  0  0  0  0  0  0  0  0  0  0
  -26.0440  -38.3380   23.9110 H   0  0  0  0  0  0  0  0  0  0  0  0
  -26.4170  -31.7530   25.1620 C   0  0  1  0  0  0  0  0  0  0  0  0
  -25.3200  -31.5200   26.2270 C   0  0  0  0  0  1  0  0  0  0  0  0
  -27.0010  -30.3730   24.7820 C   0  0  0  0  0  1  0  0  0  0  0  0
  -27.5660  -32.5490   25.8230 C   0  0  0  0  0  1  0  0  0  0  0  0
  1  4  1  0
  2  3  2  0
  3 52  1  0
  3  6  1  0
  4 19  1  0
  4  6  2  0
  5  1  2  0
  5  2  1  0
  7 20  1  0
  8 13  1  0
  9 10  1  0
  9  8  1  0
 11 10  1  0
 11 24  1  0
 11 12  1  0
 13  7  1  0
 13 12  1  0
 14  7  2  0
 16 18  2  0
 16 19  1  0
 17 15  2  0
 18 20  1  0
 19 15  1  0
 20 17  1  0
 21 22  2  0
 22 41  1  0
 23 22  1  0
 23 26  1  0
 24 25  1  0
 24 21  1  0
 25 23  2  0
 26 27  1  0
 27 28  2  0
 29 32  1  0
 29 28  1  0
 30 29  2  0
 31 30  1  0
 31 26  2  0
 32 33  1  0
 33 34  1  0
 34 35  2  0
 36 35  1  0
 36 40  1  0
 37 36  2  0
 38 33  2  0
 38 37  1  0
 39 38  1  0
 41 42  1  0
 42 45  1  0
 42 44  1  0
 43 41  2  0
 46 21  1  0
 46 47  1  0
 48 46  1  0
 49 50  1  0
 51 49  1  0
 51  2  1  0
 51 50  1  0
 53 52  1  0
 54 65  2  0
 55 53  1  0
 55 60  1  0
 56 64  1  0
 56 66  1  0
 57 63  1  0
 57 59  1  0
 58 64  1  0
 59 60  2  0
 59 58  1  0
 61 55  2  0
 62 61  1  0
 62 57  2  0
 63 56  1  0
 64 54  1  0
 66 68  2  0
 67 66  1  0
 69 67  1  0
 70 79  2  0
 70 75  1  0
 71 67  1  0
 71 75  1  0
 72 71  1  0
 73 74  1  0
 73 72  1  0
 74 70  1  0
 75 76  2  0
 76 77  1  0
 78 77  2  0
 79 78  1  0
 80 54  1  0
 80 81  1  0
 80 90  1  0
 81 84  1  0
 82 86  1  0
 82 81  1  0
 83 82  2  0
 86 85  1  0
 88 86  1  0
 88 89  1  0
 88 87  1  0
 90 93  1  1
 90 91  1  0
 92 90  1  0
M  ISO  4   7 100  20 100  52 101  53 101
M  END
>  <TORSDO>  (42) 
F 18

>  <SCORE>  (42) 
-14.678

>  <name>  (42) 
41

>  <ligand_id>  (42) 
41

>  <original_smiles>  (42) 
[H]c1nc(C2([H])C([H])([H])C2([H])[H])c(C([H])([H])Oc2c([H])c([H])c3c(c2[H])C([H])([H])N(C(=O)C([H])(N([H])C(=O)C([H])(N([H])C([H])([H])[H])C([H])([H])[H])C(C([H])([H])[H])(C([H])([H])[H])C([H])([H])[H])C([H])(C(=O)N([H])C2([H])c4c([H])c([H])c([H])c([H])c4C([H])([H])C([H])([H])C2([H])[H])C3([H])[H])nc1N1C([H])([H])C([H])([H])N(C(=O)N2C([H])([H])C([H])([H])C([H])([H])C([H])(n3nc(-c4c([H])c([H])c(Oc5c([H])c([H])c(F)c([H])c5F)c([H])c4[H])c(C(=O)N([H])[H])c3N([H])[H])C2([H])[H])C([H])([H])C1([H])[H]

>  <smiles>  (42) 
[H]c1nc(C2([H])C([H])([H])C2([H])[H])c(C([H])([H])Oc2c([H])c([H])c3c(c2[H])C([H])([H])N(C(=O)C([H])(N([H])C(=O)C([H])(N([H])C([H])([H])[H])C([H])([H])[H])C(C([H])([H])[H])(C([H])([H])[H])C([H])([H])[H])C([H])(C(=O)N([H])C2([H])c4c([H])c([H])c([H])c([H])c4C([H])([H])C([H])([H])C2([H])[H])C3([H])[H])nc1N1C([H])([H])C([H])([H])N(C(=O)N2C([H])([H])C([H])([H])C([H])([H])C([H])(n3nc(-c4c([H])c([H])c(Oc5c([H])c([H])c(F)c([H])c5F)c([H])c4[H])c(C(=O)N([H])[H])c3N([H])[H])C2([H])[H])C([H])([H])C1([H])[H]

$$$$
42:0:0
     RDKit          3D

 96106  0  0  1  0  0  0  0  0999 V2000
  -30.9330  -24.6250   19.5940 C   0  0  0  0  0  3  0  0  0  0  0  0
  -31.6280  -23.4740   20.0290 C   0  0  0  0  0  0  0  0  0  0  0  0
  -29.5270  -24.6170   19.6350 C   0  0  0  0  0  0  0  0  0  0  0  0
  -30.8420  -22.3890   20.5000 C   0  0  0  0  0  0  0  0  0  0  0  0
  -28.8350  -23.5460   20.1060 N   0  0  0  0  0  0  0  0  0  0  0  0
  -29.4830  -22.4540   20.5350 N   0  0  0  0  0  0  0  0  0  0  0  0
  -33.9010  -24.1050   18.8730 C   0  0  0  0  0  2  0  0  0  0  0  0
  -33.9020  -22.6010   19.0120 C   0  0  0  0  0  2  0  0  0  0  0  0
  -33.1310  -23.4480   20.0010 C   0  0  0  0  0  3  0  0  0  0  0  0
  -31.4940  -21.0960   21.0030 C   0  0  0  0  0  2  0  0  0  0  0  0
  -30.5580  -19.9590   21.1750 N   0  0  0  0  0  4  0  0  0  0  0  0
  -30.0990  -19.8130   20.2920 H   0  0  0  0  0  0  0  0  0  0  0  0
  -29.8540  -20.2380   21.8370 H   0  0  0  0  0  0  0  0  0  0  0  0
  -31.2210  -18.7100   21.6250 C   0  0  0  0  0  2  0  0  0  0  0  0
  -30.7420  -14.4730   20.2090 C   0  0  0  0  0  0  0  0  0  0  0  0
  -30.3190  -12.3850   18.9740 C   0  0  0  0  0  2  0  0  0  0  0  0
  -29.3360  -12.6620   17.8220 C   0  0  0  0  0  2  0  0  0  0  0  0
  -27.8830  -12.5160   18.3110 C   0  0  0  0  0  2  0  0  0  0  0  0
  -27.6100  -13.3030   19.6200 C   0  0  0  0  0  3  0  0  0  0  0  0
  -28.7110  -13.0450   20.6750 C   0  0  0  0  0  2  0  0  0  0  0  0
  -30.0150  -13.3360   20.0540 N   0  0  0  0  0  0  0  0  0  0  0  0
  -31.8200  -14.6600   19.6380 O   0  0  0  0  0  0  0  0  0  0  0  0
  -30.9050  -16.1180   22.0020 C   0  0  0  0  0  2  0  0  0  0  0  0
  -30.0100  -16.7860   20.2500 C   0  0  0  0  0  2  0  0  0  0  0  0
  -30.3200  -17.4640   21.5790 C   0  0  0  0  0  3  0  0  0  0  0  0
  -30.1610  -15.4730   20.9080 N   0  0  0  0  0  0  0  0  0  0  0  0
  -25.2370  -13.8860   20.4280 C   0  0  0  0  0  0  0  0  0  0  0  0
  -24.1870  -13.1010   20.8260 C   0  0  0  0  0  0  0  0  0  0  0  0
  -24.6530  -11.7530   20.7580 C   0  0  0  0  0  0  0  0  0  0  0  0
  -26.2770  -13.0130   20.1470 N   0  0  0  0  0  0  0  0  0  0  0  0
  -25.9300  -11.7250   20.4000 N   0  0  0  0  0  0  0  0  0  0  0  0
  -23.9390  -10.4840   20.9580 C   0  0  0  0  0  0  0  0  0  0  0  0
  -24.3900   -9.5250   21.8900 C   0  0  0  0  0  3  0  0  0  0  0  0
  -23.6790   -8.3200   22.0780 C   0  0  0  0  0  3  0  0  0  0  0  0
  -22.5020   -8.0690   21.3360 C   0  0  0  0  0  0  0  0  0  0  0  0
  -22.0690   -9.0170   20.3930 C   0  0  0  0  0  3  0  0  0  0  0  0
  -22.7810  -10.2140   20.2030 C   0  0  0  0  0  3  0  0  0  0  0  0
  -21.7600   -6.9160   21.4330 O   0  0  0  0  0  0  0  0  0  0  0  0
  -21.7040   -6.1920   22.5980 C   0  0  0  0  0  0  0  0  0  0  0  0
  -21.2360   -6.7570   23.8040 C   0  0  0  0  0  3  0  0  0  0  0  0
  -21.1300   -5.9590   24.9610 C   0  0  0  0  0  3  0  0  0  0  0  0
  -21.4790   -4.5960   24.9110 C   0  0  0  0  0  0  0  0  0  0  0  0
  -21.9400   -4.0300   23.7100 C   0  0  0  0  0  3  0  0  0  0  0  0
  -22.0480   -4.8260   22.5550 C   0  0  0  0  0  0  0  0  0  0  0  0
  -22.4740   -4.2710   21.3950 F   0  0  0  0  0  0  0  0  0  0  0  0
  -21.3710   -3.8260   26.0200 F   0  0  0  0  0  0  0  0  0  0  0  0
  -22.8000  -13.5680   21.1590 C   0  0  0  0  0  0  0  0  0  0  0  0
  -22.1090  -12.8510   22.0390 N   0  0  0  0  0  0  0  0  0  0  0  0
  -22.3420  -14.6030   20.6810 O   0  0  0  0  0  0  0  0  0  0  0  0
  -22.4950  -12.0140   22.4480 H   0  0  0  0  0  0  0  0  0  0  0  0
  -21.1800  -13.1450   22.3050 H   0  0  0  0  0  0  0  0  0  0  0  0
  -25.3880  -15.2590   20.2670 N   0  0  0  0  0  0  0  0  0  0  0  0
  -24.6260  -15.9120   20.4220 H   0  0  0  0  0  0  0  0  0  0  0  0
  -26.2370  -15.7080   19.9440 H   0  0  0  0  0  0  0  0  0  0  0  0
  -28.7180  -25.7980   19.1050 C   0  0  0  0  0  2  0  0  0  0  0  0
  -28.4100  -26.7600   20.1250 O   0  0  0  0  0  0  0  0  0  0  0  0
  -24.5940  -31.8760   23.2400 C   0  0  0  0  0  0  0  0  0  0  0  0
  -27.2180  -27.4570   20.0970 C   0  0  0  0  0  0  0  0  0  0  0  0
  -23.3740  -30.4870   21.5960 C   0  0  0  0  0  3  0  0  0  0  0  0
  -24.8150  -28.9590   20.1510 C   0  0  0  0  0  0  0  0  0  0  0  0
  -25.8980  -30.8420   21.3860 C   0  0  0  0  0  2  0  0  0  0  0  0
  -25.9760  -29.4770   20.7350 C   0  0  0  0  0  0  0  0  0  0  0  0
  -27.1740  -28.7300   20.7120 C   0  0  0  0  0  3  0  0  0  0  0  0
  -26.0260  -26.9440   19.5280 C   0  0  0  0  0  3  0  0  0  0  0  0
  -24.8330  -27.6910   19.5500 C   0  0  0  0  0  3  0  0  0  0  0  0
  -23.5710  -29.8150   20.2120 C   0  0  0  0  0  2  0  0  0  0  0  0
  -24.6400  -31.0830   22.1320 N   0  0  0  0  0  0  0  0  0  0  0  0
  -23.5170  -32.1470   23.7880 O   0  0  0  0  0  0  0  0  0  0  0  0
  -22.7250  -29.4620   22.5520 C   0  0  0  0  0  0  0  0  0  0  0  0
  -21.4010  -29.2770   22.4240 N   0  0  0  0  0  0  0  0  0  0  0  0
  -23.4100  -28.8340   23.3650 O   0  0  0  0  0  0  0  0  0  0  0  0
  -20.9100  -29.8350   21.7400 H   0  0  0  0  0  0  0  0  0  0  0  0
  -18.0290  -28.0850   22.9200 C   0  0  0  0  0  0  0  0  0  0  0  0
  -20.5850  -28.3380   23.1920 C   0  0  0  0  0  3  0  0  0  0  0  0
  -20.6860  -26.9090   22.6100 C   0  0  0  0  0  2  0  0  0  0  0  0
  -19.5850  -26.5940   21.5930 C   0  0  0  0  0  2  0  0  0  0  0  0
  -18.2020  -26.7400   22.2360 C   0  0  0  0  0  2  0  0  0  0  0  0
  -19.1480  -28.8430   23.3530 C   0  0  0  0  0  0  0  0  0  0  0  0
  -18.9330  -30.1050   23.9490 C   0  0  0  0  0  3  0  0  0  0  0  0
  -17.6290  -30.6070   24.1180 C   0  0  0  0  0  3  0  0  0  0  0  0
  -16.5240  -29.8470   23.7010 C   0  0  0  0  0  3  0  0  0  0  0  0
  -16.7240  -28.5870   23.1080 C   0  0  0  0  0  3  0  0  0  0  0  0
  -25.8840  -32.4980   23.8570 C   0  0  0  0  0  3  0  0  0  0  0  0
  -25.5860  -33.8990   24.1810 N   0  0  0  0  0  0  0  0  0  0  0  0
  -25.9280  -34.9460   23.4160 C   0  0  0  0  0  0  0  0  0  0  0  0
  -26.5940  -34.8330   22.3840 O   0  0  0  0  0  0  0  0  0  0  0  0
  -24.9960  -34.0620   24.9830 H   0  0  0  0  0  0  0  0  0  0  0  0
  -24.2130  -36.7500   23.0520 C   0  0  0  0  0  1  0  0  0  0  0  0
  -25.4500  -36.3400   23.8680 C   0  0  0  0  0  3  0  0  0  0  0  0
  -27.5890  -37.2100   24.7020 C   0  0  0  0  0  1  0  0  0  0  0  0
  -26.4920  -37.3840   23.7550 N   0  0  0  0  0  0  0  0  0  0  0  0
  -26.0920  -38.3070   23.9000 H   0  0  0  0  0  0  0  0  0  0  0  0
  -26.4000  -31.7270   25.1330 C   0  0  1  0  0  0  0  0  0  0  0  0
  -25.3060  -31.4960   26.2020 C   0  0  0  0  0  1  0  0  0  0  0  0
  -26.9730  -30.3450   24.7400 C   0  0  0  0  0  1  0  0  0  0  0  0
  -27.5570  -32.5140   25.7900 C   0  0  0  0  0  1  0  0  0  0  0  0
  1  3  2  0
  1  2  1  0
  2  4  2  0
  3  5  1  0
  4  6  1  0
  4 10  1  0
  5  6  2  0
  7  8  1  0
  7  9  1  0
  8  9  1  0
  9  2  1  0
 10 11  1  0
 11 14  1  0
 11 13  1  0
 12 11  1  0
 15 26  1  0
 16 21  1  0
 17 18  1  0
 17 16  1  0
 19 18  1  0
 19 30  1  0
 19 20  1  0
 21 15  1  0
 21 20  1  0
 22 15  2  0
 24 26  1  0
 24 25  1  0
 25 14  1  0
 25 23  1  0
 26 23  1  0
 27 28  2  0
 28 47  1  0
 29 28  1  0
 29 32  1  0
 30 31  1  0
 30 27  1  0
 31 29  2  0
 32 33  1  0
 33 34  2  0
 35 38  1  0
 35 34  1  0
 36 35  2  0
 37 36  1  0
 37 32  2  0
 38 39  1  0
 39 40  1  0
 40 41  2  0
 42 41  1  0
 42 46  1  0
 43 42  2  0
 44 39  2  0
 44 43  1  0
 45 44  1  0
 47 48  1  0
 48 51  1  0
 48 50  1  0
 49 47  2  0
 52 53  1  0
 52 27  1  0
 54 52  1  0
 55  3  1  0
 55 56  1  0
 57 68  2  0
 58 56  1  0
 58 63  1  0
 59 67  1  0
 59 69  1  0
 60 66  1  0
 60 62  1  0
 61 67  1  0
 62 61  1  0
 63 62  2  0
 64 65  1  0
 64 58  2  0
 65 60  2  0
 66 59  1  0
 67 57  1  0
 69 71  2  0
 70 69  1  0
 72 70  1  0
 73 82  2  0
 73 78  1  0
 74 70  1  0
 74 78  1  0
 75 74  1  0
 76 77  1  0
 76 75  1  0
 77 73  1  0
 78 79  2  0
 79 80  1  0
 81 80  2  0
 82 81  1  0
 83 57  1  0
 83 84  1  0
 83 93  1  0
 84 87  1  0
 85 89  1  0
 85 84  1  0
 86 85  2  0
 89 88  1  0
 91 89  1  0
 91 92  1  0
 91 90  1  0
 93 96  1  1
 93 94  1  0
 95 93  1  0
M  ISO  4  15 100  26 100  55 101  56 101
M  END
>  <TORSDO>  (43) 
F 21

>  <SCORE>  (43) 
-13.496

>  <name>  (43) 
42

>  <ligand_id>  (43) 
42

>  <original_smiles>  (43) 
[H]c1c([H])c([H])c2c(c1[H])C([H])([H])C([H])([H])C([H])([H])C2([H])N([H])C(=O)C1([H])N(C(=O)C([H])(N([H])C(=O)C([H])(N([H])C([H])([H])[H])C([H])([H])[H])C(C([H])([H])[H])(C([H])([H])[H])C([H])([H])[H])C([H])([H])c2c([H])c(OC([H])([H])c3nnc(C([H])([H])[N+]([H])([H])C([H])([H])C4([H])C([H])([H])N(C(=O)N5C([H])([H])C([H])([H])C([H])([H])C([H])(n6nc(-c7c([H])c([H])c(Oc8c([H])c([H])c(F)c([H])c8F)c([H])c7[H])c(C(=O)N([H])[H])c6N([H])[H])C5([H])[H])C4([H])[H])c(C4([H])C([H])([H])C4([H])[H])c3[H])c([H])c([H])c2C1([H])[H]

>  <smiles>  (43) 
[H]c1c([H])c([H])c2c(c1[H])C([H])([H])C([H])([H])C([H])([H])C2([H])N([H])C(=O)C1([H])N(C(=O)C([H])(N([H])C(=O)C([H])(N([H])C([H])([H])[H])C([H])([H])[H])C(C([H])([H])[H])(C([H])([H])[H])C([H])([H])[H])C([H])([H])c2c([H])c(OC([H])([H])c3nnc(C([H])([H])[N+]([H])([H])C([H])([H])C4([H])C([H])([H])N(C(=O)N5C([H])([H])C([H])([H])C([H])([H])C([H])(n6nc(-c7c([H])c([H])c(Oc8c([H])c([H])c(F)c([H])c8F)c([H])c7[H])c(C(=O)N([H])[H])c6N([H])[H])C5([H])[H])C4([H])[H])c(C4([H])C([H])([H])C4([H])[H])c3[H])c([H])c([H])c2C1([H])[H]

$$$$
43:0:0
     RDKit          3D

 98108  0  0  1  0  0  0  0  0999 V2000
  -30.5940  -14.9470   20.4180 C   0  0  0  0  0  0  0  0  0  0  0  0
  -30.4260  -12.5930   19.4950 C   0  0  0  0  0  2  0  0  0  0  0  0
  -29.5140  -12.5170   18.2520 C   0  0  0  0  0  2  0  0  0  0  0  0
  -28.0500  -12.3060   18.6790 C   0  0  0  0  0  2  0  0  0  0  0  0
  -27.6250  -13.2540   19.8320 C   0  0  0  0  0  3  0  0  0  0  0  0
  -28.6700  -13.3160   20.9650 C   0  0  0  0  0  2  0  0  0  0  0  0
  -29.9360  -13.7190   20.3440 N   0  0  0  0  0  0  0  0  0  0  0  0
  -31.8090  -14.9110   20.1910 O   0  0  0  0  0  0  0  0  0  0  0  0
  -28.9520  -23.3200   20.2820 C   0  0  0  0  0  0  0  0  0  0  0  0
  -29.6180  -21.0320   20.3250 C   0  0  0  0  0  0  0  0  0  0  0  0
  -31.1190  -22.7280   20.4230 C   0  0  0  0  0  0  0  0  0  0  0  0
  -30.6680  -18.7230   19.7240 C   0  0  0  0  0  3  0  0  0  0  0  0
  -28.6030  -18.5490   20.8750 C   0  0  0  0  0  3  0  0  0  0  0  0
  -30.3620  -17.2230   19.2390 C   0  0  0  0  0  3  0  0  0  0  0  0
  -29.1800  -17.0550   21.2820 C   0  0  0  0  0  3  0  0  0  0  0  0
  -32.8840  -24.4210   20.8800 C   0  0  0  0  0  2  0  0  0  0  0  0
  -33.3900  -22.4090   21.3180 C   0  0  0  0  0  2  0  0  0  0  0  0
  -34.1670  -23.7330   21.3800 C   0  0  0  0  0  3  0  0  0  0  0  0
  -28.5930  -21.9610   20.2680 N   0  0  0  0  0  4  0  0  0  0  0  0
  -30.2190  -23.6990   20.3660 N   0  0  0  0  0  0  0  0  0  0  0  0
  -30.8780  -21.4230   20.4010 N   0  0  0  0  0  2  0  0  0  0  0  0
  -29.5220  -19.5410   20.2230 N   0  0  0  0  0  0  0  0  0  0  0  0
  -32.4900  -23.1010   20.4060 N   0  0  0  0  0  0  0  0  0  0  0  0
  -29.9220  -16.2090   20.2620 N   0  0  0  0  0  0  0  0  0  0  0  0
  -25.2450  -13.8240   20.5730 C   0  0  0  0  0  0  0  0  0  0  0  0
  -24.1770  -13.0450   20.9230 C   0  0  0  0  0  0  0  0  0  0  0  0
  -24.6390  -11.6940   20.8760 C   0  0  0  0  0  0  0  0  0  0  0  0
  -26.2870  -12.9480   20.3250 N   0  0  0  0  0  0  0  0  0  0  0  0
  -25.9320  -11.6600   20.5740 N   0  0  0  0  0  0  0  0  0  0  0  0
  -23.9070  -10.4300   21.0410 C   0  0  0  0  0  0  0  0  0  0  0  0
  -24.3620   -9.4210   21.9180 C   0  0  0  0  0  3  0  0  0  0  0  0
  -23.6300   -8.2250   22.0750 C   0  0  0  0  0  3  0  0  0  0  0  0
  -22.4280   -8.0280   21.3550 C   0  0  0  0  0  0  0  0  0  0  0  0
  -21.9920   -9.0260   20.4650 C   0  0  0  0  0  3  0  0  0  0  0  0
  -22.7250  -10.2140   20.3060 C   0  0  0  0  0  3  0  0  0  0  0  0
  -21.6640   -6.8880   21.4240 O   0  0  0  0  0  0  0  0  0  0  0  0
  -21.6860   -6.0730   22.5270 C   0  0  0  0  0  0  0  0  0  0  0  0
  -21.4020   -6.5630   23.8210 C   0  0  0  0  0  3  0  0  0  0  0  0
  -21.3660   -5.6790   24.9170 C   0  0  0  0  0  3  0  0  0  0  0  0
  -21.6050   -4.3050   24.7220 C   0  0  0  0  0  0  0  0  0  0  0  0
  -21.8810   -3.8140   23.4340 C   0  0  0  0  0  3  0  0  0  0  0  0
  -21.9190   -4.6960   22.3400 C   0  0  0  0  0  0  0  0  0  0  0  0
  -22.1660   -4.2140   21.0980 F   0  0  0  0  0  0  0  0  0  0  0  0
  -21.5640   -3.4540   25.7740 F   0  0  0  0  0  0  0  0  0  0  0  0
  -22.7790  -13.5230   21.1880 C   0  0  0  0  0  0  0  0  0  0  0  0
  -22.0440  -12.8220   22.0440 N   0  0  0  0  0  0  0  0  0  0  0  0
  -22.3460  -14.5520   20.6710 O   0  0  0  0  0  0  0  0  0  0  0  0
  -22.4060  -11.9900   22.4850 H   0  0  0  0  0  0  0  0  0  0  0  0
  -21.1060  -13.1250   22.2630 H   0  0  0  0  0  0  0  0  0  0  0  0
  -25.4150  -15.1970   20.4160 N   0  0  0  0  0  0  0  0  0  0  0  0
  -24.6510  -15.8540   20.5290 H   0  0  0  0  0  0  0  0  0  0  0  0
  -26.2700  -15.6330   20.0950 H   0  0  0  0  0  0  0  0  0  0  0  0
  -35.3260  -25.3890   22.8070 C   0  0  0  0  0  1  0  0  0  0  0  0
  -34.5690  -24.1240   22.7500 N   0  0  0  0  0  4  0  0  0  0  0  0
  -35.1630  -23.4040   23.1280 H   0  0  0  0  0  0  0  0  0  0  0  0
  -33.7660  -24.1960   23.3530 H   0  0  0  0  0  0  0  0  0  0  0  0
  -27.9060  -24.5890   20.1170 C   0  0  0  0  0  2  0  0  0  0  0  0
  -28.2500  -26.1160   20.2180 O   0  0  0  0  0  0  0  0  0  0  0  0
  -24.6460  -31.8440   23.1880 C   0  0  0  0  0  0  0  0  0  0  0  0
  -27.2110  -27.1200   20.1480 C   0  0  0  0  0  0  0  0  0  0  0  0
  -23.4490  -30.4640   21.5340 C   0  0  0  0  0  3  0  0  0  0  0  0
  -24.8970  -28.8900   20.1100 C   0  0  0  0  0  0  0  0  0  0  0  0
  -26.0080  -30.7120   21.3890 C   0  0  0  0  0  2  0  0  0  0  0  0
  -26.0770  -29.3230   20.7290 C   0  0  0  0  0  0  0  0  0  0  0  0
  -27.2360  -28.4560   20.7280 C   0  0  0  0  0  3  0  0  0  0  0  0
  -26.0030  -26.7970   19.4910 C   0  0  0  0  0  3  0  0  0  0  0  0
  -24.8740  -27.6420   19.4750 C   0  0  0  0  0  3  0  0  0  0  0  0
  -23.6760  -29.7960   20.1540 C   0  0  0  0  0  2  0  0  0  0  0  0
  -24.7210  -31.0270   22.0920 N   0  0  0  0  0  0  0  0  0  0  0  0
  -23.5570  -32.1320   23.7090 O   0  0  0  0  0  0  0  0  0  0  0  0
  -22.7580  -29.4540   22.4850 C   0  0  0  0  0  0  0  0  0  0  0  0
  -21.4270  -29.3050   22.3600 N   0  0  0  0  0  0  0  0  0  0  0  0
  -23.4210  -28.8090   23.3010 O   0  0  0  0  0  0  0  0  0  0  0  0
  -20.9480  -29.8770   21.6790 H   0  0  0  0  0  0  0  0  0  0  0  0
  -18.0310  -28.1390   22.8480 C   0  0  0  0  0  0  0  0  0  0  0  0
  -20.5920  -28.3720   23.1230 C   0  0  0  0  0  3  0  0  0  0  0  0
  -20.6790  -26.9420   22.5400 C   0  0  0  0  0  2  0  0  0  0  0  0
  -19.5760  -26.6380   21.5210 C   0  0  0  0  0  2  0  0  0  0  0  0
  -18.1940  -26.7930   22.1630 C   0  0  0  0  0  2  0  0  0  0  0  0
  -19.1560  -28.8870   23.2840 C   0  0  0  0  0  0  0  0  0  0  0  0
  -18.9480  -30.1470   23.8870 C   0  0  0  0  0  3  0  0  0  0  0  0
  -17.6480  -30.6590   24.0550 C   0  0  0  0  0  3  0  0  0  0  0  0
  -16.5370  -29.9080   23.6340 C   0  0  0  0  0  3  0  0  0  0  0  0
  -16.7290  -28.6500   23.0360 C   0  0  0  0  0  3  0  0  0  0  0  0
  -25.9220  -32.4690   23.8270 C   0  0  0  0  0  3  0  0  0  0  0  0
  -25.5960  -33.8500   24.2180 N   0  0  0  0  0  0  0  0  0  0  0  0
  -25.9080  -34.9410   23.5060 C   0  0  0  0  0  0  0  0  0  0  0  0
  -26.5660  -34.8910   22.4640 O   0  0  0  0  0  0  0  0  0  0  0  0
  -25.0080  -33.9610   25.0320 H   0  0  0  0  0  0  0  0  0  0  0  0
  -24.1490  -36.7260   23.2640 C   0  0  0  0  0  1  0  0  0  0  0  0
  -25.4120  -36.3030   24.0320 C   0  0  0  0  0  3  0  0  0  0  0  0
  -27.5570  -37.1780   24.8460 C   0  0  0  0  0  1  0  0  0  0  0  0
  -26.4280  -37.3750   23.9410 N   0  0  0  0  0  0  0  0  0  0  0  0
  -26.0150  -38.2820   24.1420 H   0  0  0  0  0  0  0  0  0  0  0  0
  -26.4530  -31.6570   25.0720 C   0  0  1  0  0  0  0  0  0  0  0  0
  -25.3710  -31.3780   26.1420 C   0  0  0  0  0  1  0  0  0  0  0  0
  -27.0380  -30.2960   24.6320 C   0  0  0  0  0  1  0  0  0  0  0  0
  -27.6060  -32.4330   25.7500 C   0  0  0  0  0  1  0  0  0  0  0  0
  2  7  1  0
  3  4  1  0
  3  2  1  0
  5  4  1  0
  5 28  1  0
  5  6  1  0
  7  1  1  0
  7  6  1  0
  8  1  2  0
  9 20  1  0
 10 21  1  0
 12 22  1  0
 13 15  2  0
 14 12  2  0
 14 24  1  0
 16 18  1  0
 17 18  1  0
 18 54  1  0
 19  9  2  0
 19 10  2  0
 20 11  2  0
 21 11  1  0
 22 10  1  0
 22 13  1  0
 23 11  1  0
 23 16  1  0
 23 17  1  0
 24  1  1  0
 24 15  1  0
 25 26  2  0
 26 45  1  0
 27 26  1  0
 27 30  1  0
 28 25  1  0
 28 29  1  0
 29 27  2  0
 30 31  1  0
 31 32  2  0
 33 36  1  0
 33 32  1  0
 34 33  2  0
 35 34  1  0
 35 30  2  0
 36 37  1  0
 37 38  1  0
 38 39  2  0
 40 39  1  0
 40 44  1  0
 41 40  2  0
 42 37  2  0
 42 41  1  0
 43 42  1  0
 45 46  1  0
 46 49  1  0
 46 48  1  0
 47 45  2  0
 50 51  1  0
 50 25  1  0
 52 50  1  0
 54 53  1  0
 54 55  1  0
 54 56  1  0
 57 58  1  0
 57  9  1  0
 59 70  2  0
 60 58  1  0
 60 65  1  0
 61 69  1  0
 61 71  1  0
 62 68  1  0
 62 64  1  0
 63 69  1  0
 64 63  1  0
 65 64  2  0
 66 60  2  0
 67 66  1  0
 67 62  2  0
 68 61  1  0
 69 59  1  0
 71 73  2  0
 72 71  1  0
 74 72  1  0
 75 84  2  0
 75 80  1  0
 76 72  1  0
 76 80  1  0
 77 76  1  0
 78 79  1  0
 78 77  1  0
 79 75  1  0
 80 81  2  0
 81 82  1  0
 83 82  2  0
 84 83  1  0
 85 59  1  0
 85 86  1  0
 85 95  1  0
 86 89  1  0
 87 91  1  0
 87 86  1  0
 88 87  2  0
 91 90  1  0
 93 91  1  0
 93 94  1  0
 93 92  1  0
 95 98  1  1
 95 96  1  0
 97 95  1  0
M  ISO  4   1 100  24 100  57 101  58 101
M  END
>  <TORSDO>  (44) 
F 17

>  <SCORE>  (44) 
-4.669

>  <name>  (44) 
43

>  <ligand_id>  (44) 
43

>  <original_smiles>  (44) 
[H]c1c([H])c([H])c2c(c1[H])C([H])([H])C([H])([H])C([H])([H])C2([H])N([H])C(=O)C1([H])N(C(=O)C([H])(N([H])C(=O)C([H])(N([H])C([H])([H])[H])C([H])([H])[H])C(C([H])([H])[H])(C([H])([H])[H])C([H])([H])[H])C([H])([H])c2c([H])c(OC([H])([H])c3nc(N4C([H])([H])C([H])([H])N(C(=O)N5C([H])([H])C([H])([H])C([H])([H])C([H])(n6nc(-c7c([H])c([H])c(Oc8c([H])c([H])c(F)c([H])c8F)c([H])c7[H])c(C(=O)N([H])[H])c6N([H])[H])C5([H])[H])C([H])([H])C4([H])[H])nc(N4C([H])([H])C([H])([N+]([H])([H])C([H])([H])[H])C4([H])[H])n3)c([H])c([H])c2C1([H])[H]

>  <smiles>  (44) 
[H]c1c([H])c([H])c2c(c1[H])C([H])([H])C([H])([H])C([H])([H])C2([H])N([H])C(=O)C1([H])N(C(=O)C([H])(N([H])C(=O)C([H])(N([H])C([H])([H])[H])C([H])([H])[H])C(C([H])([H])[H])(C([H])([H])[H])C([H])([H])[H])C([H])([H])c2c([H])c(OC([H])([H])c3nc(N4C([H])([H])C([H])([H])N(C(=O)N5C([H])([H])C([H])([H])C([H])([H])C([H])(n6nc(-c7c([H])c([H])c(Oc8c([H])c([H])c(F)c([H])c8F)c([H])c7[H])c(C(=O)N([H])[H])c6N([H])[H])C5([H])[H])C([H])([H])C4([H])[H])nc(N4C([H])([H])C([H])([N+]([H])([H])C([H])([H])[H])C4([H])[H])n3)c([H])c([H])c2C1([H])[H]

$$$$
44:0:0
     RDKit          3D

 88 97  0  0  1  0  0  0  0  0999 V2000
  -28.4390  -21.5850   20.1610 C   0  0  0  0  0  3  0  0  0  0  0  0
  -30.9130  -22.1770   20.7230 C   0  0  0  0  0  3  0  0  0  0  0  0
  -29.3910  -20.4360   20.3510 C   0  0  0  0  0  0  0  0  0  0  0  0
  -28.8030  -23.0460   20.2800 C   0  0  0  0  0  0  0  0  0  0  0  0
  -30.6390  -20.8640   20.6360 N   0  0  0  0  0  0  0  0  0  0  0  0
  -30.1060  -23.2380   20.5710 N   0  0  0  0  0  0  0  0  0  0  0  0
  -30.4600  -15.1700   20.2630 C   0  0  0  0  0  0  0  0  0  0  0  0
  -30.3730  -12.7720   19.3550 C   0  0  0  0  0  2  0  0  0  0  0  0
  -29.4340  -12.6370   18.1340 C   0  0  0  0  0  2  0  0  0  0  0  0
  -27.9860  -12.3870   18.5900 C   0  0  0  0  0  2  0  0  0  0  0  0
  -27.5660  -13.3290   19.7490 C   0  0  0  0  0  3  0  0  0  0  0  0
  -28.6330  -13.4300   20.8580 C   0  0  0  0  0  2  0  0  0  0  0  0
  -29.8650  -13.8950   20.2080 N   0  0  0  0  0  0  0  0  0  0  0  0
  -31.6730  -15.1780   20.0130 O   0  0  0  0  0  0  0  0  0  0  0  0
  -29.9610  -17.6380   19.3390 C   0  0  0  0  0  2  0  0  0  0  0  0
  -29.6530  -17.5570   21.3090 C   0  0  0  0  0  2  0  0  0  0  0  0
  -29.2420  -18.7290   20.2740 C   0  0  0  0  0  3  0  0  0  0  0  0
  -29.7110  -16.4280   20.2620 N   0  0  0  0  0  0  0  0  0  0  0  0
  -25.2060  -13.8820   20.5470 C   0  0  0  0  0  0  0  0  0  0  0  0
  -24.1490  -13.0990   20.9160 C   0  0  0  0  0  0  0  0  0  0  0  0
  -24.6160  -11.7490   20.8590 C   0  0  0  0  0  0  0  0  0  0  0  0
  -26.2450  -13.0100   20.2740 N   0  0  0  0  0  0  0  0  0  0  0  0
  -25.9040  -11.7210   20.5300 N   0  0  0  0  0  0  0  0  0  0  0  0
  -23.8930  -10.4840   21.0400 C   0  0  0  0  0  0  0  0  0  0  0  0
  -24.3210   -9.5150   21.9740 C   0  0  0  0  0  3  0  0  0  0  0  0
  -23.5960   -8.3150   22.1440 C   0  0  0  0  0  3  0  0  0  0  0  0
  -22.4300   -8.0750   21.3790 C   0  0  0  0  0  0  0  0  0  0  0  0
  -22.0210   -9.0340   20.4350 C   0  0  0  0  0  3  0  0  0  0  0  0
  -22.7460  -10.2250   20.2650 C   0  0  0  0  0  3  0  0  0  0  0  0
  -21.6760   -6.9300   21.4590 O   0  0  0  0  0  0  0  0  0  0  0  0
  -21.5950   -6.2010   22.6190 C   0  0  0  0  0  0  0  0  0  0  0  0
  -21.0980   -6.7610   23.8160 C   0  0  0  0  0  3  0  0  0  0  0  0
  -20.9660   -5.9590   24.9670 C   0  0  0  0  0  3  0  0  0  0  0  0
  -21.3180   -4.5960   24.9200 C   0  0  0  0  0  0  0  0  0  0  0  0
  -21.8070   -4.0350   23.7280 C   0  0  0  0  0  3  0  0  0  0  0  0
  -21.9410   -4.8350   22.5790 C   0  0  0  0  0  0  0  0  0  0  0  0
  -22.3920   -4.2850   21.4260 F   0  0  0  0  0  0  0  0  0  0  0  0
  -21.1830   -3.8220   26.0220 F   0  0  0  0  0  0  0  0  0  0  0  0
  -22.7560  -13.5710   21.2120 C   0  0  0  0  0  0  0  0  0  0  0  0
  -22.0420  -12.8680   22.0830 N   0  0  0  0  0  0  0  0  0  0  0  0
  -22.3110  -14.6000   20.7060 O   0  0  0  0  0  0  0  0  0  0  0  0
  -22.4190  -12.0370   22.5150 H   0  0  0  0  0  0  0  0  0  0  0  0
  -21.1070  -13.1670   22.3240 H   0  0  0  0  0  0  0  0  0  0  0  0
  -25.3640  -15.2550   20.3920 N   0  0  0  0  0  0  0  0  0  0  0  0
  -24.5990  -15.9040   20.5330 H   0  0  0  0  0  0  0  0  0  0  0  0
  -26.2170  -15.7100   20.0890 H   0  0  0  0  0  0  0  0  0  0  0  0
  -27.8640  -24.4540   20.0620 C   0  0  0  0  0  2  0  0  0  0  0  0
  -28.1980  -26.0130   20.2970 O   0  0  0  0  0  0  0  0  0  0  0  0
  -24.6520  -31.8990   23.2550 C   0  0  0  0  0  0  0  0  0  0  0  0
  -27.1880  -27.0810   20.2260 C   0  0  0  0  0  0  0  0  0  0  0  0
  -23.4500  -30.5150   21.6130 C   0  0  0  0  0  3  0  0  0  0  0  0
  -24.8900  -28.9200   20.1870 C   0  0  0  0  0  0  0  0  0  0  0  0
  -26.0140  -30.7320   21.4640 C   0  0  0  0  0  2  0  0  0  0  0  0
  -26.0780  -29.3320   20.8050 C   0  0  0  0  0  0  0  0  0  0  0  0
  -27.2250  -28.4320   20.8040 C   0  0  0  0  0  3  0  0  0  0  0  0
  -25.9720  -26.8040   19.5610 C   0  0  0  0  0  3  0  0  0  0  0  0
  -24.8570  -27.6740   19.5450 C   0  0  0  0  0  3  0  0  0  0  0  0
  -23.6750  -29.8390   20.2350 C   0  0  0  0  0  2  0  0  0  0  0  0
  -24.7270  -31.0740   22.1650 N   0  0  0  0  0  0  0  0  0  0  0  0
  -23.5640  -32.1930   23.7760 O   0  0  0  0  0  0  0  0  0  0  0  0
  -22.7520  -29.5170   22.5720 C   0  0  0  0  0  0  0  0  0  0  0  0
  -21.4210  -29.3600   22.4430 N   0  0  0  0  0  0  0  0  0  0  0  0
  -23.4120  -28.8830   23.4000 O   0  0  0  0  0  0  0  0  0  0  0  0
  -20.9430  -29.9200   21.7500 H   0  0  0  0  0  0  0  0  0  0  0  0
  -18.0270  -28.1860   22.9450 C   0  0  0  0  0  0  0  0  0  0  0  0
  -20.5890  -28.4280   23.2120 C   0  0  0  0  0  3  0  0  0  0  0  0
  -20.6780  -26.9960   22.6330 C   0  0  0  0  0  2  0  0  0  0  0  0
  -19.5730  -26.6850   21.6180 C   0  0  0  0  0  2  0  0  0  0  0  0
  -18.1930  -26.8380   22.2620 C   0  0  0  0  0  2  0  0  0  0  0  0
  -19.1510  -28.9400   23.3760 C   0  0  0  0  0  0  0  0  0  0  0  0
  -18.9390  -30.2000   23.9750 C   0  0  0  0  0  3  0  0  0  0  0  0
  -17.6360  -30.7060   24.1470 C   0  0  0  0  0  3  0  0  0  0  0  0
  -16.5270  -29.9490   23.7300 C   0  0  0  0  0  3  0  0  0  0  0  0
  -16.7240  -28.6910   23.1340 C   0  0  0  0  0  3  0  0  0  0  0  0
  -25.9280  -32.5290   23.8900 C   0  0  0  0  0  3  0  0  0  0  0  0
  -25.6220  -33.9300   24.2270 N   0  0  0  0  0  0  0  0  0  0  0  0
  -25.9320  -34.9860   23.4630 C   0  0  0  0  0  0  0  0  0  0  0  0
  -26.5690  -34.8850   22.4130 O   0  0  0  0  0  0  0  0  0  0  0  0
  -25.0550  -34.0830   25.0480 H   0  0  0  0  0  0  0  0  0  0  0  0
  -24.1810  -36.7750   23.1880 C   0  0  0  0  0  1  0  0  0  0  0  0
  -25.4610  -36.3760   23.9400 C   0  0  0  0  0  3  0  0  0  0  0  0
  -27.6240  -37.2830   24.6710 C   0  0  0  0  0  1  0  0  0  0  0  0
  -26.4840  -37.4320   23.7700 N   0  0  0  0  0  0  0  0  0  0  0  0
  -26.0800  -38.3540   23.9190 H   0  0  0  0  0  0  0  0  0  0  0  0
  -26.4270  -31.7550   25.1740 C   0  0  1  0  0  0  0  0  0  0  0  0
  -25.3220  -31.5260   26.2320 C   0  0  0  0  0  1  0  0  0  0  0  0
  -27.0050  -30.3720   24.7950 C   0  0  0  0  0  1  0  0  0  0  0  0
  -27.5780  -32.5430   25.8440 C   0  0  0  0  0  1  0  0  0  0  0  0
  1  4  2  0
  1  3  1  0
  3  5  2  0
  4  6  1  0
  5  2  1  0
  6  2  2  0
  8 13  1  0
  9 10  1  0
  9  8  1  0
 11 10  1  0
 11 22  1  0
 11 12  1  0
 13  7  1  0
 13 12  1  0
 14  7  2  0
 15 18  1  0
 15 17  1  0
 17  3  1  0
 17 16  1  0
 18  7  1  0
 18 16  1  0
 19 20  2  0
 20 39  1  0
 21 20  1  0
 21 24  1  0
 22 23  1  0
 22 19  1  0
 23 21  2  0
 24 25  1  0
 25 26  2  0
 27 30  1  0
 27 26  1  0
 28 27  2  0
 29 28  1  0
 29 24  2  0
 30 31  1  0
 31 32  1  0
 32 33  2  0
 34 33  1  0
 34 38  1  0
 35 34  2  0
 36 31  2  0
 36 35  1  0
 37 36  1  0
 39 40  1  0
 40 43  1  0
 40 42  1  0
 41 39  2  0
 44 45  1  0
 44 19  1  0
 46 44  1  0
 47  4  1  0
 47 48  1  0
 49 60  2  0
 50 48  1  0
 50 55  1  0
 51 59  1  0
 51 61  1  0
 52 58  1  0
 52 54  1  0
 53 59  1  0
 54 53  1  0
 55 54  2  0
 56 50  2  0
 57 56  1  0
 57 52  2  0
 58 51  1  0
 59 49  1  0
 61 63  2  0
 62 61  1  0
 64 62  1  0
 65 74  2  0
 65 70  1  0
 66 62  1  0
 66 70  1  0
 67 66  1  0
 68 69  1  0
 68 67  1  0
 69 65  1  0
 70 71  2  0
 71 72  1  0
 73 72  2  0
 74 73  1  0
 75 49  1  0
 75 76  1  0
 75 85  1  0
 76 79  1  0
 77 81  1  0
 77 76  1  0
 78 77  2  0
 81 80  1  0
 83 84  1  0
 83 81  1  0
 83 82  1  0
 85 88  1  1
 85 86  1  0
 87 85  1  0
M  ISO  4   7 100  18 100  47 101  48 101
M  END
>  <TORSDO>  (45) 
F 17

>  <SCORE>  (45) 
-16.217

>  <name>  (45) 
44

>  <ligand_id>  (45) 
44

>  <original_smiles>  (45) 
[H]c1nc(C([H])([H])Oc2c([H])c([H])c3c(c2[H])C([H])([H])N(C(=O)C([H])(N([H])C(=O)C([H])(N([H])C([H])([H])[H])C([H])([H])[H])C(C([H])([H])[H])(C([H])([H])[H])C([H])([H])[H])C([H])(C(=O)N([H])C2([H])c4c([H])c([H])c([H])c([H])c4C([H])([H])C([H])([H])C2([H])[H])C3([H])[H])c([H])c(C2([H])C([H])([H])N(C(=O)N3C([H])([H])C([H])([H])C([H])([H])C([H])(n4nc(-c5c([H])c([H])c(Oc6c([H])c([H])c(F)c([H])c6F)c([H])c5[H])c(C(=O)N([H])[H])c4N([H])[H])C3([H])[H])C2([H])[H])n1

>  <smiles>  (45) 
[H]c1nc(C([H])([H])Oc2c([H])c([H])c3c(c2[H])C([H])([H])N(C(=O)C([H])(N([H])C(=O)C([H])(N([H])C([H])([H])[H])C([H])([H])[H])C(C([H])([H])[H])(C([H])([H])[H])C([H])([H])[H])C([H])(C(=O)N([H])C2([H])c4c([H])c([H])c([H])c([H])c4C([H])([H])C([H])([H])C2([H])[H])C3([H])[H])c([H])c(C2([H])C([H])([H])N(C(=O)N3C([H])([H])C([H])([H])C([H])([H])C([H])(n4nc(-c5c([H])c([H])c(Oc6c([H])c([H])c(F)c([H])c6F)c([H])c5[H])c(C(=O)N([H])[H])c4N([H])[H])C3([H])[H])C2([H])[H])n1

$$$$
45:0:0
     RDKit          3D

 97106  0  0  1  0  0  0  0  0999 V2000
  -28.8590  -20.3790   20.0110 N   0  0  0  0  0  0  0  0  0  0  0  0
  -27.1510  -19.3430   18.4090 C   0  0  0  0  0  2  0  0  0  0  0  0
  -28.1290  -20.4510   18.7410 C   0  0  0  0  0  3  0  0  0  0  0  0
  -26.0050  -21.5330   18.0040 C   0  0  0  0  0  1  0  0  0  0  0  0
  -26.6950  -20.6160   18.9330 N   0  0  1  0  0  4  0  0  0  0  0  0
  -26.3600  -20.5590   19.8810 H   0  0  0  0  0  0  0  0  0  0  0  0
  -32.0930  -18.5750   20.7280 C   0  0  0  0  0  2  0  0  0  0  0  0
  -31.1370  -17.9140   21.7180 C   0  0  0  0  0  2  0  0  0  0  0  0
  -31.2650  -19.6560   20.0340 C   0  0  0  0  0  2  0  0  0  0  0  0
  -29.8240  -17.7380   20.9360 C   0  0  0  0  0  3  0  0  0  0  0  0
  -29.8200  -19.1270   19.9650 C   0  0  0  0  0  3  0  0  0  0  0  0
  -30.4800  -15.0460   20.3360 C   0  0  0  0  0  0  0  0  0  0  0  0
  -30.3720  -12.7020   19.3540 C   0  0  0  0  0  2  0  0  0  0  0  0
  -29.4180  -12.6590   18.1380 C   0  0  0  0  0  2  0  0  0  0  0  0
  -27.9670  -12.4170   18.5940 C   0  0  0  0  0  2  0  0  0  0  0  0
  -27.5670  -13.3200   19.7890 C   0  0  0  0  0  3  0  0  0  0  0  0
  -28.6420  -13.3400   20.8950 C   0  0  0  0  0  2  0  0  0  0  0  0
  -29.8920  -13.7810   20.2600 N   0  0  0  0  0  0  0  0  0  0  0  0
  -31.6880  -15.1150   20.0900 O   0  0  0  0  0  0  0  0  0  0  0  0
  -29.6720  -16.2120   20.4930 N   0  0  0  0  0  0  0  0  0  0  0  0
  -28.6990  -15.9450   20.5060 H   0  0  0  0  0  0  0  0  0  0  0  0
  -25.1970  -13.8600   20.5820 C   0  0  0  0  0  0  0  0  0  0  0  0
  -24.1470  -13.0690   20.9610 C   0  0  0  0  0  0  0  0  0  0  0  0
  -24.6260  -11.7240   20.9020 C   0  0  0  0  0  0  0  0  0  0  0  0
  -26.2440  -12.9960   20.3100 N   0  0  0  0  0  0  0  0  0  0  0  0
  -25.9120  -11.7060   20.5690 N   0  0  0  0  0  0  0  0  0  0  0  0
  -23.9160  -10.4520   21.0830 C   0  0  0  0  0  0  0  0  0  0  0  0
  -24.3640   -9.4810   22.0040 C   0  0  0  0  0  3  0  0  0  0  0  0
  -23.6530   -8.2730   22.1750 C   0  0  0  0  0  3  0  0  0  0  0  0
  -22.4790   -8.0280   21.4240 C   0  0  0  0  0  0  0  0  0  0  0  0
  -22.0510   -8.9890   20.4910 C   0  0  0  0  0  3  0  0  0  0  0  0
  -22.7620  -10.1880   20.3180 C   0  0  0  0  0  3  0  0  0  0  0  0
  -21.7350   -6.8760   21.5060 O   0  0  0  0  0  0  0  0  0  0  0  0
  -21.6900   -6.1290   22.6560 C   0  0  0  0  0  0  0  0  0  0  0  0
  -21.2210   -6.6650   23.8770 C   0  0  0  0  0  3  0  0  0  0  0  0
  -21.1280   -5.8410   25.0170 C   0  0  0  0  0  3  0  0  0  0  0  0
  -21.4910   -4.4830   24.9370 C   0  0  0  0  0  0  0  0  0  0  0  0
  -21.9500   -3.9470   23.7220 C   0  0  0  0  0  3  0  0  0  0  0  0
  -22.0470   -4.7670   22.5840 C   0  0  0  0  0  0  0  0  0  0  0  0
  -22.4710   -4.2410   21.4100 F   0  0  0  0  0  0  0  0  0  0  0  0
  -21.3950   -3.6910   26.0300 F   0  0  0  0  0  0  0  0  0  0  0  0
  -22.7510  -13.5260   21.2640 C   0  0  0  0  0  0  0  0  0  0  0  0
  -22.0430  -12.8080   22.1280 N   0  0  0  0  0  0  0  0  0  0  0  0
  -22.2970  -14.5550   20.7670 O   0  0  0  0  0  0  0  0  0  0  0  0
  -22.4270  -11.9760   22.5510 H   0  0  0  0  0  0  0  0  0  0  0  0
  -21.1030  -13.0920   22.3690 H   0  0  0  0  0  0  0  0  0  0  0  0
  -25.3440  -15.2340   20.4180 N   0  0  0  0  0  0  0  0  0  0  0  0
  -24.5720  -15.8790   20.5470 H   0  0  0  0  0  0  0  0  0  0  0  0
  -26.1740  -15.6790   20.0500 H   0  0  0  0  0  0  0  0  0  0  0  0
  -28.8730  -21.7900   20.7200 C   0  0  0  0  0  2  0  0  0  0  0  0
  -28.9270  -23.3590   20.0500 C   0  0  0  0  0  3  0  0  0  0  0  0
  -30.3520  -23.6960   19.8750 N   0  0  0  0  0  4  0  0  0  0  0  0
  -30.7930  -23.8530   20.7660 H   0  0  0  0  0  0  0  0  0  0  0  0
  -30.4560  -24.5400   19.3340 H   0  0  0  0  0  0  0  0  0  0  0  0
  -30.8460  -22.9580   19.4050 H   0  0  0  0  0  0  0  0  0  0  0  0
  -28.1560  -24.7320   20.7000 C   0  0  0  0  0  2  0  0  0  0  0  0
  -28.3490  -26.2420   20.3370 O   0  0  0  0  0  0  0  0  0  0  0  0
  -24.6160  -31.9280   23.2620 C   0  0  0  0  0  0  0  0  0  0  0  0
  -27.2690  -27.2000   20.3160 C   0  0  0  0  0  0  0  0  0  0  0  0
  -23.4500  -30.5120   21.6130 C   0  0  0  0  0  3  0  0  0  0  0  0
  -24.9270  -28.9280   20.2300 C   0  0  0  0  0  0  0  0  0  0  0  0
  -26.0050  -30.7880   21.4890 C   0  0  0  0  0  2  0  0  0  0  0  0
  -26.0940  -29.3900   20.8500 C   0  0  0  0  0  0  0  0  0  0  0  0
  -27.2700  -28.5440   20.8700 C   0  0  0  0  0  3  0  0  0  0  0  0
  -26.0750  -26.8370   19.6580 C   0  0  0  0  0  3  0  0  0  0  0  0
  -24.9310  -27.6670   19.6150 C   0  0  0  0  0  3  0  0  0  0  0  0
  -23.6940  -29.8200   20.2450 C   0  0  0  0  0  2  0  0  0  0  0  0
  -24.7080  -31.1000   22.1770 N   0  0  0  0  0  0  0  0  0  0  0  0
  -23.5200  -32.2090   23.7720 O   0  0  0  0  0  0  0  0  0  0  0  0
  -22.7600  -29.5120   22.5740 C   0  0  0  0  0  0  0  0  0  0  0  0
  -21.4330  -29.3400   22.4310 N   0  0  0  0  0  0  0  0  0  0  0  0
  -23.4210  -28.8920   23.4100 O   0  0  0  0  0  0  0  0  0  0  0  0
  -20.9590  -29.8880   21.7270 H   0  0  0  0  0  0  0  0  0  0  0  0
  -18.0440  -28.1640   22.9280 C   0  0  0  0  0  0  0  0  0  0  0  0
  -20.6050  -28.4060   23.1970 C   0  0  0  0  0  3  0  0  0  0  0  0
  -20.6940  -26.9750   22.6180 C   0  0  0  0  0  2  0  0  0  0  0  0
  -19.5920  -26.6660   21.5990 C   0  0  0  0  0  2  0  0  0  0  0  0
  -18.2110  -26.8180   22.2420 C   0  0  0  0  0  2  0  0  0  0  0  0
  -19.1680  -28.9160   23.3620 C   0  0  0  0  0  0  0  0  0  0  0  0
  -18.9560  -30.1760   23.9640 C   0  0  0  0  0  3  0  0  0  0  0  0
  -17.6560  -30.6880   24.1290 C   0  0  0  0  0  3  0  0  0  0  0  0
  -16.5460  -29.9330   23.7100 C   0  0  0  0  0  3  0  0  0  0  0  0
  -16.7410  -28.6720   23.1200 C   0  0  0  0  0  3  0  0  0  0  0  0
  -25.8790  -32.5760   23.9050 C   0  0  0  0  0  3  0  0  0  0  0  0
  -25.5580  -33.9800   24.2100 N   0  0  0  0  0  0  0  0  0  0  0  0
  -25.8990  -35.0250   23.4450 C   0  0  0  0  0  0  0  0  0  0  0  0
  -26.5840  -34.9100   22.4260 O   0  0  0  0  0  0  0  0  0  0  0  0
  -24.9560  -34.1390   25.0040 H   0  0  0  0  0  0  0  0  0  0  0  0
  -24.1840  -36.8190   23.0300 C   0  0  0  0  0  1  0  0  0  0  0  0
  -25.4040  -36.4210   23.8760 C   0  0  0  0  0  3  0  0  0  0  0  0
  -27.5170  -37.3170   24.7510 C   0  0  0  0  0  1  0  0  0  0  0  0
  -26.4410  -37.4710   23.7750 N   0  0  0  0  0  0  0  0  0  0  0  0
  -26.0330  -38.3960   23.8920 H   0  0  0  0  0  0  0  0  0  0  0  0
  -26.3630  -31.8290   25.2100 C   0  0  1  0  0  0  0  0  0  0  0  0
  -25.2440  -31.6040   26.2550 C   0  0  0  0  0  1  0  0  0  0  0  0
  -26.9590  -30.4470   24.8600 C   0  0  0  0  0  1  0  0  0  0  0  0
  -27.4960  -32.6360   25.8860 C   0  0  0  0  0  1  0  0  0  0  0  0
  1 50  1  0
  2  3  1  0
  2  5  1  0
  3  5  1  0
  3  1  1  0
  4  5  1  0
  5  6  1  1
  7  8  1  0
  9  7  1  0
 10 20  1  0
 10  8  1  0
 11  1  1  0
 11  9  1  0
 11 10  1  0
 12 20  1  0
 13 18  1  0
 14 15  1  0
 14 13  1  0
 16 15  1  0
 16 25  1  0
 16 17  1  0
 18 12  1  0
 18 17  1  0
 19 12  2  0
 20 21  1  0
 22 23  2  0
 23 42  1  0
 24 23  1  0
 24 27  1  0
 25 26  1  0
 25 22  1  0
 26 24  2  0
 27 28  1  0
 28 29  2  0
 30 33  1  0
 30 29  1  0
 31 30  2  0
 32 31  1  0
 32 27  2  0
 33 34  1  0
 34 35  1  0
 35 36  2  0
 37 36  1  0
 37 41  1  0
 38 37  2  0
 39 34  2  0
 39 38  1  0
 40 39  1  0
 42 43  1  0
 43 46  1  0
 43 45  1  0
 44 42  2  0
 47 48  1  0
 47 22  1  0
 49 47  1  0
 51 56  1  0
 51 50  1  0
 52 51  1  0
 52 53  1  0
 54 52  1  0
 55 52  1  0
 57 56  1  0
 58 69  2  0
 59 57  1  0
 59 64  1  0
 60 68  1  0
 60 70  1  0
 61 67  1  0
 61 63  1  0
 62 68  1  0
 63 64  2  0
 63 62  1  0
 65 59  2  0
 66 65  1  0
 66 61  2  0
 67 60  1  0
 68 58  1  0
 70 72  2  0
 71 70  1  0
 73 71  1  0
 74 83  2  0
 74 79  1  0
 75 71  1  0
 75 79  1  0
 76 75  1  0
 77 78  1  0
 77 76  1  0
 78 74  1  0
 79 80  2  0
 80 81  1  0
 82 81  2  0
 83 82  1  0
 84 58  1  0
 84 85  1  0
 84 94  1  0
 85 88  1  0
 86 90  1  0
 86 85  1  0
 87 86  2  0
 90 89  1  0
 92 90  1  0
 92 93  1  0
 92 91  1  0
 94 97  1  1
 94 95  1  0
 96 94  1  0
M  ISO  4  12 100  20 100  56 101  57 101
M  END
>  <TORSDO>  (46) 
F 22

>  <SCORE>  (46) 
-15.168

>  <name>  (46) 
45

>  <ligand_id>  (46) 
45

>  <original_smiles>  (46) 
[H]c1c([H])c([H])c2c(c1[H])C([H])([H])C([H])([H])C([H])([H])C2([H])N([H])C(=O)C1([H])N(C(=O)C([H])(N([H])C(=O)C([H])(N([H])C([H])([H])[H])C([H])([H])[H])C(C([H])([H])[H])(C([H])([H])[H])C([H])([H])[H])C([H])([H])c2c([H])c(OC([H])([H])C([H])(C([H])([H])N(C3([H])C([H])([H])C([H])([H])C([H])([H])C3([H])N([H])C(=O)N3C([H])([H])C([H])([H])C([H])([H])C([H])(n4nc(-c5c([H])c([H])c(Oc6c([H])c([H])c(F)c([H])c6F)c([H])c5[H])c(C(=O)N([H])[H])c4N([H])[H])C3([H])[H])C3([H])C([H])([H])[N+]3([H])C([H])([H])[H])[N+]([H])([H])[H])c([H])c([H])c2C1([H])[H]

>  <smiles>  (46) 
[H]c1c([H])c([H])c2c(c1[H])C([H])([H])C([H])([H])C([H])([H])C2([H])N([H])C(=O)C1([H])N(C(=O)C([H])(N([H])C(=O)C([H])(N([H])C([H])([H])[H])C([H])([H])[H])C(C([H])([H])[H])(C([H])([H])[H])C([H])([H])[H])C([H])([H])c2c([H])c(OC([H])([H])C([H])(C([H])([H])N(C3([H])C([H])([H])C([H])([H])C([H])([H])C3([H])N([H])C(=O)N3C([H])([H])C([H])([H])C([H])([H])C([H])(n4nc(-c5c([H])c([H])c(Oc6c([H])c([H])c(F)c([H])c6F)c([H])c5[H])c(C(=O)N([H])[H])c4N([H])[H])C3([H])[H])C3([H])C([H])([H])[N+]3([H])C([H])([H])[H])[N+]([H])([H])[H])c([H])c([H])c2C1([H])[H]

$$$$
46:0:0
     RDKit          3D

 91 99  0  0  1  0  0  0  0  0999 V2000
  -28.5890  -23.2020   19.5940 C   0  0  0  0  0  3  0  0  0  0  0  0
  -29.8470  -23.4150   18.8350 N   0  0  0  0  0  4  0  0  0  0  0  0
  -30.5990  -23.7970   19.3850 H   0  0  0  0  0  0  0  0  0  0  0  0
  -29.7070  -24.0170   18.0370 H   0  0  0  0  0  0  0  0  0  0  0  0
  -30.1560  -22.5280   18.4730 H   0  0  0  0  0  0  0  0  0  0  0  0
  -28.6900  -21.7080   20.4120 C   0  0  0  0  0  2  0  0  0  0  0  0
  -29.1530  -18.2290   18.5840 C   0  0  0  0  0  2  0  0  0  0  0  0
  -28.3520  -19.5530   18.9220 C   0  0  0  0  0  2  0  0  0  0  0  0
  -29.5160  -19.0640   20.7420 C   0  0  0  0  0  2  0  0  0  0  0  0
  -29.9200  -17.7390   19.8440 C   0  0  0  0  0  3  0  0  0  0  0  0
  -29.1890  -20.3050   19.8720 N   0  0  0  0  0  0  0  0  0  0  0  0
  -30.5370  -15.0200   20.1640 C   0  0  0  0  0  0  0  0  0  0  0  0
  -30.4230  -12.6600   19.2590 C   0  0  0  0  0  2  0  0  0  0  0  0
  -29.4660  -12.6780   18.0480 C   0  0  0  0  0  2  0  0  0  0  0  0
  -28.0120  -12.4440   18.5120 C   0  0  0  0  0  2  0  0  0  0  0  0
  -27.6280  -13.3290   19.7290 C   0  0  0  0  0  3  0  0  0  0  0  0
  -28.7190  -13.3390   20.8210 C   0  0  0  0  0  2  0  0  0  0  0  0
  -29.9680  -13.7460   20.1700 N   0  0  0  0  0  0  0  0  0  0  0  0
  -31.7480  -15.0830   19.9130 O   0  0  0  0  0  0  0  0  0  0  0  0
  -29.7210  -16.1930   20.2140 N   0  0  0  0  0  0  0  0  0  0  0  0
  -28.7470  -15.9410   20.2980 H   0  0  0  0  0  0  0  0  0  0  0  0
  -25.2560  -13.8790   20.5390 C   0  0  0  0  0  0  0  0  0  0  0  0
  -24.2040  -13.0950   20.9150 C   0  0  0  0  0  0  0  0  0  0  0  0
  -24.6650  -11.7440   20.8430 C   0  0  0  0  0  0  0  0  0  0  0  0
  -26.3020  -13.0090   20.2560 N   0  0  0  0  0  0  0  0  0  0  0  0
  -25.9520  -11.7210   20.4950 N   0  0  0  0  0  0  0  0  0  0  0  0
  -23.9430  -10.4780   21.0320 C   0  0  0  0  0  0  0  0  0  0  0  0
  -24.3700   -9.5090   21.9660 C   0  0  0  0  0  3  0  0  0  0  0  0
  -23.6440   -8.3100   22.1410 C   0  0  0  0  0  3  0  0  0  0  0  0
  -22.4730   -8.0720   21.3820 C   0  0  0  0  0  0  0  0  0  0  0  0
  -22.0650   -9.0320   20.4380 C   0  0  0  0  0  3  0  0  0  0  0  0
  -22.7930  -10.2190   20.2620 C   0  0  0  0  0  3  0  0  0  0  0  0
  -21.7220   -6.9260   21.4630 O   0  0  0  0  0  0  0  0  0  0  0  0
  -21.6470   -6.1930   22.6220 C   0  0  0  0  0  0  0  0  0  0  0  0
  -21.1450   -6.7460   23.8180 C   0  0  0  0  0  3  0  0  0  0  0  0
  -21.0170   -5.9390   24.9700 C   0  0  0  0  0  3  0  0  0  0  0  0
  -21.3820   -4.5830   24.9220 C   0  0  0  0  0  0  0  0  0  0  0  0
  -21.8750   -4.0270   23.7290 C   0  0  0  0  0  3  0  0  0  0  0  0
  -22.0050   -4.8290   22.5800 C   0  0  0  0  0  0  0  0  0  0  0  0
  -22.4630   -4.2820   21.4290 F   0  0  0  0  0  0  0  0  0  0  0  0
  -21.2540   -3.8060   26.0250 F   0  0  0  0  0  0  0  0  0  0  0  0
  -22.8100  -13.5700   21.2210 C   0  0  0  0  0  0  0  0  0  0  0  0
  -22.0820  -12.8590   22.0760 N   0  0  0  0  0  0  0  0  0  0  0  0
  -22.3740  -14.6150   20.7400 O   0  0  0  0  0  0  0  0  0  0  0  0
  -22.4440  -12.0220   22.5090 H   0  0  0  0  0  0  0  0  0  0  0  0
  -21.1530  -13.1760   22.3080 H   0  0  0  0  0  0  0  0  0  0  0  0
  -25.4030  -15.2540   20.3730 N   0  0  0  0  0  0  0  0  0  0  0  0
  -24.6090  -15.8800   20.4720 H   0  0  0  0  0  0  0  0  0  0  0  0
  -26.2270  -15.7090   20.0010 H   0  0  0  0  0  0  0  0  0  0  0  0
  -28.0300  -24.6400   20.3500 C   0  0  0  0  0  2  0  0  0  0  0  0
  -28.2610  -26.1720   20.0870 O   0  0  0  0  0  0  0  0  0  0  0  0
  -24.5830  -31.8630   23.2110 C   0  0  0  0  0  0  0  0  0  0  0  0
  -27.1980  -27.1520   20.1400 C   0  0  0  0  0  0  0  0  0  0  0  0
  -23.4030  -30.4650   21.5620 C   0  0  0  0  0  3  0  0  0  0  0  0
  -24.8630  -28.8910   20.1470 C   0  0  0  0  0  0  0  0  0  0  0  0
  -25.9600  -30.7260   21.4190 C   0  0  0  0  0  2  0  0  0  0  0  0
  -26.0400  -29.3310   20.7670 C   0  0  0  0  0  0  0  0  0  0  0  0
  -27.2060  -28.4730   20.7610 C   0  0  0  0  0  3  0  0  0  0  0  0
  -25.9980  -26.8260   19.4810 C   0  0  0  0  0  3  0  0  0  0  0  0
  -24.8530  -27.6500   19.4960 C   0  0  0  0  0  3  0  0  0  0  0  0
  -23.6440  -29.7990   20.1820 C   0  0  0  0  0  2  0  0  0  0  0  0
  -24.6700  -31.0400   22.1200 N   0  0  0  0  0  0  0  0  0  0  0  0
  -23.4910  -32.1440   23.7250 O   0  0  0  0  0  0  0  0  0  0  0  0
  -22.7230  -29.4490   22.5150 C   0  0  0  0  0  0  0  0  0  0  0  0
  -21.3940  -29.2830   22.3910 N   0  0  0  0  0  0  0  0  0  0  0  0
  -23.3930  -28.8150   23.3330 O   0  0  0  0  0  0  0  0  0  0  0  0
  -20.9040  -29.8470   21.7120 H   0  0  0  0  0  0  0  0  0  0  0  0
  -18.0070  -28.1130   22.9120 C   0  0  0  0  0  0  0  0  0  0  0  0
  -20.5720  -28.3430   23.1590 C   0  0  0  0  0  3  0  0  0  0  0  0
  -20.6500  -26.9170   22.5640 C   0  0  0  0  0  2  0  0  0  0  0  0
  -19.5380  -26.6220   21.5550 C   0  0  0  0  0  2  0  0  0  0  0  0
  -18.1640  -26.7730   22.2150 C   0  0  0  0  0  2  0  0  0  0  0  0
  -19.1380  -28.8560   23.3440 C   0  0  0  0  0  0  0  0  0  0  0  0
  -18.9340  -30.1110   23.9580 C   0  0  0  0  0  3  0  0  0  0  0  0
  -17.6340  -30.6190   24.1450 C   0  0  0  0  0  3  0  0  0  0  0  0
  -16.5180  -29.8710   23.7280 C   0  0  0  0  0  3  0  0  0  0  0  0
  -16.7080  -28.6200   23.1150 C   0  0  0  0  0  3  0  0  0  0  0  0
  -25.8520  -32.5050   23.8480 C   0  0  0  0  0  3  0  0  0  0  0  0
  -26.3420  -31.7480   25.1430 C   0  0  1  0  0  0  0  0  0  0  0  0
  -25.2240  -31.5220   26.1910 C   0  0  0  0  0  1  0  0  0  0  0  0
  -26.9320  -30.3660   24.7810 C   0  0  0  0  0  1  0  0  0  0  0  0
  -27.4810  -32.5450   25.8190 C   0  0  0  0  0  1  0  0  0  0  0  0
  -25.5340  -33.9070   24.1640 N   0  0  0  0  0  0  0  0  0  0  0  0
  -25.8840  -34.9600   23.4110 C   0  0  0  0  0  0  0  0  0  0  0  0
  -26.5740  -34.8520   22.3960 O   0  0  0  0  0  0  0  0  0  0  0  0
  -24.9140  -34.0630   24.9460 H   0  0  0  0  0  0  0  0  0  0  0  0
  -24.1780  -36.7690   23.0140 C   0  0  0  0  0  1  0  0  0  0  0  0
  -25.3920  -36.3510   23.8590 C   0  0  0  0  0  3  0  0  0  0  0  0
  -27.5110  -37.2250   24.7460 C   0  0  0  0  0  1  0  0  0  0  0  0
  -26.4310  -37.4000   23.7770 N   0  0  0  0  0  0  0  0  0  0  0  0
  -26.0260  -38.3210   23.9190 H   0  0  0  0  0  0  0  0  0  0  0  0
  1 50  1  0
  1  6  1  0
  2  3  1  0
  2  1  1  0
  4  2  1  0
  5  2  1  0
  7  8  1  0
  7 10  1  0
  8 11  1  0
 10 20  1  0
 10  9  1  0
 11  6  1  0
 11  9  1  0
 12 18  1  0
 12 20  1  0
 13 18  1  0
 14 15  1  0
 14 13  1  0
 16 15  1  0
 16 25  1  0
 16 17  1  0
 18 17  1  0
 19 12  2  0
 20 21  1  0
 22 23  2  0
 23 42  1  0
 24 23  1  0
 24 27  1  0
 25 26  1  0
 25 22  1  0
 26 24  2  0
 27 28  1  0
 28 29  2  0
 30 33  1  0
 30 29  1  0
 31 30  2  0
 32 31  1  0
 32 27  2  0
 33 34  1  0
 34 35  1  0
 35 36  2  0
 37 36  1  0
 37 41  1  0
 38 37  2  0
 39 34  2  0
 39 38  1  0
 40 39  1  0
 42 43  1  0
 43 46  1  0
 43 45  1  0
 44 42  2  0
 47 48  1  0
 47 22  1  0
 49 47  1  0
 51 53  1  0
 51 50  1  0
 52 63  2  0
 53 58  1  0
 54 62  1  0
 54 64  1  0
 55 61  1  0
 55 57  1  0
 56 62  1  0
 57 56  1  0
 58 57  2  0
 59 60  1  0
 59 53  2  0
 60 55  2  0
 61 54  1  0
 62 52  1  0
 64 66  2  0
 65 64  1  0
 67 65  1  0
 68 77  2  0
 68 73  1  0
 69 65  1  0
 69 73  1  0
 70 69  1  0
 71 72  1  0
 71 70  1  0
 72 68  1  0
 73 74  2  0
 74 75  1  0
 76 75  2  0
 77 76  1  0
 78 52  1  0
 78 83  1  0
 78 79  1  0
 79 82  1  1
 79 80  1  0
 81 79  1  0
 83 86  1  0
 84 88  1  0
 84 83  1  0
 85 84  2  0
 88 87  1  0
 90 88  1  0
 90 91  1  0
 90 89  1  0
M  ISO  4  12 100  20 100  50 101  51 101
M  END
>  <TORSDO>  (47) 
F 20

>  <SCORE>  (47) 
-15.381

>  <name>  (47) 
46

>  <ligand_id>  (47) 
46

>  <original_smiles>  (47) 
[H]c1c([H])c([H])c2c(c1[H])C([H])([H])C([H])([H])C([H])([H])C2([H])N([H])C(=O)C1([H])N(C(=O)C([H])(N([H])C(=O)C([H])(N([H])C([H])([H])[H])C([H])([H])[H])C(C([H])([H])[H])(C([H])([H])[H])C([H])([H])[H])C([H])([H])c2c([H])c(OC([H])([H])C([H])(C([H])([H])N3C([H])([H])C([H])([H])C([H])(N([H])C(=O)N4C([H])([H])C([H])([H])C([H])([H])C([H])(n5nc(-c6c([H])c([H])c(Oc7c([H])c([H])c(F)c([H])c7F)c([H])c6[H])c(C(=O)N([H])[H])c5N([H])[H])C4([H])[H])C3([H])[H])[N+]([H])([H])[H])c([H])c([H])c2C1([H])[H]

>  <smiles>  (47) 
[H]c1c([H])c([H])c2c(c1[H])C([H])([H])C([H])([H])C([H])([H])C2([H])N([H])C(=O)C1([H])N(C(=O)C([H])(N([H])C(=O)C([H])(N([H])C([H])([H])[H])C([H])([H])[H])C(C([H])([H])[H])(C([H])([H])[H])C([H])([H])[H])C([H])([H])c2c([H])c(OC([H])([H])C([H])(C([H])([H])N3C([H])([H])C([H])([H])C([H])(N([H])C(=O)N4C([H])([H])C([H])([H])C([H])([H])C([H])(n5nc(-c6c([H])c([H])c(Oc7c([H])c([H])c(F)c([H])c7F)c([H])c6[H])c(C(=O)N([H])[H])c5N([H])[H])C4([H])[H])C3([H])[H])[N+]([H])([H])[H])c([H])c([H])c2C1([H])[H]

$$$$
47:0:0
     RDKit          3D

 89 98  0  0  1  0  0  0  0  0999 V2000
  -28.6580  -21.6170   22.1890 C   0  0  0  0  0  2  0  0  0  0  0  0
  -30.0870  -21.7990   21.7860 C   0  0  0  0  0  2  0  0  0  0  0  0
  -29.0300  -21.6130   20.7010 C   0  0  1  0  0  0  0  0  0  0  0  0
  -30.6650  -15.3420   19.8880 C   0  0  0  0  0  0  0  0  0  0  0  0
  -30.4680  -12.9540   18.9520 C   0  0  0  0  0  2  0  0  0  0  0  0
  -29.4730  -12.7780   17.7810 C   0  0  0  0  0  2  0  0  0  0  0  0
  -28.0630  -12.4980   18.3240 C   0  0  0  0  0  2  0  0  0  0  0  0
  -27.6840  -13.4450   19.4970 C   0  0  0  0  0  3  0  0  0  0  0  0
  -28.8130  -13.6070   20.5410 C   0  0  0  0  0  2  0  0  0  0  0  0
  -29.9940  -14.0980   19.8140 N   0  0  0  0  0  0  0  0  0  0  0  0
  -31.8680  -15.2500   19.6070 O   0  0  0  0  0  0  0  0  0  0  0  0
  -28.7500  -17.2930   20.4030 C   0  0  0  0  0  2  0  0  0  0  0  0
  -30.9460  -17.9820   19.8420 C   0  0  0  0  0  2  0  0  0  0  0  0
  -28.6290  -18.8550   20.9590 C   0  0  0  0  0  2  0  0  0  0  0  0
  -30.3560  -19.4950   19.4610 C   0  0  0  0  0  2  0  0  0  0  0  0
  -30.0970  -16.7040   19.9950 N   0  0  0  0  0  0  0  0  0  0  0  0
  -29.0970  -20.0640   20.1150 N   0  0  2  0  0  4  0  0  0  0  0  0
  -28.4350  -20.0840   19.3510 H   0  0  0  0  0  0  0  0  0  0  0  0
  -25.3810  -13.9580   20.4630 C   0  0  0  0  0  0  0  0  0  0  0  0
  -24.3520  -13.1630   20.8740 C   0  0  0  0  0  0  0  0  0  0  0  0
  -24.8170  -11.8150   20.7540 C   0  0  0  0  0  0  0  0  0  0  0  0
  -26.4050  -13.1010   20.1030 N   0  0  0  0  0  0  0  0  0  0  0  0
  -26.0820  -11.8030   20.3460 N   0  0  0  0  0  0  0  0  0  0  0  0
  -24.1080  -10.5440   20.9480 C   0  0  0  0  0  0  0  0  0  0  0  0
  -24.5580   -9.5830   21.8810 C   0  0  0  0  0  3  0  0  0  0  0  0
  -23.8450   -8.3790   22.0660 C   0  0  0  0  0  3  0  0  0  0  0  0
  -22.6720   -8.1260   21.3180 C   0  0  0  0  0  0  0  0  0  0  0  0
  -22.2410   -9.0760   20.3750 C   0  0  0  0  0  3  0  0  0  0  0  0
  -22.9530  -10.2710   20.1870 C   0  0  0  0  0  3  0  0  0  0  0  0
  -21.9300   -6.9720   21.4120 O   0  0  0  0  0  0  0  0  0  0  0  0
  -21.8320   -6.2730   22.5880 C   0  0  0  0  0  0  0  0  0  0  0  0
  -21.3020   -6.8580   23.7590 C   0  0  0  0  0  3  0  0  0  0  0  0
  -21.1510   -6.0860   24.9260 C   0  0  0  0  0  3  0  0  0  0  0  0
  -21.5180   -4.7250   24.9250 C   0  0  0  0  0  0  0  0  0  0  0  0
  -22.0380   -4.1390   23.7580 C   0  0  0  0  0  3  0  0  0  0  0  0
  -22.1890   -4.9090   22.5920 C   0  0  0  0  0  0  0  0  0  0  0  0
  -22.6720   -4.3330   21.4640 F   0  0  0  0  0  0  0  0  0  0  0  0
  -21.3650   -3.9810   26.0450 F   0  0  0  0  0  0  0  0  0  0  0  0
  -22.9740  -13.6230   21.2520 C   0  0  0  0  0  0  0  0  0  0  0  0
  -22.3030  -12.8970   22.1370 N   0  0  0  0  0  0  0  0  0  0  0  0
  -22.5040  -14.6670   20.7980 O   0  0  0  0  0  0  0  0  0  0  0  0
  -22.7010  -12.0590   22.5340 H   0  0  0  0  0  0  0  0  0  0  0  0
  -21.3790  -13.1880   22.4280 H   0  0  0  0  0  0  0  0  0  0  0  0
  -25.5230  -15.3390   20.3360 N   0  0  0  0  0  0  0  0  0  0  0  0
  -24.7530  -15.9680   20.5250 H   0  0  0  0  0  0  0  0  0  0  0  0
  -26.3360  -15.8020   19.9550 H   0  0  0  0  0  0  0  0  0  0  0  0
  -28.7210  -23.0710   19.8250 C   0  0  0  0  0  2  0  0  0  0  0  0
  -28.0810  -24.5900   20.4330 C   0  0  0  0  0  2  0  0  0  0  0  0
  -28.3010  -26.1400   20.0680 O   0  0  0  0  0  0  0  0  0  0  0  0
  -24.6390  -31.9050   23.1230 C   0  0  0  0  0  0  0  0  0  0  0  0
  -27.2550  -27.1670   20.0690 C   0  0  0  0  0  0  0  0  0  0  0  0
  -23.4600  -30.5150   21.4650 C   0  0  0  0  0  3  0  0  0  0  0  0
  -24.9280  -28.9600   20.0280 C   0  0  0  0  0  0  0  0  0  0  0  0
  -26.0170  -30.7870   21.3120 C   0  0  0  0  0  2  0  0  0  0  0  0
  -26.1090  -29.3910   20.6510 C   0  0  0  0  0  0  0  0  0  0  0  0
  -27.2730  -28.5160   20.6460 C   0  0  0  0  0  3  0  0  0  0  0  0
  -26.0470  -26.8630   19.4040 C   0  0  0  0  0  3  0  0  0  0  0  0
  -24.9170  -27.7150   19.3840 C   0  0  0  0  0  3  0  0  0  0  0  0
  -23.6960  -29.8580   20.0790 C   0  0  0  0  0  2  0  0  0  0  0  0
  -24.7260  -31.0910   22.0230 N   0  0  0  0  0  0  0  0  0  0  0  0
  -23.5480  -32.1720   23.6510 O   0  0  0  0  0  0  0  0  0  0  0  0
  -22.7880  -29.4910   22.4150 C   0  0  0  0  0  0  0  0  0  0  0  0
  -21.4630  -29.2920   22.2780 N   0  0  0  0  0  0  0  0  0  0  0  0
  -23.4620  -28.8750   23.2450 O   0  0  0  0  0  0  0  0  0  0  0  0
  -20.9700  -29.8420   21.5880 H   0  0  0  0  0  0  0  0  0  0  0  0
  -18.1090  -28.0030   22.7450 C   0  0  0  0  0  0  0  0  0  0  0  0
  -20.6570  -28.3350   23.0410 C   0  0  0  0  0  3  0  0  0  0  0  0
  -20.8040  -26.9050   22.4690 C   0  0  0  0  0  2  0  0  0  0  0  0
  -19.7230  -26.5550   21.4410 C   0  0  0  0  0  2  0  0  0  0  0  0
  -18.3300  -26.6610   22.0690 C   0  0  0  0  0  2  0  0  0  0  0  0
  -19.2000  -28.7940   23.1900 C   0  0  0  0  0  0  0  0  0  0  0  0
  -18.9400  -30.0460   23.7860 C   0  0  0  0  0  3  0  0  0  0  0  0
  -17.6180  -30.5100   23.9370 C   0  0  0  0  0  3  0  0  0  0  0  0
  -16.5400  -29.7170   23.5060 C   0  0  0  0  0  3  0  0  0  0  0  0
  -16.7880  -28.4630   22.9200 C   0  0  0  0  0  3  0  0  0  0  0  0
  -25.9070  -32.5540   23.7580 C   0  0  0  0  0  3  0  0  0  0  0  0
  -25.5750  -33.9450   24.1030 N   0  0  0  0  0  0  0  0  0  0  0  0
  -25.9030  -35.0170   23.3700 C   0  0  0  0  0  0  0  0  0  0  0  0
  -26.5840  -34.9410   22.3450 O   0  0  0  0  0  0  0  0  0  0  0  0
  -24.9690  -34.0800   24.8990 H   0  0  0  0  0  0  0  0  0  0  0  0
  -24.1700  -36.8150   23.0310 C   0  0  0  0  0  1  0  0  0  0  0  0
  -25.3980  -36.3950   23.8530 C   0  0  0  0  0  3  0  0  0  0  0  0
  -27.5050  -37.2800   24.7500 C   0  0  0  0  0  1  0  0  0  0  0  0
  -26.4240  -37.4560   23.7850 N   0  0  0  0  0  0  0  0  0  0  0  0
  -26.0060  -38.3690   23.9440 H   0  0  0  0  0  0  0  0  0  0  0  0
  -26.4270  -31.7830   25.0320 C   0  0  1  0  0  0  0  0  0  0  0  0
  -25.3310  -31.5150   26.0880 C   0  0  0  0  0  1  0  0  0  0  0  0
  -27.0390  -30.4180   24.6400 C   0  0  0  0  0  1  0  0  0  0  0  0
  -27.5460  -32.6010   25.7220 C   0  0  0  0  0  1  0  0  0  0  0  0
  2  1  1  0
  3  2  1  0
  3  1  1  0
  4 16  1  0
  5 10  1  0
  6  7  1  0
  6  5  1  0
  8  7  1  0
  8 22  1  0
  8  9  1  0
 10  4  1  0
 10  9  1  0
 11  4  2  0
 12 14  1  0
 13 16  1  0
 15 13  1  0
 15 17  1  0
 16 12  1  0
 17 18  1  6
 17  3  1  0
 17 14  1  0
 19 20  2  0
 20 39  1  0
 21 20  1  0
 21 24  1  0
 22 23  1  0
 22 19  1  0
 23 21  2  0
 24 25  1  0
 25 26  2  0
 27 30  1  0
 27 26  1  0
 28 27  2  0
 29 28  1  0
 29 24  2  0
 30 31  1  0
 31 36  2  0
 31 32  1  0
 32 33  2  0
 34 33  1  0
 34 38  1  0
 35 34  2  0
 36 35  1  0
 37 36  1  0
 39 40  1  0
 40 43  1  0
 40 42  1  0
 41 39  2  0
 44 19  1  0
 44 45  1  0
 46 44  1  0
 47 48  1  0
  3 47  1  6
 49 51  1  0
 49 48  1  0
 50 61  2  0
 51 56  1  0
 52 60  1  0
 52 62  1  0
 53 59  1  0
 53 55  1  0
 54 60  1  0
 55 54  1  0
 56 55  2  0
 57 51  2  0
 58 57  1  0
 58 53  2  0
 59 52  1  0
 60 50  1  0
 62 64  2  0
 63 62  1  0
 65 63  1  0
 66 75  2  0
 66 71  1  0
 67 63  1  0
 67 71  1  0
 68 67  1  0
 69 70  1  0
 69 68  1  0
 70 66  1  0
 71 72  2  0
 72 73  1  0
 74 73  2  0
 75 74  1  0
 76 50  1  0
 76 77  1  0
 76 86  1  0
 77 80  1  0
 78 82  1  0
 78 77  1  0
 79 78  2  0
 82 81  1  0
 84 82  1  0
 84 85  1  0
 84 83  1  0
 86 89  1  1
 86 87  1  0
 88 86  1  0
M  ISO  4   4 100  16 100  48 101  49 101
M  END
>  <TORSDO>  (48) 
F 18

>  <SCORE>  (48) 
-15.114

>  <name>  (48) 
47

>  <ligand_id>  (48) 
47

>  <original_smiles>  (48) 
[H]c1c([H])c([H])c2c(c1[H])C([H])([H])C([H])([H])C([H])([H])C2([H])N([H])C(=O)C1([H])N(C(=O)C([H])(N([H])C(=O)C([H])(N([H])C([H])([H])[H])C([H])([H])[H])C(C([H])([H])[H])(C([H])([H])[H])C([H])([H])[H])C([H])([H])c2c([H])c(OC([H])([H])C([H])([H])C3([N+]4([H])C([H])([H])C([H])([H])N(C(=O)N5C([H])([H])C([H])([H])C([H])([H])C([H])(n6nc(-c7c([H])c([H])c(Oc8c([H])c([H])c(F)c([H])c8F)c([H])c7[H])c(C(=O)N([H])[H])c6N([H])[H])C5([H])[H])C([H])([H])C4([H])[H])C([H])([H])C3([H])[H])c([H])c([H])c2C1([H])[H]

>  <smiles>  (48) 
[H]c1c([H])c([H])c2c(c1[H])C([H])([H])C([H])([H])C([H])([H])C2([H])N([H])C(=O)C1([H])N(C(=O)C([H])(N([H])C(=O)C([H])(N([H])C([H])([H])[H])C([H])([H])[H])C(C([H])([H])[H])(C([H])([H])[H])C([H])([H])[H])C([H])([H])c2c([H])c(OC([H])([H])C([H])([H])C3([N+]4([H])C([H])([H])C([H])([H])N(C(=O)N5C([H])([H])C([H])([H])C([H])([H])C([H])(n6nc(-c7c([H])c([H])c(Oc8c([H])c([H])c(F)c([H])c8F)c([H])c7[H])c(C(=O)N([H])[H])c6N([H])[H])C5([H])[H])C([H])([H])C4([H])[H])C([H])([H])C3([H])[H])c([H])c([H])c2C1([H])[H]

$$$$
48:0:0
     RDKit          3D

 98107  0  0  1  0  0  0  0  0999 V2000
  -29.5420  -21.8120   20.9080 C   0  0  0  0  0  3  0  0  0  0  0  0
  -29.0490  -20.3500   20.8670 C   0  0  0  0  0  0  0  0  0  0  0  0
  -31.6710  -21.0750   20.4850 C   0  0  0  0  0  0  0  0  0  0  0  0
  -30.7760  -22.1210   20.7280 N   0  0  0  0  0  0  0  0  0  0  0  0
  -31.3920  -19.8080   20.3820 N   0  0  0  0  0  2  0  0  0  0  0  0
  -30.0530  -19.4600   20.5620 N   0  0  0  0  0  0  0  0  0  0  0  0
  -32.9870  -21.4040   20.3460 N   0  0  0  0  0  0  0  0  0  0  0  0
  -27.8720  -20.0410   21.0910 O   0  0  0  0  0  0  0  0  0  0  0  0
  -33.3620  -22.3430   20.4230 H   0  0  0  0  0  0  0  0  0  0  0  0
  -33.7270  -20.7160   20.2810 H   0  0  0  0  0  0  0  0  0  0  0  0
  -28.0380  -24.5810   22.2880 C   0  0  0  0  0  2  0  0  0  0  0  0
  -28.4930  -22.9100   21.1930 C   0  0  0  0  0  3  0  0  0  0  0  0
  -28.8310  -24.4270   20.9850 C   0  0  0  0  0  3  0  0  0  0  0  0
  -28.4090  -23.2140   22.6170 N   0  0  0  0  0  4  0  0  0  0  0  0
  -27.7110  -22.7060   23.1350 H   0  0  0  0  0  0  0  0  0  0  0  0
  -29.3210  -23.1670   23.0430 H   0  0  0  0  0  0  0  0  0  0  0  0
  -28.3520  -25.1830   19.7170 C   0  0  0  0  0  2  0  0  0  0  0  0
  -28.5310  -26.6350   19.7070 O   0  0  0  0  0  0  0  0  0  0  0  0
  -24.6680  -31.6310   22.9730 C   0  0  0  0  0  0  0  0  0  0  0  0
  -27.3840  -27.4170   19.6360 C   0  0  0  0  0  0  0  0  0  0  0  0
  -23.4770  -30.2870   21.2710 C   0  0  0  0  0  3  0  0  0  0  0  0
  -24.9550  -28.8920   19.7200 C   0  0  0  0  0  0  0  0  0  0  0  0
  -25.9890  -30.7280   21.0590 C   0  0  0  0  0  2  0  0  0  0  0  0
  -26.1020  -29.3960   20.3420 C   0  0  0  0  0  0  0  0  0  0  0  0
  -27.3150  -28.6620   20.3120 C   0  0  0  0  0  3  0  0  0  0  0  0
  -26.2260  -26.9750   18.9430 C   0  0  0  0  0  3  0  0  0  0  0  0
  -25.0130  -27.6800   19.0120 C   0  0  0  0  0  3  0  0  0  0  0  0
  -23.6810  -29.6980   19.8480 C   0  0  0  0  0  2  0  0  0  0  0  0
  -24.7290  -30.8970   21.8250 N   0  0  0  0  0  0  0  0  0  0  0  0
  -23.5860  -31.8440   23.5390 O   0  0  0  0  0  0  0  0  0  0  0  0
  -22.8790  -29.1890   22.1840 C   0  0  0  0  0  0  0  0  0  0  0  0
  -21.5580  -28.9750   22.0770 N   0  0  0  0  0  0  0  0  0  0  0  0
  -23.6020  -28.5390   22.9420 O   0  0  0  0  0  0  0  0  0  0  0  0
  -21.0260  -29.5630   21.4480 H   0  0  0  0  0  0  0  0  0  0  0  0
  -18.2280  -27.6840   22.6330 C   0  0  0  0  0  0  0  0  0  0  0  0
  -20.7910  -27.9640   22.8060 C   0  0  0  0  0  3  0  0  0  0  0  0
  -20.8880  -26.5830   22.1230 C   0  0  0  0  0  2  0  0  0  0  0  0
  -19.7470  -26.3190   21.1340 C   0  0  0  0  0  2  0  0  0  0  0  0
  -18.3940  -26.3930   21.8470 C   0  0  0  0  0  2  0  0  0  0  0  0
  -19.3560  -28.4310   23.0700 C   0  0  0  0  0  0  0  0  0  0  0  0
  -19.1510  -29.6420   23.7640 C   0  0  0  0  0  3  0  0  0  0  0  0
  -17.8520  -30.1090   24.0260 C   0  0  0  0  0  3  0  0  0  0  0  0
  -16.7370  -29.3620   23.6060 C   0  0  0  0  0  3  0  0  0  0  0  0
  -16.9280  -28.1510   22.9170 C   0  0  0  0  0  3  0  0  0  0  0  0
  -25.9440  -32.2630   23.6060 C   0  0  0  0  0  3  0  0  0  0  0  0
  -26.5070  -31.4410   24.8310 C   0  0  1  0  0  0  0  0  0  0  0  0
  -25.4410  -31.1170   25.9010 C   0  0  0  0  0  1  0  0  0  0  0  0
  -27.1330  -30.1040   24.3680 C   0  0  0  0  0  1  0  0  0  0  0  0
  -27.6390  -32.2410   25.5170 C   0  0  0  0  0  1  0  0  0  0  0  0
  -25.5930  -33.6300   24.0170 N   0  0  0  0  0  0  0  0  0  0  0  0
  -25.8900  -34.7370   23.3240 C   0  0  0  0  0  0  0  0  0  0  0  0
  -26.5660  -34.7140   22.2930 O   0  0  0  0  0  0  0  0  0  0  0  0
  -24.9920  -33.7180   24.8240 H   0  0  0  0  0  0  0  0  0  0  0  0
  -24.1110  -36.5010   23.0710 C   0  0  0  0  0  1  0  0  0  0  0  0
  -25.3600  -36.0790   23.8630 C   0  0  0  0  0  3  0  0  0  0  0  0
  -27.4560  -36.9850   24.7680 C   0  0  0  0  0  1  0  0  0  0  0  0
  -26.3610  -37.1660   23.8180 N   0  0  0  0  0  0  0  0  0  0  0  0
  -25.9230  -38.0640   24.0110 H   0  0  0  0  0  0  0  0  0  0  0  0
  -29.7720  -18.0200   20.3040 C   0  0  0  0  0  2  0  0  0  0  0  0
  -30.7360  -17.0030   21.0010 C   0  0  0  0  0  2  0  0  0  0  0  0
  -30.9930  -14.6170   20.1500 C   0  0  0  0  0  0  0  0  0  0  0  0
  -30.6510  -12.4650   18.9770 C   0  0  0  0  0  2  0  0  0  0  0  0
  -29.6640  -12.6800   17.8120 C   0  0  0  0  0  2  0  0  0  0  0  0
  -28.2050  -12.5490   18.2930 C   0  0  0  0  0  2  0  0  0  0  0  0
  -27.9250  -13.3810   19.5700 C   0  0  0  0  0  3  0  0  0  0  0  0
  -29.0120  -13.1370   20.6410 C   0  0  0  0  0  2  0  0  0  0  0  0
  -30.3200  -13.4390   20.0310 N   0  0  0  0  0  0  0  0  0  0  0  0
  -32.0780  -14.8230   19.5970 O   0  0  0  0  0  0  0  0  0  0  0  0
  -30.3380  -15.5900   20.8190 N   0  0  0  0  0  0  0  0  0  0  0  0
  -29.4640  -15.3160   21.2420 H   0  0  0  0  0  0  0  0  0  0  0  0
  -25.5660  -14.0270   20.3660 C   0  0  0  0  0  0  0  0  0  0  0  0
  -24.5000  -13.2690   20.7690 C   0  0  0  0  0  0  0  0  0  0  0  0
  -24.9340  -11.9110   20.7070 C   0  0  0  0  0  0  0  0  0  0  0  0
  -26.5850  -13.1280   20.0910 N   0  0  0  0  0  0  0  0  0  0  0  0
  -26.2090  -11.8510   20.3490 N   0  0  0  0  0  0  0  0  0  0  0  0
  -24.1920  -10.6610   20.9090 C   0  0  0  0  0  0  0  0  0  0  0  0
  -24.6060   -9.7020   21.8600 C   0  0  0  0  0  3  0  0  0  0  0  0
  -23.8660   -8.5150   22.0490 C   0  0  0  0  0  3  0  0  0  0  0  0
  -22.6970   -8.2800   21.2860 C   0  0  0  0  0  0  0  0  0  0  0  0
  -22.3030   -9.2260   20.3230 C   0  0  0  0  0  3  0  0  0  0  0  0
  -23.0440  -10.4040   20.1330 C   0  0  0  0  0  3  0  0  0  0  0  0
  -21.9260   -7.1460   21.3860 O   0  0  0  0  0  0  0  0  0  0  0  0
  -21.8210   -6.4480   22.5620 C   0  0  0  0  0  0  0  0  0  0  0  0
  -21.3170   -7.0430   23.7390 C   0  0  0  0  0  3  0  0  0  0  0  0
  -21.1590   -6.2690   24.9060 C   0  0  0  0  0  3  0  0  0  0  0  0
  -21.4950   -4.9020   24.8970 C   0  0  0  0  0  0  0  0  0  0  0  0
  -21.9920   -4.3080   23.7250 C   0  0  0  0  0  3  0  0  0  0  0  0
  -22.1510   -5.0780   22.5590 C   0  0  0  0  0  0  0  0  0  0  0  0
  -22.6100   -4.4930   21.4270 F   0  0  0  0  0  0  0  0  0  0  0  0
  -21.3380   -4.1580   26.0160 F   0  0  0  0  0  0  0  0  0  0  0  0
  -23.1240  -13.7710   21.1030 C   0  0  0  0  0  0  0  0  0  0  0  0
  -22.4240  -13.0790   21.9960 N   0  0  0  0  0  0  0  0  0  0  0  0
  -22.6830  -14.8080   20.6100 O   0  0  0  0  0  0  0  0  0  0  0  0
  -22.7950  -12.2380   22.4150 H   0  0  0  0  0  0  0  0  0  0  0  0
  -21.5010  -13.3900   22.2630 H   0  0  0  0  0  0  0  0  0  0  0  0
  -25.7540  -15.3970   20.1920 N   0  0  0  0  0  0  0  0  0  0  0  0
  -25.0020  -16.0660   20.3170 H   0  0  0  0  0  0  0  0  0  0  0  0
  -26.5940  -15.8160   19.8180 H   0  0  0  0  0  0  0  0  0  0  0  0
  1  4  1  0
  2  1  1  0
  2  8  2  0
  3  4  2  0
  5  3  1  0
  5  6  1  0
  6  2  1  0
  7  9  1  0
  7  3  1  0
 10  7  1  0
 11 14  1  0
 12  1  1  0
 12 14  1  0
 13 17  1  0
 13 12  1  0
 13 11  1  0
 14 16  1  0
 14 15  1  0
 18 17  1  0
 19 30  2  0
 20 18  1  0
 20 25  1  0
 21 29  1  0
 21 31  1  0
 22 28  1  0
 22 24  1  0
 23 29  1  0
 24 23  1  0
 25 24  2  0
 26 27  1  0
 26 20  2  0
 27 22  2  0
 28 21  1  0
 29 19  1  0
 31 33  2  0
 32 31  1  0
 34 32  1  0
 35 44  2  0
 35 40  1  0
 36 32  1  0
 36 40  1  0
 37 36  1  0
 38 39  1  0
 38 37  1  0
 39 35  1  0
 40 41  2  0
 41 42  1  0
 43 42  2  0
 44 43  1  0
 45 19  1  0
 45 50  1  0
 45 46  1  0
 46 49  1  1
 46 47  1  0
 48 46  1  0
 50 53  1  0
 51 55  1  0
 51 50  1  0
 52 51  2  0
 55 54  1  0
 57 55  1  0
 57 58  1  0
 57 56  1  0
 59  6  1  0
 59 60  1  0
 61 69  1  0
 62 67  1  0
 63 64  1  0
 63 62  1  0
 65 64  1  0
 65 74  1  0
 65 66  1  0
 67 61  1  0
 67 66  1  0
 68 61  2  0
 69 60  1  0
 69 70  1  0
 71 72  2  0
 72 91  1  0
 73 72  1  0
 73 76  1  0
 74 75  1  0
 74 71  1  0
 75 73  2  0
 76 77  1  0
 77 78  2  0
 79 82  1  0
 79 78  1  0
 80 79  2  0
 81 80  1  0
 81 76  2  0
 82 83  1  0
 83 84  1  0
 84 85  2  0
 86 85  1  0
 86 90  1  0
 87 86  2  0
 88 83  2  0
 88 87  1  0
 89 88  1  0
 91 92  1  0
 92 95  1  0
 92 94  1  0
 93 91  2  0
 96 97  1  0
 96 71  1  0
 98 96  1  0
M  ISO  4  17 101  18 101  61 100  69 100
M  END
>  <TORSDO>  (49) 
F 20

>  <SCORE>  (49) 
-12.910

>  <name>  (49) 
48

>  <ligand_id>  (49) 
48

>  <original_smiles>  (49) 
[H]c1c([H])c([H])c2c(c1[H])C([H])([H])C([H])([H])C([H])([H])C2([H])N([H])C(=O)C1([H])N(C(=O)C([H])(N([H])C(=O)C([H])(N([H])C([H])([H])[H])C([H])([H])[H])C(C([H])([H])[H])(C([H])([H])[H])C([H])([H])[H])C([H])([H])c2c([H])c(OC([H])([H])C3([H])C([H])([H])[N+]([H])([H])C3([H])c3nc(N([H])[H])nn(C([H])([H])C([H])([H])N([H])C(=O)N4C([H])([H])C([H])([H])C([H])([H])C([H])(n5nc(-c6c([H])c([H])c(Oc7c([H])c([H])c(F)c([H])c7F)c([H])c6[H])c(C(=O)N([H])[H])c5N([H])[H])C4([H])[H])c3=O)c([H])c([H])c2C1([H])[H]

>  <smiles>  (49) 
[H]c1c([H])c([H])c2c(c1[H])C([H])([H])C([H])([H])C([H])([H])C2([H])N([H])C(=O)C1([H])N(C(=O)C([H])(N([H])C(=O)C([H])(N([H])C([H])([H])[H])C([H])([H])[H])C(C([H])([H])[H])(C([H])([H])[H])C([H])([H])[H])C([H])([H])c2c([H])c(OC([H])([H])C3([H])C([H])([H])[N+]([H])([H])C3([H])c3nc(N([H])[H])nn(C([H])([H])C([H])([H])N([H])C(=O)N4C([H])([H])C([H])([H])C([H])([H])C([H])(n5nc(-c6c([H])c([H])c(Oc7c([H])c([H])c(F)c([H])c7F)c([H])c6[H])c(C(=O)N([H])[H])c5N([H])[H])C4([H])[H])c3=O)c([H])c([H])c2C1([H])[H]

$$$$
49:0:0
     RDKit          3D

 90 99  0  0  1  0  0  0  0  0999 V2000
  -30.6710  -14.8660   20.4360 C   0  0  0  0  0  0  0  0  0  0  0  0
  -30.3720  -12.5730   19.4570 C   0  0  0  0  0  2  0  0  0  0  0  0
  -29.4720  -12.5650   18.2050 C   0  0  0  0  0  2  0  0  0  0  0  0
  -28.0050  -12.3680   18.6220 C   0  0  0  0  0  2  0  0  0  0  0  0
  -27.5930  -13.3100   19.7800 C   0  0  0  0  0  3  0  0  0  0  0  0
  -28.6320  -13.3520   20.9250 C   0  0  0  0  0  2  0  0  0  0  0  0
  -29.9240  -13.7000   20.3250 N   0  0  0  0  0  0  0  0  0  0  0  0
  -31.8770  -14.7630   20.1930 O   0  0  0  0  0  0  0  0  0  0  0  0
  -27.7950  -22.5300   19.6950 C   0  0  0  0  0  3  0  0  0  0  0  0
  -29.8490  -23.0110   20.6700 C   0  0  0  0  0  3  0  0  0  0  0  0
  -28.6940  -23.5710   20.0620 C   0  0  0  0  0  0  0  0  0  0  0  0
  -29.1570  -20.7650   20.4320 C   0  0  0  0  0  0  0  0  0  0  0  0
  -30.6300  -18.7450   21.1660 C   0  0  0  0  0  3  0  0  0  0  0  0
  -28.5310  -18.2330   20.0830 C   0  0  0  0  0  3  0  0  0  0  0  0
  -31.1090  -17.3500   20.5700 C   0  0  0  0  0  3  0  0  0  0  0  0
  -28.7750  -16.7510   20.6730 C   0  0  0  0  0  3  0  0  0  0  0  0
  -28.0200  -21.1830   19.8730 N   0  0  0  0  0  0  0  0  0  0  0  0
  -30.0650  -21.6590   20.8510 N   0  0  0  0  0  0  0  0  0  0  0  0
  -29.4220  -19.3300   20.5520 N   0  0  0  0  0  0  0  0  0  0  0  0
  -30.1580  -16.1840   20.5940 N   0  0  0  0  0  0  0  0  0  0  0  0
  -25.2060  -13.9180   20.4760 C   0  0  0  0  0  0  0  0  0  0  0  0
  -24.1320  -13.1520   20.8360 C   0  0  0  0  0  0  0  0  0  0  0  0
  -24.5920  -11.8010   20.8330 C   0  0  0  0  0  0  0  0  0  0  0  0
  -26.2480  -13.0310   20.2670 N   0  0  0  0  0  0  0  0  0  0  0  0
  -25.8890  -11.7550   20.5530 N   0  0  0  0  0  0  0  0  0  0  0  0
  -23.8590  -10.5430   21.0230 C   0  0  0  0  0  0  0  0  0  0  0  0
  -24.2780   -9.5780   21.9650 C   0  0  0  0  0  3  0  0  0  0  0  0
  -23.5440   -8.3860   22.1420 C   0  0  0  0  0  3  0  0  0  0  0  0
  -22.3780   -8.1510   21.3780 C   0  0  0  0  0  0  0  0  0  0  0  0
  -21.9780   -9.1040   20.4240 C   0  0  0  0  0  3  0  0  0  0  0  0
  -22.7120  -10.2880   20.2450 C   0  0  0  0  0  3  0  0  0  0  0  0
  -21.6150   -7.0110   21.4640 O   0  0  0  0  0  0  0  0  0  0  0  0
  -21.5600   -6.2690   22.6170 C   0  0  0  0  0  0  0  0  0  0  0  0
  -21.1470   -6.8300   23.8450 C   0  0  0  0  0  3  0  0  0  0  0  0
  -21.0380   -6.0150   24.9890 C   0  0  0  0  0  3  0  0  0  0  0  0
  -21.3320   -4.6410   24.9070 C   0  0  0  0  0  0  0  0  0  0  0  0
  -21.7380   -4.0800   23.6830 C   0  0  0  0  0  3  0  0  0  0  0  0
  -21.8490   -4.8920   22.5410 C   0  0  0  0  0  0  0  0  0  0  0  0
  -22.2210   -4.3420   21.3590 F   0  0  0  0  0  0  0  0  0  0  0  0
  -21.2200   -3.8560   26.0040 F   0  0  0  0  0  0  0  0  0  0  0  0
  -22.7310  -13.6390   21.0650 C   0  0  0  0  0  0  0  0  0  0  0  0
  -21.9820  -12.9600   21.9270 N   0  0  0  0  0  0  0  0  0  0  0  0
  -22.3080  -14.6550   20.5160 O   0  0  0  0  0  0  0  0  0  0  0  0
  -22.3370  -12.1380   22.3930 H   0  0  0  0  0  0  0  0  0  0  0  0
  -21.0410  -13.2680   22.1250 H   0  0  0  0  0  0  0  0  0  0  0  0
  -25.3740  -15.2850   20.2790 N   0  0  0  0  0  0  0  0  0  0  0  0
  -24.6020  -15.9370   20.3620 H   0  0  0  0  0  0  0  0  0  0  0  0
  -26.2200  -15.7150   19.9330 H   0  0  0  0  0  0  0  0  0  0  0  0
  -28.5370  -25.0840   19.5070 C   0  0  0  0  0  2  0  0  0  0  0  0
  -28.4050  -26.3600   20.3140 O   0  0  0  0  0  0  0  0  0  0  0  0
  -24.6690  -31.8840   23.2460 C   0  0  0  0  0  0  0  0  0  0  0  0
  -27.3080  -27.2640   20.2040 C   0  0  0  0  0  0  0  0  0  0  0  0
  -23.4830  -30.4780   21.6030 C   0  0  0  0  0  3  0  0  0  0  0  0
  -24.9480  -28.9310   20.1780 C   0  0  0  0  0  0  0  0  0  0  0  0
  -26.0280  -30.7880   21.4390 C   0  0  0  0  0  2  0  0  0  0  0  0
  -26.1160  -29.4050   20.7870 C   0  0  0  0  0  0  0  0  0  0  0  0
  -27.2940  -28.5820   20.7910 C   0  0  0  0  0  3  0  0  0  0  0  0
  -26.1050  -26.8660   19.5770 C   0  0  0  0  0  3  0  0  0  0  0  0
  -24.9500  -27.6720   19.5630 C   0  0  0  0  0  3  0  0  0  0  0  0
  -23.7100  -29.8070   20.2230 C   0  0  0  0  0  2  0  0  0  0  0  0
  -24.7460  -31.0700   22.1510 N   0  0  0  0  0  0  0  0  0  0  0  0
  -23.5800  -32.1570   23.7730 O   0  0  0  0  0  0  0  0  0  0  0  0
  -22.8180  -29.4600   22.5610 C   0  0  0  0  0  0  0  0  0  0  0  0
  -21.4900  -29.2860   22.4380 N   0  0  0  0  0  0  0  0  0  0  0  0
  -23.4960  -28.8310   23.3770 O   0  0  0  0  0  0  0  0  0  0  0  0
  -21.0000  -29.8450   21.7530 H   0  0  0  0  0  0  0  0  0  0  0  0
  -18.1130  -28.0850   22.9450 C   0  0  0  0  0  0  0  0  0  0  0  0
  -20.6720  -28.3450   23.2080 C   0  0  0  0  0  3  0  0  0  0  0  0
  -20.7720  -26.9150   22.6270 C   0  0  0  0  0  2  0  0  0  0  0  0
  -19.6670  -26.5960   21.6140 C   0  0  0  0  0  2  0  0  0  0  0  0
  -18.2870  -26.7380   22.2630 C   0  0  0  0  0  2  0  0  0  0  0  0
  -19.2320  -28.8460   23.3740 C   0  0  0  0  0  0  0  0  0  0  0  0
  -19.0140  -30.1050   23.9730 C   0  0  0  0  0  3  0  0  0  0  0  0
  -17.7090  -30.6050   24.1470 C   0  0  0  0  0  3  0  0  0  0  0  0
  -16.6040  -29.8400   23.7330 C   0  0  0  0  0  3  0  0  0  0  0  0
  -16.8060  -28.5820   23.1380 C   0  0  0  0  0  3  0  0  0  0  0  0
  -25.9410  -32.5280   23.8760 C   0  0  0  0  0  3  0  0  0  0  0  0
  -25.6180  -33.9240   24.2060 N   0  0  0  0  0  0  0  0  0  0  0  0
  -25.9320  -34.9810   23.4450 C   0  0  0  0  0  0  0  0  0  0  0  0
  -26.5910  -34.8840   22.4060 O   0  0  0  0  0  0  0  0  0  0  0  0
  -25.0300  -34.0720   25.0130 H   0  0  0  0  0  0  0  0  0  0  0  0
  -24.1750  -36.7530   23.1170 C   0  0  0  0  0  1  0  0  0  0  0  0
  -25.4350  -36.3660   23.9070 C   0  0  0  0  0  3  0  0  0  0  0  0
  -27.5740  -37.2780   24.6980 C   0  0  0  0  0  1  0  0  0  0  0  0
  -26.4520  -37.4310   23.7740 N   0  0  0  0  0  0  0  0  0  0  0  0
  -26.0380  -38.3460   23.9250 H   0  0  0  0  0  0  0  0  0  0  0  0
  -26.4550  -31.7620   25.1570 C   0  0  1  0  0  0  0  0  0  0  0  0
  -25.3580  -31.5220   26.2200 C   0  0  0  0  0  1  0  0  0  0  0  0
  -27.0470  -30.3860   24.7740 C   0  0  0  0  0  1  0  0  0  0  0  0
  -27.5980  -32.5640   25.8220 C   0  0  0  0  0  1  0  0  0  0  0  0
  1 20  1  0
  2  7  1  0
  3  4  1  0
  3  2  1  0
  5  4  1  0
  5 24  1  0
  5  6  1  0
  7  1  1  0
  7  6  1  0
  8  1  2  0
  9 17  1  0
  9 11  2  0
 10 18  2  0
 11 10  1  0
 12 19  1  0
 12 18  1  0
 14 19  1  0
 14 16  2  0
 15 20  1  0
 15 13  2  0
 17 12  2  0
 19 13  1  0
 20 16  1  0
 21 22  2  0
 22 41  1  0
 23 22  1  0
 23 26  1  0
 24 21  1  0
 24 25  1  0
 25 23  2  0
 26 27  1  0
 27 28  2  0
 29 32  1  0
 29 28  1  0
 30 29  2  0
 31 30  1  0
 31 26  2  0
 32 33  1  0
 33 34  1  0
 34 35  2  0
 36 35  1  0
 36 40  1  0
 37 36  2  0
 38 33  2  0
 38 37  1  0
 39 38  1  0
 41 42  1  0
 42 45  1  0
 42 44  1  0
 43 41  2  0
 46 47  1  0
 46 21  1  0
 48 46  1  0
 49 11  1  0
 49 50  1  0
 51 62  2  0
 52 50  1  0
 52 57  1  0
 53 61  1  0
 53 63  1  0
 54 60  1  0
 54 56  1  0
 55 61  1  0
 56 57  2  0
 56 55  1  0
 58 52  2  0
 59 58  1  0
 59 54  2  0
 60 53  1  0
 61 51  1  0
 63 65  2  0
 64 63  1  0
 66 64  1  0
 67 76  2  0
 67 72  1  0
 68 64  1  0
 68 72  1  0
 69 68  1  0
 70 71  1  0
 70 69  1  0
 71 67  1  0
 72 73  2  0
 73 74  1  0
 75 74  2  0
 76 75  1  0
 77 51  1  0
 77 78  1  0
 77 87  1  0
 78 81  1  0
 79 83  1  0
 79 78  1  0
 80 79  2  0
 83 82  1  0
 85 83  1  0
 85 86  1  0
 85 84  1  0
 87 90  1  1
 87 88  1  0
 89 87  1  0
M  ISO  4   1 100  20 100  49 101  50 101
M  END
>  <TORSDO>  (50) 
F 16

>  <SCORE>  (50) 
-15.737

>  <name>  (50) 
49

>  <ligand_id>  (50) 
49

>  <original_smiles>  (50) 
[H]c1nc(N2C([H])([H])C([H])([H])N(C(=O)N3C([H])([H])C([H])([H])C([H])([H])C([H])(n4nc(-c5c([H])c([H])c(Oc6c([H])c([H])c(F)c([H])c6F)c([H])c5[H])c(C(=O)N([H])[H])c4N([H])[H])C3([H])[H])C([H])([H])C2([H])[H])nc([H])c1C([H])([H])Oc1c([H])c([H])c2c(c1[H])C([H])([H])N(C(=O)C([H])(N([H])C(=O)C([H])(N([H])C([H])([H])[H])C([H])([H])[H])C(C([H])([H])[H])(C([H])([H])[H])C([H])([H])[H])C([H])(C(=O)N([H])C1([H])c3c([H])c([H])c([H])c([H])c3C([H])([H])C([H])([H])C1([H])[H])C2([H])[H]

>  <smiles>  (50) 
[H]c1nc(N2C([H])([H])C([H])([H])N(C(=O)N3C([H])([H])C([H])([H])C([H])([H])C([H])(n4nc(-c5c([H])c([H])c(Oc6c([H])c([H])c(F)c([H])c6F)c([H])c5[H])c(C(=O)N([H])[H])c4N([H])[H])C3([H])[H])C([H])([H])C2([H])[H])nc([H])c1C([H])([H])Oc1c([H])c([H])c2c(c1[H])C([H])([H])N(C(=O)C([H])(N([H])C(=O)C([H])(N([H])C([H])([H])[H])C([H])([H])[H])C(C([H])([H])[H])(C([H])([H])[H])C([H])([H])[H])C([H])(C(=O)N([H])C1([H])c3c([H])c([H])c([H])c([H])c3C([H])([H])C([H])([H])C1([H])[H])C2([H])[H]

$$$$
51:0:0
     RDKit          3D

 93102  0  0  1  0  0  0  0  0999 V2000
  -28.2480  -22.2460   19.0780 C   0  0  0  0  0  3  0  0  0  0  0  0
  -29.1170  -21.1920   19.1740 C   0  0  0  0  0  0  0  0  0  0  0  0
  -30.4190  -21.6930   19.0810 N   0  0  0  0  0  0  0  0  0  0  0  0
  -30.3760  -22.9820   18.9310 N   0  0  0  0  0  0  0  0  0  0  0  0
  -29.0700  -23.3450   18.9300 N   0  0  0  0  0  0  0  0  0  0  0  0
  -28.8260  -19.7280   19.3860 C   0  0  0  0  0  2  0  0  0  0  0  0
  -29.7720  -19.1340   20.3520 N   0  0  0  0  0  4  0  0  0  0  0  0
  -30.6930  -19.1940   19.9550 H   0  0  0  0  0  0  0  0  0  0  0  0
  -29.7570  -19.7340   21.1590 H   0  0  0  0  0  0  0  0  0  0  0  0
  -30.1760  -17.3960   22.0480 C   0  0  0  0  0  2  0  0  0  0  0  0
  -30.5920  -16.7220   20.7550 C   0  0  0  0  0  3  0  0  0  0  0  0
  -29.4520  -17.7450   20.7720 C   0  0  0  0  0  3  0  0  0  0  0  0
  -30.9760  -14.3510   20.0980 C   0  0  0  0  0  0  0  0  0  0  0  0
  -30.6090  -12.2070   18.9360 C   0  0  0  0  0  2  0  0  0  0  0  0
  -29.6290  -12.4570   17.7710 C   0  0  0  0  0  2  0  0  0  0  0  0
  -28.1630  -12.3630   18.2440 C   0  0  0  0  0  2  0  0  0  0  0  0
  -27.8990  -13.1980   19.5250 C   0  0  0  0  0  3  0  0  0  0  0  0
  -28.9780  -12.9070   20.5920 C   0  0  0  0  0  2  0  0  0  0  0  0
  -30.2950  -13.1800   19.9910 N   0  0  0  0  0  0  0  0  0  0  0  0
  -32.0630  -14.5630   19.5550 O   0  0  0  0  0  0  0  0  0  0  0  0
  -30.2880  -15.3230   20.7160 N   0  0  0  0  0  0  0  0  0  0  0  0
  -29.4180  -15.0310   21.1330 H   0  0  0  0  0  0  0  0  0  0  0  0
  -25.5460  -13.8990   20.3070 C   0  0  0  0  0  0  0  0  0  0  0  0
  -24.4610  -13.1680   20.7100 C   0  0  0  0  0  0  0  0  0  0  0  0
  -24.8700  -11.8010   20.6630 C   0  0  0  0  0  0  0  0  0  0  0  0
  -26.5490  -12.9790   20.0430 N   0  0  0  0  0  0  0  0  0  0  0  0
  -26.1460  -11.7120   20.3100 N   0  0  0  0  0  0  0  0  0  0  0  0
  -24.1040  -10.5660   20.8750 C   0  0  0  0  0  0  0  0  0  0  0  0
  -24.5010   -9.6040   21.8290 C   0  0  0  0  0  3  0  0  0  0  0  0
  -23.7380   -8.4340   22.0280 C   0  0  0  0  0  3  0  0  0  0  0  0
  -22.5640   -8.2170   21.2700 C   0  0  0  0  0  0  0  0  0  0  0  0
  -22.1850   -9.1640   20.3030 C   0  0  0  0  0  3  0  0  0  0  0  0
  -22.9490  -10.3270   20.1030 C   0  0  0  0  0  3  0  0  0  0  0  0
  -21.7750   -7.0960   21.3740 O   0  0  0  0  0  0  0  0  0  0  0  0
  -21.6540   -6.4070   22.5540 C   0  0  0  0  0  0  0  0  0  0  0  0
  -21.1890   -7.0260   23.7350 C   0  0  0  0  0  3  0  0  0  0  0  0
  -21.0180   -6.2640   24.9070 C   0  0  0  0  0  3  0  0  0  0  0  0
  -21.3000   -4.8860   24.9000 C   0  0  0  0  0  0  0  0  0  0  0  0
  -21.7590   -4.2660   23.7240 C   0  0  0  0  0  3  0  0  0  0  0  0
  -21.9330   -5.0250   22.5530 C   0  0  0  0  0  0  0  0  0  0  0  0
  -22.3550   -4.4200   21.4170 F   0  0  0  0  0  0  0  0  0  0  0  0
  -21.1260   -4.1530   26.0250 F   0  0  0  0  0  0  0  0  0  0  0  0
  -23.0930  -13.6990   21.0280 C   0  0  0  0  0  0  0  0  0  0  0  0
  -22.3700  -13.0330   21.9210 N   0  0  0  0  0  0  0  0  0  0  0  0
  -22.6740  -14.7380   20.5180 O   0  0  0  0  0  0  0  0  0  0  0  0
  -22.7250  -12.1970   22.3630 H   0  0  0  0  0  0  0  0  0  0  0  0
  -21.4500  -13.3670   22.1710 H   0  0  0  0  0  0  0  0  0  0  0  0
  -25.7570  -15.2620   20.1250 N   0  0  0  0  0  0  0  0  0  0  0  0
  -25.0180  -15.9440   20.2540 H   0  0  0  0  0  0  0  0  0  0  0  0
  -26.5970  -15.6610   19.7300 H   0  0  0  0  0  0  0  0  0  0  0  0
  -28.7130  -24.7510   18.8260 C   0  0  0  0  0  2  0  0  0  0  0  0
  -28.4140  -25.3450   20.2090 C   0  0  0  0  0  2  0  0  0  0  0  0
  -28.4240  -26.7690   20.1730 O   0  0  0  0  0  0  0  0  0  0  0  0
  -24.5660  -31.8630   23.2260 C   0  0  0  0  0  0  0  0  0  0  0  0
  -27.2200  -27.4320   20.1680 C   0  0  0  0  0  0  0  0  0  0  0  0
  -23.3600  -30.4550   21.5850 C   0  0  0  0  0  3  0  0  0  0  0  0
  -24.8120  -28.9110   20.1710 C   0  0  0  0  0  0  0  0  0  0  0  0
  -25.8810  -30.8180   21.3890 C   0  0  0  0  0  2  0  0  0  0  0  0
  -25.9650  -29.4480   20.7560 C   0  0  0  0  0  0  0  0  0  0  0  0
  -27.1710  -28.7160   20.7480 C   0  0  0  0  0  3  0  0  0  0  0  0
  -26.0480  -26.8960   19.5880 C   0  0  0  0  0  3  0  0  0  0  0  0
  -24.8460  -27.6330   19.5860 C   0  0  0  0  0  3  0  0  0  0  0  0
  -23.5680  -29.7700   20.2090 C   0  0  0  0  0  2  0  0  0  0  0  0
  -24.6200  -31.0610   22.1260 N   0  0  0  0  0  0  0  0  0  0  0  0
  -23.4850  -32.1420   23.7630 O   0  0  0  0  0  0  0  0  0  0  0  0
  -22.7050  -29.4410   22.5470 C   0  0  0  0  0  0  0  0  0  0  0  0
  -21.3800  -29.2620   22.4150 N   0  0  0  0  0  0  0  0  0  0  0  0
  -23.3840  -28.8180   23.3680 O   0  0  0  0  0  0  0  0  0  0  0  0
  -20.8970  -29.8160   21.7220 H   0  0  0  0  0  0  0  0  0  0  0  0
  -18.0030  -28.0770   22.8960 C   0  0  0  0  0  0  0  0  0  0  0  0
  -20.5580  -28.3310   23.1860 C   0  0  0  0  0  3  0  0  0  0  0  0
  -20.6640  -26.8970   22.6190 C   0  0  0  0  0  2  0  0  0  0  0  0
  -19.5680  -26.5680   21.5990 C   0  0  0  0  0  2  0  0  0  0  0  0
  -18.1820  -26.7220   22.2320 C   0  0  0  0  0  2  0  0  0  0  0  0
  -19.1200  -28.8390   23.3290 C   0  0  0  0  0  0  0  0  0  0  0  0
  -18.9010  -30.1070   23.9090 C   0  0  0  0  0  3  0  0  0  0  0  0
  -17.5970  -30.6150   24.0600 C   0  0  0  0  0  3  0  0  0  0  0  0
  -16.4940  -29.8480   23.6470 C   0  0  0  0  0  3  0  0  0  0  0  0
  -16.6970  -28.5810   23.0720 C   0  0  0  0  0  3  0  0  0  0  0  0
  -25.8550  -32.4910   23.8450 C   0  0  0  0  0  3  0  0  0  0  0  0
  -25.5510  -33.8880   24.1790 N   0  0  0  0  0  0  0  0  0  0  0  0
  -25.8780  -34.9400   23.4170 C   0  0  0  0  0  0  0  0  0  0  0  0
  -26.5450  -34.8360   22.3830 O   0  0  0  0  0  0  0  0  0  0  0  0
  -24.9680  -34.0430   24.9880 H   0  0  0  0  0  0  0  0  0  0  0  0
  -24.1480  -36.7280   23.0610 C   0  0  0  0  0  1  0  0  0  0  0  0
  -25.3890  -36.3270   23.8750 C   0  0  0  0  0  3  0  0  0  0  0  0
  -27.5220  -37.2100   24.7090 C   0  0  0  0  0  1  0  0  0  0  0  0
  -26.4190  -37.3810   23.7650 N   0  0  0  0  0  0  0  0  0  0  0  0
  -26.0120  -38.2990   23.9160 H   0  0  0  0  0  0  0  0  0  0  0  0
  -26.3800  -31.7140   25.1160 C   0  0  1  0  0  0  0  0  0  0  0  0
  -25.2930  -31.4680   26.1860 C   0  0  0  0  0  1  0  0  0  0  0  0
  -26.9650  -30.3390   24.7120 C   0  0  0  0  0  1  0  0  0  0  0  0
  -27.5330  -32.5060   25.7760 C   0  0  0  0  0  1  0  0  0  0  0  0
  1  2  2  0
  2  6  1  0
  3  2  1  0
  4  3  2  0
  5  4  1  0
  5  1  1  0
  6  7  1  0
  7  9  1  0
  8  7  1  0
 11 21  1  0
 11 12  1  0
 11 10  1  0
 12  7  1  0
 12 10  1  0
 13 21  1  0
 14 19  1  0
 15 16  1  0
 15 14  1  0
 17 16  1  0
 17 26  1  0
 17 18  1  0
 19 13  1  0
 19 18  1  0
 20 13  2  0
 21 22  1  0
 23 24  2  0
 24 43  1  0
 25 24  1  0
 25 28  1  0
 26 23  1  0
 26 27  1  0
 27 25  2  0
 28 29  1  0
 29 30  2  0
 31 34  1  0
 31 30  1  0
 32 31  2  0
 33 32  1  0
 33 28  2  0
 34 35  1  0
 35 36  1  0
 36 37  2  0
 38 37  1  0
 38 42  1  0
 39 38  2  0
 40 35  2  0
 40 39  1  0
 41 40  1  0
 43 44  1  0
 44 47  1  0
 44 46  1  0
 45 43  2  0
 48 49  1  0
 48 23  1  0
 50 48  1  0
 51  5  1  0
 51 52  1  0
 53 52  1  0
 54 65  2  0
 55 53  1  0
 55 60  1  0
 56 64  1  0
 56 66  1  0
 57 63  1  0
 57 59  1  0
 58 64  1  0
 59 58  1  0
 60 59  2  0
 61 55  2  0
 62 61  1  0
 62 57  2  0
 63 56  1  0
 64 54  1  0
 66 68  2  0
 67 66  1  0
 69 67  1  0
 70 79  2  0
 70 75  1  0
 71 67  1  0
 71 75  1  0
 72 71  1  0
 73 74  1  0
 73 72  1  0
 74 70  1  0
 75 76  2  0
 76 77  1  0
 78 77  2  0
 79 78  1  0
 80 54  1  0
 80 81  1  0
 80 90  1  0
 81 84  1  0
 82 86  1  0
 82 81  1  0
 83 82  2  0
 86 85  1  0
 88 86  1  0
 88 89  1  0
 88 87  1  0
 90 93  1  1
 90 91  1  0
 92 90  1  0
M  ISO  4  13 100  21 100  52 101  53 101
M  END
>  <TORSDO>  (51) 
F 21

>  <SCORE>  (51) 
-13.247

>  <name>  (51) 
51

>  <ligand_id>  (51) 
51

>  <original_smiles>  (51) 
[H]c1c([H])c([H])c2c(c1[H])C([H])([H])C([H])([H])C([H])([H])C2([H])N([H])C(=O)C1([H])N(C(=O)C([H])(N([H])C(=O)C([H])(N([H])C([H])([H])[H])C([H])([H])[H])C(C([H])([H])[H])(C([H])([H])[H])C([H])([H])[H])C([H])([H])c2c([H])c(OC([H])([H])C([H])([H])n3nnc(C([H])([H])[N+]([H])([H])C4([H])C([H])([H])C4([H])N([H])C(=O)N4C([H])([H])C([H])([H])C([H])([H])C([H])(n5nc(-c6c([H])c([H])c(Oc7c([H])c([H])c(F)c([H])c7F)c([H])c6[H])c(C(=O)N([H])[H])c5N([H])[H])C4([H])[H])c3[H])c([H])c([H])c2C1([H])[H]

>  <smiles>  (51) 
[H]c1c([H])c([H])c2c(c1[H])C([H])([H])C([H])([H])C([H])([H])C2([H])N([H])C(=O)C1([H])N(C(=O)C([H])(N([H])C(=O)C([H])(N([H])C([H])([H])[H])C([H])([H])[H])C(C([H])([H])[H])(C([H])([H])[H])C([H])([H])[H])C([H])([H])c2c([H])c(OC([H])([H])C([H])([H])n3nnc(C([H])([H])[N+]([H])([H])C4([H])C([H])([H])C4([H])N([H])C(=O)N4C([H])([H])C([H])([H])C([H])([H])C([H])(n5nc(-c6c([H])c([H])c(Oc7c([H])c([H])c(F)c([H])c7F)c([H])c6[H])c(C(=O)N([H])[H])c5N([H])[H])C4([H])[H])c3[H])c([H])c([H])c2C1([H])[H]

$$$$
52:0:0
     RDKit          3D

 96106  0  0  1  0  0  0  0  0999 V2000
  -30.8120  -14.7060   20.3310 C   0  0  0  0  0  0  0  0  0  0  0  0
  -30.4910  -12.4250   19.3280 C   0  0  0  0  0  2  0  0  0  0  0  0
  -29.5890  -12.4530   18.0780 C   0  0  0  0  0  2  0  0  0  0  0  0
  -28.1130  -12.3070   18.4850 C   0  0  0  0  0  2  0  0  0  0  0  0
  -27.7260  -13.2360   19.6680 C   0  0  0  0  0  3  0  0  0  0  0  0
  -28.7630  -13.2050   20.8090 C   0  0  0  0  0  2  0  0  0  0  0  0
  -30.0570  -13.5470   20.2070 N   0  0  0  0  0  0  0  0  0  0  0  0
  -32.0270  -14.5830   20.1360 O   0  0  0  0  0  0  0  0  0  0  0  0
  -29.0110  -21.2670   18.7160 C   0  0  0  0  0  0  0  0  0  0  0  0
  -29.3060  -20.6020   19.9560 C   0  0  0  0  0  0  0  0  0  0  0  0
  -29.0070  -23.4260   19.7000 C   0  0  0  0  0  0  0  0  0  0  0  0
  -30.4750  -18.4310   19.2070 C   0  0  0  0  0  2  0  0  0  0  0  0
  -31.1740  -17.1520   19.8260 C   0  0  0  0  0  2  0  0  0  0  0  0
  -29.0560  -16.6490   20.8530 C   0  0  0  0  0  2  0  0  0  0  0  0
  -29.0760  -18.2380   21.1910 C   0  0  0  0  0  3  0  0  0  0  0  0
  -27.7050  -18.6610   21.7410 C   0  0  0  0  0  1  0  0  0  0  0  0
  -28.9010  -22.6340   18.6150 N   0  0  0  0  0  0  0  0  0  0  0  0
  -29.3980  -21.4760   21.0260 N   0  0  0  0  0  0  0  0  0  0  0  0
  -29.2600  -22.8500   20.9120 N   0  0  0  0  0  0  0  0  0  0  0  0
  -29.5230  -19.1430   20.0890 N   0  0  0  0  0  0  0  0  0  0  0  0
  -30.2850  -16.0230   20.2610 N   0  0  0  0  0  0  0  0  0  0  0  0
  -25.3460  -13.8760   20.3560 C   0  0  0  0  0  0  0  0  0  0  0  0
  -24.2550  -13.1290   20.7010 C   0  0  0  0  0  0  0  0  0  0  0  0
  -24.6860  -11.7670   20.6840 C   0  0  0  0  0  0  0  0  0  0  0  0
  -26.3730  -12.9730   20.1430 N   0  0  0  0  0  0  0  0  0  0  0  0
  -25.9830  -11.6980   20.4070 N   0  0  0  0  0  0  0  0  0  0  0  0
  -23.9240  -10.5230   20.8560 C   0  0  0  0  0  0  0  0  0  0  0  0
  -24.2620   -9.5810   21.8520 C   0  0  0  0  0  3  0  0  0  0  0  0
  -23.5000   -8.4030   22.0110 C   0  0  0  0  0  3  0  0  0  0  0  0
  -22.3850   -8.1590   21.1740 C   0  0  0  0  0  0  0  0  0  0  0  0
  -22.0670   -9.0900   20.1680 C   0  0  0  0  0  3  0  0  0  0  0  0
  -22.8290  -10.2590   20.0070 C   0  0  0  0  0  3  0  0  0  0  0  0
  -21.6020   -7.0330   21.2390 O   0  0  0  0  0  0  0  0  0  0  0  0
  -21.3850   -6.3750   22.4240 C   0  0  0  0  0  0  0  0  0  0  0  0
  -20.8110   -7.0210   23.5400 C   0  0  0  0  0  3  0  0  0  0  0  0
  -20.5420   -6.2900   24.7140 C   0  0  0  0  0  3  0  0  0  0  0  0
  -20.8360   -4.9150   24.7720 C   0  0  0  0  0  0  0  0  0  0  0  0
  -21.4020   -4.2690   23.6590 C   0  0  0  0  0  3  0  0  0  0  0  0
  -21.6730   -4.9970   22.4870 C   0  0  0  0  0  0  0  0  0  0  0  0
  -22.1990   -4.3650   21.4110 F   0  0  0  0  0  0  0  0  0  0  0  0
  -20.5700   -4.2100   25.8960 F   0  0  0  0  0  0  0  0  0  0  0  0
  -22.8640  -13.6420   20.9330 C   0  0  0  0  0  0  0  0  0  0  0  0
  -22.1040  -12.9780   21.7960 N   0  0  0  0  0  0  0  0  0  0  0  0
  -22.4610  -14.6670   20.3850 O   0  0  0  0  0  0  0  0  0  0  0  0
  -22.4420  -12.1480   22.2600 H   0  0  0  0  0  0  0  0  0  0  0  0
  -21.1680  -13.3050   21.9980 H   0  0  0  0  0  0  0  0  0  0  0  0
  -25.5470  -15.2410   20.1780 N   0  0  0  0  0  0  0  0  0  0  0  0
  -24.7930  -15.9130   20.2630 H   0  0  0  0  0  0  0  0  0  0  0  0
  -26.4120  -15.6540   19.8550 H   0  0  0  0  0  0  0  0  0  0  0  0
  -28.8490  -20.5140   17.3970 C   0  0  0  0  0  2  0  0  0  0  0  0
  -25.6150  -19.2930   16.6460 C   0  0  0  0  0  2  0  0  0  0  0  0
  -26.2670  -20.0310   17.8170 C   0  0  0  0  0  2  0  0  0  0  0  0
  -27.0020  -19.2250   16.0030 C   0  0  0  0  0  2  0  0  0  0  0  0
  -27.4130  -20.4270   16.8710 C   0  0  0  0  0  3  0  0  0  0  0  0
  -28.9540  -25.0220   19.3530 C   0  0  0  0  0  2  0  0  0  0  0  0
  -28.7170  -26.2230   20.2510 O   0  0  0  0  0  0  0  0  0  0  0  0
  -24.7320  -31.5980   23.1450 C   0  0  0  0  0  0  0  0  0  0  0  0
  -27.6060  -27.1060   20.1150 C   0  0  0  0  0  0  0  0  0  0  0  0
  -23.6440  -30.1850   21.4430 C   0  0  0  0  0  3  0  0  0  0  0  0
  -25.2000  -28.7050   20.0410 C   0  0  0  0  0  0  0  0  0  0  0  0
  -26.1820  -30.5730   21.3640 C   0  0  0  0  0  2  0  0  0  0  0  0
  -26.3330  -29.2030   20.6950 C   0  0  0  0  0  0  0  0  0  0  0  0
  -27.5340  -28.4130   20.7270 C   0  0  0  0  0  3  0  0  0  0  0  0
  -26.4370  -26.6840   19.4420 C   0  0  0  0  0  3  0  0  0  0  0  0
  -25.2590  -27.4570   19.4060 C   0  0  0  0  0  3  0  0  0  0  0  0
  -23.9350  -29.5440   20.0600 C   0  0  0  0  0  2  0  0  0  0  0  0
  -24.8700  -30.8050   22.0410 N   0  0  0  0  0  0  0  0  0  0  0  0
  -23.6190  -31.8280   23.6420 O   0  0  0  0  0  0  0  0  0  0  0  0
  -22.9810  -29.1300   22.3640 C   0  0  0  0  0  0  0  0  0  0  0  0
  -21.6590  -28.9350   22.2140 N   0  0  0  0  0  0  0  0  0  0  0  0
  -23.6560  -28.4940   23.1750 O   0  0  0  0  0  0  0  0  0  0  0  0
  -21.1690  -29.5040   21.5370 H   0  0  0  0  0  0  0  0  0  0  0  0
  -18.2870  -27.6970   22.6720 C   0  0  0  0  0  0  0  0  0  0  0  0
  -20.8450  -27.9610   22.9470 C   0  0  0  0  0  3  0  0  0  0  0  0
  -20.9530  -26.5560   22.3120 C   0  0  0  0  0  2  0  0  0  0  0  0
  -19.8520  -26.2690   21.2870 C   0  0  0  0  0  2  0  0  0  0  0  0
  -18.4700  -26.3790   21.9390 C   0  0  0  0  0  2  0  0  0  0  0  0
  -19.4020  -28.4480   23.1310 C   0  0  0  0  0  0  0  0  0  0  0  0
  -19.1760  -29.6830   23.7770 C   0  0  0  0  0  3  0  0  0  0  0  0
  -17.8680  -30.1660   23.9700 C   0  0  0  0  0  3  0  0  0  0  0  0
  -16.7670  -29.4130   23.5250 C   0  0  0  0  0  3  0  0  0  0  0  0
  -16.9780  -28.1800   22.8820 C   0  0  0  0  0  3  0  0  0  0  0  0
  -25.9640  -32.2720   23.8230 C   0  0  0  0  0  3  0  0  0  0  0  0
  -25.5800  -33.6440   24.1860 N   0  0  0  0  0  0  0  0  0  0  0  0
  -25.8600  -34.7330   23.4580 C   0  0  0  0  0  0  0  0  0  0  0  0
  -26.5380  -34.6910   22.4270 O   0  0  0  0  0  0  0  0  0  0  0  0
  -24.9800  -33.7480   24.9920 H   0  0  0  0  0  0  0  0  0  0  0  0
  -24.0330  -36.4350   23.1590 C   0  0  0  0  0  1  0  0  0  0  0  0
  -25.3010  -36.0830   23.9500 C   0  0  0  0  0  3  0  0  0  0  0  0
  -27.3890  -37.0700   24.7840 C   0  0  0  0  0  1  0  0  0  0  0  0
  -26.2720  -37.1940   23.8520 N   0  0  0  0  0  0  0  0  0  0  0  0
  -25.8150  -38.0860   24.0220 H   0  0  0  0  0  0  0  0  0  0  0  0
  -26.4780  -31.4890   25.0940 C   0  0  1  0  0  0  0  0  0  0  0  0
  -25.3660  -31.1720   26.1210 C   0  0  0  0  0  1  0  0  0  0  0  0
  -27.1360  -30.1510   24.6860 C   0  0  0  0  0  1  0  0  0  0  0  0
  -27.5710  -32.3150   25.8130 C   0  0  0  0  0  1  0  0  0  0  0  0
  2  7  1  0
  3  4  1  0
  3  2  1  0
  5  4  1  0
  5 25  1  0
  5  6  1  0
  7  1  1  0
  7  6  1  0
  8  1  2  0
  9 10  2  0
 10 20  1  0
 10 18  1  0
 11 19  1  0
 12 13  1  0
 12 20  1  0
 13 21  1  0
 14 15  1  0
 15 16  1  0
 17  9  1  0
 17 11  2  0
 19 18  2  0
 20 15  1  0
 21  1  1  0
 21 14  1  0
 22 23  2  0
 23 42  1  0
 24 23  1  0
 24 27  1  0
 25 22  1  0
 25 26  1  0
 26 24  2  0
 27 28  1  0
 28 29  2  0
 30 33  1  0
 30 29  1  0
 31 30  2  0
 32 31  1  0
 32 27  2  0
 33 34  1  0
 34 39  2  0
 34 35  1  0
 35 36  2  0
 36 37  1  0
 37 41  1  0
 38 37  2  0
 39 38  1  0
 40 39  1  0
 42 43  1  0
 43 46  1  0
 43 45  1  0
 44 42  2  0
 47 48  1  0
 47 22  1  0
 49 47  1  0
 50  9  1  0
 51 52  1  0
 53 51  1  0
 53 54  1  0
 54 50  1  0
 54 52  1  0
 55 11  1  0
 55 56  1  0
 57 68  2  0
 58 56  1  0
 58 63  1  0
 59 67  1  0
 59 69  1  0
 60 66  1  0
 60 62  1  0
 61 67  1  0
 62 63  2  0
 62 61  1  0
 64 58  2  0
 65 64  1  0
 65 60  2  0
 66 59  1  0
 67 57  1  0
 69 71  2  0
 70 69  1  0
 72 70  1  0
 73 82  2  0
 73 78  1  0
 74 70  1  0
 74 78  1  0
 75 74  1  0
 76 77  1  0
 76 75  1  0
 77 73  1  0
 78 79  2  0
 79 80  1  0
 81 80  2  0
 82 81  1  0
 83 57  1  0
 83 84  1  0
 83 93  1  0
 84 87  1  0
 85 89  1  0
 85 84  1  0
 86 85  2  0
 89 88  1  0
 91 89  1  0
 91 92  1  0
 91 90  1  0
 93 96  1  1
 93 94  1  0
 95 93  1  0
M  ISO  4   1 100  21 100  55 101  56 101
M  END
>  <TORSDO>  (52) 
F 18

>  <SCORE>  (52) 
-8.767

>  <name>  (52) 
52

>  <ligand_id>  (52) 
52

>  <original_smiles>  (52) 
[H]c1c([H])c([H])c2c(c1[H])C([H])([H])C([H])([H])C([H])([H])C2([H])N([H])C(=O)C1([H])N(C(=O)C([H])(N([H])C(=O)C([H])(N([H])C([H])([H])[H])C([H])([H])[H])C(C([H])([H])[H])(C([H])([H])[H])C([H])([H])[H])C([H])([H])c2c([H])c(OC([H])([H])c3nnc(N4C([H])([H])C([H])([H])N(C(=O)N5C([H])([H])C([H])([H])C([H])([H])C([H])(n6nc(-c7c([H])c([H])c(Oc8c([H])c([H])c(F)c([H])c8F)c([H])c7[H])c(C(=O)N([H])[H])c6N([H])[H])C5([H])[H])C([H])([H])C4([H])C([H])([H])[H])c(C([H])([H])C4([H])C([H])([H])C([H])([H])C4([H])[H])n3)c([H])c([H])c2C1([H])[H]

>  <smiles>  (52) 
[H]c1c([H])c([H])c2c(c1[H])C([H])([H])C([H])([H])C([H])([H])C2([H])N([H])C(=O)C1([H])N(C(=O)C([H])(N([H])C(=O)C([H])(N([H])C([H])([H])[H])C([H])([H])[H])C(C([H])([H])[H])(C([H])([H])[H])C([H])([H])[H])C([H])([H])c2c([H])c(OC([H])([H])c3nnc(N4C([H])([H])C([H])([H])N(C(=O)N5C([H])([H])C([H])([H])C([H])([H])C([H])(n6nc(-c7c([H])c([H])c(Oc8c([H])c([H])c(F)c([H])c8F)c([H])c7[H])c(C(=O)N([H])[H])c6N([H])[H])C5([H])[H])C([H])([H])C4([H])C([H])([H])[H])c(C([H])([H])C4([H])C([H])([H])C([H])([H])C4([H])[H])n3)c([H])c([H])c2C1([H])[H]

$$$$
53:0:0
     RDKit          3D

 98107  0  0  1  0  0  0  0  0999 V2000
  -29.9410  -21.6580   23.5640 C   0  0  0  0  0  2  0  0  0  0  0  0
  -29.7870  -20.5900   21.6400 C   0  0  0  0  0  0  0  0  0  0  0  0
  -29.5910  -22.7980   21.7180 C   0  0  0  0  0  0  0  0  0  0  0  0
  -30.0420  -18.0600   21.5570 C   0  0  0  0  0  2  0  0  0  0  0  0
  -30.0820  -19.2890   19.4990 C   0  0  0  0  0  2  0  0  0  0  0  0
  -30.6700  -17.1470   20.4830 C   0  0  0  0  0  3  0  0  0  0  0  0
  -30.1320  -17.7820   19.1820 C   0  0  0  0  0  3  0  0  0  0  0  0
  -29.9560  -20.4860   22.9440 N   0  0  0  0  0  0  0  0  0  0  0  0
  -29.7670  -22.8570   23.0180 N   0  0  0  0  0  0  0  0  0  0  0  0
  -29.5890  -21.7130   20.9450 N   0  0  0  0  0  2  0  0  0  0  0  0
  -29.8500  -19.3810   20.9360 N   0  0  0  0  0  0  0  0  0  0  0  0
  -29.4490  -24.0470   21.1450 N   0  0  0  0  0  0  0  0  0  0  0  0
  -29.5210  -24.7910   21.8290 H   0  0  0  0  0  0  0  0  0  0  0  0
  -31.0040  -14.6800   20.1680 C   0  0  0  0  0  0  0  0  0  0  0  0
  -30.6470  -12.5410   19.0030 C   0  0  0  0  0  2  0  0  0  0  0  0
  -29.6660  -12.7750   17.8360 C   0  0  0  0  0  2  0  0  0  0  0  0
  -28.2040  -12.6560   18.3130 C   0  0  0  0  0  2  0  0  0  0  0  0
  -27.9260  -13.4570   19.6140 C   0  0  0  0  0  3  0  0  0  0  0  0
  -29.0220  -13.2090   20.6770 C   0  0  0  0  0  2  0  0  0  0  0  0
  -30.3230  -13.5090   20.0620 N   0  0  0  0  0  0  0  0  0  0  0  0
  -32.1180  -14.8570   19.6700 O   0  0  0  0  0  0  0  0  0  0  0  0
  -30.2950  -15.7270   20.6310 N   0  0  0  0  0  0  0  0  0  0  0  0
  -29.3800  -15.5220   21.0050 H   0  0  0  0  0  0  0  0  0  0  0  0
  -25.5600  -14.0660   20.4240 C   0  0  0  0  0  0  0  0  0  0  0  0
  -24.4990  -13.2920   20.8110 C   0  0  0  0  0  0  0  0  0  0  0  0
  -24.9480  -11.9380   20.7340 C   0  0  0  0  0  0  0  0  0  0  0  0
  -26.5900  -13.1820   20.1380 N   0  0  0  0  0  0  0  0  0  0  0  0
  -26.2260  -11.8960   20.3800 N   0  0  0  0  0  0  0  0  0  0  0  0
  -24.2180  -10.6770   20.9210 C   0  0  0  0  0  0  0  0  0  0  0  0
  -24.6240   -9.7240   21.8820 C   0  0  0  0  0  3  0  0  0  0  0  0
  -23.8970   -8.5270   22.0560 C   0  0  0  0  0  3  0  0  0  0  0  0
  -22.7490   -8.2740   21.2670 C   0  0  0  0  0  0  0  0  0  0  0  0
  -22.3630   -9.2140   20.2950 C   0  0  0  0  0  3  0  0  0  0  0  0
  -23.0910  -10.4020   20.1210 C   0  0  0  0  0  3  0  0  0  0  0  0
  -21.9950   -7.1280   21.3470 O   0  0  0  0  0  0  0  0  0  0  0  0
  -21.8270   -6.4590   22.5320 C   0  0  0  0  0  0  0  0  0  0  0  0
  -21.2410   -7.0750   23.6580 C   0  0  0  0  0  3  0  0  0  0  0  0
  -21.0230   -6.3300   24.8350 C   0  0  0  0  0  3  0  0  0  0  0  0
  -21.3830   -4.9700   24.8850 C   0  0  0  0  0  0  0  0  0  0  0  0
  -21.9620   -4.3530   23.7630 C   0  0  0  0  0  3  0  0  0  0  0  0
  -22.1810   -5.0950   22.5880 C   0  0  0  0  0  0  0  0  0  0  0  0
  -22.7200   -4.4920   21.5010 F   0  0  0  0  0  0  0  0  0  0  0  0
  -21.1680   -4.2530   26.0130 F   0  0  0  0  0  0  0  0  0  0  0  0
  -23.1170  -13.7730   21.1470 C   0  0  0  0  0  0  0  0  0  0  0  0
  -22.4200  -13.0680   22.0320 N   0  0  0  0  0  0  0  0  0  0  0  0
  -22.6650  -14.8060   20.6580 O   0  0  0  0  0  0  0  0  0  0  0  0
  -22.8020  -12.2270   22.4410 H   0  0  0  0  0  0  0  0  0  0  0  0
  -21.4960  -13.3740   22.3020 H   0  0  0  0  0  0  0  0  0  0  0  0
  -25.7330  -15.4390   20.2760 N   0  0  0  0  0  0  0  0  0  0  0  0
  -24.9720  -16.0960   20.4120 H   0  0  0  0  0  0  0  0  0  0  0  0
  -26.5780  -15.8790   19.9370 H   0  0  0  0  0  0  0  0  0  0  0  0
  -30.9180  -17.4610   17.9760 N   0  0  0  0  0  4  0  0  0  0  0  0
  -31.8700  -17.7710   18.0680 H   0  0  0  0  0  0  0  0  0  0  0  0
  -30.5170  -17.9080   17.1700 H   0  0  0  0  0  0  0  0  0  0  0  0
  -30.9280  -16.4700   17.8070 H   0  0  0  0  0  0  0  0  0  0  0  0
  -28.5390  -24.3690   20.0480 C   0  0  0  0  0  2  0  0  0  0  0  0
  -28.8930  -25.7190   19.3630 C   0  0  0  0  0  2  0  0  0  0  0  0
  -28.6670  -26.9070   20.1480 O   0  0  0  0  0  0  0  0  0  0  0  0
  -24.5750  -31.8830   23.1970 C   0  0  0  0  0  0  0  0  0  0  0  0
  -27.4580  -27.5830   20.0930 C   0  0  0  0  0  0  0  0  0  0  0  0
  -23.4670  -30.4870   21.4800 C   0  0  0  0  0  3  0  0  0  0  0  0
  -25.0150  -29.0290   20.0650 C   0  0  0  0  0  0  0  0  0  0  0  0
  -25.9870  -30.9200   21.3800 C   0  0  0  0  0  2  0  0  0  0  0  0
  -26.1350  -29.5660   20.7110 C   0  0  0  0  0  0  0  0  0  0  0  0
  -27.3530  -28.8480   20.7240 C   0  0  0  0  0  3  0  0  0  0  0  0
  -26.3120  -27.0620   19.4460 C   0  0  0  0  0  3  0  0  0  0  0  0
  -25.1000  -27.7780   19.4300 C   0  0  0  0  0  3  0  0  0  0  0  0
  -23.7420  -29.8470   20.0920 C   0  0  0  0  0  2  0  0  0  0  0  0
  -24.6910  -31.1130   22.0770 N   0  0  0  0  0  0  0  0  0  0  0  0
  -23.4680  -32.1090   23.7060 O   0  0  0  0  0  0  0  0  0  0  0  0
  -22.8150  -29.4250   22.3940 C   0  0  0  0  0  0  0  0  0  0  0  0
  -21.4900  -29.2530   22.2590 N   0  0  0  0  0  0  0  0  0  0  0  0
  -23.4980  -28.7610   23.1790 O   0  0  0  0  0  0  0  0  0  0  0  0
  -21.0020  -29.8420   21.5990 H   0  0  0  0  0  0  0  0  0  0  0  0
  -18.1050  -28.0950   22.7680 C   0  0  0  0  0  0  0  0  0  0  0  0
  -20.6730  -28.2810   22.9840 C   0  0  0  0  0  3  0  0  0  0  0  0
  -20.7290  -26.8920   22.3040 C   0  0  0  0  0  2  0  0  0  0  0  0
  -19.5920  -26.6640   21.3030 C   0  0  0  0  0  2  0  0  0  0  0  0
  -18.2300  -26.7940   21.9920 C   0  0  0  0  0  2  0  0  0  0  0  0
  -19.2520  -28.8020   23.2180 C   0  0  0  0  0  0  0  0  0  0  0  0
  -19.0790  -30.0260   23.9010 C   0  0  0  0  0  3  0  0  0  0  0  0
  -17.7930  -30.5400   24.1400 C   0  0  0  0  0  3  0  0  0  0  0  0
  -16.6600  -29.8310   23.7060 C   0  0  0  0  0  3  0  0  0  0  0  0
  -16.8180  -28.6100   23.0260 C   0  0  0  0  0  3  0  0  0  0  0  0
  -25.8190  -32.5350   23.8780 C   0  0  0  0  0  3  0  0  0  0  0  0
  -26.2780  -31.7870   25.1900 C   0  0  1  0  0  0  0  0  0  0  0  0
  -25.1310  -31.5220   26.1900 C   0  0  0  0  0  1  0  0  0  0  0  0
  -26.9250  -30.4270   24.8420 C   0  0  0  0  0  1  0  0  0  0  0  0
  -27.3640  -32.6190   25.9130 C   0  0  0  0  0  1  0  0  0  0  0  0
  -25.4800  -33.9330   24.1700 N   0  0  0  0  0  0  0  0  0  0  0  0
  -25.8400  -34.9790   23.4140 C   0  0  0  0  0  0  0  0  0  0  0  0
  -26.5670  -34.8690   22.4230 O   0  0  0  0  0  0  0  0  0  0  0  0
  -24.8460  -34.0950   24.9400 H   0  0  0  0  0  0  0  0  0  0  0  0
  -24.1160  -36.7430   22.9370 C   0  0  0  0  0  1  0  0  0  0  0  0
  -25.3110  -36.3650   23.8250 C   0  0  0  0  0  3  0  0  0  0  0  0
  -27.3740  -37.2830   24.7840 C   0  0  0  0  0  1  0  0  0  0  0  0
  -26.3380  -37.4280   23.7660 N   0  0  0  0  0  0  0  0  0  0  0  0
  -25.9120  -38.3450   23.8740 H   0  0  0  0  0  0  0  0  0  0  0  0
  2  8  2  0
  3  9  2  0
  5 11  1  0
  6 22  1  0
  6  4  1  0
  7 52  1  0
  7  5  1  0
  7  6  1  0
  8  1  1  0
  9  1  1  0
 10  2  1  0
 10  3  1  0
 11  4  1  0
 11  2  1  0
 12  3  1  0
 12 13  1  0
 14 22  1  0
 15 20  1  0
 16 17  1  0
 16 15  1  0
 18 17  1  0
 18 27  1  0
 18 19  1  0
 20 14  1  0
 20 19  1  0
 21 14  2  0
 22 23  1  0
 24 25  2  0
 25 44  1  0
 26 25  1  0
 26 29  1  0
 27 28  1  0
 27 24  1  0
 28 26  2  0
 29 30  1  0
 30 31  2  0
 32 35  1  0
 32 31  1  0
 33 32  2  0
 34 33  1  0
 34 29  2  0
 35 36  1  0
 36 41  2  0
 36 37  1  0
 37 38  2  0
 38 39  1  0
 39 43  1  0
 40 39  2  0
 41 40  1  0
 42 41  1  0
 44 45  1  0
 45 48  1  0
 45 47  1  0
 46 44  2  0
 49 50  1  0
 49 24  1  0
 51 49  1  0
 52 53  1  0
 54 52  1  0
 55 52  1  0
 56 12  1  0
 57 56  1  0
 57 58  1  0
 59 70  2  0
 60 58  1  0
 60 65  1  0
 61 69  1  0
 61 71  1  0
 62 68  1  0
 62 64  1  0
 63 69  1  0
 64 65  2  0
 64 63  1  0
 66 60  2  0
 67 66  1  0
 67 62  2  0
 68 61  1  0
 69 59  1  0
 71 73  2  0
 72 71  1  0
 74 72  1  0
 75 84  2  0
 75 80  1  0
 76 72  1  0
 76 80  1  0
 77 76  1  0
 78 79  1  0
 78 77  1  0
 79 75  1  0
 80 81  2  0
 81 82  1  0
 83 82  2  0
 84 83  1  0
 85 59  1  0
 85 90  1  0
 85 86  1  0
 86 89  1  1
 86 87  1  0
 88 86  1  0
 90 93  1  0
 91 95  1  0
 91 90  1  0
 92 91  2  0
 95 94  1  0
 97 95  1  0
 97 98  1  0
 97 96  1  0
M  ISO  4  14 100  22 100  57 101  58 101
M  END
>  <TORSDO>  (53) 
F 19

>  <SCORE>  (53) 
-14.019

>  <name>  (53) 
53

>  <ligand_id>  (53) 
53

>  <original_smiles>  (53) 
[H]c1nc(N([H])C([H])([H])C([H])([H])Oc2c([H])c([H])c3c(c2[H])C([H])([H])N(C(=O)C([H])(N([H])C(=O)C([H])(N([H])C([H])([H])[H])C([H])([H])[H])C(C([H])([H])[H])(C([H])([H])[H])C([H])([H])[H])C([H])(C(=O)N([H])C2([H])c4c([H])c([H])c([H])c([H])c4C([H])([H])C([H])([H])C2([H])[H])C3([H])[H])nc(N2C([H])([H])C([H])(N([H])C(=O)N3C([H])([H])C([H])([H])C([H])([H])C([H])(n4nc(-c5c([H])c([H])c(Oc6c([H])c([H])c(F)c([H])c6F)c([H])c5[H])c(C(=O)N([H])[H])c4N([H])[H])C3([H])[H])C([H])([N+]([H])([H])[H])C2([H])[H])n1

>  <smiles>  (53) 
[H]c1nc(N([H])C([H])([H])C([H])([H])Oc2c([H])c([H])c3c(c2[H])C([H])([H])N(C(=O)C([H])(N([H])C(=O)C([H])(N([H])C([H])([H])[H])C([H])([H])[H])C(C([H])([H])[H])(C([H])([H])[H])C([H])([H])[H])C([H])(C(=O)N([H])C2([H])c4c([H])c([H])c([H])c([H])c4C([H])([H])C([H])([H])C2([H])[H])C3([H])[H])nc(N2C([H])([H])C([H])(N([H])C(=O)N3C([H])([H])C([H])([H])C([H])([H])C([H])(n4nc(-c5c([H])c([H])c(Oc6c([H])c([H])c(F)c([H])c6F)c([H])c5[H])c(C(=O)N([H])[H])c4N([H])[H])C3([H])[H])C([H])([N+]([H])([H])[H])C2([H])[H])n1

$$$$
54:0:0
     RDKit          3D

 91100  0  0  1  0  0  0  0  0999 V2000
  -31.0310  -23.7640   18.1470 C   0  0  0  0  0  3  0  0  0  0  0  0
  -31.2910  -22.3980   18.0530 C   0  0  0  0  0  3  0  0  0  0  0  0
  -29.3580  -23.4100   19.7670 C   0  0  0  0  0  0  0  0  0  0  0  0
  -29.6480  -21.8750   19.6700 C   0  0  0  0  0  0  0  0  0  0  0  0
  -30.0260  -18.5680   21.6250 C   0  0  0  0  0  2  0  0  0  0  0  0
  -29.9900  -20.1470   21.4760 C   0  0  0  0  0  2  0  0  0  0  0  0
  -29.2510  -19.1650   19.5360 C   0  0  0  0  0  2  0  0  0  0  0  0
  -30.1320  -17.9220   20.2230 C   0  0  0  0  0  3  0  0  0  0  0  0
  -30.0950  -24.2430   18.9820 N   0  0  0  0  0  0  0  0  0  0  0  0
  -30.6200  -21.5010   18.7970 N   0  0  0  0  0  0  0  0  0  0  0  0
  -29.2400  -20.5550   20.2730 N   0  0  0  0  0  0  0  0  0  0  0  0
  -30.5800  -15.1120   19.9540 C   0  0  0  0  0  0  0  0  0  0  0  0
  -30.4120  -12.7570   18.9660 C   0  0  0  0  0  2  0  0  0  0  0  0
  -29.3990  -12.7050   17.7980 C   0  0  0  0  0  2  0  0  0  0  0  0
  -27.9700  -12.4680   18.3210 C   0  0  0  0  0  2  0  0  0  0  0  0
  -27.6370  -13.3670   19.5390 C   0  0  0  0  0  3  0  0  0  0  0  0
  -28.7660  -13.3850   20.5910 C   0  0  0  0  0  2  0  0  0  0  0  0
  -29.9790  -13.8440   19.9000 N   0  0  0  0  0  0  0  0  0  0  0  0
  -31.7770  -15.1460   19.6450 O   0  0  0  0  0  0  0  0  0  0  0  0
  -29.8240  -16.3290   20.1520 N   0  0  0  0  0  0  0  0  0  0  0  0
  -28.8480  -16.1240   20.3080 H   0  0  0  0  0  0  0  0  0  0  0  0
  -25.3220  -13.9300   20.4620 C   0  0  0  0  0  0  0  0  0  0  0  0
  -24.2790  -13.1490   20.8780 C   0  0  0  0  0  0  0  0  0  0  0  0
  -24.7310  -11.7980   20.7780 C   0  0  0  0  0  0  0  0  0  0  0  0
  -26.3390  -13.0540   20.1240 N   0  0  0  0  0  0  0  0  0  0  0  0
  -25.9990  -11.7650   20.3800 N   0  0  0  0  0  0  0  0  0  0  0  0
  -24.0080  -10.5350   20.9750 C   0  0  0  0  0  0  0  0  0  0  0  0
  -24.4630   -9.5550   21.8860 C   0  0  0  0  0  3  0  0  0  0  0  0
  -23.7370   -8.3590   22.0730 C   0  0  0  0  0  3  0  0  0  0  0  0
  -22.5410   -8.1340   21.3520 C   0  0  0  0  0  0  0  0  0  0  0  0
  -22.1060   -9.1000   20.4280 C   0  0  0  0  0  3  0  0  0  0  0  0
  -22.8320  -10.2880   20.2380 C   0  0  0  0  0  3  0  0  0  0  0  0
  -21.7840   -6.9910   21.4510 O   0  0  0  0  0  0  0  0  0  0  0  0
  -21.7330   -6.2600   22.6110 C   0  0  0  0  0  0  0  0  0  0  0  0
  -21.2690   -6.8160   23.8240 C   0  0  0  0  0  3  0  0  0  0  0  0
  -21.1670   -6.0100   24.9750 C   0  0  0  0  0  3  0  0  0  0  0  0
  -21.5190   -4.6480   24.9150 C   0  0  0  0  0  0  0  0  0  0  0  0
  -21.9770   -4.0910   23.7090 C   0  0  0  0  0  3  0  0  0  0  0  0
  -22.0800   -4.8950   22.5590 C   0  0  0  0  0  0  0  0  0  0  0  0
  -22.5010   -4.3470   21.3930 F   0  0  0  0  0  0  0  0  0  0  0  0
  -21.4140   -3.8720   26.0180 F   0  0  0  0  0  0  0  0  0  0  0  0
  -22.9060  -13.6260   21.2480 C   0  0  0  0  0  0  0  0  0  0  0  0
  -22.2300  -12.9120   22.1410 N   0  0  0  0  0  0  0  0  0  0  0  0
  -22.4430  -14.6660   20.7790 O   0  0  0  0  0  0  0  0  0  0  0  0
  -22.6230  -12.0730   22.5430 H   0  0  0  0  0  0  0  0  0  0  0  0
  -21.3060  -13.2070   22.4250 H   0  0  0  0  0  0  0  0  0  0  0  0
  -25.4830  -15.3040   20.3100 N   0  0  0  0  0  0  0  0  0  0  0  0
  -24.7250  -15.9560   20.4790 H   0  0  0  0  0  0  0  0  0  0  0  0
  -26.2890  -15.7430   19.8870 H   0  0  0  0  0  0  0  0  0  0  0  0
  -28.3240  -24.5070   20.4880 C   0  0  0  0  0  2  0  0  0  0  0  0
  -28.4900  -26.1010   20.3420 O   0  0  0  0  0  0  0  0  0  0  0  0
  -24.6940  -31.8460   23.2230 C   0  0  0  0  0  0  0  0  0  0  0  0
  -27.4160  -27.0930   20.2930 C   0  0  0  0  0  0  0  0  0  0  0  0
  -23.5630  -30.4250   21.5590 C   0  0  0  0  0  3  0  0  0  0  0  0
  -25.0720  -28.8530   20.1850 C   0  0  0  0  0  0  0  0  0  0  0  0
  -26.1200  -30.7060   21.4720 C   0  0  0  0  0  2  0  0  0  0  0  0
  -26.2320  -29.3050   20.8260 C   0  0  0  0  0  0  0  0  0  0  0  0
  -27.4030  -28.4450   20.8570 C   0  0  0  0  0  3  0  0  0  0  0  0
  -26.2280  -26.7600   19.6080 C   0  0  0  0  0  3  0  0  0  0  0  0
  -25.0890  -27.5970   19.5580 C   0  0  0  0  0  3  0  0  0  0  0  0
  -23.8340  -29.7410   20.1920 C   0  0  0  0  0  2  0  0  0  0  0  0
  -24.8120  -31.0170   22.1400 N   0  0  0  0  0  0  0  0  0  0  0  0
  -23.5890  -32.1180   23.7190 O   0  0  0  0  0  0  0  0  0  0  0  0
  -22.8680  -29.4150   22.5080 C   0  0  0  0  0  0  0  0  0  0  0  0
  -21.5470  -29.2180   22.3370 N   0  0  0  0  0  0  0  0  0  0  0  0
  -23.5200  -28.8120   23.3640 O   0  0  0  0  0  0  0  0  0  0  0  0
  -21.0750  -29.7580   21.6260 H   0  0  0  0  0  0  0  0  0  0  0  0
  -18.1760  -27.9480   22.7350 C   0  0  0  0  0  0  0  0  0  0  0  0
  -20.7190  -28.2700   23.0880 C   0  0  0  0  0  3  0  0  0  0  0  0
  -20.8700  -26.8350   22.5300 C   0  0  0  0  0  2  0  0  0  0  0  0
  -19.8110  -26.4800   21.4820 C   0  0  0  0  0  2  0  0  0  0  0  0
  -18.4050  -26.5990   22.0760 C   0  0  0  0  0  2  0  0  0  0  0  0
  -19.2620  -28.7400   23.1950 C   0  0  0  0  0  0  0  0  0  0  0  0
  -18.9930  -30.0010   23.7710 C   0  0  0  0  0  3  0  0  0  0  0  0
  -17.6710  -30.4690   23.8940 C   0  0  0  0  0  3  0  0  0  0  0  0
  -16.5990  -29.6740   23.4510 C   0  0  0  0  0  3  0  0  0  0  0  0
  -16.8540  -28.4160   22.8760 C   0  0  0  0  0  3  0  0  0  0  0  0
  -25.9430  -32.5060   23.8850 C   0  0  0  0  0  3  0  0  0  0  0  0
  -25.5990  -33.9010   24.2040 N   0  0  0  0  0  0  0  0  0  0  0  0
  -25.9100  -34.9600   23.4460 C   0  0  0  0  0  0  0  0  0  0  0  0
  -26.5820  -34.8670   22.4160 O   0  0  0  0  0  0  0  0  0  0  0  0
  -25.0020  -34.0450   25.0060 H   0  0  0  0  0  0  0  0  0  0  0  0
  -24.1400  -36.7180   23.0970 C   0  0  0  0  0  1  0  0  0  0  0  0
  -25.3970  -36.3430   23.8990 C   0  0  0  0  0  3  0  0  0  0  0  0
  -27.5110  -37.2900   24.7150 C   0  0  0  0  0  1  0  0  0  0  0  0
  -26.4050  -37.4180   23.7720 N   0  0  0  0  0  0  0  0  0  0  0  0
  -25.9780  -38.3310   23.9070 H   0  0  0  0  0  0  0  0  0  0  0  0
  -26.4270  -31.7510   25.1850 C   0  0  1  0  0  0  0  0  0  0  0  0
  -25.3030  -31.5040   26.2190 C   0  0  0  0  0  1  0  0  0  0  0  0
  -27.0450  -30.3790   24.8310 C   0  0  0  0  0  1  0  0  0  0  0  0
  -27.5410  -32.5690   25.8800 C   0  0  0  0  0  1  0  0  0  0  0  0
  1  9  1  0
  2  1  2  0
  2 10  1  0
  3 50  1  0
  4  3  1  0
  4 11  1  0
  6  5  1  0
  7  8  1  0
  7 11  1  0
  8 20  1  0
  8  5  1  0
  9  3  2  0
 10  4  2  0
 11  6  1  0
 12 20  1  0
 13 18  1  0
 14 15  1  0
 14 13  1  0
 16 15  1  0
 16 25  1  0
 16 17  1  0
 18 12  1  0
 18 17  1  0
 19 12  2  0
 20 21  1  0
 22 23  2  0
 23 42  1  0
 24 23  1  0
 24 27  1  0
 25 26  1  0
 25 22  1  0
 26 24  2  0
 27 28  1  0
 28 29  2  0
 30 33  1  0
 30 29  1  0
 31 30  2  0
 32 31  1  0
 32 27  2  0
 33 34  1  0
 34 35  1  0
 35 36  2  0
 37 36  1  0
 37 41  1  0
 38 37  2  0
 39 34  2  0
 39 38  1  0
 40 39  1  0
 42 43  1  0
 43 46  1  0
 43 45  1  0
 44 42  2  0
 47 22  1  0
 47 48  1  0
 49 47  1  0
 51 50  1  0
 52 63  2  0
 53 51  1  0
 53 58  1  0
 54 62  1  0
 54 64  1  0
 55 61  1  0
 55 57  1  0
 56 62  1  0
 57 58  2  0
 57 56  1  0
 59 53  2  0
 60 59  1  0
 60 55  2  0
 61 54  1  0
 62 52  1  0
 64 66  2  0
 65 64  1  0
 67 65  1  0
 68 77  2  0
 68 73  1  0
 69 65  1  0
 69 73  1  0
 70 69  1  0
 71 72  1  0
 71 70  1  0
 72 68  1  0
 73 74  2  0
 74 75  1  0
 76 75  2  0
 77 76  1  0
 78 52  1  0
 78 79  1  0
 78 88  1  0
 79 82  1  0
 80 84  1  0
 80 79  1  0
 81 80  2  0
 84 83  1  0
 86 84  1  0
 86 87  1  0
 86 85  1  0
 88 91  1  1
 88 89  1  0
 90 88  1  0
M  ISO  4  12 100  20 100  50 101  51 101
M  END
>  <TORSDO>  (54) 
F 17

>  <SCORE>  (54) 
-14.509

>  <name>  (54) 
54

>  <ligand_id>  (54) 
54

>  <original_smiles>  (54) 
[H]c1nc(N2C([H])([H])C([H])([H])C([H])(N([H])C(=O)N3C([H])([H])C([H])([H])C([H])([H])C([H])(n4nc(-c5c([H])c([H])c(Oc6c([H])c([H])c(F)c([H])c6F)c([H])c5[H])c(C(=O)N([H])[H])c4N([H])[H])C3([H])[H])C2([H])[H])c(C([H])([H])Oc2c([H])c([H])c3c(c2[H])C([H])([H])N(C(=O)C([H])(N([H])C(=O)C([H])(N([H])C([H])([H])[H])C([H])([H])[H])C(C([H])([H])[H])(C([H])([H])[H])C([H])([H])[H])C([H])(C(=O)N([H])C2([H])c4c([H])c([H])c([H])c([H])c4C([H])([H])C([H])([H])C2([H])[H])C3([H])[H])nc1[H]

>  <smiles>  (54) 
[H]c1nc(N2C([H])([H])C([H])([H])C([H])(N([H])C(=O)N3C([H])([H])C([H])([H])C([H])([H])C([H])(n4nc(-c5c([H])c([H])c(Oc6c([H])c([H])c(F)c([H])c6F)c([H])c5[H])c(C(=O)N([H])[H])c4N([H])[H])C3([H])[H])C2([H])[H])c(C([H])([H])Oc2c([H])c([H])c3c(c2[H])C([H])([H])N(C(=O)C([H])(N([H])C(=O)C([H])(N([H])C([H])([H])[H])C([H])([H])[H])C(C([H])([H])[H])(C([H])([H])[H])C([H])([H])[H])C([H])(C(=O)N([H])C2([H])c4c([H])c([H])c([H])c([H])c4C([H])([H])C([H])([H])C2([H])[H])C3([H])[H])nc1[H]

$$$$
55:0:0
     RDKit          3D

 98107  0  0  1  0  0  0  0  0999 V2000
  -28.0190  -24.0800   20.0320 C   0  0  0  0  0  3  0  0  0  0  0  0
  -29.3210  -24.6640   22.1960 C   0  0  0  0  0  3  0  0  0  0  0  0
  -28.8880  -25.1540   23.4580 C   0  0  0  0  0  3  0  0  0  0  0  0
  -28.1750  -24.5350   21.4620 C   0  0  0  0  0  0  0  0  0  0  0  0
  -25.6900  -24.9430   22.0680 C   0  0  0  0  0  1  0  0  0  0  0  0
  -27.5750  -25.2840   23.5230 N   0  0  0  0  0  0  0  0  0  0  0  0
  -27.1260  -24.9020   22.3050 N   0  0  0  0  0  0  0  0  0  0  0  0
  -28.8150  -22.8030   19.7840 N   0  0  0  0  0  0  0  0  0  0  0  0
  -29.8010  -22.9800   19.9400 H   0  0  0  0  0  0  0  0  0  0  0  0
  -27.0870  -21.0800   19.5150 C   0  0  0  0  0  1  0  0  0  0  0  0
  -28.3780  -21.4340   20.2870 C   0  0  0  0  0  3  0  0  0  0  0  0
  -28.9370  -18.6700   20.0380 C   0  0  0  0  0  2  0  0  0  0  0  0
  -30.6390  -18.6320   21.6400 C   0  0  0  0  0  2  0  0  0  0  0  0
  -30.1600  -17.7570   20.4630 C   0  0  0  0  0  3  0  0  0  0  0  0
  -29.4280  -20.1820   20.1670 C   0  0  0  0  0  3  0  0  0  0  0  0
  -30.3990  -20.0710   21.2860 N   0  0  0  0  0  4  0  0  0  0  0  0
  -31.2630  -20.4950   20.9960 H   0  0  0  0  0  0  0  0  0  0  0  0
  -30.0690  -20.5620   22.1010 H   0  0  0  0  0  0  0  0  0  0  0  0
  -30.8290  -15.1840   20.6880 C   0  0  0  0  0  0  0  0  0  0  0  0
  -30.7600  -12.8780   19.7390 C   0  0  0  0  0  2  0  0  0  0  0  0
  -29.9160  -12.9350   18.4450 C   0  0  0  0  0  2  0  0  0  0  0  0
  -28.4140  -12.7810   18.7540 C   0  0  0  0  0  2  0  0  0  0  0  0
  -27.9520  -13.6730   19.9360 C   0  0  0  0  0  3  0  0  0  0  0  0
  -28.9210  -13.5870   21.1370 C   0  0  0  0  0  2  0  0  0  0  0  0
  -30.2550  -13.9380   20.6390 N   0  0  0  0  0  0  0  0  0  0  0  0
  -32.0320  -15.3300   20.4470 O   0  0  0  0  0  0  0  0  0  0  0  0
  -29.9640  -16.2680   20.7710 N   0  0  0  0  0  0  0  0  0  0  0  0
  -29.0170  -15.9950   20.9760 H   0  0  0  0  0  0  0  0  0  0  0  0
  -25.5200  -14.2770   20.4820 C   0  0  0  0  0  0  0  0  0  0  0  0
  -24.4290  -13.5060   20.7720 C   0  0  0  0  0  0  0  0  0  0  0  0
  -24.8870  -12.1510   20.7690 C   0  0  0  0  0  0  0  0  0  0  0  0
  -26.5750  -13.3930   20.3200 N   0  0  0  0  0  0  0  0  0  0  0  0
  -26.1980  -12.1100   20.5550 N   0  0  0  0  0  0  0  0  0  0  0  0
  -24.1440  -10.8940   20.8980 C   0  0  0  0  0  0  0  0  0  0  0  0
  -24.5040   -9.9130   21.8480 C   0  0  0  0  0  3  0  0  0  0  0  0
  -23.7600   -8.7200   21.9650 C   0  0  0  0  0  3  0  0  0  0  0  0
  -22.6390   -8.5000   21.1280 C   0  0  0  0  0  0  0  0  0  0  0  0
  -22.2990   -9.4680   20.1660 C   0  0  0  0  0  3  0  0  0  0  0  0
  -23.0460  -10.6520   20.0490 C   0  0  0  0  0  3  0  0  0  0  0  0
  -21.8690   -7.3630   21.1540 O   0  0  0  0  0  0  0  0  0  0  0  0
  -21.7320   -6.6110   22.2950 C   0  0  0  0  0  0  0  0  0  0  0  0
  -21.2030   -7.1560   23.4860 C   0  0  0  0  0  3  0  0  0  0  0  0
  -21.0150   -6.3340   24.6140 C   0  0  0  0  0  3  0  0  0  0  0  0
  -21.3450   -4.9680   24.5510 C   0  0  0  0  0  0  0  0  0  0  0  0
  -21.8660   -4.4210   23.3660 C   0  0  0  0  0  3  0  0  0  0  0  0
  -22.0560   -5.2420   22.2390 C   0  0  0  0  0  0  0  0  0  0  0  0
  -22.5390   -4.7050   21.0920 F   0  0  0  0  0  0  0  0  0  0  0  0
  -21.1580   -4.1740   25.6340 F   0  0  0  0  0  0  0  0  0  0  0  0
  -23.0180  -13.9850   20.9460 C   0  0  0  0  0  0  0  0  0  0  0  0
  -22.2300  -13.2880   21.7580 N   0  0  0  0  0  0  0  0  0  0  0  0
  -22.6220  -15.0140   20.3990 O   0  0  0  0  0  0  0  0  0  0  0  0
  -22.5690  -12.4560   22.2170 H   0  0  0  0  0  0  0  0  0  0  0  0
  -21.2790  -13.5880   21.9200 H   0  0  0  0  0  0  0  0  0  0  0  0
  -25.7000  -15.6500   20.3240 N   0  0  0  0  0  0  0  0  0  0  0  0
  -24.9160  -16.2940   20.3790 H   0  0  0  0  0  0  0  0  0  0  0  0
  -26.5500  -16.0890   19.9990 H   0  0  0  0  0  0  0  0  0  0  0  0
  -28.3380  -25.2630   18.9660 C   0  0  0  0  0  2  0  0  0  0  0  0
  -28.3220  -26.7430   19.2050 O   0  0  0  0  0  0  0  0  0  0  0  0
  -24.7040  -31.7520   22.8950 C   0  0  0  0  0  0  0  0  0  0  0  0
  -27.1750  -27.5480   19.2570 C   0  0  0  0  0  0  0  0  0  0  0  0
  -23.4080  -30.4480   21.2470 C   0  0  0  0  0  3  0  0  0  0  0  0
  -24.7780  -29.0840   19.5600 C   0  0  0  0  0  0  0  0  0  0  0  0
  -25.9120  -30.8750   20.8770 C   0  0  0  0  0  2  0  0  0  0  0  0
  -25.9730  -29.5610   20.1100 C   0  0  0  0  0  0  0  0  0  0  0  0
  -27.1720  -28.8000   19.9530 C   0  0  0  0  0  3  0  0  0  0  0  0
  -25.9580  -27.1330   18.6770 C   0  0  0  0  0  3  0  0  0  0  0  0
  -24.7750  -27.8840   18.8300 C   0  0  0  0  0  3  0  0  0  0  0  0
  -23.5160  -29.8950   19.7990 C   0  0  0  0  0  2  0  0  0  0  0  0
  -24.6980  -31.0410   21.7280 N   0  0  0  0  0  0  0  0  0  0  0  0
  -23.6600  -31.9430   23.5380 O   0  0  0  0  0  0  0  0  0  0  0  0
  -22.8650  -29.3310   22.1680 C   0  0  0  0  0  0  0  0  0  0  0  0
  -21.5450  -29.0800   22.1030 N   0  0  0  0  0  0  0  0  0  0  0  0
  -23.6250  -28.6920   22.8990 O   0  0  0  0  0  0  0  0  0  0  0  0
  -20.9810  -29.6510   21.4900 H   0  0  0  0  0  0  0  0  0  0  0  0
  -18.2920  -27.6050   22.6520 C   0  0  0  0  0  0  0  0  0  0  0  0
  -20.8320  -28.0410   22.8500 C   0  0  0  0  0  3  0  0  0  0  0  0
  -21.0160  -26.6570   22.1820 C   0  0  0  0  0  2  0  0  0  0  0  0
  -19.9020  -26.3080   21.1910 C   0  0  0  0  0  2  0  0  0  0  0  0
  -18.5400  -26.3150   21.8900 C   0  0  0  0  0  2  0  0  0  0  0  0
  -19.3650  -28.4250   23.0890 C   0  0  0  0  0  0  0  0  0  0  0  0
  -19.0720  -29.6320   23.7610 C   0  0  0  0  0  3  0  0  0  0  0  0
  -17.7410  -30.0230   23.9960 C   0  0  0  0  0  3  0  0  0  0  0  0
  -16.6830  -29.1910   23.5860 C   0  0  0  0  0  3  0  0  0  0  0  0
  -16.9600  -27.9870   22.9160 C   0  0  0  0  0  3  0  0  0  0  0  0
  -26.0140  -32.3780   23.4640 C   0  0  0  0  0  3  0  0  0  0  0  0
  -25.6770  -33.7040   24.0020 N   0  0  0  0  0  0  0  0  0  0  0  0
  -25.9040  -34.8600   23.3680 C   0  0  0  0  0  0  0  0  0  0  0  0
  -26.4890  -34.9290   22.2830 O   0  0  0  0  0  0  0  0  0  0  0  0
  -25.1600  -33.7250   24.8690 H   0  0  0  0  0  0  0  0  0  0  0  0
  -24.0880  -36.6000   23.3870 C   0  0  0  0  0  1  0  0  0  0  0  0
  -25.4000  -36.1490   24.0470 C   0  0  0  0  0  3  0  0  0  0  0  0
  -27.5570  -37.0190   24.8460 C   0  0  0  0  0  1  0  0  0  0  0  0
  -26.3830  -37.2520   24.0090 N   0  0  0  0  0  0  0  0  0  0  0  0
  -25.9540  -38.1270   24.2960 H   0  0  0  0  0  0  0  0  0  0  0  0
  -26.7030  -31.4910   24.5730 C   0  0  1  0  0  0  0  0  0  0  0  0
  -25.7420  -31.0620   25.7050 C   0  0  0  0  0  1  0  0  0  0  0  0
  -27.3110  -30.2070   23.9560 C   0  0  0  0  0  1  0  0  0  0  0  0
  -27.8770  -32.2680   25.2140 C   0  0  0  0  0  1  0  0  0  0  0  0
  1 57  1  0
  1  4  1  0
  2  3  1  0
  3  6  2  0
  4  2  2  0
  4  7  1  0
  5  7  1  0
  7  6  1  0
  8  9  1  0
  8  1  1  0
  8 11  1  0
 11 10  1  0
 12 15  1  0
 12 14  1  0
 14 27  1  0
 14 13  1  0
 15 11  1  0
 15 16  1  0
 16 13  1  0
 16 18  1  0
 17 16  1  0
 19 27  1  0
 20 25  1  0
 21 22  1  0
 21 20  1  0
 23 22  1  0
 23 32  1  0
 23 24  1  0
 25 19  1  0
 25 24  1  0
 26 19  2  0
 27 28  1  0
 29 30  2  0
 30 49  1  0
 31 30  1  0
 31 34  1  0
 32 29  1  0
 32 33  1  0
 33 31  2  0
 34 35  1  0
 35 36  2  0
 37 40  1  0
 37 36  1  0
 38 37  2  0
 39 38  1  0
 39 34  2  0
 40 41  1  0
 41 42  1  0
 42 43  2  0
 44 43  1  0
 44 48  1  0
 45 44  2  0
 46 41  2  0
 46 45  1  0
 47 46  1  0
 49 50  1  0
 50 53  1  0
 50 52  1  0
 51 49  2  0
 54 55  1  0
 54 29  1  0
 56 54  1  0
 57 58  1  0
 58 60  1  0
 59 70  2  0
 60 65  1  0
 61 69  1  0
 61 71  1  0
 62 68  1  0
 62 64  1  0
 63 69  1  0
 64 63  1  0
 65 64  2  0
 66 67  1  0
 66 60  2  0
 67 62  2  0
 68 61  1  0
 69 59  1  0
 71 73  2  0
 72 71  1  0
 74 72  1  0
 75 84  2  0
 75 80  1  0
 76 72  1  0
 76 80  1  0
 77 76  1  0
 78 79  1  0
 78 77  1  0
 79 75  1  0
 80 81  2  0
 81 82  1  0
 83 82  2  0
 84 83  1  0
 85 59  1  0
 85 86  1  0
 85 95  1  0
 86 89  1  0
 87 86  1  0
 87 91  1  0
 88 87  2  0
 91 90  1  0
 93 91  1  0
 93 94  1  0
 93 92  1  0
 95 98  1  1
 95 96  1  0
 97 95  1  0
M  ISO  4  19 100  27 100  57 101  58 101
M  END
>  <TORSDO>  (55) 
F 21

>  <SCORE>  (55) 
-11.925

>  <name>  (55) 
55

>  <ligand_id>  (55) 
55

>  <original_smiles>  (55) 
[H]c1nn(C([H])([H])[H])c(C([H])(N([H])C([H])(C([H])([H])[H])C2([H])C([H])([H])C([H])(N([H])C(=O)N3C([H])([H])C([H])([H])C([H])([H])C([H])(n4nc(-c5c([H])c([H])c(Oc6c([H])c([H])c(F)c([H])c6F)c([H])c5[H])c(C(=O)N([H])[H])c4N([H])[H])C3([H])[H])C([H])([H])[N+]2([H])[H])C([H])([H])Oc2c([H])c([H])c3c(c2[H])C([H])([H])N(C(=O)C([H])(N([H])C(=O)C([H])(N([H])C([H])([H])[H])C([H])([H])[H])C(C([H])([H])[H])(C([H])([H])[H])C([H])([H])[H])C([H])(C(=O)N([H])C2([H])c4c([H])c([H])c([H])c([H])c4C([H])([H])C([H])([H])C2([H])[H])C3([H])[H])c1[H]

>  <smiles>  (55) 
[H]c1nn(C([H])([H])[H])c(C([H])(N([H])C([H])(C([H])([H])[H])C2([H])C([H])([H])C([H])(N([H])C(=O)N3C([H])([H])C([H])([H])C([H])([H])C([H])(n4nc(-c5c([H])c([H])c(Oc6c([H])c([H])c(F)c([H])c6F)c([H])c5[H])c(C(=O)N([H])[H])c4N([H])[H])C3([H])[H])C([H])([H])[N+]2([H])[H])C([H])([H])Oc2c([H])c([H])c3c(c2[H])C([H])([H])N(C(=O)C([H])(N([H])C(=O)C([H])(N([H])C([H])([H])[H])C([H])([H])[H])C(C([H])([H])[H])(C([H])([H])[H])C([H])([H])[H])C([H])(C(=O)N([H])C2([H])c4c([H])c([H])c([H])c([H])c4C([H])([H])C([H])([H])C2([H])[H])C3([H])[H])c1[H]

$$$$
56:0:0
     RDKit          3D

 92101  0  0  1  0  0  0  0  0999 V2000
  -30.3380  -24.1040   20.5500 C   0  0  0  0  0  3  0  0  0  0  0  0
  -31.1590  -22.9820   20.7420 C   0  0  0  0  0  3  0  0  0  0  0  0
  -28.9820  -23.8670   20.3010 C   0  0  0  0  0  0  0  0  0  0  0  0
  -29.3940  -21.5560   20.4550 C   0  0  0  0  0  0  0  0  0  0  0  0
  -30.6860  -21.7160   20.6880 N   0  0  0  0  0  0  0  0  0  0  0  0
  -28.5310  -22.5680   20.2640 N   0  0  0  0  0  0  0  0  0  0  0  0
  -28.8970  -20.2390   20.4060 N   0  0  0  0  0  0  0  0  0  0  0  0
  -27.9000  -20.1900   20.2360 H   0  0  0  0  0  0  0  0  0  0  0  0
  -30.7060  -14.6430   20.3040 C   0  0  0  0  0  0  0  0  0  0  0  0
  -30.4130  -12.4100   19.2710 C   0  0  0  0  0  2  0  0  0  0  0  0
  -29.4600  -12.5280   18.0640 C   0  0  0  0  0  2  0  0  0  0  0  0
  -27.9980  -12.3680   18.5190 C   0  0  0  0  0  2  0  0  0  0  0  0
  -27.6510  -13.2460   19.7530 C   0  0  0  0  0  3  0  0  0  0  0  0
  -28.7290  -13.1500   20.8550 C   0  0  0  0  0  2  0  0  0  0  0  0
  -30.0230  -13.4590   20.2330 N   0  0  0  0  0  0  0  0  0  0  0  0
  -31.8940  -14.7030   19.9700 O   0  0  0  0  0  0  0  0  0  0  0  0
  -28.9840  -17.9360   19.3350 C   0  0  0  0  0  2  0  0  0  0  0  0
  -29.7170  -18.1370   21.6420 C   0  0  0  0  0  2  0  0  0  0  0  0
  -29.7490  -16.5770   19.2080 C   0  0  0  0  0  2  0  0  0  0  0  0
  -30.4750  -16.7650   21.5150 C   0  0  0  0  0  2  0  0  0  0  0  0
  -29.6360  -18.9400   20.3180 C   0  0  0  0  0  3  0  0  0  0  0  0
  -29.9980  -15.8190   20.4670 N   0  0  0  0  0  0  0  0  0  0  0  0
  -25.2760  -13.8240   20.5320 C   0  0  0  0  0  0  0  0  0  0  0  0
  -24.2180  -13.0430   20.9090 C   0  0  0  0  0  0  0  0  0  0  0  0
  -24.6830  -11.6930   20.8550 C   0  0  0  0  0  0  0  0  0  0  0  0
  -26.3170  -12.9500   20.2670 N   0  0  0  0  0  0  0  0  0  0  0  0
  -25.9690  -11.6630   20.5230 N   0  0  0  0  0  0  0  0  0  0  0  0
  -23.9630  -10.4260   21.0430 C   0  0  0  0  0  0  0  0  0  0  0  0
  -24.4050   -9.4540   21.9670 C   0  0  0  0  0  3  0  0  0  0  0  0
  -23.6850   -8.2540   22.1440 C   0  0  0  0  0  3  0  0  0  0  0  0
  -22.5080   -8.0150   21.3940 C   0  0  0  0  0  0  0  0  0  0  0  0
  -22.0860   -8.9760   20.4580 C   0  0  0  0  0  3  0  0  0  0  0  0
  -22.8060  -10.1680   20.2790 C   0  0  0  0  0  3  0  0  0  0  0  0
  -21.7580   -6.8670   21.4790 O   0  0  0  0  0  0  0  0  0  0  0  0
  -21.7040   -6.1270   22.6330 C   0  0  0  0  0  0  0  0  0  0  0  0
  -21.2590   -6.6820   23.8530 C   0  0  0  0  0  3  0  0  0  0  0  0
  -21.1530   -5.8690   25.0000 C   0  0  0  0  0  3  0  0  0  0  0  0
  -21.4800   -4.5010   24.9260 C   0  0  0  0  0  0  0  0  0  0  0  0
  -21.9160   -3.9460   23.7100 C   0  0  0  0  0  3  0  0  0  0  0  0
  -22.0250   -4.7560   22.5660 C   0  0  0  0  0  0  0  0  0  0  0  0
  -22.4250   -4.2120   21.3920 F   0  0  0  0  0  0  0  0  0  0  0  0
  -21.3710   -3.7170   26.0240 F   0  0  0  0  0  0  0  0  0  0  0  0
  -22.8240  -13.5130   21.2120 C   0  0  0  0  0  0  0  0  0  0  0  0
  -22.1170  -12.8090   22.0890 N   0  0  0  0  0  0  0  0  0  0  0  0
  -22.3720  -14.5390   20.7050 O   0  0  0  0  0  0  0  0  0  0  0  0
  -22.4970  -11.9790   22.5200 H   0  0  0  0  0  0  0  0  0  0  0  0
  -21.1830  -13.1050   22.3350 H   0  0  0  0  0  0  0  0  0  0  0  0
  -25.4360  -15.1970   20.3710 N   0  0  0  0  0  0  0  0  0  0  0  0
  -24.6790  -15.8560   20.5130 H   0  0  0  0  0  0  0  0  0  0  0  0
  -26.2960  -15.6390   20.0700 H   0  0  0  0  0  0  0  0  0  0  0  0
  -27.9710  -25.0180   19.9880 C   0  0  0  0  0  2  0  0  0  0  0  0
  -28.2870  -26.4460   20.2450 O   0  0  0  0  0  0  0  0  0  0  0  0
  -24.6300  -31.8940   23.2650 C   0  0  0  0  0  0  0  0  0  0  0  0
  -27.1950  -27.3320   20.1770 C   0  0  0  0  0  0  0  0  0  0  0  0
  -23.4120  -30.5130   21.6250 C   0  0  0  0  0  3  0  0  0  0  0  0
  -24.8470  -28.9700   20.1830 C   0  0  0  0  0  0  0  0  0  0  0  0
  -25.9550  -30.8140   21.4370 C   0  0  0  0  0  2  0  0  0  0  0  0
  -26.0230  -29.4410   20.7810 C   0  0  0  0  0  0  0  0  0  0  0  0
  -27.2010  -28.6330   20.7720 C   0  0  0  0  0  3  0  0  0  0  0  0
  -25.9940  -26.9310   19.5400 C   0  0  0  0  0  3  0  0  0  0  0  0
  -24.8340  -27.7210   19.5540 C   0  0  0  0  0  3  0  0  0  0  0  0
  -23.6170  -29.8490   20.2400 C   0  0  0  0  0  2  0  0  0  0  0  0
  -24.6860  -31.0890   22.1660 N   0  0  0  0  0  0  0  0  0  0  0  0
  -23.5500  -32.1770   23.8030 O   0  0  0  0  0  0  0  0  0  0  0  0
  -22.7480  -29.4920   22.5800 C   0  0  0  0  0  0  0  0  0  0  0  0
  -21.4210  -29.3200   22.4540 N   0  0  0  0  0  0  0  0  0  0  0  0
  -23.4250  -28.8580   23.3940 O   0  0  0  0  0  0  0  0  0  0  0  0
  -20.9330  -29.8830   21.7700 H   0  0  0  0  0  0  0  0  0  0  0  0
  -18.0380  -28.1410   22.9550 C   0  0  0  0  0  0  0  0  0  0  0  0
  -20.5980  -28.3850   23.2230 C   0  0  0  0  0  3  0  0  0  0  0  0
  -20.6910  -26.9550   22.6460 C   0  0  0  0  0  2  0  0  0  0  0  0
  -19.5860  -26.6400   21.6320 C   0  0  0  0  0  2  0  0  0  0  0  0
  -18.2060  -26.7920   22.2770 C   0  0  0  0  0  2  0  0  0  0  0  0
  -19.1610  -28.8970   23.3850 C   0  0  0  0  0  0  0  0  0  0  0  0
  -18.9500  -30.1590   23.9790 C   0  0  0  0  0  3  0  0  0  0  0  0
  -17.6480  -30.6690   24.1460 C   0  0  0  0  0  3  0  0  0  0  0  0
  -16.5390  -29.9110   23.7320 C   0  0  0  0  0  3  0  0  0  0  0  0
  -16.7340  -28.6490   23.1430 C   0  0  0  0  0  3  0  0  0  0  0  0
  -25.9190  -32.5160   23.8850 C   0  0  0  0  0  3  0  0  0  0  0  0
  -25.6200  -33.9150   24.2190 N   0  0  0  0  0  0  0  0  0  0  0  0
  -25.9340  -34.9660   23.4490 C   0  0  0  0  0  0  0  0  0  0  0  0
  -26.5750  -34.8590   22.4010 O   0  0  0  0  0  0  0  0  0  0  0  0
  -25.0470  -34.0720   25.0350 H   0  0  0  0  0  0  0  0  0  0  0  0
  -24.1850  -36.7510   23.1500 C   0  0  0  0  0  1  0  0  0  0  0  0
  -25.4580  -36.3560   23.9150 C   0  0  0  0  0  3  0  0  0  0  0  0
  -27.6210  -37.2530   24.6570 C   0  0  0  0  0  1  0  0  0  0  0  0
  -26.4820  -37.4120   23.7560 N   0  0  0  0  0  0  0  0  0  0  0  0
  -26.0790  -38.3320   23.9150 H   0  0  0  0  0  0  0  0  0  0  0  0
  -26.4330  -31.7370   25.1580 C   0  0  1  0  0  0  0  0  0  0  0  0
  -25.3400  -31.5040   26.2260 C   0  0  0  0  0  1  0  0  0  0  0  0
  -27.0060  -30.3580   24.7620 C   0  0  0  0  0  1  0  0  0  0  0  0
  -27.5900  -32.5220   25.8190 C   0  0  0  0  0  1  0  0  0  0  0  0
  1  2  2  0
  3  1  1  0
  4  5  2  0
  5  2  1  0
  6  3  2  0
  6  4  1  0
  7  4  1  0
  8  7  1  0
  9 22  1  0
 10 15  1  0
 11 12  1  0
 11 10  1  0
 13 12  1  0
 13 26  1  0
 13 14  1  0
 15  9  1  0
 15 14  1  0
 16  9  2  0
 17 21  1  0
 19 17  1  0
 19 22  1  0
 20 18  1  0
 21  7  1  0
 21 18  1  0
 22 20  1  0
 23 24  2  0
 24 43  1  0
 25 24  1  0
 25 28  1  0
 26 27  1  0
 26 23  1  0
 27 25  2  0
 28 29  1  0
 29 30  2  0
 31 34  1  0
 31 30  1  0
 32 31  2  0
 33 32  1  0
 33 28  2  0
 34 35  1  0
 35 36  1  0
 36 37  2  0
 38 37  1  0
 38 42  1  0
 39 38  2  0
 40 35  2  0
 40 39  1  0
 41 40  1  0
 43 44  1  0
 44 47  1  0
 44 46  1  0
 45 43  2  0
 48 49  1  0
 48 23  1  0
 50 48  1  0
 51 52  1  0
 51  3  1  0
 53 64  2  0
 54 52  1  0
 54 59  1  0
 55 63  1  0
 55 65  1  0
 56 62  1  0
 56 58  1  0
 57 63  1  0
 58 57  1  0
 59 58  2  0
 60 61  1  0
 60 54  2  0
 61 56  2  0
 62 55  1  0
 63 53  1  0
 65 67  2  0
 66 65  1  0
 68 66  1  0
 69 78  2  0
 69 74  1  0
 70 66  1  0
 70 74  1  0
 71 70  1  0
 72 73  1  0
 72 71  1  0
 73 69  1  0
 74 75  2  0
 75 76  1  0
 77 76  2  0
 78 77  1  0
 79 53  1  0
 79 80  1  0
 79 89  1  0
 80 83  1  0
 81 85  1  0
 81 80  1  0
 82 81  2  0
 85 84  1  0
 87 85  1  0
 87 88  1  0
 87 86  1  0
 89 92  1  1
 89 90  1  0
 91 89  1  0
M  ISO  4   9 100  22 100  51 101  52 101
M  END
>  <TORSDO>  (56) 
F 17

>  <SCORE>  (56) 
-15.013

>  <name>  (56) 
56

>  <ligand_id>  (56) 
56

>  <original_smiles>  (56) 
[H]c1nc(N([H])C2([H])C([H])([H])C([H])([H])N(C(=O)N3C([H])([H])C([H])([H])C([H])([H])C([H])(n4nc(-c5c([H])c([H])c(Oc6c([H])c([H])c(F)c([H])c6F)c([H])c5[H])c(C(=O)N([H])[H])c4N([H])[H])C3([H])[H])C([H])([H])C2([H])[H])nc(C([H])([H])Oc2c([H])c([H])c3c(c2[H])C([H])([H])N(C(=O)C([H])(N([H])C(=O)C([H])(N([H])C([H])([H])[H])C([H])([H])[H])C(C([H])([H])[H])(C([H])([H])[H])C([H])([H])[H])C([H])(C(=O)N([H])C2([H])c4c([H])c([H])c([H])c([H])c4C([H])([H])C([H])([H])C2([H])[H])C3([H])[H])c1[H]

>  <smiles>  (56) 
[H]c1nc(N([H])C2([H])C([H])([H])C([H])([H])N(C(=O)N3C([H])([H])C([H])([H])C([H])([H])C([H])(n4nc(-c5c([H])c([H])c(Oc6c([H])c([H])c(F)c([H])c6F)c([H])c5[H])c(C(=O)N([H])[H])c4N([H])[H])C3([H])[H])C([H])([H])C2([H])[H])nc(C([H])([H])Oc2c([H])c([H])c3c(c2[H])C([H])([H])N(C(=O)C([H])(N([H])C(=O)C([H])(N([H])C([H])([H])[H])C([H])([H])[H])C(C([H])([H])[H])(C([H])([H])[H])C([H])([H])[H])C([H])(C(=O)N([H])C2([H])c4c([H])c([H])c([H])c([H])c4C([H])([H])C([H])([H])C2([H])[H])C3([H])[H])c1[H]

$$$$
57:0:0
     RDKit          3D

 95104  0  0  1  0  0  0  0  0999 V2000
  -30.9290  -14.5460   20.4230 C   0  0  0  0  0  0  0  0  0  0  0  0
  -30.6330  -12.3370   19.4040 C   0  0  0  0  0  2  0  0  0  0  0  0
  -29.7300  -12.5210   18.1650 C   0  0  0  0  0  2  0  0  0  0  0  0
  -28.2390  -12.4480   18.5480 C   0  0  0  0  0  2  0  0  0  0  0  0
  -27.8800  -13.3230   19.7820 C   0  0  0  0  0  3  0  0  0  0  0  0
  -28.9070  -13.1380   20.9280 C   0  0  0  0  0  2  0  0  0  0  0  0
  -30.2510  -13.3680   20.3750 N   0  0  0  0  0  0  0  0  0  0  0  0
  -32.1240  -14.6520   20.1280 O   0  0  0  0  0  0  0  0  0  0  0  0
  -27.1090  -20.8050   19.8420 C   0  0  0  0  0  3  0  0  0  0  0  0
  -27.2580  -19.6960   19.0090 C   0  0  0  0  0  3  0  0  0  0  0  0
  -28.2150  -21.1700   20.6270 C   0  0  0  0  0  0  0  0  0  0  0  0
  -29.3530  -19.3470   19.8310 C   0  0  0  0  0  0  0  0  0  0  0  0
  -30.7740  -17.5670   18.8750 C   0  0  0  0  0  2  0  0  0  0  0  0
  -30.6590  -17.8700   21.2780 C   0  0  0  0  0  2  0  0  0  0  0  0
  -29.9640  -16.2620   18.9920 C   0  0  0  0  0  2  0  0  0  0  0  0
  -29.8720  -16.5420   21.4310 C   0  0  0  0  0  2  0  0  0  0  0  0
  -28.3930  -18.9820   18.9990 N   0  0  0  0  0  0  0  0  0  0  0  0
  -29.3310  -20.4070   20.6240 N   0  0  0  0  0  0  0  0  0  0  0  0
  -30.4330  -18.4780   19.9650 N   0  0  0  0  0  0  0  0  0  0  0  0
  -30.1240  -15.6230   20.3110 N   0  0  0  0  0  0  0  0  0  0  0  0
  -25.4800  -14.0050   20.4050 C   0  0  0  0  0  0  0  0  0  0  0  0
  -24.3880  -13.2670   20.7720 C   0  0  0  0  0  0  0  0  0  0  0  0
  -24.8260  -11.9080   20.8100 C   0  0  0  0  0  0  0  0  0  0  0  0
  -26.5130  -13.0950   20.2360 N   0  0  0  0  0  0  0  0  0  0  0  0
  -26.1210  -11.8310   20.5360 N   0  0  0  0  0  0  0  0  0  0  0  0
  -24.0720  -10.6670   21.0320 C   0  0  0  0  0  0  0  0  0  0  0  0
  -24.4590   -9.7330   22.0180 C   0  0  0  0  0  3  0  0  0  0  0  0
  -23.7060   -8.5560   22.2200 C   0  0  0  0  0  3  0  0  0  0  0  0
  -22.5530   -8.3050   21.4380 C   0  0  0  0  0  0  0  0  0  0  0  0
  -22.1870   -9.2280   20.4420 C   0  0  0  0  0  3  0  0  0  0  0  0
  -22.9390  -10.3970   20.2390 C   0  0  0  0  0  3  0  0  0  0  0  0
  -21.7770   -7.1760   21.5480 O   0  0  0  0  0  0  0  0  0  0  0  0
  -21.6880   -6.4780   22.7260 C   0  0  0  0  0  0  0  0  0  0  0  0
  -21.2380   -7.0860   23.9180 C   0  0  0  0  0  3  0  0  0  0  0  0
  -21.0930   -6.3160   25.0890 C   0  0  0  0  0  3  0  0  0  0  0  0
  -21.3860   -4.9380   25.0680 C   0  0  0  0  0  0  0  0  0  0  0  0
  -21.8260   -4.3300   23.8800 C   0  0  0  0  0  3  0  0  0  0  0  0
  -21.9730   -5.0990   22.7110 C   0  0  0  0  0  0  0  0  0  0  0  0
  -22.3800   -4.5070   21.5630 F   0  0  0  0  0  0  0  0  0  0  0  0
  -21.2360   -4.1940   26.1890 F   0  0  0  0  0  0  0  0  0  0  0  0
  -22.9940  -13.7780   20.9830 C   0  0  0  0  0  0  0  0  0  0  0  0
  -22.2450  -13.1620   21.8910 N   0  0  0  0  0  0  0  0  0  0  0  0
  -22.5770  -14.7660   20.3780 O   0  0  0  0  0  0  0  0  0  0  0  0
  -22.5900  -12.3690   22.4130 H   0  0  0  0  0  0  0  0  0  0  0  0
  -21.3030  -13.4860   22.0650 H   0  0  0  0  0  0  0  0  0  0  0  0
  -25.6710  -15.3670   20.1840 N   0  0  0  0  0  0  0  0  0  0  0  0
  -26.5380  -15.7970   19.8970 H   0  0  0  0  0  0  0  0  0  0  0  0
  -24.9010  -16.0230   20.2530 H   0  0  0  0  0  0  0  0  0  0  0  0
  -28.1700  -22.3240   21.6290 C   0  0  0  0  0  2  0  0  0  0  0  0
  -26.2480  -23.6670   20.7050 C   0  0  0  0  0  1  0  0  0  0  0  0
  -27.6590  -23.6500   21.1650 N   0  0  2  0  0  4  0  0  0  0  0  0
  -27.6290  -24.1500   22.0390 H   0  0  0  0  0  0  0  0  0  0  0  0
  -28.5730  -24.4640   20.3140 C   0  0  0  0  0  2  0  0  0  0  0  0
  -28.7180  -25.9070   20.8600 C   0  0  0  0  0  2  0  0  0  0  0  0
  -28.5630  -26.9160   19.8580 O   0  0  0  0  0  0  0  0  0  0  0  0
  -24.5550  -31.7890   23.1990 C   0  0  0  0  0  0  0  0  0  0  0  0
  -27.3830  -27.6160   19.9170 C   0  0  0  0  0  0  0  0  0  0  0  0
  -23.4250  -30.4650   21.4390 C   0  0  0  0  0  3  0  0  0  0  0  0
  -24.9530  -29.0480   19.9640 C   0  0  0  0  0  0  0  0  0  0  0  0
  -25.9440  -30.8870   21.3370 C   0  0  0  0  0  2  0  0  0  0  0  0
  -26.0780  -29.5580   20.6250 C   0  0  0  0  0  0  0  0  0  0  0  0
  -27.2970  -28.8440   20.6070 C   0  0  0  0  0  3  0  0  0  0  0  0
  -26.2500  -27.1210   19.2410 C   0  0  0  0  0  3  0  0  0  0  0  0
  -25.0330  -27.8280   19.2670 C   0  0  0  0  0  3  0  0  0  0  0  0
  -23.6870  -29.8720   20.0270 C   0  0  0  0  0  2  0  0  0  0  0  0
  -24.6580  -31.0570   22.0540 N   0  0  0  0  0  0  0  0  0  0  0  0
  -23.4540  -32.0050   23.7240 O   0  0  0  0  0  0  0  0  0  0  0  0
  -22.7690  -29.3750   22.3160 C   0  0  0  0  0  0  0  0  0  0  0  0
  -21.4390  -29.2330   22.1980 N   0  0  0  0  0  0  0  0  0  0  0  0
  -23.4520  -28.6650   23.0600 O   0  0  0  0  0  0  0  0  0  0  0  0
  -20.9490  -29.8600   21.5750 H   0  0  0  0  0  0  0  0  0  0  0  0
  -18.0400  -28.1250   22.7120 C   0  0  0  0  0  0  0  0  0  0  0  0
  -20.6150  -28.2460   22.8940 C   0  0  0  0  0  3  0  0  0  0  0  0
  -20.6290  -26.8890   22.1540 C   0  0  0  0  0  2  0  0  0  0  0  0
  -19.4730  -26.7290   21.1620 C   0  0  0  0  0  2  0  0  0  0  0  0
  -18.1270  -26.8550   21.8820 C   0  0  0  0  0  2  0  0  0  0  0  0
  -19.2080  -28.7850   23.1750 C   0  0  0  0  0  0  0  0  0  0  0  0
  -19.0720  -29.9800   23.9130 C   0  0  0  0  0  3  0  0  0  0  0  0
  -17.8000  -30.5130   24.1960 C   0  0  0  0  0  3  0  0  0  0  0  0
  -16.6460  -29.8460   23.7500 C   0  0  0  0  0  3  0  0  0  0  0  0
  -16.7670  -28.6540   23.0130 C   0  0  0  0  0  3  0  0  0  0  0  0
  -25.8100  -32.4030   23.8950 C   0  0  0  0  0  3  0  0  0  0  0  0
  -26.2680  -31.6010   25.1760 C   0  0  1  0  0  0  0  0  0  0  0  0
  -25.1300  -31.3530   26.1930 C   0  0  0  0  0  1  0  0  0  0  0  0
  -26.8550  -30.2280   24.7770 C   0  0  0  0  0  1  0  0  0  0  0  0
  -27.3960  -32.3720   25.9030 C   0  0  0  0  0  1  0  0  0  0  0  0
  -25.4880  -33.7940   24.2400 N   0  0  0  0  0  0  0  0  0  0  0  0
  -25.8610  -34.8610   23.5210 C   0  0  0  0  0  0  0  0  0  0  0  0
  -26.5850  -34.7780   22.5250 O   0  0  0  0  0  0  0  0  0  0  0  0
  -24.8550  -33.9350   25.0130 H   0  0  0  0  0  0  0  0  0  0  0  0
  -24.1700  -36.6740   23.1010 C   0  0  0  0  0  1  0  0  0  0  0  0
  -25.3530  -36.2400   23.9800 C   0  0  0  0  0  3  0  0  0  0  0  0
  -27.4300  -37.0960   24.9730 C   0  0  0  0  0  1  0  0  0  0  0  0
  -26.3970  -37.2890   23.9600 N   0  0  0  0  0  0  0  0  0  0  0  0
  -25.9850  -38.2090   24.0980 H   0  0  0  0  0  0  0  0  0  0  0  0
  2  7  1  0
  3  4  1  0
  3  2  1  0
  5  4  1  0
  5 24  1  0
  5  6  1  0
  7  1  1  0
  7  6  1  0
  8  1  2  0
  9 11  1  0
 10  9  2  0
 11 49  1  0
 12 19  1  0
 12 18  1  0
 13 15  1  0
 13 19  1  0
 14 16  1  0
 15 20  1  0
 17 10  1  0
 17 12  2  0
 18 11  2  0
 19 14  1  0
 20  1  1  0
 20 16  1  0
 21 22  2  0
 22 23  1  0
 22 41  1  0
 23 26  1  0
 24 21  1  0
 24 25  1  0
 25 23  2  0
 26 27  1  0
 27 28  2  0
 29 32  1  0
 29 28  1  0
 30 29  2  0
 31 30  1  0
 31 26  2  0
 32 33  1  0
 33 34  1  0
 34 35  2  0
 36 35  1  0
 36 40  1  0
 37 36  2  0
 38 33  2  0
 38 37  1  0
 39 38  1  0
 41 42  1  0
 42 45  1  0
 42 44  1  0
 43 41  2  0
 46 48  1  0
 46 21  1  0
 47 46  1  0
 50 51  1  0
 51 49  1  0
 51 52  1  1
 53 54  1  0
 53 51  1  0
 55 57  1  0
 55 54  1  0
 56 67  2  0
 57 62  1  0
 58 66  1  0
 58 68  1  0
 59 65  1  0
 59 61  1  0
 60 66  1  0
 61 60  1  0
 62 61  2  0
 63 64  1  0
 63 57  2  0
 64 59  2  0
 65 58  1  0
 66 56  1  0
 68 70  2  0
 69 68  1  0
 71 69  1  0
 72 81  2  0
 72 77  1  0
 73 69  1  0
 73 77  1  0
 74 73  1  0
 75 76  1  0
 75 74  1  0
 76 72  1  0
 77 78  2  0
 78 79  1  0
 80 79  2  0
 81 80  1  0
 82 56  1  0
 82 87  1  0
 82 83  1  0
 83 86  1  1
 83 84  1  0
 85 83  1  0
 87 90  1  0
 88 92  1  0
 88 87  1  0
 89 88  2  0
 92 91  1  0
 94 92  1  0
 94 95  1  0
 94 93  1  0
M  ISO  4   1 100  20 100  54 101  55 101
M  END
>  <TORSDO>  (57) 
F 19

>  <SCORE>  (57) 
-14.018

>  <name>  (57) 
57

>  <ligand_id>  (57) 
57

>  <original_smiles>  (57) 
[H]c1nc(N2C([H])([H])C([H])([H])N(C(=O)N3C([H])([H])C([H])([H])C([H])([H])C([H])(n4nc(-c5c([H])c([H])c(Oc6c([H])c([H])c(F)c([H])c6F)c([H])c5[H])c(C(=O)N([H])[H])c4N([H])[H])C3([H])[H])C([H])([H])C2([H])[H])nc(C([H])([H])[N+]([H])(C([H])([H])[H])C([H])([H])C([H])([H])Oc2c([H])c([H])c3c(c2[H])C([H])([H])N(C(=O)C([H])(N([H])C(=O)C([H])(N([H])C([H])([H])[H])C([H])([H])[H])C(C([H])([H])[H])(C([H])([H])[H])C([H])([H])[H])C([H])(C(=O)N([H])C2([H])c4c([H])c([H])c([H])c([H])c4C([H])([H])C([H])([H])C2([H])[H])C3([H])[H])c1[H]

>  <smiles>  (57) 
[H]c1nc(N2C([H])([H])C([H])([H])N(C(=O)N3C([H])([H])C([H])([H])C([H])([H])C([H])(n4nc(-c5c([H])c([H])c(Oc6c([H])c([H])c(F)c([H])c6F)c([H])c5[H])c(C(=O)N([H])[H])c4N([H])[H])C3([H])[H])C([H])([H])C2([H])[H])nc(C([H])([H])[N+]([H])(C([H])([H])[H])C([H])([H])C([H])([H])Oc2c([H])c([H])c3c(c2[H])C([H])([H])N(C(=O)C([H])(N([H])C(=O)C([H])(N([H])C([H])([H])[H])C([H])([H])[H])C(C([H])([H])[H])(C([H])([H])[H])C([H])([H])[H])C([H])(C(=O)N([H])C2([H])c4c([H])c([H])c([H])c([H])c4C([H])([H])C([H])([H])C2([H])[H])C3([H])[H])c1[H]

$$$$
58:0:0
     RDKit          3D

 98108  0  0  1  0  0  0  0  0999 V2000
  -30.7510  -14.8150   20.9120 C   0  0  0  0  0  0  0  0  0  0  0  0
  -30.3880  -12.9460   19.3660 C   0  0  0  0  0  2  0  0  0  0  0  0
  -29.4480  -13.4110   18.2350 C   0  0  0  0  0  2  0  0  0  0  0  0
  -27.9700  -13.2500   18.6480 C   0  0  0  0  0  2  0  0  0  0  0  0
  -27.6540  -13.7840   20.0720 C   0  0  0  0  0  3  0  0  0  0  0  0
  -28.7190  -13.3210   21.0940 C   0  0  0  0  0  2  0  0  0  0  0  0
  -30.0440  -13.6990   20.5810 N   0  0  0  0  0  0  0  0  0  0  0  0
  -31.9330  -14.9750   20.6010 O   0  0  0  0  0  0  0  0  0  0  0  0
  -29.5010  -17.1230   19.3850 C   0  0  0  0  0  3  0  0  0  0  0  0
  -29.4370  -18.3410   18.7080 C   0  0  0  0  0  0  0  0  0  0  0  0
  -29.9860  -17.1090   20.7040 C   0  0  0  0  0  0  0  0  0  0  0  0
  -30.2460  -19.3970   20.5630 C   0  0  0  0  0  0  0  0  0  0  0  0
  -30.3620  -22.9660   21.1890 C   0  0  0  0  0  2  0  0  0  0  0  0
  -30.9070  -21.8150   20.3530 C   0  0  0  0  0  2  0  0  0  0  0  0
  -30.4100  -20.9670   22.5330 C   0  0  0  0  0  2  0  0  0  0  0  0
  -30.6280  -22.4970   22.6220 C   0  0  0  0  0  3  0  0  0  0  0  0
  -29.8250  -19.4720   19.3110 N   0  0  0  0  0  0  0  0  0  0  0  0
  -30.3220  -18.2860   21.2970 N   0  0  0  0  0  0  0  0  0  0  0  0
  -30.6420  -20.6030   21.1340 N   0  0  0  0  0  0  0  0  0  0  0  0
  -30.0170  -15.8480   21.3710 N   0  0  0  0  0  0  0  0  0  0  0  0
  -29.1330  -15.5710   21.7590 H   0  0  0  0  0  0  0  0  0  0  0  0
  -25.2150  -14.2540   20.7410 C   0  0  0  0  0  0  0  0  0  0  0  0
  -24.1660  -13.4220   21.0240 C   0  0  0  0  0  0  0  0  0  0  0  0
  -24.6810  -12.0920   20.9250 C   0  0  0  0  0  0  0  0  0  0  0  0
  -26.3000  -13.4280   20.4920 N   0  0  0  0  0  0  0  0  0  0  0  0
  -25.9800  -12.1200   20.6610 N   0  0  0  0  0  0  0  0  0  0  0  0
  -24.0010  -10.7930   21.0070 C   0  0  0  0  0  0  0  0  0  0  0  0
  -24.3290   -9.8500   22.0060 C   0  0  0  0  0  3  0  0  0  0  0  0
  -23.6490   -8.6160   22.0750 C   0  0  0  0  0  3  0  0  0  0  0  0
  -22.6260   -8.3140   21.1430 C   0  0  0  0  0  0  0  0  0  0  0  0
  -22.3210   -9.2470   20.1360 C   0  0  0  0  0  3  0  0  0  0  0  0
  -23.0030  -10.4730   20.0650 C   0  0  0  0  0  3  0  0  0  0  0  0
  -21.9290   -7.1320   21.1150 O   0  0  0  0  0  0  0  0  0  0  0  0
  -21.5500   -6.4940   22.2680 C   0  0  0  0  0  0  0  0  0  0  0  0
  -20.7740   -7.1390   23.2570 C   0  0  0  0  0  3  0  0  0  0  0  0
  -20.3500   -6.4250   24.3970 C   0  0  0  0  0  3  0  0  0  0  0  0
  -20.6930   -5.0670   24.5430 C   0  0  0  0  0  0  0  0  0  0  0  0
  -21.4630   -4.4240   23.5570 C   0  0  0  0  0  3  0  0  0  0  0  0
  -21.8870   -5.1350   22.4230 C   0  0  0  0  0  0  0  0  0  0  0  0
  -22.6110   -4.5060   21.4660 F   0  0  0  0  0  0  0  0  0  0  0  0
  -20.2800   -4.3780   25.6330 F   0  0  0  0  0  0  0  0  0  0  0  0
  -22.7420  -13.8290   21.2770 C   0  0  0  0  0  0  0  0  0  0  0  0
  -22.0440  -13.1150   22.1530 N   0  0  0  0  0  0  0  0  0  0  0  0
  -22.2540  -14.8160   20.7310 O   0  0  0  0  0  0  0  0  0  0  0  0
  -22.4520  -12.3210   22.6260 H   0  0  0  0  0  0  0  0  0  0  0  0
  -21.0870  -13.3690   22.3580 H   0  0  0  0  0  0  0  0  0  0  0  0
  -25.3340  -15.6390   20.6520 N   0  0  0  0  0  0  0  0  0  0  0  0
  -24.5400  -16.2580   20.7720 H   0  0  0  0  0  0  0  0  0  0  0  0
  -26.1700  -16.1250   20.3560 H   0  0  0  0  0  0  0  0  0  0  0  0
  -27.5930  -19.2650   17.1490 C   0  0  0  0  0  2  0  0  0  0  0  0
  -27.6310  -17.7880   16.8380 C   0  0  0  0  0  2  0  0  0  0  0  0
  -28.8790  -18.4940   17.3240 C   0  0  0  0  0  3  0  0  0  0  0  0
  -29.7830  -23.1750   23.6350 N   0  0  0  0  0  4  0  0  0  0  0  0
  -30.1200  -22.9220   24.5520 H   0  0  0  0  0  0  0  0  0  0  0  0
  -28.8460  -22.8090   23.5590 H   0  0  0  0  0  0  0  0  0  0  0  0
  -29.7320  -24.6610   23.5490 C   0  0  0  0  0  2  0  0  0  0  0  0
  -28.3300  -25.1950   23.8950 C   0  0  0  0  0  2  0  0  0  0  0  0
  -28.1740  -26.5670   23.5210 O   0  0  0  0  0  0  0  0  0  0  0  0
  -28.3470  -32.1790   27.8610 C   0  0  0  0  0  0  0  0  0  0  0  0
  -27.4650  -27.3370   24.4170 C   0  0  0  0  0  0  0  0  0  0  0  0
  -26.3760  -30.7040   28.1010 C   0  0  0  0  0  3  0  0  0  0  0  0
  -26.0720  -28.9570   26.2700 C   0  0  0  0  0  0  0  0  0  0  0  0
  -27.5920  -30.9000   25.8600 C   0  0  0  0  0  2  0  0  0  0  0  0
  -27.1740  -29.4720   25.5770 C   0  0  0  0  0  0  0  0  0  0  0  0
  -27.8630  -28.6730   24.6410 C   0  0  0  0  0  3  0  0  0  0  0  0
  -26.3410  -26.8330   25.1140 C   0  0  0  0  0  3  0  0  0  0  0  0
  -25.6490  -27.6360   26.0400 C   0  0  0  0  0  3  0  0  0  0  0  0
  -25.3780  -29.8840   27.2410 C   0  0  0  0  0  2  0  0  0  0  0  0
  -27.4970  -31.2810   27.2890 N   0  0  0  0  0  0  0  0  0  0  0  0
  -28.1820  -32.5650   29.0270 O   0  0  0  0  0  0  0  0  0  0  0  0
  -26.8570  -29.8200   29.2740 C   0  0  0  0  0  0  0  0  0  0  0  0
  -26.0950  -29.8290   30.3790 N   0  0  0  0  0  0  0  0  0  0  0  0
  -27.8730  -29.1270   29.1690 O   0  0  0  0  0  0  0  0  0  0  0  0
  -25.2830  -30.4310   30.3880 H   0  0  0  0  0  0  0  0  0  0  0  0
  -24.9750  -29.3220   33.7780 C   0  0  0  0  0  0  0  0  0  0  0  0
  -26.3280  -29.0460   31.5930 C   0  0  0  0  0  3  0  0  0  0  0  0
  -25.6780  -27.6480   31.4860 C   0  0  0  0  0  2  0  0  0  0  0  0
  -24.2630  -27.5940   32.0710 C   0  0  0  0  0  2  0  0  0  0  0  0
  -24.2770  -27.9920   33.5490 C   0  0  0  0  0  2  0  0  0  0  0  0
  -25.9260  -29.8250   32.8500 C   0  0  0  0  0  0  0  0  0  0  0  0
  -26.5190  -31.0830   33.0920 C   0  0  0  0  0  3  0  0  0  0  0  0
  -26.1780  -31.8320   34.2320 C   0  0  0  0  0  3  0  0  0  0  0  0
  -25.2480  -31.3230   35.1560 C   0  0  0  0  0  3  0  0  0  0  0  0
  -24.6530  -30.0690   34.9290 C   0  0  0  0  0  3  0  0  0  0  0  0
  -29.5520  -32.7840   27.0740 C   0  0  0  0  0  3  0  0  0  0  0  0
  -30.8920  -31.9740   27.2650 C   0  0  1  0  0  0  0  0  0  0  0  0
  -31.2220  -31.6570   28.7430 C   0  0  0  0  0  1  0  0  0  0  0  0
  -30.8280  -30.6350   26.4950 C   0  0  0  0  0  1  0  0  0  0  0  0
  -32.0770  -32.7720   26.6710 C   0  0  0  0  0  1  0  0  0  0  0  0
  -29.7170  -34.1740   27.5190 N   0  0  0  0  0  0  0  0  0  0  0  0
  -29.3370  -35.2490   26.8140 C   0  0  0  0  0  0  0  0  0  0  0  0
  -28.8700  -35.1700   25.6750 O   0  0  0  0  0  0  0  0  0  0  0  0
  -30.0370  -34.3110   28.4670 H   0  0  0  0  0  0  0  0  0  0  0  0
  -28.1480  -37.0990   28.0340 C   0  0  0  0  0  1  0  0  0  0  0  0
  -29.5010  -36.6280   27.4790 C   0  0  0  0  0  3  0  0  0  0  0  0
  -31.4480  -37.4210   26.2100 C   0  0  0  0  0  1  0  0  0  0  0  0
  -30.0530  -37.6570   26.5710 N   0  0  0  0  0  0  0  0  0  0  0  0
  -29.9840  -38.5810   26.9880 H   0  0  0  0  0  0  0  0  0  0  0  0
  1 20  1  0
  2  7  1  0
  3  4  1  0
  3  2  1  0
  5  4  1  0
  5 25  1  0
  5  6  1  0
  7  1  1  0
  7  6  1  0
  8  1  2  0
  9 11  1  0
 10 17  1  0
 10  9  2  0
 11 18  2  0
 11 20  1  0
 12 19  1  0
 12 18  1  0
 13 16  1  0
 14 19  1  0
 14 13  1  0
 15 16  1  0
 16 53  1  0
 17 12  2  0
 19 15  1  0
 20 21  1  0
 22 23  2  0
 23 42  1  0
 24 27  1  0
 24 23  1  0
 25 26  1  0
 25 22  1  0
 26 24  2  0
 27 28  1  0
 28 29  2  0
 30 29  1  0
 31 30  2  0
 32 31  1  0
 32 27  2  0
 33 30  1  0
 33 34  1  0
 34 39  2  0
 34 35  1  0
 35 36  2  0
 36 37  1  0
 37 41  1  0
 38 37  2  0
 39 38  1  0
 40 39  1  0
 42 43  1  0
 43 46  1  0
 43 45  1  0
 44 42  2  0
 47 22  1  0
 47 48  1  0
 49 47  1  0
 50 52  1  0
 51 50  1  0
 51 52  1  0
 52 10  1  0
 53 54  1  0
 55 53  1  0
 56 53  1  0
 56 57  1  0
 58 57  1  0
 58 60  1  0
 59 70  2  0
 60 65  2  0
 60 66  1  0
 61 71  1  0
 62 68  1  0
 63 69  1  0
 64 63  1  0
 64 62  2  0
 65 64  1  0
 66 67  2  0
 67 62  1  0
 68 61  1  0
 69 59  1  0
 69 61  1  0
 71 72  1  0
 72 74  1  0
 73 71  2  0
 75 84  1  0
 76 72  1  0
 76 80  1  0
 77 76  1  0
 77 78  1  0
 78 79  1  0
 79 75  1  0
 80 81  1  0
 80 75  2  0
 81 82  2  0
 82 83  1  0
 84 83  2  0
 85 86  1  0
 85 90  1  0
 85 59  1  0
 86 87  1  1
 88 86  1  0
 89 86  1  0
 90 93  1  0
 91 95  1  0
 91 90  1  0
 92 91  2  0
 95 94  1  0
 96 97  1  0
 97 98  1  0
 97 95  1  0
M  ISO  4   1 100  20 100  57 101  58 101
M  END
>  <TORSDO>  (58) 
F 19

>  <SCORE>  (58) 
-8.644

>  <name>  (58) 
58

>  <ligand_id>  (58) 
58

>  <original_smiles>  (58) 
[H]c1c(N([H])C(=O)N2C([H])([H])C([H])([H])C([H])([H])C([H])(n3nc(-c4c([H])c([H])c(Oc5c([H])c([H])c(F)c([H])c5F)c([H])c4[H])c(C(=O)N([H])[H])c3N([H])[H])C2([H])[H])nc(N2C([H])([H])C([H])([H])C([H])([N+]([H])([H])C([H])([H])C([H])([H])Oc3c([H])c([H])c4c(c3[H])C([H])([H])N(C(=O)C([H])(N([H])C(=O)C([H])(N([H])C([H])([H])[H])C([H])([H])[H])C(C([H])([H])[H])(C([H])([H])[H])C([H])([H])[H])C([H])(C(=O)N([H])C3([H])c5c([H])c([H])c([H])c([H])c5C([H])([H])C([H])([H])C3([H])[H])C4([H])[H])C2([H])[H])nc1C1([H])C([H])([H])C1([H])[H]

>  <smiles>  (58) 
[H]c1c(N([H])C(=O)N2C([H])([H])C([H])([H])C([H])([H])C([H])(n3nc(-c4c([H])c([H])c(Oc5c([H])c([H])c(F)c([H])c5F)c([H])c4[H])c(C(=O)N([H])[H])c3N([H])[H])C2([H])[H])nc(N2C([H])([H])C([H])([H])C([H])([N+]([H])([H])C([H])([H])C([H])([H])Oc3c([H])c([H])c4c(c3[H])C([H])([H])N(C(=O)C([H])(N([H])C(=O)C([H])(N([H])C([H])([H])[H])C([H])([H])[H])C(C([H])([H])[H])(C([H])([H])[H])C([H])([H])[H])C([H])(C(=O)N([H])C3([H])c5c([H])c([H])c([H])c([H])c5C([H])([H])C([H])([H])C3([H])[H])C4([H])[H])C2([H])[H])nc1C1([H])C([H])([H])C1([H])[H]

$$$$
59:0:0
     RDKit          3D

 89 98  0  0  1  0  0  0  0  0999 V2000
  -30.6020  -15.0110   20.4000 C   0  0  0  0  0  0  0  0  0  0  0  0
  -30.3920  -12.6550   19.4860 C   0  0  0  0  0  2  0  0  0  0  0  0
  -29.5000  -12.5700   18.2300 C   0  0  0  0  0  2  0  0  0  0  0  0
  -28.0350  -12.3520   18.6430 C   0  0  0  0  0  2  0  0  0  0  0  0
  -27.5960  -13.3000   19.7900 C   0  0  0  0  0  3  0  0  0  0  0  0
  -28.6320  -13.4020   20.9300 C   0  0  0  0  0  2  0  0  0  0  0  0
  -29.8980  -13.8040   20.3120 N   0  0  0  0  0  0  0  0  0  0  0  0
  -31.8180  -14.9040   20.2070 O   0  0  0  0  0  0  0  0  0  0  0  0
  -30.1820  -22.0740   21.0440 C   0  0  0  0  0  3  0  0  0  0  0  0
  -29.2240  -21.1600   20.4840 C   0  0  0  0  0  0  0  0  0  0  0  0
  -30.5450  -18.9310   21.0490 C   0  0  0  0  0  3  0  0  0  0  0  0
  -28.4490  -18.5450   19.9910 C   0  0  0  0  0  3  0  0  0  0  0  0
  -30.9820  -17.5500   20.3580 C   0  0  0  0  0  3  0  0  0  0  0  0
  -28.6820  -16.9770   20.4710 C   0  0  0  0  0  3  0  0  0  0  0  0
  -29.8390  -23.3570   20.9380 N   0  0  0  0  0  0  0  0  0  0  0  0
  -28.2530  -21.9850   20.0230 N   0  0  0  0  0  0  0  0  0  0  0  0
  -28.6340  -23.3490   20.3010 N   0  0  0  0  0  0  0  0  0  0  0  0
  -29.3710  -19.6380   20.4680 N   0  0  0  0  0  0  0  0  0  0  0  0
  -30.0640  -16.3550   20.4600 N   0  0  0  0  0  0  0  0  0  0  0  0
  -25.2050  -13.8610   20.4910 C   0  0  0  0  0  0  0  0  0  0  0  0
  -24.1400  -13.0800   20.8430 C   0  0  0  0  0  0  0  0  0  0  0  0
  -24.6180  -11.7330   20.8380 C   0  0  0  0  0  0  0  0  0  0  0  0
  -26.2590  -12.9900   20.2790 N   0  0  0  0  0  0  0  0  0  0  0  0
  -25.9170  -11.7060   20.5580 N   0  0  0  0  0  0  0  0  0  0  0  0
  -23.8980  -10.4680   21.0280 C   0  0  0  0  0  0  0  0  0  0  0  0
  -24.3240   -9.5080   21.9720 C   0  0  0  0  0  3  0  0  0  0  0  0
  -23.6020   -8.3070   22.1480 C   0  0  0  0  0  3  0  0  0  0  0  0
  -22.4390   -8.0590   21.3800 C   0  0  0  0  0  0  0  0  0  0  0  0
  -22.0330   -9.0090   20.4270 C   0  0  0  0  0  3  0  0  0  0  0  0
  -22.7550  -10.2000   20.2480 C   0  0  0  0  0  3  0  0  0  0  0  0
  -21.6880   -6.9120   21.4660 O   0  0  0  0  0  0  0  0  0  0  0  0
  -21.6350   -6.1710   22.6190 C   0  0  0  0  0  0  0  0  0  0  0  0
  -21.2060   -6.7300   23.8430 C   0  0  0  0  0  3  0  0  0  0  0  0
  -21.0980   -5.9160   24.9890 C   0  0  0  0  0  3  0  0  0  0  0  0
  -21.4100   -4.5450   24.9120 C   0  0  0  0  0  0  0  0  0  0  0  0
  -21.8320   -3.9870   23.6930 C   0  0  0  0  0  3  0  0  0  0  0  0
  -21.9420   -4.7980   22.5490 C   0  0  0  0  0  0  0  0  0  0  0  0
  -22.3290   -4.2500   21.3730 F   0  0  0  0  0  0  0  0  0  0  0  0
  -21.3020   -3.7620   26.0110 F   0  0  0  0  0  0  0  0  0  0  0  0
  -22.7350  -13.5500   21.0730 C   0  0  0  0  0  0  0  0  0  0  0  0
  -21.9930  -12.8660   21.9370 N   0  0  0  0  0  0  0  0  0  0  0  0
  -22.3020  -14.5610   20.5220 O   0  0  0  0  0  0  0  0  0  0  0  0
  -22.3550  -12.0480   22.4040 H   0  0  0  0  0  0  0  0  0  0  0  0
  -21.0500  -13.1710   22.1350 H   0  0  0  0  0  0  0  0  0  0  0  0
  -25.3580  -15.2310   20.3030 N   0  0  0  0  0  0  0  0  0  0  0  0
  -24.5870  -15.8800   20.4110 H   0  0  0  0  0  0  0  0  0  0  0  0
  -26.2130  -15.6790   20.0040 H   0  0  0  0  0  0  0  0  0  0  0  0
  -27.7850  -24.6450   19.9470 C   0  0  0  0  0  2  0  0  0  0  0  0
  -28.1900  -26.1010   20.2520 O   0  0  0  0  0  0  0  0  0  0  0  0
  -24.6390  -31.8760   23.2390 C   0  0  0  0  0  0  0  0  0  0  0  0
  -27.1770  -27.1390   20.1750 C   0  0  0  0  0  0  0  0  0  0  0  0
  -23.4290  -30.4910   21.6020 C   0  0  0  0  0  3  0  0  0  0  0  0
  -24.8660  -28.9240   20.1610 C   0  0  0  0  0  0  0  0  0  0  0  0
  -25.9880  -30.7380   21.4350 C   0  0  0  0  0  2  0  0  0  0  0  0
  -26.0530  -29.3480   20.7720 C   0  0  0  0  0  0  0  0  0  0  0  0
  -27.2080  -28.4720   20.7650 C   0  0  0  0  0  3  0  0  0  0  0  0
  -25.9640  -26.8390   19.5100 C   0  0  0  0  0  3  0  0  0  0  0  0
  -24.8370  -27.6830   19.5130 C   0  0  0  0  0  3  0  0  0  0  0  0
  -23.6440  -29.8270   20.2180 C   0  0  0  0  0  2  0  0  0  0  0  0
  -24.7050  -31.0560   22.1460 N   0  0  0  0  0  0  0  0  0  0  0  0
  -23.5530  -32.1630   23.7700 O   0  0  0  0  0  0  0  0  0  0  0  0
  -22.7520  -29.4790   22.5600 C   0  0  0  0  0  0  0  0  0  0  0  0
  -21.4210  -29.3120   22.4400 N   0  0  0  0  0  0  0  0  0  0  0  0
  -23.4240  -28.8480   23.3800 O   0  0  0  0  0  0  0  0  0  0  0  0
  -20.9340  -29.8730   21.7540 H   0  0  0  0  0  0  0  0  0  0  0  0
  -18.0420  -28.1110   22.9520 C   0  0  0  0  0  0  0  0  0  0  0  0
  -20.6010  -28.3760   23.2130 C   0  0  0  0  0  3  0  0  0  0  0  0
  -20.7020  -26.9430   22.6420 C   0  0  0  0  0  2  0  0  0  0  0  0
  -19.5980  -26.6170   21.6290 C   0  0  0  0  0  2  0  0  0  0  0  0
  -18.2170  -26.7620   22.2750 C   0  0  0  0  0  2  0  0  0  0  0  0
  -19.1600  -28.8750   23.3770 C   0  0  0  0  0  0  0  0  0  0  0  0
  -18.9390  -30.1360   23.9730 C   0  0  0  0  0  3  0  0  0  0  0  0
  -17.6340  -30.6340   24.1440 C   0  0  0  0  0  3  0  0  0  0  0  0
  -16.5300  -29.8680   23.7320 C   0  0  0  0  0  3  0  0  0  0  0  0
  -16.7350  -28.6080   23.1420 C   0  0  0  0  0  3  0  0  0  0  0  0
  -25.9190  -32.5080   23.8630 C   0  0  0  0  0  3  0  0  0  0  0  0
  -25.6080  -33.9050   24.2050 N   0  0  0  0  0  0  0  0  0  0  0  0
  -25.9220  -34.9660   23.4510 C   0  0  0  0  0  0  0  0  0  0  0  0
  -26.5730  -34.8730   22.4060 O   0  0  0  0  0  0  0  0  0  0  0  0
  -25.0260  -34.0500   25.0170 H   0  0  0  0  0  0  0  0  0  0  0  0
  -24.1750  -36.7550   23.1590 C   0  0  0  0  0  1  0  0  0  0  0  0
  -25.4420  -36.3510   23.9300 C   0  0  0  0  0  3  0  0  0  0  0  0
  -27.5960  -37.2430   24.7020 C   0  0  0  0  0  1  0  0  0  0  0  0
  -26.4640  -37.4100   23.7930 N   0  0  0  0  0  0  0  0  0  0  0  0
  -26.0590  -38.3280   23.9580 H   0  0  0  0  0  0  0  0  0  0  0  0
  -26.4340  -31.7330   25.1370 C   0  0  1  0  0  0  0  0  0  0  0  0
  -25.3430  -31.5000   26.2080 C   0  0  0  0  0  1  0  0  0  0  0  0
  -27.0120  -30.3520   24.7480 C   0  0  0  0  0  1  0  0  0  0  0  0
  -27.5910  -32.5220   25.7970 C   0  0  0  0  0  1  0  0  0  0  0  0
  1 19  1  0
  2  7  1  0
  3  4  1  0
  3  2  1  0
  5  4  1  0
  5 23  1  0
  5  6  1  0
  7  1  1  0
  7  6  1  0
  8  1  2  0
 10  9  1  0
 12 18  1  0
 12 14  2  0
 13 19  1  0
 13 11  2  0
 15  9  2  0
 16 17  1  0
 16 10  2  0
 17 15  1  0
 18 10  1  0
 18 11  1  0
 19 14  1  0
 20 21  2  0
 21 40  1  0
 22 21  1  0
 22 25  1  0
 23 20  1  0
 23 24  1  0
 24 22  2  0
 25 26  1  0
 26 27  2  0
 28 31  1  0
 28 27  1  0
 29 28  2  0
 30 29  1  0
 30 25  2  0
 31 32  1  0
 32 33  1  0
 33 34  2  0
 35 34  1  0
 35 39  1  0
 36 35  2  0
 37 32  2  0
 37 36  1  0
 38 37  1  0
 40 41  1  0
 41 44  1  0
 41 43  1  0
 42 40  2  0
 45 46  1  0
 45 20  1  0
 47 45  1  0
 48 49  1  0
 48 17  1  0
 50 61  2  0
 51 49  1  0
 51 56  1  0
 52 60  1  0
 52 62  1  0
 53 59  1  0
 53 55  1  0
 54 60  1  0
 55 54  1  0
 56 55  2  0
 57 58  1  0
 57 51  2  0
 58 53  2  0
 59 52  1  0
 60 50  1  0
 62 64  2  0
 63 62  1  0
 65 63  1  0
 66 75  2  0
 66 71  1  0
 67 63  1  0
 67 71  1  0
 68 67  1  0
 69 70  1  0
 69 68  1  0
 70 66  1  0
 71 72  2  0
 72 73  1  0
 74 73  2  0
 75 74  1  0
 76 50  1  0
 76 77  1  0
 76 86  1  0
 77 80  1  0
 78 82  1  0
 78 77  1  0
 79 78  2  0
 82 81  1  0
 84 82  1  0
 84 85  1  0
 84 83  1  0
 86 89  1  1
 86 87  1  0
 88 86  1  0
M  ISO  4   1 100  19 100  48 101  49 101
M  END
>  <TORSDO>  (59) 
F 16

>  <SCORE>  (59) 
-15.646

>  <name>  (59) 
59

>  <ligand_id>  (59) 
59

>  <original_smiles>  (59) 
[H]c1nn(C([H])([H])Oc2c([H])c([H])c3c(c2[H])C([H])([H])N(C(=O)C([H])(N([H])C(=O)C([H])(N([H])C([H])([H])[H])C([H])([H])[H])C(C([H])([H])[H])(C([H])([H])[H])C([H])([H])[H])C([H])(C(=O)N([H])C2([H])c4c([H])c([H])c([H])c([H])c4C([H])([H])C([H])([H])C2([H])[H])C3([H])[H])nc1N1C([H])([H])C([H])([H])N(C(=O)N2C([H])([H])C([H])([H])C([H])([H])C([H])(n3nc(-c4c([H])c([H])c(Oc5c([H])c([H])c(F)c([H])c5F)c([H])c4[H])c(C(=O)N([H])[H])c3N([H])[H])C2([H])[H])C([H])([H])C1([H])[H]

>  <smiles>  (59) 
[H]c1nn(C([H])([H])Oc2c([H])c([H])c3c(c2[H])C([H])([H])N(C(=O)C([H])(N([H])C(=O)C([H])(N([H])C([H])([H])[H])C([H])([H])[H])C(C([H])([H])[H])(C([H])([H])[H])C([H])([H])[H])C([H])(C(=O)N([H])C2([H])c4c([H])c([H])c([H])c([H])c4C([H])([H])C([H])([H])C2([H])[H])C3([H])[H])nc1N1C([H])([H])C([H])([H])N(C(=O)N2C([H])([H])C([H])([H])C([H])([H])C([H])(n3nc(-c4c([H])c([H])c(Oc5c([H])c([H])c(F)c([H])c5F)c([H])c4[H])c(C(=O)N([H])[H])c3N([H])[H])C2([H])[H])C([H])([H])C1([H])[H]

$$$$
60:0:0
     RDKit          3D

 88 96  0  0  1  0  0  0  0  0999 V2000
  -28.7410  -21.8950   20.3910 N   0  0  0  0  0  4  0  0  0  0  0  0
  -29.1510  -21.9370   21.3100 H   0  0  0  0  0  0  0  0  0  0  0  0
  -27.7630  -21.7040   20.5320 H   0  0  0  0  0  0  0  0  0  0  0  0
  -29.3540  -20.5900   19.7110 C   0  0  0  0  0  2  0  0  0  0  0  0
  -30.5070  -15.0720   20.1260 C   0  0  0  0  0  0  0  0  0  0  0  0
  -30.3550  -12.7400   19.1400 C   0  0  0  0  0  2  0  0  0  0  0  0
  -29.3850  -12.6880   17.9380 C   0  0  0  0  0  2  0  0  0  0  0  0
  -27.9360  -12.4470   18.3990 C   0  0  0  0  0  2  0  0  0  0  0  0
  -27.5580  -13.3310   19.6090 C   0  0  0  0  0  3  0  0  0  0  0  0
  -28.6480  -13.3560   20.7080 C   0  0  0  0  0  2  0  0  0  0  0  0
  -29.8790  -13.8200   20.0580 N   0  0  0  0  0  0  0  0  0  0  0  0
  -31.7100  -15.0690   19.8360 O   0  0  0  0  0  0  0  0  0  0  0  0
  -28.0600  -18.1770   20.3180 C   0  0  0  0  0  2  0  0  0  0  0  0
  -28.4390  -16.6740   20.6430 C   0  0  0  0  0  2  0  0  0  0  0  0
  -30.3410  -17.7880   19.9650 C   0  0  0  0  0  2  0  0  0  0  0  0
  -29.3410  -19.0300   20.3990 C   0  0  0  0  0  3  0  0  0  0  0  0
  -29.8230  -16.3490   20.2330 N   0  0  0  0  0  0  0  0  0  0  0  0
  -25.1960  -13.9020   20.4180 C   0  0  0  0  0  0  0  0  0  0  0  0
  -24.1500  -13.1220   20.8250 C   0  0  0  0  0  0  0  0  0  0  0  0
  -24.6240  -11.7780   20.7770 C   0  0  0  0  0  0  0  0  0  0  0  0
  -26.2370  -13.0310   20.1470 N   0  0  0  0  0  0  0  0  0  0  0  0
  -25.9060  -11.7460   20.4310 N   0  0  0  0  0  0  0  0  0  0  0  0
  -23.9080  -10.5150   20.9720 C   0  0  0  0  0  0  0  0  0  0  0  0
  -24.3670   -9.5460   21.8930 C   0  0  0  0  0  3  0  0  0  0  0  0
  -23.6490   -8.3460   22.0810 C   0  0  0  0  0  3  0  0  0  0  0  0
  -22.4600   -8.1070   21.3480 C   0  0  0  0  0  0  0  0  0  0  0  0
  -22.0260   -9.0630   20.4140 C   0  0  0  0  0  3  0  0  0  0  0  0
  -22.7460  -10.2530   20.2220 C   0  0  0  0  0  3  0  0  0  0  0  0
  -21.7010   -6.9660   21.4580 O   0  0  0  0  0  0  0  0  0  0  0  0
  -21.6670   -6.2310   22.6150 C   0  0  0  0  0  0  0  0  0  0  0  0
  -21.2550   -6.7910   23.8450 C   0  0  0  0  0  3  0  0  0  0  0  0
  -21.1660   -5.9780   24.9940 C   0  0  0  0  0  3  0  0  0  0  0  0
  -21.4790   -4.6080   24.9140 C   0  0  0  0  0  0  0  0  0  0  0  0
  -21.8850   -4.0490   23.6890 C   0  0  0  0  0  3  0  0  0  0  0  0
  -21.9770   -4.8580   22.5440 C   0  0  0  0  0  0  0  0  0  0  0  0
  -22.3480   -4.3070   21.3620 F   0  0  0  0  0  0  0  0  0  0  0  0
  -21.3860   -3.8290   26.0140 F   0  0  0  0  0  0  0  0  0  0  0  0
  -22.7610  -13.5960   21.1350 C   0  0  0  0  0  0  0  0  0  0  0  0
  -22.0610  -12.9020   22.0240 N   0  0  0  0  0  0  0  0  0  0  0  0
  -22.3120  -14.6210   20.6250 O   0  0  0  0  0  0  0  0  0  0  0  0
  -22.4430  -12.0780   22.4640 H   0  0  0  0  0  0  0  0  0  0  0  0
  -21.1270  -13.1980   22.2700 H   0  0  0  0  0  0  0  0  0  0  0  0
  -25.3160  -15.2720   20.2370 N   0  0  0  0  0  0  0  0  0  0  0  0
  -24.5400  -15.9080   20.3900 H   0  0  0  0  0  0  0  0  0  0  0  0
  -26.1270  -15.7320   19.8510 H   0  0  0  0  0  0  0  0  0  0  0  0
  -28.8290  -23.3810   19.7970 C   0  0  0  0  0  3  0  0  0  0  0  0
  -28.1260  -24.7280   20.5470 C   0  0  0  0  0  3  0  0  0  0  0  0
  -28.3270  -26.2450   20.2260 O   0  0  0  0  0  0  0  0  0  0  0  0
  -24.6120  -31.8910   23.2280 C   0  0  0  0  0  0  0  0  0  0  0  0
  -27.2470  -27.1980   20.2260 C   0  0  0  0  0  0  0  0  0  0  0  0
  -23.4300  -30.4850   21.5830 C   0  0  0  0  0  3  0  0  0  0  0  0
  -24.8940  -28.9050   20.1870 C   0  0  0  0  0  0  0  0  0  0  0  0
  -25.9840  -30.7660   21.4370 C   0  0  0  0  0  2  0  0  0  0  0  0
  -26.0710  -29.3730   20.7870 C   0  0  0  0  0  0  0  0  0  0  0  0
  -27.2500  -28.5400   20.7830 C   0  0  0  0  0  3  0  0  0  0  0  0
  -26.0410  -26.8220   19.6000 C   0  0  0  0  0  3  0  0  0  0  0  0
  -24.8890  -27.6370   19.5840 C   0  0  0  0  0  3  0  0  0  0  0  0
  -23.6660  -29.7990   20.2110 C   0  0  0  0  0  2  0  0  0  0  0  0
  -24.6950  -31.0680   22.1370 N   0  0  0  0  0  0  0  0  0  0  0  0
  -23.5230  -32.1720   23.7490 O   0  0  0  0  0  0  0  0  0  0  0  0
  -22.7480  -29.4790   22.5420 C   0  0  0  0  0  0  0  0  0  0  0  0
  -21.4220  -29.3050   22.4070 N   0  0  0  0  0  0  0  0  0  0  0  0
  -23.4120  -28.8590   23.3740 O   0  0  0  0  0  0  0  0  0  0  0  0
  -20.9370  -29.8600   21.7150 H   0  0  0  0  0  0  0  0  0  0  0  0
  -18.0450  -28.0830   22.8740 C   0  0  0  0  0  0  0  0  0  0  0  0
  -20.5980  -28.3670   23.1730 C   0  0  0  0  0  3  0  0  0  0  0  0
  -20.7160  -26.9310   22.6120 C   0  0  0  0  0  2  0  0  0  0  0  0
  -19.6300  -26.5900   21.5860 C   0  0  0  0  0  2  0  0  0  0  0  0
  -18.2380  -26.7300   22.2100 C   0  0  0  0  0  2  0  0  0  0  0  0
  -19.1520  -28.8570   23.3120 C   0  0  0  0  0  0  0  0  0  0  0  0
  -18.9150  -30.1200   23.8970 C   0  0  0  0  0  3  0  0  0  0  0  0
  -17.6050  -30.6130   24.0450 C   0  0  0  0  0  3  0  0  0  0  0  0
  -16.5110  -29.8380   23.6270 C   0  0  0  0  0  3  0  0  0  0  0  0
  -16.7330  -28.5760   23.0470 C   0  0  0  0  0  3  0  0  0  0  0  0
  -25.8840  -32.5320   23.8650 C   0  0  0  0  0  3  0  0  0  0  0  0
  -26.3840  -31.7750   25.1580 C   0  0  1  0  0  0  0  0  0  0  0  0
  -25.2780  -31.5590   26.2160 C   0  0  0  0  0  1  0  0  0  0  0  0
  -26.9710  -30.3920   24.7960 C   0  0  0  0  0  1  0  0  0  0  0  0
  -27.5220  -32.5810   25.8270 C   0  0  0  0  0  1  0  0  0  0  0  0
  -25.5690  -33.9330   24.1820 N   0  0  0  0  0  0  0  0  0  0  0  0
  -25.9050  -34.9870   23.4240 C   0  0  0  0  0  0  0  0  0  0  0  0
  -26.5810  -34.8830   22.3990 O   0  0  0  0  0  0  0  0  0  0  0  0
  -24.9780  -34.0890   24.9850 H   0  0  0  0  0  0  0  0  0  0  0  0
  -24.1780  -36.7770   23.0540 C   0  0  0  0  0  1  0  0  0  0  0  0
  -25.4130  -36.3770   23.8750 C   0  0  0  0  0  3  0  0  0  0  0  0
  -27.5420  -37.2650   24.7160 C   0  0  0  0  0  1  0  0  0  0  0  0
  -26.4470  -37.4290   23.7640 N   0  0  0  0  0  0  0  0  0  0  0  0
  -26.0380  -38.3490   23.9110 H   0  0  0  0  0  0  0  0  0  0  0  0
  1  3  1  0
  1  2  1  0
  4  1  1  0
  5 17  1  0
  6 11  1  0
  7  8  1  0
  7  6  1  0
  9  8  1  0
  9 21  1  0
  9 10  1  0
 11  5  1  0
 11 10  1  0
 12  5  2  0
 13 16  1  0
 13 14  1  0
 15 17  1  0
 15 16  1  0
 16  4  1  0
 17 14  1  0
 18 19  2  0
 19 38  1  0
 20 19  1  0
 20 23  1  0
 21 18  1  0
 21 22  1  0
 22 20  2  0
 23 24  1  0
 24 25  2  0
 26 29  1  0
 26 25  1  0
 27 26  2  0
 28 27  1  0
 28 23  2  0
 29 30  1  0
 30 31  1  0
 31 32  2  0
 33 32  1  0
 33 37  1  0
 34 33  2  0
 35 30  2  0
 35 34  1  0
 36 35  1  0
 38 39  1  0
 39 42  1  0
 39 41  1  0
 40 38  2  0
 43 44  1  0
 43 18  1  0
 45 43  1  0
 46  1  1  0
 46 47  2  0
 48 50  1  0
 48 47  1  0
 49 60  2  0
 50 55  1  0
 51 59  1  0
 51 61  1  0
 52 58  1  0
 52 54  1  0
 53 59  1  0
 54 53  1  0
 55 54  2  0
 56 50  2  0
 57 56  1  0
 57 52  2  0
 58 51  1  0
 59 49  1  0
 61 63  2  0
 62 61  1  0
 64 62  1  0
 65 74  2  0
 65 70  1  0
 66 62  1  0
 66 70  1  0
 67 66  1  0
 68 69  1  0
 68 67  1  0
 69 65  1  0
 70 71  2  0
 71 72  1  0
 73 72  2  0
 74 73  1  0
 75 49  1  0
 75 80  1  0
 75 76  1  0
 76 79  1  1
 76 77  1  0
 78 76  1  0
 80 83  1  0
 81 85  1  0
 81 80  1  0
 82 81  2  0
 85 84  1  0
 87 85  1  0
 87 88  1  0
 87 86  1  0
M  ISO  4   5 100  17 100  47 101  48 101
M  END
>  <TORSDO>  (60) 
F 19

>  <SCORE>  (60) 
-14.742

>  <name>  (60) 
60

>  <ligand_id>  (60) 
60

>  <original_smiles>  (60) 
[H]c1c([H])c([H])c2c(c1[H])C([H])([H])C([H])([H])C([H])([H])C2([H])N([H])C(=O)C1([H])N(C(=O)C([H])(N([H])C(=O)C([H])(N([H])C([H])([H])[H])C([H])([H])[H])C(C([H])([H])[H])(C([H])([H])[H])C([H])([H])[H])C([H])([H])c2c([H])c(OC([H])([H])C([H])([H])[N+]([H])([H])C([H])([H])C3([H])C([H])([H])N(C(=O)N4C([H])([H])C([H])([H])C([H])([H])C([H])(n5nc(-c6c([H])c([H])c(Oc7c([H])c([H])c(F)c([H])c7F)c([H])c6[H])c(C(=O)N([H])[H])c5N([H])[H])C4([H])[H])C([H])([H])C3([H])[H])c([H])c([H])c2C1([H])[H]

>  <smiles>  (60) 
[H]c1c([H])c([H])c2c(c1[H])C([H])([H])C([H])([H])C([H])([H])C2([H])N([H])C(=O)C1([H])N(C(=O)C([H])(N([H])C(=O)C([H])(N([H])C([H])([H])[H])C([H])([H])[H])C(C([H])([H])[H])(C([H])([H])[H])C([H])([H])[H])C([H])([H])c2c([H])c(OC([H])([H])C([H])([H])[N+]([H])([H])C([H])([H])C3([H])C([H])([H])N(C(=O)N4C([H])([H])C([H])([H])C([H])([H])C([H])(n5nc(-c6c([H])c([H])c(Oc7c([H])c([H])c(F)c([H])c7F)c([H])c6[H])c(C(=O)N([H])[H])c5N([H])[H])C4([H])[H])C([H])([H])C3([H])[H])c([H])c([H])c2C1([H])[H]

$$$$
61:0:0
     RDKit          3D

 92 92  0  0  1  0  0  0  0  0999 V2000
  -20.3930  -25.5570   20.9250 C   0  0  0  0  0  1  0  0  0  0  0  0
  -20.8690  -27.3450   19.8910 C   0  0  0  0  0  2  0  0  0  0  0  0
  -22.1190  -27.4700   19.1780 C   0  0  0  0  0  2  0  0  0  0  0  0
  -22.9920  -24.2730   19.6690 C   0  0  0  0  0  2  0  0  0  0  0  0
  -26.0500  -21.9780   19.8540 C   0  0  0  0  0  2  0  0  0  0  0  0
  -24.7110  -20.8700   19.4310 C   0  0  0  0  0  2  0  0  0  0  0  0
  -26.5560  -20.1360   19.2950 C   0  0  0  0  0 15  0  0  0  0  0  0
  -21.5690  -24.2770   20.5220 N   0  0  0  0  0  2  0  0  0  0  0  0
  -23.0060  -25.8820   19.0310 N   0  0  0  0  0  2  0  0  0  0  0  0
  -24.4210  -22.6190   19.5270 N   0  0  0  0  0  2  0  0  0  0  0  0
  -20.0800  -28.6260   18.8310 Cl  0  0  0  0  0  0  0  0  0  0  0  0
  -29.2660  -16.9940   19.3300 C   0  0  0  0  0  0  0  0  0  0  0  0
  -30.6070  -14.3700   18.6780 C   0  0  0  0  0  2  0  0  0  0  0  0
  -30.0750  -13.2220   17.6980 C   0  0  0  0  0  2  0  0  0  0  0  0
  -28.8350  -12.5280   18.2600 C   0  0  0  0  0  2  0  0  0  0  0  0
  -28.1130  -13.5910   19.0860 C   0  0  0  0  0  3  0  0  0  0  0  0
  -28.9380  -14.3220   20.1490 C   0  0  0  0  0  2  0  0  0  0  0  0
  -29.5270  -15.4100   19.3580 N   0  0  0  0  0  0  0  0  0  0  0  0
  -30.5340  -17.1050   19.0310 O   0  0  0  0  0  0  0  0  0  0  0  0
  -27.8590  -18.2670   19.4820 N   0  0  0  0  0  2  0  0  0  0  0  0
  -27.1610  -17.6160   19.8270 H   0  0  0  0  0  0  0  0  0  0  0  0
  -25.9130  -14.1720   19.9820 C   0  0  0  0  0  0  0  0  0  0  0  0
  -24.9090  -13.4260   20.4980 C   0  0  0  0  0  0  0  0  0  0  0  0
  -25.3750  -12.0730   20.4940 C   0  0  0  0  0  0  0  0  0  0  0  0
  -26.8880  -13.2540   19.6740 N   0  0  0  0  0  0  0  0  0  0  0  0
  -26.6200  -11.9940   20.0560 N   0  0  0  0  0  0  0  0  0  0  0  0
  -24.6750  -10.8350   20.8000 C   0  0  0  0  0  0  0  0  0  0  0  0
  -24.9730  -10.0840   21.9560 C   0  0  0  0  0  3  0  0  0  0  0  0
  -24.2620   -8.9000   22.2310 C   0  0  0  0  0  3  0  0  0  0  0  0
  -23.2450   -8.4650   21.3470 C   0  0  0  0  0  0  0  0  0  0  0  0
  -22.9780   -9.2040   20.1820 C   0  0  0  0  0  3  0  0  0  0  0  0
  -23.6900  -10.3790   19.9060 C   0  0  0  0  0  3  0  0  0  0  0  0
  -22.5120   -7.3190   21.5230 O   0  0  0  0  0  0  0  0  0  0  0  0
  -21.9240   -7.0250   22.7240 C   0  0  0  0  0  0  0  0  0  0  0  0
  -21.0890   -7.9470   23.3930 C   0  0  0  0  0  3  0  0  0  0  0  0
  -20.4500   -7.5740   24.5920 C   0  0  0  0  0  3  0  0  0  0  0  0
  -20.6370   -6.2820   25.1170 C   0  0  0  0  0  0  0  0  0  0  0  0
  -21.4650   -5.3620   24.4500 C   0  0  0  0  0  3  0  0  0  0  0  0
  -22.1050   -5.7330   23.2550 C   0  0  0  0  0  0  0  0  0  0  0  0
  -22.8870   -4.8380   22.6030 F   0  0  0  0  0  0  0  0  0  0  0  0
  -20.0150   -5.9190   26.2630 F   0  0  0  0  0  0  0  0  0  0  0  0
  -23.5550  -13.9420   20.8510 C   0  0  0  0  0  0  0  0  0  0  0  0
  -22.9590  -13.4080   21.9060 N   0  0  0  0  0  0  0  0  0  0  0  0
  -23.0450  -14.8640   20.2130 O   0  0  0  0  0  0  0  0  0  0  0  0
  -23.3990  -12.6670   22.4340 H   0  0  0  0  0  0  0  0  0  0  0  0
  -22.0510  -13.7420   22.1950 H   0  0  0  0  0  0  0  0  0  0  0  0
  -26.0720  -15.5350   19.7100 N   0  0  0  0  0  0  0  0  0  0  0  0
  -25.2120  -16.0720   19.7420 H   0  0  0  0  0  0  0  0  0  0  0  0
  -26.6100  -15.7470   18.8810 H   0  0  0  0  0  0  0  0  0  0  0  0
  -22.3060  -29.4220   20.1480 C   0  0  0  0  0 15  0  0  0  0  0  0
  -23.3310  -29.6560   22.3750 C   0  0  0  0  0 15  0  0  0  0  0  0
  -25.1640  -28.5780   22.7470 O   0  0  0  0  0  1  0  0  0  0  0  0
  -24.8520  -31.6480   22.1450 C   0  0  0  0  0  0  0  0  0  0  0  0
  -26.2100  -27.5180   22.1710 C   0  0  0  0  0  3  0  0  0  0  0  0
  -24.5380  -29.2130   20.5020 C   0  0  0  0  0  2  0  0  0  0  0  0
  -26.2650  -28.2930   19.7480 C   0  0  0  0  0  3  0  0  0  0  0  0
  -26.7060  -30.3890   21.1620 C   0  0  0  0  0  2  0  0  0  0  0  0
  -27.0070  -28.9490   20.8010 C   0  0  0  0  0  3  0  0  0  0  0  0
  -27.3830  -28.1760   21.8960 C   0  0  0  0  0  2  0  0  0  0  0  0
  -26.1380  -26.4580   21.1420 C   0  0  0  0  0  2  0  0  0  0  0  0
  -26.0740  -26.9080   19.8120 C   0  0  0  0  0  2  0  0  0  0  0  0
  -25.1340  -29.0110   19.1740 C   0  0  0  0  0  2  0  0  0  0  0  0
  -25.2770  -30.5440   21.2830 N   0  0  0  0  0  0  0  0  0  0  0  0
  -23.7580  -32.2300   21.9650 O   0  0  0  0  0  0  0  0  0  0  0  0
  -23.5270  -27.5450   21.2970 C   0  0  0  0  0  2  0  0  0  0  0  0
  -22.7560  -27.5550   22.6530 N   0  0  2  0  0  4  0  0  0  0  0  0
  -23.9220  -26.5220   21.7920 O   0  0  0  0  0  1  0  0  0  0  0  0
  -23.0300  -26.6430   22.9880 H   0  0  0  0  0  0  0  0  0  0  0  0
  -18.3910  -28.2950   23.9060 C   0  0  0  0  0  0  0  0  0  0  0  0
  -21.6540  -28.1410   23.7420 C   0  0  0  0  0  3  0  0  0  0  0  0
  -21.8850  -26.4100   23.4180 C   0  0  0  0  0  2  0  0  0  0  0  0
  -19.1210  -25.1130   22.4220 C   0  0  0  0  0 15  0  0  0  0  0  0
  -17.8130  -26.5720   23.2960 C   0  0  0  0  0  1  0  0  0  0  0  0
  -19.8800  -28.9750   23.9040 C   0  0  0  0  0  0  0  0  0  0  0  0
  -19.8040  -30.4350   23.7600 C   0  0  0  0  0  3  0  0  0  0  0  0
  -18.6300  -31.2480   23.7890 C   0  0  0  0  0  3  0  0  0  0  0  0
  -17.3800  -30.6510   23.9910 C   0  0  0  0  0  3  0  0  0  0  0  0
  -17.2880  -29.2340   24.0260 C   0  0  0  0  0  3  0  0  0  0  0  0
  -25.5690  -32.1410   23.5020 C   0  0  0  0  0  3  0  0  0  0  0  0
  -24.9540  -33.4280   23.8800 N   0  0  0  0  0  0  0  0  0  0  0  0
  -25.4650  -34.6230   23.5780 C   0  0  0  0  0  0  0  0  0  0  0  0
  -26.5230  -34.7400   22.9590 O   0  0  0  0  0  0  0  0  0  0  0  0
  -24.0440  -33.3890   24.3150 H   0  0  0  0  0  0  0  0  0  0  0  0
  -23.7840  -36.3490   22.8540 C   0  0  0  0  0  1  0  0  0  0  0  0
  -24.6850  -35.8810   24.0090 C   0  0  0  0  0  3  0  0  0  0  0  0
  -26.2500  -36.7400   25.6960 C   0  0  0  0  0  1  0  0  0  0  0  0
  -25.5600  -36.9950   24.4350 N   0  0  0  0  0  0  0  0  0  0  0  0
  -25.0280  -37.8560   24.5320 H   0  0  0  0  0  0  0  0  0  0  0  0
  -25.5570  -31.2450   24.8530 C   0  0  1  0  0  0  0  0  0  0  0  0
  -24.1890  -30.6550   25.2970 C   0  0  0  0  0  1  0  0  0  0  0  0
  -26.5740  -30.0920   24.8120 C   0  0  0  0  0  1  0  0  0  0  0  0
  -26.0220  -32.1190   26.0540 C   0  0  0  0  0  1  0  0  0  0  0  0
  3  2  1  0
  4  8  1  0
  6 10  1  0
  6  5  1  0
  8  1  1  0
  9  3  1  0
  9  4  1  0
 10  5  1  0
 11  2  1  0
 12 18  1  0
 12 20  1  0
 13 18  1  0
 14 15  1  0
 14 13  1  0
 16 15  1  0
 16 25  1  0
 16 17  1  0
 18 17  1  0
 19 12  2  0
 20 21  1  0
 22 23  2  0
 23 42  1  0
 24 23  1  0
 24 27  1  0
 25 22  1  0
 25 26  1  0
 26 24  2  0
 27 28  1  0
 28 29  2  0
 30 33  1  0
 30 29  1  0
 31 30  2  0
 32 31  1  0
 32 27  2  0
 33 34  1  0
 34 39  2  0
 34 35  1  0
 35 36  2  0
 36 37  1  0
 37 41  1  0
 38 37  2  0
 39 38  1  0
 40 39  1  0
 42 43  1  0
 43 46  1  0
 43 45  1  0
 44 42  2  0
 47 48  1  0
 47 22  1  0
 49 47  1  0
 54 52  1  0
 55 63  1  0
 56 62  1  0
 56 61  1  0
 56 58  1  0
 57 63  1  0
 58 57  1  0
 58 59  1  0
 59 54  1  0
 60 54  1  0
 61 60  1  0
 62 55  1  0
 63 53  1  0
 64 53  2  0
 65 67  1  0
 65 66  1  0
 66 68  1  1
 66 71  1  0
 66 70  1  0
 69 78  1  0
 70 74  1  0
 71 70  1  0
 73 69  1  0
 74 69  2  0
 75 76  2  0
 75 74  1  0
 76 77  1  0
 77 78  2  0
 79 53  1  0
 79 80  1  0
 79 89  1  0
 80 83  1  0
 81 80  1  0
 81 85  1  0
 82 81  2  0
 85 84  1  0
 85 87  1  0
 87 88  1  0
 87 86  1  0
 89 90  1  1
 89 92  1  0
 91 89  1  0
M  ISO  4  12 100  20 100  51 101  52 101
M  END
>  <TORSDO>  (61) 
F 18

>  <SCORE>  (61) 
-3.113

>  <name>  (61) 
61

>  <ligand_id>  (61) 
61

>  <original_smiles>  (61) 
[H]c1nc(N2C([H])([H])C([H])(N([H])C(=O)N3C([H])([H])C([H])([H])C([H])([H])C([H])(n4nc(-c5c([H])c([H])c(Oc6c([H])c([H])c(F)c([H])c6F)c([H])c5[H])c(C(=O)N([H])[H])c4N([H])[H])C3([H])[H])C2([H])[H])nc(C([H])([H])C([H])([H])Oc2c([H])c([H])c3c(c2[H])C([H])([H])N(C(=O)C([H])(N([H])C(=O)C([H])(N([H])C([H])([H])[H])C([H])([H])[H])C(C([H])([H])[H])(C([H])([H])[H])C([H])([H])[H])C([H])(C(=O)N([H])C2([H])c4c([H])c([H])c([H])c([H])c4C([H])([H])C([H])([H])C2([H])[H])C3([H])[H])c1Cl

>  <smiles>  (61) 
[H]c1nc(N2C([H])([H])C([H])(N([H])C(=O)N3C([H])([H])C([H])([H])C([H])([H])C([H])(n4nc(-c5c([H])c([H])c(Oc6c([H])c([H])c(F)c([H])c6F)c([H])c5[H])c(C(=O)N([H])[H])c4N([H])[H])C3([H])[H])C2([H])[H])nc(C([H])([H])C([H])([H])Oc2c([H])c([H])c3c(c2[H])C([H])([H])N(C(=O)C([H])(N([H])C(=O)C([H])(N([H])C([H])([H])[H])C([H])([H])[H])C(C([H])([H])[H])(C([H])([H])[H])C([H])([H])[H])C([H])(C(=O)N([H])C2([H])c4c([H])c([H])c([H])c([H])c4C([H])([H])C([H])([H])C2([H])[H])C3([H])[H])c1Cl

$$$$
62:0:0
     RDKit          3D

 94103  0  0  1  0  0  0  0  0999 V2000
  -28.9710  -21.5110   19.9610 C   0  0  0  0  0  0  0  0  0  0  0  0
  -28.0790  -23.1350   21.0390 C   0  0  0  0  0  3  0  0  0  0  0  0
  -27.3100  -23.9240   22.0440 C   0  0  0  0  0  1  0  0  0  0  0  0
  -28.2400  -21.7890   21.0930 N   0  0  0  0  0  0  0  0  0  0  0  0
  -29.1820  -22.6560   19.2400 N   0  0  0  0  0  2  0  0  0  0  0  0
  -28.6150  -23.7250   19.9580 N   0  0  0  0  0  0  0  0  0  0  0  0
  -28.5350  -25.1590   19.3740 C   0  0  0  0  0  2  0  0  0  0  0  0
  -28.3550  -26.3400   20.2640 O   0  0  0  0  0  0  0  0  0  0  0  0
  -24.6730  -31.8940   23.2180 C   0  0  0  0  0  0  0  0  0  0  0  0
  -27.2520  -27.2380   20.1670 C   0  0  0  0  0  0  0  0  0  0  0  0
  -23.4590  -30.4870   21.5960 C   0  0  0  0  0  3  0  0  0  0  0  0
  -24.8970  -28.9140   20.1690 C   0  0  0  0  0  0  0  0  0  0  0  0
  -26.0050  -30.7730   21.4030 C   0  0  0  0  0  2  0  0  0  0  0  0
  -26.0760  -29.3850   20.7590 C   0  0  0  0  0  0  0  0  0  0  0  0
  -27.2500  -28.5580   20.7510 C   0  0  0  0  0  3  0  0  0  0  0  0
  -26.0370  -26.8360   19.5670 C   0  0  0  0  0  3  0  0  0  0  0  0
  -24.8840  -27.6470   19.5680 C   0  0  0  0  0  3  0  0  0  0  0  0
  -23.6660  -29.7990   20.2210 C   0  0  0  0  0  2  0  0  0  0  0  0
  -24.7320  -31.0730   22.1270 N   0  0  0  0  0  0  0  0  0  0  0  0
  -23.5930  -32.1790   23.7560 O   0  0  0  0  0  0  0  0  0  0  0  0
  -22.7960  -29.4810   22.5700 C   0  0  0  0  0  0  0  0  0  0  0  0
  -21.4680  -29.3070   22.4540 N   0  0  0  0  0  0  0  0  0  0  0  0
  -23.4780  -28.8620   23.3900 O   0  0  0  0  0  0  0  0  0  0  0  0
  -20.9730  -29.8600   21.7660 H   0  0  0  0  0  0  0  0  0  0  0  0
  -18.0940  -28.1000   22.9750 C   0  0  0  0  0  0  0  0  0  0  0  0
  -20.6520  -28.3730   23.2340 C   0  0  0  0  0  3  0  0  0  0  0  0
  -20.7570  -26.9350   22.6760 C   0  0  0  0  0  2  0  0  0  0  0  0
  -19.6550  -26.5980   21.6660 C   0  0  0  0  0  2  0  0  0  0  0  0
  -18.2740  -26.7440   22.3100 C   0  0  0  0  0  2  0  0  0  0  0  0
  -19.2100  -28.8710   23.3930 C   0  0  0  0  0  0  0  0  0  0  0  0
  -18.9870  -30.1390   23.9730 C   0  0  0  0  0  3  0  0  0  0  0  0
  -17.6820  -30.6360   24.1370 C   0  0  0  0  0  3  0  0  0  0  0  0
  -16.5780  -29.8620   23.7350 C   0  0  0  0  0  3  0  0  0  0  0  0
  -16.7860  -28.5960   23.1600 C   0  0  0  0  0  3  0  0  0  0  0  0
  -25.9580  -32.5340   23.8290 C   0  0  0  0  0  3  0  0  0  0  0  0
  -26.4780  -31.7750   25.1120 C   0  0  1  0  0  0  0  0  0  0  0  0
  -25.3910  -31.5490   26.1880 C   0  0  0  0  0  1  0  0  0  0  0  0
  -27.0590  -30.3940   24.7340 C   0  0  0  0  0  1  0  0  0  0  0  0
  -27.6280  -32.5780   25.7630 C   0  0  0  0  0  1  0  0  0  0  0  0
  -25.6480  -33.9360   24.1510 N   0  0  0  0  0  0  0  0  0  0  0  0
  -25.9690  -34.9840   23.3810 C   0  0  0  0  0  0  0  0  0  0  0  0
  -26.6250  -34.8730   22.3420 O   0  0  0  0  0  0  0  0  0  0  0  0
  -25.0640  -34.0970   24.9580 H   0  0  0  0  0  0  0  0  0  0  0  0
  -24.2330  -36.7750   23.0430 C   0  0  0  0  0  1  0  0  0  0  0  0
  -25.4890  -36.3770   23.8350 C   0  0  0  0  0  3  0  0  0  0  0  0
  -27.6360  -37.2750   24.6200 C   0  0  0  0  0  1  0  0  0  0  0  0
  -26.5180  -37.4310   23.6920 N   0  0  0  0  0  0  0  0  0  0  0  0
  -26.1120  -38.3510   23.8370 H   0  0  0  0  0  0  0  0  0  0  0  0
  -29.1780  -20.0410   19.3440 C   0  0  0  0  0  3  0  0  0  0  0  0
  -30.7010  -14.8500   19.9280 C   0  0  0  0  0  0  0  0  0  0  0  0
  -30.4310  -12.5650   18.9090 C   0  0  0  0  0  2  0  0  0  0  0  0
  -29.4130  -12.6210   17.7490 C   0  0  0  0  0  2  0  0  0  0  0  0
  -27.9770  -12.4380   18.2770 C   0  0  0  0  0  2  0  0  0  0  0  0
  -27.6860  -13.3150   19.5260 C   0  0  0  0  0  3  0  0  0  0  0  0
  -28.8190  -13.2140   20.5660 C   0  0  0  0  0  2  0  0  0  0  0  0
  -30.0550  -13.6210   19.8870 N   0  0  0  0  0  0  0  0  0  0  0  0
  -31.8540  -14.9060   19.4840 O   0  0  0  0  0  0  0  0  0  0  0  0
  -28.8800  -18.0050   21.1810 C   0  0  0  0  0  2  0  0  0  0  0  0
  -29.3840  -16.5320   21.3480 C   0  0  0  0  0  2  0  0  0  0  0  0
  -30.1400  -17.3490   19.2920 C   0  0  0  0  0  2  0  0  0  0  0  0
  -29.7500  -18.6860   20.1170 C   0  0  0  0  0  3  0  0  0  0  0  0
  -29.9700  -16.0510   20.0830 N   0  0  0  0  0  0  0  0  0  0  0  0
  -25.3680  -13.9060   20.4450 C   0  0  0  0  0  0  0  0  0  0  0  0
  -24.3210  -13.1330   20.8640 C   0  0  0  0  0  0  0  0  0  0  0  0
  -24.7640  -11.7780   20.7570 C   0  0  0  0  0  0  0  0  0  0  0  0
  -26.3800  -13.0230   20.1060 N   0  0  0  0  0  0  0  0  0  0  0  0
  -26.0280  -11.7350   20.3570 N   0  0  0  0  0  0  0  0  0  0  0  0
  -24.0360  -10.5190   20.9600 C   0  0  0  0  0  0  0  0  0  0  0  0
  -24.4960   -9.5370   21.8660 C   0  0  0  0  0  3  0  0  0  0  0  0
  -23.7690   -8.3420   22.0530 C   0  0  0  0  0  3  0  0  0  0  0  0
  -22.5680   -8.1200   21.3380 C   0  0  0  0  0  0  0  0  0  0  0  0
  -22.1290   -9.0900   20.4210 C   0  0  0  0  0  3  0  0  0  0  0  0
  -22.8550  -10.2770   20.2290 C   0  0  0  0  0  3  0  0  0  0  0  0
  -21.8080   -6.9790   21.4390 O   0  0  0  0  0  0  0  0  0  0  0  0
  -21.7560   -6.2480   22.6000 C   0  0  0  0  0  0  0  0  0  0  0  0
  -21.3260   -6.8180   23.8180 C   0  0  0  0  0  3  0  0  0  0  0  0
  -21.2210   -6.0160   24.9720 C   0  0  0  0  0  3  0  0  0  0  0  0
  -21.5350   -4.6450   24.9070 C   0  0  0  0  0  0  0  0  0  0  0  0
  -21.9560   -4.0750   23.6940 C   0  0  0  0  0  3  0  0  0  0  0  0
  -22.0630   -4.8740   22.5420 C   0  0  0  0  0  0  0  0  0  0  0  0
  -22.4510   -4.3160   21.3700 F   0  0  0  0  0  0  0  0  0  0  0  0
  -21.4260   -3.8710   26.0130 F   0  0  0  0  0  0  0  0  0  0  0  0
  -22.9550  -13.6150   21.2520 C   0  0  0  0  0  0  0  0  0  0  0  0
  -22.2830  -12.8990   22.1470 N   0  0  0  0  0  0  0  0  0  0  0  0
  -22.4930  -14.6600   20.7940 O   0  0  0  0  0  0  0  0  0  0  0  0
  -22.6700  -12.0520   22.5360 H   0  0  0  0  0  0  0  0  0  0  0  0
  -21.3680  -13.2030   22.4460 H   0  0  0  0  0  0  0  0  0  0  0  0
  -25.5420  -15.2810   20.2940 N   0  0  0  0  0  0  0  0  0  0  0  0
  -24.7930  -15.9470   20.4390 H   0  0  0  0  0  0  0  0  0  0  0  0
  -26.3830  -15.7030   19.9230 H   0  0  0  0  0  0  0  0  0  0  0  0
  -27.9290  -19.7310   18.6410 N   0  0  0  0  0  4  0  0  0  0  0  0
  -27.7460  -20.4720   17.9870 H   0  0  0  0  0  0  0  0  0  0  0  0
  -27.1760  -19.7060   19.3030 H   0  0  0  0  0  0  0  0  0  0  0  0
  -27.9870  -18.8640   18.1430 H   0  0  0  0  0  0  0  0  0  0  0  0
  1  4  2  0
  2  4  1  0
  2  3  1  0
  5  6  1  0
  5  1  1  0
  6  2  1  0
  7  6  1  0
  7  8  1  0
  9 20  2  0
 10  8  1  0
 10 15  1  0
 11 19  1  0
 11 21  1  0
 12 18  1  0
 12 14  1  0
 13 19  1  0
 14 13  1  0
 15 14  2  0
 16 17  1  0
 16 10  2  0
 17 12  2  0
 18 11  1  0
 19  9  1  0
 21 23  2  0
 22 21  1  0
 24 22  1  0
 25 34  2  0
 25 30  1  0
 26 22  1  0
 26 30  1  0
 27 26  1  0
 28 29  1  0
 28 27  1  0
 29 25  1  0
 30 31  2  0
 31 32  1  0
 33 32  2  0
 34 33  1  0
 35  9  1  0
 35 40  1  0
 35 36  1  0
 36 39  1  1
 36 37  1  0
 38 36  1  0
 40 43  1  0
 41 45  1  0
 41 40  1  0
 42 41  2  0
 45 44  1  0
 47 45  1  0
 47 48  1  0
 47 46  1  0
 49 91  1  0
 49  1  1  0
 50 62  1  0
 51 56  1  0
 52 53  1  0
 52 51  1  0
 54 53  1  0
 54 66  1  0
 54 55  1  0
 56 50  1  0
 56 55  1  0
 57 50  2  0
 58 59  1  0
 60 62  1  0
 60 61  1  0
 61 49  1  0
 61 58  1  0
 62 59  1  0
 63 64  2  0
 64 83  1  0
 65 64  1  0
 65 68  1  0
 66 67  1  0
 66 63  1  0
 67 65  2  0
 68 69  1  0
 69 70  2  0
 71 74  1  0
 71 70  1  0
 72 71  2  0
 73 72  1  0
 73 68  2  0
 74 75  1  0
 75 76  1  0
 76 77  2  0
 78 77  1  0
 78 82  1  0
 79 78  2  0
 80 75  2  0
 80 79  1  0
 81 80  1  0
 83 84  1  0
 84 87  1  0
 84 86  1  0
 85 83  2  0
 88 89  1  0
 88 63  1  0
 90 88  1  0
 91 93  1  0
 92 91  1  0
 94 91  1  0
M  ISO  4   7 101   8 101  50 100  62 100
M  END
>  <TORSDO>  (62) 
F 19

>  <SCORE>  (62) 
-13.825

>  <name>  (62) 
62

>  <ligand_id>  (62) 
62

>  <original_smiles>  (62) 
[H]c1c([H])c([H])c2c(c1[H])C([H])([H])C([H])([H])C([H])([H])C2([H])N([H])C(=O)C1([H])N(C(=O)C([H])(N([H])C(=O)C([H])(N([H])C([H])([H])[H])C([H])([H])[H])C(C([H])([H])[H])(C([H])([H])[H])C([H])([H])[H])C([H])([H])c2c([H])c(OC([H])([H])n3nc(C([H])(C4([H])C([H])([H])N(C(=O)N5C([H])([H])C([H])([H])C([H])([H])C([H])(n6nc(-c7c([H])c([H])c(Oc8c([H])c([H])c(F)c([H])c8F)c([H])c7[H])c(C(=O)N([H])[H])c6N([H])[H])C5([H])[H])C([H])([H])C4([H])[H])[N+]([H])([H])[H])nc3C([H])([H])[H])c([H])c([H])c2C1([H])[H]

>  <smiles>  (62) 
[H]c1c([H])c([H])c2c(c1[H])C([H])([H])C([H])([H])C([H])([H])C2([H])N([H])C(=O)C1([H])N(C(=O)C([H])(N([H])C(=O)C([H])(N([H])C([H])([H])[H])C([H])([H])[H])C(C([H])([H])[H])(C([H])([H])[H])C([H])([H])[H])C([H])([H])c2c([H])c(OC([H])([H])n3nc(C([H])(C4([H])C([H])([H])N(C(=O)N5C([H])([H])C([H])([H])C([H])([H])C([H])(n6nc(-c7c([H])c([H])c(Oc8c([H])c([H])c(F)c([H])c8F)c([H])c7[H])c(C(=O)N([H])[H])c6N([H])[H])C5([H])[H])C([H])([H])C4([H])[H])[N+]([H])([H])[H])nc3C([H])([H])[H])c([H])c([H])c2C1([H])[H]

$$$$
63:0:0
     RDKit          3D

 96106  0  0  1  0  0  0  0  0999 V2000
  -29.5340  -19.5700   20.1690 C   0  0  0  0  0  3  0  0  0  0  0  0
  -28.5610  -18.2020   17.9540 C   0  0  0  0  0  3  0  0  0  0  0  0
  -28.8580  -20.3150   19.1480 C   0  0  0  0  0  0  0  0  0  0  0  0
  -28.3580  -19.5920   18.0570 C   0  0  0  0  0  0  0  0  0  0  0  0
  -29.6330  -18.1340   20.0210 C   0  0  0  0  0  0  0  0  0  0  0  0
  -28.5450  -21.8140   18.8440 C   0  0  0  0  0  3  0  0  0  0  0  0
  -27.3260  -21.6010   17.8940 C   0  0  0  0  0  3  0  0  0  0  0  0
  -25.9780  -21.3390   18.6110 C   0  0  0  0  0  1  0  0  0  0  0  0
  -29.1710  -17.4980   18.9230 N   0  0  0  0  0  0  0  0  0  0  0  0
  -27.6210  -20.3720   17.1530 N   0  0  0  0  0  0  0  0  0  0  0  0
  -26.8530  -19.9130   16.6620 H   0  0  0  0  0  0  0  0  0  0  0  0
  -27.3870  -23.9690   20.1020 C   0  0  0  0  0  2  0  0  0  0  0  0
  -29.4640  -24.1220   19.9600 C   0  0  0  0  0  2  0  0  0  0  0  0
  -28.3170  -25.1440   19.6440 C   0  0  0  0  0  3  0  0  0  0  0  0
  -28.4810  -23.0420   19.7570 N   0  0  1  0  0  4  0  0  0  0  0  0
  -28.3880  -23.3850   18.8110 H   0  0  0  0  0  0  0  0  0  0  0  0
  -28.3140  -26.4860   20.2820 O   0  0  0  0  0  0  0  0  0  0  0  0
  -24.5680  -31.8930   23.2640 C   0  0  0  0  0  0  0  0  0  0  0  0
  -27.1950  -27.3360   20.1980 C   0  0  0  0  0  0  0  0  0  0  0  0
  -23.3740  -30.4980   21.6120 C   0  0  0  0  0  3  0  0  0  0  0  0
  -24.8360  -28.9600   20.1830 C   0  0  0  0  0  0  0  0  0  0  0  0
  -25.9150  -30.8160   21.4450 C   0  0  0  0  0  2  0  0  0  0  0  0
  -25.9980  -29.4380   20.8000 C   0  0  0  0  0  0  0  0  0  0  0  0
  -27.1750  -28.6310   20.8110 C   0  0  0  0  0  3  0  0  0  0  0  0
  -26.0120  -26.9250   19.5410 C   0  0  0  0  0  3  0  0  0  0  0  0
  -24.8460  -27.7130   19.5440 C   0  0  0  0  0  3  0  0  0  0  0  0
  -23.5980  -29.8340   20.2280 C   0  0  0  0  0  2  0  0  0  0  0  0
  -24.6370  -31.0870   22.1650 N   0  0  0  0  0  0  0  0  0  0  0  0
  -23.4810  -32.1710   23.7940 O   0  0  0  0  0  0  0  0  0  0  0  0
  -22.7070  -29.4780   22.5620 C   0  0  0  0  0  0  0  0  0  0  0  0
  -21.3840  -29.2920   22.4190 N   0  0  0  0  0  0  0  0  0  0  0  0
  -23.3780  -28.8580   23.3910 O   0  0  0  0  0  0  0  0  0  0  0  0
  -20.9020  -29.8430   21.7230 H   0  0  0  0  0  0  0  0  0  0  0  0
  -18.0100  -28.0680   22.8620 C   0  0  0  0  0  0  0  0  0  0  0  0
  -20.5600  -28.3520   23.1800 C   0  0  0  0  0  3  0  0  0  0  0  0
  -20.6860  -26.9170   22.6160 C   0  0  0  0  0  2  0  0  0  0  0  0
  -19.6070  -26.5780   21.5830 C   0  0  0  0  0  2  0  0  0  0  0  0
  -18.2110  -26.7160   22.1980 C   0  0  0  0  0  2  0  0  0  0  0  0
  -19.1120  -28.8430   23.3080 C   0  0  0  0  0  0  0  0  0  0  0  0
  -18.8710  -30.1070   23.8880 C   0  0  0  0  0  3  0  0  0  0  0  0
  -17.5590  -30.5970   24.0250 C   0  0  0  0  0  3  0  0  0  0  0  0
  -16.4700  -29.8200   23.5950 C   0  0  0  0  0  3  0  0  0  0  0  0
  -16.6960  -28.5560   23.0190 C   0  0  0  0  0  3  0  0  0  0  0  0
  -25.8480  -32.5240   23.8960 C   0  0  0  0  0  3  0  0  0  0  0  0
  -25.5460  -33.9290   24.2080 N   0  0  0  0  0  0  0  0  0  0  0  0
  -25.8920  -34.9700   23.4390 C   0  0  0  0  0  0  0  0  0  0  0  0
  -26.5670  -34.8480   22.4130 O   0  0  0  0  0  0  0  0  0  0  0  0
  -24.9450  -34.0990   25.0010 H   0  0  0  0  0  0  0  0  0  0  0  0
  -24.1800  -36.7720   23.0440 C   0  0  0  0  0  1  0  0  0  0  0  0
  -25.4100  -36.3670   23.8730 C   0  0  0  0  0  3  0  0  0  0  0  0
  -27.5410  -37.2470   24.7200 C   0  0  0  0  0  1  0  0  0  0  0  0
  -26.4530  -37.4100   23.7590 N   0  0  0  0  0  0  0  0  0  0  0  0
  -26.0530  -38.3370   23.8860 H   0  0  0  0  0  0  0  0  0  0  0  0
  -26.3430  -31.7610   25.1860 C   0  0  1  0  0  0  0  0  0  0  0  0
  -25.2340  -31.5420   26.2410 C   0  0  0  0  0  1  0  0  0  0  0  0
  -26.9210  -30.3760   24.8160 C   0  0  0  0  0  1  0  0  0  0  0  0
  -27.4920  -32.5540   25.8550 C   0  0  0  0  0  1  0  0  0  0  0  0
  -30.2960  -17.1490   21.0380 C   0  0  0  0  0  2  0  0  0  0  0  0
  -30.6290  -14.6400   20.4760 C   0  0  0  0  0  0  0  0  0  0  0  0
  -30.3710  -12.4270   19.3580 C   0  0  0  0  0  2  0  0  0  0  0  0
  -29.4250  -12.5560   18.1380 C   0  0  0  0  0  2  0  0  0  0  0  0
  -27.9500  -12.4260   18.5610 C   0  0  0  0  0  2  0  0  0  0  0  0
  -27.5990  -13.2700   19.8120 C   0  0  0  0  0  3  0  0  0  0  0  0
  -28.6580  -13.1120   20.9280 C   0  0  0  0  0  2  0  0  0  0  0  0
  -29.9670  -13.4460   20.3500 N   0  0  0  0  0  0  0  0  0  0  0  0
  -31.7870  -14.7840   20.0710 O   0  0  0  0  0  0  0  0  0  0  0  0
  -29.9020  -15.7020   20.9210 N   0  0  0  0  0  0  0  0  0  0  0  0
  -28.9350  -15.5120   21.1160 H   0  0  0  0  0  0  0  0  0  0  0  0
  -25.1990  -13.8690   20.5230 C   0  0  0  0  0  0  0  0  0  0  0  0
  -24.1360  -13.0860   20.8940 C   0  0  0  0  0  0  0  0  0  0  0  0
  -24.6030  -11.7350   20.8580 C   0  0  0  0  0  0  0  0  0  0  0  0
  -26.2500  -12.9890   20.2960 N   0  0  0  0  0  0  0  0  0  0  0  0
  -25.8940  -11.7060   20.5610 N   0  0  0  0  0  0  0  0  0  0  0  0
  -23.8860  -10.4690   21.0470 C   0  0  0  0  0  0  0  0  0  0  0  0
  -24.3190   -9.5050   21.9880 C   0  0  0  0  0  3  0  0  0  0  0  0
  -23.5960   -8.3070   22.1610 C   0  0  0  0  0  3  0  0  0  0  0  0
  -22.4370   -8.0580   21.3900 C   0  0  0  0  0  0  0  0  0  0  0  0
  -22.0300   -9.0100   20.4390 C   0  0  0  0  0  3  0  0  0  0  0  0
  -22.7480  -10.1990   20.2620 C   0  0  0  0  0  3  0  0  0  0  0  0
  -21.6840   -6.9090   21.4710 O   0  0  0  0  0  0  0  0  0  0  0  0
  -21.6100   -6.1710   22.6260 C   0  0  0  0  0  0  0  0  0  0  0  0
  -21.1320   -6.7310   23.8290 C   0  0  0  0  0  3  0  0  0  0  0  0
  -21.0040   -5.9270   24.9780 C   0  0  0  0  0  3  0  0  0  0  0  0
  -21.3490   -4.5640   24.9250 C   0  0  0  0  0  0  0  0  0  0  0  0
  -21.8230   -4.0030   23.7240 C   0  0  0  0  0  3  0  0  0  0  0  0
  -21.9490   -4.8050   22.5770 C   0  0  0  0  0  0  0  0  0  0  0  0
  -22.3860   -4.2570   21.4160 F   0  0  0  0  0  0  0  0  0  0  0  0
  -21.2210   -3.7870   26.0250 F   0  0  0  0  0  0  0  0  0  0  0  0
  -22.7290  -13.5500   21.1600 C   0  0  0  0  0  0  0  0  0  0  0  0
  -22.0010  -12.8430   22.0180 N   0  0  0  0  0  0  0  0  0  0  0  0
  -22.2860  -14.5760   20.6410 O   0  0  0  0  0  0  0  0  0  0  0  0
  -22.3700  -12.0060   22.4500 H   0  0  0  0  0  0  0  0  0  0  0  0
  -21.0590  -13.1310   22.2420 H   0  0  0  0  0  0  0  0  0  0  0  0
  -25.3540  -15.2390   20.3440 N   0  0  0  0  0  0  0  0  0  0  0  0
  -26.1960  -15.6760   19.9900 H   0  0  0  0  0  0  0  0  0  0  0  0
  -24.5870  -15.8950   20.4580 H   0  0  0  0  0  0  0  0  0  0  0  0
  2  4  2  0
  2  9  1  0
  3  1  2  0
  4  3  1  0
  5  1  1  0
  5 58  1  0
  6  3  1  0
  6 15  1  0
  7  8  1  0
  7  6  1  0
  9  5  2  0
 10  7  1  0
 10  4  1  0
 11 10  1  0
 14 13  1  0
 14 12  1  0
 14 17  1  0
 15 16  1  6
 15 13  1  0
 15 12  1  0
 18 29  2  0
 19 17  1  0
 19 24  1  0
 20 28  1  0
 20 30  1  0
 21 27  1  0
 21 23  1  0
 22 28  1  0
 23 24  2  0
 23 22  1  0
 25 26  1  0
 25 19  2  0
 26 21  2  0
 27 20  1  0
 28 18  1  0
 30 32  2  0
 31 30  1  0
 33 31  1  0
 34 43  2  0
 34 39  1  0
 35 31  1  0
 35 39  1  0
 36 35  1  0
 37 38  1  0
 37 36  1  0
 38 34  1  0
 39 40  2  0
 40 41  1  0
 42 41  2  0
 43 42  1  0
 44 18  1  0
 44 45  1  0
 44 54  1  0
 45 48  1  0
 46 50  1  0
 46 45  1  0
 47 46  2  0
 50 49  1  0
 52 50  1  0
 52 53  1  0
 52 51  1  0
 54 57  1  1
 54 55  1  0
 56 54  1  0
 59 67  1  0
 60 65  1  0
 61 62  1  0
 61 60  1  0
 63 62  1  0
 63 72  1  0
 63 64  1  0
 65 59  1  0
 65 64  1  0
 66 59  2  0
 67 58  1  0
 67 68  1  0
 69 70  2  0
 70 89  1  0
 71 70  1  0
 71 74  1  0
 72 69  1  0
 72 73  1  0
 73 71  2  0
 74 75  1  0
 75 76  2  0
 77 80  1  0
 77 76  1  0
 78 77  2  0
 79 78  1  0
 79 74  2  0
 80 81  1  0
 81 82  1  0
 82 83  2  0
 84 83  1  0
 84 88  1  0
 85 84  2  0
 86 81  2  0
 86 85  1  0
 87 86  1  0
 89 90  1  0
 90 93  1  0
 90 92  1  0
 91 89  2  0
 94 96  1  0
 94 69  1  0
 95 94  1  0
M  ISO  4  14 101  17 101  59 100  67 100
M  END
>  <TORSDO>  (63) 
F 18

>  <SCORE>  (63) 
-14.913

>  <name>  (63) 
63

>  <ligand_id>  (63) 
63

>  <original_smiles>  (63) 
[H]c1nc(C([H])([H])N([H])C(=O)N2C([H])([H])C([H])([H])C([H])([H])C([H])(n3nc(-c4c([H])c([H])c(Oc5c([H])c([H])c(F)c([H])c5F)c([H])c4[H])c(C(=O)N([H])[H])c3N([H])[H])C2([H])[H])c([H])c2c1N([H])C([H])(C([H])([H])[H])C2([H])[N+]1([H])C([H])([H])C([H])(Oc2c([H])c([H])c3c(c2[H])C([H])([H])N(C(=O)C([H])(N([H])C(=O)C([H])(N([H])C([H])([H])[H])C([H])([H])[H])C(C([H])([H])[H])(C([H])([H])[H])C([H])([H])[H])C([H])(C(=O)N([H])C2([H])c4c([H])c([H])c([H])c([H])c4C([H])([H])C([H])([H])C2([H])[H])C3([H])[H])C1([H])[H]

>  <smiles>  (63) 
[H]c1nc(C([H])([H])N([H])C(=O)N2C([H])([H])C([H])([H])C([H])([H])C([H])(n3nc(-c4c([H])c([H])c(Oc5c([H])c([H])c(F)c([H])c5F)c([H])c4[H])c(C(=O)N([H])[H])c3N([H])[H])C2([H])[H])c([H])c2c1N([H])C([H])(C([H])([H])[H])C2([H])[N+]1([H])C([H])([H])C([H])(Oc2c([H])c([H])c3c(c2[H])C([H])([H])N(C(=O)C([H])(N([H])C(=O)C([H])(N([H])C([H])([H])[H])C([H])([H])[H])C(C([H])([H])[H])(C([H])([H])[H])C([H])([H])[H])C([H])(C(=O)N([H])C2([H])c4c([H])c([H])c([H])c([H])c4C([H])([H])C([H])([H])C2([H])[H])C3([H])[H])C1([H])[H]

$$$$
64:0:0
     RDKit          3D

 93103  0  0  1  0  0  0  0  0999 V2000
  -30.6650  -14.8670   20.4680 C   0  0  0  0  0  0  0  0  0  0  0  0
  -30.3990  -12.5740   19.4680 C   0  0  0  0  0  2  0  0  0  0  0  0
  -29.4990  -12.6020   18.2170 C   0  0  0  0  0  2  0  0  0  0  0  0
  -28.0280  -12.4070   18.6230 C   0  0  0  0  0  2  0  0  0  0  0  0
  -27.6190  -13.3190   19.8080 C   0  0  0  0  0  3  0  0  0  0  0  0
  -28.6600  -13.3170   20.9510 C   0  0  0  0  0  2  0  0  0  0  0  0
  -29.9510  -13.6790   20.3590 N   0  0  0  0  0  0  0  0  0  0  0  0
  -31.8780  -14.7980   20.2490 O   0  0  0  0  0  0  0  0  0  0  0  0
  -28.4790  -21.3120   19.1810 C   0  0  0  0  0  0  0  0  0  0  0  0
  -29.1460  -20.7100   20.3010 C   0  0  0  0  0  0  0  0  0  0  0  0
  -28.7160  -23.5180   20.0420 C   0  0  0  0  0  0  0  0  0  0  0  0
  -30.4350  -18.7390   21.3700 C   0  0  0  0  0  3  0  0  0  0  0  0
  -28.3770  -18.2300   20.3290 C   0  0  0  0  0  3  0  0  0  0  0  0
  -31.0120  -17.3010   21.0090 C   0  0  0  0  0  3  0  0  0  0  0  0
  -28.8090  -16.6860   20.1390 C   0  0  0  0  0  3  0  0  0  0  0  0
  -28.2630  -22.6720   19.0880 N   0  0  0  0  0  0  0  0  0  0  0  0
  -29.5690  -21.6320   21.2400 N   0  0  0  0  0  0  0  0  0  0  0  0
  -29.3840  -22.9970   21.1120 N   0  0  0  0  0  0  0  0  0  0  0  0
  -29.4340  -19.2650   20.4330 N   0  0  0  0  0  0  0  0  0  0  0  0
  -30.0930  -16.1500   20.6990 N   0  0  0  0  0  0  0  0  0  0  0  0
  -25.2270  -13.9210   20.4970 C   0  0  0  0  0  0  0  0  0  0  0  0
  -24.1540  -13.1540   20.8540 C   0  0  0  0  0  0  0  0  0  0  0  0
  -24.6140  -11.8010   20.8520 C   0  0  0  0  0  0  0  0  0  0  0  0
  -26.2720  -13.0350   20.2890 N   0  0  0  0  0  0  0  0  0  0  0  0
  -25.9120  -11.7570   20.5720 N   0  0  0  0  0  0  0  0  0  0  0  0
  -23.8800  -10.5450   21.0390 C   0  0  0  0  0  0  0  0  0  0  0  0
  -24.2940   -9.5820   21.9850 C   0  0  0  0  0  3  0  0  0  0  0  0
  -23.5580   -8.3910   22.1610 C   0  0  0  0  0  3  0  0  0  0  0  0
  -22.3950   -8.1550   21.3900 C   0  0  0  0  0  0  0  0  0  0  0  0
  -22.0000   -9.1070   20.4360 C   0  0  0  0  0  3  0  0  0  0  0  0
  -22.7360  -10.2900   20.2570 C   0  0  0  0  0  3  0  0  0  0  0  0
  -21.6320   -7.0160   21.4750 O   0  0  0  0  0  0  0  0  0  0  0  0
  -21.5660   -6.2780   22.6300 C   0  0  0  0  0  0  0  0  0  0  0  0
  -21.1190   -6.8370   23.8480 C   0  0  0  0  0  3  0  0  0  0  0  0
  -21.0020   -6.0260   24.9930 C   0  0  0  0  0  3  0  0  0  0  0  0
  -21.3220   -4.6560   24.9230 C   0  0  0  0  0  0  0  0  0  0  0  0
  -21.7620   -4.0960   23.7110 C   0  0  0  0  0  3  0  0  0  0  0  0
  -21.8800   -4.9050   22.5660 C   0  0  0  0  0  0  0  0  0  0  0  0
  -22.2860   -4.3570   21.3960 F   0  0  0  0  0  0  0  0  0  0  0  0
  -21.2010   -3.8760   26.0210 F   0  0  0  0  0  0  0  0  0  0  0  0
  -22.7530  -13.6420   21.0830 C   0  0  0  0  0  0  0  0  0  0  0  0
  -21.9980  -12.9640   21.9380 N   0  0  0  0  0  0  0  0  0  0  0  0
  -22.3360  -14.6640   20.5380 O   0  0  0  0  0  0  0  0  0  0  0  0
  -22.3480  -12.1390   22.4040 H   0  0  0  0  0  0  0  0  0  0  0  0
  -21.0590  -13.2770   22.1350 H   0  0  0  0  0  0  0  0  0  0  0  0
  -25.3900  -15.2890   20.3030 N   0  0  0  0  0  0  0  0  0  0  0  0
  -24.6120  -15.9360   20.3960 H   0  0  0  0  0  0  0  0  0  0  0  0
  -26.2330  -15.7230   19.9550 H   0  0  0  0  0  0  0  0  0  0  0  0
  -28.8630  -19.4640   17.3160 C   0  0  0  0  0  2  0  0  0  0  0  0
  -28.7020  -20.7900   16.6260 C   0  0  0  0  0  2  0  0  0  0  0  0
  -28.0250  -20.5510   17.9640 C   0  0  0  0  0  3  0  0  0  0  0  0
  -28.6870  -25.1050   19.6450 C   0  0  0  0  0  2  0  0  0  0  0  0
  -28.4560  -26.3260   20.5240 O   0  0  0  0  0  0  0  0  0  0  0  0
  -24.6520  -31.9090   23.2920 C   0  0  0  0  0  0  0  0  0  0  0  0
  -27.3620  -27.2330   20.3790 C   0  0  0  0  0  0  0  0  0  0  0  0
  -23.5020  -30.4680   21.6550 C   0  0  0  0  0  3  0  0  0  0  0  0
  -24.9970  -28.8930   20.2880 C   0  0  0  0  0  0  0  0  0  0  0  0
  -26.0490  -30.7770   21.5320 C   0  0  0  0  0  2  0  0  0  0  0  0
  -26.1520  -29.3800   20.9090 C   0  0  0  0  0  0  0  0  0  0  0  0
  -27.3330  -28.5600   20.9480 C   0  0  0  0  0  3  0  0  0  0  0  0
  -26.1750  -26.8190   19.7360 C   0  0  0  0  0  3  0  0  0  0  0  0
  -25.0150  -27.6210   19.6920 C   0  0  0  0  0  3  0  0  0  0  0  0
  -23.7560  -29.7670   20.2940 C   0  0  0  0  0  2  0  0  0  0  0  0
  -24.7530  -31.0740   22.2150 N   0  0  0  0  0  0  0  0  0  0  0  0
  -23.5530  -32.1890   23.7940 O   0  0  0  0  0  0  0  0  0  0  0  0
  -22.8210  -29.4690   22.6210 C   0  0  0  0  0  0  0  0  0  0  0  0
  -21.4960  -29.2870   22.4740 N   0  0  0  0  0  0  0  0  0  0  0  0
  -23.4840  -28.8600   23.4630 O   0  0  0  0  0  0  0  0  0  0  0  0
  -21.0190  -29.8280   21.7670 H   0  0  0  0  0  0  0  0  0  0  0  0
  -18.1100  -28.1020   22.9600 C   0  0  0  0  0  0  0  0  0  0  0  0
  -20.6670  -28.3590   23.2480 C   0  0  0  0  0  3  0  0  0  0  0  0
  -20.7700  -26.9220   22.6860 C   0  0  0  0  0  2  0  0  0  0  0  0
  -19.6760  -26.5930   21.6670 C   0  0  0  0  0  2  0  0  0  0  0  0
  -18.2890  -26.7470   22.2960 C   0  0  0  0  0  2  0  0  0  0  0  0
  -19.2270  -28.8650   23.3920 C   0  0  0  0  0  0  0  0  0  0  0  0
  -19.0060  -30.1320   23.9750 C   0  0  0  0  0  3  0  0  0  0  0  0
  -17.7010  -30.6360   24.1290 C   0  0  0  0  0  3  0  0  0  0  0  0
  -16.5980  -29.8710   23.7130 C   0  0  0  0  0  3  0  0  0  0  0  0
  -16.8030  -28.6050   23.1340 C   0  0  0  0  0  3  0  0  0  0  0  0
  -25.9110  -32.5690   23.9340 C   0  0  0  0  0  3  0  0  0  0  0  0
  -25.5780  -33.9710   24.2280 N   0  0  0  0  0  0  0  0  0  0  0  0
  -25.9080  -35.0140   23.4530 C   0  0  0  0  0  0  0  0  0  0  0  0
  -26.5920  -34.8970   22.4330 O   0  0  0  0  0  0  0  0  0  0  0  0
  -24.9660  -34.1330   25.0140 H   0  0  0  0  0  0  0  0  0  0  0  0
  -24.1620  -36.7810   23.0470 C   0  0  0  0  0  1  0  0  0  0  0  0
  -25.4010  -36.4060   23.8770 C   0  0  0  0  0  3  0  0  0  0  0  0
  -27.5150  -37.3380   24.7100 C   0  0  0  0  0  1  0  0  0  0  0  0
  -26.4220  -37.4690   23.7500 N   0  0  0  0  0  0  0  0  0  0  0  0
  -26.0030  -38.3890   23.8680 H   0  0  0  0  0  0  0  0  0  0  0  0
  -26.3990  -31.8320   25.2430 C   0  0  1  0  0  0  0  0  0  0  0  0
  -25.2800  -31.6110   26.2880 C   0  0  0  0  0  1  0  0  0  0  0  0
  -27.0030  -30.4510   24.9020 C   0  0  0  0  0  1  0  0  0  0  0  0
  -27.5270  -32.6500   25.9160 C   0  0  0  0  0  1  0  0  0  0  0  0
  1 20  1  0
  2  7  1  0
  3  4  1  0
  3  2  1  0
  5  4  1  0
  5 24  1  0
  5  6  1  0
  7  1  1  0
  7  6  1  0
  8  1  2  0
  9 10  2  0
 10 19  1  0
 10 17  1  0
 11 18  1  0
 13 19  1  0
 14 12  2  0
 15 13  2  0
 15 20  1  0
 16  9  1  0
 16 11  2  0
 18 17  2  0
 19 12  1  0
 20 14  1  0
 21 22  2  0
 22 41  1  0
 23 22  1  0
 23 26  1  0
 24 21  1  0
 24 25  1  0
 25 23  2  0
 26 27  1  0
 27 28  2  0
 29 32  1  0
 29 28  1  0
 30 29  2  0
 31 30  1  0
 31 26  2  0
 32 33  1  0
 33 34  1  0
 34 35  2  0
 36 35  1  0
 36 40  1  0
 37 36  2  0
 38 33  2  0
 38 37  1  0
 39 38  1  0
 41 42  1  0
 42 45  1  0
 42 44  1  0
 43 41  2  0
 46 47  1  0
 46 21  1  0
 48 46  1  0
 49 51  1  0
 50 49  1  0
 50 51  1  0
 51  9  1  0
 52 11  1  0
 52 53  1  0
 54 65  2  0
 55 53  1  0
 55 60  1  0
 56 64  1  0
 56 66  1  0
 57 63  1  0
 57 59  1  0
 58 64  1  0
 59 60  2  0
 59 58  1  0
 61 55  2  0
 62 61  1  0
 62 57  2  0
 63 56  1  0
 64 54  1  0
 66 68  2  0
 67 66  1  0
 69 67  1  0
 70 79  2  0
 70 75  1  0
 71 67  1  0
 71 75  1  0
 72 71  1  0
 73 74  1  0
 73 72  1  0
 74 70  1  0
 75 76  2  0
 76 77  1  0
 78 77  2  0
 79 78  1  0
 80 54  1  0
 80 81  1  0
 80 90  1  0
 81 84  1  0
 82 86  1  0
 82 81  1  0
 83 82  2  0
 86 85  1  0
 88 89  1  0
 88 86  1  0
 88 87  1  0
 90 93  1  1
 90 91  1  0
 92 90  1  0
M  ISO  4   1 100  20 100  52 101  53 101
M  END
>  <TORSDO>  (64) 
F 17

>  <SCORE>  (64) 
-15.376

>  <name>  (64) 
64

>  <ligand_id>  (64) 
64

>  <original_smiles>  (64) 
[H]c1c([H])c([H])c2c(c1[H])C([H])([H])C([H])([H])C([H])([H])C2([H])N([H])C(=O)C1([H])N(C(=O)C([H])(N([H])C(=O)C([H])(N([H])C([H])([H])[H])C([H])([H])[H])C(C([H])([H])[H])(C([H])([H])[H])C([H])([H])[H])C([H])([H])c2c([H])c(OC([H])([H])c3nnc(N4C([H])([H])C([H])([H])N(C(=O)N5C([H])([H])C([H])([H])C([H])([H])C([H])(n6nc(-c7c([H])c([H])c(Oc8c([H])c([H])c(F)c([H])c8F)c([H])c7[H])c(C(=O)N([H])[H])c6N([H])[H])C5([H])[H])C([H])([H])C4([H])[H])c(C4([H])C([H])([H])C4([H])[H])n3)c([H])c([H])c2C1([H])[H]

>  <smiles>  (64) 
[H]c1c([H])c([H])c2c(c1[H])C([H])([H])C([H])([H])C([H])([H])C2([H])N([H])C(=O)C1([H])N(C(=O)C([H])(N([H])C(=O)C([H])(N([H])C([H])([H])[H])C([H])([H])[H])C(C([H])([H])[H])(C([H])([H])[H])C([H])([H])[H])C([H])([H])c2c([H])c(OC([H])([H])c3nnc(N4C([H])([H])C([H])([H])N(C(=O)N5C([H])([H])C([H])([H])C([H])([H])C([H])(n6nc(-c7c([H])c([H])c(Oc8c([H])c([H])c(F)c([H])c8F)c([H])c7[H])c(C(=O)N([H])[H])c6N([H])[H])C5([H])[H])C([H])([H])C4([H])[H])c(C4([H])C([H])([H])C4([H])[H])n3)c([H])c([H])c2C1([H])[H]

$$$$
65:0:0
     RDKit          3D

 94103  0  0  1  0  0  0  0  0999 V2000
  -27.0080  -21.8060   19.5440 C   0  0  0  0  0  3  0  0  0  0  0  0
  -27.0880  -23.1980   19.3150 C   0  0  0  0  0  0  0  0  0  0  0  0
  -28.3030  -23.8470   19.6550 C   0  0  0  0  0  0  0  0  0  0  0  0
  -29.2030  -21.6820   20.1560 C   0  0  0  0  0  0  0  0  0  0  0  0
  -28.0520  -21.0610   19.9490 N   0  0  0  0  0  0  0  0  0  0  0  0
  -29.3520  -23.0410   20.0550 N   0  0  0  0  0  0  0  0  0  0  0  0
  -25.3000  -23.2280   17.7260 C   0  0  0  0  0  1  0  0  0  0  0  0
  -26.0460  -23.8890   18.7470 O   0  0  0  0  0  0  0  0  0  0  0  0
  -28.5450  -25.3780   19.2640 C   0  0  0  0  0  2  0  0  0  0  0  0
  -28.3210  -26.5320   20.1760 O   0  0  0  0  0  0  0  0  0  0  0  0
  -24.5850  -31.9010   23.2320 C   0  0  0  0  0  0  0  0  0  0  0  0
  -27.1960  -27.3750   20.1080 C   0  0  0  0  0  0  0  0  0  0  0  0
  -23.3770  -30.5160   21.5830 C   0  0  0  0  0  3  0  0  0  0  0  0
  -24.8220  -28.9800   20.1390 C   0  0  0  0  0  0  0  0  0  0  0  0
  -25.9160  -30.8300   21.4040 C   0  0  0  0  0  2  0  0  0  0  0  0
  -25.9910  -29.4600   20.7410 C   0  0  0  0  0  0  0  0  0  0  0  0
  -27.1740  -28.6630   20.7270 C   0  0  0  0  0  3  0  0  0  0  0  0
  -26.0070  -26.9610   19.4770 C   0  0  0  0  0  3  0  0  0  0  0  0
  -24.8290  -27.7290   19.5050 C   0  0  0  0  0  3  0  0  0  0  0  0
  -23.5850  -29.8510   20.1980 C   0  0  0  0  0  2  0  0  0  0  0  0
  -24.6440  -31.1000   22.1300 N   0  0  0  0  0  0  0  0  0  0  0  0
  -23.5030  -32.1760   23.7700 O   0  0  0  0  0  0  0  0  0  0  0  0
  -22.7140  -29.4930   22.5360 C   0  0  0  0  0  0  0  0  0  0  0  0
  -21.3870  -29.3240   22.4090 N   0  0  0  0  0  0  0  0  0  0  0  0
  -23.3930  -28.8570   23.3450 O   0  0  0  0  0  0  0  0  0  0  0  0
  -20.9040  -29.8910   21.7270 H   0  0  0  0  0  0  0  0  0  0  0  0
  -18.0010  -28.1550   22.9180 C   0  0  0  0  0  0  0  0  0  0  0  0
  -20.5640  -28.3840   23.1710 C   0  0  0  0  0  3  0  0  0  0  0  0
  -20.6460  -26.9610   22.5710 C   0  0  0  0  0  2  0  0  0  0  0  0
  -19.5330  -26.6650   21.5610 C   0  0  0  0  0  2  0  0  0  0  0  0
  -18.1590  -26.8150   22.2210 C   0  0  0  0  0  2  0  0  0  0  0  0
  -19.1310  -28.9000   23.3490 C   0  0  0  0  0  0  0  0  0  0  0  0
  -18.9300  -30.1560   23.9640 C   0  0  0  0  0  3  0  0  0  0  0  0
  -17.6300  -30.6660   24.1510 C   0  0  0  0  0  3  0  0  0  0  0  0
  -16.5160  -29.9190   23.7330 C   0  0  0  0  0  3  0  0  0  0  0  0
  -16.7010  -28.6650   23.1240 C   0  0  0  0  0  3  0  0  0  0  0  0
  -25.8750  -32.5200   23.8570 C   0  0  0  0  0  3  0  0  0  0  0  0
  -26.3860  -31.7370   25.1300 C   0  0  1  0  0  0  0  0  0  0  0  0
  -25.2890  -31.4950   26.1930 C   0  0  0  0  0  1  0  0  0  0  0  0
  -26.9610  -30.3560   24.7320 C   0  0  0  0  0  1  0  0  0  0  0  0
  -27.5410  -32.5190   25.8000 C   0  0  0  0  0  1  0  0  0  0  0  0
  -25.5730  -33.9160   24.1990 N   0  0  0  0  0  0  0  0  0  0  0  0
  -25.8920  -34.9710   23.4390 C   0  0  0  0  0  0  0  0  0  0  0  0
  -26.5410  -34.8710   22.3950 O   0  0  0  0  0  0  0  0  0  0  0  0
  -24.9950  -34.0690   25.0120 H   0  0  0  0  0  0  0  0  0  0  0  0
  -24.1560  -36.7640   23.1170 C   0  0  0  0  0  1  0  0  0  0  0  0
  -25.4110  -36.3590   23.9060 C   0  0  0  0  0  3  0  0  0  0  0  0
  -27.5570  -37.2470   24.7050 C   0  0  0  0  0  1  0  0  0  0  0  0
  -26.4410  -37.4130   23.7750 N   0  0  0  0  0  0  0  0  0  0  0  0
  -26.0400  -38.3320   23.9260 H   0  0  0  0  0  0  0  0  0  0  0  0
  -30.4130  -20.7990   20.6240 C   0  0  0  0  0  2  0  0  0  0  0  0
  -30.2320  -18.2710   21.4280 C   0  0  0  0  0  2  0  0  0  0  0  0
  -30.0480  -18.3670   19.4090 C   0  0  0  0  0  2  0  0  0  0  0  0
  -30.6410  -17.2430   20.3330 C   0  0  0  0  0  3  0  0  0  0  0  0
  -30.6190  -19.2920   20.4260 N   0  0  1  0  0  4  0  0  0  0  0  0
  -31.6200  -19.2130   20.3410 H   0  0  0  0  0  0  0  0  0  0  0  0
  -30.7330  -14.6890   19.9980 C   0  0  0  0  0  0  0  0  0  0  0  0
  -30.3860  -12.4580   18.9610 C   0  0  0  0  0  2  0  0  0  0  0  0
  -29.3830  -12.5890   17.7930 C   0  0  0  0  0  2  0  0  0  0  0  0
  -27.9380  -12.4390   18.3030 C   0  0  0  0  0  2  0  0  0  0  0  0
  -27.6540  -13.3060   19.5560 C   0  0  0  0  0  3  0  0  0  0  0  0
  -28.7740  -13.1840   20.6140 C   0  0  0  0  0  2  0  0  0  0  0  0
  -30.0470  -13.5000   19.9540 N   0  0  0  0  0  0  0  0  0  0  0  0
  -31.8780  -14.7660   19.5500 O   0  0  0  0  0  0  0  0  0  0  0  0
  -30.0670  -15.8340   20.3650 N   0  0  0  0  0  0  0  0  0  0  0  0
  -29.1260  -15.7130   20.7100 H   0  0  0  0  0  0  0  0  0  0  0  0
  -25.3190  -13.9120   20.4310 C   0  0  0  0  0  0  0  0  0  0  0  0
  -24.2700  -13.1420   20.8560 C   0  0  0  0  0  0  0  0  0  0  0  0
  -24.7120  -11.7870   20.7660 C   0  0  0  0  0  0  0  0  0  0  0  0
  -26.3350  -13.0250   20.1180 N   0  0  0  0  0  0  0  0  0  0  0  0
  -25.9820  -11.7410   20.3790 N   0  0  0  0  0  0  0  0  0  0  0  0
  -23.9810  -10.5280   20.9720 C   0  0  0  0  0  0  0  0  0  0  0  0
  -24.4400   -9.5470   21.8780 C   0  0  0  0  0  3  0  0  0  0  0  0
  -23.7100   -8.3550   22.0730 C   0  0  0  0  0  3  0  0  0  0  0  0
  -22.5050   -8.1350   21.3620 C   0  0  0  0  0  0  0  0  0  0  0  0
  -22.0660   -9.1060   20.4430 C   0  0  0  0  0  3  0  0  0  0  0  0
  -22.7980  -10.2890   20.2450 C   0  0  0  0  0  3  0  0  0  0  0  0
  -21.7430   -6.9970   21.4680 O   0  0  0  0  0  0  0  0  0  0  0  0
  -21.7100   -6.2580   22.6230 C   0  0  0  0  0  0  0  0  0  0  0  0
  -21.2750   -6.8110   23.8470 C   0  0  0  0  0  3  0  0  0  0  0  0
  -21.1860   -5.9970   24.9950 C   0  0  0  0  0  3  0  0  0  0  0  0
  -21.5270   -4.6340   24.9210 C   0  0  0  0  0  0  0  0  0  0  0  0
  -21.9590   -4.0820   23.7020 C   0  0  0  0  0  3  0  0  0  0  0  0
  -22.0470   -4.8900   22.5570 C   0  0  0  0  0  0  0  0  0  0  0  0
  -22.4420   -4.3470   21.3790 F   0  0  0  0  0  0  0  0  0  0  0  0
  -21.4370   -3.8530   26.0220 F   0  0  0  0  0  0  0  0  0  0  0  0
  -22.8980  -13.6310   21.2220 C   0  0  0  0  0  0  0  0  0  0  0  0
  -22.2130  -12.9240   22.1160 N   0  0  0  0  0  0  0  0  0  0  0  0
  -22.4420  -14.6710   20.7500 O   0  0  0  0  0  0  0  0  0  0  0  0
  -22.5980  -12.0830   22.5220 H   0  0  0  0  0  0  0  0  0  0  0  0
  -21.2960  -13.2330   22.4020 H   0  0  0  0  0  0  0  0  0  0  0  0
  -25.4860  -15.2840   20.2690 N   0  0  0  0  0  0  0  0  0  0  0  0
  -24.7280  -15.9350   20.4420 H   0  0  0  0  0  0  0  0  0  0  0  0
  -26.2940  -15.7240   19.8460 H   0  0  0  0  0  0  0  0  0  0  0  0
  1  5  1  0
  2  1  2  0
  2  3  1  0
  3  6  2  0
  4 51  1  0
  5  4  2  0
  6  4  1  0
  7  8  1  0
  8  2  1  0
  9  3  1  0
  9 10  1  0
 11 22  2  0
 12 10  1  0
 12 17  1  0
 13 21  1  0
 13 23  1  0
 14 20  1  0
 14 16  1  0
 15 21  1  0
 16 15  1  0
 17 16  2  0
 18 19  1  0
 18 12  2  0
 19 14  2  0
 20 13  1  0
 21 11  1  0
 23 25  2  0
 24 23  1  0
 26 24  1  0
 27 36  2  0
 27 32  1  0
 28 24  1  0
 28 32  1  0
 29 28  1  0
 30 31  1  0
 30 29  1  0
 31 27  1  0
 32 33  2  0
 33 34  1  0
 35 34  2  0
 36 35  1  0
 37 11  1  0
 37 42  1  0
 37 38  1  0
 38 41  1  1
 38 39  1  0
 40 38  1  0
 42 45  1  0
 43 47  1  0
 43 42  1  0
 44 43  2  0
 47 46  1  0
 49 47  1  0
 49 50  1  0
 49 48  1  0
 53 54  1  0
 53 55  1  0
 54 65  1  0
 54 52  1  0
 55 51  1  0
 55 52  1  0
 55 56  1  6
 57 65  1  0
 58 63  1  0
 59 60  1  0
 59 58  1  0
 61 60  1  0
 61 70  1  0
 61 62  1  0
 63 57  1  0
 63 62  1  0
 64 57  2  0
 65 66  1  0
 67 68  2  0
 68 87  1  0
 69 68  1  0
 69 72  1  0
 70 71  1  0
 70 67  1  0
 71 69  2  0
 72 73  1  0
 73 74  2  0
 75 78  1  0
 75 74  1  0
 76 75  2  0
 77 76  1  0
 77 72  2  0
 78 79  1  0
 79 80  1  0
 80 81  2  0
 82 81  1  0
 82 86  1  0
 83 82  2  0
 84 79  2  0
 84 83  1  0
 85 84  1  0
 87 88  1  0
 88 91  1  0
 88 90  1  0
 89 87  2  0
 92 67  1  0
 92 93  1  0
 94 92  1  0
M  ISO  4   9 101  10 101  57 100  65 100
M  END
>  <TORSDO>  (65) 
F 20

>  <SCORE>  (65) 
-13.712

>  <name>  (65) 
65

>  <ligand_id>  (65) 
65

>  <original_smiles>  (65) 
[H]c1nc(C([H])([H])[N+]2([H])C([H])([H])C([H])(N([H])C(=O)N3C([H])([H])C([H])([H])C([H])([H])C([H])(n4nc(-c5c([H])c([H])c(Oc6c([H])c([H])c(F)c([H])c6F)c([H])c5[H])c(C(=O)N([H])[H])c4N([H])[H])C3([H])[H])C2([H])[H])nc(C([H])([H])Oc2c([H])c([H])c3c(c2[H])C([H])([H])N(C(=O)C([H])(N([H])C(=O)C([H])(N([H])C([H])([H])[H])C([H])([H])[H])C(C([H])([H])[H])(C([H])([H])[H])C([H])([H])[H])C([H])(C(=O)N([H])C2([H])c4c([H])c([H])c([H])c([H])c4C([H])([H])C([H])([H])C2([H])[H])C3([H])[H])c1OC([H])([H])[H]

>  <smiles>  (65) 
[H]c1nc(C([H])([H])[N+]2([H])C([H])([H])C([H])(N([H])C(=O)N3C([H])([H])C([H])([H])C([H])([H])C([H])(n4nc(-c5c([H])c([H])c(Oc6c([H])c([H])c(F)c([H])c6F)c([H])c5[H])c(C(=O)N([H])[H])c4N([H])[H])C3([H])[H])C2([H])[H])nc(C([H])([H])Oc2c([H])c([H])c3c(c2[H])C([H])([H])N(C(=O)C([H])(N([H])C(=O)C([H])(N([H])C([H])([H])[H])C([H])([H])[H])C(C([H])([H])[H])(C([H])([H])[H])C([H])([H])[H])C([H])(C(=O)N([H])C2([H])c4c([H])c([H])c([H])c([H])c4C([H])([H])C([H])([H])C2([H])[H])C3([H])[H])c1OC([H])([H])[H]

$$$$
66:0:0
     RDKit          3D

 98107  0  0  1  0  0  0  0  0999 V2000
  -31.5440  -15.2520   18.9260 C   0  0  0  0  0  0  0  0  0  0  0  0
  -31.2810  -12.7650   18.6800 C   0  0  0  0  0  2  0  0  0  0  0  0
  -30.2660  -12.4040   17.5750 C   0  0  0  0  0  2  0  0  0  0  0  0
  -28.8440  -12.3460   18.1560 C   0  0  0  0  0  2  0  0  0  0  0  0
  -28.5210  -13.5630   19.0660 C   0  0  0  0  0  3  0  0  0  0  0  0
  -29.6620  -13.8690   20.0590 C   0  0  0  0  0  2  0  0  0  0  0  0
  -30.8690  -14.0810   19.2510 N   0  0  0  0  0  0  0  0  0  0  0  0
  -32.7180  -15.1130   18.5660 O   0  0  0  0  0  0  0  0  0  0  0  0
  -31.7250  -17.5770   17.9430 C   0  0  0  0  0  2  0  0  0  0  0  0
  -30.9850  -18.7440   17.1430 C   0  0  0  0  0  2  0  0  0  0  0  0
  -29.0730  -18.3650   18.4800 C   0  0  0  0  0  2  0  0  0  0  0  0
  -29.8380  -17.2770   19.4010 C   0  0  0  0  0  3  0  0  0  0  0  0
  -30.9400  -16.5280   18.6970 N   0  0  0  0  0  0  0  0  0  0  0  0
  -29.8880  -19.4820   17.8530 N   0  0  2  0  0  4  0  0  0  0  0  0
  -30.2950  -20.0150   18.6070 H   0  0  0  0  0  0  0  0  0  0  0  0
  -26.4030  -14.4040   20.2260 C   0  0  0  0  0  0  0  0  0  0  0  0
  -25.2840  -13.7610   20.6780 C   0  0  0  0  0  0  0  0  0  0  0  0
  -25.5000  -12.3710   20.4320 C   0  0  0  0  0  0  0  0  0  0  0  0
  -27.2350  -13.4140   19.7350 N   0  0  0  0  0  0  0  0  0  0  0  0
  -26.7100  -12.1760   19.9220 N   0  0  0  0  0  0  0  0  0  0  0  0
  -24.5990  -11.2230   20.5980 C   0  0  0  0  0  0  0  0  0  0  0  0
  -24.9960  -10.0690   21.3100 C   0  0  0  0  0  3  0  0  0  0  0  0
  -24.1040   -8.9870   21.4740 C   0  0  0  0  0  3  0  0  0  0  0  0
  -22.8010   -9.0520   20.9280 C   0  0  0  0  0  0  0  0  0  0  0  0
  -22.4180  -10.1930   20.2000 C   0  0  0  0  0  3  0  0  0  0  0  0
  -23.3080  -11.2670   20.0330 C   0  0  0  0  0  3  0  0  0  0  0  0
  -21.8750   -8.0400   21.0170 O   0  0  0  0  0  0  0  0  0  0  0  0
  -21.9320   -7.0980   22.0120 C   0  0  0  0  0  0  0  0  0  0  0  0
  -21.8730   -7.4510   23.3770 C   0  0  0  0  0  3  0  0  0  0  0  0
  -21.8640   -6.4460   24.3650 C   0  0  0  0  0  3  0  0  0  0  0  0
  -21.9060   -5.0900   23.9910 C   0  0  0  0  0  0  0  0  0  0  0  0
  -21.9590   -4.7360   22.6310 C   0  0  0  0  0  3  0  0  0  0  0  0
  -21.9700   -5.7360   21.6450 C   0  0  0  0  0  0  0  0  0  0  0  0
  -21.9990   -5.3890   20.3360 F   0  0  0  0  0  0  0  0  0  0  0  0
  -21.8900   -4.1240   24.9390 F   0  0  0  0  0  0  0  0  0  0  0  0
  -24.0410  -14.4100   21.2110 C   0  0  0  0  0  0  0  0  0  0  0  0
  -23.3450  -13.7430   22.1250 N   0  0  0  0  0  0  0  0  0  0  0  0
  -23.7060  -15.5380   20.8530 O   0  0  0  0  0  0  0  0  0  0  0  0
  -23.6320  -12.8250   22.4320 H   0  0  0  0  0  0  0  0  0  0  0  0
  -22.5130  -14.1560   22.5220 H   0  0  0  0  0  0  0  0  0  0  0  0
  -26.7710  -15.7450   20.1600 N   0  0  0  0  0  0  0  0  0  0  0  0
  -26.1160  -16.4790   20.4090 H   0  0  0  0  0  0  0  0  0  0  0  0
  -27.5460  -16.0800   19.6050 H   0  0  0  0  0  0  0  0  0  0  0  0
  -29.8150  -17.0690   21.9700 C   0  0  0  0  0  1  0  0  0  0  0  0
  -30.2920  -17.9210   20.7690 C   0  0  0  0  0  3  0  0  0  0  0  0
  -31.8130  -18.2190   20.9260 C   0  0  0  0  0  2  0  0  0  0  0  0
  -31.3720  -20.6050   21.5390 C   0  0  0  0  0  1  0  0  0  0  0  0
  -32.1150  -19.3590   21.8230 N   0  0  0  0  0  4  0  0  0  0  0  0
  -31.9640  -19.0900   22.7810 H   0  0  0  0  0  0  0  0  0  0  0  0
  -33.0960  -19.5720   21.7320 H   0  0  0  0  0  0  0  0  0  0  0  0
  -29.0540  -20.4760   16.9660 C   0  0  0  0  0  2  0  0  0  0  0  0
  -29.4330  -23.0030   16.0470 C   0  0  0  0  0  3  0  0  0  0  0  0
  -27.9830  -22.7850   17.8520 C   0  0  0  0  0  2  0  0  0  0  0  0
  -28.9190  -22.1020   17.0160 C   0  0  0  0  0  0  0  0  0  0  0  0
  -28.1390  -24.8550   16.7500 C   0  0  0  0  0  0  0  0  0  0  0  0
  -29.0680  -24.3260   15.9350 N   0  0  0  0  0  0  0  0  0  0  0  0
  -27.6090  -24.1080   17.7290 N   0  0  0  0  0  0  0  0  0  0  0  0
  -27.8340  -26.2310   16.5700 O   0  0  0  0  0  0  0  0  0  0  0  0
  -25.6370  -29.3410   22.8100 C   0  0  0  0  0  0  0  0  0  0  0  0
  -26.8680  -26.9840   17.2960 C   0  0  0  0  0  0  0  0  0  0  0  0
  -23.9520  -29.1010   21.0230 C   0  0  0  0  0  3  0  0  0  0  0  0
  -24.8510  -28.4990   18.6980 C   0  0  0  0  0  0  0  0  0  0  0  0
  -26.4360  -29.3430   20.4270 C   0  0  0  0  0  2  0  0  0  0  0  0
  -26.1710  -28.5210   19.1620 C   0  0  0  0  0  0  0  0  0  0  0  0
  -27.1790  -27.7800   18.4580 C   0  0  0  0  0  3  0  0  0  0  0  0
  -25.5320  -27.0500   16.8450 C   0  0  0  0  0  3  0  0  0  0  0  0
  -24.5370  -27.7770   17.5340 C   0  0  0  0  0  3  0  0  0  0  0  0
  -23.8060  -29.2680   19.4860 C   0  0  0  0  0  2  0  0  0  0  0  0
  -25.3740  -29.2480   21.4720 N   0  0  0  0  0  0  0  0  0  0  0  0
  -24.7250  -29.3290   23.6490 O   0  0  0  0  0  0  0  0  0  0  0  0
  -23.3130  -27.7560   21.4470 C   0  0  0  0  0  0  0  0  0  0  0  0
  -21.9750  -27.6620   21.3600 N   0  0  0  0  0  0  0  0  0  0  0  0
  -24.0200  -26.8170   21.8210 O   0  0  0  0  0  0  0  0  0  0  0  0
  -21.4620  -28.4780   21.0530 H   0  0  0  0  0  0  0  0  0  0  0  0
  -18.6430  -26.2610   21.1900 C   0  0  0  0  0  0  0  0  0  0  0  0
  -21.1760  -26.4740   21.6620 C   0  0  0  0  0  3  0  0  0  0  0  0
  -21.3640  -25.3860   20.5800 C   0  0  0  0  0  2  0  0  0  0  0  0
  -20.3130  -25.4520   19.4680 C   0  0  0  0  0  2  0  0  0  0  0  0
  -18.9050  -25.2910   20.0500 C   0  0  0  0  0  2  0  0  0  0  0  0
  -19.7090  -26.8280   21.9370 C   0  0  0  0  0  0  0  0  0  0  0  0
  -19.4120  -27.7480   22.9650 C   0  0  0  0  0  3  0  0  0  0  0  0
  -18.0800  -28.1010   23.2520 C   0  0  0  0  0  3  0  0  0  0  0  0
  -17.0270  -27.5260   22.5200 C   0  0  0  0  0  3  0  0  0  0  0  0
  -17.3090  -26.6060   21.4950 C   0  0  0  0  0  3  0  0  0  0  0  0
  -27.0930  -29.4860   23.3470 C   0  0  0  0  0  3  0  0  0  0  0  0
  -27.8250  -28.1010   23.5410 C   0  0  1  0  0  0  0  0  0  0  0  0
  -27.0140  -27.0790   24.3710 C   0  0  0  0  0  1  0  0  0  0  0  0
  -28.1410  -27.4500   22.1740 C   0  0  0  0  0  1  0  0  0  0  0  0
  -29.1830  -28.3200   24.2490 C   0  0  0  0  0  1  0  0  0  0  0  0
  -27.0270  -30.2160   24.6230 N   0  0  0  0  0  0  0  0  0  0  0  0
  -27.5160  -31.4480   24.8240 C   0  0  0  0  0  0  0  0  0  0  0  0
  -28.1360  -32.0700   23.9580 O   0  0  0  0  0  0  0  0  0  0  0  0
  -26.4840  -29.7910   25.3600 H   0  0  0  0  0  0  0  0  0  0  0  0
  -26.1540  -33.1340   26.1020 C   0  0  0  0  0  1  0  0  0  0  0  0
  -27.2790  -32.0920   26.2050 C   0  0  0  0  0  3  0  0  0  0  0  0
  -29.5130  -31.7580   27.1680 C   0  0  0  0  0  1  0  0  0  0  0  0
  -28.4890  -32.7220   26.7760 N   0  0  0  0  0  0  0  0  0  0  0  0
  -28.2530  -33.2830   27.5900 H   0  0  0  0  0  0  0  0  0  0  0  0
  1  7  1  0
  2  7  1  0
  3  4  1  0
  3  2  1  0
  5  4  1  0
  5 19  1  0
  5  6  1  0
  7  6  1  0
  8  1  2  0
  9 13  1  0
 10 14  1  0
 10  9  1  0
 11 12  1  0
 12 45  1  0
 13  1  1  0
 13 12  1  0
 14 11  1  0
 14 15  1  1
 16 17  2  0
 17 36  1  0
 18 21  1  0
 18 17  1  0
 19 20  1  0
 19 16  1  0
 20 18  2  0
 21 22  1  0
 22 23  2  0
 24 27  1  0
 24 23  1  0
 25 24  2  0
 26 25  1  0
 26 21  2  0
 27 28  1  0
 28 29  1  0
 29 30  2  0
 31 30  1  0
 31 35  1  0
 32 31  2  0
 33 28  2  0
 33 32  1  0
 34 33  1  0
 36 37  1  0
 37 39  1  0
 37 40  1  0
 38 36  2  0
 41 16  1  0
 41 42  1  0
 43 41  1  0
 45 46  1  0
 45 44  1  0
 46 48  1  0
 47 48  1  0
 48 49  1  0
 50 48  1  0
 51 54  1  0
 51 14  1  0
 52 54  2  0
 54 53  1  0
 55 57  2  0
 56 52  1  0
 56 55  2  0
 57 53  1  0
 58 55  1  0
 58 60  1  0
 59 70  2  0
 60 65  1  0
 61 71  1  0
 61 69  1  0
 62 64  1  0
 62 68  1  0
 63 69  1  0
 64 63  1  0
 65 64  2  0
 66 60  2  0
 66 67  1  0
 67 62  2  0
 68 61  1  0
 69 59  1  0
 71 73  2  0
 72 71  1  0
 74 72  1  0
 75 84  2  0
 75 80  1  0
 76 72  1  0
 76 80  1  0
 77 76  1  0
 78 79  1  0
 78 77  1  0
 79 75  1  0
 80 81  2  0
 81 82  1  0
 83 82  2  0
 84 83  1  0
 85 59  1  0
 85 86  1  0
 85 90  1  0
 86 89  1  1
 86 87  1  0
 88 86  1  0
 90 91  1  0
 90 93  1  0
 91 95  1  0
 92 91  2  0
 95 94  1  0
 95 97  1  0
 97 96  1  0
 97 98  1  0
M  ISO  4   1 100  13 100  55 101  58 101
M  END
>  <TORSDO>  (66) 
F 20

>  <SCORE>  (66) 
-9.355

>  <name>  (66) 
66

>  <ligand_id>  (66) 
66

>  <original_smiles>  (66) 
[H]c1nc(Oc2c([H])c([H])c3c(c2[H])C([H])([H])N(C(=O)C([H])(N([H])C(=O)C([H])(N([H])C([H])([H])[H])C([H])([H])[H])C(C([H])([H])[H])(C([H])([H])[H])C([H])([H])[H])C([H])(C(=O)N([H])C2([H])c4c([H])c([H])c([H])c([H])c4C([H])([H])C([H])([H])C2([H])[H])C3([H])[H])nc([H])c1C([H])([H])[N+]1([H])C([H])([H])C([H])([H])N(C(=O)N2C([H])([H])C([H])([H])C([H])([H])C([H])(n3nc(-c4c([H])c([H])c(Oc5c([H])c([H])c(F)c([H])c5F)c([H])c4[H])c(C(=O)N([H])[H])c3N([H])[H])C2([H])[H])C([H])(C([H])(C([H])([H])[H])C([H])([H])[N+]([H])([H])C([H])([H])[H])C1([H])[H]

>  <smiles>  (66) 
[H]c1nc(Oc2c([H])c([H])c3c(c2[H])C([H])([H])N(C(=O)C([H])(N([H])C(=O)C([H])(N([H])C([H])([H])[H])C([H])([H])[H])C(C([H])([H])[H])(C([H])([H])[H])C([H])([H])[H])C([H])(C(=O)N([H])C2([H])c4c([H])c([H])c([H])c([H])c4C([H])([H])C([H])([H])C2([H])[H])C3([H])[H])nc([H])c1C([H])([H])[N+]1([H])C([H])([H])C([H])([H])N(C(=O)N2C([H])([H])C([H])([H])C([H])([H])C([H])(n3nc(-c4c([H])c([H])c(Oc5c([H])c([H])c(F)c([H])c5F)c([H])c4[H])c(C(=O)N([H])[H])c3N([H])[H])C2([H])[H])C([H])(C([H])(C([H])([H])[H])C([H])([H])[N+]([H])([H])C([H])([H])[H])C1([H])[H]

$$$$
67:0:0
     RDKit          3D

 98106  0  0  1  0  0  0  0  0999 V2000
  -28.6960  -20.4850   20.2010 C   0  0  0  0  0  2  0  0  0  0  0  0
  -28.8080  -19.1720   21.0400 C   0  0  0  0  0  2  0  0  0  0  0  0
  -30.9140  -19.5620   22.0960 C   0  0  0  0  0  1  0  0  0  0  0  0
  -30.1520  -18.6040   21.2930 N   0  0  0  0  0  0  0  0  0  0  0  0
  -30.8420  -16.9010   17.8910 C   0  0  0  0  0  2  0  0  0  0  0  0
  -32.3040  -17.4230   17.8490 C   0  0  0  0  0  2  0  0  0  0  0  0
  -32.3940  -17.8010   20.3070 C   0  0  0  0  0  2  0  0  0  0  0  0
  -30.1960  -16.9760   19.3110 C   0  0  0  0  0  3  0  0  0  0  0  0
  -30.8860  -18.1360   20.0930 C   0  0  0  0  0  3  0  0  0  0  0  0
  -32.9960  -17.1410   19.1230 N   0  0  0  0  0  4  0  0  0  0  0  0
  -33.9810  -17.3530   19.0640 H   0  0  0  0  0  0  0  0  0  0  0  0
  -32.8930  -16.1370   19.2680 H   0  0  0  0  0  0  0  0  0  0  0  0
  -30.9020  -14.5890   19.9320 C   0  0  0  0  0  0  0  0  0  0  0  0
  -30.5750  -12.3920   18.9110 C   0  0  0  0  0  2  0  0  0  0  0  0
  -29.5640  -12.5750   17.7580 C   0  0  0  0  0  2  0  0  0  0  0  0
  -28.1190  -12.4300   18.2740 C   0  0  0  0  0  2  0  0  0  0  0  0
  -27.8420  -13.2730   19.5490 C   0  0  0  0  0  3  0  0  0  0  0  0
  -28.9710  -13.1100   20.5930 C   0  0  0  0  0  2  0  0  0  0  0  0
  -30.2530  -13.3970   19.9340 N   0  0  0  0  0  0  0  0  0  0  0  0
  -32.0620  -14.7190   19.5380 O   0  0  0  0  0  0  0  0  0  0  0  0
  -30.1010  -15.6710   20.0340 N   0  0  0  0  0  0  0  0  0  0  0  0
  -29.1990  -15.4840   20.4460 H   0  0  0  0  0  0  0  0  0  0  0  0
  -25.5020  -13.8480   20.4490 C   0  0  0  0  0  0  0  0  0  0  0  0
  -24.4670  -13.0600   20.8740 C   0  0  0  0  0  0  0  0  0  0  0  0
  -24.9270  -11.7120   20.7730 C   0  0  0  0  0  0  0  0  0  0  0  0
  -26.5300  -12.9770   20.1180 N   0  0  0  0  0  0  0  0  0  0  0  0
  -26.1920  -11.6860   20.3720 N   0  0  0  0  0  0  0  0  0  0  0  0
  -24.2190  -10.4420   20.9800 C   0  0  0  0  0  0  0  0  0  0  0  0
  -24.6590   -9.4980   21.9330 C   0  0  0  0  0  3  0  0  0  0  0  0
  -23.9520   -8.2920   22.1270 C   0  0  0  0  0  3  0  0  0  0  0  0
  -22.7900   -8.0220   21.3650 C   0  0  0  0  0  0  0  0  0  0  0  0
  -22.3690   -8.9560   20.4010 C   0  0  0  0  0  3  0  0  0  0  0  0
  -23.0780  -10.1530   20.2070 C   0  0  0  0  0  3  0  0  0  0  0  0
  -22.0530   -6.8670   21.4660 O   0  0  0  0  0  0  0  0  0  0  0  0
  -21.9350   -6.1890   22.6530 C   0  0  0  0  0  0  0  0  0  0  0  0
  -21.3840   -6.7930   23.8030 C   0  0  0  0  0  3  0  0  0  0  0  0
  -21.2160   -6.0400   24.9820 C   0  0  0  0  0  3  0  0  0  0  0  0
  -21.5910   -4.6830   25.0110 C   0  0  0  0  0  0  0  0  0  0  0  0
  -22.1330   -4.0780   23.8650 C   0  0  0  0  0  3  0  0  0  0  0  0
  -22.3010   -4.8290   22.6880 C   0  0  0  0  0  0  0  0  0  0  0  0
  -22.8060   -4.2340   21.5790 F   0  0  0  0  0  0  0  0  0  0  0  0
  -21.4210   -3.9570   26.1410 F   0  0  0  0  0  0  0  0  0  0  0  0
  -23.0920  -13.5250   21.2600 C   0  0  0  0  0  0  0  0  0  0  0  0
  -22.4300  -12.8020   22.1580 N   0  0  0  0  0  0  0  0  0  0  0  0
  -22.6150  -14.5630   20.8020 O   0  0  0  0  0  0  0  0  0  0  0  0
  -22.8320  -11.9640   22.5530 H   0  0  0  0  0  0  0  0  0  0  0  0
  -21.5090  -13.0890   22.4560 H   0  0  0  0  0  0  0  0  0  0  0  0
  -25.6480  -15.2240   20.2970 N   0  0  0  0  0  0  0  0  0  0  0  0
  -24.8850  -15.8670   20.4770 H   0  0  0  0  0  0  0  0  0  0  0  0
  -26.4620  -15.6770   19.9030 H   0  0  0  0  0  0  0  0  0  0  0  0
  -28.5720  -21.8140   20.9940 C   0  0  0  0  0  2  0  0  0  0  0  0
  -28.2930  -22.9680   20.0930 N   0  0  0  0  0  4  0  0  0  0  0  0
  -27.4130  -22.8090   19.6260 H   0  0  0  0  0  0  0  0  0  0  0  0
  -29.0060  -22.9640   19.3790 H   0  0  0  0  0  0  0  0  0  0  0  0
  -27.0450  -24.5250   21.6160 C   0  0  0  0  0  1  0  0  0  0  0  0
  -28.2860  -24.3270   20.7160 C   0  0  0  0  0  3  0  0  0  0  0  0
  -28.4390  -25.4290   19.6220 C   0  0  0  0  0  2  0  0  0  0  0  0
  -28.3590  -26.7750   20.1180 O   0  0  0  0  0  0  0  0  0  0  0  0
  -24.5450  -31.8960   23.2420 C   0  0  0  0  0  0  0  0  0  0  0  0
  -27.1630  -27.4720   20.0980 C   0  0  0  0  0  0  0  0  0  0  0  0
  -23.3270  -30.5200   21.5870 C   0  0  0  0  0  3  0  0  0  0  0  0
  -24.7680  -28.9900   20.1440 C   0  0  0  0  0  0  0  0  0  0  0  0
  -25.8560  -30.8630   21.3920 C   0  0  0  0  0  2  0  0  0  0  0  0
  -25.9320  -29.4980   20.7350 C   0  0  0  0  0  0  0  0  0  0  0  0
  -27.1270  -28.7460   20.7110 C   0  0  0  0  0  3  0  0  0  0  0  0
  -25.9740  -26.9770   19.5060 C   0  0  0  0  0  3  0  0  0  0  0  0
  -24.7840  -27.7270   19.5300 C   0  0  0  0  0  3  0  0  0  0  0  0
  -23.5300  -29.8530   20.2010 C   0  0  0  0  0  2  0  0  0  0  0  0
  -24.5950  -31.1050   22.1330 N   0  0  0  0  0  0  0  0  0  0  0  0
  -23.4670  -32.1700   23.7860 O   0  0  0  0  0  0  0  0  0  0  0  0
  -22.6710  -29.4920   22.5360 C   0  0  0  0  0  0  0  0  0  0  0  0
  -21.3470  -29.3160   22.4040 N   0  0  0  0  0  0  0  0  0  0  0  0
  -23.3510  -28.8550   23.3450 O   0  0  0  0  0  0  0  0  0  0  0  0
  -20.8590  -29.8800   21.7220 H   0  0  0  0  0  0  0  0  0  0  0  0
  -17.9640  -28.1460   22.8960 C   0  0  0  0  0  0  0  0  0  0  0  0
  -20.5250  -28.3750   23.1650 C   0  0  0  0  0  3  0  0  0  0  0  0
  -20.6130  -26.9510   22.5680 C   0  0  0  0  0  2  0  0  0  0  0  0
  -19.5060  -26.6520   21.5520 C   0  0  0  0  0  2  0  0  0  0  0  0
  -18.1280  -26.8030   22.2020 C   0  0  0  0  0  2  0  0  0  0  0  0
  -19.0910  -28.8910   23.3330 C   0  0  0  0  0  0  0  0  0  0  0  0
  -18.8870  -30.1500   23.9390 C   0  0  0  0  0  3  0  0  0  0  0  0
  -17.5880  -30.6620   24.1120 C   0  0  0  0  0  3  0  0  0  0  0  0
  -16.4750  -29.9130   23.6940 C   0  0  0  0  0  3  0  0  0  0  0  0
  -16.6650  -28.6560   23.0900 C   0  0  0  0  0  3  0  0  0  0  0  0
  -25.8360  -32.5140   23.8630 C   0  0  0  0  0  3  0  0  0  0  0  0
  -25.5440  -33.9170   24.1870 N   0  0  0  0  0  0  0  0  0  0  0  0
  -25.8950  -34.9620   23.4250 C   0  0  0  0  0  0  0  0  0  0  0  0
  -26.5710  -34.8450   22.3990 O   0  0  0  0  0  0  0  0  0  0  0  0
  -24.9450  -34.0830   24.9820 H   0  0  0  0  0  0  0  0  0  0  0  0
  -24.1980  -36.7790   23.0420 C   0  0  0  0  0  1  0  0  0  0  0  0
  -25.4210  -36.3580   23.8720 C   0  0  0  0  0  3  0  0  0  0  0  0
  -27.5530  -37.2150   24.7360 C   0  0  0  0  0  1  0  0  0  0  0  0
  -26.4710  -37.3950   23.7730 N   0  0  0  0  0  0  0  0  0  0  0  0
  -26.0760  -38.3220   23.9100 H   0  0  0  0  0  0  0  0  0  0  0  0
  -26.3410  -31.7410   25.1440 C   0  0  1  0  0  0  0  0  0  0  0  0
  -25.2410  -31.5110   26.2070 C   0  0  0  0  0  1  0  0  0  0  0  0
  -26.9150  -30.3590   24.7540 C   0  0  0  0  0  1  0  0  0  0  0  0
  -27.4940  -32.5260   25.8100 C   0  0  0  0  0  1  0  0  0  0  0  0
  1 51  1  0
  1  2  1  0
  2  4  1  0
  4  3  1  0
  5  8  1  0
  6  5  1  0
  6 10  1  0
  8 21  1  0
  8  9  1  0
  9  7  1  0
  9  4  1  0
 10 12  1  0
 10  7  1  0
 11 10  1  0
 13 19  1  0
 13 21  1  0
 14 19  1  0
 15 16  1  0
 15 14  1  0
 17 16  1  0
 17 26  1  0
 17 18  1  0
 19 18  1  0
 20 13  2  0
 21 22  1  0
 23 24  2  0
 24 43  1  0
 25 24  1  0
 25 28  1  0
 26 27  1  0
 26 23  1  0
 27 25  2  0
 28 29  1  0
 29 30  2  0
 31 34  1  0
 31 30  1  0
 32 31  2  0
 33 32  1  0
 33 28  2  0
 34 35  1  0
 35 40  2  0
 35 36  1  0
 36 37  2  0
 37 38  1  0
 38 42  1  0
 39 38  2  0
 40 39  1  0
 41 40  1  0
 43 44  1  0
 44 47  1  0
 44 46  1  0
 45 43  2  0
 48 23  1  0
 48 49  1  0
 50 48  1  0
 52 56  1  0
 52 51  1  0
 53 52  1  0
 54 52  1  0
 56 55  1  0
 57 58  1  0
 57 56  1  0
 59 70  2  0
 60 58  1  0
 60 65  1  0
 61 69  1  0
 61 71  1  0
 62 68  1  0
 62 64  1  0
 63 69  1  0
 64 63  1  0
 65 64  2  0
 66 67  1  0
 66 60  2  0
 67 62  2  0
 68 61  1  0
 69 59  1  0
 71 73  2  0
 72 71  1  0
 74 72  1  0
 75 84  2  0
 75 80  1  0
 76 72  1  0
 76 80  1  0
 77 76  1  0
 78 79  1  0
 78 77  1  0
 79 75  1  0
 80 81  2  0
 81 82  1  0
 83 82  2  0
 84 83  1  0
 85 59  1  0
 85 86  1  0
 85 95  1  0
 86 89  1  0
 87 91  1  0
 87 86  1  0
 88 87  2  0
 91 90  1  0
 93 91  1  0
 93 94  1  0
 93 92  1  0
 95 98  1  1
 95 96  1  0
 97 95  1  0
M  ISO  4  13 100  21 100  57 101  58 101
M  END
>  <TORSDO>  (67) 
F 23

>  <SCORE>  (67) 
-12.203

>  <name>  (67) 
67

>  <ligand_id>  (67) 
67

>  <original_smiles>  (67) 
[H]c1c([H])c([H])c2c(c1[H])C([H])([H])C([H])([H])C([H])([H])C2([H])N([H])C(=O)C1([H])N(C(=O)C([H])(N([H])C(=O)C([H])(N([H])C([H])([H])[H])C([H])([H])[H])C(C([H])([H])[H])(C([H])([H])[H])C([H])([H])[H])C([H])([H])c2c([H])c(OC([H])([H])C([H])(C([H])([H])[H])[N+]([H])([H])C([H])([H])C([H])([H])C([H])([H])N(C([H])([H])[H])C3([H])C([H])(N([H])C(=O)N4C([H])([H])C([H])([H])C([H])([H])C([H])(n5nc(-c6c([H])c([H])c(Oc7c([H])c([H])c(F)c([H])c7F)c([H])c6[H])c(C(=O)N([H])[H])c5N([H])[H])C4([H])[H])C([H])([H])C([H])([H])[N+]([H])([H])C3([H])[H])c([H])c([H])c2C1([H])[H]

>  <smiles>  (67) 
[H]c1c([H])c([H])c2c(c1[H])C([H])([H])C([H])([H])C([H])([H])C2([H])N([H])C(=O)C1([H])N(C(=O)C([H])(N([H])C(=O)C([H])(N([H])C([H])([H])[H])C([H])([H])[H])C(C([H])([H])[H])(C([H])([H])[H])C([H])([H])[H])C([H])([H])c2c([H])c(OC([H])([H])C([H])(C([H])([H])[H])[N+]([H])([H])C([H])([H])C([H])([H])C([H])([H])N(C([H])([H])[H])C3([H])C([H])(N([H])C(=O)N4C([H])([H])C([H])([H])C([H])([H])C([H])(n5nc(-c6c([H])c([H])c(Oc7c([H])c([H])c(F)c([H])c7F)c([H])c6[H])c(C(=O)N([H])[H])c5N([H])[H])C4([H])[H])C([H])([H])C([H])([H])[N+]([H])([H])C3([H])[H])c([H])c([H])c2C1([H])[H]

$$$$
68:0:0
     RDKit          3D

 95104  0  0  1  0  0  0  0  0999 V2000
  -30.5120  -21.9920   21.7590 C   0  0  0  0  0  2  0  0  0  0  0  0
  -30.2340  -21.0060   20.6410 C   0  0  0  0  0  3  0  0  0  0  0  0
  -29.3870  -22.2640   20.7840 C   0  0  0  0  0  3  0  0  0  0  0  0
  -30.6390  -14.4390   20.4540 C   0  0  0  0  0  0  0  0  0  0  0  0
  -30.2640  -12.3960   19.1200 C   0  0  0  0  0  2  0  0  0  0  0  0
  -29.3090  -12.6660   17.9420 C   0  0  0  0  0  2  0  0  0  0  0  0
  -27.8400  -12.5170   18.3810 C   0  0  0  0  0  2  0  0  0  0  0  0
  -27.5240  -13.3100   19.6750 C   0  0  0  0  0  3  0  0  0  0  0  0
  -28.5800  -13.0180   20.7660 C   0  0  0  0  0  2  0  0  0  0  0  0
  -29.9230  -13.3090   20.2200 N   0  0  0  0  0  0  0  0  0  0  0  0
  -31.6010  -14.7840   19.7530 O   0  0  0  0  0  0  0  0  0  0  0  0
  -31.3600  -16.6920   23.0320 C   0  0  0  0  0  3  0  0  0  0  0  0
  -31.5840  -18.0340   23.3640 C   0  0  0  0  0  3  0  0  0  0  0  0
  -30.5700  -16.4280   21.9050 C   0  0  0  0  0  0  0  0  0  0  0  0
  -30.2800  -18.6930   21.6210 C   0  0  0  0  0  0  0  0  0  0  0  0
  -31.0430  -19.0350   22.6460 N   0  0  0  0  0  0  0  0  0  0  0  0
  -30.0160  -17.4570   21.2210 N   0  0  0  0  0  0  0  0  0  0  0  0
  -30.3160  -15.0750   21.5890 N   0  0  0  0  0  0  0  0  0  0  0  0
  -29.6460  -19.6960   20.9210 N   0  0  0  0  0  0  0  0  0  0  0  0
  -29.6750  -14.5880   22.1930 H   0  0  0  0  0  0  0  0  0  0  0  0
  -29.0390  -19.3350   20.1940 H   0  0  0  0  0  0  0  0  0  0  0  0
  -25.1130  -13.9130   20.3660 C   0  0  0  0  0  0  0  0  0  0  0  0
  -24.0480  -13.1390   20.7450 C   0  0  0  0  0  0  0  0  0  0  0  0
  -24.5190  -11.7920   20.7320 C   0  0  0  0  0  0  0  0  0  0  0  0
  -26.1660  -13.0360   20.1510 N   0  0  0  0  0  0  0  0  0  0  0  0
  -25.8100  -11.7570   20.4240 N   0  0  0  0  0  0  0  0  0  0  0  0
  -23.8000  -10.5270   20.9400 C   0  0  0  0  0  0  0  0  0  0  0  0
  -24.2380   -9.5760   21.8890 C   0  0  0  0  0  3  0  0  0  0  0  0
  -23.5200   -8.3760   22.0860 C   0  0  0  0  0  3  0  0  0  0  0  0
  -22.3490   -8.1170   21.3330 C   0  0  0  0  0  0  0  0  0  0  0  0
  -21.9320   -9.0570   20.3730 C   0  0  0  0  0  3  0  0  0  0  0  0
  -22.6500  -10.2470   20.1750 C   0  0  0  0  0  3  0  0  0  0  0  0
  -21.6060   -6.9660   21.4370 O   0  0  0  0  0  0  0  0  0  0  0  0
  -21.5690   -6.2340   22.5970 C   0  0  0  0  0  0  0  0  0  0  0  0
  -21.1550   -6.7990   23.8240 C   0  0  0  0  0  3  0  0  0  0  0  0
  -21.0650   -5.9940   24.9770 C   0  0  0  0  0  3  0  0  0  0  0  0
  -21.3810   -4.6240   24.9030 C   0  0  0  0  0  0  0  0  0  0  0  0
  -21.7880   -4.0580   23.6820 C   0  0  0  0  0  3  0  0  0  0  0  0
  -21.8790   -4.8610   22.5320 C   0  0  0  0  0  0  0  0  0  0  0  0
  -22.2500   -4.3060   21.3530 F   0  0  0  0  0  0  0  0  0  0  0  0
  -21.2870   -3.8460   26.0080 F   0  0  0  0  0  0  0  0  0  0  0  0
  -22.6470  -13.6110   21.0100 C   0  0  0  0  0  0  0  0  0  0  0  0
  -21.9230  -12.9240   21.8880 N   0  0  0  0  0  0  0  0  0  0  0  0
  -22.2000  -14.6260   20.4770 O   0  0  0  0  0  0  0  0  0  0  0  0
  -22.2990  -12.1080   22.3470 H   0  0  0  0  0  0  0  0  0  0  0  0
  -20.9800  -13.2200   22.1000 H   0  0  0  0  0  0  0  0  0  0  0  0
  -25.2700  -15.2810   20.1690 N   0  0  0  0  0  0  0  0  0  0  0  0
  -24.5110  -15.9420   20.2790 H   0  0  0  0  0  0  0  0  0  0  0  0
  -26.1290  -15.7170   19.8540 H   0  0  0  0  0  0  0  0  0  0  0  0
  -29.7030  -23.3270   19.7980 N   0  0  0  0  0  4  0  0  0  0  0  0
  -29.1360  -23.1960   18.9740 H   0  0  0  0  0  0  0  0  0  0  0  0
  -30.6570  -23.1880   19.5090 H   0  0  0  0  0  0  0  0  0  0  0  0
  -29.5710  -24.7310   20.2760 C   0  0  0  0  0  2  0  0  0  0  0  0
  -28.1800  -25.3530   20.0340 C   0  0  0  0  0  2  0  0  0  0  0  0
  -28.2630  -26.7860   20.1330 O   0  0  0  0  0  0  0  0  0  0  0  0
  -24.5070  -31.9500   23.2700 C   0  0  0  0  0  0  0  0  0  0  0  0
  -27.0850  -27.5060   20.1270 C   0  0  0  0  0  0  0  0  0  0  0  0
  -23.2750  -30.5670   21.6300 C   0  0  0  0  0  3  0  0  0  0  0  0
  -24.7000  -29.0330   20.1800 C   0  0  0  0  0  0  0  0  0  0  0  0
  -25.8030  -30.9130   21.4060 C   0  0  0  0  0  2  0  0  0  0  0  0
  -25.8710  -29.5480   20.7510 C   0  0  0  0  0  0  0  0  0  0  0  0
  -27.0670  -28.7960   20.7120 C   0  0  0  0  0  3  0  0  0  0  0  0
  -25.8900  -27.0060   19.5550 C   0  0  0  0  0  3  0  0  0  0  0  0
  -24.7060  -27.7620   19.5840 C   0  0  0  0  0  3  0  0  0  0  0  0
  -23.4640  -29.9000   20.2430 C   0  0  0  0  0  2  0  0  0  0  0  0
  -24.5480  -31.1580   22.1600 N   0  0  0  0  0  0  0  0  0  0  0  0
  -23.4320  -32.2220   23.8230 O   0  0  0  0  0  0  0  0  0  0  0  0
  -22.6300  -29.5420   22.5900 C   0  0  0  0  0  0  0  0  0  0  0  0
  -21.3060  -29.3520   22.4630 N   0  0  0  0  0  0  0  0  0  0  0  0
  -23.3180  -28.9160   23.4010 O   0  0  0  0  0  0  0  0  0  0  0  0
  -20.8130  -29.9130   21.7820 H   0  0  0  0  0  0  0  0  0  0  0  0
  -17.9380  -28.1330   22.9480 C   0  0  0  0  0  0  0  0  0  0  0  0
  -20.4920  -28.4070   23.2270 C   0  0  0  0  0  3  0  0  0  0  0  0
  -20.6050  -26.9760   22.6490 C   0  0  0  0  0  2  0  0  0  0  0  0
  -19.5080  -26.6480   21.6310 C   0  0  0  0  0  2  0  0  0  0  0  0
  -18.1230  -26.7850   22.2710 C   0  0  0  0  0  2  0  0  0  0  0  0
  -19.0500  -28.9020   23.3810 C   0  0  0  0  0  0  0  0  0  0  0  0
  -18.8230  -30.1630   23.9720 C   0  0  0  0  0  3  0  0  0  0  0  0
  -17.5150  -30.6570   24.1330 C   0  0  0  0  0  3  0  0  0  0  0  0
  -16.4160  -29.8860   23.7160 C   0  0  0  0  0  3  0  0  0  0  0  0
  -16.6290  -28.6250   23.1300 C   0  0  0  0  0  3  0  0  0  0  0  0
  -25.8020  -32.5680   23.8790 C   0  0  0  0  0  3  0  0  0  0  0  0
  -26.3310  -31.7810   25.1410 C   0  0  1  0  0  0  0  0  0  0  0  0
  -25.2490  -31.5310   26.2170 C   0  0  0  0  0  1  0  0  0  0  0  0
  -26.9090  -30.4080   24.7250 C   0  0  0  0  0  1  0  0  0  0  0  0
  -27.4910  -32.5660   25.7990 C   0  0  0  0  0  1  0  0  0  0  0  0
  -25.5050  -33.9640   24.2270 N   0  0  0  0  0  0  0  0  0  0  0  0
  -25.8450  -35.0220   23.4770 C   0  0  0  0  0  0  0  0  0  0  0  0
  -26.5130  -34.9240   22.4440 O   0  0  0  0  0  0  0  0  0  0  0  0
  -24.9160  -34.1140   25.0340 H   0  0  0  0  0  0  0  0  0  0  0  0
  -24.1360  -36.8330   23.1300 C   0  0  0  0  0  1  0  0  0  0  0  0
  -25.3660  -36.4080   23.9490 C   0  0  0  0  0  3  0  0  0  0  0  0
  -27.5040  -37.2580   24.8090 C   0  0  0  0  0  1  0  0  0  0  0  0
  -26.4110  -37.4530   23.8600 N   0  0  0  0  0  0  0  0  0  0  0  0
  -26.0140  -38.3750   24.0160 H   0  0  0  0  0  0  0  0  0  0  0  0
  2  3  1  0
  2 19  1  0
  2  1  1  0
  3 50  1  0
  3  1  1  0
  4 18  1  0
  5 10  1  0
  6  7  1  0
  6  5  1  0
  8  7  1  0
  8 25  1  0
  8  9  1  0
 10  4  1  0
 10  9  1  0
 11  4  2  0
 12 13  2  0
 14 12  1  0
 15 16  2  0
 16 13  1  0
 17 15  1  0
 17 14  2  0
 18 14  1  0
 18 20  1  0
 19 15  1  0
 21 19  1  0
 22 23  2  0
 23 42  1  0
 24 23  1  0
 24 27  1  0
 25 22  1  0
 25 26  1  0
 26 24  2  0
 27 28  1  0
 28 29  2  0
 30 33  1  0
 30 29  1  0
 31 30  2  0
 32 31  1  0
 32 27  2  0
 33 34  1  0
 34 35  1  0
 35 36  2  0
 37 36  1  0
 37 41  1  0
 38 37  2  0
 39 34  2  0
 39 38  1  0
 40 39  1  0
 42 43  1  0
 43 46  1  0
 43 45  1  0
 44 42  2  0
 47 48  1  0
 47 22  1  0
 49 47  1  0
 50 53  1  0
 51 50  1  0
 52 50  1  0
 54 55  1  0
 54 53  1  0
 56 67  2  0
 57 55  1  0
 57 62  1  0
 58 66  1  0
 58 68  1  0
 59 65  1  0
 59 61  1  0
 60 66  1  0
 61 60  1  0
 62 61  2  0
 63 64  1  0
 63 57  2  0
 64 59  2  0
 65 58  1  0
 66 56  1  0
 68 70  2  0
 69 68  1  0
 71 69  1  0
 72 81  2  0
 72 77  1  0
 73 69  1  0
 73 77  1  0
 74 73  1  0
 75 76  1  0
 75 74  1  0
 76 72  1  0
 77 78  2  0
 78 79  1  0
 80 79  2  0
 81 80  1  0
 82 56  1  0
 82 87  1  0
 82 83  1  0
 83 86  1  1
 83 84  1  0
 85 83  1  0
 87 90  1  0
 88 92  1  0
 88 87  1  0
 89 88  2  0
 92 91  1  0
 94 92  1  0
 94 95  1  0
 94 93  1  0
M  ISO  4   4 100  18 100  54 101  55 101
M  END
>  <TORSDO>  (68) 
F 19

>  <SCORE>  (68) 
-12.273

>  <name>  (68) 
68

>  <ligand_id>  (68) 
68

>  <original_smiles>  (68) 
[H]c1nc(N([H])C2([H])C([H])([H])C2([H])[N+]([H])([H])C([H])([H])C([H])([H])Oc2c([H])c([H])c3c(c2[H])C([H])([H])N(C(=O)C([H])(N([H])C(=O)C([H])(N([H])C([H])([H])[H])C([H])([H])[H])C(C([H])([H])[H])(C([H])([H])[H])C([H])([H])[H])C([H])(C(=O)N([H])C2([H])c4c([H])c([H])c([H])c([H])c4C([H])([H])C([H])([H])C2([H])[H])C3([H])[H])nc(N([H])C(=O)N2C([H])([H])C([H])([H])C([H])([H])C([H])(n3nc(-c4c([H])c([H])c(Oc5c([H])c([H])c(F)c([H])c5F)c([H])c4[H])c(C(=O)N([H])[H])c3N([H])[H])C2([H])[H])c1[H]

>  <smiles>  (68) 
[H]c1nc(N([H])C2([H])C([H])([H])C2([H])[N+]([H])([H])C([H])([H])C([H])([H])Oc2c([H])c([H])c3c(c2[H])C([H])([H])N(C(=O)C([H])(N([H])C(=O)C([H])(N([H])C([H])([H])[H])C([H])([H])[H])C(C([H])([H])[H])(C([H])([H])[H])C([H])([H])[H])C([H])(C(=O)N([H])C2([H])c4c([H])c([H])c([H])c([H])c4C([H])([H])C([H])([H])C2([H])[H])C3([H])[H])nc(N([H])C(=O)N2C([H])([H])C([H])([H])C([H])([H])C([H])(n3nc(-c4c([H])c([H])c(Oc5c([H])c([H])c(F)c([H])c5F)c([H])c4[H])c(C(=O)N([H])[H])c3N([H])[H])C2([H])[H])c1[H]

$$$$
69:0:0
     RDKit          3D

 88 96  0  0  1  0  0  0  0  0999 V2000
  -29.2030  -21.3570   20.1180 N   0  0  0  0  0  4  0  0  0  0  0  0
  -29.1090  -21.3720   19.1150 H   0  0  0  0  0  0  0  0  0  0  0  0
  -30.1800  -21.5290   20.2950 H   0  0  0  0  0  0  0  0  0  0  0  0
  -28.9850  -19.7550   20.5310 C   0  0  0  0  0  2  0  0  0  0  0  0
  -30.4420  -15.3780   20.2330 C   0  0  0  0  0  0  0  0  0  0  0  0
  -30.4310  -12.9270   19.3690 C   0  0  0  0  0  2  0  0  0  0  0  0
  -29.5080  -12.6860   18.1480 C   0  0  0  0  0  2  0  0  0  0  0  0
  -28.0670  -12.3880   18.6020 C   0  0  0  0  0  2  0  0  0  0  0  0
  -27.6000  -13.3500   19.7190 C   0  0  0  0  0  3  0  0  0  0  0  0
  -28.6540  -13.5540   20.8290 C   0  0  0  0  0  2  0  0  0  0  0  0
  -29.8720  -14.0690   20.1770 N   0  0  0  0  0  0  0  0  0  0  0  0
  -31.6810  -15.3550   20.1490 O   0  0  0  0  0  0  0  0  0  0  0  0
  -29.1390  -17.7170   17.9800 C   0  0  0  0  0  2  0  0  0  0  0  0
  -30.2840  -18.4800   18.6220 C   0  0  0  0  0  2  0  0  0  0  0  0
  -28.7390  -16.6270   18.9890 C   0  0  0  0  0  2  0  0  0  0  0  0
  -29.9880  -18.3150   20.1040 C   0  0  0  0  0  3  0  0  0  0  0  0
  -29.6730  -16.6660   20.1330 N   0  0  0  0  0  0  0  0  0  0  0  0
  -25.2310  -13.9000   20.4680 C   0  0  0  0  0  0  0  0  0  0  0  0
  -24.1750  -13.1160   20.8330 C   0  0  0  0  0  0  0  0  0  0  0  0
  -24.6570  -11.7710   20.8130 C   0  0  0  0  0  0  0  0  0  0  0  0
  -26.2820  -13.0300   20.2370 N   0  0  0  0  0  0  0  0  0  0  0  0
  -25.9500  -11.7460   20.5120 N   0  0  0  0  0  0  0  0  0  0  0  0
  -23.9460  -10.5020   21.0020 C   0  0  0  0  0  0  0  0  0  0  0  0
  -24.3800   -9.5480   21.9480 C   0  0  0  0  0  3  0  0  0  0  0  0
  -23.6640   -8.3450   22.1300 C   0  0  0  0  0  3  0  0  0  0  0  0
  -22.5030   -8.0890   21.3640 C   0  0  0  0  0  0  0  0  0  0  0  0
  -22.0880   -9.0320   20.4060 C   0  0  0  0  0  3  0  0  0  0  0  0
  -22.8040  -10.2270   20.2240 C   0  0  0  0  0  3  0  0  0  0  0  0
  -21.7590   -6.9370   21.4540 O   0  0  0  0  0  0  0  0  0  0  0  0
  -21.7050   -6.2050   22.6120 C   0  0  0  0  0  0  0  0  0  0  0  0
  -21.2510   -6.7640   23.8280 C   0  0  0  0  0  3  0  0  0  0  0  0
  -21.1470   -5.9580   24.9780 C   0  0  0  0  0  3  0  0  0  0  0  0
  -21.4870   -4.5930   24.9150 C   0  0  0  0  0  0  0  0  0  0  0  0
  -21.9350   -4.0330   23.7050 C   0  0  0  0  0  3  0  0  0  0  0  0
  -22.0410   -4.8380   22.5570 C   0  0  0  0  0  0  0  0  0  0  0  0
  -22.4530   -4.2890   21.3890 F   0  0  0  0  0  0  0  0  0  0  0  0
  -21.3800   -3.8160   26.0180 F   0  0  0  0  0  0  0  0  0  0  0  0
  -22.7710  -13.5810   21.0880 C   0  0  0  0  0  0  0  0  0  0  0  0
  -22.0420  -12.8790   21.9490 N   0  0  0  0  0  0  0  0  0  0  0  0
  -22.3300  -14.6020   20.5610 O   0  0  0  0  0  0  0  0  0  0  0  0
  -22.4110  -12.0510   22.3930 H   0  0  0  0  0  0  0  0  0  0  0  0
  -21.1030  -13.1740   22.1700 H   0  0  0  0  0  0  0  0  0  0  0  0
  -25.3830  -15.2720   20.2850 N   0  0  0  0  0  0  0  0  0  0  0  0
  -24.6150  -15.9240   20.4020 H   0  0  0  0  0  0  0  0  0  0  0  0
  -26.2440  -15.7190   20.0020 H   0  0  0  0  0  0  0  0  0  0  0  0
  -28.4410  -22.7500   20.6450 C   0  0  0  0  0  2  0  0  0  0  0  0
  -28.3170  -24.3810   19.8920 C   0  0  0  0  0  2  0  0  0  0  0  0
  -28.2100  -25.9520   20.3860 O   0  0  0  0  0  0  0  0  0  0  0  0
  -24.6030  -31.9000   23.2100 C   0  0  0  0  0  0  0  0  0  0  0  0
  -27.1770  -27.0130   20.2410 C   0  0  0  0  0  0  0  0  0  0  0  0
  -23.4140  -30.4880   21.5800 C   0  0  0  0  0  3  0  0  0  0  0  0
  -24.8650  -28.8740   20.1700 C   0  0  0  0  0  0  0  0  0  0  0  0
  -25.9750  -30.7070   21.4310 C   0  0  0  0  0  2  0  0  0  0  0  0
  -26.0460  -29.2920   20.7930 C   0  0  0  0  0  0  0  0  0  0  0  0
  -27.1900  -28.3800   20.8080 C   0  0  0  0  0  3  0  0  0  0  0  0
  -25.9680  -26.7420   19.5610 C   0  0  0  0  0  3  0  0  0  0  0  0
  -24.8500  -27.6200   19.5340 C   0  0  0  0  0  3  0  0  0  0  0  0
  -23.6440  -29.7910   20.2090 C   0  0  0  0  0  2  0  0  0  0  0  0
  -24.6860  -31.0590   22.1280 N   0  0  0  0  0  0  0  0  0  0  0  0
  -23.5120  -32.1910   23.7280 O   0  0  0  0  0  0  0  0  0  0  0  0
  -22.7190  -29.5020   22.5540 C   0  0  0  0  0  0  0  0  0  0  0  0
  -21.3870  -29.3410   22.4330 N   0  0  0  0  0  0  0  0  0  0  0  0
  -23.3840  -28.8810   23.3870 O   0  0  0  0  0  0  0  0  0  0  0  0
  -20.9030  -29.8940   21.7380 H   0  0  0  0  0  0  0  0  0  0  0  0
  -18.0040  -28.1450   22.9560 C   0  0  0  0  0  0  0  0  0  0  0  0
  -20.5630  -28.4100   23.2110 C   0  0  0  0  0  3  0  0  0  0  0  0
  -20.6610  -26.9750   22.6440 C   0  0  0  0  0  2  0  0  0  0  0  0
  -19.5570  -26.6480   21.6340 C   0  0  0  0  0  2  0  0  0  0  0  0
  -18.1770  -26.7960   22.2810 C   0  0  0  0  0  2  0  0  0  0  0  0
  -19.1240  -28.9110   23.3780 C   0  0  0  0  0  0  0  0  0  0  0  0
  -18.9050  -30.1730   23.9720 C   0  0  0  0  0  3  0  0  0  0  0  0
  -17.6010  -30.6720   24.1450 C   0  0  0  0  0  3  0  0  0  0  0  0
  -16.4950  -29.9050   23.7360 C   0  0  0  0  0  3  0  0  0  0  0  0
  -16.6970  -28.6440   23.1480 C   0  0  0  0  0  3  0  0  0  0  0  0
  -25.8720  -32.5490   23.8410 C   0  0  0  0  0  3  0  0  0  0  0  0
  -26.3710  -31.8000   25.1390 C   0  0  1  0  0  0  0  0  0  0  0  0
  -25.2650  -31.5850   26.1980 C   0  0  0  0  0  1  0  0  0  0  0  0
  -26.9520  -30.4110   24.7840 C   0  0  0  0  0  1  0  0  0  0  0  0
  -27.5200  -32.6010   25.7970 C   0  0  0  0  0  1  0  0  0  0  0  0
  -25.5560  -33.9540   24.1580 N   0  0  0  0  0  0  0  0  0  0  0  0
  -25.9010  -35.0060   23.4060 C   0  0  0  0  0  0  0  0  0  0  0  0
  -26.5830  -34.8980   22.3830 O   0  0  0  0  0  0  0  0  0  0  0  0
  -24.9530  -34.1140   24.9530 H   0  0  0  0  0  0  0  0  0  0  0  0
  -24.1910  -36.8170   23.0290 C   0  0  0  0  0  1  0  0  0  0  0  0
  -25.4180  -36.4010   23.8560 C   0  0  0  0  0  3  0  0  0  0  0  0
  -27.5460  -37.2770   24.7180 C   0  0  0  0  0  1  0  0  0  0  0  0
  -26.4600  -37.4480   23.7570 N   0  0  0  0  0  0  0  0  0  0  0  0
  -26.0560  -38.3700   23.8930 H   0  0  0  0  0  0  0  0  0  0  0  0
  1  3  1  0
  1  4  1  0
  1 46  1  0
  2  1  1  0
  6 11  1  0
  7  8  1  0
  7  6  1  0
  9  8  1  0
  9 21  1  0
  9 10  1  0
 11  5  1  0
 11 10  1  0
 12  5  2  0
 13 14  1  0
 13 15  1  0
 14 16  1  0
 15 17  1  0
 16 17  1  0
 16  4  1  0
 17  5  1  0
 18 19  2  0
 19 38  1  0
 20 19  1  0
 20 23  1  0
 21 18  1  0
 21 22  1  0
 22 20  2  0
 23 24  1  0
 24 25  2  0
 26 29  1  0
 26 25  1  0
 27 26  2  0
 28 27  1  0
 28 23  2  0
 29 30  1  0
 30 31  1  0
 31 32  2  0
 33 32  1  0
 33 37  1  0
 34 33  2  0
 35 30  2  0
 35 34  1  0
 36 35  1  0
 38 39  1  0
 39 42  1  0
 39 41  1  0
 40 38  2  0
 43 44  1  0
 43 18  1  0
 45 43  1  0
 47 48  1  0
 47 46  1  0
 49 60  2  0
 50 48  1  0
 50 55  1  0
 51 59  1  0
 51 61  1  0
 52 58  1  0
 52 54  1  0
 53 59  1  0
 54 55  2  0
 54 53  1  0
 56 50  2  0
 57 56  1  0
 57 52  2  0
 58 51  1  0
 59 49  1  0
 61 63  2  0
 62 61  1  0
 64 62  1  0
 65 74  2  0
 65 70  1  0
 66 62  1  0
 66 70  1  0
 67 66  1  0
 68 69  1  0
 68 67  1  0
 69 65  1  0
 70 71  2  0
 71 72  1  0
 73 72  2  0
 74 73  1  0
 75 49  1  0
 75 80  1  0
 75 76  1  0
 76 79  1  1
 76 77  1  0
 78 76  1  0
 80 83  1  0
 81 85  1  0
 81 80  1  0
 82 81  2  0
 85 84  1  0
 87 85  1  0
 87 88  1  0
 87 86  1  0
M  ISO  4   5 100  17 100  47 101  48 101
M  END
>  <TORSDO>  (69) 
F 19

>  <SCORE>  (69) 
-16.419

>  <name>  (69) 
69

>  <ligand_id>  (69) 
69

>  <original_smiles>  (69) 
[H]c1c([H])c([H])c2c(c1[H])C([H])([H])C([H])([H])C([H])([H])C2([H])N([H])C(=O)C1([H])N(C(=O)C([H])(N([H])C(=O)C([H])(N([H])C([H])([H])[H])C([H])([H])[H])C(C([H])([H])[H])(C([H])([H])[H])C([H])([H])[H])C([H])([H])c2c([H])c(OC([H])([H])C([H])([H])[N+]([H])([H])C([H])([H])C3([H])N(C(=O)N4C([H])([H])C([H])([H])C([H])([H])C([H])(n5nc(-c6c([H])c([H])c(Oc7c([H])c([H])c(F)c([H])c7F)c([H])c6[H])c(C(=O)N([H])[H])c5N([H])[H])C4([H])[H])C([H])([H])C([H])([H])C3([H])[H])c([H])c([H])c2C1([H])[H]

>  <smiles>  (69) 
[H]c1c([H])c([H])c2c(c1[H])C([H])([H])C([H])([H])C([H])([H])C2([H])N([H])C(=O)C1([H])N(C(=O)C([H])(N([H])C(=O)C([H])(N([H])C([H])([H])[H])C([H])([H])[H])C(C([H])([H])[H])(C([H])([H])[H])C([H])([H])[H])C([H])([H])c2c([H])c(OC([H])([H])C([H])([H])[N+]([H])([H])C([H])([H])C3([H])N(C(=O)N4C([H])([H])C([H])([H])C([H])([H])C([H])(n5nc(-c6c([H])c([H])c(Oc7c([H])c([H])c(F)c([H])c7F)c([H])c6[H])c(C(=O)N([H])[H])c5N([H])[H])C4([H])[H])C([H])([H])C([H])([H])C3([H])[H])c([H])c([H])c2C1([H])[H]

$$$$
70:0:0
     RDKit          3D

 97107  0  0  1  0  0  0  0  0999 V2000
  -28.9170  -22.3840   18.8000 C   0  0  0  0  0  2  0  0  0  0  0  0
  -28.8950  -23.8190   19.3660 C   0  0  0  0  0  2  0  0  0  0  0  0
  -28.0050  -22.4070   21.0200 C   0  0  0  0  0  2  0  0  0  0  0  0
  -28.6790  -21.4730   20.0190 C   0  0  0  0  0  3  0  0  0  0  0  0
  -28.7130  -23.6860   20.8290 N   0  0  2  0  0  4  0  0  0  0  0  0
  -29.6470  -23.5260   21.1930 H   0  0  0  0  0  0  0  0  0  0  0  0
  -30.0330  -19.5900   21.0630 C   0  0  0  0  0  3  0  0  0  0  0  0
  -32.0820  -21.2770   21.3820 C   0  0  0  0  0  3  0  0  0  0  0  0
  -29.9700  -20.9080   20.6000 C   0  0  0  0  0  0  0  0  0  0  0  0
  -31.1960  -19.2150   21.7410 C   0  0  0  0  0  0  0  0  0  0  0  0
  -30.9930  -21.7630   20.7890 N   0  0  0  0  0  0  0  0  0  0  0  0
  -32.2220  -20.0560   21.8950 N   0  0  0  0  0  0  0  0  0  0  0  0
  -31.3390  -17.9680   22.3430 N   0  0  0  0  0  0  0  0  0  0  0  0
  -32.1880  -17.9350   22.8940 H   0  0  0  0  0  0  0  0  0  0  0  0
  -30.5280  -14.2490   20.1910 C   0  0  0  0  0  0  0  0  0  0  0  0
  -30.0170  -12.2460   18.8640 C   0  0  0  0  0  2  0  0  0  0  0  0
  -28.9770  -12.5350   17.7680 C   0  0  0  0  0  2  0  0  0  0  0  0
  -27.5500  -12.3580   18.3190 C   0  0  0  0  0  2  0  0  0  0  0  0
  -27.3250  -13.1170   19.6540 C   0  0  0  0  0  3  0  0  0  0  0  0
  -28.4740  -12.8440   20.6550 C   0  0  0  0  0  2  0  0  0  0  0  0
  -29.7620  -13.1430   20.0000 N   0  0  0  0  0  0  0  0  0  0  0  0
  -31.4560  -14.5620   19.4410 O   0  0  0  0  0  0  0  0  0  0  0  0
  -31.3890  -15.4780   22.1360 C   0  0  0  0  0  2  0  0  0  0  0  0
  -29.7880  -16.3430   21.1550 C   0  0  0  0  0  2  0  0  0  0  0  0
  -31.2080  -16.8260   21.4500 C   0  0  0  0  0  3  0  0  0  0  0  0
  -30.2840  -14.9660   21.3000 N   0  0  0  0  0  0  0  0  0  0  0  0
  -24.9590  -13.6370   20.5380 C   0  0  0  0  0  0  0  0  0  0  0  0
  -23.9420  -12.8270   20.9660 C   0  0  0  0  0  0  0  0  0  0  0  0
  -24.4380  -11.4910   20.8830 C   0  0  0  0  0  0  0  0  0  0  0  0
  -26.0140  -12.7940   20.2240 N   0  0  0  0  0  0  0  0  0  0  0  0
  -25.7060  -11.4960   20.4860 N   0  0  0  0  0  0  0  0  0  0  0  0
  -23.7660  -10.2030   21.1050 C   0  0  0  0  0  0  0  0  0  0  0  0
  -24.2640   -9.2570   22.0280 C   0  0  0  0  0  3  0  0  0  0  0  0
  -23.5900   -8.0350   22.2340 C   0  0  0  0  0  3  0  0  0  0  0  0
  -22.4010   -7.7490   21.5210 C   0  0  0  0  0  0  0  0  0  0  0  0
  -21.9220   -8.6850   20.5870 C   0  0  0  0  0  3  0  0  0  0  0  0
  -22.5980   -9.8990   20.3790 C   0  0  0  0  0  3  0  0  0  0  0  0
  -21.6920   -6.5790   21.6410 O   0  0  0  0  0  0  0  0  0  0  0  0
  -21.6860   -5.8570   22.8080 C   0  0  0  0  0  0  0  0  0  0  0  0
  -21.2430   -6.4160   24.0270 C   0  0  0  0  0  3  0  0  0  0  0  0
  -21.1880   -5.6180   25.1880 C   0  0  0  0  0  3  0  0  0  0  0  0
  -21.5620   -4.2630   25.1300 C   0  0  0  0  0  0  0  0  0  0  0  0
  -21.9960   -3.7020   23.9170 C   0  0  0  0  0  3  0  0  0  0  0  0
  -22.0550   -4.4970   22.7580 C   0  0  0  0  0  0  0  0  0  0  0  0
  -22.4550   -3.9470   21.5860 F   0  0  0  0  0  0  0  0  0  0  0  0
  -21.5010   -3.4950   26.2440 F   0  0  0  0  0  0  0  0  0  0  0  0
  -22.5530  -13.2560   21.3460 C   0  0  0  0  0  0  0  0  0  0  0  0
  -21.9090  -12.5290   22.2520 N   0  0  0  0  0  0  0  0  0  0  0  0
  -22.0460  -14.2720   20.8710 O   0  0  0  0  0  0  0  0  0  0  0  0
  -22.3310  -11.7090   22.6660 H   0  0  0  0  0  0  0  0  0  0  0  0
  -20.9780  -12.7950   22.5380 H   0  0  0  0  0  0  0  0  0  0  0  0
  -25.0700  -15.0150   20.3660 N   0  0  0  0  0  0  0  0  0  0  0  0
  -24.3010  -15.6510   20.5430 H   0  0  0  0  0  0  0  0  0  0  0  0
  -25.8920  -15.4770   20.0010 H   0  0  0  0  0  0  0  0  0  0  0  0
  -28.1060  -24.8330   21.5490 C   0  0  0  0  0  2  0  0  0  0  0  0
  -28.8840  -26.1520   21.3590 C   0  0  0  0  0  2  0  0  0  0  0  0
  -28.5370  -26.7480   20.1110 O   0  0  0  0  0  0  0  0  0  0  0  0
  -24.5250  -31.7850   23.1570 C   0  0  0  0  0  0  0  0  0  0  0  0
  -27.3580  -27.4480   20.1290 C   0  0  0  0  0  0  0  0  0  0  0  0
  -23.3900  -30.3540   21.4840 C   0  0  0  0  0  3  0  0  0  0  0  0
  -24.9160  -28.8550   20.0970 C   0  0  0  0  0  0  0  0  0  0  0  0
  -25.9040  -30.7860   21.3420 C   0  0  0  0  0  2  0  0  0  0  0  0
  -26.0410  -29.4170   20.7140 C   0  0  0  0  0  0  0  0  0  0  0  0
  -27.2650  -28.7180   20.7370 C   0  0  0  0  0  3  0  0  0  0  0  0
  -26.2250  -26.8920   19.5020 C   0  0  0  0  0  3  0  0  0  0  0  0
  -25.0010  -27.5860   19.4950 C   0  0  0  0  0  3  0  0  0  0  0  0
  -23.6470  -29.6750   20.1110 C   0  0  0  0  0  2  0  0  0  0  0  0
  -24.6220  -30.9900   22.0530 N   0  0  0  0  0  0  0  0  0  0  0  0
  -23.4250  -32.0310   23.6700 O   0  0  0  0  0  0  0  0  0  0  0  0
  -22.7400  -29.3180   22.4280 C   0  0  0  0  0  0  0  0  0  0  0  0
  -21.4220  -29.1180   22.2740 N   0  0  0  0  0  0  0  0  0  0  0  0
  -23.4210  -28.6990   23.2500 O   0  0  0  0  0  0  0  0  0  0  0  0
  -20.9380  -29.6750   21.5850 H   0  0  0  0  0  0  0  0  0  0  0  0
  -18.0530  -27.8850   22.7030 C   0  0  0  0  0  0  0  0  0  0  0  0
  -20.6040  -28.1620   23.0200 C   0  0  0  0  0  3  0  0  0  0  0  0
  -20.7300  -26.7390   22.4290 C   0  0  0  0  0  2  0  0  0  0  0  0
  -19.6480  -26.4190   21.3930 C   0  0  0  0  0  2  0  0  0  0  0  0
  -18.2540  -26.5440   22.0170 C   0  0  0  0  0  2  0  0  0  0  0  0
  -19.1570  -28.6510   23.1600 C   0  0  0  0  0  0  0  0  0  0  0  0
  -18.9170  -29.9070   23.7590 C   0  0  0  0  0  3  0  0  0  0  0  0
  -17.6050  -30.3960   23.9060 C   0  0  0  0  0  3  0  0  0  0  0  0
  -16.5160  -29.6250   23.4670 C   0  0  0  0  0  3  0  0  0  0  0  0
  -16.7390  -28.3710   22.8730 C   0  0  0  0  0  3  0  0  0  0  0  0
  -25.7850  -32.4350   23.8100 C   0  0  0  0  0  3  0  0  0  0  0  0
  -26.2900  -31.6680   25.0920 C   0  0  1  0  0  0  0  0  0  0  0  0
  -25.1780  -31.4030   26.1350 C   0  0  0  0  0  1  0  0  0  0  0  0
  -26.9070  -30.3050   24.7040 C   0  0  0  0  0  1  0  0  0  0  0  0
  -27.4110  -32.4810   25.7850 C   0  0  0  0  0  1  0  0  0  0  0  0
  -25.4450  -33.8240   24.1380 N   0  0  0  0  0  0  0  0  0  0  0  0
  -25.7630  -34.8820   23.3810 C   0  0  0  0  0  0  0  0  0  0  0  0
  -26.4510  -34.7920   22.3590 O   0  0  0  0  0  0  0  0  0  0  0  0
  -24.8340  -33.9660   24.9290 H   0  0  0  0  0  0  0  0  0  0  0  0
  -23.9940  -36.6270   22.9980 C   0  0  0  0  0  1  0  0  0  0  0  0
  -25.2370  -36.2590   23.8250 C   0  0  0  0  0  3  0  0  0  0  0  0
  -27.3390  -37.2000   24.6750 C   0  0  0  0  0  1  0  0  0  0  0  0
  -26.2430  -37.3380   23.7180 N   0  0  0  0  0  0  0  0  0  0  0  0
  -25.8120  -38.2480   23.8570 H   0  0  0  0  0  0  0  0  0  0  0  0
  1  2  1  0
  1  4  1  0
  2  5  1  0
  4  9  1  0
  4  3  1  0
  5  3  1  0
  5  6  1  1
  5 55  1  0
  7 10  1  0
  8 12  1  0
  9 11  1  0
  9  7  2  0
 10 12  2  0
 10 13  1  0
 11  8  2  0
 13 14  1  0
 15 26  1  0
 16 21  1  0
 17 18  1  0
 17 16  1  0
 19 18  1  0
 19 30  1  0
 19 20  1  0
 21 15  1  0
 21 20  1  0
 22 15  2  0
 24 26  1  0
 24 25  1  0
 25 23  1  0
 25 13  1  0
 26 23  1  0
 27 28  2  0
 28 47  1  0
 29 28  1  0
 29 32  1  0
 30 31  1  0
 30 27  1  0
 31 29  2  0
 32 33  1  0
 33 34  2  0
 35 38  1  0
 35 34  1  0
 36 35  2  0
 37 36  1  0
 37 32  2  0
 38 39  1  0
 39 40  1  0
 40 41  2  0
 42 41  1  0
 42 46  1  0
 43 42  2  0
 44 39  2  0
 44 43  1  0
 45 44  1  0
 47 48  1  0
 48 51  1  0
 48 50  1  0
 49 47  2  0
 52 27  1  0
 52 53  1  0
 54 52  1  0
 56 55  1  0
 57 59  1  0
 57 56  1  0
 58 69  2  0
 59 64  1  0
 60 68  1  0
 60 70  1  0
 61 67  1  0
 61 63  1  0
 62 68  1  0
 63 64  2  0
 63 62  1  0
 65 59  2  0
 66 65  1  0
 66 61  2  0
 67 60  1  0
 68 58  1  0
 70 72  2  0
 71 70  1  0
 73 71  1  0
 74 83  2  0
 74 79  1  0
 75 71  1  0
 75 79  1  0
 76 75  1  0
 77 78  1  0
 77 76  1  0
 78 74  1  0
 79 80  2  0
 80 81  1  0
 82 81  2  0
 83 82  1  0
 84 58  1  0
 84 89  1  0
 84 85  1  0
 85 88  1  1
 85 86  1  0
 87 85  1  0
 89 92  1  0
 90 94  1  0
 90 89  1  0
 91 90  2  0
 94 93  1  0
 96 94  1  0
 96 97  1  0
 96 95  1  0
M  ISO  4  15 100  26 100  56 101  57 101
M  END
>  <TORSDO>  (70) 
F 19

>  <SCORE>  (70) 
-13.764

>  <name>  (70) 
70

>  <ligand_id>  (70) 
70

>  <original_smiles>  (70) 
[H]c1nc(N([H])C2([H])C([H])([H])N(C(=O)N3C([H])([H])C([H])([H])C([H])([H])C([H])(n4nc(-c5c([H])c([H])c(Oc6c([H])c([H])c(F)c([H])c6F)c([H])c5[H])c(C(=O)N([H])[H])c4N([H])[H])C3([H])[H])C2([H])[H])c([H])c(C2([H])C([H])([H])C([H])([H])[N+]([H])(C([H])([H])C([H])([H])Oc3c([H])c([H])c4c(c3[H])C([H])([H])N(C(=O)C([H])(N([H])C(=O)C([H])(N([H])C([H])([H])[H])C([H])([H])[H])C(C([H])([H])[H])(C([H])([H])[H])C([H])([H])[H])C([H])(C(=O)N([H])C3([H])c5c([H])c([H])c([H])c([H])c5C([H])([H])C([H])([H])C3([H])[H])C4([H])[H])C2([H])[H])n1

>  <smiles>  (70) 
[H]c1nc(N([H])C2([H])C([H])([H])N(C(=O)N3C([H])([H])C([H])([H])C([H])([H])C([H])(n4nc(-c5c([H])c([H])c(Oc6c([H])c([H])c(F)c([H])c6F)c([H])c5[H])c(C(=O)N([H])[H])c4N([H])[H])C3([H])[H])C2([H])[H])c([H])c(C2([H])C([H])([H])C([H])([H])[N+]([H])(C([H])([H])C([H])([H])Oc3c([H])c([H])c4c(c3[H])C([H])([H])N(C(=O)C([H])(N([H])C(=O)C([H])(N([H])C([H])([H])[H])C([H])([H])[H])C(C([H])([H])[H])(C([H])([H])[H])C([H])([H])[H])C([H])(C(=O)N([H])C3([H])c5c([H])c([H])c([H])c([H])c5C([H])([H])C([H])([H])C3([H])[H])C4([H])[H])C2([H])[H])n1

$$$$
71:0:0
     RDKit          3D

 93102  0  0  1  0  0  0  0  0999 V2000
  -28.7040  -20.3280   18.7840 C   0  0  0  0  0  3  0  0  0  0  0  0
  -28.2430  -21.5280   18.1250 C   0  0  0  0  0  3  0  0  0  0  0  0
  -29.4350  -20.4180   19.9240 C   0  0  0  0  0  0  0  0  0  0  0  0
  -29.7110  -21.7760   20.5010 C   0  0  0  0  0  0  0  0  0  0  0  0
  -28.4750  -22.7000   18.6080 N   0  0  0  0  0  0  0  0  0  0  0  0
  -29.1760  -22.8390   19.7990 N   0  0  0  0  0  0  0  0  0  0  0  0
  -30.3610  -21.9570   21.5330 O   0  0  0  0  0  0  0  0  0  0  0  0
  -31.4540  -17.5580   21.3550 C   0  0  0  0  0  2  0  0  0  0  0  0
  -31.1530  -19.0690   21.2970 C   0  0  0  0  0  2  0  0  0  0  0  0
  -29.3280  -17.8880   20.3760 C   0  0  0  0  0  2  0  0  0  0  0  0
  -30.0510  -16.9500   21.3640 C   0  0  0  0  0  3  0  0  0  0  0  0
  -29.9010  -19.2360   20.5500 N   0  0  0  0  0  0  0  0  0  0  0  0
  -30.6250  -14.5340   20.5230 C   0  0  0  0  0  0  0  0  0  0  0  0
  -30.3750  -12.3670   19.3470 C   0  0  0  0  0  2  0  0  0  0  0  0
  -29.4270  -12.5660   18.1440 C   0  0  0  0  0  2  0  0  0  0  0  0
  -27.9530  -12.4130   18.5690 C   0  0  0  0  0  2  0  0  0  0  0  0
  -27.6090  -13.2400   19.8370 C   0  0  0  0  0  3  0  0  0  0  0  0
  -28.6630  -13.0030   20.9430 C   0  0  0  0  0  2  0  0  0  0  0  0
  -29.9850  -13.3360   20.3840 N   0  0  0  0  0  0  0  0  0  0  0  0
  -31.7410  -14.7500   20.0440 O   0  0  0  0  0  0  0  0  0  0  0  0
  -29.8790  -15.4950   21.1110 N   0  0  0  0  0  0  0  0  0  0  0  0
  -28.9870  -15.1410   21.4280 H   0  0  0  0  0  0  0  0  0  0  0  0
  -25.2110  -13.8560   20.5430 C   0  0  0  0  0  0  0  0  0  0  0  0
  -24.1390  -13.0870   20.9090 C   0  0  0  0  0  0  0  0  0  0  0  0
  -24.5950  -11.7330   20.8740 C   0  0  0  0  0  0  0  0  0  0  0  0
  -26.2530  -12.9700   20.3100 N   0  0  0  0  0  0  0  0  0  0  0  0
  -25.8840  -11.6880   20.5650 N   0  0  0  0  0  0  0  0  0  0  0  0
  -23.8640  -10.4740   21.0600 C   0  0  0  0  0  0  0  0  0  0  0  0
  -24.2900   -9.5030   21.9930 C   0  0  0  0  0  3  0  0  0  0  0  0
  -23.5630   -8.3070   22.1650 C   0  0  0  0  0  3  0  0  0  0  0  0
  -22.3920   -8.0730   21.4050 C   0  0  0  0  0  0  0  0  0  0  0  0
  -21.9840   -9.0320   20.4610 C   0  0  0  0  0  3  0  0  0  0  0  0
  -22.7130  -10.2210   20.2870 C   0  0  0  0  0  3  0  0  0  0  0  0
  -21.6340   -6.9300   21.4870 O   0  0  0  0  0  0  0  0  0  0  0  0
  -21.5770   -6.1850   22.6390 C   0  0  0  0  0  0  0  0  0  0  0  0
  -21.1160   -6.7310   23.8560 C   0  0  0  0  0  3  0  0  0  0  0  0
  -21.0080   -5.9120   24.9980 C   0  0  0  0  0  3  0  0  0  0  0  0
  -21.3490   -4.5480   24.9220 C   0  0  0  0  0  0  0  0  0  0  0  0
  -21.8020   -4.0010   23.7090 C   0  0  0  0  0  3  0  0  0  0  0  0
  -21.9120   -4.8180   22.5700 C   0  0  0  0  0  0  0  0  0  0  0  0
  -22.3290   -4.2810   21.3970 F   0  0  0  0  0  0  0  0  0  0  0  0
  -21.2380   -3.7600   26.0160 F   0  0  0  0  0  0  0  0  0  0  0  0
  -22.7430  -13.5680   21.1830 C   0  0  0  0  0  0  0  0  0  0  0  0
  -22.0090  -12.8690   22.0420 N   0  0  0  0  0  0  0  0  0  0  0  0
  -22.3110  -14.6000   20.6700 O   0  0  0  0  0  0  0  0  0  0  0  0
  -22.3710  -12.0370   22.4820 H   0  0  0  0  0  0  0  0  0  0  0  0
  -21.0700  -13.1720   22.2630 H   0  0  0  0  0  0  0  0  0  0  0  0
  -25.3810  -15.2250   20.3680 N   0  0  0  0  0  0  0  0  0  0  0  0
  -24.6150  -15.8820   20.4730 H   0  0  0  0  0  0  0  0  0  0  0  0
  -26.2280  -15.6570   20.0180 H   0  0  0  0  0  0  0  0  0  0  0  0
  -29.3640  -24.2620   20.2330 C   0  0  0  0  0  3  0  0  0  0  0  0
  -28.2120  -25.2380   19.8190 C   0  0  0  0  0  3  0  0  0  0  0  0
  -28.3310  -26.6280   20.2270 O   0  0  0  0  0  0  0  0  0  0  0  0
  -24.5700  -31.9250   23.2430 C   0  0  0  0  0  0  0  0  0  0  0  0
  -27.1760  -27.4070   20.1850 C   0  0  0  0  0  0  0  0  0  0  0  0
  -23.3550  -30.5230   21.6110 C   0  0  0  0  0  3  0  0  0  0  0  0
  -24.7970  -28.9700   20.1940 C   0  0  0  0  0  0  0  0  0  0  0  0
  -25.8900  -30.8500   21.4160 C   0  0  0  0  0  2  0  0  0  0  0  0
  -25.9650  -29.4730   20.7810 C   0  0  0  0  0  0  0  0  0  0  0  0
  -27.1540  -28.6990   20.7750 C   0  0  0  0  0  3  0  0  0  0  0  0
  -25.9830  -26.9420   19.5780 C   0  0  0  0  0  3  0  0  0  0  0  0
  -24.8020  -27.7050   19.5900 C   0  0  0  0  0  3  0  0  0  0  0  0
  -23.5610  -29.8410   20.2350 C   0  0  0  0  0  2  0  0  0  0  0  0
  -24.6250  -31.1150   22.1480 N   0  0  0  0  0  0  0  0  0  0  0  0
  -23.4900  -32.2090   23.7800 O   0  0  0  0  0  0  0  0  0  0  0  0
  -22.6970  -29.5100   22.5770 C   0  0  0  0  0  0  0  0  0  0  0  0
  -21.3710  -29.3350   22.4510 N   0  0  0  0  0  0  0  0  0  0  0  0
  -23.3750  -28.8850   23.3960 O   0  0  0  0  0  0  0  0  0  0  0  0
  -20.8820  -29.8890   21.7610 H   0  0  0  0  0  0  0  0  0  0  0  0
  -17.9870  -28.1770   22.9740 C   0  0  0  0  0  0  0  0  0  0  0  0
  -20.5490  -28.4060   23.2280 C   0  0  0  0  0  3  0  0  0  0  0  0
  -20.6310  -26.9730   22.6520 C   0  0  0  0  0  2  0  0  0  0  0  0
  -19.5190  -26.6620   21.6460 C   0  0  0  0  0  2  0  0  0  0  0  0
  -18.1430  -26.8250   22.2980 C   0  0  0  0  0  2  0  0  0  0  0  0
  -19.1160  -28.9260   23.3960 C   0  0  0  0  0  0  0  0  0  0  0  0
  -18.9160  -30.1930   23.9870 C   0  0  0  0  0  3  0  0  0  0  0  0
  -17.6180  -30.7110   24.1600 C   0  0  0  0  0  3  0  0  0  0  0  0
  -16.5030  -29.9580   23.7540 C   0  0  0  0  0  3  0  0  0  0  0  0
  -16.6870  -28.6930   23.1680 C   0  0  0  0  0  3  0  0  0  0  0  0
  -25.8600  -32.5530   23.8570 C   0  0  0  0  0  3  0  0  0  0  0  0
  -26.3770  -31.7850   25.1350 C   0  0  1  0  0  0  0  0  0  0  0  0
  -25.2840  -31.5530   26.2050 C   0  0  0  0  0  1  0  0  0  0  0  0
  -26.9570  -30.4060   24.7460 C   0  0  0  0  0  1  0  0  0  0  0  0
  -27.5300  -32.5790   25.7940 C   0  0  0  0  0  1  0  0  0  0  0  0
  -25.5600  -33.9540   24.1800 N   0  0  0  0  0  0  0  0  0  0  0  0
  -25.8990  -35.0000   23.4150 C   0  0  0  0  0  0  0  0  0  0  0  0
  -26.5690  -34.8870   22.3840 O   0  0  0  0  0  0  0  0  0  0  0  0
  -24.9680  -34.1180   24.9810 H   0  0  0  0  0  0  0  0  0  0  0  0
  -24.1950  -36.8100   23.0310 C   0  0  0  0  0  1  0  0  0  0  0  0
  -25.4190  -36.3930   23.8630 C   0  0  0  0  0  3  0  0  0  0  0  0
  -27.5460  -37.2600   24.7300 C   0  0  0  0  0  1  0  0  0  0  0  0
  -26.4650  -37.4360   23.7650 N   0  0  0  0  0  0  0  0  0  0  0  0
  -26.0640  -38.3610   23.9020 H   0  0  0  0  0  0  0  0  0  0  0  0
  1  3  2  0
  2  5  2  0
  2  1  1  0
  3  4  1  0
  3 12  1  0
  4  7  2  0
  5  6  1  0
  6 51  1  0
  6  4  1  0
  8 11  1  0
  9  8  1  0
 10 12  1  0
 10 11  1  0
 11 21  1  0
 12  9  1  0
 13 21  1  0
 14 19  1  0
 15 16  1  0
 15 14  1  0
 17 16  1  0
 17 26  1  0
 17 18  1  0
 19 13  1  0
 19 18  1  0
 20 13  2  0
 21 22  1  0
 23 24  2  0
 24 43  1  0
 25 24  1  0
 25 28  1  0
 26 23  1  0
 26 27  1  0
 27 25  2  0
 28 29  1  0
 29 30  2  0
 31 34  1  0
 31 30  1  0
 32 31  2  0
 33 32  1  0
 33 28  2  0
 34 35  1  0
 35 36  1  0
 36 37  2  0
 38 37  1  0
 38 42  1  0
 39 38  2  0
 40 35  2  0
 40 39  1  0
 41 40  1  0
 43 44  1  0
 44 47  1  0
 44 46  1  0
 45 43  2  0
 48 49  1  0
 48 23  1  0
 50 48  1  0
 52 53  1  0
 52 51  2  0
 54 65  2  0
 55 53  1  0
 55 60  1  0
 56 64  1  0
 56 66  1  0
 57 63  1  0
 57 59  1  0
 58 64  1  0
 59 58  1  0
 60 59  2  0
 61 62  1  0
 61 55  2  0
 62 57  2  0
 63 56  1  0
 64 54  1  0
 66 68  2  0
 67 66  1  0
 69 67  1  0
 70 79  2  0
 70 75  1  0
 71 67  1  0
 71 75  1  0
 72 71  1  0
 73 74  1  0
 73 72  1  0
 74 70  1  0
 75 76  2  0
 76 77  1  0
 78 77  2  0
 79 78  1  0
 80 54  1  0
 80 85  1  0
 80 81  1  0
 81 84  1  1
 81 82  1  0
 83 81  1  0
 85 88  1  0
 86 90  1  0
 86 85  1  0
 87 86  2  0
 90 89  1  0
 92 90  1  0
 92 93  1  0
 92 91  1  0
M  ISO  4  13 100  21 100  52 101  53 101
M  END
>  <TORSDO>  (71) 
F 19

>  <SCORE>  (71) 
-14.648

>  <name>  (71) 
71

>  <ligand_id>  (71) 
71

>  <original_smiles>  (71) 
[H]c1nn(C([H])([H])C([H])([H])Oc2c([H])c([H])c3c(c2[H])C([H])([H])N(C(=O)C([H])(N([H])C(=O)C([H])(N([H])C([H])([H])[H])C([H])([H])[H])C(C([H])([H])[H])(C([H])([H])[H])C([H])([H])[H])C([H])(C(=O)N([H])C2([H])c4c([H])c([H])c([H])c([H])c4C([H])([H])C([H])([H])C2([H])[H])C3([H])[H])c(=O)c(N2C([H])([H])C([H])([H])C([H])(N([H])C(=O)N3C([H])([H])C([H])([H])C([H])([H])C([H])(n4nc(-c5c([H])c([H])c(Oc6c([H])c([H])c(F)c([H])c6F)c([H])c5[H])c(C(=O)N([H])[H])c4N([H])[H])C3([H])[H])C2([H])[H])c1[H]

>  <smiles>  (71) 
[H]c1nn(C([H])([H])C([H])([H])Oc2c([H])c([H])c3c(c2[H])C([H])([H])N(C(=O)C([H])(N([H])C(=O)C([H])(N([H])C([H])([H])[H])C([H])([H])[H])C(C([H])([H])[H])(C([H])([H])[H])C([H])([H])[H])C([H])(C(=O)N([H])C2([H])c4c([H])c([H])c([H])c([H])c4C([H])([H])C([H])([H])C2([H])[H])C3([H])[H])c(=O)c(N2C([H])([H])C([H])([H])C([H])(N([H])C(=O)N3C([H])([H])C([H])([H])C([H])([H])C([H])(n4nc(-c5c([H])c([H])c(Oc6c([H])c([H])c(F)c([H])c6F)c([H])c5[H])c(C(=O)N([H])[H])c4N([H])[H])C3([H])[H])C2([H])[H])c1[H]

$$$$
72:0:0
     RDKit          3D

 97106  0  0  1  0  0  0  0  0999 V2000
  -29.8950  -20.2680   19.9610 C   0  0  0  0  0  3  0  0  0  0  0  0
  -30.3160  -19.4890   21.0270 C   0  0  0  0  0  0  0  0  0  0  0  0
  -30.0520  -21.6390   20.3760 C   0  0  0  0  0  0  0  0  0  0  0  0
  -30.5700  -21.7160   21.5760 N   0  0  0  0  0  0  0  0  0  0  0  0
  -30.7270  -20.4300   21.9830 N   0  0  0  0  0  0  0  0  0  0  0  0
  -29.6370  -22.7910   19.6630 N   0  0  0  0  0  0  0  0  0  0  0  0
  -29.2380  -22.6480   18.7390 H   0  0  0  0  0  0  0  0  0  0  0  0
  -31.1910  -14.5010   20.1820 C   0  0  0  0  0  0  0  0  0  0  0  0
  -30.7960  -12.2880   19.1400 C   0  0  0  0  0  2  0  0  0  0  0  0
  -29.8340  -12.4460   17.9440 C   0  0  0  0  0  2  0  0  0  0  0  0
  -28.3710  -12.3500   18.4160 C   0  0  0  0  0  2  0  0  0  0  0  0
  -28.0760  -13.2550   19.6430 C   0  0  0  0  0  3  0  0  0  0  0  0
  -29.1570  -13.0880   20.7370 C   0  0  0  0  0  2  0  0  0  0  0  0
  -30.4710  -13.3400   20.1220 N   0  0  0  0  0  0  0  0  0  0  0  0
  -32.2730  -14.6290   19.6020 O   0  0  0  0  0  0  0  0  0  0  0  0
  -31.1780  -17.3390   22.3520 C   0  0  0  0  0  2  0  0  0  0  0  0
  -30.9850  -15.8230   22.1910 C   0  0  0  0  0  2  0  0  0  0  0  0
  -30.4490  -16.9180   20.1610 C   0  0  0  0  0  2  0  0  0  0  0  0
  -30.2490  -17.9580   21.3030 C   0  0  0  0  0  3  0  0  0  0  0  0
  -30.6150  -15.5730   20.7960 N   0  0  0  0  0  0  0  0  0  0  0  0
  -25.7240  -13.9460   20.4210 C   0  0  0  0  0  0  0  0  0  0  0  0
  -24.6370  -13.2140   20.8180 C   0  0  0  0  0  0  0  0  0  0  0  0
  -25.0450  -11.8460   20.7720 C   0  0  0  0  0  0  0  0  0  0  0  0
  -26.7290  -13.0270   20.1630 N   0  0  0  0  0  0  0  0  0  0  0  0
  -26.3240  -11.7590   20.4290 N   0  0  0  0  0  0  0  0  0  0  0  0
  -24.2750  -10.6110   20.9810 C   0  0  0  0  0  0  0  0  0  0  0  0
  -24.6720   -9.6440   21.9300 C   0  0  0  0  0  3  0  0  0  0  0  0
  -23.9050   -8.4750   22.1250 C   0  0  0  0  0  3  0  0  0  0  0  0
  -22.7260   -8.2650   21.3710 C   0  0  0  0  0  0  0  0  0  0  0  0
  -22.3470   -9.2210   20.4120 C   0  0  0  0  0  3  0  0  0  0  0  0
  -23.1150  -10.3820   20.2150 C   0  0  0  0  0  3  0  0  0  0  0  0
  -21.9320   -7.1490   21.4740 O   0  0  0  0  0  0  0  0  0  0  0  0
  -21.7970   -6.4680   22.6580 C   0  0  0  0  0  0  0  0  0  0  0  0
  -21.3250   -7.0990   23.8290 C   0  0  0  0  0  3  0  0  0  0  0  0
  -21.1360   -6.3480   25.0070 C   0  0  0  0  0  3  0  0  0  0  0  0
  -21.4080   -4.9680   25.0130 C   0  0  0  0  0  0  0  0  0  0  0  0
  -21.8720   -4.3360   23.8460 C   0  0  0  0  0  3  0  0  0  0  0  0
  -22.0630   -5.0850   22.6710 C   0  0  0  0  0  0  0  0  0  0  0  0
  -22.4910   -4.4670   21.5430 F   0  0  0  0  0  0  0  0  0  0  0  0
  -21.2180   -4.2430   26.1410 F   0  0  0  0  0  0  0  0  0  0  0  0
  -23.2670  -13.7450   21.1310 C   0  0  0  0  0  0  0  0  0  0  0  0
  -22.5500  -13.0910   22.0380 N   0  0  0  0  0  0  0  0  0  0  0  0
  -22.8460  -14.7740   20.6060 O   0  0  0  0  0  0  0  0  0  0  0  0
  -22.9030  -12.2560   22.4820 H   0  0  0  0  0  0  0  0  0  0  0  0
  -21.6320  -13.4310   22.2920 H   0  0  0  0  0  0  0  0  0  0  0  0
  -25.9370  -15.3090   20.2400 N   0  0  0  0  0  0  0  0  0  0  0  0
  -25.2020  -15.9960   20.3680 H   0  0  0  0  0  0  0  0  0  0  0  0
  -26.8020  -15.7130   19.9050 H   0  0  0  0  0  0  0  0  0  0  0  0
  -31.1760  -20.2580   23.3590 C   0  0  0  0  0  2  0  0  0  0  0  0
  -30.0360  -20.5260   24.3610 C   0  0  0  0  0  2  0  0  0  0  0  0
  -30.3550  -22.9910   24.5880 C   0  0  0  0  0  1  0  0  0  0  0  0
  -29.4610  -21.8810   24.1970 N   0  0  0  0  0  4  0  0  0  0  0  0
  -29.2040  -22.0040   23.2300 H   0  0  0  0  0  0  0  0  0  0  0  0
  -28.6230  -21.9450   24.7510 H   0  0  0  0  0  0  0  0  0  0  0  0
  -30.0010  -24.1910   20.0360 C   0  0  0  0  0  3  0  0  0  0  0  0
  -28.9490  -25.2930   19.6220 C   0  0  0  0  0  3  0  0  0  0  0  0
  -29.0710  -26.6240   20.2330 O   0  0  0  0  0  0  0  0  0  0  0  0
  -25.3890  -31.4200   24.1100 C   0  0  0  0  0  0  0  0  0  0  0  0
  -27.9590  -27.4770   20.2870 C   0  0  0  0  0  0  0  0  0  0  0  0
  -24.2060  -30.4620   22.1630 C   0  0  0  0  0  3  0  0  0  0  0  0
  -25.6580  -29.1590   20.5090 C   0  0  0  0  0  0  0  0  0  0  0  0
  -26.7610  -30.6710   22.1590 C   0  0  0  0  0  2  0  0  0  0  0  0
  -26.8090  -29.4550   21.2460 C   0  0  0  0  0  0  0  0  0  0  0  0
  -27.9580  -28.6230   21.1330 C   0  0  0  0  0  3  0  0  0  0  0  0
  -26.7890  -27.2340   19.5260 C   0  0  0  0  0  3  0  0  0  0  0  0
  -25.6480  -28.0530   19.6440 C   0  0  0  0  0  3  0  0  0  0  0  0
  -24.4590  -30.0680   20.6830 C   0  0  0  0  0  2  0  0  0  0  0  0
  -25.4670  -30.8540   22.8710 N   0  0  0  0  0  0  0  0  0  0  0  0
  -24.2940  -31.6460   24.6450 O   0  0  0  0  0  0  0  0  0  0  0  0
  -23.4440  -29.3120   22.8640 C   0  0  0  0  0  0  0  0  0  0  0  0
  -22.1420  -29.1800   22.5610 N   0  0  0  0  0  0  0  0  0  0  0  0
  -24.0260  -28.5500   23.6390 O   0  0  0  0  0  0  0  0  0  0  0  0
  -21.7330  -29.8540   21.9300 H   0  0  0  0  0  0  0  0  0  0  0  0
  -18.7490  -27.9360   22.4120 C   0  0  0  0  0  0  0  0  0  0  0  0
  -21.2420  -28.1440   23.0680 C   0  0  0  0  0  3  0  0  0  0  0  0
  -21.4470  -26.8090   22.3140 C   0  0  0  0  0  2  0  0  0  0  0  0
  -20.5010  -26.6410   21.1210 C   0  0  0  0  0  2  0  0  0  0  0  0
  -19.0410  -26.6970   21.5820 C   0  0  0  0  0  2  0  0  0  0  0  0
  -19.7860  -28.6230   23.0950 C   0  0  0  0  0  0  0  0  0  0  0  0
  -19.4690  -29.7900   23.8250 C   0  0  0  0  0  3  0  0  0  0  0  0
  -18.1450  -30.2660   23.8840 C   0  0  0  0  0  3  0  0  0  0  0  0
  -17.1200  -29.5720   23.2170 C   0  0  0  0  0  3  0  0  0  0  0  0
  -17.4230  -28.4110   22.4850 C   0  0  0  0  0  3  0  0  0  0  0  0
  -26.6690  -31.8310   24.9030 C   0  0  0  0  0  3  0  0  0  0  0  0
  -26.4990  -33.2250   25.3330 N   0  0  0  0  0  0  0  0  0  0  0  0
  -27.0480  -34.2840   24.7240 C   0  0  0  0  0  0  0  0  0  0  0  0
  -27.8210  -34.1790   23.7680 O   0  0  0  0  0  0  0  0  0  0  0  0
  -25.8380  -33.3920   26.0780 H   0  0  0  0  0  0  0  0  0  0  0  0
  -25.6470  -36.3360   24.3330 C   0  0  0  0  0  1  0  0  0  0  0  0
  -26.6830  -35.6820   25.2610 C   0  0  0  0  0  3  0  0  0  0  0  0
  -28.7600  -36.1700   26.4780 C   0  0  0  0  0  1  0  0  0  0  0  0
  -27.8500  -36.5790   25.4100 N   0  0  0  0  0  0  0  0  0  0  0  0
  -27.5500  -37.5320   25.5960 H   0  0  0  0  0  0  0  0  0  0  0  0
  -26.9560  -30.9000   26.1450 C   0  0  1  0  0  0  0  0  0  0  0  0
  -25.7410  -30.7220   27.0830 C   0  0  0  0  0  1  0  0  0  0  0  0
  -27.4070  -29.4970   25.6790 C   0  0  0  0  0  1  0  0  0  0  0  0
  -28.1210  -31.4840   26.9800 C   0  0  0  0  0  1  0  0  0  0  0  0
  1  3  1  0
  1  2  2  0
  2  5  1  0
  3  4  2  0
  4  5  1  0
  5 49  1  0
  6 55  1  0
  6  3  1  0
  7  6  1  0
  8 20  1  0
  9 14  1  0
 10 11  1  0
 10  9  1  0
 12 11  1  0
 12 24  1  0
 12 13  1  0
 14  8  1  0
 14 13  1  0
 15  8  2  0
 17 16  1  0
 18 20  1  0
 18 19  1  0
 19  2  1  0
 19 16  1  0
 20 17  1  0
 21 22  2  0
 22 41  1  0
 23 22  1  0
 23 26  1  0
 24 21  1  0
 24 25  1  0
 25 23  2  0
 26 27  1  0
 27 28  2  0
 29 32  1  0
 29 28  1  0
 30 29  2  0
 31 30  1  0
 31 26  2  0
 32 33  1  0
 33 38  2  0
 33 34  1  0
 34 35  2  0
 35 36  1  0
 36 40  1  0
 37 36  2  0
 38 37  1  0
 39 38  1  0
 41 42  1  0
 42 45  1  0
 42 44  1  0
 43 41  2  0
 46 47  1  0
 46 21  1  0
 48 46  1  0
 49 50  1  0
 52 50  1  0
 52 51  1  0
 52 54  1  0
 53 52  1  0
 56 55  2  0
 56 57  1  0
 57 59  1  0
 58 69  2  0
 59 64  1  0
 60 70  1  0
 60 68  1  0
 61 67  1  0
 61 63  1  0
 62 68  1  0
 63 62  1  0
 64 63  2  0
 65 66  1  0
 65 59  2  0
 66 61  2  0
 67 60  1  0
 68 58  1  0
 70 72  2  0
 71 70  1  0
 73 71  1  0
 74 83  2  0
 74 79  1  0
 75 71  1  0
 75 79  1  0
 76 75  1  0
 77 78  1  0
 77 76  1  0
 78 74  1  0
 79 80  2  0
 80 81  1  0
 82 81  2  0
 83 82  1  0
 84 58  1  0
 84 85  1  0
 84 94  1  0
 85 88  1  0
 86 90  1  0
 86 85  1  0
 87 86  2  0
 90 89  1  0
 90 92  1  0
 92 93  1  0
 92 91  1  0
 94 97  1  1
 94 95  1  0
 96 94  1  0
M  ISO  4   8 100  20 100  56 101  57 101
M  END
>  <TORSDO>  (72) 
F 21

>  <SCORE>  (72) 
-10.859

>  <name>  (72) 
72

>  <ligand_id>  (72) 
72

>  <original_smiles>  (72) 
[H]c1c([H])c([H])c2c(c1[H])C([H])([H])C([H])([H])C([H])([H])C2([H])N([H])C(=O)C1([H])N(C(=O)C([H])(N([H])C(=O)C([H])(N([H])C([H])([H])[H])C([H])([H])[H])C(C([H])([H])[H])(C([H])([H])[H])C([H])([H])[H])C([H])([H])c2c([H])c(OC([H])([H])C([H])([H])N([H])c3nn(C([H])([H])C([H])([H])[N+]([H])([H])C([H])([H])[H])c(C4([H])C([H])([H])N(C(=O)N5C([H])([H])C([H])([H])C([H])([H])C([H])(n6nc(-c7c([H])c([H])c(Oc8c([H])c([H])c(F)c([H])c8F)c([H])c7[H])c(C(=O)N([H])[H])c6N([H])[H])C5([H])[H])C([H])([H])C4([H])[H])c3[H])c([H])c([H])c2C1([H])[H]

>  <smiles>  (72) 
[H]c1c([H])c([H])c2c(c1[H])C([H])([H])C([H])([H])C([H])([H])C2([H])N([H])C(=O)C1([H])N(C(=O)C([H])(N([H])C(=O)C([H])(N([H])C([H])([H])[H])C([H])([H])[H])C(C([H])([H])[H])(C([H])([H])[H])C([H])([H])[H])C([H])([H])c2c([H])c(OC([H])([H])C([H])([H])N([H])c3nn(C([H])([H])C([H])([H])[N+]([H])([H])C([H])([H])[H])c(C4([H])C([H])([H])N(C(=O)N5C([H])([H])C([H])([H])C([H])([H])C([H])(n6nc(-c7c([H])c([H])c(Oc8c([H])c([H])c(F)c([H])c8F)c([H])c7[H])c(C(=O)N([H])[H])c6N([H])[H])C5([H])[H])C([H])([H])C4([H])[H])c3[H])c([H])c([H])c2C1([H])[H]

$$$$
73:0:0
     RDKit          3D

 91100  0  0  1  0  0  0  0  0999 V2000
  -28.6480  -24.7540   21.9610 C   0  0  0  0  0  3  0  0  0  0  0  0
  -28.9310  -23.4710   22.4620 C   0  0  0  0  0  3  0  0  0  0  0  0
  -28.4040  -24.9170   20.5980 C   0  0  0  0  0  0  0  0  0  0  0  0
  -28.7350  -22.4670   20.3920 C   0  0  0  0  0  0  0  0  0  0  0  0
  -28.9670  -22.3560   21.6960 N   0  0  0  0  0  0  0  0  0  0  0  0
  -28.4760  -23.7290   19.8250 N   0  0  0  0  0  0  0  0  0  0  0  0
  -28.3570  -26.2830   20.0660 O   0  0  0  0  0  0  0  0  0  0  0  0
  -24.6480  -31.8960   23.1850 C   0  0  0  0  0  0  0  0  0  0  0  0
  -27.2710  -27.2220   20.1600 C   0  0  0  0  0  0  0  0  0  0  0  0
  -23.4560  -30.4860   21.5480 C   0  0  0  0  0  3  0  0  0  0  0  0
  -24.9180  -28.9250   20.1290 C   0  0  0  0  0  0  0  0  0  0  0  0
  -26.0020  -30.7860   21.3740 C   0  0  0  0  0  2  0  0  0  0  0  0
  -26.0900  -29.3890   20.7400 C   0  0  0  0  0  0  0  0  0  0  0  0
  -27.2700  -28.5540   20.7400 C   0  0  0  0  0  3  0  0  0  0  0  0
  -26.0750  -26.8540   19.5100 C   0  0  0  0  0  3  0  0  0  0  0  0
  -24.9230  -27.6710   19.4970 C   0  0  0  0  0  3  0  0  0  0  0  0
  -23.6780  -29.8030   20.1710 C   0  0  0  0  0  2  0  0  0  0  0  0
  -24.7200  -31.0840   22.0860 N   0  0  0  0  0  0  0  0  0  0  0  0
  -23.5630  -32.1640   23.7240 O   0  0  0  0  0  0  0  0  0  0  0  0
  -22.8020  -29.4690   22.5160 C   0  0  0  0  0  0  0  0  0  0  0  0
  -21.4750  -29.2880   22.4040 N   0  0  0  0  0  0  0  0  0  0  0  0
  -23.4880  -28.8450   23.3310 O   0  0  0  0  0  0  0  0  0  0  0  0
  -20.9810  -29.8430   21.7200 H   0  0  0  0  0  0  0  0  0  0  0  0
  -18.1080  -28.0620   22.9380 C   0  0  0  0  0  0  0  0  0  0  0  0
  -20.6660  -28.3430   23.1800 C   0  0  0  0  0  3  0  0  0  0  0  0
  -20.7770  -26.9150   22.6030 C   0  0  0  0  0  2  0  0  0  0  0  0
  -19.6650  -26.5830   21.6010 C   0  0  0  0  0  2  0  0  0  0  0  0
  -18.2890  -26.7150   22.2580 C   0  0  0  0  0  2  0  0  0  0  0  0
  -19.2250  -28.8330   23.3540 C   0  0  0  0  0  0  0  0  0  0  0  0
  -19.0040  -30.0910   23.9560 C   0  0  0  0  0  3  0  0  0  0  0  0
  -17.6980  -30.5770   24.1470 C   0  0  0  0  0  3  0  0  0  0  0  0
  -16.5930  -29.8040   23.7450 C   0  0  0  0  0  3  0  0  0  0  0  0
  -16.7990  -28.5480   23.1450 C   0  0  0  0  0  3  0  0  0  0  0  0
  -25.9230  -32.5430   23.8020 C   0  0  0  0  0  3  0  0  0  0  0  0
  -25.5990  -33.9400   24.1310 N   0  0  0  0  0  0  0  0  0  0  0  0
  -25.9180  -34.9990   23.3740 C   0  0  0  0  0  0  0  0  0  0  0  0
  -26.5870  -34.9010   22.3420 O   0  0  0  0  0  0  0  0  0  0  0  0
  -25.0050  -34.0860   24.9320 H   0  0  0  0  0  0  0  0  0  0  0  0
  -24.1770  -36.7830   23.0170 C   0  0  0  0  0  1  0  0  0  0  0  0
  -25.4180  -36.3840   23.8310 C   0  0  0  0  0  3  0  0  0  0  0  0
  -27.5370  -37.2900   24.6790 C   0  0  0  0  0  1  0  0  0  0  0  0
  -26.4420  -37.4440   23.7260 N   0  0  0  0  0  0  0  0  0  0  0  0
  -26.0250  -38.3620   23.8630 H   0  0  0  0  0  0  0  0  0  0  0  0
  -26.4430  -31.7860   25.0860 C   0  0  1  0  0  0  0  0  0  0  0  0
  -25.3450  -31.5490   26.1490 C   0  0  0  0  0  1  0  0  0  0  0  0
  -27.0430  -30.4110   24.7100 C   0  0  0  0  0  1  0  0  0  0  0  0
  -27.5840  -32.5930   25.7450 C   0  0  0  0  0  1  0  0  0  0  0  0
  -28.6620  -21.0300   19.5850 C   0  0  0  0  0  2  0  0  0  0  0  0
  -30.6640  -15.0750   19.9080 C   0  0  0  0  0  0  0  0  0  0  0  0
  -30.4320  -12.7210   18.9950 C   0  0  0  0  0  2  0  0  0  0  0  0
  -29.4520  -12.6860   17.8020 C   0  0  0  0  0  2  0  0  0  0  0  0
  -28.0160  -12.4640   18.3070 C   0  0  0  0  0  2  0  0  0  0  0  0
  -27.6650  -13.4000   19.4940 C   0  0  0  0  0  3  0  0  0  0  0  0
  -28.7720  -13.4610   20.5660 C   0  0  0  0  0  2  0  0  0  0  0  0
  -30.0070  -13.8450   19.8790 N   0  0  0  0  0  0  0  0  0  0  0  0
  -31.8590  -15.0520   19.5860 O   0  0  0  0  0  0  0  0  0  0  0  0
  -30.3890  -17.3730   18.8650 C   0  0  0  0  0  2  0  0  0  0  0  0
  -29.6610  -17.2130   21.0770 C   0  0  0  0  0  2  0  0  0  0  0  0
  -29.5640  -18.7460   18.6900 C   0  0  0  0  0  2  0  0  0  0  0  0
  -28.8650  -18.6430   20.9110 C   0  0  0  0  0  2  0  0  0  0  0  0
  -29.9650  -16.3360   19.8770 N   0  0  0  0  0  0  0  0  0  0  0  0
  -29.4000  -19.6440   19.8980 N   0  0  2  0  0  4  0  0  0  0  0  0
  -30.3180  -19.9190   20.2100 H   0  0  0  0  0  0  0  0  0  0  0  0
  -25.3500  -13.9760   20.4030 C   0  0  0  0  0  0  0  0  0  0  0  0
  -24.3020  -13.2050   20.8150 C   0  0  0  0  0  0  0  0  0  0  0  0
  -24.7490  -11.8490   20.7270 C   0  0  0  0  0  0  0  0  0  0  0  0
  -26.3630  -13.0960   20.0730 N   0  0  0  0  0  0  0  0  0  0  0  0
  -26.0170  -11.8090   20.3370 N   0  0  0  0  0  0  0  0  0  0  0  0
  -24.0220  -10.5910   20.9310 C   0  0  0  0  0  0  0  0  0  0  0  0
  -24.4670   -9.6200   21.8560 C   0  0  0  0  0  3  0  0  0  0  0  0
  -23.7380   -8.4270   22.0470 C   0  0  0  0  0  3  0  0  0  0  0  0
  -22.5500   -8.1970   21.3120 C   0  0  0  0  0  0  0  0  0  0  0  0
  -22.1270   -9.1550   20.3740 C   0  0  0  0  0  3  0  0  0  0  0  0
  -22.8560  -10.3390   20.1810 C   0  0  0  0  0  3  0  0  0  0  0  0
  -21.7870   -7.0580   21.4130 O   0  0  0  0  0  0  0  0  0  0  0  0
  -21.7090   -6.3460   22.5840 C   0  0  0  0  0  0  0  0  0  0  0  0
  -21.2500   -6.9330   23.7840 C   0  0  0  0  0  3  0  0  0  0  0  0
  -21.1170   -6.1470   24.9460 C   0  0  0  0  0  3  0  0  0  0  0  0
  -21.4370   -4.7760   24.9100 C   0  0  0  0  0  0  0  0  0  0  0  0
  -21.8890   -4.1900   23.7160 C   0  0  0  0  0  3  0  0  0  0  0  0
  -22.0230   -4.9730   22.5550 C   0  0  0  0  0  0  0  0  0  0  0  0
  -22.4390   -4.3980   21.4020 F   0  0  0  0  0  0  0  0  0  0  0  0
  -21.3020   -4.0190   26.0250 F   0  0  0  0  0  0  0  0  0  0  0  0
  -22.9290  -13.6900   21.1770 C   0  0  0  0  0  0  0  0  0  0  0  0
  -22.2460  -12.9860   22.0710 N   0  0  0  0  0  0  0  0  0  0  0  0
  -22.4780  -14.7330   20.7050 O   0  0  0  0  0  0  0  0  0  0  0  0
  -22.6280  -12.1420   22.4750 H   0  0  0  0  0  0  0  0  0  0  0  0
  -21.3270  -13.2950   22.3590 H   0  0  0  0  0  0  0  0  0  0  0  0
  -25.5240  -15.3500   20.2500 N   0  0  0  0  0  0  0  0  0  0  0  0
  -24.7800  -16.0150   20.4320 H   0  0  0  0  0  0  0  0  0  0  0  0
  -26.3630  -15.7850   19.8880 H   0  0  0  0  0  0  0  0  0  0  0  0
  1  2  2  0
  3  1  1  0
  4  5  2  0
  5  2  1  0
  6  4  1  0
  6  3  2  0
  7  9  1  0
  7  3  1  0
  8 19  2  0
  9 14  1  0
 10 18  1  0
 10 20  1  0
 11 17  1  0
 11 13  1  0
 12 18  1  0
 13 12  1  0
 14 13  2  0
 15  9  2  0
 16 15  1  0
 16 11  2  0
 17 10  1  0
 18  8  1  0
 20 22  2  0
 21 20  1  0
 23 21  1  0
 24 33  2  0
 24 29  1  0
 25 21  1  0
 25 29  1  0
 26 25  1  0
 27 28  1  0
 27 26  1  0
 28 24  1  0
 29 30  2  0
 30 31  1  0
 32 31  2  0
 33 32  1  0
 34  8  1  0
 34 35  1  0
 34 44  1  0
 35 38  1  0
 36 40  1  0
 36 35  1  0
 37 36  2  0
 40 39  1  0
 42 40  1  0
 42 43  1  0
 42 41  1  0
 44 47  1  1
 44 45  1  0
 46 44  1  0
 48 62  1  0
 48  4  1  0
 50 55  1  0
 51 52  1  0
 51 50  1  0
 53 52  1  0
 53 67  1  0
 53 54  1  0
 55 49  1  0
 55 54  1  0
 56 49  2  0
 57 61  1  0
 59 57  1  0
 59 62  1  0
 60 58  1  0
 61 49  1  0
 61 58  1  0
 62 63  1  1
 62 60  1  0
 64 65  2  0
 65 84  1  0
 66 65  1  0
 66 69  1  0
 67 68  1  0
 67 64  1  0
 68 66  2  0
 69 70  1  0
 70 71  2  0
 72 75  1  0
 72 71  1  0
 73 72  2  0
 74 73  1  0
 74 69  2  0
 75 76  1  0
 76 77  1  0
 77 78  2  0
 79 78  1  0
 79 83  1  0
 80 79  2  0
 81 76  2  0
 81 80  1  0
 82 81  1  0
 84 85  1  0
 85 88  1  0
 85 87  1  0
 86 84  2  0
 89 64  1  0
 89 90  1  0
 91 89  1  0
M  ISO  4   3 101   7 101  49 100  61 100
M  END
>  <TORSDO>  (73) 
F 17

>  <SCORE>  (73) 
-14.820

>  <name>  (73) 
73

>  <ligand_id>  (73) 
73

>  <original_smiles>  (73) 
[H]c1nc(C([H])([H])[N+]2([H])C([H])([H])C([H])([H])N(C(=O)N3C([H])([H])C([H])([H])C([H])([H])C([H])(n4nc(-c5c([H])c([H])c(Oc6c([H])c([H])c(F)c([H])c6F)c([H])c5[H])c(C(=O)N([H])[H])c4N([H])[H])C3([H])[H])C([H])([H])C2([H])[H])nc(Oc2c([H])c([H])c3c(c2[H])C([H])([H])N(C(=O)C([H])(N([H])C(=O)C([H])(N([H])C([H])([H])[H])C([H])([H])[H])C(C([H])([H])[H])(C([H])([H])[H])C([H])([H])[H])C([H])(C(=O)N([H])C2([H])c4c([H])c([H])c([H])c([H])c4C([H])([H])C([H])([H])C2([H])[H])C3([H])[H])c1[H]

>  <smiles>  (73) 
[H]c1nc(C([H])([H])[N+]2([H])C([H])([H])C([H])([H])N(C(=O)N3C([H])([H])C([H])([H])C([H])([H])C([H])(n4nc(-c5c([H])c([H])c(Oc6c([H])c([H])c(F)c([H])c6F)c([H])c5[H])c(C(=O)N([H])[H])c4N([H])[H])C3([H])[H])C([H])([H])C2([H])[H])nc(Oc2c([H])c([H])c3c(c2[H])C([H])([H])N(C(=O)C([H])(N([H])C(=O)C([H])(N([H])C([H])([H])[H])C([H])([H])[H])C(C([H])([H])[H])(C([H])([H])[H])C([H])([H])[H])C([H])(C(=O)N([H])C2([H])c4c([H])c([H])c([H])c([H])c4C([H])([H])C([H])([H])C2([H])[H])C3([H])[H])c1[H]

$$$$
74:0:0
     RDKit          3D

 93103  0  0  1  0  0  0  0  0999 V2000
  -31.0570  -14.5180   20.0170 C   0  0  0  0  0  0  0  0  0  0  0  0
  -30.8150  -12.1540   19.3150 C   0  0  0  0  0  2  0  0  0  0  0  0
  -29.8510  -12.0600   18.1140 C   0  0  0  0  0  2  0  0  0  0  0  0
  -28.3990  -11.9230   18.6080 C   0  0  0  0  0  2  0  0  0  0  0  0
  -28.0380  -12.9750   19.6930 C   0  0  0  0  0  3  0  0  0  0  0  0
  -29.1230  -13.0760   20.7900 C   0  0  0  0  0  2  0  0  0  0  0  0
  -30.4080  -13.3210   20.1250 N   0  0  0  0  0  0  0  0  0  0  0  0
  -32.1910  -14.5770   19.5280 O   0  0  0  0  0  0  0  0  0  0  0  0
  -27.9240  -20.3030   18.3110 C   0  0  0  0  0  3  0  0  0  0  0  0
  -27.7920  -21.6210   17.9650 C   0  0  0  0  0  3  0  0  0  0  0  0
  -29.1790  -20.2210   18.9800 C   0  0  0  0  0  0  0  0  0  0  0  0
  -29.0070  -17.8720   21.9530 C   0  0  0  0  0  2  0  0  0  0  0  0
  -28.1590  -17.6080   20.6910 C   0  0  0  0  0  2  0  0  0  0  0  0
  -30.7880  -19.0080   20.4860 C   0  0  0  0  0  2  0  0  0  0  0  0
  -31.0930  -16.5230   21.3250 C   0  0  0  0  0  2  0  0  0  0  0  0
  -29.9480  -16.4910   19.1430 C   0  0  0  0  0  2  0  0  0  0  0  0
  -30.5120  -17.9440   21.6070 C   0  0  0  0  0  3  0  0  0  0  0  0
  -29.0030  -17.7230   19.4010 C   0  0  0  0  0  3  0  0  0  0  0  0
  -29.7490  -21.4390   19.0590 N   0  0  0  0  0  0  0  0  0  0  0  0
  -28.8890  -22.3220   18.4370 N   0  0  0  0  0  0  0  0  0  0  0  0
  -29.7540  -18.9960   19.4420 N   0  0  0  0  0  0  0  0  0  0  0  0
  -30.3950  -15.6840   20.3170 N   0  0  0  0  0  0  0  0  0  0  0  0
  -25.7170  -13.6330   20.5650 C   0  0  0  0  0  0  0  0  0  0  0  0
  -24.6480  -12.8870   20.9780 C   0  0  0  0  0  0  0  0  0  0  0  0
  -25.0560  -11.5220   20.8770 C   0  0  0  0  0  0  0  0  0  0  0  0
  -26.7130  -12.7250   20.2490 N   0  0  0  0  0  0  0  0  0  0  0  0
  -26.3240  -11.4480   20.4940 N   0  0  0  0  0  0  0  0  0  0  0  0
  -24.2930  -10.2810   21.0690 C   0  0  0  0  0  0  0  0  0  0  0  0
  -24.7190   -9.2920   21.9800 C   0  0  0  0  0  3  0  0  0  0  0  0
  -23.9620   -8.1140   22.1640 C   0  0  0  0  0  3  0  0  0  0  0  0
  -22.7630   -7.9210   21.4380 C   0  0  0  0  0  0  0  0  0  0  0  0
  -22.3520   -8.9020   20.5190 C   0  0  0  0  0  3  0  0  0  0  0  0
  -23.1090  -10.0710   20.3320 C   0  0  0  0  0  3  0  0  0  0  0  0
  -21.9730   -6.8010   21.5350 O   0  0  0  0  0  0  0  0  0  0  0  0
  -21.8910   -6.0790   22.6970 C   0  0  0  0  0  0  0  0  0  0  0  0
  -21.4260   -6.6520   23.9020 C   0  0  0  0  0  3  0  0  0  0  0  0
  -21.2880   -5.8520   25.0530 C   0  0  0  0  0  3  0  0  0  0  0  0
  -21.6060   -4.4810   25.0030 C   0  0  0  0  0  0  0  0  0  0  0  0
  -22.0660   -3.9090   23.8030 C   0  0  0  0  0  3  0  0  0  0  0  0
  -22.2050   -4.7050   22.6530 C   0  0  0  0  0  0  0  0  0  0  0  0
  -22.6250   -4.1430   21.4940 F   0  0  0  0  0  0  0  0  0  0  0  0
  -21.4690   -3.7130   26.1090 F   0  0  0  0  0  0  0  0  0  0  0  0
  -23.2880  -13.4070   21.3460 C   0  0  0  0  0  0  0  0  0  0  0  0
  -22.5870  -12.7120   22.2350 N   0  0  0  0  0  0  0  0  0  0  0  0
  -22.8590  -14.4620   20.8790 O   0  0  0  0  0  0  0  0  0  0  0  0
  -22.9500  -11.8590   22.6340 H   0  0  0  0  0  0  0  0  0  0  0  0
  -21.6780  -13.0420   22.5240 H   0  0  0  0  0  0  0  0  0  0  0  0
  -25.9140  -14.9990   20.4090 N   0  0  0  0  0  0  0  0  0  0  0  0
  -25.1650  -15.6640   20.5730 H   0  0  0  0  0  0  0  0  0  0  0  0
  -26.7570  -15.4230   20.0460 H   0  0  0  0  0  0  0  0  0  0  0  0
  -29.2260  -23.7640   18.2130 C   0  0  0  0  0  3  0  0  0  0  0  0
  -28.1450  -24.8140   18.6850 C   0  0  0  0  0  3  0  0  0  0  0  0
  -28.3690  -26.2460   18.4240 O   0  0  0  0  0  0  0  0  0  0  0  0
  -25.0390  -30.9020   22.7800 C   0  0  0  0  0  0  0  0  0  0  0  0
  -27.2770  -27.0940   18.6370 C   0  0  0  0  0  0  0  0  0  0  0  0
  -23.6860  -29.9460   20.9460 C   0  0  0  0  0  3  0  0  0  0  0  0
  -24.9820  -28.7180   19.1270 C   0  0  0  0  0  0  0  0  0  0  0  0
  -26.2220  -30.2240   20.6840 C   0  0  0  0  0  2  0  0  0  0  0  0
  -26.2030  -29.0280   19.7440 C   0  0  0  0  0  0  0  0  0  0  0  0
  -27.3540  -28.2280   19.4960 C   0  0  0  0  0  3  0  0  0  0  0  0
  -26.0410  -26.8530   17.9870 C   0  0  0  0  0  3  0  0  0  0  0  0
  -24.9020  -27.6420   18.2340 C   0  0  0  0  0  3  0  0  0  0  0  0
  -23.7930  -29.6010   19.4390 C   0  0  0  0  0  2  0  0  0  0  0  0
  -25.0030  -30.3610   21.5270 N   0  0  0  0  0  0  0  0  0  0  0  0
  -23.9990  -31.0840   23.4290 O   0  0  0  0  0  0  0  0  0  0  0  0
  -23.0360  -28.7580   21.6950 C   0  0  0  0  0  0  0  0  0  0  0  0
  -21.6970  -28.6520   21.6170 N   0  0  0  0  0  0  0  0  0  0  0  0
  -23.7300  -27.9470   22.3120 O   0  0  0  0  0  0  0  0  0  0  0  0
  -21.1960  -29.3620   21.1040 H   0  0  0  0  0  0  0  0  0  0  0  0
  -18.3000  -27.5010   22.0600 C   0  0  0  0  0  0  0  0  0  0  0  0
  -20.8780  -27.5970   22.2100 C   0  0  0  0  0  3  0  0  0  0  0  0
  -20.8750  -26.3320   21.3210 C   0  0  0  0  0  2  0  0  0  0  0  0
  -19.6990  -26.2890   20.3380 C   0  0  0  0  0  2  0  0  0  0  0  0
  -18.3660  -26.3340   21.0890 C   0  0  0  0  0  2  0  0  0  0  0  0
  -19.4780  -28.1040   22.5740 C   0  0  0  0  0  0  0  0  0  0  0  0
  -19.3550  -29.2120   23.4400 C   0  0  0  0  0  3  0  0  0  0  0  0
  -18.0880  -29.7060   23.8030 C   0  0  0  0  0  3  0  0  0  0  0  0
  -16.9250  -29.0960   23.3050 C   0  0  0  0  0  3  0  0  0  0  0  0
  -17.0340  -27.9950   22.4360 C   0  0  0  0  0  3  0  0  0  0  0  0
  -26.3810  -31.3380   23.4490 C   0  0  0  0  0  3  0  0  0  0  0  0
  -26.1480  -32.6190   24.1250 N   0  0  0  0  0  0  0  0  0  0  0  0
  -26.4510  -33.8200   23.6100 C   0  0  0  0  0  0  0  0  0  0  0  0
  -27.0350  -33.9580   22.5330 O   0  0  0  0  0  0  0  0  0  0  0  0
  -25.6380  -32.5880   24.9950 H   0  0  0  0  0  0  0  0  0  0  0  0
  -24.7530  -35.6600   23.8390 C   0  0  0  0  0  1  0  0  0  0  0  0
  -26.0410  -35.0600   24.4260 C   0  0  0  0  0  3  0  0  0  0  0  0
  -28.2580  -35.6990   25.2670 C   0  0  0  0  0  1  0  0  0  0  0  0
  -27.0920  -36.1010   24.4840 N   0  0  0  0  0  0  0  0  0  0  0  0
  -26.7220  -36.9630   24.8770 H   0  0  0  0  0  0  0  0  0  0  0  0
  -26.9440  -30.2700   24.4640 C   0  0  1  0  0  0  0  0  0  0  0  0
  -25.9160  -29.8080   25.5220 C   0  0  0  0  0  1  0  0  0  0  0  0
  -27.4450  -29.0130   23.7160 C   0  0  0  0  0  1  0  0  0  0  0  0
  -28.1620  -30.8520   25.2140 C   0  0  0  0  0  1  0  0  0  0  0  0
  1  7  1  0
  1 22  1  0
  2  7  1  0
  3  4  1  0
  3  2  1  0
  5  4  1  0
  5 26  1  0
  5  6  1  0
  7  6  1  0
  8  1  2  0
  9 11  1  0
 10  9  2  0
 10 20  1  0
 11 19  2  0
 11 21  1  0
 13 12  1  0
 15 17  1  0
 16 22  1  0
 17 14  1  0
 17 12  1  0
 18 16  1  0
 18 21  1  0
 18 13  1  0
 20 19  1  0
 21 14  1  0
 22 15  1  0
 23 24  2  0
 24 43  1  0
 25 24  1  0
 25 28  1  0
 26 27  1  0
 26 23  1  0
 27 25  2  0
 28 29  1  0
 29 30  2  0
 31 34  1  0
 31 30  1  0
 32 31  2  0
 33 32  1  0
 33 28  2  0
 34 35  1  0
 35 36  1  0
 36 37  2  0
 38 37  1  0
 38 42  1  0
 39 38  2  0
 40 35  2  0
 40 39  1  0
 41 40  1  0
 43 44  1  0
 44 47  1  0
 44 46  1  0
 45 43  2  0
 48 23  1  0
 48 49  1  0
 50 48  1  0
 51 20  1  0
 51 52  2  0
 53 55  1  0
 53 52  1  0
 54 65  2  0
 55 60  1  0
 56 64  1  0
 56 66  1  0
 57 63  1  0
 57 59  1  0
 58 64  1  0
 59 58  1  0
 60 59  2  0
 61 62  1  0
 61 55  2  0
 62 57  2  0
 63 56  1  0
 64 54  1  0
 66 68  2  0
 67 66  1  0
 69 67  1  0
 70 79  2  0
 70 75  1  0
 71 67  1  0
 71 75  1  0
 72 71  1  0
 73 74  1  0
 73 72  1  0
 74 70  1  0
 75 76  2  0
 76 77  1  0
 78 77  2  0
 79 78  1  0
 80 54  1  0
 80 81  1  0
 80 90  1  0
 81 84  1  0
 82 81  1  0
 82 86  1  0
 83 82  2  0
 86 85  1  0
 86 88  1  0
 88 89  1  0
 88 87  1  0
 90 93  1  1
 90 91  1  0
 92 90  1  0
M  ISO  4   1 100  22 100  52 101  53 101
M  END
>  <TORSDO>  (74) 
F 17

>  <SCORE>  (74) 
-10.539

>  <name>  (74) 
74

>  <ligand_id>  (74) 
74

>  <original_smiles>  (74) 
[H]c1c([H])c([H])c2c(c1[H])C([H])([H])C([H])([H])C([H])([H])C2([H])N([H])C(=O)C1([H])N(C(=O)C([H])(N([H])C(=O)C([H])(N([H])C([H])([H])[H])C([H])([H])[H])C(C([H])([H])[H])(C([H])([H])[H])C([H])([H])[H])C([H])([H])c2c([H])c(OC([H])([H])C([H])([H])n3nc(N4C([H])([H])C5([H])C([H])([H])N(C(=O)N6C([H])([H])C([H])([H])C([H])([H])C([H])(n7nc(-c8c([H])c([H])c(Oc9c([H])c([H])c(F)c([H])c9F)c([H])c8[H])c(C(=O)N([H])[H])c7N([H])[H])C6([H])[H])C([H])([H])C4([H])C([H])([H])C5([H])[H])c([H])c3[H])c([H])c([H])c2C1([H])[H]

>  <smiles>  (74) 
[H]c1c([H])c([H])c2c(c1[H])C([H])([H])C([H])([H])C([H])([H])C2([H])N([H])C(=O)C1([H])N(C(=O)C([H])(N([H])C(=O)C([H])(N([H])C([H])([H])[H])C([H])([H])[H])C(C([H])([H])[H])(C([H])([H])[H])C([H])([H])[H])C([H])([H])c2c([H])c(OC([H])([H])C([H])([H])n3nc(N4C([H])([H])C5([H])C([H])([H])N(C(=O)N6C([H])([H])C([H])([H])C([H])([H])C([H])(n7nc(-c8c([H])c([H])c(Oc9c([H])c([H])c(F)c([H])c9F)c([H])c8[H])c(C(=O)N([H])[H])c7N([H])[H])C6([H])[H])C([H])([H])C4([H])C([H])([H])C5([H])[H])c([H])c3[H])c([H])c([H])c2C1([H])[H]

$$$$
75:0:0
     RDKit          3D

 91 99  0  0  1  0  0  0  0  0999 V2000
  -29.3010  -22.7750   20.3230 N   0  0  0  0  0  4  0  0  0  0  0  0
  -29.4170  -22.7400   19.3230 H   0  0  0  0  0  0  0  0  0  0  0  0
  -30.2310  -22.9190   20.6940 H   0  0  0  0  0  0  0  0  0  0  0  0
  -28.8920  -21.3790   20.7740 C   0  0  0  0  0  2  0  0  0  0  0  0
  -30.6440  -14.6840   20.3800 C   0  0  0  0  0  0  0  0  0  0  0  0
  -30.3500  -12.4580   19.2890 C   0  0  0  0  0  2  0  0  0  0  0  0
  -29.3980  -12.5380   18.0770 C   0  0  0  0  0  2  0  0  0  0  0  0
  -27.9390  -12.3580   18.5320 C   0  0  0  0  0  2  0  0  0  0  0  0
  -27.5780  -13.2570   19.7420 C   0  0  0  0  0  3  0  0  0  0  0  0
  -28.6460  -13.1720   20.8570 C   0  0  0  0  0  2  0  0  0  0  0  0
  -29.9450  -13.5050   20.2590 N   0  0  0  0  0  0  0  0  0  0  0  0
  -31.8080  -14.7460   19.9730 O   0  0  0  0  0  0  0  0  0  0  0  0
  -30.0830  -20.3490   20.8710 C   0  0  0  0  0  0  0  0  0  0  0  0
  -31.1550  -18.1070   21.1600 C   0  0  0  0  0  2  0  0  0  0  0  0
  -28.7600  -18.1330   20.6730 C   0  0  0  0  0  2  0  0  0  0  0  0
  -30.8320  -16.7160   21.8050 C   0  0  0  0  0  2  0  0  0  0  0  0
  -28.9870  -16.6070   20.2500 C   0  0  0  0  0  2  0  0  0  0  0  0
  -29.9690  -18.9610   20.9030 N   0  0  0  0  0  0  0  0  0  0  0  0
  -30.0520  -15.8130   20.9320 N   0  0  0  0  0  0  0  0  0  0  0  0
  -31.2000  -20.8720   20.9570 O   0  0  0  0  0  0  0  0  0  0  0  0
  -25.1960  -13.8550   20.4860 C   0  0  0  0  0  0  0  0  0  0  0  0
  -24.1340  -13.0800   20.8660 C   0  0  0  0  0  0  0  0  0  0  0  0
  -24.6000  -11.7310   20.8390 C   0  0  0  0  0  0  0  0  0  0  0  0
  -26.2390  -12.9760   20.2470 N   0  0  0  0  0  0  0  0  0  0  0  0
  -25.8890  -11.6940   20.5230 N   0  0  0  0  0  0  0  0  0  0  0  0
  -23.8790  -10.4680   21.0360 C   0  0  0  0  0  0  0  0  0  0  0  0
  -24.3250   -9.4990   21.9600 C   0  0  0  0  0  3  0  0  0  0  0  0
  -23.6020   -8.3010   22.1460 C   0  0  0  0  0  3  0  0  0  0  0  0
  -22.4180   -8.0660   21.4060 C   0  0  0  0  0  0  0  0  0  0  0  0
  -21.9910   -9.0240   20.4710 C   0  0  0  0  0  3  0  0  0  0  0  0
  -22.7170  -10.2130   20.2840 C   0  0  0  0  0  3  0  0  0  0  0  0
  -21.6630   -6.9210   21.5040 O   0  0  0  0  0  0  0  0  0  0  0  0
  -21.6410   -6.1690   22.6500 C   0  0  0  0  0  0  0  0  0  0  0  0
  -21.2460   -6.7150   23.8920 C   0  0  0  0  0  3  0  0  0  0  0  0
  -21.1700   -5.8900   25.0310 C   0  0  0  0  0  3  0  0  0  0  0  0
  -21.4770   -4.5190   24.9310 C   0  0  0  0  0  0  0  0  0  0  0  0
  -21.8650   -3.9740   23.6950 C   0  0  0  0  0  3  0  0  0  0  0  0
  -21.9430   -4.7960   22.5570 C   0  0  0  0  0  0  0  0  0  0  0  0
  -22.2960   -4.2590   21.3630 F   0  0  0  0  0  0  0  0  0  0  0  0
  -21.3970   -3.7240   26.0240 F   0  0  0  0  0  0  0  0  0  0  0  0
  -22.7400  -13.5570   21.1450 C   0  0  0  0  0  0  0  0  0  0  0  0
  -22.0170  -12.8640   22.0200 N   0  0  0  0  0  0  0  0  0  0  0  0
  -22.2950  -14.5770   20.6200 O   0  0  0  0  0  0  0  0  0  0  0  0
  -22.3890  -12.0380   22.4670 H   0  0  0  0  0  0  0  0  0  0  0  0
  -21.0790  -13.1630   22.2460 H   0  0  0  0  0  0  0  0  0  0  0  0
  -25.3490  -15.2240   20.2970 N   0  0  0  0  0  0  0  0  0  0  0  0
  -24.5720  -15.8670   20.4030 H   0  0  0  0  0  0  0  0  0  0  0  0
  -26.1880  -15.6710   19.9530 H   0  0  0  0  0  0  0  0  0  0  0  0
  -28.4350  -23.9870   20.6630 C   0  0  0  0  0  2  0  0  0  0  0  0
  -28.6550  -25.2750   19.7460 C   0  0  0  0  0  2  0  0  0  0  0  0
  -28.4470  -26.6290   20.2810 O   0  0  0  0  0  0  0  0  0  0  0  0
  -24.6080  -31.8770   23.2420 C   0  0  0  0  0  0  0  0  0  0  0  0
  -27.2600  -27.3640   20.1930 C   0  0  0  0  0  0  0  0  0  0  0  0
  -23.3980  -30.4720   21.5990 C   0  0  0  0  0  3  0  0  0  0  0  0
  -24.8570  -28.9110   20.1820 C   0  0  0  0  0  0  0  0  0  0  0  0
  -25.9270  -30.8170   21.4010 C   0  0  0  0  0  2  0  0  0  0  0  0
  -26.0150  -29.4350   20.7680 C   0  0  0  0  0  0  0  0  0  0  0  0
  -27.2120  -28.6700   20.7640 C   0  0  0  0  0  3  0  0  0  0  0  0
  -26.0790  -26.8720   19.5950 C   0  0  0  0  0  3  0  0  0  0  0  0
  -24.8870  -27.6340   19.5930 C   0  0  0  0  0  3  0  0  0  0  0  0
  -23.6110  -29.7730   20.2250 C   0  0  0  0  0  2  0  0  0  0  0  0
  -24.6620  -31.0740   22.1370 N   0  0  0  0  0  0  0  0  0  0  0  0
  -23.5290  -32.1510   23.7860 O   0  0  0  0  0  0  0  0  0  0  0  0
  -22.7410  -29.4640   22.5700 C   0  0  0  0  0  0  0  0  0  0  0  0
  -21.4170  -29.2840   22.4440 N   0  0  0  0  0  0  0  0  0  0  0  0
  -23.4240  -28.8420   23.3870 O   0  0  0  0  0  0  0  0  0  0  0  0
  -20.9290  -29.8360   21.7540 H   0  0  0  0  0  0  0  0  0  0  0  0
  -18.0450  -28.0780   22.9460 C   0  0  0  0  0  0  0  0  0  0  0  0
  -20.6020  -28.3460   23.2180 C   0  0  0  0  0  3  0  0  0  0  0  0
  -20.7090  -26.9150   22.6460 C   0  0  0  0  0  2  0  0  0  0  0  0
  -19.6110  -26.5860   21.6290 C   0  0  0  0  0  2  0  0  0  0  0  0
  -18.2270  -26.7280   22.2720 C   0  0  0  0  0  2  0  0  0  0  0  0
  -19.1620  -28.8450   23.3740 C   0  0  0  0  0  0  0  0  0  0  0  0
  -18.9390  -30.1080   23.9630 C   0  0  0  0  0  3  0  0  0  0  0  0
  -17.6330  -30.6070   24.1270 C   0  0  0  0  0  3  0  0  0  0  0  0
  -16.5320  -29.8380   23.7140 C   0  0  0  0  0  3  0  0  0  0  0  0
  -16.7380  -28.5760   23.1300 C   0  0  0  0  0  3  0  0  0  0  0  0
  -25.8960  -32.5050   23.8610 C   0  0  0  0  0  3  0  0  0  0  0  0
  -26.4180  -31.7340   25.1370 C   0  0  1  0  0  0  0  0  0  0  0  0
  -25.3310  -31.5010   26.2120 C   0  0  0  0  0  1  0  0  0  0  0  0
  -26.9950  -30.3540   24.7460 C   0  0  0  0  0  1  0  0  0  0  0  0
  -27.5750  -32.5250   25.7910 C   0  0  0  0  0  1  0  0  0  0  0  0
  -25.5900  -33.9040   24.1910 N   0  0  0  0  0  0  0  0  0  0  0  0
  -25.9240  -34.9570   23.4320 C   0  0  0  0  0  0  0  0  0  0  0  0
  -26.5910  -34.8520   22.3990 O   0  0  0  0  0  0  0  0  0  0  0  0
  -24.9960  -34.0570   24.9930 H   0  0  0  0  0  0  0  0  0  0  0  0
  -24.1980  -36.7540   23.0810 C   0  0  0  0  0  1  0  0  0  0  0  0
  -25.4400  -36.3460   23.8900 C   0  0  0  0  0  3  0  0  0  0  0  0
  -27.5810  -37.2270   24.7120 C   0  0  0  0  0  1  0  0  0  0  0  0
  -26.4730  -37.3990   23.7750 N   0  0  0  0  0  0  0  0  0  0  0  0
  -26.0690  -38.3180   23.9280 H   0  0  0  0  0  0  0  0  0  0  0  0
  1 49  1  0
  1  3  1  0
  1  4  1  0
  2  1  1  0
  4 13  1  0
  5 19  1  0
  6 11  1  0
  7  8  1  0
  7  6  1  0
  9  8  1  0
  9 24  1  0
  9 10  1  0
 11  5  1  0
 11 10  1  0
 12  5  2  0
 13 18  1  0
 13 20  2  0
 14 16  1  0
 15 18  1  0
 17 15  1  0
 17 19  1  0
 18 14  1  0
 19 16  1  0
 21 22  2  0
 22 41  1  0
 23 22  1  0
 23 26  1  0
 24 21  1  0
 24 25  1  0
 25 23  2  0
 26 27  1  0
 27 28  2  0
 29 32  1  0
 29 28  1  0
 30 29  2  0
 31 30  1  0
 31 26  2  0
 32 33  1  0
 33 34  1  0
 34 35  2  0
 36 35  1  0
 36 40  1  0
 37 36  2  0
 38 33  2  0
 38 37  1  0
 39 38  1  0
 41 42  1  0
 42 45  1  0
 42 44  1  0
 43 41  2  0
 46 47  1  0
 46 21  1  0
 48 46  1  0
 50 51  1  0
 50 49  1  0
 52 63  2  0
 53 51  1  0
 53 58  1  0
 54 62  1  0
 54 64  1  0
 55 61  1  0
 55 57  1  0
 56 62  1  0
 57 56  1  0
 58 57  2  0
 59 53  2  0
 60 59  1  0
 60 55  2  0
 61 54  1  0
 62 52  1  0
 64 66  2  0
 65 64  1  0
 67 65  1  0
 68 77  2  0
 68 73  1  0
 69 65  1  0
 69 73  1  0
 70 69  1  0
 71 72  1  0
 71 70  1  0
 72 68  1  0
 73 74  2  0
 74 75  1  0
 76 75  2  0
 77 76  1  0
 78 52  1  0
 78 83  1  0
 78 79  1  0
 79 82  1  1
 79 80  1  0
 81 79  1  0
 83 86  1  0
 84 88  1  0
 84 83  1  0
 85 84  2  0
 88 87  1  0
 90 88  1  0
 90 91  1  0
 90 89  1  0
M  ISO  4   5 100  19 100  50 101  51 101
M  END
>  <TORSDO>  (75) 
F 19

>  <SCORE>  (75) 
-14.429

>  <name>  (75) 
75

>  <ligand_id>  (75) 
75

>  <original_smiles>  (75) 
[H]c1c([H])c([H])c2c(c1[H])C([H])([H])C([H])([H])C([H])([H])C2([H])N([H])C(=O)C1([H])N(C(=O)C([H])(N([H])C(=O)C([H])(N([H])C([H])([H])[H])C([H])([H])[H])C(C([H])([H])[H])(C([H])([H])[H])C([H])([H])[H])C([H])([H])c2c([H])c(OC([H])([H])C([H])([H])[N+]([H])([H])C([H])([H])C(=O)N3C([H])([H])C([H])([H])N(C(=O)N4C([H])([H])C([H])([H])C([H])([H])C([H])(n5nc(-c6c([H])c([H])c(Oc7c([H])c([H])c(F)c([H])c7F)c([H])c6[H])c(C(=O)N([H])[H])c5N([H])[H])C4([H])[H])C([H])([H])C3([H])[H])c([H])c([H])c2C1([H])[H]

>  <smiles>  (75) 
[H]c1c([H])c([H])c2c(c1[H])C([H])([H])C([H])([H])C([H])([H])C2([H])N([H])C(=O)C1([H])N(C(=O)C([H])(N([H])C(=O)C([H])(N([H])C([H])([H])[H])C([H])([H])[H])C(C([H])([H])[H])(C([H])([H])[H])C([H])([H])[H])C([H])([H])c2c([H])c(OC([H])([H])C([H])([H])[N+]([H])([H])C([H])([H])C(=O)N3C([H])([H])C([H])([H])N(C(=O)N4C([H])([H])C([H])([H])C([H])([H])C([H])(n5nc(-c6c([H])c([H])c(Oc7c([H])c([H])c(F)c([H])c7F)c([H])c6[H])c(C(=O)N([H])[H])c5N([H])[H])C4([H])[H])C([H])([H])C3([H])[H])c([H])c([H])c2C1([H])[H]

$$$$
76:0:0
     RDKit          3D

 93102  0  0  1  0  0  0  0  0999 V2000
  -31.2320  -21.6820   22.1720 C   0  0  0  0  0  2  0  0  0  0  0  0
  -31.2470  -23.1360   21.6810 C   0  0  0  0  0  2  0  0  0  0  0  0
  -29.1970  -22.2550   20.9520 C   0  0  0  0  0  2  0  0  0  0  0  0
  -29.8600  -21.1090   21.7580 C   0  0  0  0  0  3  0  0  0  0  0  0
  -29.8400  -23.5040   21.4260 N   0  0  2  0  0  4  0  0  0  0  0  0
  -29.4480  -23.7150   22.3360 H   0  0  0  0  0  0  0  0  0  0  0  0
  -29.9890  -19.7510   21.0360 C   0  0  0  0  0  0  0  0  0  0  0  0
  -29.3170  -17.6370   22.0730 C   0  0  0  0  0  2  0  0  0  0  0  0
  -31.2550  -17.6160   21.3270 C   0  0  0  0  0  2  0  0  0  0  0  0
  -30.0030  -16.7960   20.9910 C   0  0  0  0  0  3  0  0  0  0  0  0
  -30.3490  -18.6560   21.8440 N   0  0  0  0  0  0  0  0  0  0  0  0
  -29.8770  -19.6570   19.8140 O   0  0  0  0  0  0  0  0  0  0  0  0
  -30.7040  -14.4320   20.6130 C   0  0  0  0  0  0  0  0  0  0  0  0
  -30.4320  -12.2870   19.4290 C   0  0  0  0  0  2  0  0  0  0  0  0
  -29.5050  -12.5090   18.2170 C   0  0  0  0  0  2  0  0  0  0  0  0
  -28.0210  -12.3710   18.6220 C   0  0  0  0  0  2  0  0  0  0  0  0
  -27.6690  -13.1980   19.8870 C   0  0  0  0  0  3  0  0  0  0  0  0
  -28.7060  -12.9440   21.0060 C   0  0  0  0  0  2  0  0  0  0  0  0
  -30.0510  -13.2470   20.4730 N   0  0  0  0  0  0  0  0  0  0  0  0
  -31.7720  -14.6920   20.0540 O   0  0  0  0  0  0  0  0  0  0  0  0
  -30.0170  -15.3610   21.2940 N   0  0  0  0  0  0  0  0  0  0  0  0
  -29.2020  -15.0070   21.7720 H   0  0  0  0  0  0  0  0  0  0  0  0
  -25.2630  -13.8140   20.5690 C   0  0  0  0  0  0  0  0  0  0  0  0
  -24.1860  -13.0430   20.9160 C   0  0  0  0  0  0  0  0  0  0  0  0
  -24.6390  -11.6900   20.8690 C   0  0  0  0  0  0  0  0  0  0  0  0
  -26.3070  -12.9290   20.3400 N   0  0  0  0  0  0  0  0  0  0  0  0
  -25.9320  -11.6460   20.5760 N   0  0  0  0  0  0  0  0  0  0  0  0
  -23.9020  -10.4300   21.0340 C   0  0  0  0  0  0  0  0  0  0  0  0
  -24.3580   -9.4220   21.9110 C   0  0  0  0  0  3  0  0  0  0  0  0
  -23.6290   -8.2230   22.0690 C   0  0  0  0  0  3  0  0  0  0  0  0
  -22.4280   -8.0240   21.3490 C   0  0  0  0  0  0  0  0  0  0  0  0
  -21.9890   -9.0210   20.4570 C   0  0  0  0  0  3  0  0  0  0  0  0
  -22.7190  -10.2110   20.2990 C   0  0  0  0  0  3  0  0  0  0  0  0
  -21.6640   -6.8850   21.4210 O   0  0  0  0  0  0  0  0  0  0  0  0
  -21.6860   -6.0710   22.5250 C   0  0  0  0  0  0  0  0  0  0  0  0
  -21.4020   -6.5620   23.8190 C   0  0  0  0  0  3  0  0  0  0  0  0
  -21.3680   -5.6760   24.9160 C   0  0  0  0  0  3  0  0  0  0  0  0
  -21.6050   -4.3020   24.7200 C   0  0  0  0  0  0  0  0  0  0  0  0
  -21.8830   -3.8120   23.4320 C   0  0  0  0  0  3  0  0  0  0  0  0
  -21.9210   -4.6940   22.3380 C   0  0  0  0  0  0  0  0  0  0  0  0
  -22.1660   -4.2130   21.0960 F   0  0  0  0  0  0  0  0  0  0  0  0
  -21.5650   -3.4500   25.7710 F   0  0  0  0  0  0  0  0  0  0  0  0
  -22.7870  -13.5210   21.1860 C   0  0  0  0  0  0  0  0  0  0  0  0
  -22.0520  -12.8200   22.0430 N   0  0  0  0  0  0  0  0  0  0  0  0
  -22.3550  -14.5520   20.6740 O   0  0  0  0  0  0  0  0  0  0  0  0
  -22.4150  -11.9880   22.4830 H   0  0  0  0  0  0  0  0  0  0  0  0
  -21.1100  -13.1130   22.2600 H   0  0  0  0  0  0  0  0  0  0  0  0
  -25.4420  -15.1850   20.4160 N   0  0  0  0  0  0  0  0  0  0  0  0
  -24.6880  -15.8500   20.5340 H   0  0  0  0  0  0  0  0  0  0  0  0
  -26.3010  -15.6210   20.1030 H   0  0  0  0  0  0  0  0  0  0  0  0
  -29.6930  -24.7180   20.5690 C   0  0  0  0  0  2  0  0  0  0  0  0
  -28.2950  -25.3710   20.6060 C   0  0  0  0  0  2  0  0  0  0  0  0
  -28.3930  -26.7080   20.0920 O   0  0  0  0  0  0  0  0  0  0  0  0
  -24.6140  -31.8690   23.2100 C   0  0  0  0  0  0  0  0  0  0  0  0
  -27.2290  -27.4390   20.1020 C   0  0  0  0  0  0  0  0  0  0  0  0
  -23.4010  -30.4930   21.5520 C   0  0  0  0  0  3  0  0  0  0  0  0
  -24.8450  -28.9580   20.1200 C   0  0  0  0  0  0  0  0  0  0  0  0
  -25.9290  -30.8380   21.3620 C   0  0  0  0  0  2  0  0  0  0  0  0
  -26.0070  -29.4720   20.7140 C   0  0  0  0  0  0  0  0  0  0  0  0
  -27.2030  -28.7210   20.6970 C   0  0  0  0  0  3  0  0  0  0  0  0
  -26.0520  -26.9390   19.4990 C   0  0  0  0  0  3  0  0  0  0  0  0
  -24.8640  -27.6930   19.5080 C   0  0  0  0  0  3  0  0  0  0  0  0
  -23.6100  -29.8280   20.1660 C   0  0  0  0  0  2  0  0  0  0  0  0
  -24.6670  -31.0810   22.1000 N   0  0  0  0  0  0  0  0  0  0  0  0
  -23.5340  -32.1430   23.7530 O   0  0  0  0  0  0  0  0  0  0  0  0
  -22.7400  -29.4660   22.4980 C   0  0  0  0  0  0  0  0  0  0  0  0
  -21.4130  -29.3020   22.3730 N   0  0  0  0  0  0  0  0  0  0  0  0
  -23.4180  -28.8190   23.3000 O   0  0  0  0  0  0  0  0  0  0  0  0
  -20.9270  -29.8750   21.6980 H   0  0  0  0  0  0  0  0  0  0  0  0
  -18.0270  -28.1370   22.8490 C   0  0  0  0  0  0  0  0  0  0  0  0
  -20.5870  -28.3650   23.1320 C   0  0  0  0  0  3  0  0  0  0  0  0
  -20.6770  -26.9390   22.5420 C   0  0  0  0  0  2  0  0  0  0  0  0
  -19.5750  -26.6380   21.5210 C   0  0  0  0  0  2  0  0  0  0  0  0
  -18.1930  -26.7920   22.1620 C   0  0  0  0  0  2  0  0  0  0  0  0
  -19.1520  -28.8820   23.2910 C   0  0  0  0  0  0  0  0  0  0  0  0
  -18.9440  -30.1430   23.8940 C   0  0  0  0  0  3  0  0  0  0  0  0
  -17.6450  -30.6580   24.0550 C   0  0  0  0  0  3  0  0  0  0  0  0
  -16.5330  -29.9090   23.6310 C   0  0  0  0  0  3  0  0  0  0  0  0
  -16.7260  -28.6490   23.0350 C   0  0  0  0  0  3  0  0  0  0  0  0
  -25.9030  -32.4830   23.8390 C   0  0  0  0  0  3  0  0  0  0  0  0
  -26.4470  -31.6600   25.0720 C   0  0  1  0  0  0  0  0  0  0  0  0
  -25.3730  -31.3710   26.1470 C   0  0  0  0  0  1  0  0  0  0  0  0
  -27.0310  -30.3050   24.6080 C   0  0  0  0  0  1  0  0  0  0  0  0
  -27.6080  -32.4300   25.7470 C   0  0  0  0  0  1  0  0  0  0  0  0
  -25.5890  -33.8630   24.2330 N   0  0  0  0  0  0  0  0  0  0  0  0
  -25.9040  -34.9480   23.5130 C   0  0  0  0  0  0  0  0  0  0  0  0
  -26.5590  -34.8920   22.4680 O   0  0  0  0  0  0  0  0  0  0  0  0
  -25.0030  -33.9780   25.0460 H   0  0  0  0  0  0  0  0  0  0  0  0
  -24.1480  -36.7320   23.2640 C   0  0  0  0  0  1  0  0  0  0  0  0
  -25.4100  -36.3110   24.0340 C   0  0  0  0  0  3  0  0  0  0  0  0
  -27.5580  -37.1800   24.8450 C   0  0  0  0  0  1  0  0  0  0  0  0
  -26.4270  -37.3800   23.9430 N   0  0  0  0  0  0  0  0  0  0  0  0
  -26.0170  -38.2860   24.1480 H   0  0  0  0  0  0  0  0  0  0  0  0
  2  1  1  0
  3  5  1  0
  3  4  1  0
  4  7  1  0
  4  1  1  0
  5  2  1  0
  5  6  1  1
  7 11  1  0
  9 11  1  0
 10 21  1  0
 10  9  1  0
 10  8  1  0
 11  8  1  0
 12  7  2  0
 13 21  1  0
 14 19  1  0
 15 16  1  0
 15 14  1  0
 17 16  1  0
 17 26  1  0
 17 18  1  0
 19 13  1  0
 19 18  1  0
 20 13  2  0
 21 22  1  0
 23 24  2  0
 24 43  1  0
 25 24  1  0
 25 28  1  0
 26 23  1  0
 26 27  1  0
 27 25  2  0
 28 29  1  0
 29 30  2  0
 31 34  1  0
 31 30  1  0
 32 31  2  0
 33 32  1  0
 33 28  2  0
 34 35  1  0
 35 36  1  0
 36 37  2  0
 38 37  1  0
 38 42  1  0
 39 38  2  0
 40 35  2  0
 40 39  1  0
 41 40  1  0
 43 44  1  0
 44 47  1  0
 44 46  1  0
 45 43  2  0
 48 49  1  0
 48 23  1  0
 50 48  1  0
 51 52  1  0
 51  5  1  0
 53 55  1  0
 53 52  1  0
 54 65  2  0
 55 60  1  0
 56 64  1  0
 56 66  1  0
 57 63  1  0
 57 59  1  0
 58 64  1  0
 59 58  1  0
 60 59  2  0
 61 62  1  0
 61 55  2  0
 62 57  2  0
 63 56  1  0
 64 54  1  0
 66 68  2  0
 67 66  1  0
 69 67  1  0
 70 79  2  0
 70 75  1  0
 71 67  1  0
 71 75  1  0
 72 71  1  0
 73 74  1  0
 73 72  1  0
 74 70  1  0
 75 76  2  0
 76 77  1  0
 78 77  2  0
 79 78  1  0
 80 54  1  0
 80 85  1  0
 80 81  1  0
 81 84  1  1
 81 82  1  0
 83 81  1  0
 85 88  1  0
 86 90  1  0
 86 85  1  0
 87 86  2  0
 90 89  1  0
 92 90  1  0
 92 93  1  0
 92 91  1  0
M  ISO  4  13 100  21 100  52 101  53 101
M  END
>  <TORSDO>  (76) 
F 19

>  <SCORE>  (76) 
-12.860

>  <name>  (76) 
76

>  <ligand_id>  (76) 
76

>  <original_smiles>  (76) 
[H]c1c([H])c([H])c2c(c1[H])C([H])([H])C([H])([H])C([H])([H])C2([H])N([H])C(=O)C1([H])N(C(=O)C([H])(N([H])C(=O)C([H])(N([H])C([H])([H])[H])C([H])([H])[H])C(C([H])([H])[H])(C([H])([H])[H])C([H])([H])[H])C([H])([H])c2c([H])c(OC([H])([H])C([H])([H])[N+]3([H])C([H])([H])C([H])([H])C([H])(C(=O)N4C([H])([H])C([H])(N([H])C(=O)N5C([H])([H])C([H])([H])C([H])([H])C([H])(n6nc(-c7c([H])c([H])c(Oc8c([H])c([H])c(F)c([H])c8F)c([H])c7[H])c(C(=O)N([H])[H])c6N([H])[H])C5([H])[H])C4([H])[H])C3([H])[H])c([H])c([H])c2C1([H])[H]

>  <smiles>  (76) 
[H]c1c([H])c([H])c2c(c1[H])C([H])([H])C([H])([H])C([H])([H])C2([H])N([H])C(=O)C1([H])N(C(=O)C([H])(N([H])C(=O)C([H])(N([H])C([H])([H])[H])C([H])([H])[H])C(C([H])([H])[H])(C([H])([H])[H])C([H])([H])[H])C([H])([H])c2c([H])c(OC([H])([H])C([H])([H])[N+]3([H])C([H])([H])C([H])([H])C([H])(C(=O)N4C([H])([H])C([H])(N([H])C(=O)N5C([H])([H])C([H])([H])C([H])([H])C([H])(n6nc(-c7c([H])c([H])c(Oc8c([H])c([H])c(F)c([H])c8F)c([H])c7[H])c(C(=O)N([H])[H])c6N([H])[H])C5([H])[H])C4([H])[H])C3([H])[H])c([H])c([H])c2C1([H])[H]

$$$$
77:0:0
     RDKit          3D

 96106  0  0  1  0  0  0  0  0999 V2000
  -30.6920  -14.5180   20.5990 C   0  0  0  0  0  0  0  0  0  0  0  0
  -30.4240  -12.3500   19.4170 C   0  0  0  0  0  2  0  0  0  0  0  0
  -29.4860  -12.5080   18.2010 C   0  0  0  0  0  2  0  0  0  0  0  0
  -28.0110  -12.3280   18.6160 C   0  0  0  0  0  2  0  0  0  0  0  0
  -27.6530  -13.1660   19.8660 C   0  0  0  0  0  3  0  0  0  0  0  0
  -28.7060  -12.9490   20.9870 C   0  0  0  0  0  2  0  0  0  0  0  0
  -30.0110  -13.3370   20.4390 N   0  0  0  0  0  0  0  0  0  0  0  0
  -31.8300  -14.6300   20.1270 O   0  0  0  0  0  0  0  0  0  0  0  0
  -27.4570  -21.2150   20.4550 C   0  0  0  0  0  0  0  0  0  0  0  0
  -28.4810  -22.1960   20.4150 C   0  0  0  0  0  0  0  0  0  0  0  0
  -29.0000  -19.6950   21.1990 C   0  0  0  0  0  0  0  0  0  0  0  0
  -30.5030  -17.9720   22.2910 C   0  0  0  0  0  2  0  0  0  0  0  0
  -28.2860  -17.3390   21.6750 C   0  0  0  0  0  2  0  0  0  0  0  0
  -31.0670  -16.5980   21.8310 C   0  0  0  0  0  2  0  0  0  0  0  0
  -28.7510  -16.0490   20.9920 C   0  0  0  0  0  2  0  0  0  0  0  0
  -27.7390  -19.9530   20.8480 N   0  0  0  0  0  0  0  0  0  0  0  0
  -29.7420  -21.8540   20.7880 N   0  0  0  0  0  0  0  0  0  0  0  0
  -30.0010  -20.5940   21.1870 N   0  0  0  0  0  0  0  0  0  0  0  0
  -29.2960  -18.3770   21.5790 N   0  0  0  0  0  0  0  0  0  0  0  0
  -30.1280  -15.5740   21.2830 N   0  0  0  0  0  0  0  0  0  0  0  0
  -28.2190  -23.5140   20.0040 N   0  0  0  0  0  0  0  0  0  0  0  0
  -27.2760  -23.7390   19.7110 H   0  0  0  0  0  0  0  0  0  0  0  0
  -25.2560  -13.8040   20.5630 C   0  0  0  0  0  0  0  0  0  0  0  0
  -24.1800  -13.0380   20.9190 C   0  0  0  0  0  0  0  0  0  0  0  0
  -24.6310  -11.6830   20.8760 C   0  0  0  0  0  0  0  0  0  0  0  0
  -26.2960  -12.9130   20.3320 N   0  0  0  0  0  0  0  0  0  0  0  0
  -25.9210  -11.6330   20.5770 N   0  0  0  0  0  0  0  0  0  0  0  0
  -23.8970  -10.4250   21.0440 C   0  0  0  0  0  0  0  0  0  0  0  0
  -24.3540   -9.4180   21.9200 C   0  0  0  0  0  3  0  0  0  0  0  0
  -23.6240   -8.2200   22.0760 C   0  0  0  0  0  3  0  0  0  0  0  0
  -22.4230   -8.0230   21.3540 C   0  0  0  0  0  0  0  0  0  0  0  0
  -21.9850   -9.0210   20.4660 C   0  0  0  0  0  3  0  0  0  0  0  0
  -22.7150  -10.2100   20.3080 C   0  0  0  0  0  3  0  0  0  0  0  0
  -21.6610   -6.8830   21.4220 O   0  0  0  0  0  0  0  0  0  0  0  0
  -21.6840   -6.0690   22.5260 C   0  0  0  0  0  0  0  0  0  0  0  0
  -21.4010   -6.5610   23.8190 C   0  0  0  0  0  3  0  0  0  0  0  0
  -21.3670   -5.6770   24.9150 C   0  0  0  0  0  3  0  0  0  0  0  0
  -21.6050   -4.3030   24.7220 C   0  0  0  0  0  0  0  0  0  0  0  0
  -21.8820   -3.8120   23.4340 C   0  0  0  0  0  3  0  0  0  0  0  0
  -21.9190   -4.6920   22.3390 C   0  0  0  0  0  0  0  0  0  0  0  0
  -22.1660   -4.2110   21.0970 F   0  0  0  0  0  0  0  0  0  0  0  0
  -21.5640   -3.4520   25.7740 F   0  0  0  0  0  0  0  0  0  0  0  0
  -22.7850  -13.5230   21.1850 C   0  0  0  0  0  0  0  0  0  0  0  0
  -22.0470  -12.8250   22.0410 N   0  0  0  0  0  0  0  0  0  0  0  0
  -22.3560  -14.5550   20.6690 O   0  0  0  0  0  0  0  0  0  0  0  0
  -22.4060  -11.9900   22.4790 H   0  0  0  0  0  0  0  0  0  0  0  0
  -21.1100  -13.1330   22.2630 H   0  0  0  0  0  0  0  0  0  0  0  0
  -25.4240  -15.1730   20.3900 N   0  0  0  0  0  0  0  0  0  0  0  0
  -24.6460  -15.8170   20.4890 H   0  0  0  0  0  0  0  0  0  0  0  0
  -26.2460  -15.6030   19.9900 H   0  0  0  0  0  0  0  0  0  0  0  0
  -25.2000  -22.6050   20.5270 C   0  0  0  0  0  2  0  0  0  0  0  0
  -24.9020  -21.2130   21.0200 C   0  0  0  0  0  2  0  0  0  0  0  0
  -26.0300  -21.4380   20.0350 C   0  0  0  0  0  3  0  0  0  0  0  0
  -29.2850  -24.4520   19.6540 C   0  0  0  0  0  2  0  0  0  0  0  0
  -28.7500  -25.7850   19.0710 C   0  0  0  0  0  2  0  0  0  0  0  0
  -28.4330  -26.7300   20.1020 O   0  0  0  0  0  0  0  0  0  0  0  0
  -24.6140  -31.8670   23.2100 C   0  0  0  0  0  0  0  0  0  0  0  0
  -27.2450  -27.4370   20.0750 C   0  0  0  0  0  0  0  0  0  0  0  0
  -23.4040  -30.4910   21.5490 C   0  0  0  0  0  3  0  0  0  0  0  0
  -24.8500  -28.9570   20.1110 C   0  0  0  0  0  0  0  0  0  0  0  0
  -25.9330  -30.8300   21.3650 C   0  0  0  0  0  2  0  0  0  0  0  0
  -26.0080  -29.4640   20.7110 C   0  0  0  0  0  0  0  0  0  0  0  0
  -27.2010  -28.7050   20.7010 C   0  0  0  0  0  3  0  0  0  0  0  0
  -26.0570  -26.9330   19.4950 C   0  0  0  0  0  3  0  0  0  0  0  0
  -24.8680  -27.6880   19.5080 C   0  0  0  0  0  3  0  0  0  0  0  0
  -23.6140  -29.8280   20.1610 C   0  0  0  0  0  2  0  0  0  0  0  0
  -24.6690  -31.0760   22.1010 N   0  0  0  0  0  0  0  0  0  0  0  0
  -23.5330  -32.1440   23.7480 O   0  0  0  0  0  0  0  0  0  0  0  0
  -22.7420  -29.4650   22.4960 C   0  0  0  0  0  0  0  0  0  0  0  0
  -21.4140  -29.3030   22.3690 N   0  0  0  0  0  0  0  0  0  0  0  0
  -23.4180  -28.8190   23.3000 O   0  0  0  0  0  0  0  0  0  0  0  0
  -20.9310  -29.8750   21.6910 H   0  0  0  0  0  0  0  0  0  0  0  0
  -18.0280  -28.1380   22.8480 C   0  0  0  0  0  0  0  0  0  0  0  0
  -20.5860  -28.3680   23.1300 C   0  0  0  0  0  3  0  0  0  0  0  0
  -20.6770  -26.9410   22.5420 C   0  0  0  0  0  2  0  0  0  0  0  0
  -19.5750  -26.6380   21.5210 C   0  0  0  0  0  2  0  0  0  0  0  0
  -18.1920  -26.7920   22.1610 C   0  0  0  0  0  2  0  0  0  0  0  0
  -19.1520  -28.8840   23.2880 C   0  0  0  0  0  0  0  0  0  0  0  0
  -18.9460  -30.1440   23.8920 C   0  0  0  0  0  3  0  0  0  0  0  0
  -17.6460  -30.6580   24.0560 C   0  0  0  0  0  3  0  0  0  0  0  0
  -16.5350  -29.9090   23.6310 C   0  0  0  0  0  3  0  0  0  0  0  0
  -16.7270  -28.6510   23.0340 C   0  0  0  0  0  3  0  0  0  0  0  0
  -25.9030  -32.4830   23.8400 C   0  0  0  0  0  3  0  0  0  0  0  0
  -25.5890  -33.8620   24.2330 N   0  0  0  0  0  0  0  0  0  0  0  0
  -25.9040  -34.9480   23.5140 C   0  0  0  0  0  0  0  0  0  0  0  0
  -26.5600  -34.8930   22.4710 O   0  0  0  0  0  0  0  0  0  0  0  0
  -25.0000  -33.9790   25.0450 H   0  0  0  0  0  0  0  0  0  0  0  0
  -24.1490  -36.7340   23.2640 C   0  0  0  0  0  1  0  0  0  0  0  0
  -25.4110  -36.3130   24.0340 C   0  0  0  0  0  3  0  0  0  0  0  0
  -27.5590  -37.1830   24.8460 C   0  0  0  0  0  1  0  0  0  0  0  0
  -26.4300  -37.3800   23.9400 N   0  0  0  0  0  0  0  0  0  0  0  0
  -26.0190  -38.2890   24.1390 H   0  0  0  0  0  0  0  0  0  0  0  0
  -26.4450  -31.6600   25.0730 C   0  0  1  0  0  0  0  0  0  0  0  0
  -25.3720  -31.3710   26.1480 C   0  0  0  0  0  1  0  0  0  0  0  0
  -27.0260  -30.3040   24.6100 C   0  0  0  0  0  1  0  0  0  0  0  0
  -27.6050  -32.4300   25.7490 C   0  0  0  0  0  1  0  0  0  0  0  0
  1 20  1  0
  2  7  1  0
  3  4  1  0
  3  2  1  0
  5  4  1  0
  5 26  1  0
  5  6  1  0
  7  1  1  0
  7  6  1  0
  8  1  2  0
  9 16  1  0
 10  9  2  0
 10 17  1  0
 11 19  1  0
 14 12  1  0
 15 20  1  0
 15 13  1  0
 16 11  2  0
 17 18  2  0
 18 11  1  0
 19 13  1  0
 19 12  1  0
 20 14  1  0
 21 10  1  0
 22 21  1  0
 23 24  2  0
 24 43  1  0
 25 24  1  0
 25 28  1  0
 26 23  1  0
 26 27  1  0
 27 25  2  0
 28 29  1  0
 29 30  2  0
 31 34  1  0
 31 30  1  0
 32 31  2  0
 33 32  1  0
 33 28  2  0
 34 35  1  0
 35 36  1  0
 36 37  2  0
 38 37  1  0
 38 42  1  0
 39 38  2  0
 40 35  2  0
 40 39  1  0
 41 40  1  0
 43 44  1  0
 44 47  1  0
 44 46  1  0
 45 43  2  0
 48 49  1  0
 48 23  1  0
 50 48  1  0
 51 52  1  0
 53  9  1  0
 53 51  1  0
 53 52  1  0
 54 21  1  0
 55 54  1  0
 55 56  1  0
 57 68  2  0
 58 56  1  0
 58 63  1  0
 59 67  1  0
 59 69  1  0
 60 66  1  0
 60 62  1  0
 61 67  1  0
 62 61  1  0
 63 62  2  0
 64 65  1  0
 64 58  2  0
 65 60  2  0
 66 59  1  0
 67 57  1  0
 69 71  2  0
 70 69  1  0
 72 70  1  0
 73 82  2  0
 73 78  1  0
 74 70  1  0
 74 78  1  0
 75 74  1  0
 76 77  1  0
 76 75  1  0
 77 73  1  0
 78 79  2  0
 79 80  1  0
 81 80  2  0
 82 81  1  0
 83 57  1  0
 83 84  1  0
 83 93  1  0
 84 87  1  0
 85 89  1  0
 85 84  1  0
 86 85  2  0
 89 88  1  0
 91 89  1  0
 91 92  1  0
 91 90  1  0
 93 96  1  1
 93 94  1  0
 95 93  1  0
M  ISO  4   1 100  20 100  55 101  56 101
M  END
>  <TORSDO>  (77) 
F 18

>  <SCORE>  (77) 
-3.976

>  <name>  (77) 
77

>  <ligand_id>  (77) 
77

>  <original_smiles>  (77) 
[H]c1c([H])c([H])c2c(c1[H])C([H])([H])C([H])([H])C([H])([H])C2([H])N([H])C(=O)C1([H])N(C(=O)C([H])(N([H])C(=O)C([H])(N([H])C([H])([H])[H])C([H])([H])[H])C(C([H])([H])[H])(C([H])([H])[H])C([H])([H])[H])C([H])([H])c2c([H])c(OC([H])([H])C([H])([H])N([H])c3nnc(N4C([H])([H])C([H])([H])N(C(=O)N5C([H])([H])C([H])([H])C([H])([H])C([H])(n6nc(-c7c([H])c([H])c(Oc8c([H])c([H])c(F)c([H])c8F)c([H])c7[H])c(C(=O)N([H])[H])c6N([H])[H])C5([H])[H])C([H])([H])C4([H])[H])nc3C3([H])C([H])([H])C3([H])[H])c([H])c([H])c2C1([H])[H]

>  <smiles>  (77) 
[H]c1c([H])c([H])c2c(c1[H])C([H])([H])C([H])([H])C([H])([H])C2([H])N([H])C(=O)C1([H])N(C(=O)C([H])(N([H])C(=O)C([H])(N([H])C([H])([H])[H])C([H])([H])[H])C(C([H])([H])[H])(C([H])([H])[H])C([H])([H])[H])C([H])([H])c2c([H])c(OC([H])([H])C([H])([H])N([H])c3nnc(N4C([H])([H])C([H])([H])N(C(=O)N5C([H])([H])C([H])([H])C([H])([H])C([H])(n6nc(-c7c([H])c([H])c(Oc8c([H])c([H])c(F)c([H])c8F)c([H])c7[H])c(C(=O)N([H])[H])c6N([H])[H])C5([H])[H])C([H])([H])C4([H])[H])nc3C3([H])C([H])([H])C3([H])[H])c([H])c([H])c2C1([H])[H]

$$$$
78:0:0
     RDKit          3D

 92100  0  0  1  0  0  0  0  0999 V2000
  -29.2420  -21.5390   20.6760 C   0  0  0  0  0  0  0  0  0  0  0  0
  -29.0870  -22.7830   20.1640 N   0  0  0  0  0  0  0  0  0  0  0  0
  -29.2140  -21.3360   21.8920 O   0  0  0  0  0  0  0  0  0  0  0  0
  -29.1100  -22.8810   19.1570 H   0  0  0  0  0  0  0  0  0  0  0  0
  -29.4670  -20.3540   19.7020 C   0  0  0  0  0  2  0  0  0  0  0  0
  -29.3090  -17.9140   20.4180 C   0  0  0  0  0  0  0  0  0  0  0  0
  -31.5280  -17.5280   21.2730 C   0  0  0  0  0  2  0  0  0  0  0  0
  -31.3010  -19.0110   20.8970 C   0  0  0  0  0  2  0  0  0  0  0  0
  -30.1110  -16.9400   21.2820 C   0  0  0  0  0  3  0  0  0  0  0  0
  -29.9540  -19.0940   20.3250 N   0  0  0  0  0  0  0  0  0  0  0  0
  -28.2210  -17.6240   19.9110 O   0  0  0  0  0  0  0  0  0  0  0  0
  -30.6220  -14.5180   20.4770 C   0  0  0  0  0  0  0  0  0  0  0  0
  -30.3540  -12.3550   19.3090 C   0  0  0  0  0  2  0  0  0  0  0  0
  -29.3970  -12.5550   18.1140 C   0  0  0  0  0  2  0  0  0  0  0  0
  -27.9250  -12.4150   18.5520 C   0  0  0  0  0  2  0  0  0  0  0  0
  -27.5980  -13.2400   19.8260 C   0  0  0  0  0  3  0  0  0  0  0  0
  -28.6590  -12.9920   20.9200 C   0  0  0  0  0  2  0  0  0  0  0  0
  -29.9760  -13.3250   20.3470 N   0  0  0  0  0  0  0  0  0  0  0  0
  -31.7270  -14.7280   19.9700 O   0  0  0  0  0  0  0  0  0  0  0  0
  -29.9100  -15.4800   21.0980 N   0  0  0  0  0  0  0  0  0  0  0  0
  -29.0180  -15.1540   21.4400 H   0  0  0  0  0  0  0  0  0  0  0  0
  -25.2030  -13.8560   20.5410 C   0  0  0  0  0  0  0  0  0  0  0  0
  -24.1350  -13.0870   20.9180 C   0  0  0  0  0  0  0  0  0  0  0  0
  -24.5930  -11.7320   20.8860 C   0  0  0  0  0  0  0  0  0  0  0  0
  -26.2460  -12.9700   20.3070 N   0  0  0  0  0  0  0  0  0  0  0  0
  -25.8810  -11.6900   20.5700 N   0  0  0  0  0  0  0  0  0  0  0  0
  -23.8640  -10.4720   21.0790 C   0  0  0  0  0  0  0  0  0  0  0  0
  -24.3150   -9.4930   21.9900 C   0  0  0  0  0  3  0  0  0  0  0  0
  -23.5880   -8.2970   22.1730 C   0  0  0  0  0  3  0  0  0  0  0  0
  -22.3960   -8.0730   21.4450 C   0  0  0  0  0  0  0  0  0  0  0  0
  -21.9620   -9.0430   20.5240 C   0  0  0  0  0  3  0  0  0  0  0  0
  -22.6890  -10.2300   20.3390 C   0  0  0  0  0  3  0  0  0  0  0  0
  -21.6370   -6.9310   21.5390 O   0  0  0  0  0  0  0  0  0  0  0  0
  -21.6320   -6.1630   22.6760 C   0  0  0  0  0  0  0  0  0  0  0  0
  -21.2780   -6.6960   23.9340 C   0  0  0  0  0  3  0  0  0  0  0  0
  -21.2170   -5.8540   25.0630 C   0  0  0  0  0  3  0  0  0  0  0  0
  -21.5000   -4.4810   24.9350 C   0  0  0  0  0  0  0  0  0  0  0  0
  -21.8490   -3.9480   23.6820 C   0  0  0  0  0  3  0  0  0  0  0  0
  -21.9120   -4.7860   22.5550 C   0  0  0  0  0  0  0  0  0  0  0  0
  -22.2270   -4.2620   21.3460 F   0  0  0  0  0  0  0  0  0  0  0  0
  -21.4350   -3.6720   26.0180 F   0  0  0  0  0  0  0  0  0  0  0  0
  -22.7410  -13.5690   21.2010 C   0  0  0  0  0  0  0  0  0  0  0  0
  -22.0170  -12.8750   22.0720 N   0  0  0  0  0  0  0  0  0  0  0  0
  -22.3010  -14.5950   20.6850 O   0  0  0  0  0  0  0  0  0  0  0  0
  -22.3870  -12.0460   22.5140 H   0  0  0  0  0  0  0  0  0  0  0  0
  -21.0810  -13.1760   22.3020 H   0  0  0  0  0  0  0  0  0  0  0  0
  -25.3720  -15.2250   20.3580 N   0  0  0  0  0  0  0  0  0  0  0  0
  -24.6060  -15.8810   20.4600 H   0  0  0  0  0  0  0  0  0  0  0  0
  -26.2210  -15.6630   20.0190 H   0  0  0  0  0  0  0  0  0  0  0  0
  -28.9490  -24.0290   20.9540 C   0  0  0  0  0  2  0  0  0  0  0  0
  -28.2020  -25.2040   20.2110 C   0  0  0  0  0  2  0  0  0  0  0  0
  -28.3750  -26.6470   20.2390 O   0  0  0  0  0  0  0  0  0  0  0  0
  -24.6140  -31.9100   23.2470 C   0  0  0  0  0  0  0  0  0  0  0  0
  -27.2270  -27.4280   20.1710 C   0  0  0  0  0  0  0  0  0  0  0  0
  -23.3990  -30.5180   21.6050 C   0  0  0  0  0  3  0  0  0  0  0  0
  -24.8420  -28.9720   20.1740 C   0  0  0  0  0  0  0  0  0  0  0  0
  -25.9290  -30.8560   21.4050 C   0  0  0  0  0  2  0  0  0  0  0  0
  -26.0070  -29.4850   20.7590 C   0  0  0  0  0  0  0  0  0  0  0  0
  -27.2030  -28.7250   20.7470 C   0  0  0  0  0  3  0  0  0  0  0  0
  -26.0420  -26.9380   19.5740 C   0  0  0  0  0  3  0  0  0  0  0  0
  -24.8580  -27.7000   19.5760 C   0  0  0  0  0  3  0  0  0  0  0  0
  -23.6020  -29.8370   20.2250 C   0  0  0  0  0  2  0  0  0  0  0  0
  -24.6670  -31.1090   22.1430 N   0  0  0  0  0  0  0  0  0  0  0  0
  -23.5350  -32.1880   23.7890 O   0  0  0  0  0  0  0  0  0  0  0  0
  -22.7430  -29.5000   22.5670 C   0  0  0  0  0  0  0  0  0  0  0  0
  -21.4160  -29.3300   22.4460 N   0  0  0  0  0  0  0  0  0  0  0  0
  -23.4260  -28.8670   23.3760 O   0  0  0  0  0  0  0  0  0  0  0  0
  -20.9280  -29.8890   21.7610 H   0  0  0  0  0  0  0  0  0  0  0  0
  -18.0360  -28.1650   22.9540 C   0  0  0  0  0  0  0  0  0  0  0  0
  -20.5960  -28.3970   23.2170 C   0  0  0  0  0  3  0  0  0  0  0  0
  -20.6840  -26.9670   22.6360 C   0  0  0  0  0  2  0  0  0  0  0  0
  -19.5750  -26.6570   21.6250 C   0  0  0  0  0  2  0  0  0  0  0  0
  -18.1970  -26.8160   22.2730 C   0  0  0  0  0  2  0  0  0  0  0  0
  -19.1620  -28.9160   23.3820 C   0  0  0  0  0  0  0  0  0  0  0  0
  -18.9580  -30.1810   23.9740 C   0  0  0  0  0  3  0  0  0  0  0  0
  -17.6570  -30.6930   24.1470 C   0  0  0  0  0  3  0  0  0  0  0  0
  -16.5450  -29.9400   23.7330 C   0  0  0  0  0  3  0  0  0  0  0  0
  -16.7360  -28.6780   23.1410 C   0  0  0  0  0  3  0  0  0  0  0  0
  -25.9050  -32.5310   23.8680 C   0  0  0  0  0  3  0  0  0  0  0  0
  -26.4230  -31.7510   25.1390 C   0  0  1  0  0  0  0  0  0  0  0  0
  -25.3330  -31.5180   26.2100 C   0  0  0  0  0  1  0  0  0  0  0  0
  -26.9920  -30.3720   24.7350 C   0  0  0  0  0  1  0  0  0  0  0  0
  -27.5830  -32.5340   25.7990 C   0  0  0  0  0  1  0  0  0  0  0  0
  -25.6080  -33.9300   24.2030 N   0  0  0  0  0  0  0  0  0  0  0  0
  -25.9500  -34.9800   23.4470 C   0  0  0  0  0  0  0  0  0  0  0  0
  -26.6180  -34.8740   22.4140 O   0  0  0  0  0  0  0  0  0  0  0  0
  -25.0160  -34.0890   25.0060 H   0  0  0  0  0  0  0  0  0  0  0  0
  -24.2290  -36.7790   23.1020 C   0  0  0  0  0  1  0  0  0  0  0  0
  -25.4710  -36.3690   23.9080 C   0  0  0  0  0  3  0  0  0  0  0  0
  -27.6160  -37.2370   24.7310 C   0  0  0  0  0  1  0  0  0  0  0  0
  -26.5090  -37.4160   23.7920 N   0  0  0  0  0  0  0  0  0  0  0  0
  -26.1100  -38.3380   23.9450 H   0  0  0  0  0  0  0  0  0  0  0  0
  1  3  2  0
  2  1  1  0
  2 50  1  0
  4  2  1  0
  5 10  1  0
  5  1  1  0
  6  9  1  0
  7  9  1  0
  8  7  1  0
  9 20  1  0
 10  6  1  0
 10  8  1  0
 11  6  2  0
 12 20  1  0
 13 18  1  0
 14 15  1  0
 14 13  1  0
 16 15  1  0
 16 25  1  0
 16 17  1  0
 18 12  1  0
 18 17  1  0
 19 12  2  0
 20 21  1  0
 22 23  2  0
 23 42  1  0
 24 23  1  0
 24 27  1  0
 25 22  1  0
 25 26  1  0
 26 24  2  0
 27 28  1  0
 28 29  2  0
 30 33  1  0
 30 29  1  0
 31 30  2  0
 32 31  1  0
 32 27  2  0
 33 34  1  0
 34 35  1  0
 35 36  2  0
 37 36  1  0
 37 41  1  0
 38 37  2  0
 39 34  2  0
 39 38  1  0
 40 39  1  0
 42 43  1  0
 43 46  1  0
 43 45  1  0
 44 42  2  0
 47 48  1  0
 47 22  1  0
 49 47  1  0
 51 52  1  0
 51 50  1  0
 53 64  2  0
 54 52  1  0
 54 59  1  0
 55 63  1  0
 55 65  1  0
 56 62  1  0
 56 58  1  0
 57 63  1  0
 58 57  1  0
 59 58  2  0
 60 61  1  0
 60 54  2  0
 61 56  2  0
 62 55  1  0
 63 53  1  0
 65 67  2  0
 66 65  1  0
 68 66  1  0
 69 78  2  0
 69 74  1  0
 70 66  1  0
 70 74  1  0
 71 70  1  0
 72 73  1  0
 72 71  1  0
 73 69  1  0
 74 75  2  0
 75 76  1  0
 77 76  2  0
 78 77  1  0
 79 53  1  0
 79 84  1  0
 79 80  1  0
 80 83  1  1
 80 81  1  0
 82 80  1  0
 84 87  1  0
 85 89  1  0
 85 84  1  0
 86 85  2  0
 89 88  1  0
 91 89  1  0
 91 92  1  0
 91 90  1  0
M  ISO  4  12 100  20 100  51 101  52 101
M  END
>  <TORSDO>  (78) 
F 20

>  <SCORE>  (78) 
-14.169

>  <name>  (78) 
78

>  <ligand_id>  (78) 
78

>  <original_smiles>  (78) 
[H]c1c([H])c([H])c2c(c1[H])C([H])([H])C([H])([H])C([H])([H])C2([H])N([H])C(=O)C1([H])N(C(=O)C([H])(N([H])C(=O)C([H])(N([H])C([H])([H])[H])C([H])([H])[H])C(C([H])([H])[H])(C([H])([H])[H])C([H])([H])[H])C([H])([H])c2c([H])c(OC([H])([H])C([H])([H])N([H])C(=O)C([H])([H])N3C(=O)C([H])(N([H])C(=O)N4C([H])([H])C([H])([H])C([H])([H])C([H])(n5nc(-c6c([H])c([H])c(Oc7c([H])c([H])c(F)c([H])c7F)c([H])c6[H])c(C(=O)N([H])[H])c5N([H])[H])C4([H])[H])C([H])([H])C3([H])[H])c([H])c([H])c2C1([H])[H]

>  <smiles>  (78) 
[H]c1c([H])c([H])c2c(c1[H])C([H])([H])C([H])([H])C([H])([H])C2([H])N([H])C(=O)C1([H])N(C(=O)C([H])(N([H])C(=O)C([H])(N([H])C([H])([H])[H])C([H])([H])[H])C(C([H])([H])[H])(C([H])([H])[H])C([H])([H])[H])C([H])([H])c2c([H])c(OC([H])([H])C([H])([H])N([H])C(=O)C([H])([H])N3C(=O)C([H])(N([H])C(=O)N4C([H])([H])C([H])([H])C([H])([H])C([H])(n5nc(-c6c([H])c([H])c(Oc7c([H])c([H])c(F)c([H])c7F)c([H])c6[H])c(C(=O)N([H])[H])c5N([H])[H])C4([H])[H])C([H])([H])C3([H])[H])c([H])c([H])c2C1([H])[H]

$$$$
79:0:0
     RDKit          3D

 92102  0  0  1  0  0  0  0  0999 V2000
  -30.5810  -15.0300   20.3280 C   0  0  0  0  0  0  0  0  0  0  0  0
  -30.3680  -12.6280   19.5460 C   0  0  0  0  0  2  0  0  0  0  0  0
  -29.4610  -12.4590   18.3110 C   0  0  0  0  0  2  0  0  0  0  0  0
  -28.0040  -12.2560   18.7560 C   0  0  0  0  0  2  0  0  0  0  0  0
  -27.5700  -13.2710   19.8480 C   0  0  0  0  0  3  0  0  0  0  0  0
  -28.6190  -13.4470   20.9670 C   0  0  0  0  0  2  0  0  0  0  0  0
  -29.8770  -13.8200   20.3070 N   0  0  0  0  0  0  0  0  0  0  0  0
  -31.7950  -14.9060   20.1340 O   0  0  0  0  0  0  0  0  0  0  0  0
  -30.3710  -22.0080   20.2560 C   0  0  0  0  0  3  0  0  0  0  0  0
  -29.9620  -23.3240   20.0770 C   0  0  0  0  0  0  0  0  0  0  0  0
  -29.2620  -21.1370   20.0100 C   0  0  0  0  0  0  0  0  0  0  0  0
  -30.6810  -18.9720   20.3740 C   0  0  0  0  0  3  0  0  0  0  0  0
  -28.3530  -18.5550   19.9990 C   0  0  0  0  0  3  0  0  0  0  0  0
  -30.8940  -17.5160   19.7390 C   0  0  0  0  0  3  0  0  0  0  0  0
  -28.7090  -17.0280   20.5420 C   0  0  0  0  0  3  0  0  0  0  0  0
  -28.2100  -21.9930   19.7090 N   0  0  0  0  0  0  0  0  0  0  0  0
  -28.6150  -23.3740   19.7430 N   0  0  0  0  0  0  0  0  0  0  0  0
  -29.3870  -19.6420   20.0890 N   0  0  0  0  0  0  0  0  0  0  0  0
  -30.0360  -16.3680   20.2160 N   0  0  0  0  0  0  0  0  0  0  0  0
  -25.2130  -13.8650   20.6310 C   0  0  0  0  0  0  0  0  0  0  0  0
  -24.1420  -13.0990   20.9990 C   0  0  0  0  0  0  0  0  0  0  0  0
  -24.5880  -11.7430   20.9460 C   0  0  0  0  0  0  0  0  0  0  0  0
  -26.2410  -12.9780   20.3690 N   0  0  0  0  0  0  0  0  0  0  0  0
  -25.8770  -11.6940   20.6270 N   0  0  0  0  0  0  0  0  0  0  0  0
  -23.8430  -10.4880   21.1240 C   0  0  0  0  0  0  0  0  0  0  0  0
  -24.2710   -9.4960   22.0330 C   0  0  0  0  0  3  0  0  0  0  0  0
  -23.5250   -8.3090   22.2010 C   0  0  0  0  0  3  0  0  0  0  0  0
  -22.3370   -8.1070   21.4590 C   0  0  0  0  0  0  0  0  0  0  0  0
  -21.9280   -9.0880   20.5390 C   0  0  0  0  0  3  0  0  0  0  0  0
  -22.6740  -10.2650   20.3680 C   0  0  0  0  0  3  0  0  0  0  0  0
  -21.5620   -6.9750   21.5370 O   0  0  0  0  0  0  0  0  0  0  0  0
  -21.5190   -6.2090   22.6740 C   0  0  0  0  0  0  0  0  0  0  0  0
  -21.1380   -6.7500   23.9220 C   0  0  0  0  0  3  0  0  0  0  0  0
  -21.0390   -5.9140   25.0520 C   0  0  0  0  0  3  0  0  0  0  0  0
  -21.3110   -4.5380   24.9360 C   0  0  0  0  0  0  0  0  0  0  0  0
  -21.6860   -3.9960   23.6930 C   0  0  0  0  0  3  0  0  0  0  0  0
  -21.7860   -4.8300   22.5660 C   0  0  0  0  0  0  0  0  0  0  0  0
  -22.1270   -4.2990   21.3670 F   0  0  0  0  0  0  0  0  0  0  0  0
  -21.2100   -3.7330   26.0200 F   0  0  0  0  0  0  0  0  0  0  0  0
  -22.7540  -13.5940   21.2840 C   0  0  0  0  0  0  0  0  0  0  0  0
  -22.0220  -12.9020   22.1490 N   0  0  0  0  0  0  0  0  0  0  0  0
  -22.3290  -14.6290   20.7740 O   0  0  0  0  0  0  0  0  0  0  0  0
  -22.3800  -12.0640   22.5840 H   0  0  0  0  0  0  0  0  0  0  0  0
  -21.0920  -13.2170   22.3820 H   0  0  0  0  0  0  0  0  0  0  0  0
  -25.3890  -15.2350   20.4670 N   0  0  0  0  0  0  0  0  0  0  0  0
  -24.6280  -15.8930   20.5900 H   0  0  0  0  0  0  0  0  0  0  0  0
  -26.2300  -15.6640   20.1050 H   0  0  0  0  0  0  0  0  0  0  0  0
  -32.1120  -24.6090   20.8770 C   0  0  0  0  0  2  0  0  0  0  0  0
  -30.9180  -25.3000   21.5000 C   0  0  0  0  0  2  0  0  0  0  0  0
  -30.7690  -24.5790   20.1820 C   0  0  0  0  0  3  0  0  0  0  0  0
  -27.6740  -24.6060   19.3900 C   0  0  0  0  0  2  0  0  0  0  0  0
  -28.0600  -26.0850   19.5640 O   0  0  0  0  0  0  0  0  0  0  0  0
  -24.4780  -31.6240   22.9350 C   0  0  0  0  0  0  0  0  0  0  0  0
  -27.0090  -27.0890   19.5790 C   0  0  0  0  0  0  0  0  0  0  0  0
  -23.2370  -30.2730   21.2930 C   0  0  0  0  0  3  0  0  0  0  0  0
  -24.6530  -28.8030   19.7320 C   0  0  0  0  0  0  0  0  0  0  0  0
  -25.7780  -30.5990   21.0290 C   0  0  0  0  0  2  0  0  0  0  0  0
  -25.8520  -29.2390   20.3090 C   0  0  0  0  0  0  0  0  0  0  0  0
  -27.0300  -28.3990   20.2180 C   0  0  0  0  0  3  0  0  0  0  0  0
  -25.7770  -26.7740   18.9590 C   0  0  0  0  0  3  0  0  0  0  0  0
  -24.6290  -27.5860   19.0410 C   0  0  0  0  0  3  0  0  0  0  0  0
  -23.4100  -29.6690   19.8760 C   0  0  0  0  0  2  0  0  0  0  0  0
  -24.5200  -30.8520   21.8070 N   0  0  0  0  0  0  0  0  0  0  0  0
  -23.4090  -31.8590   23.5220 O   0  0  0  0  0  0  0  0  0  0  0  0
  -22.6270  -29.2050   22.2360 C   0  0  0  0  0  0  0  0  0  0  0  0
  -21.2970  -29.0080   22.1640 N   0  0  0  0  0  0  0  0  0  0  0  0
  -23.3500  -28.5590   22.9980 O   0  0  0  0  0  0  0  0  0  0  0  0
  -20.7680  -29.5830   21.5240 H   0  0  0  0  0  0  0  0  0  0  0  0
  -17.9760  -27.6780   22.7430 C   0  0  0  0  0  0  0  0  0  0  0  0
  -20.5340  -28.0180   22.9300 C   0  0  0  0  0  3  0  0  0  0  0  0
  -20.6620  -26.6100   22.3050 C   0  0  0  0  0  2  0  0  0  0  0  0
  -19.5350  -26.2830   21.3190 C   0  0  0  0  0  2  0  0  0  0  0  0
  -18.1740  -26.3590   22.0150 C   0  0  0  0  0  2  0  0  0  0  0  0
  -19.0840  -28.4650   23.1590 C   0  0  0  0  0  0  0  0  0  0  0  0
  -18.8430  -29.6970   23.8050 C   0  0  0  0  0  3  0  0  0  0  0  0
  -17.5290  -30.1440   24.0350 C   0  0  0  0  0  3  0  0  0  0  0  0
  -16.4370  -29.3560   23.6330 C   0  0  0  0  0  3  0  0  0  0  0  0
  -16.6620  -28.1250   22.9930 C   0  0  0  0  0  3  0  0  0  0  0  0
  -25.7670  -32.2650   23.5310 C   0  0  0  0  0  3  0  0  0  0  0  0
  -25.4220  -33.6210   23.9860 N   0  0  0  0  0  0  0  0  0  0  0  0
  -25.7070  -34.7480   23.3190 C   0  0  0  0  0  0  0  0  0  0  0  0
  -26.3550  -34.7550   22.2690 O   0  0  0  0  0  0  0  0  0  0  0  0
  -24.8400  -33.6870   24.8080 H   0  0  0  0  0  0  0  0  0  0  0  0
  -23.9210  -36.5150   23.1690 C   0  0  0  0  0  1  0  0  0  0  0  0
  -25.1960  -36.0780   23.9090 C   0  0  0  0  0  3  0  0  0  0  0  0
  -27.3290  -36.9510   24.7560 C   0  0  0  0  0  1  0  0  0  0  0  0
  -26.1950  -37.1670   23.8610 N   0  0  0  0  0  0  0  0  0  0  0  0
  -25.7680  -38.0590   24.1000 H   0  0  0  0  0  0  0  0  0  0  0  0
  -26.3820  -31.4290   24.7200 C   0  0  1  0  0  0  0  0  0  0  0  0
  -25.3630  -31.0860   25.8330 C   0  0  0  0  0  1  0  0  0  0  0  0
  -26.9780  -30.0980   24.2060 C   0  0  0  0  0  1  0  0  0  0  0  0
  -27.5480  -32.2140   25.3650 C   0  0  0  0  0  1  0  0  0  0  0  0
  2  7  1  0
  3  4  1  0
  3  2  1  0
  5  4  1  0
  5 23  1  0
  5  6  1  0
  7  1  1  0
  7  6  1  0
  8  1  2  0
 10 50  1  0
 10  9  2  0
 11 18  1  0
 11  9  1  0
 13 18  1  0
 13 15  2  0
 14 19  1  0
 14 12  2  0
 16 17  1  0
 16 11  2  0
 17 10  1  0
 18 12  1  0
 19  1  1  0
 19 15  1  0
 20 21  2  0
 21 40  1  0
 22 21  1  0
 22 25  1  0
 23 24  1  0
 23 20  1  0
 24 22  2  0
 25 26  1  0
 26 27  2  0
 28 31  1  0
 28 27  1  0
 29 28  2  0
 30 29  1  0
 30 25  2  0
 31 32  1  0
 32 33  1  0
 33 34  2  0
 35 34  1  0
 35 39  1  0
 36 35  2  0
 37 32  2  0
 37 36  1  0
 38 37  1  0
 40 41  1  0
 41 44  1  0
 41 43  1  0
 42 40  2  0
 45 46  1  0
 45 20  1  0
 47 45  1  0
 48 49  1  0
 50 48  1  0
 50 49  1  0
 51 52  1  0
 51 17  1  0
 52 54  1  0
 53 64  2  0
 54 59  1  0
 55 63  1  0
 55 65  1  0
 56 62  1  0
 56 58  1  0
 57 63  1  0
 58 57  1  0
 59 58  2  0
 60 61  1  0
 60 54  2  0
 61 56  2  0
 62 55  1  0
 63 53  1  0
 65 67  2  0
 66 65  1  0
 68 66  1  0
 69 78  2  0
 69 74  1  0
 70 66  1  0
 70 74  1  0
 71 70  1  0
 72 73  1  0
 72 71  1  0
 73 69  1  0
 74 75  2  0
 75 76  1  0
 77 76  2  0
 78 77  1  0
 79 53  1  0
 79 80  1  0
 79 89  1  0
 80 83  1  0
 81 85  1  0
 81 80  1  0
 82 81  2  0
 85 84  1  0
 87 85  1  0
 87 88  1  0
 87 86  1  0
 89 92  1  1
 89 90  1  0
 91 89  1  0
M  ISO  4   1 100  19 100  51 101  52 101
M  END
>  <TORSDO>  (79) 
F 17

>  <SCORE>  (79) 
-14.127

>  <name>  (79) 
79

>  <ligand_id>  (79) 
79

>  <original_smiles>  (79) 
[H]c1c([H])c([H])c2c(c1[H])C([H])([H])C([H])([H])C([H])([H])C2([H])N([H])C(=O)C1([H])N(C(=O)C([H])(N([H])C(=O)C([H])(N([H])C([H])([H])[H])C([H])([H])[H])C(C([H])([H])[H])(C([H])([H])[H])C([H])([H])[H])C([H])([H])c2c([H])c(OC([H])([H])n3nc(N4C([H])([H])C([H])([H])N(C(=O)N5C([H])([H])C([H])([H])C([H])([H])C([H])(n6nc(-c7c([H])c([H])c(Oc8c([H])c([H])c(F)c([H])c8F)c([H])c7[H])c(C(=O)N([H])[H])c6N([H])[H])C5([H])[H])C([H])([H])C4([H])[H])c([H])c3C3([H])C([H])([H])C3([H])[H])c([H])c([H])c2C1([H])[H]

>  <smiles>  (79) 
[H]c1c([H])c([H])c2c(c1[H])C([H])([H])C([H])([H])C([H])([H])C2([H])N([H])C(=O)C1([H])N(C(=O)C([H])(N([H])C(=O)C([H])(N([H])C([H])([H])[H])C([H])([H])[H])C(C([H])([H])[H])(C([H])([H])[H])C([H])([H])[H])C([H])([H])c2c([H])c(OC([H])([H])n3nc(N4C([H])([H])C([H])([H])N(C(=O)N5C([H])([H])C([H])([H])C([H])([H])C([H])(n6nc(-c7c([H])c([H])c(Oc8c([H])c([H])c(F)c([H])c8F)c([H])c7[H])c(C(=O)N([H])[H])c6N([H])[H])C5([H])[H])C([H])([H])C4([H])[H])c([H])c3C3([H])C([H])([H])C3([H])[H])c([H])c([H])c2C1([H])[H]

$$$$
80:0:0
     RDKit          3D

 92101  0  0  1  0  0  0  0  0999 V2000
  -29.2850  -23.2900   21.9530 C   0  0  0  0  0  2  0  0  0  0  0  0
  -29.2670  -24.8310   21.7970 C   0  0  0  0  0  2  0  0  0  0  0  0
  -28.2590  -23.8570   19.8420 C   0  0  0  0  0  2  0  0  0  0  0  0
  -29.1320  -22.7120   20.5360 C   0  0  0  0  0  3  0  0  0  0  0  0
  -28.1770  -25.1470   20.7640 C   0  0  0  0  0  3  0  0  0  0  0  0
  -28.3280  -26.5300   20.2360 O   0  0  0  0  0  0  0  0  0  0  0  0
  -24.5830  -31.9220   23.2620 C   0  0  0  0  0  0  0  0  0  0  0  0
  -27.2060  -27.3710   20.2180 C   0  0  0  0  0  0  0  0  0  0  0  0
  -23.3820  -30.5170   21.6240 C   0  0  0  0  0  3  0  0  0  0  0  0
  -24.8350  -28.9670   20.1990 C   0  0  0  0  0  0  0  0  0  0  0  0
  -25.9170  -30.8490   21.4320 C   0  0  0  0  0  2  0  0  0  0  0  0
  -26.0030  -29.4700   20.7880 C   0  0  0  0  0  0  0  0  0  0  0  0
  -27.1950  -28.6840   20.7800 C   0  0  0  0  0  3  0  0  0  0  0  0
  -26.0190  -26.9160   19.6100 C   0  0  0  0  0  3  0  0  0  0  0  0
  -24.8460  -27.6970   19.5990 C   0  0  0  0  0  3  0  0  0  0  0  0
  -23.5960  -29.8360   20.2450 C   0  0  0  0  0  2  0  0  0  0  0  0
  -24.6470  -31.1140   22.1640 N   0  0  0  0  0  0  0  0  0  0  0  0
  -23.5000  -32.1940   23.8000 O   0  0  0  0  0  0  0  0  0  0  0  0
  -22.7250  -29.5000   22.5870 C   0  0  0  0  0  0  0  0  0  0  0  0
  -21.4000  -29.3080   22.4540 N   0  0  0  0  0  0  0  0  0  0  0  0
  -23.4050  -28.8870   23.4150 O   0  0  0  0  0  0  0  0  0  0  0  0
  -20.9100  -29.8570   21.7610 H   0  0  0  0  0  0  0  0  0  0  0  0
  -18.0330  -28.0800   22.9400 C   0  0  0  0  0  0  0  0  0  0  0  0
  -20.5870  -28.3670   23.2250 C   0  0  0  0  0  3  0  0  0  0  0  0
  -20.7080  -26.9330   22.6590 C   0  0  0  0  0  2  0  0  0  0  0  0
  -19.6160  -26.5920   21.6410 C   0  0  0  0  0  2  0  0  0  0  0  0
  -18.2280  -26.7290   22.2740 C   0  0  0  0  0  2  0  0  0  0  0  0
  -19.1410  -28.8560   23.3720 C   0  0  0  0  0  0  0  0  0  0  0  0
  -18.9060  -30.1200   23.9550 C   0  0  0  0  0  3  0  0  0  0  0  0
  -17.5950  -30.6090   24.1090 C   0  0  0  0  0  3  0  0  0  0  0  0
  -16.5010  -29.8300   23.6930 C   0  0  0  0  0  3  0  0  0  0  0  0
  -16.7210  -28.5670   23.1140 C   0  0  0  0  0  3  0  0  0  0  0  0
  -25.8650  -32.5590   23.8830 C   0  0  0  0  0  3  0  0  0  0  0  0
  -26.3680  -31.8090   25.1770 C   0  0  1  0  0  0  0  0  0  0  0  0
  -25.2660  -31.5950   26.2410 C   0  0  0  0  0  1  0  0  0  0  0  0
  -26.9490  -30.4220   24.8140 C   0  0  0  0  0  1  0  0  0  0  0  0
  -27.5170  -32.6100   25.8340 C   0  0  0  0  0  1  0  0  0  0  0  0
  -25.5610  -33.9640   24.1870 N   0  0  0  0  0  0  0  0  0  0  0  0
  -25.9150  -35.0030   23.4180 C   0  0  0  0  0  0  0  0  0  0  0  0
  -26.5990  -34.8790   22.3990 O   0  0  0  0  0  0  0  0  0  0  0  0
  -24.9550  -34.1360   24.9760 H   0  0  0  0  0  0  0  0  0  0  0  0
  -24.2200  -36.8130   22.9960 C   0  0  0  0  0  1  0  0  0  0  0  0
  -25.4320  -36.4030   23.8480 C   0  0  0  0  0  3  0  0  0  0  0  0
  -27.5480  -37.2730   24.7360 C   0  0  0  0  0  1  0  0  0  0  0  0
  -26.4800  -37.4410   23.7540 N   0  0  0  0  0  0  0  0  0  0  0  0
  -26.0820  -38.3680   23.8750 H   0  0  0  0  0  0  0  0  0  0  0  0
  -28.6650  -21.1650   20.4640 C   0  0  0  0  0  2  0  0  0  0  0  0
  -29.6720  -20.0710   20.8300 N   0  0  0  0  0  4  0  0  0  0  0  0
  -30.0470  -20.2730   21.7420 H   0  0  0  0  0  0  0  0  0  0  0  0
  -30.4340  -20.1500   20.1760 H   0  0  0  0  0  0  0  0  0  0  0  0
  -29.2190  -18.6050   20.8300 C   0  0  0  0  0  2  0  0  0  0  0  0
  -30.6230  -14.8360   20.6260 C   0  0  0  0  0  0  0  0  0  0  0  0
  -30.4740  -12.5090   19.7350 C   0  0  0  0  0  2  0  0  0  0  0  0
  -29.6100  -12.4700   18.4550 C   0  0  0  0  0  2  0  0  0  0  0  0
  -28.1050  -12.3820   18.7990 C   0  0  0  0  0  2  0  0  0  0  0  0
  -27.6590  -13.3050   19.9680 C   0  0  0  0  0  3  0  0  0  0  0  0
  -28.6640  -13.2950   21.1370 C   0  0  0  0  0  2  0  0  0  0  0  0
  -29.9820  -13.6170   20.5800 N   0  0  0  0  0  0  0  0  0  0  0  0
  -31.8560  -14.8730   20.5820 O   0  0  0  0  0  0  0  0  0  0  0  0
  -30.2190  -17.1120   18.2560 C   0  0  0  0  0  2  0  0  0  0  0  0
  -31.0930  -17.7630   19.3150 C   0  0  0  0  0  2  0  0  0  0  0  0
  -29.3330  -16.1270   19.0350 C   0  0  0  0  0  2  0  0  0  0  0  0
  -30.3460  -17.4520   20.6170 C   0  0  0  0  0  3  0  0  0  0  0  0
  -29.8770  -16.0060   20.4010 N   0  0  0  0  0  0  0  0  0  0  0  0
  -25.2500  -13.9220   20.5750 C   0  0  0  0  0  0  0  0  0  0  0  0
  -24.1610  -13.1580   20.8940 C   0  0  0  0  0  0  0  0  0  0  0  0
  -24.6220  -11.8060   20.9090 C   0  0  0  0  0  0  0  0  0  0  0  0
  -26.2980  -13.0320   20.4040 N   0  0  0  0  0  0  0  0  0  0  0  0
  -25.9260  -11.7570   20.6740 N   0  0  0  0  0  0  0  0  0  0  0  0
  -23.8850  -10.5470   21.0720 C   0  0  0  0  0  0  0  0  0  0  0  0
  -24.2800   -9.5800   22.0220 C   0  0  0  0  0  3  0  0  0  0  0  0
  -23.5430   -8.3850   22.1740 C   0  0  0  0  0  3  0  0  0  0  0  0
  -22.3990   -8.1520   21.3750 C   0  0  0  0  0  0  0  0  0  0  0  0
  -22.0240   -9.1090   20.4150 C   0  0  0  0  0  3  0  0  0  0  0  0
  -22.7620  -10.2940   20.2610 C   0  0  0  0  0  3  0  0  0  0  0  0
  -21.6360   -7.0110   21.4360 O   0  0  0  0  0  0  0  0  0  0  0  0
  -21.5490   -6.2660   22.5850 C   0  0  0  0  0  0  0  0  0  0  0  0
  -21.0730   -6.8140   23.7960 C   0  0  0  0  0  3  0  0  0  0  0  0
  -20.9330   -5.9930   24.9330 C   0  0  0  0  0  3  0  0  0  0  0  0
  -21.2620   -4.6260   24.8600 C   0  0  0  0  0  0  0  0  0  0  0  0
  -21.7330   -4.0790   23.6540 C   0  0  0  0  0  3  0  0  0  0  0  0
  -21.8740   -4.8950   22.5190 C   0  0  0  0  0  0  0  0  0  0  0  0
  -22.3080   -4.3580   21.3540 F   0  0  0  0  0  0  0  0  0  0  0  0
  -21.1210   -3.8360   25.9500 F   0  0  0  0  0  0  0  0  0  0  0  0
  -22.7520  -13.6430   21.0780 C   0  0  0  0  0  0  0  0  0  0  0  0
  -21.9760  -12.9630   21.9150 N   0  0  0  0  0  0  0  0  0  0  0  0
  -22.3480  -14.6590   20.5140 O   0  0  0  0  0  0  0  0  0  0  0  0
  -22.3160  -12.1410   22.3890 H   0  0  0  0  0  0  0  0  0  0  0  0
  -21.0290  -13.2720   22.0830 H   0  0  0  0  0  0  0  0  0  0  0  0
  -25.4310  -15.2900   20.3890 N   0  0  0  0  0  0  0  0  0  0  0  0
  -24.6670  -15.9540   20.4570 H   0  0  0  0  0  0  0  0  0  0  0  0
  -26.3080  -15.7190   20.1280 H   0  0  0  0  0  0  0  0  0  0  0  0
  2  1  1  0
  3  4  1  0
  3  5  1  0
  4 47  1  0
  4  1  1  0
  5  6  1  0
  5  2  1  0
  7 18  2  0
  8  6  1  0
  8 13  1  0
  9 17  1  0
  9 19  1  0
 10 16  1  0
 10 12  1  0
 11 17  1  0
 12 11  1  0
 13 12  2  0
 14  8  2  0
 15 14  1  0
 15 10  2  0
 16  9  1  0
 17  7  1  0
 19 21  2  0
 20 19  1  0
 22 20  1  0
 23 32  2  0
 23 28  1  0
 24 20  1  0
 24 28  1  0
 25 24  1  0
 26 27  1  0
 26 25  1  0
 27 23  1  0
 28 29  2  0
 29 30  1  0
 31 30  2  0
 32 31  1  0
 33  7  1  0
 33 38  1  0
 33 34  1  0
 34 37  1  1
 34 35  1  0
 36 34  1  0
 38 41  1  0
 39 43  1  0
 39 38  1  0
 40 39  2  0
 43 42  1  0
 45 43  1  0
 45 46  1  0
 45 44  1  0
 47 48  1  0
 48 49  1  0
 50 48  1  0
 51 48  1  0
 53 58  1  0
 54 55  1  0
 54 53  1  0
 56 55  1  0
 56 68  1  0
 56 57  1  0
 58 52  1  0
 58 57  1  0
 59 52  2  0
 60 62  1  0
 60 61  1  0
 61 63  1  0
 62 64  1  0
 63 51  1  0
 64 63  1  0
 64 52  1  0
 65 66  2  0
 66 67  1  0
 66 85  1  0
 67 70  1  0
 68 65  1  0
 68 69  1  0
 69 67  2  0
 70 71  1  0
 71 72  2  0
 73 76  1  0
 73 72  1  0
 74 73  2  0
 75 74  1  0
 75 70  2  0
 76 77  1  0
 77 78  1  0
 78 79  2  0
 80 79  1  0
 80 84  1  0
 81 80  2  0
 82 77  2  0
 82 81  1  0
 83 82  1  0
 85 86  1  0
 86 89  1  0
 86 88  1  0
 87 85  2  0
 90 91  1  0
 90 65  1  0
 92 90  1  0
M  ISO  4   5 101   6 101  52 100  64 100
M  END
>  <TORSDO>  (80) 
F 19

>  <SCORE>  (80) 
-13.882

>  <name>  (80) 
80

>  <ligand_id>  (80) 
80

>  <original_smiles>  (80) 
[H]c1c([H])c([H])c2c(c1[H])C([H])([H])C([H])([H])C([H])([H])C2([H])N([H])C(=O)C1([H])N(C(=O)C([H])(N([H])C(=O)C([H])(N([H])C([H])([H])[H])C([H])([H])[H])C(C([H])([H])[H])(C([H])([H])[H])C([H])([H])[H])C([H])([H])c2c([H])c(OC3([H])C([H])([H])C([H])([H])C([H])(C([H])([H])[N+]([H])([H])C([H])([H])C4([H])N(C(=O)N5C([H])([H])C([H])([H])C([H])([H])C([H])(n6nc(-c7c([H])c([H])c(Oc8c([H])c([H])c(F)c([H])c8F)c([H])c7[H])c(C(=O)N([H])[H])c6N([H])[H])C5([H])[H])C([H])([H])C([H])([H])C4([H])[H])C3([H])[H])c([H])c([H])c2C1([H])[H]

>  <smiles>  (80) 
[H]c1c([H])c([H])c2c(c1[H])C([H])([H])C([H])([H])C([H])([H])C2([H])N([H])C(=O)C1([H])N(C(=O)C([H])(N([H])C(=O)C([H])(N([H])C([H])([H])[H])C([H])([H])[H])C(C([H])([H])[H])(C([H])([H])[H])C([H])([H])[H])C([H])([H])c2c([H])c(OC3([H])C([H])([H])C([H])([H])C([H])(C([H])([H])[N+]([H])([H])C([H])([H])C4([H])N(C(=O)N5C([H])([H])C([H])([H])C([H])([H])C([H])(n6nc(-c7c([H])c([H])c(Oc8c([H])c([H])c(F)c([H])c8F)c([H])c7[H])c(C(=O)N([H])[H])c6N([H])[H])C5([H])[H])C([H])([H])C([H])([H])C4([H])[H])C3([H])[H])c([H])c([H])c2C1([H])[H]

$$$$
81:0:0
     RDKit          3D

 90 99  0  0  1  0  0  0  0  0999 V2000
  -30.6750  -14.8670   20.4360 C   0  0  0  0  0  0  0  0  0  0  0  0
  -30.3710  -12.5750   19.4520 C   0  0  0  0  0  2  0  0  0  0  0  0
  -29.4700  -12.5730   18.2020 C   0  0  0  0  0  2  0  0  0  0  0  0
  -28.0020  -12.3850   18.6190 C   0  0  0  0  0  2  0  0  0  0  0  0
  -27.5950  -13.3220   19.7850 C   0  0  0  0  0  3  0  0  0  0  0  0
  -28.6370  -13.3490   20.9280 C   0  0  0  0  0  2  0  0  0  0  0  0
  -29.9260  -13.7020   20.3240 N   0  0  0  0  0  0  0  0  0  0  0  0
  -31.8810  -14.7550   20.1930 O   0  0  0  0  0  0  0  0  0  0  0  0
  -29.9500  -23.0120   20.5970 C   0  0  0  0  0  2  0  0  0  0  0  0
  -28.7150  -23.5510   20.1280 C   0  0  0  0  0  0  0  0  0  0  0  0
  -29.1870  -20.7880   20.4500 C   0  0  0  0  0  0  0  0  0  0  0  0
  -30.7110  -18.7520   20.9980 C   0  0  0  0  0  3  0  0  0  0  0  0
  -28.4790  -18.2490   20.2300 C   0  0  0  0  0  3  0  0  0  0  0  0
  -31.0940  -17.3580   20.3420 C   0  0  0  0  0  3  0  0  0  0  0  0
  -28.8010  -16.7630   20.7870 C   0  0  0  0  0  3  0  0  0  0  0  0
  -30.1730  -21.6550   20.7600 N   0  0  0  0  0  0  0  0  0  0  0  0
  -27.7590  -22.5960   19.8630 N   0  0  0  0  0  0  0  0  0  0  0  0
  -27.9830  -21.2500   20.0270 N   0  0  0  0  0  2  0  0  0  0  0  0
  -29.4380  -19.3450   20.5460 N   0  0  0  0  0  0  0  0  0  0  0  0
  -30.1620  -16.1910   20.5300 N   0  0  0  0  0  0  0  0  0  0  0  0
  -25.2080  -13.9240   20.4820 C   0  0  0  0  0  0  0  0  0  0  0  0
  -24.1350  -13.1560   20.8420 C   0  0  0  0  0  0  0  0  0  0  0  0
  -24.5960  -11.8040   20.8340 C   0  0  0  0  0  0  0  0  0  0  0  0
  -26.2510  -13.0390   20.2720 N   0  0  0  0  0  0  0  0  0  0  0  0
  -25.8920  -11.7600   20.5510 N   0  0  0  0  0  0  0  0  0  0  0  0
  -23.8610  -10.5460   21.0210 C   0  0  0  0  0  0  0  0  0  0  0  0
  -24.2780   -9.5800   21.9610 C   0  0  0  0  0  3  0  0  0  0  0  0
  -23.5430   -8.3870   22.1350 C   0  0  0  0  0  3  0  0  0  0  0  0
  -22.3760   -8.1540   21.3690 C   0  0  0  0  0  0  0  0  0  0  0  0
  -21.9790   -9.1100   20.4170 C   0  0  0  0  0  3  0  0  0  0  0  0
  -22.7150  -10.2940   20.2410 C   0  0  0  0  0  3  0  0  0  0  0  0
  -21.6140   -7.0150   21.4520 O   0  0  0  0  0  0  0  0  0  0  0  0
  -21.5520   -6.2730   22.6050 C   0  0  0  0  0  0  0  0  0  0  0  0
  -21.1320   -6.8350   23.8300 C   0  0  0  0  0  3  0  0  0  0  0  0
  -21.0170   -6.0210   24.9750 C   0  0  0  0  0  3  0  0  0  0  0  0
  -21.3110   -4.6460   24.8950 C   0  0  0  0  0  0  0  0  0  0  0  0
  -21.7250   -4.0840   23.6740 C   0  0  0  0  0  3  0  0  0  0  0  0
  -21.8420   -4.8960   22.5320 C   0  0  0  0  0  0  0  0  0  0  0  0
  -22.2200   -4.3460   21.3530 F   0  0  0  0  0  0  0  0  0  0  0  0
  -21.1940   -3.8620   25.9920 F   0  0  0  0  0  0  0  0  0  0  0  0
  -22.7350  -13.6420   21.0760 C   0  0  0  0  0  0  0  0  0  0  0  0
  -21.9870  -12.9610   21.9370 N   0  0  0  0  0  0  0  0  0  0  0  0
  -22.3110  -14.6600   20.5310 O   0  0  0  0  0  0  0  0  0  0  0  0
  -22.3420  -12.1380   22.4000 H   0  0  0  0  0  0  0  0  0  0  0  0
  -21.0450  -13.2690   22.1370 H   0  0  0  0  0  0  0  0  0  0  0  0
  -25.3730  -15.2910   20.2890 N   0  0  0  0  0  0  0  0  0  0  0  0
  -24.5990  -15.9400   20.3690 H   0  0  0  0  0  0  0  0  0  0  0  0
  -26.2140  -15.7200   19.9270 H   0  0  0  0  0  0  0  0  0  0  0  0
  -28.5160  -25.0520   19.5420 C   0  0  0  0  0  2  0  0  0  0  0  0
  -28.3940  -26.3510   20.3260 O   0  0  0  0  0  0  0  0  0  0  0  0
  -24.6480  -31.8850   23.2410 C   0  0  0  0  0  0  0  0  0  0  0  0
  -27.2990  -27.2590   20.2120 C   0  0  0  0  0  0  0  0  0  0  0  0
  -23.4710  -30.4780   21.5930 C   0  0  0  0  0  3  0  0  0  0  0  0
  -24.9410  -28.9310   20.1750 C   0  0  0  0  0  0  0  0  0  0  0  0
  -26.0180  -30.7870   21.4410 C   0  0  0  0  0  2  0  0  0  0  0  0
  -26.1080  -29.4020   20.7890 C   0  0  0  0  0  0  0  0  0  0  0  0
  -27.2850  -28.5780   20.7980 C   0  0  0  0  0  3  0  0  0  0  0  0
  -26.0970  -26.8640   19.5790 C   0  0  0  0  0  3  0  0  0  0  0  0
  -24.9440  -27.6720   19.5600 C   0  0  0  0  0  3  0  0  0  0  0  0
  -23.7020  -29.8080   20.2150 C   0  0  0  0  0  2  0  0  0  0  0  0
  -24.7310  -31.0700   22.1480 N   0  0  0  0  0  0  0  0  0  0  0  0
  -23.5570  -32.1580   23.7640 O   0  0  0  0  0  0  0  0  0  0  0  0
  -22.8010  -29.4600   22.5500 C   0  0  0  0  0  0  0  0  0  0  0  0
  -21.4730  -29.2880   22.4230 N   0  0  0  0  0  0  0  0  0  0  0  0
  -23.4760  -28.8280   23.3660 O   0  0  0  0  0  0  0  0  0  0  0  0
  -20.9860  -29.8480   21.7380 H   0  0  0  0  0  0  0  0  0  0  0  0
  -18.0920  -28.0970   22.9290 C   0  0  0  0  0  0  0  0  0  0  0  0
  -20.6520  -28.3480   23.1900 C   0  0  0  0  0  3  0  0  0  0  0  0
  -20.7470  -26.9190   22.6060 C   0  0  0  0  0  2  0  0  0  0  0  0
  -19.6410  -26.6070   21.5930 C   0  0  0  0  0  2  0  0  0  0  0  0
  -18.2620  -26.7520   22.2430 C   0  0  0  0  0  2  0  0  0  0  0  0
  -19.2140  -28.8530   23.3600 C   0  0  0  0  0  0  0  0  0  0  0  0
  -19.0000  -30.1110   23.9620 C   0  0  0  0  0  3  0  0  0  0  0  0
  -17.6970  -30.6140   24.1380 C   0  0  0  0  0  3  0  0  0  0  0  0
  -16.5900  -29.8550   23.7220 C   0  0  0  0  0  3  0  0  0  0  0  0
  -16.7870  -28.5980   23.1230 C   0  0  0  0  0  3  0  0  0  0  0  0
  -25.9180  -32.5300   23.8760 C   0  0  0  0  0  3  0  0  0  0  0  0
  -25.5930  -33.9260   24.2030 N   0  0  0  0  0  0  0  0  0  0  0  0
  -25.9120  -34.9830   23.4430 C   0  0  0  0  0  0  0  0  0  0  0  0
  -26.5770  -34.8850   22.4090 O   0  0  0  0  0  0  0  0  0  0  0  0
  -24.9990  -34.0750   25.0050 H   0  0  0  0  0  0  0  0  0  0  0  0
  -24.1570  -36.7550   23.1040 C   0  0  0  0  0  1  0  0  0  0  0  0
  -25.4120  -36.3670   23.9020 C   0  0  0  0  0  3  0  0  0  0  0  0
  -27.5460  -37.2810   24.7040 C   0  0  0  0  0  1  0  0  0  0  0  0
  -26.4310  -37.4330   23.7730 N   0  0  0  0  0  0  0  0  0  0  0  0
  -26.0150  -38.3480   23.9220 H   0  0  0  0  0  0  0  0  0  0  0  0
  -26.4260  -31.7650   25.1600 C   0  0  1  0  0  0  0  0  0  0  0  0
  -25.3240  -31.5260   26.2190 C   0  0  0  0  0  1  0  0  0  0  0  0
  -27.0200  -30.3890   24.7810 C   0  0  0  0  0  1  0  0  0  0  0  0
  -27.5660  -32.5680   25.8290 C   0  0  0  0  0  1  0  0  0  0  0  0
  1 20  1  0
  2  7  1  0
  3  4  1  0
  3  2  1  0
  5  4  1  0
  5 24  1  0
  5  6  1  0
  7  1  1  0
  7  6  1  0
  8  1  2  0
  9 16  1  0
 10  9  1  0
 11 19  1  0
 11 16  2  0
 13 19  1  0
 13 15  2  0
 14 20  1  0
 14 12  2  0
 17 18  1  0
 17 10  2  0
 18 11  1  0
 19 12  1  0
 20 15  1  0
 21 22  2  0
 22 41  1  0
 23 22  1  0
 23 26  1  0
 24 21  1  0
 24 25  1  0
 25 23  2  0
 26 27  1  0
 27 28  2  0
 29 32  1  0
 29 28  1  0
 30 29  2  0
 31 30  1  0
 31 26  2  0
 32 33  1  0
 33 34  1  0
 34 35  2  0
 36 35  1  0
 36 40  1  0
 37 36  2  0
 38 33  2  0
 38 37  1  0
 39 38  1  0
 41 42  1  0
 42 45  1  0
 42 44  1  0
 43 41  2  0
 46 47  1  0
 46 21  1  0
 48 46  1  0
 49 10  1  0
 49 50  1  0
 51 62  2  0
 52 50  1  0
 52 57  1  0
 53 61  1  0
 53 63  1  0
 54 60  1  0
 54 56  1  0
 55 61  1  0
 56 57  2  0
 56 55  1  0
 58 52  2  0
 59 58  1  0
 59 54  2  0
 60 53  1  0
 61 51  1  0
 63 65  2  0
 64 63  1  0
 66 64  1  0
 67 76  2  0
 67 72  1  0
 68 64  1  0
 68 72  1  0
 69 68  1  0
 70 71  1  0
 70 69  1  0
 71 67  1  0
 72 73  2  0
 73 74  1  0
 75 74  2  0
 76 75  1  0
 77 51  1  0
 77 78  1  0
 77 87  1  0
 78 81  1  0
 79 83  1  0
 79 78  1  0
 80 79  2  0
 83 82  1  0
 85 83  1  0
 85 86  1  0
 85 84  1  0
 87 90  1  1
 87 88  1  0
 89 87  1  0
M  ISO  4   1 100  20 100  49 101  50 101
M  END
>  <TORSDO>  (81) 
F 16

>  <SCORE>  (81) 
-15.744

>  <name>  (81) 
81

>  <ligand_id>  (81) 
81

>  <original_smiles>  (81) 
[H]c1nc(N2C([H])([H])C([H])([H])N(C(=O)N3C([H])([H])C([H])([H])C([H])([H])C([H])(n4nc(-c5c([H])c([H])c(Oc6c([H])c([H])c(F)c([H])c6F)c([H])c5[H])c(C(=O)N([H])[H])c4N([H])[H])C3([H])[H])C([H])([H])C2([H])[H])nnc1C([H])([H])Oc1c([H])c([H])c2c(c1[H])C([H])([H])N(C(=O)C([H])(N([H])C(=O)C([H])(N([H])C([H])([H])[H])C([H])([H])[H])C(C([H])([H])[H])(C([H])([H])[H])C([H])([H])[H])C([H])(C(=O)N([H])C1([H])c3c([H])c([H])c([H])c([H])c3C([H])([H])C([H])([H])C1([H])[H])C2([H])[H]

>  <smiles>  (81) 
[H]c1nc(N2C([H])([H])C([H])([H])N(C(=O)N3C([H])([H])C([H])([H])C([H])([H])C([H])(n4nc(-c5c([H])c([H])c(Oc6c([H])c([H])c(F)c([H])c6F)c([H])c5[H])c(C(=O)N([H])[H])c4N([H])[H])C3([H])[H])C([H])([H])C2([H])[H])nnc1C([H])([H])Oc1c([H])c([H])c2c(c1[H])C([H])([H])N(C(=O)C([H])(N([H])C(=O)C([H])(N([H])C([H])([H])[H])C([H])([H])[H])C(C([H])([H])[H])(C([H])([H])[H])C([H])([H])[H])C([H])(C(=O)N([H])C1([H])c3c([H])c([H])c([H])c([H])c3C([H])([H])C([H])([H])C1([H])[H])C2([H])[H]

$$$$
82:0:0
     RDKit          3D

 97106  0  0  1  0  0  0  0  0999 V2000
  -30.8470  -21.7110   19.9440 C   0  0  0  0  0  3  0  0  0  0  0  0
  -29.5190  -21.5490   20.4030 C   0  0  0  0  0  0  0  0  0  0  0  0
  -30.4910  -23.9880   19.5400 C   0  0  0  0  0  0  0  0  0  0  0  0
  -29.1540  -23.8880   20.0210 C   0  0  0  0  0  0  0  0  0  0  0  0
  -31.3250  -22.9100   19.5180 N   0  0  0  0  0  0  0  0  0  0  0  0
  -28.6920  -22.6540   20.4430 N   0  0  0  0  0  0  0  0  0  0  0  0
  -28.9650  -20.1760   20.9370 C   0  0  0  0  0  2  0  0  0  0  0  0
  -30.7380  -14.6420   20.0140 C   0  0  0  0  0  0  0  0  0  0  0  0
  -30.3940  -12.4340   18.9350 C   0  0  0  0  0  2  0  0  0  0  0  0
  -29.3910  -12.5890   17.7720 C   0  0  0  0  0  2  0  0  0  0  0  0
  -27.9480  -12.4270   18.2880 C   0  0  0  0  0  2  0  0  0  0  0  0
  -27.6620  -13.2700   19.5630 C   0  0  0  0  0  3  0  0  0  0  0  0
  -28.7880  -13.1330   20.6110 C   0  0  0  0  0  2  0  0  0  0  0  0
  -30.0520  -13.4570   19.9430 N   0  0  0  0  0  0  0  0  0  0  0  0
  -31.8940  -14.7190   19.5880 O   0  0  0  0  0  0  0  0  0  0  0  0
  -30.0650  -16.8240   19.1360 C   0  0  0  0  0  2  0  0  0  0  0  0
  -30.1910  -16.4660   21.5450 C   0  0  0  0  0  2  0  0  0  0  0  0
  -29.3230  -18.1850   19.3750 C   0  0  0  0  0  2  0  0  0  0  0  0
  -29.4530  -17.8390   21.7470 C   0  0  0  0  0  2  0  0  0  0  0  0
  -30.0280  -15.8070   20.2300 N   0  0  0  0  0  0  0  0  0  0  0  0
  -29.6720  -18.8470   20.6640 N   0  0  2  0  0  4  0  0  0  0  0  0
  -30.6610  -19.0400   20.6570 H   0  0  0  0  0  0  0  0  0  0  0  0
  -25.3270  -13.8330   20.4660 C   0  0  0  0  0  0  0  0  0  0  0  0
  -24.2840  -13.0450   20.8710 C   0  0  0  0  0  0  0  0  0  0  0  0
  -24.7410  -11.6960   20.7600 C   0  0  0  0  0  0  0  0  0  0  0  0
  -26.3520  -12.9640   20.1300 N   0  0  0  0  0  0  0  0  0  0  0  0
  -26.0110  -11.6710   20.3690 N   0  0  0  0  0  0  0  0  0  0  0  0
  -24.0250  -10.4270   20.9520 C   0  0  0  0  0  0  0  0  0  0  0  0
  -24.4640   -9.4620   21.8840 C   0  0  0  0  0  3  0  0  0  0  0  0
  -23.7470   -8.2610   22.0640 C   0  0  0  0  0  3  0  0  0  0  0  0
  -22.5760   -8.0130   21.3090 C   0  0  0  0  0  0  0  0  0  0  0  0
  -22.1560   -8.9660   20.3640 C   0  0  0  0  0  3  0  0  0  0  0  0
  -22.8750  -10.1600   20.1830 C   0  0  0  0  0  3  0  0  0  0  0  0
  -21.8310   -6.8620   21.3960 O   0  0  0  0  0  0  0  0  0  0  0  0
  -21.7230   -6.1630   22.5720 C   0  0  0  0  0  0  0  0  0  0  0  0
  -21.2110   -6.7560   23.7470 C   0  0  0  0  0  3  0  0  0  0  0  0
  -21.0480   -5.9810   24.9140 C   0  0  0  0  0  3  0  0  0  0  0  0
  -21.3910   -4.6150   24.9060 C   0  0  0  0  0  0  0  0  0  0  0  0
  -21.8970   -4.0230   23.7370 C   0  0  0  0  0  3  0  0  0  0  0  0
  -22.0610   -4.7940   22.5720 C   0  0  0  0  0  0  0  0  0  0  0  0
  -22.5290   -4.2130   21.4420 F   0  0  0  0  0  0  0  0  0  0  0  0
  -21.2290   -3.8700   26.0240 F   0  0  0  0  0  0  0  0  0  0  0  0
  -22.9080  -13.5130   21.2460 C   0  0  0  0  0  0  0  0  0  0  0  0
  -22.2350  -12.7920   22.1350 N   0  0  0  0  0  0  0  0  0  0  0  0
  -22.4380  -14.5550   20.7860 O   0  0  0  0  0  0  0  0  0  0  0  0
  -22.6290  -11.9510   22.5320 H   0  0  0  0  0  0  0  0  0  0  0  0
  -21.3150  -13.0880   22.4280 H   0  0  0  0  0  0  0  0  0  0  0  0
  -25.4860  -15.2080   20.3330 N   0  0  0  0  0  0  0  0  0  0  0  0
  -24.7290  -15.8570   20.5100 H   0  0  0  0  0  0  0  0  0  0  0  0
  -26.3150  -15.6550   19.9660 H   0  0  0  0  0  0  0  0  0  0  0  0
  -31.0760  -25.2650   18.9420 C   0  0  0  0  0  2  0  0  0  0  0  0
  -31.7840  -24.9730   17.6860 N   0  0  0  0  0  4  0  0  0  0  0  0
  -32.3930  -24.1920   17.8550 H   0  0  0  0  0  0  0  0  0  0  0  0
  -32.3220  -25.7630   17.3860 H   0  0  0  0  0  0  0  0  0  0  0  0
  -31.1330  -24.7170   16.9670 H   0  0  0  0  0  0  0  0  0  0  0  0
  -28.0920  -25.0320   19.8660 C   0  0  0  0  0  2  0  0  0  0  0  0
  -28.3660  -26.4560   20.1850 O   0  0  0  0  0  0  0  0  0  0  0  0
  -24.6330  -31.8570   23.2260 C   0  0  0  0  0  0  0  0  0  0  0  0
  -27.2540  -27.3200   20.1360 C   0  0  0  0  0  0  0  0  0  0  0  0
  -23.4320  -30.4630   21.5830 C   0  0  0  0  0  3  0  0  0  0  0  0
  -24.8850  -28.9340   20.1470 C   0  0  0  0  0  0  0  0  0  0  0  0
  -25.9730  -30.7890   21.4020 C   0  0  0  0  0  2  0  0  0  0  0  0
  -26.0560  -29.4150   20.7440 C   0  0  0  0  0  0  0  0  0  0  0  0
  -27.2430  -28.6210   20.7330 C   0  0  0  0  0  3  0  0  0  0  0  0
  -26.0500  -26.9030   19.5130 C   0  0  0  0  0  3  0  0  0  0  0  0
  -24.8830  -27.6830   19.5250 C   0  0  0  0  0  3  0  0  0  0  0  0
  -23.6460  -29.8020   20.1980 C   0  0  0  0  0  2  0  0  0  0  0  0
  -24.6980  -31.0520   22.1270 N   0  0  0  0  0  0  0  0  0  0  0  0
  -23.5490  -32.1290   23.7610 O   0  0  0  0  0  0  0  0  0  0  0  0
  -22.7740  -29.4370   22.5370 C   0  0  0  0  0  0  0  0  0  0  0  0
  -21.4480  -29.2630   22.4180 N   0  0  0  0  0  0  0  0  0  0  0  0
  -23.4580  -28.8000   23.3440 O   0  0  0  0  0  0  0  0  0  0  0  0
  -20.9550  -29.8240   21.7360 H   0  0  0  0  0  0  0  0  0  0  0  0
  -18.0680  -28.0850   22.9420 C   0  0  0  0  0  0  0  0  0  0  0  0
  -20.6310  -28.3240   23.1880 C   0  0  0  0  0  3  0  0  0  0  0  0
  -20.7180  -26.8970   22.5990 C   0  0  0  0  0  2  0  0  0  0  0  0
  -19.6020  -26.5910   21.5930 C   0  0  0  0  0  2  0  0  0  0  0  0
  -18.2280  -26.7410   22.2520 C   0  0  0  0  0  2  0  0  0  0  0  0
  -19.1960  -28.8360   23.3670 C   0  0  0  0  0  0  0  0  0  0  0  0
  -18.9920  -30.0940   23.9730 C   0  0  0  0  0  3  0  0  0  0  0  0
  -17.6930  -30.6030   24.1590 C   0  0  0  0  0  3  0  0  0  0  0  0
  -16.5790  -29.8480   23.7490 C   0  0  0  0  0  3  0  0  0  0  0  0
  -16.7680  -28.5930   23.1460 C   0  0  0  0  0  3  0  0  0  0  0  0
  -25.9150  -32.4900   23.8460 C   0  0  0  0  0  3  0  0  0  0  0  0
  -26.4370  -31.7150   25.1180 C   0  0  1  0  0  0  0  0  0  0  0  0
  -25.3470  -31.4700   26.1860 C   0  0  0  0  0  1  0  0  0  0  0  0
  -27.0250  -30.3410   24.7220 C   0  0  0  0  0  1  0  0  0  0  0  0
  -27.5850  -32.5130   25.7820 C   0  0  0  0  0  1  0  0  0  0  0  0
  -25.6010  -33.8870   24.1830 N   0  0  0  0  0  0  0  0  0  0  0  0
  -25.9190  -34.9430   23.4240 C   0  0  0  0  0  0  0  0  0  0  0  0
  -26.5790  -34.8460   22.3860 O   0  0  0  0  0  0  0  0  0  0  0  0
  -25.0140  -34.0350   24.9910 H   0  0  0  0  0  0  0  0  0  0  0  0
  -24.1780  -36.7280   23.0920 C   0  0  0  0  0  1  0  0  0  0  0  0
  -25.4290  -36.3270   23.8910 C   0  0  0  0  0  3  0  0  0  0  0  0
  -27.5650  -37.2230   24.7060 C   0  0  0  0  0  1  0  0  0  0  0  0
  -26.4550  -37.3860   23.7710 N   0  0  0  0  0  0  0  0  0  0  0  0
  -26.0440  -38.3030   23.9240 H   0  0  0  0  0  0  0  0  0  0  0  0
  1  2  1  0
  2  6  2  0
  2  7  1  0
  3  4  2  0
  4  6  1  0
  5  3  1  0
  5  1  2  0
  8 20  1  0
  9 14  1  0
 10 11  1  0
 10  9  1  0
 12 11  1  0
 12 26  1  0
 12 13  1  0
 14  8  1  0
 14 13  1  0
 15  8  2  0
 16 18  1  0
 16 20  1  0
 17 19  1  0
 18 21  1  0
 20 17  1  0
 21  7  1  0
 21 19  1  0
 21 22  1  6
 23 24  2  0
 24 43  1  0
 25 24  1  0
 25 28  1  0
 26 27  1  0
 26 23  1  0
 27 25  2  0
 28 29  1  0
 29 30  2  0
 31 34  1  0
 31 30  1  0
 32 31  2  0
 33 32  1  0
 33 28  2  0
 34 35  1  0
 35 36  1  0
 36 37  2  0
 38 37  1  0
 38 42  1  0
 39 38  2  0
 40 35  2  0
 40 39  1  0
 41 40  1  0
 43 44  1  0
 44 47  1  0
 44 46  1  0
 45 43  2  0
 48 23  1  0
 48 49  1  0
 50 48  1  0
 51  3  1  0
 52 53  1  0
 52 51  1  0
 54 52  1  0
 55 52  1  0
 56  4  1  0
 56 57  1  0
 58 69  2  0
 59 57  1  0
 59 64  1  0
 60 68  1  0
 60 70  1  0
 61 67  1  0
 61 63  1  0
 62 68  1  0
 63 62  1  0
 64 63  2  0
 65 66  1  0
 65 59  2  0
 66 61  2  0
 67 60  1  0
 68 58  1  0
 70 72  2  0
 71 70  1  0
 73 71  1  0
 74 83  2  0
 74 79  1  0
 75 71  1  0
 75 79  1  0
 76 75  1  0
 77 78  1  0
 77 76  1  0
 78 74  1  0
 79 80  2  0
 80 81  1  0
 82 81  2  0
 83 82  1  0
 84 58  1  0
 84 89  1  0
 84 85  1  0
 85 88  1  1
 85 86  1  0
 87 85  1  0
 89 92  1  0
 90 94  1  0
 90 89  1  0
 91 90  2  0
 94 93  1  0
 96 94  1  0
 96 97  1  0
 96 95  1  0
M  ISO  4   8 100  20 100  56 101  57 101
M  END
>  <TORSDO>  (82) 
F 20

>  <SCORE>  (82) 
-13.526

>  <name>  (82) 
82

>  <ligand_id>  (82) 
82

>  <original_smiles>  (82) 
[H]c1nc(C([H])([H])[N+]([H])([H])[H])c(C([H])([H])Oc2c([H])c([H])c3c(c2[H])C([H])([H])N(C(=O)C([H])(N([H])C(=O)C([H])(N([H])C([H])([H])[H])C([H])([H])[H])C(C([H])([H])[H])(C([H])([H])[H])C([H])([H])[H])C([H])(C(=O)N([H])C2([H])c4c([H])c([H])c([H])c([H])c4C([H])([H])C([H])([H])C2([H])[H])C3([H])[H])nc1C([H])([H])[N+]1([H])C([H])([H])C([H])([H])N(C(=O)N2C([H])([H])C([H])([H])C([H])([H])C([H])(n3nc(-c4c([H])c([H])c(Oc5c([H])c([H])c(F)c([H])c5F)c([H])c4[H])c(C(=O)N([H])[H])c3N([H])[H])C2([H])[H])C([H])([H])C1([H])[H]

>  <smiles>  (82) 
[H]c1nc(C([H])([H])[N+]([H])([H])[H])c(C([H])([H])Oc2c([H])c([H])c3c(c2[H])C([H])([H])N(C(=O)C([H])(N([H])C(=O)C([H])(N([H])C([H])([H])[H])C([H])([H])[H])C(C([H])([H])[H])(C([H])([H])[H])C([H])([H])[H])C([H])(C(=O)N([H])C2([H])c4c([H])c([H])c([H])c([H])c4C([H])([H])C([H])([H])C2([H])[H])C3([H])[H])nc1C([H])([H])[N+]1([H])C([H])([H])C([H])([H])N(C(=O)N2C([H])([H])C([H])([H])C([H])([H])C([H])(n3nc(-c4c([H])c([H])c(Oc5c([H])c([H])c(F)c([H])c5F)c([H])c4[H])c(C(=O)N([H])[H])c3N([H])[H])C2([H])[H])C([H])([H])C1([H])[H]

$$$$
83:0:0
     RDKit          3D

 97107  0  0  1  0  0  0  0  0999 V2000
  -29.3890  -20.1200    8.0550 C   0  0  0  0  0  2  0  0  0  0  0  0
  -29.1720  -21.3370    8.9370 C   0  0  0  0  0  3  0  0  0  0  0  0
  -28.8580  -21.3960    7.4480 C   0  0  0  0  0  3  0  0  0  0  0  0
  -27.4110  -21.3190    7.1330 N   0  0  0  0  0  4  0  0  0  0  0  0
  -27.1010  -22.2260    6.8180 H   0  0  0  0  0  0  0  0  0  0  0  0
  -26.9150  -21.1160    7.9860 H   0  0  0  0  0  0  0  0  0  0  0  0
  -27.0440  -20.2940    6.1220 C   0  0  0  0  0  2  0  0  0  0  0  0
  -27.7430  -20.5300    4.7600 C   0  0  0  0  0  2  0  0  0  0  0  0
  -27.6240  -19.4370    3.8380 O   0  0  0  0  0  0  0  0  0  0  0  0
  -33.3200  -15.3280    5.0020 C   0  0  0  0  0  0  0  0  0  0  0  0
  -28.8080  -18.9390    3.3440 C   0  0  0  0  0  0  0  0  0  0  0  0
  -33.4200  -16.7700    2.9940 C   0  0  0  0  0  3  0  0  0  0  0  0
  -31.2290  -17.8990    2.3340 C   0  0  0  0  0  0  0  0  0  0  0  0
  -31.1720  -15.9580    3.9100 C   0  0  0  0  0  2  0  0  0  0  0  0
  -30.5580  -17.2300    3.3640 C   0  0  0  0  0  0  0  0  0  0  0  0
  -29.3430  -17.7430    3.8690 C   0  0  0  0  0  3  0  0  0  0  0  0
  -29.4920  -19.5960    2.2990 C   0  0  0  0  0  3  0  0  0  0  0  0
  -30.7030  -19.0850    1.7970 C   0  0  0  0  0  3  0  0  0  0  0  0
  -32.5180  -17.2850    1.8400 C   0  0  0  0  0  2  0  0  0  0  0  0
  -32.6480  -16.0040    4.0280 N   0  0  0  0  0  0  0  0  0  0  0  0
  -34.5590  -15.3000    5.0230 O   0  0  0  0  0  0  0  0  0  0  0  0
  -34.2010  -17.9690    3.5770 C   0  0  0  0  0  0  0  0  0  0  0  0
  -35.5380  -17.8420    3.6390 N   0  0  0  0  0  0  0  0  0  0  0  0
  -33.6120  -18.9910    3.9390 O   0  0  0  0  0  0  0  0  0  0  0  0
  -35.9480  -16.9620    3.3560 H   0  0  0  0  0  0  0  0  0  0  0  0
  -38.3980  -18.4040    5.7730 C   0  0  0  0  0  0  0  0  0  0  0  0
  -36.4770  -18.8620    4.1070 C   0  0  0  0  0  3  0  0  0  0  0  0
  -37.5860  -19.1320    3.0640 C   0  0  0  0  0  2  0  0  0  0  0  0
  -38.8440  -18.2900    3.2870 C   0  0  0  0  0  2  0  0  0  0  0  0
  -39.4360  -18.5590    4.6720 C   0  0  0  0  0  2  0  0  0  0  0  0
  -37.0080  -18.5330    5.5040 C   0  0  0  0  0  0  0  0  0  0  0  0
  -36.0840  -18.3470    6.5550 C   0  0  0  0  0  3  0  0  0  0  0  0
  -36.5260  -18.0490    7.8570 C   0  0  0  0  0  3  0  0  0  0  0  0
  -37.9020  -17.9270    8.1210 C   0  0  0  0  0  3  0  0  0  0  0  0
  -38.8330  -18.1080    7.0820 C   0  0  0  0  0  3  0  0  0  0  0  0
  -32.5680  -14.5390    6.1180 C   0  0  0  0  0  3  0  0  0  0  0  0
  -33.0470  -13.1520    6.0780 N   0  0  0  0  0  0  0  0  0  0  0  0
  -32.3810  -12.1340    5.5160 C   0  0  0  0  0  0  0  0  0  0  0  0
  -31.2520  -12.2570    5.0330 O   0  0  0  0  0  0  0  0  0  0  0  0
  -33.9890  -12.9920    6.4040 H   0  0  0  0  0  0  0  0  0  0  0  0
  -33.4610  -10.4170    4.0310 C   0  0  0  0  0  1  0  0  0  0  0  0
  -33.0790  -10.7620    5.4790 C   0  0  0  0  0  3  0  0  0  0  0  0
  -32.0820   -9.7880    7.5010 C   0  0  0  0  0  1  0  0  0  0  0  0
  -32.2610   -9.6730    6.0550 N   0  0  0  0  0  0  0  0  0  0  0  0
  -32.6780   -8.7670    5.8600 H   0  0  0  0  0  0  0  0  0  0  0  0
  -32.7640  -15.1580    7.5570 C   0  0  1  0  0  0  0  0  0  0  0  0
  -34.1420  -14.8430    8.1850 C   0  0  0  0  0  1  0  0  0  0  0  0
  -32.6000  -16.6960    7.5160 C   0  0  0  0  0  1  0  0  0  0  0  0
  -31.6650  -14.6250    8.5060 C   0  0  0  0  0  1  0  0  0  0  0  0
  -30.4030  -21.9920    9.5580 C   0  0  0  0  0  2  0  0  0  0  0  0
  -32.0340  -19.4840   11.6400 C   0  0  0  0  0  0  0  0  0  0  0  0
  -30.9330  -20.1490   11.2760 C   0  0  0  0  0  0  0  0  0  0  0  0
  -33.0750  -20.0150   10.8350 C   0  0  0  0  0  0  0  0  0  0  0  0
  -31.7870  -18.4830   12.7150 C   0  0  0  0  0  2  0  0  0  0  0  0
  -29.7050  -19.7420   11.9840 C   0  0  0  0  0  3  0  0  0  0  0  0
  -30.2690  -18.7180   13.0200 C   0  0  0  0  0  3  0  0  0  0  0  0
  -32.5840  -20.9550   10.0180 N   0  0  0  0  0  0  0  0  0  0  0  0
  -31.2520  -21.0670   10.3020 N   0  0  0  0  0  0  0  0  0  0  0  0
  -34.5230  -19.6090   10.7750 C   0  0  0  0  0  2  0  0  0  0  0  0
  -36.0350  -21.3190   11.7750 C   0  0  0  0  0  0  0  0  0  0  0  0
  -36.7770  -23.4530   12.7680 C   0  0  0  0  0  2  0  0  0  0  0  0
  -35.5370  -24.2590   13.1990 C   0  0  0  0  0  2  0  0  0  0  0  0
  -35.0040  -25.1110   12.0300 C   0  0  0  0  0  2  0  0  0  0  0  0
  -34.8390  -24.2870   10.7260 C   0  0  0  0  0  3  0  0  0  0  0  0
  -36.1030  -23.4480   10.4340 C   0  0  0  0  0  2  0  0  0  0  0  0
  -36.3910  -22.6210   11.6190 N   0  0  0  0  0  0  0  0  0  0  0  0
  -36.2110  -20.6860   12.8190 O   0  0  0  0  0  0  0  0  0  0  0  0
  -35.3680  -20.7950   10.7430 N   0  0  0  0  0  0  0  0  0  0  0  0
  -35.2700  -21.3710    9.9240 H   0  0  0  0  0  0  0  0  0  0  0  0
  -33.7420  -24.8370    8.4620 C   0  0  0  0  0  0  0  0  0  0  0  0
  -33.6460  -26.0050    7.7580 C   0  0  0  0  0  0  0  0  0  0  0  0
  -34.3490  -26.9880    8.5190 C   0  0  0  0  0  0  0  0  0  0  0  0
  -34.4850  -25.1380    9.5940 N   0  0  0  0  0  0  0  0  0  0  0  0
  -34.8950  -26.4330    9.5920 N   0  0  0  0  0  0  0  0  0  0  0  0
  -34.4880  -28.4360    8.3160 C   0  0  0  0  0  0  0  0  0  0  0  0
  -35.7540  -29.0590    8.2670 C   0  0  0  0  0  3  0  0  0  0  0  0
  -35.8620  -30.4500    8.0520 C   0  0  0  0  0  3  0  0  0  0  0  0
  -34.6950  -31.2350    7.8830 C   0  0  0  0  0  0  0  0  0  0  0  0
  -33.4360  -30.6140    7.9580 C   0  0  0  0  0  3  0  0  0  0  0  0
  -33.3310  -29.2300    8.1760 C   0  0  0  0  0  3  0  0  0  0  0  0
  -34.7030  -32.5950    7.6950 O   0  0  0  0  0  0  0  0  0  0  0  0
  -35.4270  -33.1800    6.6870 C   0  0  0  0  0  0  0  0  0  0  0  0
  -35.1070  -32.9810    5.3260 C   0  0  0  0  0  3  0  0  0  0  0  0
  -35.8340  -33.6580    4.3250 C   0  0  0  0  0  3  0  0  0  0  0  0
  -36.8750  -34.5350    4.6830 C   0  0  0  0  0  0  0  0  0  0  0  0
  -37.1920  -34.7390    6.0380 C   0  0  0  0  0  3  0  0  0  0  0  0
  -36.4680  -34.0630    7.0370 C   0  0  0  0  0  0  0  0  0  0  0  0
  -36.7630  -34.2790    8.3410 F   0  0  0  0  0  0  0  0  0  0  0  0
  -37.5680  -35.1910    3.7230 F   0  0  0  0  0  0  0  0  0  0  0  0
  -32.8680  -26.2250    6.4910 C   0  0  0  0  0  0  0  0  0  0  0  0
  -33.5510  -26.2920    5.3550 N   0  0  0  0  0  0  0  0  0  0  0  0
  -31.6400  -26.2950    6.4990 O   0  0  0  0  0  0  0  0  0  0  0  0
  -34.5590  -26.2130    5.3420 H   0  0  0  0  0  0  0  0  0  0  0  0
  -33.0620  -26.4240    4.4810 H   0  0  0  0  0  0  0  0  0  0  0  0
  -33.2440  -23.5560    8.2470 N   0  0  0  0  0  0  0  0  0  0  0  0
  -32.6570  -23.3410    7.4490 H   0  0  0  0  0  0  0  0  0  0  0  0
  -33.3920  -22.7640    8.8600 H   0  0  0  0  0  0  0  0  0  0  0  0
  1  2  1  0
  2 50  1  0
  3  4  1  0
  3  1  1  0
  3  2  1  0
  4  6  1  0
  5  4  1  0
  7  4  1  0
  8  7  1  0
  9  8  1  0
 10 21  2  0
 11  9  1  0
 11 16  1  0
 12 22  1  0
 12 20  1  0
 13 15  1  0
 14 20  1  0
 15 16  2  0
 15 14  1  0
 17 11  2  0
 18 17  1  0
 18 13  2  0
 19 13  1  0
 19 12  1  0
 20 10  1  0
 22 23  1  0
 22 24  2  0
 25 23  1  0
 26 35  1  0
 27 23  1  0
 27 31  1  0
 28 29  1  0
 28 27  1  0
 29 30  1  0
 30 26  1  0
 31 26  2  0
 31 32  1  0
 32 33  2  0
 33 34  1  0
 35 34  2  0
 36 10  1  0
 36 46  1  0
 37 36  1  0
 37 40  1  0
 38 37  1  0
 39 38  2  0
 42 41  1  0
 42 38  1  0
 42 44  1  0
 44 43  1  0
 45 44  1  0
 46 47  1  1
 46 49  1  0
 48 46  1  0
 50 58  1  0
 51 54  1  0
 52 51  2  0
 52 55  1  0
 53 51  1  0
 54 56  1  0
 55 56  2  0
 57 58  1  0
 57 53  2  0
 58 52  1  0
 59 53  1  0
 60 67  2  0
 61 62  1  0
 63 62  1  0
 64 73  1  0
 64 63  1  0
 65 64  1  0
 65 66  1  0
 66 60  1  0
 66 61  1  0
 68 59  1  0
 68 60  1  0
 69 68  1  0
 70 73  1  0
 71 70  2  0
 71 72  1  0
 72 74  2  0
 74 73  1  0
 75 72  1  0
 76 75  1  0
 77 76  2  0
 78 79  2  0
 78 77  1  0
 79 80  1  0
 80 75  2  0
 81 78  1  0
 82 87  1  0
 82 81  1  0
 83 82  2  0
 84 85  2  0
 84 83  1  0
 85 86  1  0
 86 87  2  0
 87 88  1  0
 89 85  1  0
 90 92  2  0
 90 71  1  0
 91 90  1  0
 93 91  1  0
 94 91  1  0
 95 70  1  0
 95 97  1  0
 96 95  1  0
M  ISO  4   8 101   9 101  60 100  68 100
M  END
>  <TORSDO>  (83) 
F 22

>  <SCORE>  (83) 
-1.306

>  <name>  (83) 
83

>  <ligand_id>  (83) 
83

>  <original_smiles>  (83) 
[H]c1c([H])c([H])c2c(c1[H])C([H])([H])C([H])([H])C([H])([H])C2([H])N([H])C(=O)C1([H])N(C(=O)C([H])(N([H])C(=O)C([H])(N([H])C([H])([H])[H])C([H])([H])[H])C(C([H])([H])[H])(C([H])([H])[H])C([H])([H])[H])C([H])([H])c2c([H])c(OC([H])([H])C([H])([H])[N+]([H])([H])C3([H])C([H])([H])C3([H])C([H])([H])n3nc(C([H])([H])N([H])C(=O)N4C([H])([H])C([H])([H])C([H])([H])C([H])(n5nc(-c6c([H])c([H])c(Oc7c([H])c([H])c(F)c([H])c7F)c([H])c6[H])c(C(=O)N([H])[H])c5N([H])[H])C4([H])[H])c4c3C([H])([H])C([H])([H])C4([H])[H])c([H])c([H])c2C1([H])[H]

>  <smiles>  (83) 
[H]c1c([H])c([H])c2c(c1[H])C([H])([H])C([H])([H])C([H])([H])C2([H])N([H])C(=O)C1([H])N(C(=O)C([H])(N([H])C(=O)C([H])(N([H])C([H])([H])[H])C([H])([H])[H])C(C([H])([H])[H])(C([H])([H])[H])C([H])([H])[H])C([H])([H])c2c([H])c(OC([H])([H])C([H])([H])[N+]([H])([H])C3([H])C([H])([H])C3([H])C([H])([H])n3nc(C([H])([H])N([H])C(=O)N4C([H])([H])C([H])([H])C([H])([H])C([H])(n5nc(-c6c([H])c([H])c(Oc7c([H])c([H])c(F)c([H])c7F)c([H])c6[H])c(C(=O)N([H])[H])c5N([H])[H])C4([H])[H])c4c3C([H])([H])C([H])([H])C4([H])[H])c([H])c([H])c2C1([H])[H]

$$$$
84:0:0
     RDKit          3D

 92101  0  0  1  0  0  0  0  0999 V2000
  -28.2580  -20.4760   20.9640 C   0  0  0  0  0  0  0  0  0  0  0  0
  -27.9360  -20.1660   18.9300 C   0  0  0  0  0  2  0  0  0  0  0  0
  -27.2410  -21.0530   19.9640 C   0  0  0  0  0  3  0  0  0  0  0  0
  -28.7380  -19.5950   20.0250 N   0  0  0  0  0  0  0  0  0  0  0  0
  -28.5470  -20.6230   22.1400 O   0  0  0  0  0  0  0  0  0  0  0  0
  -31.3000  -14.6380   19.8430 C   0  0  0  0  0  0  0  0  0  0  0  0
  -30.8350  -12.4920   18.7870 C   0  0  0  0  0  2  0  0  0  0  0  0
  -29.8210  -12.6860   17.6440 C   0  0  0  0  0  2  0  0  0  0  0  0
  -28.3840  -12.5880   18.1790 C   0  0  0  0  0  2  0  0  0  0  0  0
  -28.1390  -13.4960   19.4130 C   0  0  0  0  0  3  0  0  0  0  0  0
  -29.2540  -13.3080   20.4630 C   0  0  0  0  0  2  0  0  0  0  0  0
  -30.5530  -13.5110   19.8020 N   0  0  0  0  0  0  0  0  0  0  0  0
  -32.4510  -14.7100   19.4050 O   0  0  0  0  0  0  0  0  0  0  0  0
  -29.5680  -17.6890   18.7720 C   0  0  0  0  0  2  0  0  0  0  0  0
  -29.6910  -17.6570   21.2890 C   0  0  0  0  0  2  0  0  0  0  0  0
  -30.5990  -16.5720   18.7240 C   0  0  0  0  0  2  0  0  0  0  0  0
  -30.7480  -16.5470   21.1870 C   0  0  0  0  0  2  0  0  0  0  0  0
  -29.7500  -18.5530   20.0300 C   0  0  0  0  0  3  0  0  0  0  0  0
  -30.5850  -15.7650   19.9540 N   0  0  0  0  0  0  0  0  0  0  0  0
  -25.8230  -14.1830   20.3040 C   0  0  0  0  0  0  0  0  0  0  0  0
  -24.7500  -13.4380   20.7150 C   0  0  0  0  0  0  0  0  0  0  0  0
  -25.1500  -12.0710   20.6070 C   0  0  0  0  0  0  0  0  0  0  0  0
  -26.8140  -13.2670   19.9790 N   0  0  0  0  0  0  0  0  0  0  0  0
  -26.4160  -11.9930   20.2230 N   0  0  0  0  0  0  0  0  0  0  0  0
  -24.3880  -10.8320   20.8010 C   0  0  0  0  0  0  0  0  0  0  0  0
  -24.7670   -9.8760   21.7660 C   0  0  0  0  0  3  0  0  0  0  0  0
  -24.0020   -8.7020   21.9520 C   0  0  0  0  0  3  0  0  0  0  0  0
  -22.8440   -8.4790   21.1700 C   0  0  0  0  0  0  0  0  0  0  0  0
  -22.4840   -9.4240   20.1940 C   0  0  0  0  0  3  0  0  0  0  0  0
  -23.2490  -10.5890   20.0090 C   0  0  0  0  0  3  0  0  0  0  0  0
  -22.0560   -7.3580   21.2600 O   0  0  0  0  0  0  0  0  0  0  0  0
  -21.8460   -6.7210   22.4570 C   0  0  0  0  0  0  0  0  0  0  0  0
  -21.2700   -7.3810   23.5650 C   0  0  0  0  0  3  0  0  0  0  0  0
  -21.0110   -6.6640   24.7500 C   0  0  0  0  0  3  0  0  0  0  0  0
  -21.3180   -5.2940   24.8260 C   0  0  0  0  0  0  0  0  0  0  0  0
  -21.8900   -4.6380   23.7230 C   0  0  0  0  0  3  0  0  0  0  0  0
  -22.1480   -5.3480   22.5400 C   0  0  0  0  0  0  0  0  0  0  0  0
  -22.6780   -4.7030   21.4710 F   0  0  0  0  0  0  0  0  0  0  0  0
  -21.0630   -4.6060   25.9650 F   0  0  0  0  0  0  0  0  0  0  0  0
  -23.3950  -13.9520   21.1020 C   0  0  0  0  0  0  0  0  0  0  0  0
  -22.7100  -13.2550   22.0020 N   0  0  0  0  0  0  0  0  0  0  0  0
  -22.9550  -15.0030   20.6370 O   0  0  0  0  0  0  0  0  0  0  0  0
  -23.0770  -12.3980   22.3980 H   0  0  0  0  0  0  0  0  0  0  0  0
  -21.8010  -13.5790   22.3020 H   0  0  0  0  0  0  0  0  0  0  0  0
  -26.0320  -15.5500   20.1590 N   0  0  0  0  0  0  0  0  0  0  0  0
  -25.2950  -16.2200   20.3530 H   0  0  0  0  0  0  0  0  0  0  0  0
  -26.8890  -15.9700   19.8150 H   0  0  0  0  0  0  0  0  0  0  0  0
  -27.3430  -22.5350   19.6520 C   0  0  0  0  0  2  0  0  0  0  0  0
  -28.1700  -23.3850   20.1310 N   0  0  0  0  0  2  0  0  0  0  0  0
  -27.9710  -24.7330   19.6290 C   0  0  0  0  0  2  0  0  0  0  0  0
  -28.9170  -25.7970   20.2530 C   0  0  0  0  0  2  0  0  0  0  0  0
  -28.8540  -27.1050   19.6470 O   0  0  0  0  0  0  0  0  0  0  0  0
  -24.6010  -31.6810   23.0660 C   0  0  0  0  0  0  0  0  0  0  0  0
  -27.6370  -27.7480   19.6920 C   0  0  0  0  0  0  0  0  0  0  0  0
  -23.5390  -30.3160   21.2940 C   0  0  0  0  0  3  0  0  0  0  0  0
  -25.1360  -29.0450   19.7770 C   0  0  0  0  0  0  0  0  0  0  0  0
  -26.0300  -30.9040   21.1840 C   0  0  0  0  0  2  0  0  0  0  0  0
  -26.2360  -29.6030   20.4420 C   0  0  0  0  0  0  0  0  0  0  0  0
  -27.4940  -28.9600   20.4040 C   0  0  0  0  0  3  0  0  0  0  0  0
  -26.5320  -27.2390   18.9730 C   0  0  0  0  0  3  0  0  0  0  0  0
  -25.2750  -27.8580   19.0430 C   0  0  0  0  0  3  0  0  0  0  0  0
  -23.8290  -29.7920   19.8610 C   0  0  0  0  0  2  0  0  0  0  0  0
  -24.7360  -30.9850   21.9050 N   0  0  0  0  0  0  0  0  0  0  0  0
  -23.4920  -31.8140   23.6060 O   0  0  0  0  0  0  0  0  0  0  0  0
  -22.9810  -29.1590   22.1520 C   0  0  0  0  0  0  0  0  0  0  0  0
  -21.6800  -28.8720   21.9950 N   0  0  0  0  0  0  0  0  0  0  0  0
  -23.7170  -28.5290   22.9180 O   0  0  0  0  0  0  0  0  0  0  0  0
  -21.1450  -29.4510   21.3590 H   0  0  0  0  0  0  0  0  0  0  0  0
  -18.4040  -27.3970   22.3790 C   0  0  0  0  0  0  0  0  0  0  0  0
  -20.9370  -27.8110   22.6810 C   0  0  0  0  0  3  0  0  0  0  0  0
  -21.1320  -26.4460   21.9840 C   0  0  0  0  0  2  0  0  0  0  0  0
  -20.0610  -26.1490   20.9310 C   0  0  0  0  0  2  0  0  0  0  0  0
  -18.6770  -26.1280   21.5870 C   0  0  0  0  0  2  0  0  0  0  0  0
  -19.4680  -28.1920   22.8820 C   0  0  0  0  0  0  0  0  0  0  0  0
  -19.1630  -29.3700   23.5940 C   0  0  0  0  0  3  0  0  0  0  0  0
  -17.8300  -29.7660   23.8000 C   0  0  0  0  0  3  0  0  0  0  0  0
  -16.7780  -28.9730   23.3100 C   0  0  0  0  0  3  0  0  0  0  0  0
  -17.0680  -27.7880   22.6110 C   0  0  0  0  0  3  0  0  0  0  0  0
  -25.8250  -32.3630   23.7570 C   0  0  0  0  0  3  0  0  0  0  0  0
  -26.3490  -31.5770   25.0210 C   0  0  1  0  0  0  0  0  0  0  0  0
  -25.2390  -31.2390   26.0430 C   0  0  0  0  0  1  0  0  0  0  0  0
  -27.0350  -30.2530   24.6040 C   0  0  0  0  0  1  0  0  0  0  0  0
  -27.4190  -32.4200   25.7550 C   0  0  0  0  0  1  0  0  0  0  0  0
  -25.4240  -33.7310   24.1170 N   0  0  0  0  0  0  0  0  0  0  0  0
  -25.7110  -34.8180   23.3910 C   0  0  0  0  0  0  0  0  0  0  0  0
  -26.4120  -34.7850   22.3760 O   0  0  0  0  0  0  0  0  0  0  0  0
  -24.7890  -33.8370   24.8970 H   0  0  0  0  0  0  0  0  0  0  0  0
  -23.8750  -36.5000   23.0300 C   0  0  0  0  0  1  0  0  0  0  0  0
  -25.1230  -36.1600   23.8620 C   0  0  0  0  0  3  0  0  0  0  0  0
  -27.1710  -37.1630   24.7730 C   0  0  0  0  0  1  0  0  0  0  0  0
  -26.0860  -37.2800   23.8020 N   0  0  0  0  0  0  0  0  0  0  0  0
  -25.6120  -38.1630   23.9630 H   0  0  0  0  0  0  0  0  0  0  0  0
  1  5  2  0
  2  3  1  0
  2  4  1  0
  3 48  1  0
  3  1  1  0
  4 18  1  0
  4  1  1  0
  6 19  1  0
  7 12  1  0
  8  9  1  0
  8  7  1  0
 10  9  1  0
 10 23  1  0
 10 11  1  0
 12  6  1  0
 12 11  1  0
 13  6  2  0
 16 14  1  0
 16 19  1  0
 17 15  1  0
 18 14  1  0
 18 15  1  0
 19 17  1  0
 20 21  2  0
 21 40  1  0
 22 21  1  0
 22 25  1  0
 23 24  1  0
 23 20  1  0
 24 22  2  0
 25 26  1  0
 26 27  2  0
 28 31  1  0
 28 27  1  0
 29 28  2  0
 30 29  1  0
 30 25  2  0
 31 32  1  0
 32 37  2  0
 32 33  1  0
 33 34  2  0
 34 35  1  0
 35 39  1  0
 36 35  2  0
 37 36  1  0
 38 37  1  0
 40 41  1  0
 41 44  1  0
 41 43  1  0
 42 40  2  0
 45 20  1  0
 45 46  1  0
 47 45  1  0
 48 49  1  0
 50 49  1  0
 50 51  1  0
 52 54  1  0
 52 51  1  0
 53 64  2  0
 54 59  1  0
 55 63  1  0
 55 65  1  0
 56 62  1  0
 56 58  1  0
 57 63  1  0
 58 57  1  0
 59 58  2  0
 60 61  1  0
 60 54  2  0
 61 56  2  0
 62 55  1  0
 63 53  1  0
 65 67  2  0
 66 65  1  0
 68 66  1  0
 69 78  2  0
 69 74  1  0
 70 66  1  0
 70 74  1  0
 71 70  1  0
 72 73  1  0
 72 71  1  0
 73 69  1  0
 74 75  2  0
 75 76  1  0
 77 76  2  0
 78 77  1  0
 79 53  1  0
 79 84  1  0
 79 80  1  0
 80 83  1  1
 80 81  1  0
 82 80  1  0
 84 87  1  0
 85 89  1  0
 85 84  1  0
 86 85  2  0
 89 88  1  0
 91 89  1  0
 91 92  1  0
 91 90  1  0
M  ISO  4   6 100  19 100  51 101  52 101
M  END
>  <TORSDO>  (84) 
F 19

>  <SCORE>  (84) 
-11.521

>  <name>  (84) 
84

>  <ligand_id>  (84) 
84

>  <original_smiles>  (84) 
[H]C(=NC([H])([H])C([H])([H])Oc1c([H])c([H])c2c(c1[H])C([H])([H])N(C(=O)C([H])(N([H])C(=O)C([H])(N([H])C([H])([H])[H])C([H])([H])[H])C(C([H])([H])[H])(C([H])([H])[H])C([H])([H])[H])C([H])(C(=O)N([H])C1([H])c3c([H])c([H])c([H])c([H])c3C([H])([H])C([H])([H])C1([H])[H])C2([H])[H])C1([H])C(=O)N(C2([H])C([H])([H])C([H])([H])N(C(=O)N3C([H])([H])C([H])([H])C([H])([H])C([H])(n4nc(-c5c([H])c([H])c(Oc6c([H])c([H])c(F)c([H])c6F)c([H])c5[H])c(C(=O)N([H])[H])c4N([H])[H])C3([H])[H])C([H])([H])C2([H])[H])C1([H])[H]

>  <smiles>  (84) 
[H]C(=NC([H])([H])C([H])([H])Oc1c([H])c([H])c2c(c1[H])C([H])([H])N(C(=O)C([H])(N([H])C(=O)C([H])(N([H])C([H])([H])[H])C([H])([H])[H])C(C([H])([H])[H])(C([H])([H])[H])C([H])([H])[H])C([H])(C(=O)N([H])C1([H])c3c([H])c([H])c([H])c([H])c3C([H])([H])C([H])([H])C1([H])[H])C2([H])[H])C1([H])C(=O)N(C2([H])C([H])([H])C([H])([H])N(C(=O)N3C([H])([H])C([H])([H])C([H])([H])C([H])(n4nc(-c5c([H])c([H])c(Oc6c([H])c([H])c(F)c([H])c6F)c([H])c5[H])c(C(=O)N([H])[H])c4N([H])[H])C3([H])[H])C([H])([H])C2([H])[H])C1([H])[H]

$$$$
85:0:0
     RDKit          3D

 98108  0  0  1  0  0  0  0  0999 V2000
  -30.9050  -21.9610   19.5930 C   0  0  0  0  0  3  0  0  0  0  0  0
  -31.2030  -23.3350   19.5610 C   0  0  0  0  0  0  0  0  0  0  0  0
  -29.6070  -21.5820   19.9400 C   0  0  0  0  0  0  0  0  0  0  0  0
  -29.0670  -23.8720   20.2140 C   0  0  0  0  0  0  0  0  0  0  0  0
  -30.2890  -24.2720   19.8690 N   0  0  0  0  0  0  0  0  0  0  0  0
  -28.6960  -22.5550   20.2530 N   0  0  0  0  0  0  0  0  0  0  0  0
  -29.2040  -20.2370   19.6690 N   0  0  0  0  0  0  0  0  0  0  0  0
  -29.5190  -19.9860   18.7400 H   0  0  0  0  0  0  0  0  0  0  0  0
  -30.6590  -14.6870   20.3650 C   0  0  0  0  0  0  0  0  0  0  0  0
  -30.3590  -12.4310   19.3550 C   0  0  0  0  0  2  0  0  0  0  0  0
  -29.4280  -12.5140   18.1300 C   0  0  0  0  0  2  0  0  0  0  0  0
  -27.9620  -12.3260   18.5700 C   0  0  0  0  0  2  0  0  0  0  0  0
  -27.5850  -13.2270   19.7760 C   0  0  0  0  0  3  0  0  0  0  0  0
  -28.6530  -13.2040   20.8930 C   0  0  0  0  0  2  0  0  0  0  0  0
  -29.9540  -13.5070   20.2850 N   0  0  0  0  0  0  0  0  0  0  0  0
  -31.8560  -14.7060   20.0660 O   0  0  0  0  0  0  0  0  0  0  0  0
  -30.6780  -18.4210   20.8480 C   0  0  0  0  0  2  0  0  0  0  0  0
  -28.4470  -17.8280   19.9370 C   0  0  0  0  0  2  0  0  0  0  0  0
  -30.6420  -16.9530   21.4510 C   0  0  0  0  0  2  0  0  0  0  0  0
  -29.2710  -16.5600   19.5040 C   0  0  0  0  0  2  0  0  0  0  0  0
  -29.2690  -19.0160   20.5410 C   0  0  0  0  0  3  0  0  0  0  0  0
  -30.0040  -15.8860   20.6090 N   0  0  0  0  0  0  0  0  0  0  0  0
  -25.2110  -13.8350   20.5140 C   0  0  0  0  0  0  0  0  0  0  0  0
  -24.1430  -13.0660   20.8860 C   0  0  0  0  0  0  0  0  0  0  0  0
  -24.6050  -11.7120   20.8580 C   0  0  0  0  0  0  0  0  0  0  0  0
  -26.2500  -12.9480   20.2800 N   0  0  0  0  0  0  0  0  0  0  0  0
  -25.8950  -11.6690   20.5540 N   0  0  0  0  0  0  0  0  0  0  0  0
  -23.8790  -10.4520   21.0500 C   0  0  0  0  0  0  0  0  0  0  0  0
  -24.3230   -9.4800   21.9730 C   0  0  0  0  0  3  0  0  0  0  0  0
  -23.6000   -8.2810   22.1500 C   0  0  0  0  0  3  0  0  0  0  0  0
  -22.4180   -8.0480   21.4070 C   0  0  0  0  0  0  0  0  0  0  0  0
  -21.9930   -9.0100   20.4750 C   0  0  0  0  0  3  0  0  0  0  0  0
  -22.7160  -10.2010   20.2940 C   0  0  0  0  0  3  0  0  0  0  0  0
  -21.6640   -6.9040   21.4970 O   0  0  0  0  0  0  0  0  0  0  0  0
  -21.6400   -6.1470   22.6410 C   0  0  0  0  0  0  0  0  0  0  0  0
  -21.2510   -6.6910   23.8840 C   0  0  0  0  0  3  0  0  0  0  0  0
  -21.1730   -5.8610   25.0220 C   0  0  0  0  0  3  0  0  0  0  0  0
  -21.4720   -4.4900   24.9160 C   0  0  0  0  0  0  0  0  0  0  0  0
  -21.8550   -3.9460   23.6770 C   0  0  0  0  0  3  0  0  0  0  0  0
  -21.9360   -4.7720   22.5420 C   0  0  0  0  0  0  0  0  0  0  0  0
  -22.2860   -4.2400   21.3450 F   0  0  0  0  0  0  0  0  0  0  0  0
  -21.3900   -3.6920   26.0060 F   0  0  0  0  0  0  0  0  0  0  0  0
  -22.7470  -13.5460   21.1550 C   0  0  0  0  0  0  0  0  0  0  0  0
  -22.0180  -12.8560   22.0240 N   0  0  0  0  0  0  0  0  0  0  0  0
  -22.3120  -14.5700   20.6290 O   0  0  0  0  0  0  0  0  0  0  0  0
  -22.3800  -12.0300   22.4750 H   0  0  0  0  0  0  0  0  0  0  0  0
  -21.0800  -13.1610   22.2440 H   0  0  0  0  0  0  0  0  0  0  0  0
  -25.3770  -15.2050   20.3310 N   0  0  0  0  0  0  0  0  0  0  0  0
  -24.6140  -15.8650   20.4360 H   0  0  0  0  0  0  0  0  0  0  0  0
  -26.2360  -15.6380   20.0160 H   0  0  0  0  0  0  0  0  0  0  0  0
  -33.7910  -23.0000   18.8570 C   0  0  0  0  0  2  0  0  0  0  0  0
  -33.4720  -24.6660   20.0080 C   0  0  0  0  0  2  0  0  0  0  0  0
  -32.5510  -23.8600   19.1000 C   0  0  0  0  0  3  0  0  0  0  0  0
  -35.8740  -24.0180   19.8060 C   0  0  0  0  0  1  0  0  0  0  0  0
  -34.5660  -24.2110   19.1470 N   0  0  1  0  0  4  0  0  0  0  0  0
  -34.6480  -24.7890   18.3230 H   0  0  0  0  0  0  0  0  0  0  0  0
  -28.0480  -25.0160   20.5870 C   0  0  0  0  0  2  0  0  0  0  0  0
  -28.3110  -26.4360   20.1930 O   0  0  0  0  0  0  0  0  0  0  0  0
  -24.6220  -31.8820   23.2340 C   0  0  0  0  0  0  0  0  0  0  0  0
  -27.2070  -27.3060   20.1750 C   0  0  0  0  0  0  0  0  0  0  0  0
  -23.4060  -30.4770   21.6070 C   0  0  0  0  0  3  0  0  0  0  0  0
  -24.8440  -28.9220   20.1770 C   0  0  0  0  0  0  0  0  0  0  0  0
  -25.9410  -30.7980   21.3950 C   0  0  0  0  0  2  0  0  0  0  0  0
  -26.0190  -29.4120   20.7630 C   0  0  0  0  0  0  0  0  0  0  0  0
  -27.2050  -28.6150   20.7530 C   0  0  0  0  0  3  0  0  0  0  0  0
  -26.0150  -26.8840   19.5440 C   0  0  0  0  0  3  0  0  0  0  0  0
  -24.8450  -27.6640   19.5570 C   0  0  0  0  0  3  0  0  0  0  0  0
  -23.6080  -29.7940   20.2290 C   0  0  0  0  0  2  0  0  0  0  0  0
  -24.6770  -31.0690   22.1370 N   0  0  0  0  0  0  0  0  0  0  0  0
  -23.5420  -32.1610   23.7730 O   0  0  0  0  0  0  0  0  0  0  0  0
  -22.7490  -29.4660   22.5760 C   0  0  0  0  0  0  0  0  0  0  0  0
  -21.4230  -29.2880   22.4580 N   0  0  0  0  0  0  0  0  0  0  0  0
  -23.4330  -28.8430   23.3930 O   0  0  0  0  0  0  0  0  0  0  0  0
  -20.9310  -29.8430   21.7710 H   0  0  0  0  0  0  0  0  0  0  0  0
  -18.0490  -28.0850   22.9720 C   0  0  0  0  0  0  0  0  0  0  0  0
  -20.6080  -28.3540   23.2370 C   0  0  0  0  0  3  0  0  0  0  0  0
  -20.7130  -26.9190   22.6700 C   0  0  0  0  0  2  0  0  0  0  0  0
  -19.6110  -26.5860   21.6600 C   0  0  0  0  0  2  0  0  0  0  0  0
  -18.2290  -26.7320   22.3060 C   0  0  0  0  0  2  0  0  0  0  0  0
  -19.1670  -28.8540   23.3950 C   0  0  0  0  0  0  0  0  0  0  0  0
  -18.9460  -30.1190   23.9820 C   0  0  0  0  0  3  0  0  0  0  0  0
  -17.6400  -30.6200   24.1450 C   0  0  0  0  0  3  0  0  0  0  0  0
  -16.5380  -29.8480   23.7370 C   0  0  0  0  0  3  0  0  0  0  0  0
  -16.7430  -28.5830   23.1600 C   0  0  0  0  0  3  0  0  0  0  0  0
  -25.9080  -32.5170   23.8450 C   0  0  0  0  0  3  0  0  0  0  0  0
  -25.5990  -33.9130   24.1850 N   0  0  0  0  0  0  0  0  0  0  0  0
  -25.9210  -34.9700   23.4280 C   0  0  0  0  0  0  0  0  0  0  0  0
  -26.5800  -34.8730   22.3890 O   0  0  0  0  0  0  0  0  0  0  0  0
  -25.0120  -34.0600   24.9930 H   0  0  0  0  0  0  0  0  0  0  0  0
  -24.1850  -36.7590   23.1000 C   0  0  0  0  0  1  0  0  0  0  0  0
  -25.4360  -36.3560   23.8950 C   0  0  0  0  0  3  0  0  0  0  0  0
  -27.5830  -37.2380   24.6990 C   0  0  0  0  0  1  0  0  0  0  0  0
  -26.4660  -37.4120   23.7740 N   0  0  0  0  0  0  0  0  0  0  0  0
  -26.0620  -38.3310   23.9340 H   0  0  0  0  0  0  0  0  0  0  0  0
  -26.4400  -31.7390   25.1090 C   0  0  1  0  0  0  0  0  0  0  0  0
  -25.3590  -31.4930   26.1880 C   0  0  0  0  0  1  0  0  0  0  0  0
  -27.0170  -30.3640   24.6980 C   0  0  0  0  0  1  0  0  0  0  0  0
  -27.6040  -32.5250   25.7580 C   0  0  0  0  0  1  0  0  0  0  0  0
  1  3  1  0
  2  1  2  0
  2  5  1  0
  3  6  2  0
  4  6  1  0
  4 57  1  0
  5  4  2  0
  7  3  1  0
  8  7  1  0
  9 22  1  0
 10 15  1  0
 11 12  1  0
 11 10  1  0
 13 12  1  0
 13 26  1  0
 13 14  1  0
 15  9  1  0
 15 14  1  0
 16  9  2  0
 17 19  1  0
 18 21  1  0
 20 18  1  0
 20 22  1  0
 21  7  1  0
 21 17  1  0
 22 19  1  0
 23 24  2  0
 24 43  1  0
 25 24  1  0
 25 28  1  0
 26 23  1  0
 26 27  1  0
 27 25  2  0
 28 29  1  0
 29 30  2  0
 31 34  1  0
 31 30  1  0
 32 31  2  0
 33 32  1  0
 33 28  2  0
 34 35  1  0
 35 36  1  0
 36 37  2  0
 38 37  1  0
 38 42  1  0
 39 38  2  0
 40 35  2  0
 40 39  1  0
 41 40  1  0
 43 44  1  0
 44 47  1  0
 44 46  1  0
 45 43  2  0
 48 49  1  0
 48 23  1  0
 50 48  1  0
 51 53  1  0
 51 55  1  0
 53  2  1  0
 53 52  1  0
 55 54  1  0
 55 52  1  0
 55 56  1  6
 58 57  1  0
 59 70  2  0
 60 58  1  0
 60 65  1  0
 61 69  1  0
 61 71  1  0
 62 68  1  0
 62 64  1  0
 63 69  1  0
 64 63  1  0
 65 64  2  0
 66 67  1  0
 66 60  2  0
 67 62  2  0
 68 61  1  0
 69 59  1  0
 71 73  2  0
 72 71  1  0
 74 72  1  0
 75 84  2  0
 75 80  1  0
 76 72  1  0
 76 80  1  0
 77 76  1  0
 78 79  1  0
 78 77  1  0
 79 75  1  0
 80 81  2  0
 81 82  1  0
 83 82  2  0
 84 83  1  0
 85 59  1  0
 85 86  1  0
 85 95  1  0
 86 89  1  0
 87 91  1  0
 87 86  1  0
 88 87  2  0
 91 90  1  0
 93 91  1  0
 93 94  1  0
 93 92  1  0
 95 98  1  1
 95 96  1  0
 97 95  1  0
M  ISO  4   9 100  22 100  57 101  58 101
M  END
>  <TORSDO>  (85) 
F 18

>  <SCORE>  (85) 
-14.836

>  <name>  (85) 
85

>  <ligand_id>  (85) 
85

>  <original_smiles>  (85) 
[H]c1c(N([H])C2([H])C([H])([H])C([H])([H])N(C(=O)N3C([H])([H])C([H])([H])C([H])([H])C([H])(n4nc(-c5c([H])c([H])c(Oc6c([H])c([H])c(F)c([H])c6F)c([H])c5[H])c(C(=O)N([H])[H])c4N([H])[H])C3([H])[H])C([H])([H])C2([H])[H])nc(C([H])([H])Oc2c([H])c([H])c3c(c2[H])C([H])([H])N(C(=O)C([H])(N([H])C(=O)C([H])(N([H])C([H])([H])[H])C([H])([H])[H])C(C([H])([H])[H])(C([H])([H])[H])C([H])([H])[H])C([H])(C(=O)N([H])C2([H])c4c([H])c([H])c([H])c([H])c4C([H])([H])C([H])([H])C2([H])[H])C3([H])[H])nc1C1([H])C([H])([H])[N+]([H])(C([H])([H])[H])C1([H])[H]

>  <smiles>  (85) 
[H]c1c(N([H])C2([H])C([H])([H])C([H])([H])N(C(=O)N3C([H])([H])C([H])([H])C([H])([H])C([H])(n4nc(-c5c([H])c([H])c(Oc6c([H])c([H])c(F)c([H])c6F)c([H])c5[H])c(C(=O)N([H])[H])c4N([H])[H])C3([H])[H])C([H])([H])C2([H])[H])nc(C([H])([H])Oc2c([H])c([H])c3c(c2[H])C([H])([H])N(C(=O)C([H])(N([H])C(=O)C([H])(N([H])C([H])([H])[H])C([H])([H])[H])C(C([H])([H])[H])(C([H])([H])[H])C([H])([H])[H])C([H])(C(=O)N([H])C2([H])c4c([H])c([H])c([H])c([H])c4C([H])([H])C([H])([H])C2([H])[H])C3([H])[H])nc1C1([H])C([H])([H])[N+]([H])(C([H])([H])[H])C1([H])[H]

$$$$
86:0:0
     RDKit          3D

 93102  0  0  1  0  0  0  0  0999 V2000
  -30.8290  -14.5310   20.3350 C   0  0  0  0  0  0  0  0  0  0  0  0
  -30.5350  -12.2790   19.3660 C   0  0  0  0  0  2  0  0  0  0  0  0
  -29.6180  -12.3820   18.1290 C   0  0  0  0  0  2  0  0  0  0  0  0
  -28.1360  -12.2790   18.5400 C   0  0  0  0  0  2  0  0  0  0  0  0
  -27.7740  -13.1970   19.7390 C   0  0  0  0  0  3  0  0  0  0  0  0
  -28.8170  -13.0850   20.8750 C   0  0  0  0  0  2  0  0  0  0  0  0
  -30.1400  -13.3540   20.2930 N   0  0  0  0  0  0  0  0  0  0  0  0
  -32.0130  -14.5890   19.9850 O   0  0  0  0  0  0  0  0  0  0  0  0
  -29.4950  -20.8150   21.5790 C   0  0  0  0  0  3  0  0  0  0  0  0
  -29.4660  -22.2360   21.5050 C   0  0  0  0  0  0  0  0  0  0  0  0
  -29.4920  -22.8220   20.2140 C   0  0  0  0  0  0  0  0  0  0  0  0
  -29.5200  -20.0540   20.3840 C   0  0  0  0  0  0  0  0  0  0  0  0
  -29.3970  -17.8460   19.1560 C   0  0  0  0  0  2  0  0  0  0  0  0
  -29.8170  -17.8580   21.6160 C   0  0  0  0  0  2  0  0  0  0  0  0
  -30.3000  -16.5910   19.1420 C   0  0  0  0  0  2  0  0  0  0  0  0
  -29.5300  -16.3240   21.4930 C   0  0  0  0  0  2  0  0  0  0  0  0
  -29.4970  -22.0450   19.0970 N   0  0  0  0  0  0  0  0  0  0  0  0
  -29.4980  -20.7020   19.1860 N   0  0  0  0  0  0  0  0  0  0  0  0
  -29.5800  -18.6250   20.3820 N   0  0  0  0  0  0  0  0  0  0  0  0
  -30.0790  -15.6730   20.2830 N   0  0  0  0  0  0  0  0  0  0  0  0
  -25.3830  -13.8440   20.4270 C   0  0  0  0  0  0  0  0  0  0  0  0
  -24.2990  -13.0910   20.7940 C   0  0  0  0  0  0  0  0  0  0  0  0
  -24.7380  -11.7330   20.7820 C   0  0  0  0  0  0  0  0  0  0  0  0
  -26.4160  -12.9440   20.2160 N   0  0  0  0  0  0  0  0  0  0  0  0
  -26.0320  -11.6700   20.4900 N   0  0  0  0  0  0  0  0  0  0  0  0
  -23.9890  -10.4840   20.9790 C   0  0  0  0  0  0  0  0  0  0  0  0
  -24.3920   -9.5230   21.9310 C   0  0  0  0  0  3  0  0  0  0  0  0
  -23.6470   -8.3380   22.1140 C   0  0  0  0  0  3  0  0  0  0  0  0
  -22.4810   -8.1070   21.3450 C   0  0  0  0  0  0  0  0  0  0  0  0
  -22.0970   -9.0580   20.3830 C   0  0  0  0  0  3  0  0  0  0  0  0
  -22.8440  -10.2330   20.1990 C   0  0  0  0  0  3  0  0  0  0  0  0
  -21.7060   -6.9770   21.4370 O   0  0  0  0  0  0  0  0  0  0  0  0
  -21.6230   -6.2550   22.6000 C   0  0  0  0  0  0  0  0  0  0  0  0
  -21.1810   -6.8380   23.8090 C   0  0  0  0  0  3  0  0  0  0  0  0
  -21.0440   -6.0420   24.9630 C   0  0  0  0  0  3  0  0  0  0  0  0
  -21.3360   -4.6670   24.9120 C   0  0  0  0  0  0  0  0  0  0  0  0
  -21.7710   -4.0840   23.7090 C   0  0  0  0  0  3  0  0  0  0  0  0
  -21.9130   -4.8770   22.5560 C   0  0  0  0  0  0  0  0  0  0  0  0
  -22.3120   -4.3060   21.3940 F   0  0  0  0  0  0  0  0  0  0  0  0
  -21.1970   -3.9020   26.0210 F   0  0  0  0  0  0  0  0  0  0  0  0
  -22.9070  -13.5950   21.0470 C   0  0  0  0  0  0  0  0  0  0  0  0
  -22.1610  -12.9250   21.9180 N   0  0  0  0  0  0  0  0  0  0  0  0
  -22.4890  -14.6180   20.5080 O   0  0  0  0  0  0  0  0  0  0  0  0
  -22.5110  -12.0970   22.3770 H   0  0  0  0  0  0  0  0  0  0  0  0
  -21.2280  -13.2480   22.1310 H   0  0  0  0  0  0  0  0  0  0  0  0
  -25.5730  -15.2090   20.2350 N   0  0  0  0  0  0  0  0  0  0  0  0
  -24.8190  -15.8820   20.3330 H   0  0  0  0  0  0  0  0  0  0  0  0
  -26.4410  -15.6270   19.9250 H   0  0  0  0  0  0  0  0  0  0  0  0
  -29.5100  -22.4660   23.8990 C   0  0  0  0  0  1  0  0  0  0  0  0
  -29.4370  -23.0660   22.6110 O   0  0  0  0  0  0  0  0  0  0  0  0
  -29.6450  -24.3520   20.0120 C   0  0  0  0  0  2  0  0  0  0  0  0
  -28.3610  -25.1470   19.6380 C   0  0  0  0  0  2  0  0  0  0  0  0
  -28.5150  -26.5960   19.6750 O   0  0  0  0  0  0  0  0  0  0  0  0
  -24.6800  -31.5830   23.0560 C   0  0  0  0  0  0  0  0  0  0  0  0
  -27.3500  -27.3570   19.6820 C   0  0  0  0  0  0  0  0  0  0  0  0
  -23.4810  -30.2830   21.3310 C   0  0  0  0  0  3  0  0  0  0  0  0
  -24.9430  -28.8650   19.7930 C   0  0  0  0  0  0  0  0  0  0  0  0
  -26.0040  -30.6830   21.1390 C   0  0  0  0  0  2  0  0  0  0  0  0
  -26.1030  -29.3580   20.4000 C   0  0  0  0  0  0  0  0  0  0  0  0
  -27.3120  -28.6180   20.3310 C   0  0  0  0  0  3  0  0  0  0  0  0
  -26.1660  -26.8910   19.0650 C   0  0  0  0  0  3  0  0  0  0  0  0
  -24.9720  -27.6340   19.1180 C   0  0  0  0  0  3  0  0  0  0  0  0
  -23.6880  -29.7040   19.9070 C   0  0  0  0  0  2  0  0  0  0  0  0
  -24.7410  -30.8600   21.9000 N   0  0  0  0  0  0  0  0  0  0  0  0
  -23.6010  -31.8040   23.6200 O   0  0  0  0  0  0  0  0  0  0  0  0
  -22.8470  -29.1910   22.2230 C   0  0  0  0  0  0  0  0  0  0  0  0
  -21.5210  -29.0180   22.1100 N   0  0  0  0  0  0  0  0  0  0  0  0
  -23.5480  -28.5050   22.9720 O   0  0  0  0  0  0  0  0  0  0  0  0
  -21.0160  -29.6240   21.4790 H   0  0  0  0  0  0  0  0  0  0  0  0
  -18.1540  -27.8040   22.6130 C   0  0  0  0  0  0  0  0  0  0  0  0
  -20.7200  -28.0220   22.8230 C   0  0  0  0  0  3  0  0  0  0  0  0
  -20.7920  -26.6450   22.1230 C   0  0  0  0  0  2  0  0  0  0  0  0
  -19.6550  -26.4190   21.1210 C   0  0  0  0  0  2  0  0  0  0  0  0
  -18.2960  -26.5170   21.8190 C   0  0  0  0  0  2  0  0  0  0  0  0
  -19.2930  -28.5180   23.0710 C   0  0  0  0  0  0  0  0  0  0  0  0
  -19.1050  -29.7270   23.7740 C   0  0  0  0  0  3  0  0  0  0  0  0
  -17.8110  -30.2220   24.0250 C   0  0  0  0  0  3  0  0  0  0  0  0
  -16.6870  -29.5020   23.5830 C   0  0  0  0  0  3  0  0  0  0  0  0
  -16.8590  -28.2960   22.8820 C   0  0  0  0  0  3  0  0  0  0  0  0
  -25.9620  -32.1870   23.7100 C   0  0  0  0  0  3  0  0  0  0  0  0
  -25.6430  -33.5620   24.1180 N   0  0  0  0  0  0  0  0  0  0  0  0
  -25.9480  -34.6570   23.4090 C   0  0  0  0  0  0  0  0  0  0  0  0
  -26.6000  -34.6160   22.3600 O   0  0  0  0  0  0  0  0  0  0  0  0
  -25.0550  -33.6660   24.9320 H   0  0  0  0  0  0  0  0  0  0  0  0
  -24.1830  -36.4350   23.1920 C   0  0  0  0  0  1  0  0  0  0  0  0
  -25.4540  -36.0130   23.9470 C   0  0  0  0  0  3  0  0  0  0  0  0
  -27.6000  -36.8910   24.7530 C   0  0  0  0  0  1  0  0  0  0  0  0
  -26.4650  -37.0890   23.8560 N   0  0  0  0  0  0  0  0  0  0  0  0
  -26.0500  -37.9920   24.0630 H   0  0  0  0  0  0  0  0  0  0  0  0
  -26.4850  -31.3490   24.9410 C   0  0  1  0  0  0  0  0  0  0  0  0
  -25.3980  -31.0540   26.0010 C   0  0  0  0  0  1  0  0  0  0  0  0
  -27.0670  -29.9960   24.4710 C   0  0  0  0  0  1  0  0  0  0  0  0
  -27.6360  -32.1110   25.6400 C   0  0  0  0  0  1  0  0  0  0  0  0
  2  7  1  0
  3  4  1  0
  3  2  1  0
  5  4  1  0
  5 24  1  0
  5  6  1  0
  7  1  1  0
  7  6  1  0
  8  1  2  0
 10  9  1  0
 10 50  1  0
 11 10  2  0
 12  9  2  0
 13 19  1  0
 15 13  1  0
 15 20  1  0
 16 14  1  0
 17 18  2  0
 17 11  1  0
 18 12  1  0
 19 12  1  0
 19 14  1  0
 20  1  1  0
 20 16  1  0
 21 22  2  0
 22 41  1  0
 23 22  1  0
 23 26  1  0
 24 21  1  0
 24 25  1  0
 25 23  2  0
 26 27  1  0
 27 28  2  0
 29 32  1  0
 29 28  1  0
 30 29  2  0
 31 30  1  0
 31 26  2  0
 32 33  1  0
 33 34  1  0
 34 35  2  0
 36 35  1  0
 36 40  1  0
 37 36  2  0
 38 33  2  0
 38 37  1  0
 39 38  1  0
 41 42  1  0
 42 45  1  0
 42 44  1  0
 43 41  2  0
 46 47  1  0
 46 21  1  0
 48 46  1  0
 50 49  1  0
 51 11  1  0
 52 53  1  0
 52 51  1  0
 53 55  1  0
 54 65  2  0
 55 60  1  0
 56 64  1  0
 56 66  1  0
 57 63  1  0
 57 59  1  0
 58 64  1  0
 59 58  1  0
 60 59  2  0
 61 62  1  0
 61 55  2  0
 62 57  2  0
 63 56  1  0
 64 54  1  0
 66 68  2  0
 67 66  1  0
 69 67  1  0
 70 79  2  0
 70 75  1  0
 71 67  1  0
 71 75  1  0
 72 71  1  0
 73 74  1  0
 73 72  1  0
 74 70  1  0
 75 76  2  0
 76 77  1  0
 78 77  2  0
 79 78  1  0
 80 54  1  0
 80 81  1  0
 80 90  1  0
 81 84  1  0
 82 86  1  0
 82 81  1  0
 83 82  2  0
 86 85  1  0
 88 86  1  0
 88 89  1  0
 88 87  1  0
 90 93  1  1
 90 91  1  0
 92 90  1  0
M  ISO  4   1 100  20 100  52 101  53 101
M  END
>  <TORSDO>  (86) 
F 18

>  <SCORE>  (86) 
-13.732

>  <name>  (86) 
86

>  <ligand_id>  (86) 
86

>  <original_smiles>  (86) 
[H]c1c([H])c([H])c2c(c1[H])C([H])([H])C([H])([H])C([H])([H])C2([H])N([H])C(=O)C1([H])N(C(=O)C([H])(N([H])C(=O)C([H])(N([H])C([H])([H])[H])C([H])([H])[H])C(C([H])([H])[H])(C([H])([H])[H])C([H])([H])[H])C([H])([H])c2c([H])c(OC([H])([H])C([H])([H])c3nnc(N4C([H])([H])C([H])([H])N(C(=O)N5C([H])([H])C([H])([H])C([H])([H])C([H])(n6nc(-c7c([H])c([H])c(Oc8c([H])c([H])c(F)c([H])c8F)c([H])c7[H])c(C(=O)N([H])[H])c6N([H])[H])C5([H])[H])C([H])([H])C4([H])[H])c([H])c3OC([H])([H])[H])c([H])c([H])c2C1([H])[H]

>  <smiles>  (86) 
[H]c1c([H])c([H])c2c(c1[H])C([H])([H])C([H])([H])C([H])([H])C2([H])N([H])C(=O)C1([H])N(C(=O)C([H])(N([H])C(=O)C([H])(N([H])C([H])([H])[H])C([H])([H])[H])C(C([H])([H])[H])(C([H])([H])[H])C([H])([H])[H])C([H])([H])c2c([H])c(OC([H])([H])C([H])([H])c3nnc(N4C([H])([H])C([H])([H])N(C(=O)N5C([H])([H])C([H])([H])C([H])([H])C([H])(n6nc(-c7c([H])c([H])c(Oc8c([H])c([H])c(F)c([H])c8F)c([H])c7[H])c(C(=O)N([H])[H])c6N([H])[H])C5([H])[H])C([H])([H])C4([H])[H])c([H])c3OC([H])([H])[H])c([H])c([H])c2C1([H])[H]

$$$$
87:0:0
     RDKit          3D

 94103  0  0  1  0  0  0  0  0999 V2000
  -29.2490  -20.9960   19.4860 C   0  0  0  0  0  3  0  0  0  0  0  0
  -28.8440  -19.8250   20.1760 C   0  0  0  0  0  0  0  0  0  0  0  0
  -28.4940  -22.1650   19.7130 C   0  0  0  0  0  0  0  0  0  0  0  0
  -27.7640  -19.8680   20.9910 N   0  0  0  0  0  0  0  0  0  0  0  0
  -27.4350  -22.1430   20.5510 N   0  0  0  0  0  0  0  0  0  0  0  0
  -27.0880  -21.0070   21.1660 N   0  0  0  0  0  0  0  0  0  0  0  0
  -28.7990  -23.3660   19.0370 N   0  0  0  0  0  0  0  0  0  0  0  0
  -29.5300  -23.2800   18.3360 H   0  0  0  0  0  0  0  0  0  0  0  0
  -31.6910  -14.9380   19.7600 C   0  0  0  0  0  0  0  0  0  0  0  0
  -31.4340  -12.6360   18.9320 C   0  0  0  0  0  2  0  0  0  0  0  0
  -30.4310  -12.6480   17.7600 C   0  0  0  0  0  2  0  0  0  0  0  0
  -28.9820  -12.5280   18.2790 C   0  0  0  0  0  2  0  0  0  0  0  0
  -28.6700  -13.5200   19.4310 C   0  0  0  0  0  3  0  0  0  0  0  0
  -29.7790  -13.4730   20.5040 C   0  0  0  0  0  2  0  0  0  0  0  0
  -31.0640  -13.7350   19.8360 N   0  0  0  0  0  0  0  0  0  0  0  0
  -32.8130  -15.0740   19.2580 O   0  0  0  0  0  0  0  0  0  0  0  0
  -30.4350  -18.3370   18.9480 C   0  0  0  0  0  2  0  0  0  0  0  0
  -29.4850  -17.6150   21.1690 C   0  0  0  0  0  2  0  0  0  0  0  0
  -30.6390  -16.8330   18.6720 C   0  0  0  0  0  2  0  0  0  0  0  0
  -30.7290  -16.7010   21.1620 C   0  0  0  0  0  2  0  0  0  0  0  0
  -29.5170  -18.5800   20.0620 N   0  0  0  0  0  0  0  0  0  0  0  0
  -30.8700  -16.0050   19.8750 N   0  0  0  0  0  0  0  0  0  0  0  0
  -26.3760  -14.1990   20.3750 C   0  0  0  0  0  0  0  0  0  0  0  0
  -25.3050  -13.4560   20.7910 C   0  0  0  0  0  0  0  0  0  0  0  0
  -25.6910  -12.0890   20.6430 C   0  0  0  0  0  0  0  0  0  0  0  0
  -27.3510  -13.2840   20.0070 N   0  0  0  0  0  0  0  0  0  0  0  0
  -26.9460  -12.0080   20.2220 N   0  0  0  0  0  0  0  0  0  0  0  0
  -24.9220  -10.8520   20.8220 C   0  0  0  0  0  0  0  0  0  0  0  0
  -25.2590   -9.9120   21.8200 C   0  0  0  0  0  3  0  0  0  0  0  0
  -24.4930   -8.7380   21.9860 C   0  0  0  0  0  3  0  0  0  0  0  0
  -23.3760   -8.4970   21.1520 C   0  0  0  0  0  0  0  0  0  0  0  0
  -23.0590   -9.4240   20.1440 C   0  0  0  0  0  3  0  0  0  0  0  0
  -23.8260  -10.5900   19.9770 C   0  0  0  0  0  3  0  0  0  0  0  0
  -22.5920   -7.3710   21.2230 O   0  0  0  0  0  0  0  0  0  0  0  0
  -22.2620   -6.7990   22.4240 C   0  0  0  0  0  0  0  0  0  0  0  0
  -21.5590   -7.5110   23.4200 C   0  0  0  0  0  3  0  0  0  0  0  0
  -21.1780   -6.8640   24.6120 C   0  0  0  0  0  3  0  0  0  0  0  0
  -21.4870   -5.5050   24.8070 C   0  0  0  0  0  0  0  0  0  0  0  0
  -22.1800   -4.7910   23.8130 C   0  0  0  0  0  3  0  0  0  0  0  0
  -22.5630   -5.4360   22.6240 C   0  0  0  0  0  0  0  0  0  0  0  0
  -23.2130   -4.7380   21.6610 F   0  0  0  0  0  0  0  0  0  0  0  0
  -21.1140   -4.8800   25.9480 F   0  0  0  0  0  0  0  0  0  0  0  0
  -23.9610  -13.9790   21.2130 C   0  0  0  0  0  0  0  0  0  0  0  0
  -23.2990  -13.2870   22.1320 N   0  0  0  0  0  0  0  0  0  0  0  0
  -23.5160  -15.0340   20.7640 O   0  0  0  0  0  0  0  0  0  0  0  0
  -23.6760  -12.4330   22.5150 H   0  0  0  0  0  0  0  0  0  0  0  0
  -22.4020  -13.6180   22.4590 H   0  0  0  0  0  0  0  0  0  0  0  0
  -26.6010  -15.5680   20.2650 N   0  0  0  0  0  0  0  0  0  0  0  0
  -25.8950  -16.2590   20.4960 H   0  0  0  0  0  0  0  0  0  0  0  0
  -27.4610  -15.9760   19.9200 H   0  0  0  0  0  0  0  0  0  0  0  0
  -27.4340  -24.9350   20.4520 C   0  0  0  0  0  1  0  0  0  0  0  0
  -28.7650  -24.6810   19.6990 C   0  0  0  0  0  3  0  0  0  0  0  0
  -29.1080  -25.8000   18.6460 C   0  0  0  0  0  2  0  0  0  0  0  0
  -28.8000  -27.2160   18.5250 O   0  0  0  0  0  0  0  0  0  0  0  0
  -24.6530  -31.1670   22.7300 C   0  0  0  0  0  0  0  0  0  0  0  0
  -27.5250  -27.7480   18.6930 C   0  0  0  0  0  0  0  0  0  0  0  0
  -23.4850  -29.9530   20.9190 C   0  0  0  0  0  3  0  0  0  0  0  0
  -24.9800  -28.9180   19.1350 C   0  0  0  0  0  0  0  0  0  0  0  0
  -25.9290  -30.6660   20.6480 C   0  0  0  0  0  2  0  0  0  0  0  0
  -26.1150  -29.4640   19.7450 C   0  0  0  0  0  0  0  0  0  0  0  0
  -27.3870  -28.8900   19.5150 C   0  0  0  0  0  3  0  0  0  0  0  0
  -26.3630  -27.2240   18.0730 C   0  0  0  0  0  3  0  0  0  0  0  0
  -25.0990  -27.7990   18.2960 C   0  0  0  0  0  3  0  0  0  0  0  0
  -23.6530  -29.5810   19.4230 C   0  0  0  0  0  2  0  0  0  0  0  0
  -24.7090  -30.6020   21.4900 N   0  0  0  0  0  0  0  0  0  0  0  0
  -23.5940  -31.1890   23.3740 O   0  0  0  0  0  0  0  0  0  0  0  0
  -23.0420  -28.6940   21.6950 C   0  0  0  0  0  0  0  0  0  0  0  0
  -21.7510  -28.3450   21.5740 N   0  0  0  0  0  0  0  0  0  0  0  0
  -23.8510  -28.0420   22.3610 O   0  0  0  0  0  0  0  0  0  0  0  0
  -21.1540  -28.9290   21.0070 H   0  0  0  0  0  0  0  0  0  0  0  0
  -18.6080  -26.6050   21.9490 C   0  0  0  0  0  0  0  0  0  0  0  0
  -21.1150  -27.1800   22.1890 C   0  0  0  0  0  3  0  0  0  0  0  0
  -21.3850  -25.9020   21.3600 C   0  0  0  0  0  2  0  0  0  0  0  0
  -20.2820  -25.6010   20.3400 C   0  0  0  0  0  2  0  0  0  0  0  0
  -18.9340  -25.4290   21.0490 C   0  0  0  0  0  2  0  0  0  0  0  0
  -19.6300  -27.4350   22.4780 C   0  0  0  0  0  0  0  0  0  0  0  0
  -19.2690  -28.5310   23.2910 C   0  0  0  0  0  3  0  0  0  0  0  0
  -17.9170  -28.7980   23.5800 C   0  0  0  0  0  3  0  0  0  0  0  0
  -16.9090  -27.9660   23.0630 C   0  0  0  0  0  3  0  0  0  0  0  0
  -17.2560  -26.8710   22.2530 C   0  0  0  0  0  3  0  0  0  0  0  0
  -25.9040  -31.8290   23.3860 C   0  0  0  0  0  3  0  0  0  0  0  0
  -25.4750  -33.1140   23.9550 N   0  0  0  0  0  0  0  0  0  0  0  0
  -25.6890  -34.3060   23.3860 C   0  0  0  0  0  0  0  0  0  0  0  0
  -26.3400  -34.4460   22.3460 O   0  0  0  0  0  0  0  0  0  0  0  0
  -24.8950  -33.0700   24.7810 H   0  0  0  0  0  0  0  0  0  0  0  0
  -23.8110  -35.9800   23.3380 C   0  0  0  0  0  1  0  0  0  0  0  0
  -25.0840  -35.5440   24.0800 C   0  0  0  0  0  3  0  0  0  0  0  0
  -27.1350  -36.4460   25.0840 C   0  0  0  0  0  1  0  0  0  0  0  0
  -26.0200  -36.6840   24.1710 N   0  0  0  0  0  0  0  0  0  0  0  0
  -25.5380  -37.5270   24.4690 H   0  0  0  0  0  0  0  0  0  0  0  0
  -26.5810  -30.9280   24.4910 C   0  0  1  0  0  0  0  0  0  0  0  0
  -25.5930  -30.4020   25.5580 C   0  0  0  0  0  1  0  0  0  0  0  0
  -27.2740  -29.7040   23.8490 C   0  0  0  0  0  1  0  0  0  0  0  0
  -27.6840  -31.7310   25.2210 C   0  0  0  0  0  1  0  0  0  0  0  0
  1  3  2  0
  1  2  1  0
  2  4  2  0
  3  5  1  0
  4  6  1  0
  5  6  2  0
  7 52  1  0
  7  3  1  0
  8  7  1  0
  9 15  1  0
  9 22  1  0
 10 15  1  0
 11 12  1  0
 11 10  1  0
 13 12  1  0
 13 26  1  0
 13 14  1  0
 15 14  1  0
 16  9  2  0
 17 21  1  0
 19 17  1  0
 19 22  1  0
 20 18  1  0
 21  2  1  0
 21 18  1  0
 22 20  1  0
 23 24  2  0
 24 43  1  0
 25 24  1  0
 25 28  1  0
 26 27  1  0
 26 23  1  0
 27 25  2  0
 28 29  1  0
 29 30  2  0
 31 34  1  0
 31 30  1  0
 32 31  2  0
 33 32  1  0
 33 28  2  0
 34 35  1  0
 35 40  2  0
 35 36  1  0
 36 37  2  0
 37 38  1  0
 38 42  1  0
 39 38  2  0
 40 39  1  0
 41 40  1  0
 43 44  1  0
 44 47  1  0
 44 46  1  0
 45 43  2  0
 48 23  1  0
 48 49  1  0
 50 48  1  0
 52 51  1  0
 53 52  1  0
 54 53  1  0
 54 56  1  0
 55 66  2  0
 56 61  1  0
 57 65  1  0
 57 67  1  0
 58 64  1  0
 58 60  1  0
 59 65  1  0
 60 59  1  0
 61 60  2  0
 62 63  1  0
 62 56  2  0
 63 58  2  0
 64 57  1  0
 65 55  1  0
 67 69  2  0
 68 67  1  0
 70 68  1  0
 71 80  2  0
 71 76  1  0
 72 68  1  0
 72 76  1  0
 73 72  1  0
 74 75  1  0
 74 73  1  0
 75 71  1  0
 76 77  2  0
 77 78  1  0
 79 78  2  0
 80 79  1  0
 81 55  1  0
 81 82  1  0
 81 91  1  0
 82 85  1  0
 83 82  1  0
 83 87  1  0
 84 83  2  0
 87 86  1  0
 87 89  1  0
 89 90  1  0
 89 88  1  0
 91 94  1  1
 91 92  1  0
 93 91  1  0
M  ISO  4   9 100  22 100  53 101  54 101
M  END
>  <TORSDO>  (87) 
F 18

>  <SCORE>  (87) 
-8.182

>  <name>  (87) 
87

>  <ligand_id>  (87) 
87

>  <original_smiles>  (87) 
[H]c1c(N2C([H])([H])C([H])([H])N(C(=O)N3C([H])([H])C([H])([H])C([H])([H])C([H])(n4nc(-c5c([H])c([H])c(Oc6c([H])c([H])c(F)c([H])c6F)c([H])c5[H])c(C(=O)N([H])[H])c4N([H])[H])C3([H])[H])C([H])([H])C2([H])[H])nnnc1N([H])C([H])(C([H])([H])[H])C([H])([H])Oc1c([H])c([H])c2c(c1[H])C([H])([H])N(C(=O)C([H])(N([H])C(=O)C([H])(N([H])C([H])([H])[H])C([H])([H])[H])C(C([H])([H])[H])(C([H])([H])[H])C([H])([H])[H])C([H])(C(=O)N([H])C1([H])c3c([H])c([H])c([H])c([H])c3C([H])([H])C([H])([H])C1([H])[H])C2([H])[H]

>  <smiles>  (87) 
[H]c1c(N2C([H])([H])C([H])([H])N(C(=O)N3C([H])([H])C([H])([H])C([H])([H])C([H])(n4nc(-c5c([H])c([H])c(Oc6c([H])c([H])c(F)c([H])c6F)c([H])c5[H])c(C(=O)N([H])[H])c4N([H])[H])C3([H])[H])C([H])([H])C2([H])[H])nnnc1N([H])C([H])(C([H])([H])[H])C([H])([H])Oc1c([H])c([H])c2c(c1[H])C([H])([H])N(C(=O)C([H])(N([H])C(=O)C([H])(N([H])C([H])([H])[H])C([H])([H])[H])C(C([H])([H])[H])(C([H])([H])[H])C([H])([H])[H])C([H])(C(=O)N([H])C1([H])c3c([H])c([H])c([H])c([H])c3C([H])([H])C([H])([H])C1([H])[H])C2([H])[H]

$$$$
88:0:0
     RDKit          3D

 96106  0  0  1  0  0  0  0  0999 V2000
  -28.1370  -20.9960   18.5660 C   0  0  0  0  0  2  0  0  0  0  0  0
  -28.5140  -22.3410   17.9270 C   0  0  0  0  0  2  0  0  0  0  0  0
  -28.9680  -22.4270   20.2760 C   0  0  0  0  0  2  0  0  0  0  0  0
  -28.9540  -20.9450   19.8580 C   0  0  0  0  0  3  0  0  0  0  0  0
  -28.9660  -23.2320   19.0250 N   0  0  2  0  0  4  0  0  0  0  0  0
  -29.9340  -23.4490   18.8210 H   0  0  0  0  0  0  0  0  0  0  0  0
  -30.3240  -20.3450   19.6440 C   0  0  0  0  0  3  0  0  0  0  0  0
  -32.3000  -20.0400   19.0600 C   0  0  0  0  0  0  0  0  0  0  0  0
  -33.6740  -20.2450   18.5240 C   0  0  0  0  0  1  0  0  0  0  0  0
  -31.3280  -20.9990   19.0500 N   0  0  0  0  0  0  0  0  0  0  0  0
  -31.9480  -18.8760   19.5890 N   0  0  0  0  0  2  0  0  0  0  0  0
  -30.6530  -19.0710   19.9450 N   0  0  0  0  0  0  0  0  0  0  0  0
  -30.7550  -14.4630   20.1410 C   0  0  0  0  0  0  0  0  0  0  0  0
  -30.3670  -12.3670   18.9160 C   0  0  0  0  0  2  0  0  0  0  0  0
  -29.3670  -12.6520   17.7780 C   0  0  0  0  0  2  0  0  0  0  0  0
  -27.9150  -12.5170   18.2810 C   0  0  0  0  0  2  0  0  0  0  0  0
  -27.6590  -13.2850   19.6060 C   0  0  0  0  0  3  0  0  0  0  0  0
  -28.7720  -12.9930   20.6390 C   0  0  0  0  0  2  0  0  0  0  0  0
  -30.0630  -13.3030   20.0060 N   0  0  0  0  0  0  0  0  0  0  0  0
  -31.8720  -14.6380   19.6410 O   0  0  0  0  0  0  0  0  0  0  0  0
  -30.5270  -17.4670   21.8670 C   0  0  0  0  0  2  0  0  0  0  0  0
  -30.1320  -15.9920   21.9480 C   0  0  0  0  0  2  0  0  0  0  0  0
  -29.8470  -16.6880   19.6880 C   0  0  0  0  0  2  0  0  0  0  0  0
  -29.9070  -17.9600   20.5580 C   0  0  0  0  0  3  0  0  0  0  0  0
  -30.0200  -15.5160   20.5660 N   0  0  0  0  0  0  0  0  0  0  0  0
  -25.2970  -13.8840   20.4340 C   0  0  0  0  0  0  0  0  0  0  0  0
  -24.2450  -13.1050   20.8360 C   0  0  0  0  0  0  0  0  0  0  0  0
  -24.7010  -11.7550   20.7580 C   0  0  0  0  0  0  0  0  0  0  0  0
  -26.3290  -13.0060   20.1410 N   0  0  0  0  0  0  0  0  0  0  0  0
  -25.9760  -11.7190   20.3900 N   0  0  0  0  0  0  0  0  0  0  0  0
  -23.9820  -10.4900   20.9590 C   0  0  0  0  0  0  0  0  0  0  0  0
  -24.4320   -9.5240   21.8840 C   0  0  0  0  0  3  0  0  0  0  0  0
  -23.7140   -8.3230   22.0740 C   0  0  0  0  0  3  0  0  0  0  0  0
  -22.5310   -8.0810   21.3360 C   0  0  0  0  0  0  0  0  0  0  0  0
  -22.1000   -9.0350   20.3970 C   0  0  0  0  0  3  0  0  0  0  0  0
  -22.8190  -10.2270   20.2080 C   0  0  0  0  0  3  0  0  0  0  0  0
  -21.7830   -6.9310   21.4330 O   0  0  0  0  0  0  0  0  0  0  0  0
  -21.7180   -6.2120   22.6000 C   0  0  0  0  0  0  0  0  0  0  0  0
  -21.2720   -6.7910   23.8080 C   0  0  0  0  0  3  0  0  0  0  0  0
  -21.1550   -6.0000   24.9670 C   0  0  0  0  0  3  0  0  0  0  0  0
  -21.4700   -4.6290   24.9200 C   0  0  0  0  0  0  0  0  0  0  0  0
  -21.9090   -4.0480   23.7170 C   0  0  0  0  0  3  0  0  0  0  0  0
  -22.0290   -4.8380   22.5590 C   0  0  0  0  0  0  0  0  0  0  0  0
  -22.4310   -4.2690   21.3970 F   0  0  0  0  0  0  0  0  0  0  0  0
  -21.3490   -3.8650   26.0320 F   0  0  0  0  0  0  0  0  0  0  0  0
  -22.8640  -13.5800   21.1840 C   0  0  0  0  0  0  0  0  0  0  0  0
  -22.1760  -12.8700   22.0740 N   0  0  0  0  0  0  0  0  0  0  0  0
  -22.4010  -14.6130   20.7030 O   0  0  0  0  0  0  0  0  0  0  0  0
  -22.5620  -12.0340   22.4880 H   0  0  0  0  0  0  0  0  0  0  0  0
  -21.2520  -13.1720   22.3480 H   0  0  0  0  0  0  0  0  0  0  0  0
  -25.4540  -15.2580   20.2810 N   0  0  0  0  0  0  0  0  0  0  0  0
  -24.7010  -15.9120   20.4570 H   0  0  0  0  0  0  0  0  0  0  0  0
  -26.3030  -15.7060   19.9580 H   0  0  0  0  0  0  0  0  0  0  0  0
  -28.2120  -24.5190   19.0800 C   0  0  0  0  0  2  0  0  0  0  0  0
  -28.5190  -25.3960   20.3150 C   0  0  0  0  0  2  0  0  0  0  0  0
  -28.4690  -26.8010   20.0560 O   0  0  0  0  0  0  0  0  0  0  0  0
  -24.6030  -31.8650   23.2140 C   0  0  0  0  0  0  0  0  0  0  0  0
  -27.2580  -27.4560   20.1050 C   0  0  0  0  0  0  0  0  0  0  0  0
  -23.3930  -30.4680   21.5710 C   0  0  0  0  0  3  0  0  0  0  0  0
  -24.8460  -28.9360   20.1430 C   0  0  0  0  0  0  0  0  0  0  0  0
  -25.9150  -30.8410   21.3600 C   0  0  0  0  0  2  0  0  0  0  0  0
  -26.0040  -29.4680   20.7240 C   0  0  0  0  0  0  0  0  0  0  0  0
  -27.2110  -28.7380   20.6980 C   0  0  0  0  0  3  0  0  0  0  0  0
  -26.0770  -26.9350   19.5230 C   0  0  0  0  0  3  0  0  0  0  0  0
  -24.8770  -27.6690   19.5410 C   0  0  0  0  0  3  0  0  0  0  0  0
  -23.5970  -29.7870   20.1930 C   0  0  0  0  0  2  0  0  0  0  0  0
  -24.6560  -31.0690   22.1080 N   0  0  0  0  0  0  0  0  0  0  0  0
  -23.5240  -32.1320   23.7580 O   0  0  0  0  0  0  0  0  0  0  0  0
  -22.7470  -29.4440   22.5300 C   0  0  0  0  0  0  0  0  0  0  0  0
  -21.4210  -29.2680   22.4140 N   0  0  0  0  0  0  0  0  0  0  0  0
  -23.4370  -28.8050   23.3280 O   0  0  0  0  0  0  0  0  0  0  0  0
  -20.9260  -29.8290   21.7350 H   0  0  0  0  0  0  0  0  0  0  0  0
  -18.0460  -28.0970   22.9420 C   0  0  0  0  0  0  0  0  0  0  0  0
  -20.6090  -28.3270   23.1840 C   0  0  0  0  0  3  0  0  0  0  0  0
  -20.6910  -26.9010   22.5920 C   0  0  0  0  0  2  0  0  0  0  0  0
  -19.5760  -26.6010   21.5870 C   0  0  0  0  0  2  0  0  0  0  0  0
  -18.2030  -26.7530   22.2490 C   0  0  0  0  0  2  0  0  0  0  0  0
  -19.1760  -28.8420   23.3690 C   0  0  0  0  0  0  0  0  0  0  0  0
  -18.9780  -30.1040   23.9710 C   0  0  0  0  0  3  0  0  0  0  0  0
  -17.6820  -30.6200   24.1510 C   0  0  0  0  0  3  0  0  0  0  0  0
  -16.5650  -29.8700   23.7470 C   0  0  0  0  0  3  0  0  0  0  0  0
  -16.7480  -28.6100   23.1480 C   0  0  0  0  0  3  0  0  0  0  0  0
  -25.8900  -32.4980   23.8290 C   0  0  0  0  0  3  0  0  0  0  0  0
  -26.4240  -31.7120   25.0880 C   0  0  1  0  0  0  0  0  0  0  0  0
  -25.3450  -31.4470   26.1630 C   0  0  0  0  0  1  0  0  0  0  0  0
  -27.0110  -30.3450   24.6650 C   0  0  0  0  0  1  0  0  0  0  0  0
  -27.5800  -32.4990   25.7460 C   0  0  0  0  0  1  0  0  0  0  0  0
  -25.5780  -33.8910   24.1770 N   0  0  0  0  0  0  0  0  0  0  0  0
  -25.8890  -34.9500   23.4180 C   0  0  0  0  0  0  0  0  0  0  0  0
  -26.5400  -34.8590   22.3720 O   0  0  0  0  0  0  0  0  0  0  0  0
  -24.9980  -34.0310   24.9920 H   0  0  0  0  0  0  0  0  0  0  0  0
  -24.1340  -36.7240   23.1070 C   0  0  0  0  0  1  0  0  0  0  0  0
  -25.3960  -36.3320   23.8900 C   0  0  0  0  0  3  0  0  0  0  0  0
  -27.5430  -37.2330   24.6750 C   0  0  0  0  0  1  0  0  0  0  0  0
  -26.4170  -37.3950   23.7590 N   0  0  0  0  0  0  0  0  0  0  0  0
  -26.0050  -38.3110   23.9200 H   0  0  0  0  0  0  0  0  0  0  0  0
  2  1  1  0
  2  5  1  0
  4  1  1  0
  4  3  1  0
  5 54  1  0
  5  3  1  0
  5  6  1  6
  7 10  1  0
  7  4  1  0
  7 12  1  0
  8 11  1  0
  9  8  1  0
 10  8  2  0
 12 11  1  0
 12 24  1  0
 13 25  1  0
 14 19  1  0
 15 16  1  0
 15 14  1  0
 17 16  1  0
 17 29  1  0
 17 18  1  0
 19 13  1  0
 19 18  1  0
 20 13  2  0
 21 22  1  0
 23 25  1  0
 24 23  1  0
 24 21  1  0
 25 22  1  0
 26 27  2  0
 27 46  1  0
 28 27  1  0
 28 31  1  0
 29 30  1  0
 29 26  1  0
 30 28  2  0
 31 32  1  0
 32 33  2  0
 34 37  1  0
 34 33  1  0
 35 34  2  0
 36 35  1  0
 36 31  2  0
 37 38  1  0
 38 39  1  0
 39 40  2  0
 41 40  1  0
 41 45  1  0
 42 41  2  0
 43 38  2  0
 43 42  1  0
 44 43  1  0
 46 47  1  0
 47 50  1  0
 47 49  1  0
 48 46  2  0
 51 26  1  0
 51 52  1  0
 53 51  1  0
 54 55  1  0
 56 58  1  0
 56 55  1  0
 57 68  2  0
 58 63  1  0
 59 67  1  0
 59 69  1  0
 60 66  1  0
 60 62  1  0
 61 67  1  0
 62 61  1  0
 63 62  2  0
 64 65  1  0
 64 58  2  0
 65 60  2  0
 66 59  1  0
 67 57  1  0
 69 71  2  0
 70 69  1  0
 72 70  1  0
 73 82  2  0
 73 78  1  0
 74 70  1  0
 74 78  1  0
 75 74  1  0
 76 77  1  0
 76 75  1  0
 77 73  1  0
 78 79  2  0
 79 80  1  0
 81 80  2  0
 82 81  1  0
 83 57  1  0
 83 88  1  0
 83 84  1  0
 84 87  1  1
 84 85  1  0
 86 84  1  0
 88 91  1  0
 89 93  1  0
 89 88  1  0
 90 89  2  0
 93 92  1  0
 95 93  1  0
 95 96  1  0
 95 94  1  0
M  ISO  4  13 100  25 100  55 101  56 101
M  END
>  <TORSDO>  (88) 
F 19

>  <SCORE>  (88) 
-14.317

>  <name>  (88) 
88

>  <ligand_id>  (88) 
88

>  <original_smiles>  (88) 
[H]c1c([H])c([H])c2c(c1[H])C([H])([H])C([H])([H])C([H])([H])C2([H])N([H])C(=O)C1([H])N(C(=O)C([H])(N([H])C(=O)C([H])(N([H])C([H])([H])[H])C([H])([H])[H])C(C([H])([H])[H])(C([H])([H])[H])C([H])([H])[H])C([H])([H])c2c([H])c(OC([H])([H])C([H])([H])[N+]3([H])C([H])([H])C([H])([H])C([H])(c4nc(C([H])([H])[H])nn4C4([H])C([H])([H])N(C(=O)N5C([H])([H])C([H])([H])C([H])([H])C([H])(n6nc(-c7c([H])c([H])c(Oc8c([H])c([H])c(F)c([H])c8F)c([H])c7[H])c(C(=O)N([H])[H])c6N([H])[H])C5([H])[H])C([H])([H])C4([H])[H])C3([H])[H])c([H])c([H])c2C1([H])[H]

>  <smiles>  (88) 
[H]c1c([H])c([H])c2c(c1[H])C([H])([H])C([H])([H])C([H])([H])C2([H])N([H])C(=O)C1([H])N(C(=O)C([H])(N([H])C(=O)C([H])(N([H])C([H])([H])[H])C([H])([H])[H])C(C([H])([H])[H])(C([H])([H])[H])C([H])([H])[H])C([H])([H])c2c([H])c(OC([H])([H])C([H])([H])[N+]3([H])C([H])([H])C([H])([H])C([H])(c4nc(C([H])([H])[H])nn4C4([H])C([H])([H])N(C(=O)N5C([H])([H])C([H])([H])C([H])([H])C([H])(n6nc(-c7c([H])c([H])c(Oc8c([H])c([H])c(F)c([H])c8F)c([H])c7[H])c(C(=O)N([H])[H])c6N([H])[H])C5([H])[H])C([H])([H])C4([H])[H])C3([H])[H])c([H])c([H])c2C1([H])[H]

$$$$
89:0:0
     RDKit          3D

 90 99  0  0  1  0  0  0  0  0999 V2000
  -30.0390  -23.1490   20.3790 C   0  0  0  0  0  3  0  0  0  0  0  0
  -27.8590  -22.4680   19.9120 C   0  0  0  0  0  3  0  0  0  0  0  0
  -28.7410  -23.5840   20.0220 C   0  0  0  0  0  0  0  0  0  0  0  0
  -29.4860  -20.8580   20.3980 C   0  0  0  0  0  0  0  0  0  0  0  0
  -30.3880  -21.8300   20.5580 N   0  0  0  0  0  0  0  0  0  0  0  0
  -28.2170  -21.1460   20.0960 N   0  0  0  0  0  0  0  0  0  0  0  0
  -29.9750  -19.5070   20.5280 N   0  0  0  0  0  0  0  0  0  0  0  0
  -30.9660  -19.4980   20.7330 H   0  0  0  0  0  0  0  0  0  0  0  0
  -30.5880  -14.7970   20.3130 C   0  0  0  0  0  0  0  0  0  0  0  0
  -30.3850  -12.5170   19.2990 C   0  0  0  0  0  2  0  0  0  0  0  0
  -29.4350  -12.5750   18.0830 C   0  0  0  0  0  2  0  0  0  0  0  0
  -27.9720  -12.3920   18.5300 C   0  0  0  0  0  2  0  0  0  0  0  0
  -27.6030  -13.2790   19.7490 C   0  0  0  0  0  3  0  0  0  0  0  0
  -28.6740  -13.2130   20.8580 C   0  0  0  0  0  2  0  0  0  0  0  0
  -29.9550  -13.5740   20.2430 N   0  0  0  0  0  0  0  0  0  0  0  0
  -31.7820  -14.8740   20.0070 O   0  0  0  0  0  0  0  0  0  0  0  0
  -29.9060  -17.0940   19.4350 C   0  0  0  0  0  2  0  0  0  0  0  0
  -29.9940  -17.0320   21.4530 C   0  0  0  0  0  2  0  0  0  0  0  0
  -29.3750  -18.1070   20.4960 C   0  0  0  0  0  3  0  0  0  0  0  0
  -29.8160  -15.9600   20.4190 N   0  0  0  0  0  0  0  0  0  0  0  0
  -25.2210  -13.8510   20.5030 C   0  0  0  0  0  0  0  0  0  0  0  0
  -24.1630  -13.0700   20.8780 C   0  0  0  0  0  0  0  0  0  0  0  0
  -24.6340  -11.7220   20.8420 C   0  0  0  0  0  0  0  0  0  0  0  0
  -26.2680  -12.9780   20.2560 N   0  0  0  0  0  0  0  0  0  0  0  0
  -25.9220  -11.6930   20.5240 N   0  0  0  0  0  0  0  0  0  0  0  0
  -23.9150  -10.4550   21.0360 C   0  0  0  0  0  0  0  0  0  0  0  0
  -24.3620   -9.4850   21.9600 C   0  0  0  0  0  3  0  0  0  0  0  0
  -23.6430   -8.2840   22.1420 C   0  0  0  0  0  3  0  0  0  0  0  0
  -22.4630   -8.0440   21.4000 C   0  0  0  0  0  0  0  0  0  0  0  0
  -22.0350   -9.0030   20.4650 C   0  0  0  0  0  3  0  0  0  0  0  0
  -22.7550  -10.1950   20.2800 C   0  0  0  0  0  3  0  0  0  0  0  0
  -21.7130   -6.8960   21.4920 O   0  0  0  0  0  0  0  0  0  0  0  0
  -21.6830   -6.1470   22.6410 C   0  0  0  0  0  0  0  0  0  0  0  0
  -21.2720   -6.6920   23.8760 C   0  0  0  0  0  3  0  0  0  0  0  0
  -21.1880   -5.8690   25.0170 C   0  0  0  0  0  3  0  0  0  0  0  0
  -21.5060   -4.5020   24.9230 C   0  0  0  0  0  0  0  0  0  0  0  0
  -21.9110   -3.9550   23.6940 C   0  0  0  0  0  3  0  0  0  0  0  0
  -21.9960   -4.7750   22.5540 C   0  0  0  0  0  0  0  0  0  0  0  0
  -22.3660   -4.2380   21.3670 F   0  0  0  0  0  0  0  0  0  0  0  0
  -21.4190   -3.7080   26.0180 F   0  0  0  0  0  0  0  0  0  0  0  0
  -22.7650  -13.5390   21.1600 C   0  0  0  0  0  0  0  0  0  0  0  0
  -22.0460  -12.8370   22.0300 N   0  0  0  0  0  0  0  0  0  0  0  0
  -22.3180  -14.5630   20.6450 O   0  0  0  0  0  0  0  0  0  0  0  0
  -22.4210  -12.0090   22.4690 H   0  0  0  0  0  0  0  0  0  0  0  0
  -21.1090  -13.1340   22.2620 H   0  0  0  0  0  0  0  0  0  0  0  0
  -25.3780  -15.2240   20.3290 N   0  0  0  0  0  0  0  0  0  0  0  0
  -24.6170  -15.8800   20.4580 H   0  0  0  0  0  0  0  0  0  0  0  0
  -26.2380  -15.6660   20.0290 H   0  0  0  0  0  0  0  0  0  0  0  0
  -28.3880  -25.0510   19.4550 C   0  0  0  0  0  2  0  0  0  0  0  0
  -28.3050  -26.3370   20.2490 O   0  0  0  0  0  0  0  0  0  0  0  0
  -24.6340  -31.8780   23.2400 C   0  0  0  0  0  0  0  0  0  0  0  0
  -27.2100  -27.2460   20.1620 C   0  0  0  0  0  0  0  0  0  0  0  0
  -23.4230  -30.4840   21.6080 C   0  0  0  0  0  3  0  0  0  0  0  0
  -24.8610  -28.9290   20.1680 C   0  0  0  0  0  0  0  0  0  0  0  0
  -25.9700  -30.7740   21.4190 C   0  0  0  0  0  2  0  0  0  0  0  0
  -26.0400  -29.3920   20.7650 C   0  0  0  0  0  0  0  0  0  0  0  0
  -27.2120  -28.5620   20.7530 C   0  0  0  0  0  3  0  0  0  0  0  0
  -25.9920  -26.8590   19.5510 C   0  0  0  0  0  3  0  0  0  0  0  0
  -24.8440  -27.6720   19.5530 C   0  0  0  0  0  3  0  0  0  0  0  0
  -23.6310  -29.8140   20.2250 C   0  0  0  0  0  2  0  0  0  0  0  0
  -24.6950  -31.0640   22.1440 N   0  0  0  0  0  0  0  0  0  0  0  0
  -23.5540  -32.1590   23.7770 O   0  0  0  0  0  0  0  0  0  0  0  0
  -22.7590  -29.4670   22.5710 C   0  0  0  0  0  0  0  0  0  0  0  0
  -21.4320  -29.2920   22.4490 N   0  0  0  0  0  0  0  0  0  0  0  0
  -23.4390  -28.8420   23.3870 O   0  0  0  0  0  0  0  0  0  0  0  0
  -20.9410  -29.8490   21.7640 H   0  0  0  0  0  0  0  0  0  0  0  0
  -18.0560  -28.0900   22.9630 C   0  0  0  0  0  0  0  0  0  0  0  0
  -20.6140  -28.3560   23.2250 C   0  0  0  0  0  3  0  0  0  0  0  0
  -20.7170  -26.9220   22.6540 C   0  0  0  0  0  2  0  0  0  0  0  0
  -19.6140  -26.5940   21.6440 C   0  0  0  0  0  2  0  0  0  0  0  0
  -18.2330  -26.7390   22.2910 C   0  0  0  0  0  2  0  0  0  0  0  0
  -19.1740  -28.8560   23.3870 C   0  0  0  0  0  0  0  0  0  0  0  0
  -18.9530  -30.1190   23.9780 C   0  0  0  0  0  3  0  0  0  0  0  0
  -17.6470  -30.6180   24.1460 C   0  0  0  0  0  3  0  0  0  0  0  0
  -16.5440  -29.8490   23.7360 C   0  0  0  0  0  3  0  0  0  0  0  0
  -16.7480  -28.5870   23.1500 C   0  0  0  0  0  3  0  0  0  0  0  0
  -25.9190  -32.5110   23.8560 C   0  0  0  0  0  3  0  0  0  0  0  0
  -25.6100  -33.9100   24.1890 N   0  0  0  0  0  0  0  0  0  0  0  0
  -25.9330  -34.9640   23.4290 C   0  0  0  0  0  0  0  0  0  0  0  0
  -26.5910  -34.8620   22.3900 O   0  0  0  0  0  0  0  0  0  0  0  0
  -25.0230  -34.0620   24.9960 H   0  0  0  0  0  0  0  0  0  0  0  0
  -24.1980  -36.7580   23.0990 C   0  0  0  0  0  1  0  0  0  0  0  0
  -25.4510  -36.3530   23.8930 C   0  0  0  0  0  3  0  0  0  0  0  0
  -27.5960  -37.2390   24.6950 C   0  0  0  0  0  1  0  0  0  0  0  0
  -26.4810  -37.4070   23.7670 N   0  0  0  0  0  0  0  0  0  0  0  0
  -26.0760  -38.3260   23.9200 H   0  0  0  0  0  0  0  0  0  0  0  0
  -26.4380  -31.7420   25.1330 C   0  0  1  0  0  0  0  0  0  0  0  0
  -25.3490  -31.5080   26.2050 C   0  0  0  0  0  1  0  0  0  0  0  0
  -27.0180  -30.3620   24.7440 C   0  0  0  0  0  1  0  0  0  0  0  0
  -27.5920  -32.5350   25.7880 C   0  0  0  0  0  1  0  0  0  0  0  0
  1  5  1  0
  2  3  1  0
  2  6  2  0
  3  1  2  0
  4  7  1  0
  4  5  2  0
  6  4  1  0
  7  8  1  0
  9 20  1  0
 10 15  1  0
 11 12  1  0
 11 10  1  0
 13 12  1  0
 13 24  1  0
 13 14  1  0
 15  9  1  0
 15 14  1  0
 16  9  2  0
 17 20  1  0
 17 19  1  0
 19  7  1  0
 19 18  1  0
 20 18  1  0
 21 22  2  0
 22 41  1  0
 23 22  1  0
 23 26  1  0
 24 21  1  0
 24 25  1  0
 25 23  2  0
 26 27  1  0
 27 28  2  0
 29 32  1  0
 29 28  1  0
 30 29  2  0
 31 30  1  0
 31 26  2  0
 32 33  1  0
 33 34  1  0
 34 35  2  0
 36 35  1  0
 36 40  1  0
 37 36  2  0
 38 33  2  0
 38 37  1  0
 39 38  1  0
 41 42  1  0
 42 45  1  0
 42 44  1  0
 43 41  2  0
 46 47  1  0
 46 21  1  0
 48 46  1  0
 49  3  1  0
 49 50  1  0
 51 62  2  0
 52 50  1  0
 52 57  1  0
 53 61  1  0
 53 63  1  0
 54 60  1  0
 54 56  1  0
 55 61  1  0
 56 55  1  0
 57 56  2  0
 58 59  1  0
 58 52  2  0
 59 54  2  0
 60 53  1  0
 61 51  1  0
 63 65  2  0
 64 63  1  0
 66 64  1  0
 67 76  2  0
 67 72  1  0
 68 64  1  0
 68 72  1  0
 69 68  1  0
 70 71  1  0
 70 69  1  0
 71 67  1  0
 72 73  2  0
 73 74  1  0
 75 74  2  0
 76 75  1  0
 77 51  1  0
 77 78  1  0
 77 87  1  0
 78 81  1  0
 79 83  1  0
 79 78  1  0
 80 79  2  0
 83 82  1  0
 85 83  1  0
 85 86  1  0
 85 84  1  0
 87 90  1  1
 87 88  1  0
 89 87  1  0
M  ISO  4   9 100  20 100  49 101  50 101
M  END
>  <TORSDO>  (89) 
F 17

>  <SCORE>  (89) 
-15.224

>  <name>  (89) 
89

>  <ligand_id>  (89) 
89

>  <original_smiles>  (89) 
[H]c1nc(N([H])C2([H])C([H])([H])N(C(=O)N3C([H])([H])C([H])([H])C([H])([H])C([H])(n4nc(-c5c([H])c([H])c(Oc6c([H])c([H])c(F)c([H])c6F)c([H])c5[H])c(C(=O)N([H])[H])c4N([H])[H])C3([H])[H])C2([H])[H])nc([H])c1C([H])([H])Oc1c([H])c([H])c2c(c1[H])C([H])([H])N(C(=O)C([H])(N([H])C(=O)C([H])(N([H])C([H])([H])[H])C([H])([H])[H])C(C([H])([H])[H])(C([H])([H])[H])C([H])([H])[H])C([H])(C(=O)N([H])C1([H])c3c([H])c([H])c([H])c([H])c3C([H])([H])C([H])([H])C1([H])[H])C2([H])[H]

>  <smiles>  (89) 
[H]c1nc(N([H])C2([H])C([H])([H])N(C(=O)N3C([H])([H])C([H])([H])C([H])([H])C([H])(n4nc(-c5c([H])c([H])c(Oc6c([H])c([H])c(F)c([H])c6F)c([H])c5[H])c(C(=O)N([H])[H])c4N([H])[H])C3([H])[H])C2([H])[H])nc([H])c1C([H])([H])Oc1c([H])c([H])c2c(c1[H])C([H])([H])N(C(=O)C([H])(N([H])C(=O)C([H])(N([H])C([H])([H])[H])C([H])([H])[H])C(C([H])([H])[H])(C([H])([H])[H])C([H])([H])[H])C([H])(C(=O)N([H])C1([H])c3c([H])c([H])c([H])c([H])c3C([H])([H])C([H])([H])C1([H])[H])C2([H])[H]

$$$$
90:0:0
     RDKit          3D

100109  0  0  1  0  0  0  0  0999 V2000
  -31.5600  -20.0000   17.0740 C   0  0  0  0  0  2  0  0  0  0  0  0
  -31.2770  -21.4150   19.1160 C   0  0  0  0  0  2  0  0  0  0  0  0
  -31.9510  -18.8430   18.0040 C   0  0  0  0  0  2  0  0  0  0  0  0
  -31.7100  -20.2040   19.9560 C   0  0  0  0  0  2  0  0  0  0  0  0
  -31.8950  -21.3650   17.7010 C   0  0  0  0  0  3  0  0  0  0  0  0
  -31.2610  -18.9700   19.2960 N   0  0  0  0  0  0  0  0  0  0  0  0
  -31.4440  -22.4680   16.8180 N   0  0  0  0  0  4  0  0  0  0  0  0
  -30.5080  -22.2730   16.5030 H   0  0  0  0  0  0  0  0  0  0  0  0
  -32.0330  -22.4720   15.9990 H   0  0  0  0  0  0  0  0  0  0  0  0
  -30.7200  -24.8620   16.6300 C   0  0  0  0  0  2  0  0  0  0  0  0
  -30.1130  -24.2840   17.8940 C   0  0  0  0  0  3  0  0  0  0  0  0
  -31.4730  -23.8170   17.4250 C   0  0  0  0  0  3  0  0  0  0  0  0
  -29.9360  -25.1530   19.1220 C   0  0  0  0  0  2  0  0  0  0  0  0
  -28.4880  -25.6360   19.2370 C   0  0  0  0  0  2  0  0  0  0  0  0
  -28.3980  -26.7580   20.1080 O   0  0  0  0  0  0  0  0  0  0  0  0
  -24.5820  -31.8780   23.2250 C   0  0  0  0  0  0  0  0  0  0  0  0
  -27.1990  -27.4390   20.1310 C   0  0  0  0  0  0  0  0  0  0  0  0
  -23.3630  -30.4780   21.5920 C   0  0  0  0  0  3  0  0  0  0  0  0
  -24.8020  -28.9350   20.1700 C   0  0  0  0  0  0  0  0  0  0  0  0
  -25.8870  -30.8320   21.3790 C   0  0  0  0  0  2  0  0  0  0  0  0
  -25.9630  -29.4580   20.7490 C   0  0  0  0  0  0  0  0  0  0  0  0
  -27.1620  -28.7150   20.7340 C   0  0  0  0  0  3  0  0  0  0  0  0
  -26.0090  -26.9180   19.5680 C   0  0  0  0  0  3  0  0  0  0  0  0
  -24.8160  -27.6590   19.5850 C   0  0  0  0  0  3  0  0  0  0  0  0
  -23.5630  -29.7970   20.2140 C   0  0  0  0  0  2  0  0  0  0  0  0
  -24.6290  -31.0770   22.1240 N   0  0  0  0  0  0  0  0  0  0  0  0
  -23.5030  -32.1530   23.7680 O   0  0  0  0  0  0  0  0  0  0  0  0
  -22.7150  -29.4570   22.5550 C   0  0  0  0  0  0  0  0  0  0  0  0
  -21.3910  -29.2750   22.4280 N   0  0  0  0  0  0  0  0  0  0  0  0
  -23.4010  -28.8340   23.3700 O   0  0  0  0  0  0  0  0  0  0  0  0
  -20.9010  -29.8340   21.7420 H   0  0  0  0  0  0  0  0  0  0  0  0
  -18.0170  -28.0790   22.9190 C   0  0  0  0  0  0  0  0  0  0  0  0
  -20.5730  -28.3420   23.2010 C   0  0  0  0  0  3  0  0  0  0  0  0
  -20.6810  -26.9060   22.6370 C   0  0  0  0  0  2  0  0  0  0  0  0
  -19.5840  -26.5730   21.6210 C   0  0  0  0  0  2  0  0  0  0  0  0
  -18.1990  -26.7230   22.2570 C   0  0  0  0  0  2  0  0  0  0  0  0
  -19.1330  -28.8460   23.3490 C   0  0  0  0  0  0  0  0  0  0  0  0
  -18.9110  -30.1150   23.9260 C   0  0  0  0  0  3  0  0  0  0  0  0
  -17.6040  -30.6170   24.0790 C   0  0  0  0  0  3  0  0  0  0  0  0
  -16.5030  -29.8480   23.6670 C   0  0  0  0  0  3  0  0  0  0  0  0
  -16.7110  -28.5810   23.0920 C   0  0  0  0  0  3  0  0  0  0  0  0
  -25.8730  -32.5070   23.8350 C   0  0  0  0  0  3  0  0  0  0  0  0
  -25.5680  -33.9030   24.1710 N   0  0  0  0  0  0  0  0  0  0  0  0
  -25.8980  -34.9570   23.4120 C   0  0  0  0  0  0  0  0  0  0  0  0
  -26.5660  -34.8560   22.3790 O   0  0  0  0  0  0  0  0  0  0  0  0
  -24.9790  -34.0560   24.9760 H   0  0  0  0  0  0  0  0  0  0  0  0
  -24.1760  -36.7520   23.0610 C   0  0  0  0  0  1  0  0  0  0  0  0
  -25.4140  -36.3440   23.8750 C   0  0  0  0  0  3  0  0  0  0  0  0
  -27.5490  -37.2170   24.7170 C   0  0  0  0  0  1  0  0  0  0  0  0
  -26.4490  -37.3940   23.7710 N   0  0  0  0  0  0  0  0  0  0  0  0
  -26.0440  -38.3140   23.9250 H   0  0  0  0  0  0  0  0  0  0  0  0
  -26.4010  -31.7290   25.1020 C   0  0  1  0  0  0  0  0  0  0  0  0
  -25.3200  -31.4870   26.1790 C   0  0  0  0  0  1  0  0  0  0  0  0
  -26.9790  -30.3550   24.6930 C   0  0  0  0  0  1  0  0  0  0  0  0
  -27.5580  -32.5200   25.7570 C   0  0  0  0  0  1  0  0  0  0  0  0
  -31.5890  -17.7740   20.0840 C   0  0  0  0  0  2  0  0  0  0  0  0
  -30.7040  -17.6150   21.3410 C   0  0  0  0  0  3  0  0  0  0  0  0
  -29.2940  -17.7680   20.9490 N   0  0  0  0  0  4  0  0  0  0  0  0
  -28.9870  -16.9770   20.4160 H   0  0  0  0  0  0  0  0  0  0  0  0
  -29.2440  -18.5830   20.3600 H   0  0  0  0  0  0  0  0  0  0  0  0
  -28.7020  -17.8930   21.7510 H   0  0  0  0  0  0  0  0  0  0  0  0
  -30.9510  -16.2800   22.0900 C   0  0  0  0  0  2  0  0  0  0  0  0
  -30.7450  -14.3170   20.5520 C   0  0  0  0  0  0  0  0  0  0  0  0
  -30.3480  -12.2830   19.2150 C   0  0  0  0  0  2  0  0  0  0  0  0
  -29.4100  -12.5590   18.0260 C   0  0  0  0  0  2  0  0  0  0  0  0
  -27.9360  -12.4300   18.4530 C   0  0  0  0  0  2  0  0  0  0  0  0
  -27.6170  -13.2320   19.7410 C   0  0  0  0  0  3  0  0  0  0  0  0
  -28.6570  -12.9320   20.8420 C   0  0  0  0  0  2  0  0  0  0  0  0
  -30.0000  -13.2110   20.3010 N   0  0  0  0  0  0  0  0  0  0  0  0
  -31.7910  -14.5820   19.9560 O   0  0  0  0  0  0  0  0  0  0  0  0
  -30.2660  -15.1170   21.5130 N   0  0  0  0  0  0  0  0  0  0  0  0
  -29.4300  -14.7930   21.9800 H   0  0  0  0  0  0  0  0  0  0  0  0
  -25.2110  -13.8680   20.4090 C   0  0  0  0  0  0  0  0  0  0  0  0
  -24.1350  -13.1070   20.7800 C   0  0  0  0  0  0  0  0  0  0  0  0
  -24.5890  -11.7520   20.7730 C   0  0  0  0  0  0  0  0  0  0  0  0
  -26.2540  -12.9780   20.2040 N   0  0  0  0  0  0  0  0  0  0  0  0
  -25.8820  -11.7010   20.4800 N   0  0  0  0  0  0  0  0  0  0  0  0
  -23.8550  -10.4970   20.9750 C   0  0  0  0  0  0  0  0  0  0  0  0
  -24.2760   -9.5400   21.9250 C   0  0  0  0  0  3  0  0  0  0  0  0
  -23.5430   -8.3490   22.1130 C   0  0  0  0  0  3  0  0  0  0  0  0
  -22.3760   -8.1050   21.3490 C   0  0  0  0  0  0  0  0  0  0  0  0
  -21.9750   -9.0510   20.3890 C   0  0  0  0  0  3  0  0  0  0  0  0
  -22.7090  -10.2340   20.2000 C   0  0  0  0  0  3  0  0  0  0  0  0
  -21.6160   -6.9640   21.4450 O   0  0  0  0  0  0  0  0  0  0  0  0
  -21.5570   -6.2350   22.6050 C   0  0  0  0  0  0  0  0  0  0  0  0
  -21.1350   -6.8080   23.8250 C   0  0  0  0  0  3  0  0  0  0  0  0
  -21.0220   -6.0050   24.9780 C   0  0  0  0  0  3  0  0  0  0  0  0
  -21.3190   -4.6320   24.9120 C   0  0  0  0  0  0  0  0  0  0  0  0
  -21.7340   -4.0580   23.6970 C   0  0  0  0  0  3  0  0  0  0  0  0
  -21.8490   -4.8570   22.5470 C   0  0  0  0  0  0  0  0  0  0  0  0
  -22.2280   -4.2960   21.3720 F   0  0  0  0  0  0  0  0  0  0  0  0
  -21.2030   -3.8580   26.0160 F   0  0  0  0  0  0  0  0  0  0  0  0
  -22.7370  -13.5950   21.0310 C   0  0  0  0  0  0  0  0  0  0  0  0
  -21.9950  -12.9140   21.8970 N   0  0  0  0  0  0  0  0  0  0  0  0
  -22.3100  -14.6170   20.4930 O   0  0  0  0  0  0  0  0  0  0  0  0
  -22.3530  -12.0870   22.3540 H   0  0  0  0  0  0  0  0  0  0  0  0
  -21.0580  -13.2240   22.1080 H   0  0  0  0  0  0  0  0  0  0  0  0
  -25.3840  -15.2350   20.2090 N   0  0  0  0  0  0  0  0  0  0  0  0
  -24.6110  -15.8870   20.2780 H   0  0  0  0  0  0  0  0  0  0  0  0
  -26.2170  -15.6480   19.8120 H   0  0  0  0  0  0  0  0  0  0  0  0
  1  5  1  0
  1  3  1  0
  2  4  1  0
  3  6  1  0
  5  7  1  0
  5  2  1  0
  6  4  1  0
  6 56  1  0
  8  7  1  0
  9  7  1  0
 10 12  1  0
 10 11  1  0
 11 13  1  0
 12  7  1  0
 12 11  1  0
 13 14  1  0
 14 15  1  0
 15 17  1  0
 16 27  2  0
 17 22  1  0
 18 26  1  0
 18 28  1  0
 19 25  1  0
 19 21  1  0
 20 26  1  0
 21 20  1  0
 22 21  2  0
 23 24  1  0
 23 17  2  0
 24 19  2  0
 25 18  1  0
 26 16  1  0
 28 30  2  0
 29 28  1  0
 31 29  1  0
 32 41  2  0
 32 37  1  0
 33 29  1  0
 33 37  1  0
 34 33  1  0
 35 36  1  0
 35 34  1  0
 36 32  1  0
 37 38  2  0
 38 39  1  0
 40 39  2  0
 41 40  1  0
 42 16  1  0
 42 43  1  0
 42 52  1  0
 43 46  1  0
 44 48  1  0
 44 43  1  0
 45 44  2  0
 48 47  1  0
 50 48  1  0
 50 51  1  0
 50 49  1  0
 52 55  1  1
 52 53  1  0
 54 52  1  0
 57 56  1  0
 57 62  1  0
 58 57  1  0
 58 61  1  0
 59 58  1  0
 60 58  1  0
 63 71  1  0
 64 69  1  0
 65 66  1  0
 65 64  1  0
 67 66  1  0
 67 76  1  0
 67 68  1  0
 69 63  1  0
 69 68  1  0
 70 63  2  0
 71 72  1  0
 71 62  1  0
 73 74  2  0
 74 93  1  0
 75 74  1  0
 75 78  1  0
 76 73  1  0
 76 77  1  0
 77 75  2  0
 78 79  1  0
 79 80  2  0
 81 84  1  0
 81 80  1  0
 82 81  2  0
 83 82  1  0
 83 78  2  0
 84 85  1  0
 85 86  1  0
 86 87  2  0
 88 87  1  0
 88 92  1  0
 89 88  2  0
 90 85  2  0
 90 89  1  0
 91 90  1  0
 93 94  1  0
 94 97  1  0
 94 96  1  0
 95 93  2  0
 98 99  1  0
 98 73  1  0
100 98  1  0
M  ISO  4  14 101  15 101  63 100  71 100
M  END
>  <TORSDO>  (90) 
F 24

>  <SCORE>  (90) 
-12.645

>  <name>  (90) 
90

>  <ligand_id>  (90) 
90

>  <original_smiles>  (90) 
[H]c1c([H])c([H])c2c(c1[H])C([H])([H])C([H])([H])C([H])([H])C2([H])N([H])C(=O)C1([H])N(C(=O)C([H])(N([H])C(=O)C([H])(N([H])C([H])([H])[H])C([H])([H])[H])C(C([H])([H])[H])(C([H])([H])[H])C([H])([H])[H])C([H])([H])c2c([H])c(OC([H])([H])C([H])([H])C3([H])C([H])([H])C3([H])[N+]([H])([H])C3([H])C([H])([H])C([H])([H])N(C([H])([H])C([H])(C([H])([H])N([H])C(=O)N4C([H])([H])C([H])([H])C([H])([H])C([H])(n5nc(-c6c([H])c([H])c(Oc7c([H])c([H])c(F)c([H])c7F)c([H])c6[H])c(C(=O)N([H])[H])c5N([H])[H])C4([H])[H])[N+]([H])([H])[H])C([H])([H])C3([H])[H])c([H])c([H])c2C1([H])[H]

>  <smiles>  (90) 
[H]c1c([H])c([H])c2c(c1[H])C([H])([H])C([H])([H])C([H])([H])C2([H])N([H])C(=O)C1([H])N(C(=O)C([H])(N([H])C(=O)C([H])(N([H])C([H])([H])[H])C([H])([H])[H])C(C([H])([H])[H])(C([H])([H])[H])C([H])([H])[H])C([H])([H])c2c([H])c(OC([H])([H])C([H])([H])C3([H])C([H])([H])C3([H])[N+]([H])([H])C3([H])C([H])([H])C([H])([H])N(C([H])([H])C([H])(C([H])([H])N([H])C(=O)N4C([H])([H])C([H])([H])C([H])([H])C([H])(n5nc(-c6c([H])c([H])c(Oc7c([H])c([H])c(F)c([H])c7F)c([H])c6[H])c(C(=O)N([H])[H])c5N([H])[H])C4([H])[H])[N+]([H])([H])[H])C([H])([H])C3([H])[H])c([H])c([H])c2C1([H])[H]

$$$$
91:0:0
     RDKit          3D

 94103  0  0  1  0  0  0  0  0999 V2000
  -30.7390  -22.9140   18.3230 C   0  0  0  0  0  2  0  0  0  0  0  0
  -29.2720  -23.2040   18.6390 C   0  0  0  0  0  2  0  0  0  0  0  0
  -31.0460  -21.7540   19.2690 C   0  0  0  0  0  2  0  0  0  0  0  0
  -29.2030  -23.0350   20.1620 C   0  0  0  0  0  3  0  0  0  0  0  0
  -30.2110  -21.9790   20.4860 N   0  0  1  0  0  4  0  0  0  0  0  0
  -30.8180  -22.4010   21.1720 H   0  0  0  0  0  0  0  0  0  0  0  0
  -29.6940  -20.7380   21.1600 C   0  0  0  0  0  2  0  0  0  0  0  0
  -30.6620  -14.4500   20.0880 C   0  0  0  0  0  0  0  0  0  0  0  0
  -30.3190  -12.2920   18.9600 C   0  0  0  0  0  2  0  0  0  0  0  0
  -29.3280  -12.5490   17.8030 C   0  0  0  0  0  2  0  0  0  0  0  0
  -27.8630  -12.4610   18.2920 C   0  0  0  0  0  2  0  0  0  0  0  0
  -27.6020  -13.2330   19.6170 C   0  0  0  0  0  3  0  0  0  0  0  0
  -28.7160  -12.9550   20.6530 C   0  0  0  0  0  2  0  0  0  0  0  0
  -30.0060  -13.2610   20.0160 N   0  0  0  0  0  0  0  0  0  0  0  0
  -31.8090  -14.6190   19.6640 O   0  0  0  0  0  0  0  0  0  0  0  0
  -28.9290  -19.7390   20.2540 C   0  0  0  0  0  0  0  0  0  0  0  0
  -28.5160  -17.4620   19.3950 C   0  0  0  0  0  2  0  0  0  0  0  0
  -29.9340  -17.7410   21.4010 C   0  0  0  0  0  2  0  0  0  0  0  0
  -29.4780  -16.3080   19.0420 C   0  0  0  0  0  2  0  0  0  0  0  0
  -29.6910  -16.2080   21.5140 C   0  0  0  0  0  2  0  0  0  0  0  0
  -29.1330  -18.3950   20.3510 N   0  0  0  0  0  0  0  0  0  0  0  0
  -29.8340  -15.5110   20.2280 N   0  0  0  0  0  0  0  0  0  0  0  0
  -28.1360  -20.2090   19.4360 O   0  0  0  0  0  0  0  0  0  0  0  0
  -25.2450  -13.8420   20.4550 C   0  0  0  0  0  0  0  0  0  0  0  0
  -24.1930  -13.0690   20.8590 C   0  0  0  0  0  0  0  0  0  0  0  0
  -24.6460  -11.7160   20.7810 C   0  0  0  0  0  0  0  0  0  0  0  0
  -26.2760  -12.9590   20.1600 N   0  0  0  0  0  0  0  0  0  0  0  0
  -25.9200  -11.6760   20.4120 N   0  0  0  0  0  0  0  0  0  0  0  0
  -23.9310  -10.4520   20.9830 C   0  0  0  0  0  0  0  0  0  0  0  0
  -24.3870   -9.4880   21.9060 C   0  0  0  0  0  3  0  0  0  0  0  0
  -23.6750   -8.2850   22.0950 C   0  0  0  0  0  3  0  0  0  0  0  0
  -22.4900   -8.0380   21.3600 C   0  0  0  0  0  0  0  0  0  0  0  0
  -22.0530   -8.9940   20.4250 C   0  0  0  0  0  3  0  0  0  0  0  0
  -22.7660  -10.1890   20.2350 C   0  0  0  0  0  3  0  0  0  0  0  0
  -21.7470   -6.8870   21.4590 O   0  0  0  0  0  0  0  0  0  0  0  0
  -21.6900   -6.1640   22.6230 C   0  0  0  0  0  0  0  0  0  0  0  0
  -21.2370   -6.7310   23.8340 C   0  0  0  0  0  3  0  0  0  0  0  0
  -21.1290   -5.9310   24.9880 C   0  0  0  0  0  3  0  0  0  0  0  0
  -21.4640   -4.5650   24.9330 C   0  0  0  0  0  0  0  0  0  0  0  0
  -21.9100   -3.9970   23.7270 C   0  0  0  0  0  3  0  0  0  0  0  0
  -22.0200   -4.7940   22.5730 C   0  0  0  0  0  0  0  0  0  0  0  0
  -22.4310   -4.2370   21.4090 F   0  0  0  0  0  0  0  0  0  0  0  0
  -21.3540   -3.7950   26.0400 F   0  0  0  0  0  0  0  0  0  0  0  0
  -22.8100  -13.5450   21.2050 C   0  0  0  0  0  0  0  0  0  0  0  0
  -22.1150  -12.8410   22.0890 N   0  0  0  0  0  0  0  0  0  0  0  0
  -22.3520  -14.5780   20.7180 O   0  0  0  0  0  0  0  0  0  0  0  0
  -22.4900  -12.0080   22.5190 H   0  0  0  0  0  0  0  0  0  0  0  0
  -21.1900  -13.1520   22.3520 H   0  0  0  0  0  0  0  0  0  0  0  0
  -25.4090  -15.2160   20.2910 N   0  0  0  0  0  0  0  0  0  0  0  0
  -24.6580  -15.8790   20.4510 H   0  0  0  0  0  0  0  0  0  0  0  0
  -26.2530  -15.6440   19.9420 H   0  0  0  0  0  0  0  0  0  0  0  0
  -29.4780  -24.3980   20.8720 C   0  0  0  0  0  2  0  0  0  0  0  0
  -28.2620  -25.3590   20.8150 C   0  0  0  0  0  2  0  0  0  0  0  0
  -28.4900  -26.6670   20.2540 O   0  0  0  0  0  0  0  0  0  0  0  0
  -24.6080  -31.8500   23.2090 C   0  0  0  0  0  0  0  0  0  0  0  0
  -27.3380  -27.4290   20.1820 C   0  0  0  0  0  0  0  0  0  0  0  0
  -23.4370  -30.4390   21.5510 C   0  0  0  0  0  3  0  0  0  0  0  0
  -24.9270  -28.9190   20.1460 C   0  0  0  0  0  0  0  0  0  0  0  0
  -25.9610  -30.8300   21.3790 C   0  0  0  0  0  2  0  0  0  0  0  0
  -26.0750  -29.4570   20.7430 C   0  0  0  0  0  0  0  0  0  0  0  0
  -27.2880  -28.7290   20.7430 C   0  0  0  0  0  3  0  0  0  0  0  0
  -26.1720  -26.9170   19.5670 C   0  0  0  0  0  3  0  0  0  0  0  0
  -24.9730  -27.6510   19.5490 C   0  0  0  0  0  3  0  0  0  0  0  0
  -23.6740  -29.7650   20.1740 C   0  0  0  0  0  2  0  0  0  0  0  0
  -24.6860  -31.0540   22.1060 N   0  0  0  0  0  0  0  0  0  0  0  0
  -23.5180  -32.1110   23.7360 O   0  0  0  0  0  0  0  0  0  0  0  0
  -22.7740  -29.4130   22.5010 C   0  0  0  0  0  0  0  0  0  0  0  0
  -21.4490  -29.2480   22.3750 N   0  0  0  0  0  0  0  0  0  0  0  0
  -23.4540  -28.7730   23.3070 O   0  0  0  0  0  0  0  0  0  0  0  0
  -20.9640  -29.8200   21.6980 H   0  0  0  0  0  0  0  0  0  0  0  0
  -18.0540  -28.1020   22.8790 C   0  0  0  0  0  0  0  0  0  0  0  0
  -20.6200  -28.3100   23.1350 C   0  0  0  0  0  3  0  0  0  0  0  0
  -20.6910  -26.8870   22.5340 C   0  0  0  0  0  2  0  0  0  0  0  0
  -19.5750  -26.6000   21.5240 C   0  0  0  0  0  2  0  0  0  0  0  0
  -18.2010  -26.7610   22.1800 C   0  0  0  0  0  2  0  0  0  0  0  0
  -19.1900  -28.8360   23.3120 C   0  0  0  0  0  0  0  0  0  0  0  0
  -18.9970  -30.0950   23.9250 C   0  0  0  0  0  3  0  0  0  0  0  0
  -17.7020  -30.6160   24.1070 C   0  0  0  0  0  3  0  0  0  0  0  0
  -16.5820  -29.8780   23.6890 C   0  0  0  0  0  3  0  0  0  0  0  0
  -16.7590  -28.6210   23.0820 C   0  0  0  0  0  3  0  0  0  0  0  0
  -25.8810  -32.4890   23.8480 C   0  0  0  0  0  3  0  0  0  0  0  0
  -26.3940  -31.7120   25.1220 C   0  0  1  0  0  0  0  0  0  0  0  0
  -25.2960  -31.4540   26.1790 C   0  0  0  0  0  1  0  0  0  0  0  0
  -26.9890  -30.3430   24.7170 C   0  0  0  0  0  1  0  0  0  0  0  0
  -27.5310  -32.5110   25.8030 C   0  0  0  0  0  1  0  0  0  0  0  0
  -25.5570  -33.8810   24.1840 N   0  0  0  0  0  0  0  0  0  0  0  0
  -25.8840  -34.9410   23.4310 C   0  0  0  0  0  0  0  0  0  0  0  0
  -26.5620  -34.8470   22.4040 O   0  0  0  0  0  0  0  0  0  0  0  0
  -24.9570  -34.0260   24.9820 H   0  0  0  0  0  0  0  0  0  0  0  0
  -24.1420  -36.7170   23.0680 C   0  0  0  0  0  1  0  0  0  0  0  0
  -25.3780  -36.3200   23.8910 C   0  0  0  0  0  3  0  0  0  0  0  0
  -27.4950  -37.2200   24.7480 C   0  0  0  0  0  1  0  0  0  0  0  0
  -26.4000  -37.3850   23.7960 N   0  0  0  0  0  0  0  0  0  0  0  0
  -25.9830  -38.2990   23.9500 H   0  0  0  0  0  0  0  0  0  0  0  0
  1  2  1  0
  1  3  1  0
  2  4  1  0
  3  5  1  0
  4  5  1  0
  4 52  1  0
  5  7  1  0
  5  6  1  1
  8 22  1  0
  9 14  1  0
 10 11  1  0
 10  9  1  0
 12 11  1  0
 12 27  1  0
 12 13  1  0
 14  8  1  0
 14 13  1  0
 15  8  2  0
 16 21  1  0
 16  7  1  0
 17 21  1  0
 18 20  1  0
 19 17  1  0
 19 22  1  0
 21 18  1  0
 22 20  1  0
 23 16  2  0
 24 25  2  0
 25 44  1  0
 26 25  1  0
 26 29  1  0
 27 28  1  0
 27 24  1  0
 28 26  2  0
 29 30  1  0
 30 31  2  0
 32 35  1  0
 32 31  1  0
 33 32  2  0
 34 33  1  0
 34 29  2  0
 35 36  1  0
 36 37  1  0
 37 38  2  0
 39 38  1  0
 39 43  1  0
 40 39  2  0
 41 36  2  0
 41 40  1  0
 42 41  1  0
 44 45  1  0
 45 48  1  0
 45 47  1  0
 46 44  2  0
 49 50  1  0
 49 24  1  0
 51 49  1  0
 53 52  1  0
 54 53  1  0
 55 66  2  0
 56 54  1  0
 56 61  1  0
 57 65  1  0
 57 67  1  0
 58 64  1  0
 58 60  1  0
 59 65  1  0
 60 61  2  0
 60 59  1  0
 62 56  2  0
 63 62  1  0
 63 58  2  0
 64 57  1  0
 65 55  1  0
 67 69  2  0
 68 67  1  0
 70 68  1  0
 71 80  2  0
 71 76  1  0
 72 68  1  0
 72 76  1  0
 73 72  1  0
 74 75  1  0
 74 73  1  0
 75 71  1  0
 76 77  2  0
 77 78  1  0
 79 78  2  0
 80 79  1  0
 81 55  1  0
 81 86  1  0
 81 82  1  0
 82 85  1  1
 82 83  1  0
 84 82  1  0
 86 89  1  0
 87 91  1  0
 87 86  1  0
 88 87  2  0
 91 90  1  0
 93 91  1  0
 93 94  1  0
 93 92  1  0
M  ISO  4   8 100  22 100  53 101  54 101
M  END
>  <TORSDO>  (91) 
F 19

>  <SCORE>  (91) 
-14.337

>  <name>  (91) 
91

>  <ligand_id>  (91) 
91

>  <original_smiles>  (91) 
[H]c1c([H])c([H])c2c(c1[H])C([H])([H])C([H])([H])C([H])([H])C2([H])N([H])C(=O)C1([H])N(C(=O)C([H])(N([H])C(=O)C([H])(N([H])C([H])([H])[H])C([H])([H])[H])C(C([H])([H])[H])(C([H])([H])[H])C([H])([H])[H])C([H])([H])c2c([H])c(OC([H])([H])C([H])([H])C3([H])C([H])([H])C([H])([H])C([H])([H])[N+]3([H])C([H])([H])C(=O)N3C([H])([H])C([H])([H])N(C(=O)N4C([H])([H])C([H])([H])C([H])([H])C([H])(n5nc(-c6c([H])c([H])c(Oc7c([H])c([H])c(F)c([H])c7F)c([H])c6[H])c(C(=O)N([H])[H])c5N([H])[H])C4([H])[H])C([H])([H])C3([H])[H])c([H])c([H])c2C1([H])[H]

>  <smiles>  (91) 
[H]c1c([H])c([H])c2c(c1[H])C([H])([H])C([H])([H])C([H])([H])C2([H])N([H])C(=O)C1([H])N(C(=O)C([H])(N([H])C(=O)C([H])(N([H])C([H])([H])[H])C([H])([H])[H])C(C([H])([H])[H])(C([H])([H])[H])C([H])([H])[H])C([H])([H])c2c([H])c(OC([H])([H])C([H])([H])C3([H])C([H])([H])C([H])([H])C([H])([H])[N+]3([H])C([H])([H])C(=O)N3C([H])([H])C([H])([H])N(C(=O)N4C([H])([H])C([H])([H])C([H])([H])C([H])(n5nc(-c6c([H])c([H])c(Oc7c([H])c([H])c(F)c([H])c7F)c([H])c6[H])c(C(=O)N([H])[H])c5N([H])[H])C4([H])[H])C([H])([H])C3([H])[H])c([H])c([H])c2C1([H])[H]

$$$$
92:0:0
     RDKit          3D

 97106  0  0  1  0  0  0  0  0999 V2000
  -27.3800  -21.4110   18.6400 C   0  0  0  0  0  3  0  0  0  0  0  0
  -29.2850  -20.8950   20.4500 C   0  0  0  0  0  0  0  0  0  0  0  0
  -28.6460  -19.8120   19.7550 C   0  0  0  0  0  0  0  0  0  0  0  0
  -28.8770  -22.2270   20.1190 C   0  0  0  0  0  0  0  0  0  0  0  0
  -27.6940  -20.1490   18.8640 N   0  0  0  0  0  0  0  0  0  0  0  0
  -27.9200  -22.4590   19.2200 N   0  0  0  0  0  0  0  0  0  0  0  0
  -29.4090  -23.4040   20.6920 N   0  0  0  0  0  0  0  0  0  0  0  0
  -30.1170  -23.3050   21.4110 H   0  0  0  0  0  0  0  0  0  0  0  0
  -30.1140  -17.3320   18.7930 C   0  0  0  0  0  2  0  0  0  0  0  0
  -28.6080  -17.5150   18.7590 C   0  0  0  0  0  2  0  0  0  0  0  0
  -30.0460  -17.7140   20.2760 C   0  0  0  0  0  3  0  0  0  0  0  0
  -28.7600  -18.3670   19.9550 N   0  0  0  0  0  0  0  0  0  0  0  0
  -29.8190  -16.5970   21.3380 C   0  0  0  0  0  2  0  0  0  0  0  0
  -31.3110  -14.7430   20.5480 C   0  0  0  0  0  0  0  0  0  0  0  0
  -30.9420  -12.6340   19.3140 C   0  0  0  0  0  2  0  0  0  0  0  0
  -30.0290  -12.8700   18.0970 C   0  0  0  0  0  2  0  0  0  0  0  0
  -28.5490  -12.7310   18.5000 C   0  0  0  0  0  2  0  0  0  0  0  0
  -28.1940  -13.5570   19.7630 C   0  0  0  0  0  3  0  0  0  0  0  0
  -29.2310  -13.3230   20.8880 C   0  0  0  0  0  2  0  0  0  0  0  0
  -30.5710  -13.6150   20.3530 N   0  0  0  0  0  0  0  0  0  0  0  0
  -32.3890  -14.9310   19.9870 O   0  0  0  0  0  0  0  0  0  0  0  0
  -30.9160  -15.6290   21.4730 N   0  0  0  0  0  0  0  0  0  0  0  0
  -31.7210  -16.0820   21.8800 H   0  0  0  0  0  0  0  0  0  0  0  0
  -25.7790  -14.1760   20.4140 C   0  0  0  0  0  0  0  0  0  0  0  0
  -24.7030  -13.4060   20.7590 C   0  0  0  0  0  0  0  0  0  0  0  0
  -25.1610  -12.0530   20.7450 C   0  0  0  0  0  0  0  0  0  0  0  0
  -26.8290  -13.2910   20.2150 N   0  0  0  0  0  0  0  0  0  0  0  0
  -26.4590  -12.0100   20.4690 N   0  0  0  0  0  0  0  0  0  0  0  0
  -24.4300  -10.7940   20.9270 C   0  0  0  0  0  0  0  0  0  0  0  0
  -24.7940   -9.8630   21.9240 C   0  0  0  0  0  3  0  0  0  0  0  0
  -24.0640   -8.6660   22.0870 C   0  0  0  0  0  3  0  0  0  0  0  0
  -22.9510   -8.3950   21.2550 C   0  0  0  0  0  0  0  0  0  0  0  0
  -22.6050   -9.3150   20.2500 C   0  0  0  0  0  3  0  0  0  0  0  0
  -23.3370  -10.5030   20.0870 C   0  0  0  0  0  3  0  0  0  0  0  0
  -22.1960   -7.2490   21.3290 O   0  0  0  0  0  0  0  0  0  0  0  0
  -21.9930   -6.5970   22.5170 C   0  0  0  0  0  0  0  0  0  0  0  0
  -21.4200   -7.2420   23.6370 C   0  0  0  0  0  3  0  0  0  0  0  0
  -21.1630   -6.5140   24.8140 C   0  0  0  0  0  3  0  0  0  0  0  0
  -21.4750   -5.1410   24.8770 C   0  0  0  0  0  0  0  0  0  0  0  0
  -22.0400   -4.4970   23.7620 C   0  0  0  0  0  3  0  0  0  0  0  0
  -22.2980   -5.2230   22.5860 C   0  0  0  0  0  0  0  0  0  0  0  0
  -22.8250   -4.5940   21.5080 F   0  0  0  0  0  0  0  0  0  0  0  0
  -21.2210   -4.4370   26.0030 F   0  0  0  0  0  0  0  0  0  0  0  0
  -23.3030  -13.8890   21.0030 C   0  0  0  0  0  0  0  0  0  0  0  0
  -22.5730  -13.2210   21.8860 N   0  0  0  0  0  0  0  0  0  0  0  0
  -22.8670  -14.8950   20.4450 O   0  0  0  0  0  0  0  0  0  0  0  0
  -22.9340  -12.4060   22.3610 H   0  0  0  0  0  0  0  0  0  0  0  0
  -21.6330  -13.5300   22.0950 H   0  0  0  0  0  0  0  0  0  0  0  0
  -25.9520  -15.5470   20.2410 N   0  0  0  0  0  0  0  0  0  0  0  0
  -25.1940  -16.2120   20.3440 H   0  0  0  0  0  0  0  0  0  0  0  0
  -26.8270  -15.9910   20.0060 H   0  0  0  0  0  0  0  0  0  0  0  0
  -29.8090  -19.9000   22.7770 C   0  0  0  0  0  1  0  0  0  0  0  0
  -30.3310  -20.6680   21.5560 C   0  0  0  0  0  3  0  0  0  0  0  0
  -31.4250  -20.0770   21.0800 F   0  0  0  0  0  0  0  0  0  0  0  0
  -28.7200  -24.7160   20.6330 C   0  0  0  0  0  2  0  0  0  0  0  0
  -28.9900  -25.5640   19.3530 C   0  0  0  0  0  2  0  0  0  0  0  0
  -28.8190  -26.9870   19.5180 O   0  0  0  0  0  0  0  0  0  0  0  0
  -24.6500  -31.5980   22.9390 C   0  0  0  0  0  0  0  0  0  0  0  0
  -27.5690  -27.5820   19.5370 C   0  0  0  0  0  0  0  0  0  0  0  0
  -23.5200  -30.2360   21.2080 C   0  0  0  0  0  3  0  0  0  0  0  0
  -25.0630  -28.9070   19.6630 C   0  0  0  0  0  0  0  0  0  0  0  0
  -26.0080  -30.7970   21.0040 C   0  0  0  0  0  2  0  0  0  0  0  0
  -26.1860  -29.4820   20.2680 C   0  0  0  0  0  0  0  0  0  0  0  0
  -27.4380  -28.8320   20.1910 C   0  0  0  0  0  3  0  0  0  0  0  0
  -26.4250  -27.0180   18.9270 C   0  0  0  0  0  3  0  0  0  0  0  0
  -25.1790  -27.6770   18.9880 C   0  0  0  0  0  3  0  0  0  0  0  0
  -23.7560  -29.6640   19.7840 C   0  0  0  0  0  2  0  0  0  0  0  0
  -24.7430  -30.8900   21.7760 N   0  0  0  0  0  0  0  0  0  0  0  0
  -23.5620  -31.7500   23.5110 O   0  0  0  0  0  0  0  0  0  0  0  0
  -22.9560  -29.1100   22.1020 C   0  0  0  0  0  0  0  0  0  0  0  0
  -21.6400  -28.8620   21.9930 N   0  0  0  0  0  0  0  0  0  0  0  0
  -23.6980  -28.4620   22.8450 O   0  0  0  0  0  0  0  0  0  0  0  0
  -21.1020  -29.4410   21.3610 H   0  0  0  0  0  0  0  0  0  0  0  0
  -18.3630  -27.4170   22.4560 C   0  0  0  0  0  0  0  0  0  0  0  0
  -20.9050  -27.8170   22.7020 C   0  0  0  0  0  3  0  0  0  0  0  0
  -21.0890  -26.4460   22.0090 C   0  0  0  0  0  2  0  0  0  0  0  0
  -19.9830  -26.1260   20.9990 C   0  0  0  0  0  2  0  0  0  0  0  0
  -18.6100  -26.1360   21.6780 C   0  0  0  0  0  2  0  0  0  0  0  0
  -19.4410  -28.2130   22.9260 C   0  0  0  0  0  0  0  0  0  0  0  0
  -19.1600  -29.4110   23.6150 C   0  0  0  0  0  3  0  0  0  0  0  0
  -17.8320  -29.8160   23.8440 C   0  0  0  0  0  3  0  0  0  0  0  0
  -16.7680  -29.0140   23.3930 C   0  0  0  0  0  3  0  0  0  0  0  0
  -17.0340  -27.8180   22.7030 C   0  0  0  0  0  3  0  0  0  0  0  0
  -25.8990  -32.2720   23.5900 C   0  0  0  0  0  3  0  0  0  0  0  0
  -25.5000  -33.6220   24.0120 N   0  0  0  0  0  0  0  0  0  0  0  0
  -25.7640  -34.7420   23.3230 C   0  0  0  0  0  0  0  0  0  0  0  0
  -26.4400  -34.7500   22.2920 O   0  0  0  0  0  0  0  0  0  0  0  0
  -24.8950  -33.6860   24.8160 H   0  0  0  0  0  0  0  0  0  0  0  0
  -23.9170  -36.4310   23.0910 C   0  0  0  0  0  1  0  0  0  0  0  0
  -25.1890  -36.0610   23.8710 C   0  0  0  0  0  3  0  0  0  0  0  0
  -27.2640  -37.0350   24.7530 C   0  0  0  0  0  1  0  0  0  0  0  0
  -26.1480  -37.1850   23.8220 N   0  0  0  0  0  0  0  0  0  0  0  0
  -25.6830  -38.0650   24.0290 H   0  0  0  0  0  0  0  0  0  0  0  0
  -26.4820  -31.4560   24.8080 C   0  0  1  0  0  0  0  0  0  0  0  0
  -25.4240  -31.0850   25.8720 C   0  0  0  0  0  1  0  0  0  0  0  0
  -27.1370  -30.1430   24.3190 C   0  0  0  0  0  1  0  0  0  0  0  0
  -27.5930  -32.2750   25.5080 C   0  0  0  0  0  1  0  0  0  0  0  0
  1  5  2  0
  1  6  1  0
  2 53  1  0
  3 12  1  0
  3  2  2  0
  4  2  1  0
  4  7  1  0
  5  3  1  0
  6  4  2  0
  7  8  1  0
  9 11  1  0
 10  9  1  0
 10 12  1  0
 11 13  1  0
 12 11  1  0
 13 22  1  0
 14 22  1  0
 15 20  1  0
 16 17  1  0
 16 15  1  0
 18 17  1  0
 18 27  1  0
 18 19  1  0
 20 14  1  0
 20 19  1  0
 21 14  2  0
 22 23  1  0
 24 25  2  0
 25 44  1  0
 26 25  1  0
 26 29  1  0
 27 24  1  0
 27 28  1  0
 28 26  2  0
 29 30  1  0
 30 31  2  0
 32 35  1  0
 32 31  1  0
 33 32  2  0
 34 33  1  0
 34 29  2  0
 35 36  1  0
 36 41  2  0
 36 37  1  0
 37 38  2  0
 38 39  1  0
 39 43  1  0
 40 39  2  0
 41 40  1  0
 42 41  1  0
 44 45  1  0
 45 48  1  0
 45 47  1  0
 46 44  2  0
 49 50  1  0
 49 24  1  0
 51 49  1  0
 53 52  1  0
 54 53  1  0
 55  7  1  0
 56 57  1  0
 56 55  1  0
 57 59  1  0
 58 69  2  0
 59 64  1  0
 60 68  1  0
 60 70  1  0
 61 67  1  0
 61 63  1  0
 62 68  1  0
 63 62  1  0
 64 63  2  0
 65 66  1  0
 65 59  2  0
 66 61  2  0
 67 60  1  0
 68 58  1  0
 70 72  2  0
 71 70  1  0
 73 71  1  0
 74 83  2  0
 74 79  1  0
 75 71  1  0
 75 79  1  0
 76 75  1  0
 77 78  1  0
 77 76  1  0
 78 74  1  0
 79 80  2  0
 80 81  1  0
 82 81  2  0
 83 82  1  0
 84 58  1  0
 84 85  1  0
 84 94  1  0
 85 88  1  0
 86 90  1  0
 86 85  1  0
 87 86  2  0
 90 89  1  0
 92 90  1  0
 92 93  1  0
 92 91  1  0
 94 97  1  1
 94 95  1  0
 96 94  1  0
M  ISO  4  14 100  22 100  56 101  57 101
M  END
>  <TORSDO>  (92) 
F 21

>  <SCORE>  (92) 
-11.586

>  <name>  (92) 
92

>  <ligand_id>  (92) 
92

>  <original_smiles>  (92) 
[H]c1nc(N([H])C([H])([H])C([H])([H])Oc2c([H])c([H])c3c(c2[H])C([H])([H])N(C(=O)C([H])(N([H])C(=O)C([H])(N([H])C([H])([H])[H])C([H])([H])[H])C(C([H])([H])[H])(C([H])([H])[H])C([H])([H])[H])C([H])(C(=O)N([H])C2([H])c4c([H])c([H])c([H])c([H])c4C([H])([H])C([H])([H])C2([H])[H])C3([H])[H])c(C([H])(F)C([H])([H])[H])c(N2C([H])([H])C([H])([H])C2([H])C([H])([H])N([H])C(=O)N2C([H])([H])C([H])([H])C([H])([H])C([H])(n3nc(-c4c([H])c([H])c(Oc5c([H])c([H])c(F)c([H])c5F)c([H])c4[H])c(C(=O)N([H])[H])c3N([H])[H])C2([H])[H])n1

>  <smiles>  (92) 
[H]c1nc(N([H])C([H])([H])C([H])([H])Oc2c([H])c([H])c3c(c2[H])C([H])([H])N(C(=O)C([H])(N([H])C(=O)C([H])(N([H])C([H])([H])[H])C([H])([H])[H])C(C([H])([H])[H])(C([H])([H])[H])C([H])([H])[H])C([H])(C(=O)N([H])C2([H])c4c([H])c([H])c([H])c([H])c4C([H])([H])C([H])([H])C2([H])[H])C3([H])[H])c(C([H])(F)C([H])([H])[H])c(N2C([H])([H])C([H])([H])C2([H])C([H])([H])N([H])C(=O)N2C([H])([H])C([H])([H])C([H])([H])C([H])(n3nc(-c4c([H])c([H])c(Oc5c([H])c([H])c(F)c([H])c5F)c([H])c4[H])c(C(=O)N([H])[H])c3N([H])[H])C2([H])[H])n1

$$$$
93:0:0
     RDKit          3D

 94103  0  0  1  0  0  0  0  0999 V2000
  -30.3900  -23.7730   20.2600 C   0  0  0  0  0  3  0  0  0  0  0  0
  -29.0220  -23.6860   20.2920 C   0  0  0  0  0  0  0  0  0  0  0  0
  -29.9260  -21.5690   20.2730 C   0  0  0  0  0  3  0  0  0  0  0  0
  -30.9090  -22.4950   20.2270 N   0  0  0  0  0  0  0  0  0  0  0  0
  -28.7770  -22.2950   20.3040 N   0  0  0  0  0  0  0  0  0  0  0  0
  -30.2090  -20.2110   20.2950 N   0  0  0  0  0  0  0  0  0  0  0  0
  -27.8530  -21.8830   20.3260 H   0  0  0  0  0  0  0  0  0  0  0  0
  -31.1930  -19.9750   20.3170 H   0  0  0  0  0  0  0  0  0  0  0  0
  -30.6690  -14.5890   19.9890 C   0  0  0  0  0  0  0  0  0  0  0  0
  -30.3760  -12.3340   18.9700 C   0  0  0  0  0  2  0  0  0  0  0  0
  -29.3700  -12.4290   17.8030 C   0  0  0  0  0  2  0  0  0  0  0  0
  -27.9260  -12.2640   18.3180 C   0  0  0  0  0  2  0  0  0  0  0  0
  -27.6280  -13.1340   19.5690 C   0  0  0  0  0  3  0  0  0  0  0  0
  -28.7550  -13.0430   20.6210 C   0  0  0  0  0  2  0  0  0  0  0  0
  -30.0120  -13.3830   19.9450 N   0  0  0  0  0  0  0  0  0  0  0  0
  -31.8390  -14.6700   19.6010 O   0  0  0  0  0  0  0  0  0  0  0  0
  -29.5340  -18.0270   21.4640 C   0  0  0  0  0  2  0  0  0  0  0  0
  -29.7760  -18.0540   19.0020 C   0  0  0  0  0  2  0  0  0  0  0  0
  -30.3860  -16.6990   21.3050 C   0  0  0  0  0  2  0  0  0  0  0  0
  -29.3670  -16.5290   19.1060 C   0  0  0  0  0  2  0  0  0  0  0  0
  -29.3870  -18.9600   20.2130 C   0  0  0  0  0  3  0  0  0  0  0  0
  -29.9460  -15.7500   20.2430 N   0  0  0  0  0  0  0  0  0  0  0  0
  -25.3040  -13.7100   20.4830 C   0  0  0  0  0  0  0  0  0  0  0  0
  -24.2580  -12.9300   20.8930 C   0  0  0  0  0  0  0  0  0  0  0  0
  -24.7050  -11.5770   20.7770 C   0  0  0  0  0  0  0  0  0  0  0  0
  -26.3200  -12.8340   20.1420 N   0  0  0  0  0  0  0  0  0  0  0  0
  -25.9710  -11.5430   20.3810 N   0  0  0  0  0  0  0  0  0  0  0  0
  -23.9810  -10.3120   20.9650 C   0  0  0  0  0  0  0  0  0  0  0  0
  -24.4100   -9.3480   21.9030 C   0  0  0  0  0  3  0  0  0  0  0  0
  -23.6860   -8.1500   22.0800 C   0  0  0  0  0  3  0  0  0  0  0  0
  -22.5180   -7.9070   21.3200 C   0  0  0  0  0  0  0  0  0  0  0  0
  -22.1070   -8.8610   20.3710 C   0  0  0  0  0  3  0  0  0  0  0  0
  -22.8330  -10.0510   20.1910 C   0  0  0  0  0  3  0  0  0  0  0  0
  -21.7640   -6.7620   21.4040 O   0  0  0  0  0  0  0  0  0  0  0  0
  -21.6430   -6.0660   22.5810 C   0  0  0  0  0  0  0  0  0  0  0  0
  -21.1000   -6.6560   23.7430 C   0  0  0  0  0  3  0  0  0  0  0  0
  -20.9310   -5.8850   24.9110 C   0  0  0  0  0  3  0  0  0  0  0  0
  -21.2940   -4.5250   24.9150 C   0  0  0  0  0  0  0  0  0  0  0  0
  -21.8290   -3.9340   23.7570 C   0  0  0  0  0  3  0  0  0  0  0  0
  -22.0000   -4.7020   22.5920 C   0  0  0  0  0  0  0  0  0  0  0  0
  -22.4970   -4.1220   21.4730 F   0  0  0  0  0  0  0  0  0  0  0  0
  -21.1210   -3.7830   26.0330 F   0  0  0  0  0  0  0  0  0  0  0  0
  -22.8880  -13.4060   21.2780 C   0  0  0  0  0  0  0  0  0  0  0  0
  -22.2110  -12.6770   22.1580 N   0  0  0  0  0  0  0  0  0  0  0  0
  -22.4280  -14.4570   20.8350 O   0  0  0  0  0  0  0  0  0  0  0  0
  -22.5960  -11.8240   22.5390 H   0  0  0  0  0  0  0  0  0  0  0  0
  -21.2930  -12.9750   22.4570 H   0  0  0  0  0  0  0  0  0  0  0  0
  -25.4700  -15.0860   20.3510 N   0  0  0  0  0  0  0  0  0  0  0  0
  -24.7260  -15.7450   20.5550 H   0  0  0  0  0  0  0  0  0  0  0  0
  -26.3150  -15.5320   20.0180 H   0  0  0  0  0  0  0  0  0  0  0  0
  -32.9710  -21.8940   21.5080 C   0  0  0  0  0  1  0  0  0  0  0  0
  -32.3450  -22.1820   20.1350 C   0  0  0  0  0  2  0  0  0  0  0  0
  -27.9400  -24.8060   20.2550 C   0  0  0  0  0  2  0  0  0  0  0  0
  -28.2870  -26.2580   20.4010 O   0  0  0  0  0  0  0  0  0  0  0  0
  -24.6700  -31.8260   23.3290 C   0  0  0  0  0  0  0  0  0  0  0  0
  -27.2170  -27.1790   20.3170 C   0  0  0  0  0  0  0  0  0  0  0  0
  -23.4620  -30.4500   21.6790 C   0  0  0  0  0  3  0  0  0  0  0  0
  -24.8990  -28.8740   20.2710 C   0  0  0  0  0  0  0  0  0  0  0  0
  -26.0140  -30.7070   21.5320 C   0  0  0  0  0  2  0  0  0  0  0  0
  -26.0740  -29.3260   20.8850 C   0  0  0  0  0  0  0  0  0  0  0  0
  -27.2380  -28.4920   20.8970 C   0  0  0  0  0  3  0  0  0  0  0  0
  -26.0170  -26.8020   19.6670 C   0  0  0  0  0  3  0  0  0  0  0  0
  -24.8760  -27.6200   19.6500 C   0  0  0  0  0  3  0  0  0  0  0  0
  -23.6820  -29.7750   20.3010 C   0  0  0  0  0  2  0  0  0  0  0  0
  -24.7350  -31.0110   22.2360 N   0  0  0  0  0  0  0  0  0  0  0  0
  -23.5840  -32.1270   23.8470 O   0  0  0  0  0  0  0  0  0  0  0  0
  -22.7670  -29.4440   22.6280 C   0  0  0  0  0  0  0  0  0  0  0  0
  -21.4500  -29.2510   22.4480 N   0  0  0  0  0  0  0  0  0  0  0  0
  -23.4140  -28.8420   23.4900 O   0  0  0  0  0  0  0  0  0  0  0  0
  -20.9880  -29.7890   21.7270 H   0  0  0  0  0  0  0  0  0  0  0  0
  -18.0680  -28.0120   22.8000 C   0  0  0  0  0  0  0  0  0  0  0  0
  -20.6030  -28.3250   23.2020 C   0  0  0  0  0  3  0  0  0  0  0  0
  -20.7590  -26.8790   22.6790 C   0  0  0  0  0  2  0  0  0  0  0  0
  -19.7200  -26.5040   21.6170 C   0  0  0  0  0  2  0  0  0  0  0  0
  -18.3030  -26.6450   22.1800 C   0  0  0  0  0  2  0  0  0  0  0  0
  -19.1480  -28.8080   23.2650 C   0  0  0  0  0  0  0  0  0  0  0  0
  -18.8770  -30.0850   23.8010 C   0  0  0  0  0  3  0  0  0  0  0  0
  -17.5570  -30.5670   23.8820 C   0  0  0  0  0  3  0  0  0  0  0  0
  -16.4890  -29.7700   23.4340 C   0  0  0  0  0  3  0  0  0  0  0  0
  -16.7460  -28.4950   22.8980 C   0  0  0  0  0  3  0  0  0  0  0  0
  -25.9550  -32.4360   23.9680 C   0  0  0  0  0  3  0  0  0  0  0  0
  -25.6680  -33.8430   24.2840 N   0  0  0  0  0  0  0  0  0  0  0  0
  -25.9950  -34.8810   23.5030 C   0  0  0  0  0  0  0  0  0  0  0  0
  -26.6400  -34.7560   22.4590 O   0  0  0  0  0  0  0  0  0  0  0  0
  -25.0940  -34.0160   25.0950 H   0  0  0  0  0  0  0  0  0  0  0  0
  -24.2590  -36.6750   23.1920 C   0  0  0  0  0  1  0  0  0  0  0  0
  -25.5340  -36.2820   23.9530 C   0  0  0  0  0  3  0  0  0  0  0  0
  -27.7040  -37.1800   24.6740 C   0  0  0  0  0  1  0  0  0  0  0  0
  -26.5650  -37.3270   23.7720 N   0  0  0  0  0  0  0  0  0  0  0  0
  -26.1670  -38.2530   23.9130 H   0  0  0  0  0  0  0  0  0  0  0  0
  -26.4330  -31.6630   25.2570 C   0  0  1  0  0  0  0  0  0  0  0  0
  -25.3160  -31.4490   26.3050 C   0  0  0  0  0  1  0  0  0  0  0  0
  -27.0020  -30.2740   24.8850 C   0  0  0  0  0  1  0  0  0  0  0  0
  -27.5830  -32.4430   25.9390 C   0  0  0  0  0  1  0  0  0  0  0  0
  1  2  2  0
  2  5  1  0
  3  6  1  0
  3  5  1  0
  4  1  1  0
  4  3  1  0
  5  7  1  0
  6  8  1  0
  9 22  1  0
 10 15  1  0
 11 12  1  0
 11 10  1  0
 13 12  1  0
 13 26  1  0
 13 14  1  0
 15  9  1  0
 15 14  1  0
 16  9  2  0
 18 20  1  0
 18 21  1  0
 19 17  1  0
 20 22  1  0
 21  6  1  0
 21 17  1  0
 22 19  1  0
 23 24  2  0
 24 43  1  0
 25 24  1  0
 25 28  1  0
 26 27  1  0
 26 23  1  0
 27 25  2  0
 28 29  1  0
 29 30  2  0
 31 34  1  0
 31 30  1  0
 32 31  2  0
 33 32  1  0
 33 28  2  0
 34 35  1  0
 35 40  2  0
 35 36  1  0
 36 37  2  0
 37 38  1  0
 38 42  1  0
 39 38  2  0
 40 39  1  0
 41 40  1  0
 43 44  1  0
 44 47  1  0
 44 46  1  0
 45 43  2  0
 48 23  1  0
 48 49  1  0
 50 48  1  0
 52  4  1  0
 52 51  1  0
 53  2  1  0
 53 54  1  0
 55 66  2  0
 56 54  1  0
 56 61  1  0
 57 65  1  0
 57 67  1  0
 58 64  1  0
 58 60  1  0
 59 65  1  0
 60 61  2  0
 60 59  1  0
 62 56  2  0
 63 62  1  0
 63 58  2  0
 64 57  1  0
 65 55  1  0
 67 69  2  0
 68 67  1  0
 70 68  1  0
 71 80  2  0
 71 76  1  0
 72 68  1  0
 72 76  1  0
 73 72  1  0
 74 75  1  0
 74 73  1  0
 75 71  1  0
 76 77  2  0
 77 78  1  0
 79 78  2  0
 80 79  1  0
 81 55  1  0
 81 82  1  0
 81 91  1  0
 82 85  1  0
 83 87  1  0
 83 82  1  0
 84 83  2  0
 87 86  1  0
 89 90  1  0
 89 87  1  0
 89 88  1  0
 91 94  1  1
 91 92  1  0
 93 91  1  0
M  ISO  4   9 100  22 100  53 101  54 101
M  END
>  <TORSDO>  (93) 
F 18

>  <SCORE>  (93) 
-13.666

>  <name>  (93) 
93

>  <ligand_id>  (93) 
93

>  <original_smiles>  (93) 
[H]c1c([H])c([H])c2c(c1[H])C([H])([H])C([H])([H])C([H])([H])C2([H])N([H])C(=O)C1([H])N(C(=O)C([H])(N([H])C(=O)C([H])(N([H])C([H])([H])[H])C([H])([H])[H])C(C([H])([H])[H])(C([H])([H])[H])C([H])([H])[H])C([H])([H])c2c([H])c(OC([H])([H])c3c([H])n(C([H])([H])C([H])([H])[H])c(N([H])C4([H])C([H])([H])C([H])([H])N(C(=O)N5C([H])([H])C([H])([H])C([H])([H])C([H])(n6nc(-c7c([H])c([H])c(Oc8c([H])c([H])c(F)c([H])c8F)c([H])c7[H])c(C(=O)N([H])[H])c6N([H])[H])C5([H])[H])C([H])([H])C4([H])[H])[n+]3[H])c([H])c([H])c2C1([H])[H]

>  <smiles>  (93) 
[H]c1c([H])c([H])c2c(c1[H])C([H])([H])C([H])([H])C([H])([H])C2([H])N([H])C(=O)C1([H])N(C(=O)C([H])(N([H])C(=O)C([H])(N([H])C([H])([H])[H])C([H])([H])[H])C(C([H])([H])[H])(C([H])([H])[H])C([H])([H])[H])C([H])([H])c2c([H])c(OC([H])([H])c3c([H])n(C([H])([H])C([H])([H])[H])c(N([H])C4([H])C([H])([H])C([H])([H])N(C(=O)N5C([H])([H])C([H])([H])C([H])([H])C([H])(n6nc(-c7c([H])c([H])c(Oc8c([H])c([H])c(F)c([H])c8F)c([H])c7[H])c(C(=O)N([H])[H])c6N([H])[H])C5([H])[H])C([H])([H])C4([H])[H])[n+]3[H])c([H])c([H])c2C1([H])[H]

$$$$
94:0:0
     RDKit          3D

 93102  0  0  1  0  0  0  0  0999 V2000
  -27.1490  -22.0620   19.5160 C   0  0  0  0  0  2  0  0  0  0  0  0
  -27.5410  -23.2370   18.6240 C   0  0  0  0  0  2  0  0  0  0  0  0
  -29.4120  -22.8040   19.8780 C   0  0  0  0  0  2  0  0  0  0  0  0
  -28.4520  -21.6210   20.1910 C   0  0  0  0  0  3  0  0  0  0  0  0
  -28.5570  -23.9150   19.4210 N   0  0  0  0  0  0  0  0  0  0  0  0
  -28.5340  -25.9070   17.7860 C   0  0  0  0  0  2  0  0  0  0  0  0
  -29.3020  -24.9580   18.6910 C   0  0  0  0  0  3  0  0  0  0  0  0
  -29.1360  -26.4450   19.0620 C   0  0  0  0  0  3  0  0  0  0  0  0
  -28.3450  -26.6610   20.2370 O   0  0  0  0  0  0  0  0  0  0  0  0
  -24.5710  -31.8980   23.2550 C   0  0  0  0  0  0  0  0  0  0  0  0
  -27.2180  -27.4510   20.1640 C   0  0  0  0  0  0  0  0  0  0  0  0
  -23.3660  -30.4940   21.6140 C   0  0  0  0  0  3  0  0  0  0  0  0
  -24.8210  -28.9570   20.1910 C   0  0  0  0  0  0  0  0  0  0  0  0
  -25.8950  -30.8510   21.4200 C   0  0  0  0  0  2  0  0  0  0  0  0
  -25.9820  -29.4830   20.7730 C   0  0  0  0  0  0  0  0  0  0  0  0
  -27.1860  -28.7350   20.7590 C   0  0  0  0  0  3  0  0  0  0  0  0
  -26.0260  -26.9240   19.6260 C   0  0  0  0  0  3  0  0  0  0  0  0
  -24.8380  -27.6760   19.6170 C   0  0  0  0  0  3  0  0  0  0  0  0
  -23.5770  -29.8140   20.2360 C   0  0  0  0  0  2  0  0  0  0  0  0
  -24.6290  -31.0950   22.1540 N   0  0  0  0  0  0  0  0  0  0  0  0
  -23.4890  -32.1710   23.7920 O   0  0  0  0  0  0  0  0  0  0  0  0
  -22.7130  -29.4750   22.5760 C   0  0  0  0  0  0  0  0  0  0  0  0
  -21.3870  -29.2950   22.4490 N   0  0  0  0  0  0  0  0  0  0  0  0
  -23.3940  -28.8500   23.3930 O   0  0  0  0  0  0  0  0  0  0  0  0
  -20.8990  -29.8520   21.7610 H   0  0  0  0  0  0  0  0  0  0  0  0
  -18.0100  -28.1090   22.9460 C   0  0  0  0  0  0  0  0  0  0  0  0
  -20.5690  -28.3590   23.2180 C   0  0  0  0  0  3  0  0  0  0  0  0
  -20.6670  -26.9280   22.6420 C   0  0  0  0  0  2  0  0  0  0  0  0
  -19.5640  -26.6070   21.6280 C   0  0  0  0  0  2  0  0  0  0  0  0
  -18.1820  -26.7580   22.2710 C   0  0  0  0  0  2  0  0  0  0  0  0
  -19.1320  -28.8670   23.3770 C   0  0  0  0  0  0  0  0  0  0  0  0
  -18.9170  -30.1320   23.9660 C   0  0  0  0  0  3  0  0  0  0  0  0
  -17.6140  -30.6390   24.1300 C   0  0  0  0  0  3  0  0  0  0  0  0
  -16.5080  -29.8780   23.7160 C   0  0  0  0  0  3  0  0  0  0  0  0
  -16.7070  -28.6140   23.1310 C   0  0  0  0  0  3  0  0  0  0  0  0
  -25.8570  -32.5300   23.8750 C   0  0  0  0  0  3  0  0  0  0  0  0
  -25.5510  -33.9310   24.1920 N   0  0  0  0  0  0  0  0  0  0  0  0
  -25.8960  -34.9750   23.4280 C   0  0  0  0  0  0  0  0  0  0  0  0
  -26.5760  -34.8610   22.4040 O   0  0  0  0  0  0  0  0  0  0  0  0
  -24.9520  -34.0940   24.9880 H   0  0  0  0  0  0  0  0  0  0  0  0
  -24.1850  -36.7760   23.0350 C   0  0  0  0  0  1  0  0  0  0  0  0
  -25.4090  -36.3690   23.8700 C   0  0  0  0  0  3  0  0  0  0  0  0
  -27.5350  -37.2430   24.7340 C   0  0  0  0  0  1  0  0  0  0  0  0
  -26.4500  -37.4150   23.7710 N   0  0  0  0  0  0  0  0  0  0  0  0
  -26.0470  -38.3380   23.9090 H   0  0  0  0  0  0  0  0  0  0  0  0
  -26.3690  -31.7660   25.1580 C   0  0  1  0  0  0  0  0  0  0  0  0
  -25.2740  -31.5390   26.2250 C   0  0  0  0  0  1  0  0  0  0  0  0
  -26.9490  -30.3850   24.7750 C   0  0  0  0  0  1  0  0  0  0  0  0
  -27.5190  -32.5640   25.8170 C   0  0  0  0  0  1  0  0  0  0  0  0
  -28.8850  -20.2910   19.6680 N   0  0  0  0  0  4  0  0  0  0  0  0
  -29.3660  -20.4000   18.7900 H   0  0  0  0  0  0  0  0  0  0  0  0
  -28.0330  -19.7910   19.4730 H   0  0  0  0  0  0  0  0  0  0  0  0
  -29.6720  -19.4150   20.5830 C   0  0  0  0  0  2  0  0  0  0  0  0
  -29.4890  -17.8980   20.2700 C   0  0  0  0  0  2  0  0  0  0  0  0
  -30.3190  -16.9390   21.1710 C   0  0  0  0  0  2  0  0  0  0  0  0
  -30.6660  -14.5130   20.5150 C   0  0  0  0  0  0  0  0  0  0  0  0
  -30.3960  -12.3560   19.3520 C   0  0  0  0  0  2  0  0  0  0  0  0
  -29.4540  -12.5600   18.1480 C   0  0  0  0  0  2  0  0  0  0  0  0
  -27.9790  -12.4120   18.5720 C   0  0  0  0  0  2  0  0  0  0  0  0
  -27.6330  -13.2380   19.8400 C   0  0  0  0  0  3  0  0  0  0  0  0
  -28.6860  -13.0120   20.9470 C   0  0  0  0  0  2  0  0  0  0  0  0
  -30.0100  -13.3300   20.3840 N   0  0  0  0  0  0  0  0  0  0  0  0
  -31.7990  -14.7070   20.0660 O   0  0  0  0  0  0  0  0  0  0  0  0
  -29.9340  -15.5210   21.0290 N   0  0  0  0  0  0  0  0  0  0  0  0
  -29.0100  -15.2670   21.3470 H   0  0  0  0  0  0  0  0  0  0  0  0
  -25.2270  -13.8330   20.5320 C   0  0  0  0  0  0  0  0  0  0  0  0
  -24.1600  -13.0550   20.8970 C   0  0  0  0  0  0  0  0  0  0  0  0
  -24.6300  -11.7060   20.8730 C   0  0  0  0  0  0  0  0  0  0  0  0
  -26.2790  -12.9570   20.3110 N   0  0  0  0  0  0  0  0  0  0  0  0
  -25.9230  -11.6730   20.5730 N   0  0  0  0  0  0  0  0  0  0  0  0
  -23.9100  -10.4400   21.0620 C   0  0  0  0  0  0  0  0  0  0  0  0
  -24.3500   -9.4740   21.9940 C   0  0  0  0  0  3  0  0  0  0  0  0
  -23.6310   -8.2720   22.1710 C   0  0  0  0  0  3  0  0  0  0  0  0
  -22.4600   -8.0280   21.4160 C   0  0  0  0  0  0  0  0  0  0  0  0
  -22.0400   -8.9820   20.4730 C   0  0  0  0  0  3  0  0  0  0  0  0
  -22.7580  -10.1760   20.2940 C   0  0  0  0  0  3  0  0  0  0  0  0
  -21.7130   -6.8770   21.5030 O   0  0  0  0  0  0  0  0  0  0  0  0
  -21.6760   -6.1280   22.6510 C   0  0  0  0  0  0  0  0  0  0  0  0
  -21.2590   -6.6730   23.8850 C   0  0  0  0  0  3  0  0  0  0  0  0
  -21.1690   -5.8500   25.0240 C   0  0  0  0  0  3  0  0  0  0  0  0
  -21.4870   -4.4810   24.9310 C   0  0  0  0  0  0  0  0  0  0  0  0
  -21.9000   -3.9350   23.7030 C   0  0  0  0  0  3  0  0  0  0  0  0
  -21.9910   -4.7560   22.5650 C   0  0  0  0  0  0  0  0  0  0  0  0
  -22.3680   -4.2200   21.3800 F   0  0  0  0  0  0  0  0  0  0  0  0
  -21.3940   -3.6880   26.0250 F   0  0  0  0  0  0  0  0  0  0  0  0
  -22.7570  -13.5240   21.1580 C   0  0  0  0  0  0  0  0  0  0  0  0
  -22.0280  -12.8270   22.0210 N   0  0  0  0  0  0  0  0  0  0  0  0
  -22.3170  -14.5440   20.6320 O   0  0  0  0  0  0  0  0  0  0  0  0
  -22.3950  -12.0020   22.4710 H   0  0  0  0  0  0  0  0  0  0  0  0
  -21.0870  -13.1240   22.2380 H   0  0  0  0  0  0  0  0  0  0  0  0
  -25.3830  -15.2040   20.3520 N   0  0  0  0  0  0  0  0  0  0  0  0
  -24.6090  -15.8530   20.4510 H   0  0  0  0  0  0  0  0  0  0  0  0
  -26.2270  -15.6460   20.0090 H   0  0  0  0  0  0  0  0  0  0  0  0
  1  4  1  0
  2  1  1  0
  3  4  1  0
  4 50  1  0
  5  2  1  0
  5  3  1  0
  6  8  1  0
  7  6  1  0
  7  8  1  0
  7  5  1  0
  8  9  1  0
 10 21  2  0
 11  9  1  0
 11 16  1  0
 12 20  1  0
 12 22  1  0
 13 19  1  0
 13 15  1  0
 14 20  1  0
 15 14  1  0
 16 15  2  0
 17 11  2  0
 18 17  1  0
 18 13  2  0
 19 12  1  0
 20 10  1  0
 22 24  2  0
 23 22  1  0
 25 23  1  0
 26 35  2  0
 26 31  1  0
 27 23  1  0
 27 31  1  0
 28 27  1  0
 29 30  1  0
 29 28  1  0
 30 26  1  0
 31 32  2  0
 32 33  1  0
 34 33  2  0
 35 34  1  0
 36 10  1  0
 36 37  1  0
 36 46  1  0
 37 40  1  0
 38 42  1  0
 38 37  1  0
 39 38  2  0
 42 41  1  0
 44 42  1  0
 44 45  1  0
 44 43  1  0
 46 49  1  1
 46 47  1  0
 48 46  1  0
 50 53  1  0
 51 50  1  0
 52 50  1  0
 54 53  1  0
 54 55  1  0
 56 64  1  0
 57 62  1  0
 58 59  1  0
 58 57  1  0
 60 59  1  0
 60 69  1  0
 60 61  1  0
 62 56  1  0
 62 61  1  0
 63 56  2  0
 64 55  1  0
 64 65  1  0
 66 67  2  0
 67 86  1  0
 68 67  1  0
 68 71  1  0
 69 66  1  0
 69 70  1  0
 70 68  2  0
 71 72  1  0
 72 73  2  0
 74 77  1  0
 74 73  1  0
 75 74  2  0
 76 75  1  0
 76 71  2  0
 77 78  1  0
 78 79  1  0
 79 80  2  0
 81 80  1  0
 81 85  1  0
 82 81  2  0
 83 78  2  0
 83 82  1  0
 84 83  1  0
 86 87  1  0
 87 90  1  0
 87 89  1  0
 88 86  2  0
 91 92  1  0
 91 66  1  0
 93 91  1  0
M  ISO  4   8 101   9 101  56 100  64 100
M  END
>  <TORSDO>  (94) 
F 21

>  <SCORE>  (94) 
-13.504

>  <name>  (94) 
94

>  <ligand_id>  (94) 
94

>  <original_smiles>  (94) 
[H]c1c([H])c([H])c2c(c1[H])C([H])([H])C([H])([H])C([H])([H])C2([H])N([H])C(=O)C1([H])N(C(=O)C([H])(N([H])C(=O)C([H])(N([H])C([H])([H])[H])C([H])([H])[H])C(C([H])([H])[H])(C([H])([H])[H])C([H])([H])[H])C([H])([H])c2c([H])c(OC3([H])C([H])([H])C3([H])N3C([H])([H])C([H])([H])C([H])([N+]([H])([H])C([H])([H])C([H])([H])C([H])([H])N([H])C(=O)N4C([H])([H])C([H])([H])C([H])([H])C([H])(n5nc(-c6c([H])c([H])c(Oc7c([H])c([H])c(F)c([H])c7F)c([H])c6[H])c(C(=O)N([H])[H])c5N([H])[H])C4([H])[H])C3([H])[H])c([H])c([H])c2C1([H])[H]

>  <smiles>  (94) 
[H]c1c([H])c([H])c2c(c1[H])C([H])([H])C([H])([H])C([H])([H])C2([H])N([H])C(=O)C1([H])N(C(=O)C([H])(N([H])C(=O)C([H])(N([H])C([H])([H])[H])C([H])([H])[H])C(C([H])([H])[H])(C([H])([H])[H])C([H])([H])[H])C([H])([H])c2c([H])c(OC3([H])C([H])([H])C3([H])N3C([H])([H])C([H])([H])C([H])([N+]([H])([H])C([H])([H])C([H])([H])C([H])([H])N([H])C(=O)N4C([H])([H])C([H])([H])C([H])([H])C([H])(n5nc(-c6c([H])c([H])c(Oc7c([H])c([H])c(F)c([H])c7F)c([H])c6[H])c(C(=O)N([H])[H])c5N([H])[H])C4([H])[H])C3([H])[H])c([H])c([H])c2C1([H])[H]

$$$$
95:0:0
     RDKit          3D

 92101  0  0  1  0  0  0  0  0999 V2000
  -29.6230  -22.7860   19.6440 C   0  0  0  0  0  3  0  0  0  0  0  0
  -28.7160  -23.9180   19.7720 C   0  0  0  0  0  0  0  0  0  0  0  0
  -29.2070  -21.4500   19.9990 C   0  0  0  0  0  0  0  0  0  0  0  0
  -27.1700  -22.3790   20.5510 C   0  0  0  0  0  0  0  0  0  0  0  0
  -25.7520  -22.1100   21.0140 C   0  0  0  0  0  1  0  0  0  0  0  0
  -27.4800  -23.6460   20.2470 N   0  0  0  0  0  0  0  0  0  0  0  0
  -27.9540  -21.3010   20.4460 N   0  0  0  0  0  0  0  0  0  0  0  0
  -30.0080  -20.2380   19.9020 N   0  0  0  0  0  0  0  0  0  0  0  0
  -30.9610  -20.3690   19.5850 H   0  0  0  0  0  0  0  0  0  0  0  0
  -30.9560  -15.1060   19.9950 C   0  0  0  0  0  0  0  0  0  0  0  0
  -30.7010  -12.8380   18.9670 C   0  0  0  0  0  2  0  0  0  0  0  0
  -29.7090  -12.9170   17.7850 C   0  0  0  0  0  2  0  0  0  0  0  0
  -28.2550  -12.7550   18.2720 C   0  0  0  0  0  2  0  0  0  0  0  0
  -27.9410  -13.6250   19.5190 C   0  0  0  0  0  3  0  0  0  0  0  0
  -29.0480  -13.4960   20.5870 C   0  0  0  0  0  2  0  0  0  0  0  0
  -30.3100  -13.8840   19.9430 N   0  0  0  0  0  0  0  0  0  0  0  0
  -32.1170  -15.1770   19.5750 O   0  0  0  0  0  0  0  0  0  0  0  0
  -29.5970  -18.2440   21.5170 C   0  0  0  0  0  2  0  0  0  0  0  0
  -29.5500  -16.6890   21.3970 C   0  0  0  0  0  2  0  0  0  0  0  0
  -30.4090  -17.5990   19.4100 C   0  0  0  0  0  2  0  0  0  0  0  0
  -29.5710  -18.7830   20.0840 C   0  0  0  0  0  3  0  0  0  0  0  0
  -30.2140  -16.2850   20.1480 N   0  0  0  0  0  0  0  0  0  0  0  0
  -25.5980  -14.2280   20.3750 C   0  0  0  0  0  0  0  0  0  0  0  0
  -24.5340  -13.4580   20.7570 C   0  0  0  0  0  0  0  0  0  0  0  0
  -24.9750  -12.1020   20.6620 C   0  0  0  0  0  0  0  0  0  0  0  0
  -26.6170  -13.3420   20.0620 N   0  0  0  0  0  0  0  0  0  0  0  0
  -26.2510  -12.0550   20.2970 N   0  0  0  0  0  0  0  0  0  0  0  0
  -24.2370  -10.8450   20.8440 C   0  0  0  0  0  0  0  0  0  0  0  0
  -24.6360   -9.8830   21.7970 C   0  0  0  0  0  3  0  0  0  0  0  0
  -23.8980   -8.6930   21.9650 C   0  0  0  0  0  3  0  0  0  0  0  0
  -22.7460   -8.4540   21.1790 C   0  0  0  0  0  0  0  0  0  0  0  0
  -22.3660   -9.4050   20.2150 C   0  0  0  0  0  3  0  0  0  0  0  0
  -23.1050  -10.5880   20.0460 C   0  0  0  0  0  3  0  0  0  0  0  0
  -21.9820   -7.3130   21.2560 O   0  0  0  0  0  0  0  0  0  0  0  0
  -21.8260   -6.6330   22.4350 C   0  0  0  0  0  0  0  0  0  0  0  0
  -21.2680   -7.2420   23.5800 C   0  0  0  0  0  3  0  0  0  0  0  0
  -21.0620   -6.4850   24.7510 C   0  0  0  0  0  3  0  0  0  0  0  0
  -21.3990   -5.1180   24.7730 C   0  0  0  0  0  0  0  0  0  0  0  0
  -21.9460   -4.5070   23.6310 C   0  0  0  0  0  3  0  0  0  0  0  0
  -22.1550   -5.2620   22.4640 C   0  0  0  0  0  0  0  0  0  0  0  0
  -22.6630   -4.6640   21.3590 F   0  0  0  0  0  0  0  0  0  0  0  0
  -21.1930   -4.3870   25.8940 F   0  0  0  0  0  0  0  0  0  0  0  0
  -23.1580  -13.9480   21.0990 C   0  0  0  0  0  0  0  0  0  0  0  0
  -22.4630  -13.2540   21.9920 N   0  0  0  0  0  0  0  0  0  0  0  0
  -22.7110  -14.9860   20.6110 O   0  0  0  0  0  0  0  0  0  0  0  0
  -22.8310  -12.4120   22.4090 H   0  0  0  0  0  0  0  0  0  0  0  0
  -21.5450  -13.5740   22.2650 H   0  0  0  0  0  0  0  0  0  0  0  0
  -25.7700  -15.6020   20.2510 N   0  0  0  0  0  0  0  0  0  0  0  0
  -25.0210  -16.2470   20.4780 H   0  0  0  0  0  0  0  0  0  0  0  0
  -26.6380  -16.0640   20.0160 H   0  0  0  0  0  0  0  0  0  0  0  0
  -28.9620  -25.3970   19.1670 C   0  0  0  0  0  2  0  0  0  0  0  0
  -28.7230  -26.7070   19.8880 O   0  0  0  0  0  0  0  0  0  0  0  0
  -24.6700  -31.8370   23.0370 C   0  0  0  0  0  0  0  0  0  0  0  0
  -27.5580  -27.5140   19.8110 C   0  0  0  0  0  0  0  0  0  0  0  0
  -23.5560  -30.4310   21.3420 C   0  0  0  0  0  3  0  0  0  0  0  0
  -25.1000  -29.0250   19.8510 C   0  0  0  0  0  0  0  0  0  0  0  0
  -26.0760  -30.8970   21.1810 C   0  0  0  0  0  2  0  0  0  0  0  0
  -26.2380  -29.5480   20.4740 C   0  0  0  0  0  0  0  0  0  0  0  0
  -27.4620  -28.8030   20.4460 C   0  0  0  0  0  3  0  0  0  0  0  0
  -26.3930  -27.0570   19.1600 C   0  0  0  0  0  3  0  0  0  0  0  0
  -25.1870  -27.7910   19.1810 C   0  0  0  0  0  3  0  0  0  0  0  0
  -23.8100  -29.8210   19.9370 C   0  0  0  0  0  2  0  0  0  0  0  0
  -24.7860  -31.0750   21.9100 N   0  0  0  0  0  0  0  0  0  0  0  0
  -23.5720  -32.0270   23.5800 O   0  0  0  0  0  0  0  0  0  0  0  0
  -22.9570  -29.3430   22.2670 C   0  0  0  0  0  0  0  0  0  0  0  0
  -21.6400  -29.1030   22.1480 N   0  0  0  0  0  0  0  0  0  0  0  0
  -23.6770  -28.7190   23.0520 O   0  0  0  0  0  0  0  0  0  0  0  0
  -21.1150  -29.6640   21.4930 H   0  0  0  0  0  0  0  0  0  0  0  0
  -18.3310  -27.7270   22.6580 C   0  0  0  0  0  0  0  0  0  0  0  0
  -20.8810  -28.0900   22.8850 C   0  0  0  0  0  3  0  0  0  0  0  0
  -21.0320  -26.6980   22.2300 C   0  0  0  0  0  2  0  0  0  0  0  0
  -19.9220  -26.3790   21.2230 C   0  0  0  0  0  2  0  0  0  0  0  0
  -18.5510  -26.4260   21.9030 C   0  0  0  0  0  2  0  0  0  0  0  0
  -19.4250  -28.5160   23.1030 C   0  0  0  0  0  0  0  0  0  0  0  0
  -19.1630  -29.7330   23.7690 C   0  0  0  0  0  3  0  0  0  0  0  0
  -17.8410  -30.1610   23.9940 C   0  0  0  0  0  3  0  0  0  0  0  0
  -16.7630  -29.3710   23.5630 C   0  0  0  0  0  3  0  0  0  0  0  0
  -17.0090  -28.1540   22.8990 C   0  0  0  0  0  3  0  0  0  0  0  0
  -25.9110  -32.5290   23.6850 C   0  0  0  0  0  3  0  0  0  0  0  0
  -25.5220  -33.8980   24.0510 N   0  0  0  0  0  0  0  0  0  0  0  0
  -25.8050  -34.9930   23.3330 C   0  0  0  0  0  0  0  0  0  0  0  0
  -26.4930  -34.9620   22.3110 O   0  0  0  0  0  0  0  0  0  0  0  0
  -24.9190  -33.9980   24.8550 H   0  0  0  0  0  0  0  0  0  0  0  0
  -23.9920  -36.7020   23.0050 C   0  0  0  0  0  1  0  0  0  0  0  0
  -25.2340  -36.3350   23.8310 C   0  0  0  0  0  3  0  0  0  0  0  0
  -27.2970  -37.3050   24.7440 C   0  0  0  0  0  1  0  0  0  0  0  0
  -26.2100  -37.4460   23.7790 N   0  0  0  0  0  0  0  0  0  0  0  0
  -25.7490  -38.3370   23.9460 H   0  0  0  0  0  0  0  0  0  0  0  0
  -26.4610  -31.7590   24.9490 C   0  0  1  0  0  0  0  0  0  0  0  0
  -25.3720  -31.4410   25.9990 C   0  0  0  0  0  1  0  0  0  0  0  0
  -27.1200  -30.4240   24.5330 C   0  0  0  0  0  1  0  0  0  0  0  0
  -27.5600  -32.6020   25.6380 C   0  0  0  0  0  1  0  0  0  0  0  0
  1  2  2  0
  1  3  1  0
  2  6  1  0
  3  7  2  0
  4  5  1  0
  6  4  2  0
  7  4  1  0
  8  3  1  0
  9  8  1  0
 10 22  1  0
 11 16  1  0
 12 13  1  0
 12 11  1  0
 14 13  1  0
 14 26  1  0
 14 15  1  0
 16 10  1  0
 16 15  1  0
 17 10  2  0
 19 18  1  0
 20 21  1  0
 20 22  1  0
 21  8  1  0
 21 18  1  0
 22 19  1  0
 23 24  2  0
 24 43  1  0
 25 24  1  0
 25 28  1  0
 26 27  1  0
 26 23  1  0
 27 25  2  0
 28 29  1  0
 29 30  2  0
 31 34  1  0
 31 30  1  0
 32 31  2  0
 33 32  1  0
 33 28  2  0
 34 35  1  0
 35 40  2  0
 35 36  1  0
 36 37  2  0
 37 38  1  0
 38 42  1  0
 39 38  2  0
 40 39  1  0
 41 40  1  0
 43 44  1  0
 44 47  1  0
 44 46  1  0
 45 43  2  0
 48 23  1  0
 48 49  1  0
 50 48  1  0
 51  2  1  0
 51 52  1  0
 53 64  2  0
 54 52  1  0
 54 59  1  0
 55 63  1  0
 55 65  1  0
 56 62  1  0
 56 58  1  0
 57 63  1  0
 58 57  1  0
 59 58  2  0
 60 61  1  0
 60 54  2  0
 61 56  2  0
 62 55  1  0
 63 53  1  0
 65 67  2  0
 66 65  1  0
 68 66  1  0
 69 78  2  0
 69 74  1  0
 70 66  1  0
 70 74  1  0
 71 70  1  0
 72 73  1  0
 72 71  1  0
 73 69  1  0
 74 75  2  0
 75 76  1  0
 77 76  2  0
 78 77  1  0
 79 53  1  0
 79 80  1  0
 79 89  1  0
 80 83  1  0
 81 85  1  0
 81 80  1  0
 82 81  2  0
 85 84  1  0
 87 85  1  0
 87 88  1  0
 87 86  1  0
 89 92  1  1
 89 90  1  0
 91 89  1  0
M  ISO  4  10 100  22 100  51 101  52 101
M  END
>  <TORSDO>  (95) 
F 17

>  <SCORE>  (95) 
-12.179

>  <name>  (95) 
95

>  <ligand_id>  (95) 
95

>  <original_smiles>  (95) 
[H]c1c(N([H])C2([H])C([H])([H])N(C(=O)N3C([H])([H])C([H])([H])C([H])([H])C([H])(n4nc(-c5c([H])c([H])c(Oc6c([H])c([H])c(F)c([H])c6F)c([H])c5[H])c(C(=O)N([H])[H])c4N([H])[H])C3([H])[H])C([H])([H])C2([H])[H])nc(C([H])([H])[H])nc1C([H])([H])Oc1c([H])c([H])c2c(c1[H])C([H])([H])N(C(=O)C([H])(N([H])C(=O)C([H])(N([H])C([H])([H])[H])C([H])([H])[H])C(C([H])([H])[H])(C([H])([H])[H])C([H])([H])[H])C([H])(C(=O)N([H])C1([H])c3c([H])c([H])c([H])c([H])c3C([H])([H])C([H])([H])C1([H])[H])C2([H])[H]

>  <smiles>  (95) 
[H]c1c(N([H])C2([H])C([H])([H])N(C(=O)N3C([H])([H])C([H])([H])C([H])([H])C([H])(n4nc(-c5c([H])c([H])c(Oc6c([H])c([H])c(F)c([H])c6F)c([H])c5[H])c(C(=O)N([H])[H])c4N([H])[H])C3([H])[H])C([H])([H])C2([H])[H])nc(C([H])([H])[H])nc1C([H])([H])Oc1c([H])c([H])c2c(c1[H])C([H])([H])N(C(=O)C([H])(N([H])C(=O)C([H])(N([H])C([H])([H])[H])C([H])([H])[H])C(C([H])([H])[H])(C([H])([H])[H])C([H])([H])[H])C([H])(C(=O)N([H])C1([H])c3c([H])c([H])c([H])c([H])c3C([H])([H])C([H])([H])C1([H])[H])C2([H])[H]

$$$$
96:0:0
     RDKit          3D

100110  0  0  1  0  0  0  0  0999 V2000
  -31.8900  -23.6440   18.6630 C   0  0  0  0  0  2  0  0  0  0  0  0
  -31.3420  -22.2290   18.4960 C   0  0  0  0  0  2  0  0  0  0  0  0
  -31.3990  -22.5940   20.7820 C   0  0  0  0  0  2  0  0  0  0  0  0
  -31.6720  -23.9690   20.1450 C   0  0  0  0  0  3  0  0  0  0  0  0
  -31.6950  -21.5860   19.7580 N   0  0  0  0  0  0  0  0  0  0  0  0
  -30.5330  -24.8870   20.3900 N   0  0  0  0  0  4  0  0  0  0  0  0
  -30.3620  -24.8850   21.3840 H   0  0  0  0  0  0  0  0  0  0  0  0
  -29.6980  -24.5320   19.9480 H   0  0  0  0  0  0  0  0  0  0  0  0
  -30.7380  -26.2960   19.9800 C   0  0  0  0  0  2  0  0  0  0  0  0
  -29.5950  -27.1900   20.4840 C   0  0  0  0  0  2  0  0  0  0  0  0
  -28.3690  -26.6380   20.0070 O   0  0  0  0  0  0  0  0  0  0  0  0
  -24.4620  -31.7130   23.2290 C   0  0  0  0  0  0  0  0  0  0  0  0
  -27.2210  -27.3930   20.0960 C   0  0  0  0  0  0  0  0  0  0  0  0
  -23.2960  -30.3510   21.5220 C   0  0  0  0  0  3  0  0  0  0  0  0
  -24.7910  -28.8430   20.1080 C   0  0  0  0  0  0  0  0  0  0  0  0
  -25.8190  -30.7300   21.3880 C   0  0  0  0  0  2  0  0  0  0  0  0
  -25.9270  -29.3710   20.7330 C   0  0  0  0  0  0  0  0  0  0  0  0
  -27.1390  -28.6540   20.7380 C   0  0  0  0  0  3  0  0  0  0  0  0
  -26.0620  -26.8660   19.4860 C   0  0  0  0  0  3  0  0  0  0  0  0
  -24.8480  -27.5800   19.4910 C   0  0  0  0  0  3  0  0  0  0  0  0
  -23.5410  -29.6930   20.1350 C   0  0  0  0  0  2  0  0  0  0  0  0
  -24.5420  -30.9430   22.1080 N   0  0  0  0  0  0  0  0  0  0  0  0
  -23.3710  -31.9730   23.7520 O   0  0  0  0  0  0  0  0  0  0  0  0
  -22.6250  -29.3100   22.4450 C   0  0  0  0  0  0  0  0  0  0  0  0
  -21.3030  -29.1360   22.2850 N   0  0  0  0  0  0  0  0  0  0  0  0
  -23.2890  -28.6600   23.2560 O   0  0  0  0  0  0  0  0  0  0  0  0
  -20.8320  -29.7150   21.6040 H   0  0  0  0  0  0  0  0  0  0  0  0
  -17.9190  -27.9380   22.6730 C   0  0  0  0  0  0  0  0  0  0  0  0
  -20.4690  -28.1840   23.0140 C   0  0  0  0  0  3  0  0  0  0  0  0
  -20.5830  -26.7660   22.4070 C   0  0  0  0  0  2  0  0  0  0  0  0
  -19.5060  -26.4710   21.3570 C   0  0  0  0  0  2  0  0  0  0  0  0
  -18.1080  -26.6040   21.9690 C   0  0  0  0  0  2  0  0  0  0  0  0
  -19.0280  -28.6870   23.1480 C   0  0  0  0  0  0  0  0  0  0  0  0
  -18.7990  -29.9370   23.7650 C   0  0  0  0  0  3  0  0  0  0  0  0
  -17.4930  -30.4390   23.9070 C   0  0  0  0  0  3  0  0  0  0  0  0
  -16.3980  -29.6880   23.4450 C   0  0  0  0  0  3  0  0  0  0  0  0
  -16.6110  -28.4390   22.8360 C   0  0  0  0  0  3  0  0  0  0  0  0
  -25.7360  -32.3250   23.8960 C   0  0  0  0  0  3  0  0  0  0  0  0
  -25.4080  -33.6980   24.2990 N   0  0  0  0  0  0  0  0  0  0  0  0
  -25.7330  -34.7940   23.5970 C   0  0  0  0  0  0  0  0  0  0  0  0
  -26.4140  -34.7530   22.5690 O   0  0  0  0  0  0  0  0  0  0  0  0
  -24.7980  -33.8050   25.0970 H   0  0  0  0  0  0  0  0  0  0  0  0
  -23.9760  -36.5720   23.3250 C   0  0  0  0  0  1  0  0  0  0  0  0
  -25.2210  -36.1480   24.1200 C   0  0  0  0  0  3  0  0  0  0  0  0
  -27.3460  -37.0160   24.9900 C   0  0  0  0  0  1  0  0  0  0  0  0
  -26.2360  -37.2230   24.0650 N   0  0  0  0  0  0  0  0  0  0  0  0
  -25.8160  -38.1270   24.2660 H   0  0  0  0  0  0  0  0  0  0  0  0
  -26.2580  -31.4880   25.1290 C   0  0  1  0  0  0  0  0  0  0  0  0
  -25.1680  -31.1810   26.1810 C   0  0  0  0  0  1  0  0  0  0  0  0
  -26.8570  -30.1400   24.6590 C   0  0  0  0  0  1  0  0  0  0  0  0
  -27.4010  -32.2560   25.8340 C   0  0  0  0  0  1  0  0  0  0  0  0
  -30.9450  -20.3360   19.9410 C   0  0  0  0  0  2  0  0  0  0  0  0
  -31.2920  -19.6310   21.2690 C   0  0  0  0  0  2  0  0  0  0  0  0
  -28.8020  -16.3830   22.2840 C   0  0  0  0  0  3  0  0  0  0  0  0
  -29.0720  -18.6660   22.1420 C   0  0  0  0  0  0  0  0  0  0  0  0
  -30.3660  -18.4670   21.5880 C   0  0  0  0  0  0  0  0  0  0  0  0
  -30.0660  -16.1680   21.6870 C   0  0  0  0  0  0  0  0  0  0  0  0
  -28.3040  -17.6160   22.5070 N   0  0  0  0  0  0  0  0  0  0  0  0
  -30.8530  -17.2220   21.3410 N   0  0  0  0  0  0  0  0  0  0  0  0
  -30.8160  -14.2540   20.3690 C   0  0  0  0  0  0  0  0  0  0  0  0
  -30.5200  -12.2420   18.9690 C   0  0  0  0  0  2  0  0  0  0  0  0
  -29.5950  -12.5270   17.7730 C   0  0  0  0  0  2  0  0  0  0  0  0
  -28.1150  -12.3450   18.1610 C   0  0  0  0  0  2  0  0  0  0  0  0
  -27.7520  -13.1050   19.4630 C   0  0  0  0  0  3  0  0  0  0  0  0
  -28.7770  -12.7910   20.5750 C   0  0  0  0  0  2  0  0  0  0  0  0
  -30.1330  -13.1180   20.0820 N   0  0  0  0  0  0  0  0  0  0  0  0
  -31.7900  -14.6530   19.7190 O   0  0  0  0  0  0  0  0  0  0  0  0
  -30.4250  -14.8200   21.5170 N   0  0  0  0  0  0  0  0  0  0  0  0
  -29.8410  -14.1880   22.0420 H   0  0  0  0  0  0  0  0  0  0  0  0
  -25.3350  -13.6820   20.1500 C   0  0  0  0  0  0  0  0  0  0  0  0
  -24.2600  -12.8910   20.4600 C   0  0  0  0  0  0  0  0  0  0  0  0
  -24.7200  -11.5430   20.3660 C   0  0  0  0  0  0  0  0  0  0  0  0
  -26.3860  -12.8110   19.8950 N   0  0  0  0  0  0  0  0  0  0  0  0
  -26.0150  -11.5170   20.0760 N   0  0  0  0  0  0  0  0  0  0  0  0
  -23.9910  -10.2710   20.4830 C   0  0  0  0  0  0  0  0  0  0  0  0
  -24.4470   -9.2340   21.3250 C   0  0  0  0  0  3  0  0  0  0  0  0
  -23.7200   -8.0290   21.4330 C   0  0  0  0  0  3  0  0  0  0  0  0
  -22.5240   -7.8540   20.6970 C   0  0  0  0  0  0  0  0  0  0  0  0
  -22.0860   -8.8810   19.8420 C   0  0  0  0  0  3  0  0  0  0  0  0
  -22.8140  -10.0770   19.7330 C   0  0  0  0  0  3  0  0  0  0  0  0
  -21.7710   -6.7050   20.7130 O   0  0  0  0  0  0  0  0  0  0  0  0
  -21.7890   -5.8470   21.7830 C   0  0  0  0  0  0  0  0  0  0  0  0
  -21.4960   -6.2830   23.0930 C   0  0  0  0  0  3  0  0  0  0  0  0
  -21.4600   -5.3570   24.1540 C   0  0  0  0  0  3  0  0  0  0  0  0
  -21.7070   -3.9930   23.9070 C   0  0  0  0  0  0  0  0  0  0  0  0
  -21.9960   -3.5550   22.6030 C   0  0  0  0  0  3  0  0  0  0  0  0
  -22.0340   -4.4790   21.5440 C   0  0  0  0  0  0  0  0  0  0  0  0
  -22.2930   -4.0480   20.2860 F   0  0  0  0  0  0  0  0  0  0  0  0
  -21.6630   -3.1020   24.9250 F   0  0  0  0  0  0  0  0  0  0  0  0
  -22.8590  -13.3550   20.7340 C   0  0  0  0  0  0  0  0  0  0  0  0
  -22.1180  -12.6220   21.5570 N   0  0  0  0  0  0  0  0  0  0  0  0
  -22.4270  -14.4030   20.2540 O   0  0  0  0  0  0  0  0  0  0  0  0
  -22.4770  -11.7730   21.9710 H   0  0  0  0  0  0  0  0  0  0  0  0
  -21.1790  -12.9170   21.7800 H   0  0  0  0  0  0  0  0  0  0  0  0
  -25.4990  -15.0600   20.0470 N   0  0  0  0  0  0  0  0  0  0  0  0
  -24.7260  -15.7060   20.1690 H   0  0  0  0  0  0  0  0  0  0  0  0
  -26.3580  -15.5170   19.7660 H   0  0  0  0  0  0  0  0  0  0  0  0
  -26.9450  -20.2060   22.5450 C   0  0  0  0  0  2  0  0  0  0  0  0
  -27.6020  -20.6390   21.2640 C   0  0  0  0  0  2  0  0  0  0  0  0
  -28.4440  -20.0210   22.3620 C   0  0  0  0  0  3  0  0  0  0  0  0
  1  4  1  0
  2  1  1  0
  2  5  1  0
  4  6  1  0
  4  3  1  0
  5 52  1  0
  5  3  1  0
  6  7  1  0
  8  6  1  0
  9  6  1  0
  9 10  1  0
 11 13  1  0
 11 10  1  0
 12 23  2  0
 13 18  1  0
 14 22  1  0
 14 24  1  0
 15 21  1  0
 15 17  1  0
 16 22  1  0
 17 18  2  0
 17 16  1  0
 19 20  1  0
 19 13  2  0
 20 15  2  0
 21 14  1  0
 22 12  1  0
 24 26  2  0
 25 24  1  0
 27 25  1  0
 28 37  2  0
 28 33  1  0
 29 25  1  0
 29 33  1  0
 30 29  1  0
 31 32  1  0
 31 30  1  0
 32 28  1  0
 33 34  2  0
 34 35  1  0
 36 35  2  0
 37 36  1  0
 38 12  1  0
 38 39  1  0
 38 48  1  0
 39 42  1  0
 40 44  1  0
 40 39  1  0
 41 40  2  0
 44 43  1  0
 46 44  1  0
 46 47  1  0
 46 45  1  0
 48 51  1  1
 48 49  1  0
 50 48  1  0
 52 53  1  0
 53 56  1  0
 54 58  1  0
 55100  1  0
 55 58  2  0
 56 55  1  0
 57 54  2  0
 59 56  2  0
 59 57  1  0
 60 68  1  0
 61 66  1  0
 62 63  1  0
 62 61  1  0
 64 63  1  0
 64 73  1  0
 64 65  1  0
 66 60  1  0
 66 65  1  0
 67 60  2  0
 68 57  1  0
 68 69  1  0
 70 71  2  0
 71 90  1  0
 72 71  1  0
 72 75  1  0
 73 74  1  0
 73 70  1  0
 74 72  2  0
 75 76  1  0
 76 77  2  0
 78 81  1  0
 78 77  1  0
 79 78  2  0
 80 79  1  0
 80 75  2  0
 81 82  1  0
 82 83  1  0
 83 84  2  0
 85 84  1  0
 85 89  1  0
 86 85  2  0
 87 82  2  0
 87 86  1  0
 88 87  1  0
 90 91  1  0
 91 94  1  0
 91 93  1  0
 92 90  2  0
 95 70  1  0
 95 96  1  0
 97 95  1  0
 99100  1  0
 99 98  1  0
100 98  1  0
M  ISO  4  10 101  11 101  60 100  68 100
M  END
>  <TORSDO>  (96) 
F 23

>  <SCORE>  (96) 
5.862

>  <name>  (96) 
96

>  <ligand_id>  (96) 
96

>  <original_smiles>  (96) 
[H]c1nc(C2([H])C([H])([H])C2([H])[H])c(C([H])([H])C([H])([H])N2C([H])([H])C([H])([H])C([H])([N+]([H])([H])C([H])([H])C([H])([H])Oc3c([H])c([H])c4c(c3[H])C([H])([H])N(C(=O)C([H])(N([H])C(=O)C([H])(N([H])C([H])([H])[H])C([H])([H])[H])C(C([H])([H])[H])(C([H])([H])[H])C([H])([H])[H])C([H])(C(=O)N([H])C3([H])c5c([H])c([H])c([H])c([H])c5C([H])([H])C([H])([H])C3([H])[H])C4([H])[H])C2([H])[H])nc1N([H])C(=O)N1C([H])([H])C([H])([H])C([H])([H])C([H])(n2nc(-c3c([H])c([H])c(Oc4c([H])c([H])c(F)c([H])c4F)c([H])c3[H])c(C(=O)N([H])[H])c2N([H])[H])C1([H])[H]

>  <smiles>  (96) 
[H]c1nc(C2([H])C([H])([H])C2([H])[H])c(C([H])([H])C([H])([H])N2C([H])([H])C([H])([H])C([H])([N+]([H])([H])C([H])([H])C([H])([H])Oc3c([H])c([H])c4c(c3[H])C([H])([H])N(C(=O)C([H])(N([H])C(=O)C([H])(N([H])C([H])([H])[H])C([H])([H])[H])C(C([H])([H])[H])(C([H])([H])[H])C([H])([H])[H])C([H])(C(=O)N([H])C3([H])c5c([H])c([H])c([H])c([H])c5C([H])([H])C([H])([H])C3([H])[H])C4([H])[H])C2([H])[H])nc1N([H])C(=O)N1C([H])([H])C([H])([H])C([H])([H])C([H])(n2nc(-c3c([H])c([H])c(Oc4c([H])c([H])c(F)c([H])c4F)c([H])c3[H])c(C(=O)N([H])[H])c2N([H])[H])C1([H])[H]

$$$$
97:0:0
     RDKit          3D

 91100  0  0  1  0  0  0  0  0999 V2000
  -28.7760  -22.7630   20.4460 N   0  0  0  0  0  4  0  0  0  0  0  0
  -28.1190  -22.6470   21.2030 H   0  0  0  0  0  0  0  0  0  0  0  0
  -28.2690  -22.5820   19.5940 H   0  0  0  0  0  0  0  0  0  0  0  0
  -29.8160  -20.6590   19.4410 C   0  0  0  0  0  2  0  0  0  0  0  0
  -29.4230  -20.4820   21.4640 C   0  0  0  0  0  2  0  0  0  0  0  0
  -29.8240  -21.7030   20.5860 C   0  0  0  0  0  3  0  0  0  0  0  0
  -30.1040  -19.6580   20.4680 N   0  0  0  0  0  0  0  0  0  0  0  0
  -30.2490  -17.5870   19.0840 C   0  0  0  0  0  2  0  0  0  0  0  0
  -29.5690  -18.3010   20.2250 C   0  0  0  0  0  3  0  0  0  0  0  0
  -30.4490  -17.0480   20.4790 C   0  0  0  0  0  3  0  0  0  0  0  0
  -30.6770  -14.5810   20.4360 C   0  0  0  0  0  0  0  0  0  0  0  0
  -30.3740  -12.3770   19.3750 C   0  0  0  0  0  2  0  0  0  0  0  0
  -29.4490  -12.5500   18.1530 C   0  0  0  0  0  2  0  0  0  0  0  0
  -27.9710  -12.4230   18.5730 C   0  0  0  0  0  2  0  0  0  0  0  0
  -27.6200  -13.2920   19.8110 C   0  0  0  0  0  3  0  0  0  0  0  0
  -28.6690  -13.1280   20.9350 C   0  0  0  0  0  2  0  0  0  0  0  0
  -29.9930  -13.4050   20.3590 N   0  0  0  0  0  0  0  0  0  0  0  0
  -31.8500  -14.6810   20.0700 O   0  0  0  0  0  0  0  0  0  0  0  0
  -29.9500  -15.6970   20.6770 N   0  0  0  0  0  0  0  0  0  0  0  0
  -28.9810  -15.5800   20.9340 H   0  0  0  0  0  0  0  0  0  0  0  0
  -25.2270  -13.9130   20.5130 C   0  0  0  0  0  0  0  0  0  0  0  0
  -24.1510  -13.1480   20.8770 C   0  0  0  0  0  0  0  0  0  0  0  0
  -24.6030  -11.7930   20.8530 C   0  0  0  0  0  0  0  0  0  0  0  0
  -26.2660  -13.0240   20.2870 N   0  0  0  0  0  0  0  0  0  0  0  0
  -25.8950  -11.7440   20.5520 N   0  0  0  0  0  0  0  0  0  0  0  0
  -23.8660  -10.5370   21.0410 C   0  0  0  0  0  0  0  0  0  0  0  0
  -24.2900   -9.5650   21.9750 C   0  0  0  0  0  3  0  0  0  0  0  0
  -23.5540   -8.3740   22.1520 C   0  0  0  0  0  3  0  0  0  0  0  0
  -22.3810   -8.1440   21.3940 C   0  0  0  0  0  0  0  0  0  0  0  0
  -21.9770   -9.1050   20.4500 C   0  0  0  0  0  3  0  0  0  0  0  0
  -22.7130  -10.2880   20.2720 C   0  0  0  0  0  3  0  0  0  0  0  0
  -21.6180   -7.0050   21.4800 O   0  0  0  0  0  0  0  0  0  0  0  0
  -21.5600   -6.2620   22.6320 C   0  0  0  0  0  0  0  0  0  0  0  0
  -21.1270   -6.8180   23.8550 C   0  0  0  0  0  3  0  0  0  0  0  0
  -21.0150   -6.0020   24.9980 C   0  0  0  0  0  3  0  0  0  0  0  0
  -21.3270   -4.6320   24.9200 C   0  0  0  0  0  0  0  0  0  0  0  0
  -21.7530   -4.0750   23.7010 C   0  0  0  0  0  3  0  0  0  0  0  0
  -21.8660   -4.8890   22.5590 C   0  0  0  0  0  0  0  0  0  0  0  0
  -22.2580   -4.3430   21.3820 F   0  0  0  0  0  0  0  0  0  0  0  0
  -21.2130   -3.8460   26.0160 F   0  0  0  0  0  0  0  0  0  0  0  0
  -22.7550  -13.6360   21.1390 C   0  0  0  0  0  0  0  0  0  0  0  0
  -22.0170  -12.9490   22.0040 N   0  0  0  0  0  0  0  0  0  0  0  0
  -22.3280  -14.6620   20.6120 O   0  0  0  0  0  0  0  0  0  0  0  0
  -22.3770  -12.1180   22.4510 H   0  0  0  0  0  0  0  0  0  0  0  0
  -21.0810  -13.2570   22.2210 H   0  0  0  0  0  0  0  0  0  0  0  0
  -25.4020  -15.2810   20.3300 N   0  0  0  0  0  0  0  0  0  0  0  0
  -24.6350  -15.9380   20.4260 H   0  0  0  0  0  0  0  0  0  0  0  0
  -26.2470  -15.7110   19.9810 H   0  0  0  0  0  0  0  0  0  0  0  0
  -29.2380  -24.1950   20.4430 C   0  0  0  0  0  2  0  0  0  0  0  0
  -28.1010  -25.1850   20.0430 C   0  0  0  0  0  2  0  0  0  0  0  0
  -28.3290  -26.6190   20.2050 O   0  0  0  0  0  0  0  0  0  0  0  0
  -24.5820  -31.9060   23.2610 C   0  0  0  0  0  0  0  0  0  0  0  0
  -27.1910  -27.4230   20.1590 C   0  0  0  0  0  0  0  0  0  0  0  0
  -23.3690  -30.5160   21.6190 C   0  0  0  0  0  3  0  0  0  0  0  0
  -24.8130  -28.9890   20.1770 C   0  0  0  0  0  0  0  0  0  0  0  0
  -25.9020  -30.8560   21.4200 C   0  0  0  0  0  2  0  0  0  0  0  0
  -25.9810  -29.4870   20.7680 C   0  0  0  0  0  0  0  0  0  0  0  0
  -27.1740  -28.7150   20.7530 C   0  0  0  0  0  3  0  0  0  0  0  0
  -25.9980  -26.9680   19.5430 C   0  0  0  0  0  3  0  0  0  0  0  0
  -24.8200  -27.7310   19.5590 C   0  0  0  0  0  3  0  0  0  0  0  0
  -23.5740  -29.8530   20.2330 C   0  0  0  0  0  2  0  0  0  0  0  0
  -24.6360  -31.1090   22.1570 N   0  0  0  0  0  0  0  0  0  0  0  0
  -23.5000  -32.1790   23.8040 O   0  0  0  0  0  0  0  0  0  0  0  0
  -22.7170  -29.4890   22.5740 C   0  0  0  0  0  0  0  0  0  0  0  0
  -21.3920  -29.3070   22.4490 N   0  0  0  0  0  0  0  0  0  0  0  0
  -23.4020  -28.8590   23.3840 O   0  0  0  0  0  0  0  0  0  0  0  0
  -20.9000  -29.8680   21.7670 H   0  0  0  0  0  0  0  0  0  0  0  0
  -18.0170  -28.1130   22.9510 C   0  0  0  0  0  0  0  0  0  0  0  0
  -20.5760  -28.3680   23.2170 C   0  0  0  0  0  3  0  0  0  0  0  0
  -20.6750  -26.9390   22.6350 C   0  0  0  0  0  2  0  0  0  0  0  0
  -19.5700  -26.6220   21.6220 C   0  0  0  0  0  2  0  0  0  0  0  0
  -18.1900  -26.7660   22.2710 C   0  0  0  0  0  2  0  0  0  0  0  0
  -19.1380  -28.8720   23.3810 C   0  0  0  0  0  0  0  0  0  0  0  0
  -18.9220  -30.1340   23.9780 C   0  0  0  0  0  3  0  0  0  0  0  0
  -17.6190  -30.6360   24.1480 C   0  0  0  0  0  3  0  0  0  0  0  0
  -16.5120  -29.8740   23.7350 C   0  0  0  0  0  3  0  0  0  0  0  0
  -16.7120  -28.6150   23.1420 C   0  0  0  0  0  3  0  0  0  0  0  0
  -25.8680  -32.5340   23.8790 C   0  0  0  0  0  3  0  0  0  0  0  0
  -26.3870  -31.7590   25.1510 C   0  0  1  0  0  0  0  0  0  0  0  0
  -25.2970  -31.5190   26.2210 C   0  0  0  0  0  1  0  0  0  0  0  0
  -26.9680  -30.3820   24.7520 C   0  0  0  0  0  1  0  0  0  0  0  0
  -27.5410  -32.5500   25.8130 C   0  0  0  0  0  1  0  0  0  0  0  0
  -25.5630  -33.9320   24.2120 N   0  0  0  0  0  0  0  0  0  0  0  0
  -25.8810  -34.9840   23.4450 C   0  0  0  0  0  0  0  0  0  0  0  0
  -26.5360  -34.8790   22.4040 O   0  0  0  0  0  0  0  0  0  0  0  0
  -24.9810  -34.0870   25.0220 H   0  0  0  0  0  0  0  0  0  0  0  0
  -24.1410  -36.7700   23.1170 C   0  0  0  0  0  1  0  0  0  0  0  0
  -25.3980  -36.3710   23.9070 C   0  0  0  0  0  3  0  0  0  0  0  0
  -27.5430  -37.2660   24.6980 C   0  0  0  0  0  1  0  0  0  0  0  0
  -26.4250  -37.4270   23.7730 N   0  0  0  0  0  0  0  0  0  0  0  0
  -26.0190  -38.3470   23.9230 H   0  0  0  0  0  0  0  0  0  0  0  0
  1  2  1  0
  3  1  1  0
  4  6  1  0
  6  1  1  0
  6  5  1  0
  7  4  1  0
  7  5  1  0
  8 10  1  0
  9  8  1  0
  9  7  1  0
  9 10  1  0
 10 19  1  0
 11 19  1  0
 12 17  1  0
 13 14  1  0
 13 12  1  0
 15 14  1  0
 15 24  1  0
 15 16  1  0
 17 11  1  0
 17 16  1  0
 18 11  2  0
 19 20  1  0
 21 22  2  0
 22 41  1  0
 23 22  1  0
 23 26  1  0
 24 21  1  0
 24 25  1  0
 25 23  2  0
 26 27  1  0
 27 28  2  0
 29 32  1  0
 29 28  1  0
 30 29  2  0
 31 30  1  0
 31 26  2  0
 32 33  1  0
 33 34  1  0
 34 35  2  0
 36 35  1  0
 36 40  1  0
 37 36  2  0
 38 33  2  0
 38 37  1  0
 39 38  1  0
 41 42  1  0
 42 45  1  0
 42 44  1  0
 43 41  2  0
 46 47  1  0
 46 21  1  0
 48 46  1  0
 49  1  1  0
 50 51  1  0
 50 49  1  0
 52 63  2  0
 53 51  1  0
 53 58  1  0
 54 62  1  0
 54 64  1  0
 55 61  1  0
 55 57  1  0
 56 62  1  0
 57 56  1  0
 58 57  2  0
 59 60  1  0
 59 53  2  0
 60 55  2  0
 61 54  1  0
 62 52  1  0
 64 66  2  0
 65 64  1  0
 67 65  1  0
 68 77  2  0
 68 73  1  0
 69 65  1  0
 69 73  1  0
 70 69  1  0
 71 72  1  0
 71 70  1  0
 72 68  1  0
 73 74  2  0
 74 75  1  0
 76 75  2  0
 77 76  1  0
 78 52  1  0
 78 83  1  0
 78 79  1  0
 79 82  1  1
 79 80  1  0
 81 79  1  0
 83 86  1  0
 84 88  1  0
 84 83  1  0
 85 84  2  0
 88 87  1  0
 90 88  1  0
 90 91  1  0
 90 89  1  0
M  ISO  4  11 100  19 100  50 101  51 101
M  END
>  <TORSDO>  (97) 
F 20

>  <SCORE>  (97) 
-13.686

>  <name>  (97) 
97

>  <ligand_id>  (97) 
97

>  <original_smiles>  (97) 
[H]c1c([H])c([H])c2c(c1[H])C([H])([H])C([H])([H])C([H])([H])C2([H])N([H])C(=O)C1([H])N(C(=O)C([H])(N([H])C(=O)C([H])(N([H])C([H])([H])[H])C([H])([H])[H])C(C([H])([H])[H])(C([H])([H])[H])C([H])([H])[H])C([H])([H])c2c([H])c(OC([H])([H])C([H])([H])[N+]([H])([H])C3([H])C([H])([H])N(C4([H])C([H])([H])C4([H])N([H])C(=O)N4C([H])([H])C([H])([H])C([H])([H])C([H])(n5nc(-c6c([H])c([H])c(Oc7c([H])c([H])c(F)c([H])c7F)c([H])c6[H])c(C(=O)N([H])[H])c5N([H])[H])C4([H])[H])C3([H])[H])c([H])c([H])c2C1([H])[H]

>  <smiles>  (97) 
[H]c1c([H])c([H])c2c(c1[H])C([H])([H])C([H])([H])C([H])([H])C2([H])N([H])C(=O)C1([H])N(C(=O)C([H])(N([H])C(=O)C([H])(N([H])C([H])([H])[H])C([H])([H])[H])C(C([H])([H])[H])(C([H])([H])[H])C([H])([H])[H])C([H])([H])c2c([H])c(OC([H])([H])C([H])([H])[N+]([H])([H])C3([H])C([H])([H])N(C4([H])C([H])([H])C4([H])N([H])C(=O)N4C([H])([H])C([H])([H])C([H])([H])C([H])(n5nc(-c6c([H])c([H])c(Oc7c([H])c([H])c(F)c([H])c7F)c([H])c6[H])c(C(=O)N([H])[H])c5N([H])[H])C4([H])[H])C3([H])[H])c([H])c([H])c2C1([H])[H]

$$$$
