0:0:0
     RDKit          3D

 91100  0  0  1  0  0  0  0  0999 V2000
  -30.7720  -15.1200   19.9650 C   0  0  0  0  0  0  0  0  0  0  0  0
  -30.7720  -12.6390   19.3960 C   0  0  0  0  0  2  0  0  0  0  0  0
  -29.8700  -12.3490   18.1730 C   0  0  0  0  0  2  0  0  0  0  0  0
  -28.4130  -12.1300   18.6160 C   0  0  0  0  0  2  0  0  0  0  0  0
  -27.9390  -13.2000   19.6350 C   0  0  0  0  0  3  0  0  0  0  0  0
  -28.9700  -13.4430   20.7570 C   0  0  0  0  0  2  0  0  0  0  0  0
  -30.2230  -13.8390   20.1020 N   0  0  0  0  0  0  0  0  0  0  0  0
  -31.9570  -15.1600   19.6100 O   0  0  0  0  0  0  0  0  0  0  0  0
  -29.9840  -17.5440   18.9260 C   0  0  0  0  0  2  0  0  0  0  0  0
  -29.1960  -16.9100   20.9920 C   0  0  0  0  0  2  0  0  0  0  0  0
  -28.1140  -20.5200   20.7010 C   0  0  0  0  0  2  0  0  0  0  0  0
  -29.7620  -19.0320   19.6060 C   0  0  0  0  0  3  0  0  0  0  0  0
  -28.7020  -20.3280   19.2820 C   0  0  0  0  0  3  0  0  0  0  0  0
  -29.3690  -18.4840   20.9870 C   0  0  0  0  0  3  0  0  0  0  0  0
  -29.9660  -16.3150   19.8880 N   0  0  0  0  0  0  0  0  0  0  0  0
  -28.1730  -19.2270   21.4170 N   0  0  0  0  0  4  0  0  0  0  0  0
  -27.3550  -18.7000   21.1620 H   0  0  0  0  0  0  0  0  0  0  0  0
  -28.1600  -19.3650   22.4140 H   0  0  0  0  0  0  0  0  0  0  0  0
  -25.5810  -13.7940   20.4240 C   0  0  0  0  0  0  0  0  0  0  0  0
  -24.5180  -13.0270   20.8120 C   0  0  0  0  0  0  0  0  0  0  0  0
  -24.9700  -11.6710   20.7670 C   0  0  0  0  0  0  0  0  0  0  0  0
  -26.6110  -12.9080   20.1580 N   0  0  0  0  0  0  0  0  0  0  0  0
  -26.2540  -11.6250   20.4310 N   0  0  0  0  0  0  0  0  0  0  0  0
  -24.2350  -10.4150   20.9660 C   0  0  0  0  0  0  0  0  0  0  0  0
  -24.6750   -9.4390   21.8860 C   0  0  0  0  0  3  0  0  0  0  0  0
  -23.9390   -8.2480   22.0750 C   0  0  0  0  0  3  0  0  0  0  0  0
  -22.7480   -8.0270   21.3440 C   0  0  0  0  0  0  0  0  0  0  0  0
  -22.3270   -8.9920   20.4120 C   0  0  0  0  0  3  0  0  0  0  0  0
  -23.0640  -10.1720   20.2210 C   0  0  0  0  0  3  0  0  0  0  0  0
  -21.9820   -6.8900   21.4420 O   0  0  0  0  0  0  0  0  0  0  0  0
  -21.9490   -6.1430   22.5920 C   0  0  0  0  0  0  0  0  0  0  0  0
  -21.5300   -6.6900   23.8240 C   0  0  0  0  0  3  0  0  0  0  0  0
  -21.4450   -5.8690   24.9660 C   0  0  0  0  0  3  0  0  0  0  0  0
  -21.7650   -4.5020   24.8770 C   0  0  0  0  0  0  0  0  0  0  0  0
  -22.1770   -3.9540   23.6500 C   0  0  0  0  0  3  0  0  0  0  0  0
  -22.2640   -4.7720   22.5090 C   0  0  0  0  0  0  0  0  0  0  0  0
  -22.6400   -4.2340   21.3240 F   0  0  0  0  0  0  0  0  0  0  0  0
  -21.6760   -3.7110   25.9720 F   0  0  0  0  0  0  0  0  0  0  0  0
  -23.1310  -13.5150   21.1090 C   0  0  0  0  0  0  0  0  0  0  0  0
  -22.4200  -12.8360   22.0010 N   0  0  0  0  0  0  0  0  0  0  0  0
  -22.6880  -14.5360   20.5850 O   0  0  0  0  0  0  0  0  0  0  0  0
  -22.7920  -12.0100   22.4470 H   0  0  0  0  0  0  0  0  0  0  0  0
  -21.4890  -13.1450   22.2440 H   0  0  0  0  0  0  0  0  0  0  0  0
  -25.7530  -15.1640   20.2450 N   0  0  0  0  0  0  0  0  0  0  0  0
  -24.9820  -15.8150   20.3420 H   0  0  0  0  0  0  0  0  0  0  0  0
  -26.5770  -15.5810   19.8320 H   0  0  0  0  0  0  0  0  0  0  0  0
  -29.0240  -21.7610   18.6890 N   0  0  0  0  0  0  0  0  0  0  0  0
  -28.9080  -21.7130   17.6790 H   0  0  0  0  0  0  0  0  0  0  0  0
  -28.4920  -23.1680   19.1870 C   0  0  0  0  0  2  0  0  0  0  0  0
  -28.4260  -24.6300   18.3020 C   0  0  0  0  0  2  0  0  0  0  0  0
  -28.3910  -26.1340   18.7620 O   0  0  0  0  0  0  0  0  0  0  0  0
  -24.6680  -31.1910   22.6130 C   0  0  0  0  0  0  0  0  0  0  0  0
  -27.2770  -27.0580   18.8260 C   0  0  0  0  0  0  0  0  0  0  0  0
  -23.4450  -29.9910   20.8380 C   0  0  0  0  0  3  0  0  0  0  0  0
  -24.8840  -28.6960   19.1380 C   0  0  0  0  0  0  0  0  0  0  0  0
  -25.9760  -30.3850   20.6090 C   0  0  0  0  0  2  0  0  0  0  0  0
  -26.0710  -29.1020   19.7590 C   0  0  0  0  0  0  0  0  0  0  0  0
  -27.2610  -28.2980   19.5900 C   0  0  0  0  0  3  0  0  0  0  0  0
  -26.0590  -26.7590   18.1800 C   0  0  0  0  0  3  0  0  0  0  0  0
  -24.8910  -27.5430   18.3340 C   0  0  0  0  0  3  0  0  0  0  0  0
  -23.6270  -29.5240   19.3670 C   0  0  0  0  0  2  0  0  0  0  0  0
  -24.7180  -30.5380   21.4100 N   0  0  0  0  0  0  0  0  0  0  0  0
  -23.5970  -31.3490   23.2200 O   0  0  0  0  0  0  0  0  0  0  0  0
  -22.8500  -28.8310   21.6740 C   0  0  0  0  0  0  0  0  0  0  0  0
  -21.5170  -28.6580   21.6240 N   0  0  0  0  0  0  0  0  0  0  0  0
  -23.5870  -28.0930   22.3320 O   0  0  0  0  0  0  0  0  0  0  0  0
  -20.9750  -29.3090   21.0720 H   0  0  0  0  0  0  0  0  0  0  0  0
  -18.1930  -27.3270   22.1790 C   0  0  0  0  0  0  0  0  0  0  0  0
  -20.7640  -27.5930   22.2920 C   0  0  0  0  0  3  0  0  0  0  0  0
  -20.8300  -26.2740   21.4880 C   0  0  0  0  0  2  0  0  0  0  0  0
  -19.6560  -26.0980   20.5190 C   0  0  0  0  0  2  0  0  0  0  0  0
  -18.3270  -26.1090   21.2790 C   0  0  0  0  0  2  0  0  0  0  0  0
  -19.3350  -28.0330   22.6410 C   0  0  0  0  0  0  0  0  0  0  0  0
  -19.1520  -29.1770   23.4480 C   0  0  0  0  0  3  0  0  0  0  0  0
  -17.8590  -29.6150   23.7940 C   0  0  0  0  0  3  0  0  0  0  0  0
  -16.7320  -28.9040   23.3440 C   0  0  0  0  0  3  0  0  0  0  0  0
  -16.9010  -27.7610   22.5430 C   0  0  0  0  0  3  0  0  0  0  0  0
  -25.9480  -31.7870   23.2730 C   0  0  0  0  0  3  0  0  0  0  0  0
  -25.5980  -33.1080   23.8190 N   0  0  0  0  0  0  0  0  0  0  0  0
  -25.9360  -34.2800   23.2640 C   0  0  0  0  0  0  0  0  0  0  0  0
  -26.6400  -34.3610   22.2540 O   0  0  0  0  0  0  0  0  0  0  0  0
  -24.9750  -33.1170   24.6130 H   0  0  0  0  0  0  0  0  0  0  0  0
  -24.2170  -36.1150   23.1350 C   0  0  0  0  0  1  0  0  0  0  0  0
  -25.4120  -35.5660   23.9330 C   0  0  0  0  0  3  0  0  0  0  0  0
  -27.4850  -36.2850   25.0350 C   0  0  0  0  0  1  0  0  0  0  0  0
  -26.4400  -36.6210   24.0730 N   0  0  0  0  0  0  0  0  0  0  0  0
  -26.0180  -37.5010   24.3570 H   0  0  0  0  0  0  0  0  0  0  0  0
  -26.5460  -30.8660   24.4080 C   0  0  1  0  0  0  0  0  0  0  0  0
  -25.5120  -30.4460   25.4780 C   0  0  0  0  0  1  0  0  0  0  0  0
  -27.1510  -29.5770   23.8090 C   0  0  0  0  0  1  0  0  0  0  0  0
  -27.7010  -31.6040   25.1250 C   0  0  0  0  0  1  0  0  0  0  0  0
  1  7  1  0
  2  7  1  0
  3  4  1  0
  3  2  1  0
  5  4  1  0
  5 22  1  0
  5  6  1  0
  7  6  1  0
  8  1  2  0
  9 15  1  0
 11 16  1  0
 12  9  1  0
 12 14  1  0
 13 47  1  0
 13 12  1  0
 13 11  1  0
 14 10  1  0
 14 16  1  0
 15  1  1  0
 15 10  1  0
 16 18  1  0
 17 16  1  0
 19 20  2  0
 20 39  1  0
 21 20  1  0
 21 24  1  0
 22 19  1  0
 22 23  1  0
 23 21  2  0
 24 25  1  0
 25 26  2  0
 27 30  1  0
 27 26  1  0
 28 27  2  0
 29 28  1  0
 29 24  2  0
 30 31  1  0
 31 32  1  0
 32 33  2  0
 34 33  1  0
 34 38  1  0
 35 34  2  0
 36 31  2  0
 36 35  1  0
 37 36  1  0
 39 40  1  0
 40 43  1  0
 40 42  1  0
 41 39  2  0
 44 45  1  0
 44 19  1  0
 46 44  1  0
 47 49  1  0
 48 47  1  0
 50 51  1  0
 50 49  1  0
 51 53  1  0
 52 63  2  0
 53 58  1  0
 54 62  1  0
 54 64  1  0
 55 61  1  0
 55 57  1  0
 56 62  1  0
 57 56  1  0
 58 57  2  0
 59 60  1  0
 59 53  2  0
 60 55  2  0
 61 54  1  0
 62 52  1  0
 64 66  2  0
 65 64  1  0
 67 65  1  0
 68 77  2  0
 68 73  1  0
 69 65  1  0
 69 73  1  0
 70 69  1  0
 71 72  1  0
 71 70  1  0
 72 68  1  0
 73 74  2  0
 74 75  1  0
 76 75  2  0
 77 76  1  0
 78 52  1  0
 78 79  1  0
 78 88  1  0
 79 82  1  0
 80 79  1  0
 80 84  1  0
 81 80  2  0
 84 83  1  0
 84 86  1  0
 86 87  1  0
 86 85  1  0
 88 91  1  1
 88 89  1  0
 90 88  1  0
M  ISO  4   1 100  15 100  50 101  51 101
M  END
>  <TORSDO>  (1) 
F 18

>  <SCORE>  (1) 
-11.934

>  <name>  (1) 
0

>  <ligand_id>  (1) 
0

>  <original_smiles>  (1) 
[H]c1c([H])c([H])c2c(c1[H])C([H])([H])C([H])([H])C([H])([H])C2([H])N([H])C(=O)C1([H])N(C(=O)C([H])(N([H])C(=O)C([H])(N([H])C([H])([H])[H])C([H])([H])[H])C(C([H])([H])[H])(C([H])([H])[H])C([H])([H])[H])C([H])([H])c2c([H])c(OC([H])([H])C([H])([H])N([H])C3([H])C4([H])C([H])([H])N(C(=O)N5C([H])([H])C([H])([H])C([H])([H])C([H])(n6nc(-c7c([H])c([H])c(Oc8c([H])c([H])c(F)c([H])c8F)c([H])c7[H])c(C(=O)N([H])[H])c6N([H])[H])C5([H])[H])C([H])([H])C4([H])[N+]([H])([H])C3([H])[H])c([H])c([H])c2C1([H])[H]

>  <smiles>  (1) 
[H]c1c([H])c([H])c2c(c1[H])C([H])([H])C([H])([H])C([H])([H])C2([H])N([H])C(=O)C1([H])N(C(=O)C([H])(N([H])C(=O)C([H])(N([H])C([H])([H])[H])C([H])([H])[H])C(C([H])([H])[H])(C([H])([H])[H])C([H])([H])[H])C([H])([H])c2c([H])c(OC([H])([H])C([H])([H])N([H])C3([H])C4([H])C([H])([H])N(C(=O)N5C([H])([H])C([H])([H])C([H])([H])C([H])(n6nc(-c7c([H])c([H])c(Oc8c([H])c([H])c(F)c([H])c8F)c([H])c7[H])c(C(=O)N([H])[H])c6N([H])[H])C5([H])[H])C([H])([H])C4([H])[N+]([H])([H])C3([H])[H])c([H])c([H])c2C1([H])[H]

$$$$
1:0:0
     RDKit          3D

 94103  0  0  1  0  0  0  0  0999 V2000
  -28.4190  -21.0320   20.1530 C   0  0  0  0  0  2  0  0  0  0  0  0
  -30.6420  -21.6520   19.5610 C   0  0  0  0  0  2  0  0  0  0  0  0
  -28.8020  -19.5220   20.1240 C   0  0  0  0  0  2  0  0  0  0  0  0
  -31.0630  -20.1600   19.5050 C   0  0  0  0  0  2  0  0  0  0  0  0
  -29.2320  -21.7730   19.1790 N   0  0  0  0  0  0  0  0  0  0  0  0
  -30.2470  -19.2920   20.4070 N   0  0  2  0  0  4  0  0  0  0  0  0
  -30.4080  -19.6160   21.3480 H   0  0  0  0  0  0  0  0  0  0  0  0
  -31.3040  -17.0640   22.2710 C   0  0  0  0  0  2  0  0  0  0  0  0
  -32.0270  -17.6370   21.0470 C   0  0  0  0  0  2  0  0  0  0  0  0
  -30.0510  -16.8710   21.4060 C   0  0  0  0  0  3  0  0  0  0  0  0
  -30.6660  -17.8420   20.3410 C   0  0  0  0  0  3  0  0  0  0  0  0
  -30.5540  -14.5280   20.3240 C   0  0  0  0  0  0  0  0  0  0  0  0
  -30.2550  -12.4090   19.0720 C   0  0  0  0  0  2  0  0  0  0  0  0
  -29.2620  -12.6460   17.9150 C   0  0  0  0  0  2  0  0  0  0  0  0
  -27.8030  -12.4860   18.3870 C   0  0  0  0  0  2  0  0  0  0  0  0
  -27.5130  -13.2600   19.6990 C   0  0  0  0  0  3  0  0  0  0  0  0
  -28.6090  -12.9810   20.7540 C   0  0  0  0  0  2  0  0  0  0  0  0
  -29.9100  -13.3380   20.1610 N   0  0  0  0  0  0  0  0  0  0  0  0
  -31.6330  -14.7750   19.7830 O   0  0  0  0  0  0  0  0  0  0  0  0
  -29.8570  -15.4430   21.0360 N   0  0  0  0  0  0  0  0  0  0  0  0
  -29.0010  -15.0520   21.4000 H   0  0  0  0  0  0  0  0  0  0  0  0
  -25.1270  -13.8270   20.4760 C   0  0  0  0  0  0  0  0  0  0  0  0
  -24.0820  -13.0350   20.8700 C   0  0  0  0  0  0  0  0  0  0  0  0
  -24.5620  -11.6910   20.8140 C   0  0  0  0  0  0  0  0  0  0  0  0
  -26.1780  -12.9620   20.2110 N   0  0  0  0  0  0  0  0  0  0  0  0
  -25.8430  -11.6730   20.4680 N   0  0  0  0  0  0  0  0  0  0  0  0
  -23.8600  -10.4170   21.0160 C   0  0  0  0  0  0  0  0  0  0  0  0
  -24.3250   -9.4550   21.9390 C   0  0  0  0  0  3  0  0  0  0  0  0
  -23.6210   -8.2460   22.1280 C   0  0  0  0  0  3  0  0  0  0  0  0
  -22.4410   -7.9910   21.3920 C   0  0  0  0  0  0  0  0  0  0  0  0
  -21.9960   -8.9420   20.4560 C   0  0  0  0  0  3  0  0  0  0  0  0
  -22.7000  -10.1420   20.2660 C   0  0  0  0  0  3  0  0  0  0  0  0
  -21.7050   -6.8340   21.4900 O   0  0  0  0  0  0  0  0  0  0  0  0
  -21.6810   -6.0930   22.6440 C   0  0  0  0  0  0  0  0  0  0  0  0
  -21.2420   -6.6380   23.8710 C   0  0  0  0  0  3  0  0  0  0  0  0
  -21.1670   -5.8210   25.0160 C   0  0  0  0  0  3  0  0  0  0  0  0
  -21.5210   -4.4600   24.9370 C   0  0  0  0  0  0  0  0  0  0  0  0
  -21.9520   -3.9150   23.7150 C   0  0  0  0  0  3  0  0  0  0  0  0
  -22.0270   -4.7290   22.5710 C   0  0  0  0  0  0  0  0  0  0  0  0
  -22.4240   -4.1930   21.3920 F   0  0  0  0  0  0  0  0  0  0  0  0
  -21.4400   -3.6740   26.0340 F   0  0  0  0  0  0  0  0  0  0  0  0
  -22.6860  -13.4890   21.1880 C   0  0  0  0  0  0  0  0  0  0  0  0
  -21.9970  -12.7710   22.0680 N   0  0  0  0  0  0  0  0  0  0  0  0
  -22.2180  -14.5130   20.6940 O   0  0  0  0  0  0  0  0  0  0  0  0
  -22.3910  -11.9400   22.4850 H   0  0  0  0  0  0  0  0  0  0  0  0
  -21.0620  -13.0530   22.3280 H   0  0  0  0  0  0  0  0  0  0  0  0
  -25.2680  -15.2000   20.3080 N   0  0  0  0  0  0  0  0  0  0  0  0
  -24.4950  -15.8420   20.4460 H   0  0  0  0  0  0  0  0  0  0  0  0
  -26.1020  -15.6550   19.9570 H   0  0  0  0  0  0  0  0  0  0  0  0
  -27.5130  -22.9490   17.9130 C   0  0  0  0  0  1  0  0  0  0  0  0
  -28.7930  -23.1250   18.7530 C   0  0  0  0  0  3  0  0  0  0  0  0
  -28.6260  -24.2390   19.8370 C   0  0  0  0  0  2  0  0  0  0  0  0
  -28.6420  -25.6830   19.2350 C   0  0  0  0  0  2  0  0  0  0  0  0
  -28.3980  -26.7610   20.1640 O   0  0  0  0  0  0  0  0  0  0  0  0
  -24.5590  -31.9290   23.2390 C   0  0  0  0  0  0  0  0  0  0  0  0
  -27.2010  -27.4630   20.1480 C   0  0  0  0  0  0  0  0  0  0  0  0
  -23.3440  -30.5180   21.6100 C   0  0  0  0  0  3  0  0  0  0  0  0
  -24.7910  -28.9690   20.1840 C   0  0  0  0  0  0  0  0  0  0  0  0
  -25.8690  -30.8730   21.3950 C   0  0  0  0  0  2  0  0  0  0  0  0
  -25.9530  -29.4970   20.7600 C   0  0  0  0  0  0  0  0  0  0  0  0
  -27.1530  -28.7490   20.7440 C   0  0  0  0  0  3  0  0  0  0  0  0
  -26.0100  -26.9440   19.5890 C   0  0  0  0  0  3  0  0  0  0  0  0
  -24.8150  -27.6900   19.6020 C   0  0  0  0  0  3  0  0  0  0  0  0
  -23.5440  -29.8240   20.2360 C   0  0  0  0  0  2  0  0  0  0  0  0
  -24.6100  -31.1230   22.1390 N   0  0  0  0  0  0  0  0  0  0  0  0
  -23.4800  -32.2030   23.7830 O   0  0  0  0  0  0  0  0  0  0  0  0
  -22.6990  -29.5030   22.5820 C   0  0  0  0  0  0  0  0  0  0  0  0
  -21.3740  -29.3190   22.4610 N   0  0  0  0  0  0  0  0  0  0  0  0
  -23.3880  -28.8820   23.3950 O   0  0  0  0  0  0  0  0  0  0  0  0
  -20.8790  -29.8750   21.7780 H   0  0  0  0  0  0  0  0  0  0  0  0
  -18.0020  -28.1330   22.9880 C   0  0  0  0  0  0  0  0  0  0  0  0
  -20.5610  -28.3840   23.2380 C   0  0  0  0  0  3  0  0  0  0  0  0
  -20.6550  -26.9530   22.6600 C   0  0  0  0  0  2  0  0  0  0  0  0
  -19.5430  -26.6330   21.6560 C   0  0  0  0  0  2  0  0  0  0  0  0
  -18.1680  -26.7840   22.3110 C   0  0  0  0  0  2  0  0  0  0  0  0
  -19.1250  -28.8920   23.4080 C   0  0  0  0  0  0  0  0  0  0  0  0
  -18.9160  -30.1570   24.0000 C   0  0  0  0  0  3  0  0  0  0  0  0
  -17.6140  -30.6620   24.1740 C   0  0  0  0  0  3  0  0  0  0  0  0
  -16.5040  -29.9000   23.7710 C   0  0  0  0  0  3  0  0  0  0  0  0
  -16.6980  -28.6370   23.1850 C   0  0  0  0  0  3  0  0  0  0  0  0
  -25.8480  -32.5650   23.8490 C   0  0  0  0  0  3  0  0  0  0  0  0
  -26.3800  -31.7960   25.1210 C   0  0  1  0  0  0  0  0  0  0  0  0
  -25.2960  -31.5500   26.1970 C   0  0  0  0  0  1  0  0  0  0  0  0
  -26.9690  -30.4240   24.7210 C   0  0  0  0  0  1  0  0  0  0  0  0
  -27.5300  -32.5960   25.7760 C   0  0  0  0  0  1  0  0  0  0  0  0
  -25.5390  -33.9620   24.1810 N   0  0  0  0  0  0  0  0  0  0  0  0
  -25.8700  -35.0160   23.4240 C   0  0  0  0  0  0  0  0  0  0  0  0
  -26.5390  -34.9140   22.3910 O   0  0  0  0  0  0  0  0  0  0  0  0
  -24.9480  -34.1150   24.9840 H   0  0  0  0  0  0  0  0  0  0  0  0
  -24.1460  -36.8120   23.0620 C   0  0  0  0  0  1  0  0  0  0  0  0
  -25.3790  -36.4010   23.8830 C   0  0  0  0  0  3  0  0  0  0  0  0
  -27.5080  -37.2780   24.7370 C   0  0  0  0  0  1  0  0  0  0  0  0
  -26.4130  -37.4560   23.7880 N   0  0  0  0  0  0  0  0  0  0  0  0
  -26.0050  -38.3730   23.9440 H   0  0  0  0  0  0  0  0  0  0  0  0
  3  1  1  0
  3  6  1  0
  4  2  1  0
  4  6  1  0
  5  2  1  0
  5  1  1  0
  6  7  1  1
  9  8  1  0
 10 20  1  0
 10  8  1  0
 11  6  1  0
 11  9  1  0
 11 10  1  0
 12 20  1  0
 13 18  1  0
 14 15  1  0
 14 13  1  0
 16 15  1  0
 16 25  1  0
 16 17  1  0
 18 12  1  0
 18 17  1  0
 19 12  2  0
 20 21  1  0
 22 23  2  0
 23 42  1  0
 24 23  1  0
 24 27  1  0
 25 26  1  0
 25 22  1  0
 26 24  2  0
 27 28  1  0
 28 29  2  0
 30 33  1  0
 30 29  1  0
 31 30  2  0
 32 31  1  0
 32 27  2  0
 33 34  1  0
 34 35  1  0
 35 36  2  0
 37 36  1  0
 37 41  1  0
 38 37  2  0
 39 34  2  0
 39 38  1  0
 40 39  1  0
 42 43  1  0
 43 46  1  0
 43 45  1  0
 44 42  2  0
 47 48  1  0
 47 22  1  0
 49 47  1  0
 51 50  1  0
 51  5  1  0
 51 52  1  0
 53 52  1  0
 53 54  1  0
 55 66  2  0
 56 54  1  0
 56 61  1  0
 57 65  1  0
 57 67  1  0
 58 64  1  0
 58 60  1  0
 59 65  1  0
 60 59  1  0
 61 60  2  0
 62 63  1  0
 62 56  2  0
 63 58  2  0
 64 57  1  0
 65 55  1  0
 67 69  2  0
 68 67  1  0
 70 68  1  0
 71 80  2  0
 71 76  1  0
 72 68  1  0
 72 76  1  0
 73 72  1  0
 74 75  1  0
 74 73  1  0
 75 71  1  0
 76 77  2  0
 77 78  1  0
 79 78  2  0
 80 79  1  0
 81 55  1  0
 81 86  1  0
 81 82  1  0
 82 85  1  1
 82 83  1  0
 84 82  1  0
 86 89  1  0
 87 91  1  0
 87 86  1  0
 88 87  2  0
 91 90  1  0
 93 91  1  0
 93 94  1  0
 93 92  1  0
M  ISO  4  12 100  20 100  53 101  54 101
M  END
>  <TORSDO>  (2) 
F 20

>  <SCORE>  (2) 
-13.725

>  <name>  (2) 
1

>  <ligand_id>  (2) 
1

>  <original_smiles>  (2) 
[H]c1c([H])c([H])c2c(c1[H])C([H])([H])C([H])([H])C([H])([H])C2([H])N([H])C(=O)C1([H])N(C(=O)C([H])(N([H])C(=O)C([H])(N([H])C([H])([H])[H])C([H])([H])[H])C(C([H])([H])[H])(C([H])([H])[H])C([H])([H])[H])C([H])([H])c2c([H])c(OC([H])([H])C([H])([H])C([H])(N3C([H])([H])C([H])([H])[N+]([H])(C4([H])C([H])([H])C([H])([H])C4([H])N([H])C(=O)N4C([H])([H])C([H])([H])C([H])([H])C([H])(n5nc(-c6c([H])c([H])c(Oc7c([H])c([H])c(F)c([H])c7F)c([H])c6[H])c(C(=O)N([H])[H])c5N([H])[H])C4([H])[H])C([H])([H])C3([H])[H])C([H])([H])[H])c([H])c([H])c2C1([H])[H]

>  <smiles>  (2) 
[H]c1c([H])c([H])c2c(c1[H])C([H])([H])C([H])([H])C([H])([H])C2([H])N([H])C(=O)C1([H])N(C(=O)C([H])(N([H])C(=O)C([H])(N([H])C([H])([H])[H])C([H])([H])[H])C(C([H])([H])[H])(C([H])([H])[H])C([H])([H])[H])C([H])([H])c2c([H])c(OC([H])([H])C([H])([H])C([H])(N3C([H])([H])C([H])([H])[N+]([H])(C4([H])C([H])([H])C([H])([H])C4([H])N([H])C(=O)N4C([H])([H])C([H])([H])C([H])([H])C([H])(n5nc(-c6c([H])c([H])c(Oc7c([H])c([H])c(F)c([H])c7F)c([H])c6[H])c(C(=O)N([H])[H])c5N([H])[H])C4([H])[H])C([H])([H])C3([H])[H])C([H])([H])[H])c([H])c([H])c2C1([H])[H]

$$$$
2:0:0
     RDKit          3D

 93102  0  0  1  0  0  0  0  0999 V2000
  -30.3680  -24.7730   19.7280 C   0  0  0  0  0  2  0  0  0  0  0  0
  -30.3480  -23.2680   20.1300 C   0  0  0  0  0  2  0  0  0  0  0  0
  -28.1950  -23.8050   19.4460 C   0  0  0  0  0  2  0  0  0  0  0  0
  -28.9280  -25.2050   19.3390 C   0  0  0  0  0  3  0  0  0  0  0  0
  -29.2170  -22.6710   19.4020 N   0  0  2  0  0  4  0  0  0  0  0  0
  -29.5330  -22.5610   18.4490 H   0  0  0  0  0  0  0  0  0  0  0  0
  -28.5830  -26.4350   20.1100 O   0  0  0  0  0  0  0  0  0  0  0  0
  -24.6870  -31.7100   23.0910 C   0  0  0  0  0  0  0  0  0  0  0  0
  -27.4250  -27.2270   19.9960 C   0  0  0  0  0  0  0  0  0  0  0  0
  -23.5340  -30.3300   21.3990 C   0  0  0  0  0  3  0  0  0  0  0  0
  -25.0290  -28.8070   19.9760 C   0  0  0  0  0  0  0  0  0  0  0  0
  -26.0700  -30.6720   21.2720 C   0  0  0  0  0  2  0  0  0  0  0  0
  -26.1770  -29.3020   20.6080 C   0  0  0  0  0  0  0  0  0  0  0  0
  -27.3680  -28.5190   20.6150 C   0  0  0  0  0  3  0  0  0  0  0  0
  -26.2560  -26.7790   19.3440 C   0  0  0  0  0  3  0  0  0  0  0  0
  -25.0710  -27.5520   19.3380 C   0  0  0  0  0  3  0  0  0  0  0  0
  -23.7840  -29.6730   20.0150 C   0  0  0  0  0  2  0  0  0  0  0  0
  -24.7830  -30.9210   21.9800 N   0  0  0  0  0  0  0  0  0  0  0  0
  -23.5910  -31.9640   23.6080 O   0  0  0  0  0  0  0  0  0  0  0  0
  -22.8520  -29.3010   22.3300 C   0  0  0  0  0  0  0  0  0  0  0  0
  -21.5250  -29.1460   22.2000 N   0  0  0  0  0  0  0  0  0  0  0  0
  -23.5210  -28.6380   23.1280 O   0  0  0  0  0  0  0  0  0  0  0  0
  -21.0380  -29.7350   21.5370 H   0  0  0  0  0  0  0  0  0  0  0  0
  -18.1290  -28.0030   22.6920 C   0  0  0  0  0  0  0  0  0  0  0  0
  -20.6940  -28.1960   22.9430 C   0  0  0  0  0  3  0  0  0  0  0  0
  -20.7600  -26.7830   22.3140 C   0  0  0  0  0  2  0  0  0  0  0  0
  -19.6430  -26.5250   21.2990 C   0  0  0  0  0  2  0  0  0  0  0  0
  -18.2690  -26.6800   21.9590 C   0  0  0  0  0  2  0  0  0  0  0  0
  -19.2680  -28.7230   23.1410 C   0  0  0  0  0  0  0  0  0  0  0  0
  -19.0810  -29.9660   23.7820 C   0  0  0  0  0  3  0  0  0  0  0  0
  -17.7900  -30.4890   23.9800 C   0  0  0  0  0  3  0  0  0  0  0  0
  -16.6650  -29.7660   23.5450 C   0  0  0  0  0  3  0  0  0  0  0  0
  -16.8360  -28.5250   22.9060 C   0  0  0  0  0  3  0  0  0  0  0  0
  -25.9510  -32.3420   23.7520 C   0  0  0  0  0  3  0  0  0  0  0  0
  -25.6070  -33.7160   24.1500 N   0  0  0  0  0  0  0  0  0  0  0  0
  -25.9310  -34.8140   23.4550 C   0  0  0  0  0  0  0  0  0  0  0  0
  -26.6160  -34.7760   22.4280 O   0  0  0  0  0  0  0  0  0  0  0  0
  -24.9970  -33.8170   24.9510 H   0  0  0  0  0  0  0  0  0  0  0  0
  -24.1680  -36.5840   23.1830 C   0  0  0  0  0  1  0  0  0  0  0  0
  -25.4140  -36.1670   23.9790 C   0  0  0  0  0  3  0  0  0  0  0  0
  -27.5220  -37.0580   24.8690 C   0  0  0  0  0  1  0  0  0  0  0  0
  -26.4250  -37.2470   23.9230 N   0  0  0  0  0  0  0  0  0  0  0  0
  -25.9950  -38.1480   24.1120 H   0  0  0  0  0  0  0  0  0  0  0  0
  -26.4780  -31.5240   24.9950 C   0  0  1  0  0  0  0  0  0  0  0  0
  -25.3860  -31.2140   26.0440 C   0  0  0  0  0  1  0  0  0  0  0  0
  -27.0920  -30.1810   24.5380 C   0  0  0  0  0  1  0  0  0  0  0  0
  -27.6080  -32.3070   25.7010 C   0  0  0  0  0  1  0  0  0  0  0  0
  -28.7090  -21.2830   19.8130 C   0  0  0  0  0  2  0  0  0  0  0  0
  -30.1560  -17.8760   18.7360 C   0  0  0  0  0  3  0  0  0  0  0  0
  -30.1280  -17.1210   19.9430 C   0  0  0  0  0  0  0  0  0  0  0  0
  -29.8190  -17.9280   21.0630 C   0  0  0  0  0  0  0  0  0  0  0  0
  -29.4890  -19.8820   19.7890 C   0  0  0  0  0  0  0  0  0  0  0  0
  -29.7380  -17.3280   22.4580 C   0  0  0  0  0  1  0  0  0  0  0  0
  -29.8130  -19.2140   18.6620 N   0  0  0  0  0  0  0  0  0  0  0  0
  -29.5260  -19.2530   20.9730 N   0  0  0  0  0  0  0  0  0  0  0  0
  -30.9920  -14.6350   19.5680 C   0  0  0  0  0  0  0  0  0  0  0  0
  -30.7440  -12.3130   18.6580 C   0  0  0  0  0  2  0  0  0  0  0  0
  -29.6280  -12.3340   17.5860 C   0  0  0  0  0  2  0  0  0  0  0  0
  -28.2350  -12.1670   18.2260 C   0  0  0  0  0  2  0  0  0  0  0  0
  -28.0340  -13.0960   19.4520 C   0  0  0  0  0  3  0  0  0  0  0  0
  -29.2390  -13.0090   20.4160 C   0  0  0  0  0  2  0  0  0  0  0  0
  -30.4430  -13.3730   19.6470 N   0  0  0  0  0  0  0  0  0  0  0  0
  -32.0500  -14.8390   18.9680 O   0  0  0  0  0  0  0  0  0  0  0  0
  -30.2330  -15.6500   20.1100 N   0  0  0  0  0  0  0  0  0  0  0  0
  -29.5070  -15.2630   20.6930 H   0  0  0  0  0  0  0  0  0  0  0  0
  -25.8740  -13.7310   20.6900 C   0  0  0  0  0  0  0  0  0  0  0  0
  -24.8170  -12.9840   21.1340 C   0  0  0  0  0  0  0  0  0  0  0  0
  -25.1280  -11.6300   20.8050 C   0  0  0  0  0  0  0  0  0  0  0  0
  -26.7700  -12.8330   20.1330 N   0  0  0  0  0  0  0  0  0  0  0  0
  -26.3350  -11.5530   20.2540 N   0  0  0  0  0  0  0  0  0  0  0  0
  -24.3210  -10.4090   20.9230 C   0  0  0  0  0  0  0  0  0  0  0  0
  -24.7200   -9.3400   21.7550 C   0  0  0  0  0  3  0  0  0  0  0  0
  -23.9190   -8.1830   21.8660 C   0  0  0  0  0  3  0  0  0  0  0  0
  -22.7050   -8.0880   21.1470 C   0  0  0  0  0  0  0  0  0  0  0  0
  -22.3230   -9.1450   20.3030 C   0  0  0  0  0  3  0  0  0  0  0  0
  -23.1240  -10.2930   20.1880 C   0  0  0  0  0  3  0  0  0  0  0  0
  -21.8760   -6.9930   21.1740 O   0  0  0  0  0  0  0  0  0  0  0  0
  -21.7150   -6.2400   22.3110 C   0  0  0  0  0  0  0  0  0  0  0  0
  -21.2400   -6.8040   23.5150 C   0  0  0  0  0  3  0  0  0  0  0  0
  -21.0230   -5.9810   24.6400 C   0  0  0  0  0  3  0  0  0  0  0  0
  -21.2680   -4.5970   24.5580 C   0  0  0  0  0  0  0  0  0  0  0  0
  -21.7350   -4.0340   23.3580 C   0  0  0  0  0  3  0  0  0  0  0  0
  -21.9550   -4.8540   22.2370 C   0  0  0  0  0  0  0  0  0  0  0  0
  -22.3840   -4.3020   21.0750 F   0  0  0  0  0  0  0  0  0  0  0  0
  -21.0540   -3.8050   25.6350 F   0  0  0  0  0  0  0  0  0  0  0  0
  -23.5450  -13.5040   21.7390 C   0  0  0  0  0  0  0  0  0  0  0  0
  -22.9320  -12.7330   22.6330 N   0  0  0  0  0  0  0  0  0  0  0  0
  -23.1120  -14.6200   21.4580 O   0  0  0  0  0  0  0  0  0  0  0  0
  -23.2990  -11.8260   22.8790 H   0  0  0  0  0  0  0  0  0  0  0  0
  -22.0860  -13.0570   23.0790 H   0  0  0  0  0  0  0  0  0  0  0  0
  -26.1440  -15.0960   20.6830 N   0  0  0  0  0  0  0  0  0  0  0  0
  -25.4280  -15.7720   20.9280 H   0  0  0  0  0  0  0  0  0  0  0  0
  -26.8770  -15.4940   20.1090 H   0  0  0  0  0  0  0  0  0  0  0  0
  1  2  1  0
  4  3  1  0
  4  1  1  0
  4  7  1  0
  5  3  1  0
  5 48  1  0
  5  2  1  0
  5  6  1  6
  8 19  2  0
  9  7  1  0
  9 14  1  0
 10 18  1  0
 10 20  1  0
 11 17  1  0
 11 13  1  0
 12 18  1  0
 13 14  2  0
 13 12  1  0
 15  9  2  0
 16 15  1  0
 16 11  2  0
 17 10  1  0
 18  8  1  0
 20 22  2  0
 21 20  1  0
 23 21  1  0
 24 33  2  0
 24 29  1  0
 25 21  1  0
 25 29  1  0
 26 25  1  0
 27 28  1  0
 27 26  1  0
 28 24  1  0
 29 30  2  0
 30 31  1  0
 32 31  2  0
 33 32  1  0
 34  8  1  0
 34 35  1  0
 34 44  1  0
 35 38  1  0
 36 40  1  0
 36 35  1  0
 37 36  2  0
 40 39  1  0
 42 40  1  0
 42 43  1  0
 42 41  1  0
 44 47  1  1
 44 45  1  0
 46 44  1  0
 49 50  2  0
 50 64  1  0
 50 51  1  0
 51 53  1  0
 52 48  1  0
 52 55  1  0
 54 49  1  0
 54 52  2  0
 55 51  2  0
 56 62  1  0
 56 64  1  0
 57 62  1  0
 58 59  1  0
 58 57  1  0
 60 59  1  0
 60 69  1  0
 60 61  1  0
 62 61  1  0
 63 56  2  0
 64 65  1  0
 66 67  2  0
 67 86  1  0
 68 71  1  0
 68 67  1  0
 69 70  1  0
 69 66  1  0
 70 68  2  0
 71 72  1  0
 72 73  2  0
 74 77  1  0
 74 73  1  0
 75 74  2  0
 76 75  1  0
 76 71  2  0
 77 78  1  0
 78 79  1  0
 79 80  2  0
 81 80  1  0
 81 85  1  0
 82 81  2  0
 83 78  2  0
 83 82  1  0
 84 83  1  0
 86 87  1  0
 87 89  1  0
 87 90  1  0
 88 86  2  0
 91 66  1  0
 91 92  1  0
 93 91  1  0
M  ISO  4   4 101   7 101  56 100  64 100
M  END
>  <TORSDO>  (3) 
F 18

>  <SCORE>  (3) 
-11.951

>  <name>  (3) 
2

>  <ligand_id>  (3) 
2

>  <original_smiles>  (3) 
[H]c1nc(C([H])([H])[N+]2([H])C([H])([H])C([H])([H])C([H])(Oc3c([H])c([H])c4c(c3[H])C([H])([H])N(C(=O)C([H])(N([H])C(=O)C([H])(N([H])C([H])([H])[H])C([H])([H])[H])C(C([H])([H])[H])(C([H])([H])[H])C([H])([H])[H])C([H])(C(=O)N([H])C3([H])c5c([H])c([H])c([H])c([H])c5C([H])([H])C([H])([H])C3([H])[H])C4([H])[H])C2([H])[H])nc(C([H])([H])[H])c1N([H])C(=O)N1C([H])([H])C([H])([H])C([H])([H])C([H])(n2nc(-c3c([H])c([H])c(Oc4c([H])c([H])c(F)c([H])c4F)c([H])c3[H])c(C(=O)N([H])[H])c2N([H])[H])C1([H])[H]

>  <smiles>  (3) 
[H]c1nc(C([H])([H])[N+]2([H])C([H])([H])C([H])([H])C([H])(Oc3c([H])c([H])c4c(c3[H])C([H])([H])N(C(=O)C([H])(N([H])C(=O)C([H])(N([H])C([H])([H])[H])C([H])([H])[H])C(C([H])([H])[H])(C([H])([H])[H])C([H])([H])[H])C([H])(C(=O)N([H])C3([H])c5c([H])c([H])c([H])c([H])c5C([H])([H])C([H])([H])C3([H])[H])C4([H])[H])C2([H])[H])nc(C([H])([H])[H])c1N([H])C(=O)N1C([H])([H])C([H])([H])C([H])([H])C([H])(n2nc(-c3c([H])c([H])c(Oc4c([H])c([H])c(F)c([H])c4F)c([H])c3[H])c(C(=O)N([H])[H])c2N([H])[H])C1([H])[H]

$$$$
3:0:0
     RDKit          3D

 96106  0  0  1  0  0  0  0  0999 V2000
  -29.5390  -22.4220   20.8040 C   0  0  0  0  0  3  0  0  0  0  0  0
  -29.4660  -23.8290   20.8280 C   0  0  0  0  0  0  0  0  0  0  0  0
  -28.8230  -21.7500   19.7920 C   0  0  0  0  0  0  0  0  0  0  0  0
  -28.0810  -23.8330   18.9970 C   0  0  0  0  0  0  0  0  0  0  0  0
  -28.7380  -24.5100   19.9260 N   0  0  0  0  0  0  0  0  0  0  0  0
  -28.0940  -22.4860   18.9040 N   0  0  0  0  0  0  0  0  0  0  0  0
  -29.8180  -24.6940   23.3450 C   0  0  0  0  0  2  0  0  0  0  0  0
  -29.2420  -25.7880   22.4770 C   0  0  0  0  0  2  0  0  0  0  0  0
  -30.1040  -24.7140   21.8600 C   0  0  0  0  0  3  0  0  0  0  0  0
  -28.8650  -20.1990   19.6010 C   0  0  0  0  0  2  0  0  0  0  0  0
  -29.5830  -19.4080   20.6550 N   0  0  0  0  0  4  0  0  0  0  0  0
  -29.0670  -19.4770   21.5170 H   0  0  0  0  0  0  0  0  0  0  0  0
  -30.4320  -19.9280   20.7910 H   0  0  0  0  0  0  0  0  0  0  0  0
  -30.0010  -17.9740   20.3910 C   0  0  0  0  0  2  0  0  0  0  0  0
  -30.1560  -14.5550   20.1070 C   0  0  0  0  0  0  0  0  0  0  0  0
  -30.1000  -12.2420   19.2380 C   0  0  0  0  0  2  0  0  0  0  0  0
  -29.1080  -12.2090   18.0540 C   0  0  0  0  0  2  0  0  0  0  0  0
  -27.6500  -12.0170   18.5280 C   0  0  0  0  0  2  0  0  0  0  0  0
  -27.2700  -12.9260   19.7310 C   0  0  0  0  0  3  0  0  0  0  0  0
  -28.3750  -12.9210   20.8110 C   0  0  0  0  0  2  0  0  0  0  0  0
  -29.6440  -13.2900   20.1630 N   0  0  0  0  0  0  0  0  0  0  0  0
  -31.3350  -14.7850   19.8300 O   0  0  0  0  0  0  0  0  0  0  0  0
  -27.9020  -16.9170   19.1870 C   0  0  0  0  0  2  0  0  0  0  0  0
  -28.8550  -15.9270   18.5390 C   0  0  0  0  0  2  0  0  0  0  0  0
  -28.8620  -16.9010   20.3750 C   0  0  0  0  0  3  0  0  0  0  0  0
  -29.1900  -15.5060   19.9050 N   0  0  0  0  0  0  0  0  0  0  0  0
  -24.8900  -13.4480   20.5470 C   0  0  0  0  0  0  0  0  0  0  0  0
  -23.8710  -12.6420   20.9720 C   0  0  0  0  0  0  0  0  0  0  0  0
  -24.3870  -11.3100   20.9410 C   0  0  0  0  0  0  0  0  0  0  0  0
  -25.9570  -12.6030   20.2790 N   0  0  0  0  0  0  0  0  0  0  0  0
  -25.6630  -11.3130   20.5740 N   0  0  0  0  0  0  0  0  0  0  0  0
  -23.7210  -10.0260   21.1790 C   0  0  0  0  0  0  0  0  0  0  0  0
  -24.2120   -9.1050   22.1270 C   0  0  0  0  0  3  0  0  0  0  0  0
  -23.5430   -7.8820   22.3520 C   0  0  0  0  0  3  0  0  0  0  0  0
  -22.3730   -7.5710   21.6230 C   0  0  0  0  0  0  0  0  0  0  0  0
  -21.9000   -8.4820   20.6630 C   0  0  0  0  0  3  0  0  0  0  0  0
  -22.5700   -9.6960   20.4360 C   0  0  0  0  0  3  0  0  0  0  0  0
  -21.6710   -6.3960   21.7560 O   0  0  0  0  0  0  0  0  0  0  0  0
  -21.6630   -5.6950   22.9360 C   0  0  0  0  0  0  0  0  0  0  0  0
  -21.1390   -6.2440   24.1260 C   0  0  0  0  0  3  0  0  0  0  0  0
  -21.0840   -5.4610   25.2970 C   0  0  0  0  0  3  0  0  0  0  0  0
  -21.5440   -4.1300   25.2780 C   0  0  0  0  0  0  0  0  0  0  0  0
  -22.0610   -3.5810   24.0920 C   0  0  0  0  0  3  0  0  0  0  0  0
  -22.1190   -4.3600   22.9230 C   0  0  0  0  0  0  0  0  0  0  0  0
  -22.5970   -3.8180   21.7780 F   0  0  0  0  0  0  0  0  0  0  0  0
  -21.4840   -3.3750   26.3990 F   0  0  0  0  0  0  0  0  0  0  0  0
  -22.4670  -13.0690   21.3000 C   0  0  0  0  0  0  0  0  0  0  0  0
  -21.8130  -12.3740   22.2250 N   0  0  0  0  0  0  0  0  0  0  0  0
  -21.9570  -14.0540   20.7670 O   0  0  0  0  0  0  0  0  0  0  0  0
  -22.2400  -11.5830   22.6830 H   0  0  0  0  0  0  0  0  0  0  0  0
  -20.8730  -12.6430   22.4800 H   0  0  0  0  0  0  0  0  0  0  0  0
  -24.9920  -14.8200   20.3510 N   0  0  0  0  0  0  0  0  0  0  0  0
  -24.2160  -15.4500   20.5140 H   0  0  0  0  0  0  0  0  0  0  0  0
  -25.8320  -15.2860   20.0320 H   0  0  0  0  0  0  0  0  0  0  0  0
  -27.2280  -24.6550   17.9930 C   0  0  0  0  0  2  0  0  0  0  0  0
  -27.4740  -26.0990   17.8980 O   0  0  0  0  0  0  0  0  0  0  0  0
  -24.7520  -31.0460   22.3400 C   0  0  0  0  0  0  0  0  0  0  0  0
  -26.4180  -26.9700   18.1690 C   0  0  0  0  0  0  0  0  0  0  0  0
  -23.1790  -30.0480   20.7210 C   0  0  0  0  0  3  0  0  0  0  0  0
  -24.2320  -28.6760   18.8420 C   0  0  0  0  0  0  0  0  0  0  0  0
  -25.6830  -30.2070   20.1790 C   0  0  0  0  0  2  0  0  0  0  0  0
  -25.5200  -28.9740   19.3090 C   0  0  0  0  0  0  0  0  0  0  0  0
  -26.6110  -28.1280   18.9760 C   0  0  0  0  0  3  0  0  0  0  0  0
  -25.1080  -26.7270   17.6860 C   0  0  0  0  0  3  0  0  0  0  0  0
  -24.0250  -27.5520   18.0320 C   0  0  0  0  0  3  0  0  0  0  0  0
  -23.1070  -29.6070   19.2350 C   0  0  0  0  0  2  0  0  0  0  0  0
  -24.5660  -30.4400   21.1350 N   0  0  0  0  0  0  0  0  0  0  0  0
  -23.7950  -31.3050   23.0870 O   0  0  0  0  0  0  0  0  0  0  0  0
  -22.5770  -28.9280   21.6020 C   0  0  0  0  0  0  0  0  0  0  0  0
  -21.2360  -28.8780   21.6790 N   0  0  0  0  0  0  0  0  0  0  0  0
  -23.3070  -28.1120   22.1720 O   0  0  0  0  0  0  0  0  0  0  0  0
  -20.7060  -29.5820   21.1840 H   0  0  0  0  0  0  0  0  0  0  0  0
  -17.8780  -27.8710   22.5630 C   0  0  0  0  0  0  0  0  0  0  0  0
  -20.4600  -27.8850   22.4210 C   0  0  0  0  0  3  0  0  0  0  0  0
  -20.3210  -26.5720   21.6160 C   0  0  0  0  0  2  0  0  0  0  0  0
  -19.0470  -26.5160   20.7690 C   0  0  0  0  0  2  0  0  0  0  0  0
  -17.8070  -26.6510   21.6580 C   0  0  0  0  0  2  0  0  0  0  0  0
  -19.1250  -28.4570   22.9080 C   0  0  0  0  0  0  0  0  0  0  0  0
  -19.1360  -29.6110   23.7230 C   0  0  0  0  0  3  0  0  0  0  0  0
  -17.9350  -30.1710   24.1930 C   0  0  0  0  0  3  0  0  0  0  0  0
  -16.7050  -29.5760   23.8630 C   0  0  0  0  0  3  0  0  0  0  0  0
  -16.6780  -28.4280   23.0510 C   0  0  0  0  0  3  0  0  0  0  0  0
  -26.1720  -31.4680   22.8290 C   0  0  0  0  0  3  0  0  0  0  0  0
  -26.0160  -32.6820   23.6430 N   0  0  0  0  0  0  0  0  0  0  0  0
  -26.4780  -33.8930   23.3040 C   0  0  0  0  0  0  0  0  0  0  0  0
  -27.1500  -34.0900   22.2880 O   0  0  0  0  0  0  0  0  0  0  0  0
  -25.4270  -32.6030   24.4590 H   0  0  0  0  0  0  0  0  0  0  0  0
  -25.0050  -35.9060   23.6340 C   0  0  0  0  0  1  0  0  0  0  0  0
  -26.1430  -35.0700   24.2410 C   0  0  0  0  0  3  0  0  0  0  0  0
  -28.3180  -35.3000   25.3590 C   0  0  0  0  0  1  0  0  0  0  0  0
  -27.3010  -35.9420   24.5300 N   0  0  0  0  0  0  0  0  0  0  0  0
  -27.0040  -36.7960   24.9950 H   0  0  0  0  0  0  0  0  0  0  0  0
  -26.9080  -30.3400   23.6530 C   0  0  1  0  0  0  0  0  0  0  0  0
  -26.0600  -29.7590   24.8090 C   0  0  0  0  0  1  0  0  0  0  0  0
  -27.3200  -29.1630   22.7370 C   0  0  0  0  0  1  0  0  0  0  0  0
  -28.2150  -30.9040   24.2580 C   0  0  0  0  0  1  0  0  0  0  0  0
  1  2  2  0
  2  9  1  0
  3  1  1  0
  4  5  2  0
  5  2  1  0
  6  4  1  0
  6  3  2  0
  8  7  1  0
  9  8  1  0
  9  7  1  0
 10  3  1  0
 10 11  1  0
 11 13  1  0
 11 12  1  0
 14 11  1  0
 15 21  1  0
 16 21  1  0
 17 18  1  0
 17 16  1  0
 19 18  1  0
 19 30  1  0
 19 20  1  0
 21 20  1  0
 22 15  2  0
 23 25  1  0
 24 23  1  0
 24 26  1  0
 25 14  1  0
 26 15  1  0
 26 25  1  0
 27 28  2  0
 28 47  1  0
 29 28  1  0
 29 32  1  0
 30 27  1  0
 30 31  1  0
 31 29  2  0
 32 33  1  0
 33 34  2  0
 35 38  1  0
 35 34  1  0
 36 35  2  0
 37 36  1  0
 37 32  2  0
 38 39  1  0
 39 40  1  0
 40 41  2  0
 42 41  1  0
 42 46  1  0
 43 42  2  0
 44 39  2  0
 44 43  1  0
 45 44  1  0
 47 48  1  0
 48 51  1  0
 48 50  1  0
 49 47  2  0
 52 53  1  0
 52 27  1  0
 54 52  1  0
 55  4  1  0
 56 55  1  0
 56 58  1  0
 57 68  2  0
 58 63  1  0
 59 67  1  0
 59 69  1  0
 60 66  1  0
 60 62  1  0
 61 67  1  0
 62 61  1  0
 63 62  2  0
 64 65  1  0
 64 58  2  0
 65 60  2  0
 66 59  1  0
 67 57  1  0
 69 70  1  0
 69 71  2  0
 72 70  1  0
 73 78  2  0
 73 82  1  0
 74 70  1  0
 74 78  1  0
 75 74  1  0
 76 75  1  0
 76 77  1  0
 77 73  1  0
 78 79  1  0
 79 80  2  0
 81 80  1  0
 82 81  2  0
 83 57  1  0
 83 84  1  0
 83 93  1  0
 84 87  1  0
 85 84  1  0
 85 89  1  0
 86 85  2  0
 89 88  1  0
 89 91  1  0
 91 92  1  0
 91 90  1  0
 93 96  1  1
 93 94  1  0
 95 93  1  0
M  ISO  4  15 100  26 100  55 101  56 101
M  END
>  <TORSDO>  (4) 
F 21

>  <SCORE>  (4) 
-10.487

>  <name>  (4) 
3

>  <ligand_id>  (4) 
3

>  <original_smiles>  (4) 
[H]c1c(C2([H])C([H])([H])C2([H])[H])nc(C([H])([H])Oc2c([H])c([H])c3c(c2[H])C([H])([H])N(C(=O)C([H])(N([H])C(=O)C([H])(N([H])C([H])([H])[H])C([H])([H])[H])C(C([H])([H])[H])(C([H])([H])[H])C([H])([H])[H])C([H])(C(=O)N([H])C2([H])c4c([H])c([H])c([H])c([H])c4C([H])([H])C([H])([H])C2([H])[H])C3([H])[H])nc1C([H])([H])[N+]([H])([H])C([H])([H])C1([H])N(C(=O)N2C([H])([H])C([H])([H])C([H])([H])C([H])(n3nc(-c4c([H])c([H])c(Oc5c([H])c([H])c(F)c([H])c5F)c([H])c4[H])c(C(=O)N([H])[H])c3N([H])[H])C2([H])[H])C([H])([H])C1([H])[H]

>  <smiles>  (4) 
[H]c1c(C2([H])C([H])([H])C2([H])[H])nc(C([H])([H])Oc2c([H])c([H])c3c(c2[H])C([H])([H])N(C(=O)C([H])(N([H])C(=O)C([H])(N([H])C([H])([H])[H])C([H])([H])[H])C(C([H])([H])[H])(C([H])([H])[H])C([H])([H])[H])C([H])(C(=O)N([H])C2([H])c4c([H])c([H])c([H])c([H])c4C([H])([H])C([H])([H])C2([H])[H])C3([H])[H])nc1C([H])([H])[N+]([H])([H])C([H])([H])C1([H])N(C(=O)N2C([H])([H])C([H])([H])C([H])([H])C([H])(n3nc(-c4c([H])c([H])c(Oc5c([H])c([H])c(F)c([H])c5F)c([H])c4[H])c(C(=O)N([H])[H])c3N([H])[H])C2([H])[H])C([H])([H])C1([H])[H]

$$$$
4:0:0
     RDKit          3D

 93102  0  0  1  0  0  0  0  0999 V2000
  -28.1990  -23.2800   21.0790 C   0  0  0  0  0  3  0  0  0  0  0  0
  -28.6250  -22.2730   20.1330 C   0  0  0  0  0  0  0  0  0  0  0  0
  -28.2280  -24.9970   19.4930 C   0  0  0  0  0  0  0  0  0  0  0  0
  -28.0050  -24.6060   20.7570 N   0  0  0  0  0  0  0  0  0  0  0  0
  -28.8320  -22.7560   18.8640 N   0  0  0  0  0  0  0  0  0  0  0  0
  -28.6550  -24.0920   18.5600 N   0  0  0  0  0  0  0  0  0  0  0  0
  -29.3680  -23.0970   23.3220 C   0  0  0  0  0  1  0  0  0  0  0  0
  -28.0340  -22.9950   22.5670 C   0  0  0  0  0  2  0  0  0  0  0  0
  -28.2270  -26.3760   19.1670 O   0  0  0  0  0  0  0  0  0  0  0  0
  -24.8620  -31.6450   22.9910 C   0  0  0  0  0  0  0  0  0  0  0  0
  -27.1200  -27.2470   19.3790 C   0  0  0  0  0  0  0  0  0  0  0  0
  -23.5020  -30.3900   21.3580 C   0  0  0  0  0  3  0  0  0  0  0  0
  -24.8010  -28.9320   19.6960 C   0  0  0  0  0  0  0  0  0  0  0  0
  -26.0260  -30.6800   20.9820 C   0  0  0  0  0  2  0  0  0  0  0  0
  -26.0270  -29.3460   20.2290 C   0  0  0  0  0  0  0  0  0  0  0  0
  -27.1870  -28.5170   20.0600 C   0  0  0  0  0  3  0  0  0  0  0  0
  -25.8690  -26.9130   18.8200 C   0  0  0  0  0  3  0  0  0  0  0  0
  -24.7270  -27.7240   18.9810 C   0  0  0  0  0  3  0  0  0  0  0  0
  -23.5900  -29.8210   19.9150 C   0  0  0  0  0  2  0  0  0  0  0  0
  -24.8210  -30.9220   21.8320 N   0  0  0  0  0  0  0  0  0  0  0  0
  -23.8320  -31.8880   23.6370 O   0  0  0  0  0  0  0  0  0  0  0  0
  -22.9080  -29.3080   22.2920 C   0  0  0  0  0  0  0  0  0  0  0  0
  -21.5830  -29.0930   22.2110 N   0  0  0  0  0  0  0  0  0  0  0  0
  -23.6380  -28.6650   23.0500 O   0  0  0  0  0  0  0  0  0  0  0  0
  -21.0480  -29.6670   21.5750 H   0  0  0  0  0  0  0  0  0  0  0  0
  -18.2880  -27.6790   22.7050 C   0  0  0  0  0  0  0  0  0  0  0  0
  -20.8280  -28.0890   22.9640 C   0  0  0  0  0  3  0  0  0  0  0  0
  -21.0130  -26.6800   22.3550 C   0  0  0  0  0  2  0  0  0  0  0  0
  -19.9250  -26.3150   21.3390 C   0  0  0  0  0  2  0  0  0  0  0  0
  -18.5420  -26.3600   21.9940 C   0  0  0  0  0  2  0  0  0  0  0  0
  -19.3620  -28.4980   23.1470 C   0  0  0  0  0  0  0  0  0  0  0  0
  -19.0700  -29.7300   23.7720 C   0  0  0  0  0  3  0  0  0  0  0  0
  -17.7380  -30.1440   23.9600 C   0  0  0  0  0  3  0  0  0  0  0  0
  -16.6800  -29.3230   23.5340 C   0  0  0  0  0  3  0  0  0  0  0  0
  -16.9550  -28.0920   22.9130 C   0  0  0  0  0  3  0  0  0  0  0  0
  -26.2000  -32.2210   23.5460 C   0  0  0  0  0  3  0  0  0  0  0  0
  -25.9330  -33.5850   24.0250 N   0  0  0  0  0  0  0  0  0  0  0  0
  -26.2440  -34.7040   23.3550 C   0  0  0  0  0  0  0  0  0  0  0  0
  -26.8540  -34.6920   22.2820 O   0  0  0  0  0  0  0  0  0  0  0  0
  -25.3870  -33.6700   24.8690 H   0  0  0  0  0  0  0  0  0  0  0  0
  -24.5420  -36.5550   23.2710 C   0  0  0  0  0  1  0  0  0  0  0  0
  -25.8130  -36.0490   23.9720 C   0  0  0  0  0  3  0  0  0  0  0  0
  -28.0040  -36.8150   24.7770 C   0  0  0  0  0  1  0  0  0  0  0  0
  -26.8620  -37.0900   23.9080 N   0  0  0  0  0  0  0  0  0  0  0  0
  -26.4830  -37.9980   24.1600 H   0  0  0  0  0  0  0  0  0  0  0  0
  -26.8190  -31.3420   24.7020 C   0  0  1  0  0  0  0  0  0  0  0  0
  -25.8250  -31.0280   25.8450 C   0  0  0  0  0  1  0  0  0  0  0  0
  -27.3420  -29.9950   24.1500 C   0  0  0  0  0  1  0  0  0  0  0  0
  -28.0390  -32.0690   25.3160 C   0  0  0  0  0  1  0  0  0  0  0  0
  -28.9330  -20.7420   20.6270 C   0  0  0  0  0  2  0  0  0  0  0  0
  -30.9070  -14.9960   19.7820 C   0  0  0  0  0  0  0  0  0  0  0  0
  -30.6120  -12.6550   18.9130 C   0  0  0  0  0  2  0  0  0  0  0  0
  -29.6070  -12.5920   17.7450 C   0  0  0  0  0  2  0  0  0  0  0  0
  -28.1780  -12.4010   18.2840 C   0  0  0  0  0  2  0  0  0  0  0  0
  -27.8530  -13.3590   19.4590 C   0  0  0  0  0  3  0  0  0  0  0  0
  -28.9870  -13.4140   20.5080 C   0  0  0  0  0  2  0  0  0  0  0  0
  -30.2080  -13.7930   19.7870 N   0  0  0  0  0  0  0  0  0  0  0  0
  -32.0990  -14.9250   19.4730 O   0  0  0  0  0  0  0  0  0  0  0  0
  -28.9090  -16.7470   19.8080 C   0  0  0  0  0  2  0  0  0  0  0  0
  -31.1640  -17.5160   19.5630 C   0  0  0  0  0  2  0  0  0  0  0  0
  -28.5110  -18.2300   20.2860 C   0  0  0  0  0  2  0  0  0  0  0  0
  -30.7580  -18.9640   20.1100 C   0  0  0  0  0  2  0  0  0  0  0  0
  -30.3300  -16.3000   19.8850 N   0  0  0  0  0  0  0  0  0  0  0  0
  -29.3480  -19.4270   19.8760 N   0  0  2  0  0  4  0  0  0  0  0  0
  -29.2130  -19.5800   18.8870 H   0  0  0  0  0  0  0  0  0  0  0  0
  -25.5570  -13.9630   20.4180 C   0  0  0  0  0  0  0  0  0  0  0  0
  -24.5090  -13.1980   20.8450 C   0  0  0  0  0  0  0  0  0  0  0  0
  -24.9340  -11.8400   20.7200 C   0  0  0  0  0  0  0  0  0  0  0  0
  -26.5550  -13.0730   20.0580 N   0  0  0  0  0  0  0  0  0  0  0  0
  -26.1950  -11.7870   20.3040 N   0  0  0  0  0  0  0  0  0  0  0  0
  -24.1920  -10.5890   20.9140 C   0  0  0  0  0  0  0  0  0  0  0  0
  -24.6040   -9.6250   21.8620 C   0  0  0  0  0  3  0  0  0  0  0  0
  -23.8620   -8.4380   22.0420 C   0  0  0  0  0  3  0  0  0  0  0  0
  -22.6950   -8.2060   21.2760 C   0  0  0  0  0  0  0  0  0  0  0  0
  -22.3040   -9.1570   20.3180 C   0  0  0  0  0  3  0  0  0  0  0  0
  -23.0460  -10.3360   20.1350 C   0  0  0  0  0  3  0  0  0  0  0  0
  -21.9270   -7.0700   21.3660 O   0  0  0  0  0  0  0  0  0  0  0  0
  -21.7710   -6.3990   22.5520 C   0  0  0  0  0  0  0  0  0  0  0  0
  -21.2100   -7.0190   23.6910 C   0  0  0  0  0  3  0  0  0  0  0  0
  -21.0040   -6.2730   24.8690 C   0  0  0  0  0  3  0  0  0  0  0  0
  -21.3480   -4.9080   24.9080 C   0  0  0  0  0  0  0  0  0  0  0  0
  -21.9010   -4.2890   23.7740 C   0  0  0  0  0  3  0  0  0  0  0  0
  -22.1090   -5.0320   22.5990 C   0  0  0  0  0  0  0  0  0  0  0  0
  -22.6240   -4.4250   21.5030 F   0  0  0  0  0  0  0  0  0  0  0  0
  -21.1430   -4.1900   26.0380 F   0  0  0  0  0  0  0  0  0  0  0  0
  -23.1510  -13.6960   21.2440 C   0  0  0  0  0  0  0  0  0  0  0  0
  -22.4770  -12.9880   22.1440 N   0  0  0  0  0  0  0  0  0  0  0  0
  -22.7010  -14.7490   20.7960 O   0  0  0  0  0  0  0  0  0  0  0  0
  -22.8560  -12.1370   22.5300 H   0  0  0  0  0  0  0  0  0  0  0  0
  -21.5700  -13.3070   22.4530 H   0  0  0  0  0  0  0  0  0  0  0  0
  -25.7330  -15.3370   20.2750 N   0  0  0  0  0  0  0  0  0  0  0  0
  -24.9680  -15.9810   20.4380 H   0  0  0  0  0  0  0  0  0  0  0  0
  -26.5010  -15.7500   19.7670 H   0  0  0  0  0  0  0  0  0  0  0  0
  1  8  1  0
  2 50  1  0
  2  1  1  0
  3  4  2  0
  4  1  1  0
  5  2  2  0
  6  5  1  0
  6  3  2  0
  8  7  1  0
  9 11  1  0
  9  3  1  0
 10 21  2  0
 11 16  1  0
 12 20  1  0
 12 22  1  0
 13 19  1  0
 13 15  1  0
 14 20  1  0
 15 14  1  0
 16 15  2  0
 17 18  1  0
 17 11  2  0
 18 13  2  0
 19 12  1  0
 20 10  1  0
 22 24  2  0
 23 22  1  0
 25 23  1  0
 26 35  2  0
 26 31  1  0
 27 23  1  0
 27 31  1  0
 28 27  1  0
 29 30  1  0
 29 28  1  0
 30 26  1  0
 31 32  2  0
 32 33  1  0
 34 33  2  0
 35 34  1  0
 36 10  1  0
 36 37  1  0
 36 46  1  0
 37 40  1  0
 38 42  1  0
 38 37  1  0
 39 38  2  0
 42 41  1  0
 44 42  1  0
 44 45  1  0
 44 43  1  0
 46 49  1  1
 46 47  1  0
 48 46  1  0
 51 57  1  0
 51 63  1  0
 52 57  1  0
 53 54  1  0
 53 52  1  0
 55 54  1  0
 55 69  1  0
 55 56  1  0
 57 56  1  0
 58 51  2  0
 59 63  1  0
 59 61  1  0
 60 63  1  0
 60 62  1  0
 64 62  1  0
 64 61  1  0
 64 50  1  0
 64 65  1  6
 66 67  2  0
 67 86  1  0
 68 67  1  0
 68 71  1  0
 69 70  1  0
 69 66  1  0
 70 68  2  0
 71 72  1  0
 72 73  2  0
 74 77  1  0
 74 73  1  0
 75 74  2  0
 76 75  1  0
 76 71  2  0
 77 78  1  0
 78 83  2  0
 78 79  1  0
 79 80  2  0
 80 81  1  0
 81 85  1  0
 82 81  2  0
 83 82  1  0
 84 83  1  0
 86 87  1  0
 87 90  1  0
 87 89  1  0
 88 86  2  0
 91 66  1  0
 91 92  1  0
 93 91  1  0
M  ISO  4   3 101   9 101  51 100  63 100
M  END
>  <TORSDO>  (5) 
F 18

>  <SCORE>  (5) 
-12.876

>  <name>  (5) 
4

>  <ligand_id>  (5) 
4

>  <original_smiles>  (5) 
[H]c1c([H])c([H])c2c(c1[H])C([H])([H])C([H])([H])C([H])([H])C2([H])N([H])C(=O)C1([H])N(C(=O)C([H])(N([H])C(=O)C([H])(N([H])C([H])([H])[H])C([H])([H])[H])C(C([H])([H])[H])(C([H])([H])[H])C([H])([H])[H])C([H])([H])c2c([H])c(Oc3nnc(C([H])([H])[N+]4([H])C([H])([H])C([H])([H])N(C(=O)N5C([H])([H])C([H])([H])C([H])([H])C([H])(n6nc(-c7c([H])c([H])c(Oc8c([H])c([H])c(F)c([H])c8F)c([H])c7[H])c(C(=O)N([H])[H])c6N([H])[H])C5([H])[H])C([H])([H])C4([H])[H])c(C([H])([H])C([H])([H])[H])n3)c([H])c([H])c2C1([H])[H]

>  <smiles>  (5) 
[H]c1c([H])c([H])c2c(c1[H])C([H])([H])C([H])([H])C([H])([H])C2([H])N([H])C(=O)C1([H])N(C(=O)C([H])(N([H])C(=O)C([H])(N([H])C([H])([H])[H])C([H])([H])[H])C(C([H])([H])[H])(C([H])([H])[H])C([H])([H])[H])C([H])([H])c2c([H])c(Oc3nnc(C([H])([H])[N+]4([H])C([H])([H])C([H])([H])N(C(=O)N5C([H])([H])C([H])([H])C([H])([H])C([H])(n6nc(-c7c([H])c([H])c(Oc8c([H])c([H])c(F)c([H])c8F)c([H])c7[H])c(C(=O)N([H])[H])c6N([H])[H])C5([H])[H])C([H])([H])C4([H])[H])c(C([H])([H])C([H])([H])[H])n3)c([H])c([H])c2C1([H])[H]

$$$$
5:0:0
     RDKit          3D

 93102  0  0  1  0  0  0  0  0999 V2000
  -30.1020  -23.5210   19.7750 C   0  0  0  0  0  3  0  0  0  0  0  0
  -29.0990  -22.5170   19.7460 C   0  0  0  0  0  0  0  0  0  0  0  0
  -27.8000  -23.1210   19.7650 C   0  0  0  0  0  3  0  0  0  0  0  0
  -28.6080  -25.3370   19.7940 C   0  0  0  0  0  0  0  0  0  0  0  0
  -29.8630  -24.8710   19.8000 N   0  0  0  0  0  0  0  0  0  0  0  0
  -27.5720  -24.4820   19.8070 N   0  0  0  0  0  0  0  0  0  0  0  0
  -25.8120  -22.3380   21.1060 C   0  0  0  0  0  1  0  0  0  0  0  0
  -26.5410  -22.2730   19.7580 C   0  0  0  0  0  2  0  0  0  0  0  0
  -28.4870  -26.7470   19.7970 O   0  0  0  0  0  0  0  0  0  0  0  0
  -24.6060  -31.9030   23.1800 C   0  0  0  0  0  0  0  0  0  0  0  0
  -27.3020  -27.5290   19.8630 C   0  0  0  0  0  0  0  0  0  0  0  0
  -23.4290  -30.5790   21.4600 C   0  0  0  0  0  3  0  0  0  0  0  0
  -24.9070  -29.1320   19.9440 C   0  0  0  0  0  0  0  0  0  0  0  0
  -25.9630  -30.9430   21.2970 C   0  0  0  0  0  2  0  0  0  0  0  0
  -26.0670  -29.5980   20.5740 C   0  0  0  0  0  0  0  0  0  0  0  0
  -27.2600  -28.8080   20.5230 C   0  0  0  0  0  3  0  0  0  0  0  0
  -26.1190  -27.1390   19.1980 C   0  0  0  0  0  3  0  0  0  0  0  0
  -24.9380  -27.9120   19.2480 C   0  0  0  0  0  3  0  0  0  0  0  0
  -23.6560  -29.9860   20.0440 C   0  0  0  0  0  2  0  0  0  0  0  0
  -24.6850  -31.1600   22.0360 N   0  0  0  0  0  0  0  0  0  0  0  0
  -23.5180  -32.1260   23.7310 O   0  0  0  0  0  0  0  0  0  0  0  0
  -22.7880  -29.4960   22.3620 C   0  0  0  0  0  0  0  0  0  0  0  0
  -21.4680  -29.2890   22.2160 N   0  0  0  0  0  0  0  0  0  0  0  0
  -23.4790  -28.8470   23.1520 O   0  0  0  0  0  0  0  0  0  0  0  0
  -20.9680  -29.8670   21.5540 H   0  0  0  0  0  0  0  0  0  0  0  0
  -18.1180  -27.9970   22.6600 C   0  0  0  0  0  0  0  0  0  0  0  0
  -20.6730  -28.2860   22.9270 C   0  0  0  0  0  3  0  0  0  0  0  0
  -20.7970  -26.8990   22.2560 C   0  0  0  0  0  2  0  0  0  0  0  0
  -19.6920  -26.6250   21.2300 C   0  0  0  0  0  2  0  0  0  0  0  0
  -18.3130  -26.7000   21.8930 C   0  0  0  0  0  2  0  0  0  0  0  0
  -19.2250  -28.7490   23.1320 C   0  0  0  0  0  0  0  0  0  0  0  0
  -18.9880  -29.9640   23.8110 C   0  0  0  0  0  3  0  0  0  0  0  0
  -17.6760  -30.4270   24.0210 C   0  0  0  0  0  3  0  0  0  0  0  0
  -16.5810  -29.6710   23.5640 C   0  0  0  0  0  3  0  0  0  0  0  0
  -16.8040  -28.4580   22.8890 C   0  0  0  0  0  3  0  0  0  0  0  0
  -25.8760  -32.5260   23.8380 C   0  0  0  0  0  3  0  0  0  0  0  0
  -26.3750  -31.7250   25.1050 C   0  0  1  0  0  0  0  0  0  0  0  0
  -25.2640  -31.4560   26.1470 C   0  0  0  0  0  1  0  0  0  0  0  0
  -26.9730  -30.3610   24.6910 C   0  0  0  0  0  1  0  0  0  0  0  0
  -27.5080  -32.5090   25.8060 C   0  0  0  0  0  1  0  0  0  0  0  0
  -25.5540  -33.9140   24.2020 N   0  0  0  0  0  0  0  0  0  0  0  0
  -25.8460  -34.9860   23.4540 C   0  0  0  0  0  0  0  0  0  0  0  0
  -26.4840  -34.9130   22.4010 O   0  0  0  0  0  0  0  0  0  0  0  0
  -24.9790  -34.0440   25.0230 H   0  0  0  0  0  0  0  0  0  0  0  0
  -24.0550  -36.7400   23.2240 C   0  0  0  0  0  1  0  0  0  0  0  0
  -25.3540  -36.3590   23.9550 C   0  0  0  0  0  3  0  0  0  0  0  0
  -27.5060  -37.2970   24.6730 C   0  0  0  0  0  1  0  0  0  0  0  0
  -26.3520  -37.4380   23.7890 N   0  0  0  0  0  0  0  0  0  0  0  0
  -25.9300  -38.3470   23.9600 H   0  0  0  0  0  0  0  0  0  0  0  0
  -29.4660  -20.9510   19.4770 C   0  0  0  0  0  2  0  0  0  0  0  0
  -30.4390  -20.4390   21.6960 C   0  0  0  0  0  1  0  0  0  0  0  0
  -29.6760  -19.8630   20.5630 N   0  0  2  0  0  4  0  0  0  0  0  0
  -28.7610  -19.6830   20.9460 H   0  0  0  0  0  0  0  0  0  0  0  0
  -30.8990  -15.1440   20.0530 C   0  0  0  0  0  0  0  0  0  0  0  0
  -30.6820  -12.8520   19.0570 C   0  0  0  0  0  2  0  0  0  0  0  0
  -29.7240  -12.9010   17.8460 C   0  0  0  0  0  2  0  0  0  0  0  0
  -28.2610  -12.7340   18.3040 C   0  0  0  0  0  2  0  0  0  0  0  0
  -27.9080  -13.6380   19.5140 C   0  0  0  0  0  3  0  0  0  0  0  0
  -28.9830  -13.5670   20.6190 C   0  0  0  0  0  2  0  0  0  0  0  0
  -30.2660  -13.9190   19.9980 N   0  0  0  0  0  0  0  0  0  0  0  0
  -32.0750  -15.2320   19.6890 O   0  0  0  0  0  0  0  0  0  0  0  0
  -30.6590  -17.4360   21.2770 C   0  0  0  0  0  2  0  0  0  0  0  0
  -29.3420  -17.2640   19.6870 C   0  0  0  0  0  2  0  0  0  0  0  0
  -30.2410  -18.4520   20.1630 C   0  0  0  0  0  3  0  0  0  0  0  0
  -30.1850  -16.2770   20.4570 N   0  0  0  0  0  0  0  0  0  0  0  0
  -25.5420  -14.2510   20.2850 C   0  0  0  0  0  0  0  0  0  0  0  0
  -24.4760  -13.4870   20.6750 C   0  0  0  0  0  0  0  0  0  0  0  0
  -24.9270  -12.1320   20.6410 C   0  0  0  0  0  0  0  0  0  0  0  0
  -26.5720  -13.3610   20.0310 N   0  0  0  0  0  0  0  0  0  0  0  0
  -26.2110  -12.0820   20.3090 N   0  0  0  0  0  0  0  0  0  0  0  0
  -24.1920  -10.8770   20.8480 C   0  0  0  0  0  0  0  0  0  0  0  0
  -24.5800   -9.9470   21.8370 C   0  0  0  0  0  3  0  0  0  0  0  0
  -23.8440   -8.7580   22.0280 C   0  0  0  0  0  3  0  0  0  0  0  0
  -22.7080   -8.4890   21.2290 C   0  0  0  0  0  0  0  0  0  0  0  0
  -22.3400   -9.4080   20.2300 C   0  0  0  0  0  3  0  0  0  0  0  0
  -23.0760  -10.5890   20.0380 C   0  0  0  0  0  3  0  0  0  0  0  0
  -21.9500   -7.3470   21.3260 O   0  0  0  0  0  0  0  0  0  0  0  0
  -21.7890   -6.6890   22.5190 C   0  0  0  0  0  0  0  0  0  0  0  0
  -21.2170   -7.3180   23.6460 C   0  0  0  0  0  3  0  0  0  0  0  0
  -21.0060   -6.5840   24.8300 C   0  0  0  0  0  3  0  0  0  0  0  0
  -21.3590   -5.2220   24.8880 C   0  0  0  0  0  0  0  0  0  0  0  0
  -21.9260   -4.5930   23.7660 C   0  0  0  0  0  3  0  0  0  0  0  0
  -22.1370   -5.3240   22.5840 C   0  0  0  0  0  0  0  0  0  0  0  0
  -22.6630   -4.7080   21.4980 F   0  0  0  0  0  0  0  0  0  0  0  0
  -21.1500   -4.5140   26.0240 F   0  0  0  0  0  0  0  0  0  0  0  0
  -23.0890  -13.9800   20.9690 C   0  0  0  0  0  0  0  0  0  0  0  0
  -22.3660  -13.2940   21.8470 N   0  0  0  0  0  0  0  0  0  0  0  0
  -22.6550  -15.0100   20.4540 O   0  0  0  0  0  0  0  0  0  0  0  0
  -22.7300  -12.4590   22.2830 H   0  0  0  0  0  0  0  0  0  0  0  0
  -21.4380  -13.6100   22.0870 H   0  0  0  0  0  0  0  0  0  0  0  0
  -25.7150  -15.6190   20.1010 N   0  0  0  0  0  0  0  0  0  0  0  0
  -24.9530  -16.2790   20.2110 H   0  0  0  0  0  0  0  0  0  0  0  0
  -26.5580  -16.0410   19.7340 H   0  0  0  0  0  0  0  0  0  0  0  0
  1  5  1  0
  2  3  1  0
  2  1  2  0
  3  8  1  0
  3  6  1  0
  4  9  1  0
  4  5  2  0
  4  6  2  0
  8  7  1  0
  9 11  1  0
 10 21  2  0
 11 16  1  0
 12 20  1  0
 12 22  1  0
 13 19  1  0
 13 15  1  0
 14 20  1  0
 15 14  1  0
 16 15  2  0
 17 18  1  0
 17 11  2  0
 18 13  2  0
 19 12  1  0
 20 10  1  0
 22 24  2  0
 23 22  1  0
 25 23  1  0
 26 35  2  0
 26 31  1  0
 27 23  1  0
 27 31  1  0
 28 27  1  0
 29 30  1  0
 29 28  1  0
 30 26  1  0
 31 32  2  0
 32 33  1  0
 34 33  2  0
 35 34  1  0
 36 10  1  0
 36 41  1  0
 36 37  1  0
 37 40  1  1
 37 38  1  0
 39 37  1  0
 41 44  1  0
 42 46  1  0
 42 41  1  0
 43 42  2  0
 46 45  1  0
 48 46  1  0
 48 49  1  0
 48 47  1  0
 50  2  1  0
 50 52  1  0
 52 53  1  1
 52 51  1  0
 54 65  1  0
 55 60  1  0
 56 57  1  0
 56 55  1  0
 58 57  1  0
 58 69  1  0
 58 59  1  0
 60 54  1  0
 60 59  1  0
 61 54  2  0
 63 64  1  0
 63 65  1  0
 64 52  1  0
 64 62  1  0
 65 62  1  0
 66 67  2  0
 67 86  1  0
 68 67  1  0
 68 71  1  0
 69 66  1  0
 69 70  1  0
 70 68  2  0
 71 72  1  0
 72 73  2  0
 74 77  1  0
 74 73  1  0
 75 74  2  0
 76 75  1  0
 76 71  2  0
 77 78  1  0
 78 83  2  0
 78 79  1  0
 79 80  2  0
 80 81  1  0
 81 85  1  0
 82 81  2  0
 83 82  1  0
 84 83  1  0
 86 87  1  0
 87 90  1  0
 87 89  1  0
 88 86  2  0
 91 92  1  0
 91 66  1  0
 93 91  1  0
M  ISO  4   4 101   9 101  54 100  65 100
M  END
>  <TORSDO>  (6) 
F 19

>  <SCORE>  (6) 
-12.632

>  <name>  (6) 
5

>  <ligand_id>  (6) 
5

>  <original_smiles>  (6) 
[H]c1nc(Oc2c([H])c([H])c3c(c2[H])C([H])([H])N(C(=O)C([H])(N([H])C(=O)C([H])(N([H])C([H])([H])[H])C([H])([H])[H])C(C([H])([H])[H])(C([H])([H])[H])C([H])([H])[H])C([H])(C(=O)N([H])C2([H])c4c([H])c([H])c([H])c([H])c4C([H])([H])C([H])([H])C2([H])[H])C3([H])[H])nc(C([H])([H])C([H])([H])[H])c1C([H])([H])[N+]([H])(C([H])([H])[H])C1([H])C([H])([H])N(C(=O)N2C([H])([H])C([H])([H])C([H])([H])C([H])(n3nc(-c4c([H])c([H])c(Oc5c([H])c([H])c(F)c([H])c5F)c([H])c4[H])c(C(=O)N([H])[H])c3N([H])[H])C2([H])[H])C1([H])[H]

>  <smiles>  (6) 
[H]c1nc(Oc2c([H])c([H])c3c(c2[H])C([H])([H])N(C(=O)C([H])(N([H])C(=O)C([H])(N([H])C([H])([H])[H])C([H])([H])[H])C(C([H])([H])[H])(C([H])([H])[H])C([H])([H])[H])C([H])(C(=O)N([H])C2([H])c4c([H])c([H])c([H])c([H])c4C([H])([H])C([H])([H])C2([H])[H])C3([H])[H])nc(C([H])([H])C([H])([H])[H])c1C([H])([H])[N+]([H])(C([H])([H])[H])C1([H])C([H])([H])N(C(=O)N2C([H])([H])C([H])([H])C([H])([H])C([H])(n3nc(-c4c([H])c([H])c(Oc5c([H])c([H])c(F)c([H])c5F)c([H])c4[H])c(C(=O)N([H])[H])c3N([H])[H])C2([H])[H])C1([H])[H]

$$$$
6:0:0
     RDKit          3D

 93101  0  0  1  0  0  0  0  0999 V2000
  -28.9080  -21.6530   20.8550 C   0  0  0  0  0  2  0  0  0  0  0  0
  -29.1830  -23.1360   20.8570 N   0  0  0  0  0  4  0  0  0  0  0  0
  -29.3410  -23.3770   21.8230 H   0  0  0  0  0  0  0  0  0  0  0  0
  -30.0600  -23.2940   20.3830 H   0  0  0  0  0  0  0  0  0  0  0  0
  -28.1930  -24.1290   20.3060 C   0  0  0  0  0  2  0  0  0  0  0  0
  -28.3300  -25.5520   20.9690 C   0  0  0  0  0  2  0  0  0  0  0  0
  -28.2910  -26.7300   20.1220 O   0  0  0  0  0  0  0  0  0  0  0  0
  -24.4950  -31.9650   23.2500 C   0  0  0  0  0  0  0  0  0  0  0  0
  -27.1410  -27.4980   20.1700 C   0  0  0  0  0  0  0  0  0  0  0  0
  -23.2970  -30.5680   21.6010 C   0  0  0  0  0  3  0  0  0  0  0  0
  -24.7570  -29.0310   20.1760 C   0  0  0  0  0  0  0  0  0  0  0  0
  -25.8280  -30.9180   21.4170 C   0  0  0  0  0  2  0  0  0  0  0  0
  -25.9170  -29.5480   20.7680 C   0  0  0  0  0  0  0  0  0  0  0  0
  -27.1170  -28.7930   20.7510 C   0  0  0  0  0  3  0  0  0  0  0  0
  -25.9660  -27.0020   19.5750 C   0  0  0  0  0  3  0  0  0  0  0  0
  -24.7780  -27.7590   19.5760 C   0  0  0  0  0  3  0  0  0  0  0  0
  -23.5140  -29.8940   20.2190 C   0  0  0  0  0  2  0  0  0  0  0  0
  -24.5580  -31.1660   22.1470 N   0  0  0  0  0  0  0  0  0  0  0  0
  -23.4110  -32.2340   23.7890 O   0  0  0  0  0  0  0  0  0  0  0  0
  -22.6420  -29.5420   22.5550 C   0  0  0  0  0  0  0  0  0  0  0  0
  -21.3170  -29.3600   22.4260 N   0  0  0  0  0  0  0  0  0  0  0  0
  -23.3260  -28.9120   23.3670 O   0  0  0  0  0  0  0  0  0  0  0  0
  -20.8230  -29.9240   21.7480 H   0  0  0  0  0  0  0  0  0  0  0  0
  -17.9430  -28.1680   22.9230 C   0  0  0  0  0  0  0  0  0  0  0  0
  -20.5030  -28.4170   23.1910 C   0  0  0  0  0  3  0  0  0  0  0  0
  -20.5980  -26.9890   22.6040 C   0  0  0  0  0  2  0  0  0  0  0  0
  -19.4950  -26.6790   21.5860 C   0  0  0  0  0  2  0  0  0  0  0  0
  -18.1150  -26.8230   22.2350 C   0  0  0  0  0  2  0  0  0  0  0  0
  -19.0650  -28.9220   23.3580 C   0  0  0  0  0  0  0  0  0  0  0  0
  -18.8500  -30.1800   23.9610 C   0  0  0  0  0  3  0  0  0  0  0  0
  -17.5480  -30.6860   24.1330 C   0  0  0  0  0  3  0  0  0  0  0  0
  -16.4400  -29.9280   23.7160 C   0  0  0  0  0  3  0  0  0  0  0  0
  -16.6390  -28.6690   23.1180 C   0  0  0  0  0  3  0  0  0  0  0  0
  -25.7780  -32.5970   23.8760 C   0  0  0  0  0  3  0  0  0  0  0  0
  -26.2870  -31.8350   25.1610 C   0  0  1  0  0  0  0  0  0  0  0  0
  -25.1870  -31.6020   26.2230 C   0  0  0  0  0  1  0  0  0  0  0  0
  -26.8750  -30.4570   24.7790 C   0  0  0  0  0  1  0  0  0  0  0  0
  -27.4330  -32.6350   25.8240 C   0  0  0  0  0  1  0  0  0  0  0  0
  -25.4680  -33.9990   24.1950 N   0  0  0  0  0  0  0  0  0  0  0  0
  -25.8170  -35.0460   23.4370 C   0  0  0  0  0  0  0  0  0  0  0  0
  -26.4980  -34.9340   22.4150 O   0  0  0  0  0  0  0  0  0  0  0  0
  -24.8660  -34.1600   24.9880 H   0  0  0  0  0  0  0  0  0  0  0  0
  -24.1130  -36.8500   23.0410 C   0  0  0  0  0  1  0  0  0  0  0  0
  -25.3310  -36.4380   23.8830 C   0  0  0  0  0  3  0  0  0  0  0  0
  -27.4470  -37.3080   24.7690 C   0  0  0  0  0  1  0  0  0  0  0  0
  -26.3740  -37.4820   23.7940 N   0  0  0  0  0  0  0  0  0  0  0  0
  -25.9720  -38.4070   23.9260 H   0  0  0  0  0  0  0  0  0  0  0  0
  -30.5510  -20.8250   19.0510 C   0  0  0  0  0  1  0  0  0  0  0  0
  -30.2100  -20.8200   20.5530 C   0  0  0  0  0  3  0  0  0  0  0  0
  -30.5690  -14.6760   20.2730 C   0  0  0  0  0  0  0  0  0  0  0  0
  -30.2990  -12.4750   19.1680 C   0  0  0  0  0  2  0  0  0  0  0  0
  -29.3140  -12.5960   17.9860 C   0  0  0  0  0  2  0  0  0  0  0  0
  -27.8580  -12.4250   18.4690 C   0  0  0  0  0  2  0  0  0  0  0  0
  -27.5300  -13.2990   19.7090 C   0  0  0  0  0  3  0  0  0  0  0  0
  -28.6230  -13.1570   20.7920 C   0  0  0  0  0  2  0  0  0  0  0  0
  -29.9110  -13.4850   20.1660 N   0  0  0  0  0  0  0  0  0  0  0  0
  -31.7300  -14.8140   19.8780 O   0  0  0  0  0  0  0  0  0  0  0  0
  -31.3390  -19.2730   22.2290 C   0  0  0  0  0  3  0  0  0  0  0  0
  -31.2580  -16.9840   22.1060 C   0  0  0  0  0  3  0  0  0  0  0  0
  -30.4080  -19.3950   21.1650 C   0  0  0  0  0  0  0  0  0  0  0  0
  -30.2980  -17.0330   21.0620 C   0  0  0  0  0  0  0  0  0  0  0  0
  -31.7630  -18.0830   22.7020 N   0  0  0  0  0  0  0  0  0  0  0  0
  -29.8530  -18.2630   20.6090 N   0  0  0  0  0  0  0  0  0  0  0  0
  -29.8120  -15.7620   20.5980 N   0  0  0  0  0  0  0  0  0  0  0  0
  -28.8140  -15.6320   20.6260 H   0  0  0  0  0  0  0  0  0  0  0  0
  -25.1570  -13.8840   20.5150 C   0  0  0  0  0  0  0  0  0  0  0  0
  -24.1040  -13.1000   20.9030 C   0  0  0  0  0  0  0  0  0  0  0  0
  -24.5710  -11.7520   20.8450 C   0  0  0  0  0  0  0  0  0  0  0  0
  -26.1980  -13.0110   20.2380 N   0  0  0  0  0  0  0  0  0  0  0  0
  -25.8510  -11.7240   20.4960 N   0  0  0  0  0  0  0  0  0  0  0  0
  -23.8560  -10.4850   21.0430 C   0  0  0  0  0  0  0  0  0  0  0  0
  -24.3040   -9.5240   21.9760 C   0  0  0  0  0  3  0  0  0  0  0  0
  -23.5930   -8.3180   22.1590 C   0  0  0  0  0  3  0  0  0  0  0  0
  -22.4190   -8.0650   21.4100 C   0  0  0  0  0  0  0  0  0  0  0  0
  -21.9900   -9.0160   20.4650 C   0  0  0  0  0  3  0  0  0  0  0  0
  -22.7020  -10.2130   20.2820 C   0  0  0  0  0  3  0  0  0  0  0  0
  -21.6780   -6.9120   21.5020 O   0  0  0  0  0  0  0  0  0  0  0  0
  -21.6370   -6.1740   22.6570 C   0  0  0  0  0  0  0  0  0  0  0  0
  -21.1760   -6.7230   23.8740 C   0  0  0  0  0  3  0  0  0  0  0  0
  -21.0830   -5.9100   25.0220 C   0  0  0  0  0  3  0  0  0  0  0  0
  -21.4380   -4.5510   24.9540 C   0  0  0  0  0  0  0  0  0  0  0  0
  -21.8910   -4.0010   23.7410 C   0  0  0  0  0  3  0  0  0  0  0  0
  -21.9860   -4.8090   22.5960 C   0  0  0  0  0  0  0  0  0  0  0  0
  -22.4030   -4.2700   21.4260 F   0  0  0  0  0  0  0  0  0  0  0  0
  -21.3410   -3.7700   26.0540 F   0  0  0  0  0  0  0  0  0  0  0  0
  -22.7130  -13.5680   21.2190 C   0  0  0  0  0  0  0  0  0  0  0  0
  -22.0060  -12.8570   22.0900 N   0  0  0  0  0  0  0  0  0  0  0  0
  -22.2600  -14.6020   20.7280 O   0  0  0  0  0  0  0  0  0  0  0  0
  -22.3840  -12.0240   22.5150 H   0  0  0  0  0  0  0  0  0  0  0  0
  -21.0750  -13.1590   22.3400 H   0  0  0  0  0  0  0  0  0  0  0  0
  -25.3080  -15.2580   20.3540 N   0  0  0  0  0  0  0  0  0  0  0  0
  -24.5360  -15.9000   20.5020 H   0  0  0  0  0  0  0  0  0  0  0  0
  -26.1330  -15.7150   19.9870 H   0  0  0  0  0  0  0  0  0  0  0  0
  1  2  1  0
  2  3  1  0
  4  2  1  0
  5  2  1  0
  5  6  1  0
  7  9  1  0
  7  6  1  0
  8 19  2  0
  9 14  1  0
 10 18  1  0
 10 20  1  0
 11 17  1  0
 11 13  1  0
 12 18  1  0
 13 12  1  0
 14 13  2  0
 15 16  1  0
 15  9  2  0
 16 11  2  0
 17 10  1  0
 18  8  1  0
 20 22  2  0
 21 20  1  0
 23 21  1  0
 24 33  2  0
 24 29  1  0
 25 21  1  0
 25 29  1  0
 26 25  1  0
 27 28  1  0
 27 26  1  0
 28 24  1  0
 29 30  2  0
 30 31  1  0
 32 31  2  0
 33 32  1  0
 34  8  1  0
 34 39  1  0
 34 35  1  0
 35 38  1  1
 35 36  1  0
 37 35  1  0
 39 42  1  0
 40 44  1  0
 40 39  1  0
 41 40  2  0
 44 43  1  0
 46 44  1  0
 46 47  1  0
 46 45  1  0
 49 48  1  0
 49  1  1  0
 49 60  1  0
 50 64  1  0
 51 56  1  0
 52 53  1  0
 52 51  1  0
 54 53  1  0
 54 69  1  0
 54 55  1  0
 56 50  1  0
 56 55  1  0
 57 50  2  0
 58 62  1  0
 59 62  2  0
 60 58  2  0
 61 59  1  0
 63 61  2  0
 63 60  1  0
 64 65  1  0
 64 61  1  0
 66 67  2  0
 67 86  1  0
 68 67  1  0
 68 71  1  0
 69 70  1  0
 69 66  1  0
 70 68  2  0
 71 72  1  0
 72 73  2  0
 74 77  1  0
 74 73  1  0
 75 74  2  0
 76 75  1  0
 76 71  2  0
 77 78  1  0
 78 79  1  0
 79 80  2  0
 81 80  1  0
 81 85  1  0
 82 81  2  0
 83 78  2  0
 83 82  1  0
 84 83  1  0
 86 87  1  0
 87 90  1  0
 87 89  1  0
 88 86  2  0
 91 92  1  0
 91 66  1  0
 93 91  1  0
M  ISO  4   6 101   7 101  50 100  64 100
M  END
>  <TORSDO>  (7) 
F 20

>  <SCORE>  (7) 
-13.273

>  <name>  (7) 
6

>  <ligand_id>  (7) 
6

>  <original_smiles>  (7) 
[H]c1nc([H])c(C([H])(C([H])([H])[H])C([H])([H])[N+]([H])([H])C([H])([H])C([H])([H])Oc2c([H])c([H])c3c(c2[H])C([H])([H])N(C(=O)C([H])(N([H])C(=O)C([H])(N([H])C([H])([H])[H])C([H])([H])[H])C(C([H])([H])[H])(C([H])([H])[H])C([H])([H])[H])C([H])(C(=O)N([H])C2([H])c4c([H])c([H])c([H])c([H])c4C([H])([H])C([H])([H])C2([H])[H])C3([H])[H])nc1N([H])C(=O)N1C([H])([H])C([H])([H])C([H])([H])C([H])(n2nc(-c3c([H])c([H])c(Oc4c([H])c([H])c(F)c([H])c4F)c([H])c3[H])c(C(=O)N([H])[H])c2N([H])[H])C1([H])[H]

>  <smiles>  (7) 
[H]c1nc([H])c(C([H])(C([H])([H])[H])C([H])([H])[N+]([H])([H])C([H])([H])C([H])([H])Oc2c([H])c([H])c3c(c2[H])C([H])([H])N(C(=O)C([H])(N([H])C(=O)C([H])(N([H])C([H])([H])[H])C([H])([H])[H])C(C([H])([H])[H])(C([H])([H])[H])C([H])([H])[H])C([H])(C(=O)N([H])C2([H])c4c([H])c([H])c([H])c([H])c4C([H])([H])C([H])([H])C2([H])[H])C3([H])[H])nc1N([H])C(=O)N1C([H])([H])C([H])([H])C([H])([H])C([H])(n2nc(-c3c([H])c([H])c(Oc4c([H])c([H])c(F)c([H])c4F)c([H])c3[H])c(C(=O)N([H])[H])c2N([H])[H])C1([H])[H]

$$$$
7:0:0
     RDKit          3D

 93102  0  0  1  0  0  0  0  0999 V2000
  -30.5900  -14.7640   20.4610 C   0  0  0  0  0  0  0  0  0  0  0  0
  -30.3910  -12.4930   19.4330 C   0  0  0  0  0  2  0  0  0  0  0  0
  -29.4770  -12.5730   18.1910 C   0  0  0  0  0  2  0  0  0  0  0  0
  -27.9990  -12.4050   18.5940 C   0  0  0  0  0  2  0  0  0  0  0  0
  -27.6060  -13.2990   19.8020 C   0  0  0  0  0  3  0  0  0  0  0  0
  -28.6400  -13.2040   20.9430 C   0  0  0  0  0  2  0  0  0  0  0  0
  -29.9490  -13.5470   20.3740 N   0  0  0  0  0  0  0  0  0  0  0  0
  -31.7910  -14.8260   20.1750 O   0  0  0  0  0  0  0  0  0  0  0  0
  -29.2270  -18.4120   20.4470 C   0  0  0  0  0  3  0  0  0  0  0  0
  -31.7400  -18.9960   21.2880 C   0  0  0  0  0  3  0  0  0  0  0  0
  -29.5690  -19.8240   20.5660 C   0  0  0  0  0  0  0  0  0  0  0  0
  -30.8790  -20.0780   21.0180 C   0  0  0  0  0  0  0  0  0  0  0  0
  -30.1650  -17.3380   20.7280 C   0  0  0  0  0  0  0  0  0  0  0  0
  -31.3870  -21.5060   21.1880 C   0  0  0  0  0  2  0  0  0  0  0  0
  -30.2770  -22.5670   21.3550 C   0  0  0  0  0  2  0  0  0  0  0  0
  -28.6200  -21.0670   20.2350 C   0  0  0  0  0  3  0  0  0  0  0  0
  -27.9180  -20.8210   18.8850 C   0  0  0  0  0  1  0  0  0  0  0  0
  -31.3990  -17.6970   21.1510 N   0  0  0  0  0  0  0  0  0  0  0  0
  -29.8070  -15.9040   20.6130 N   0  0  0  0  0  0  0  0  0  0  0  0
  -29.2840  -22.4620   20.2600 N   0  0  1  0  0  4  0  0  0  0  0  0
  -28.8190  -15.7160   20.6480 H   0  0  0  0  0  0  0  0  0  0  0  0
  -29.9030  -22.3690   19.4700 H   0  0  0  0  0  0  0  0  0  0  0  0
  -25.2050  -13.9080   20.4660 C   0  0  0  0  0  0  0  0  0  0  0  0
  -24.1300  -13.1410   20.8250 C   0  0  0  0  0  0  0  0  0  0  0  0
  -24.5920  -11.7880   20.8270 C   0  0  0  0  0  0  0  0  0  0  0  0
  -26.2520  -13.0220   20.2680 N   0  0  0  0  0  0  0  0  0  0  0  0
  -25.8890  -11.7440   20.5480 N   0  0  0  0  0  0  0  0  0  0  0  0
  -23.8600  -10.5300   21.0190 C   0  0  0  0  0  0  0  0  0  0  0  0
  -24.2780   -9.5690   21.9670 C   0  0  0  0  0  3  0  0  0  0  0  0
  -23.5450   -8.3760   22.1480 C   0  0  0  0  0  3  0  0  0  0  0  0
  -22.3810   -8.1350   21.3800 C   0  0  0  0  0  0  0  0  0  0  0  0
  -21.9820   -9.0850   20.4240 C   0  0  0  0  0  3  0  0  0  0  0  0
  -22.7140  -10.2690   20.2410 C   0  0  0  0  0  3  0  0  0  0  0  0
  -21.6230   -6.9930   21.4680 O   0  0  0  0  0  0  0  0  0  0  0  0
  -21.5660   -6.2550   22.6230 C   0  0  0  0  0  0  0  0  0  0  0  0
  -21.1400   -6.8190   23.8460 C   0  0  0  0  0  3  0  0  0  0  0  0
  -21.0290   -6.0080   24.9940 C   0  0  0  0  0  3  0  0  0  0  0  0
  -21.3300   -4.6360   24.9190 C   0  0  0  0  0  0  0  0  0  0  0  0
  -21.7490   -4.0710   23.7000 C   0  0  0  0  0  3  0  0  0  0  0  0
  -21.8610   -4.8790   22.5550 C   0  0  0  0  0  0  0  0  0  0  0  0
  -22.2430   -4.3260   21.3780 F   0  0  0  0  0  0  0  0  0  0  0  0
  -21.2150   -3.8540   26.0190 F   0  0  0  0  0  0  0  0  0  0  0  0
  -22.7280  -13.6240   21.0540 C   0  0  0  0  0  0  0  0  0  0  0  0
  -21.9780  -12.9450   21.9160 N   0  0  0  0  0  0  0  0  0  0  0  0
  -22.3030  -14.6390   20.5030 O   0  0  0  0  0  0  0  0  0  0  0  0
  -22.3310  -12.1230   22.3820 H   0  0  0  0  0  0  0  0  0  0  0  0
  -21.0370  -13.2540   22.1130 H   0  0  0  0  0  0  0  0  0  0  0  0
  -25.3720  -15.2750   20.2670 N   0  0  0  0  0  0  0  0  0  0  0  0
  -24.5930  -15.9210   20.3350 H   0  0  0  0  0  0  0  0  0  0  0  0
  -26.2080  -15.7060   19.8970 H   0  0  0  0  0  0  0  0  0  0  0  0
  -28.5080  -23.7610   19.8690 C   0  0  0  0  0  2  0  0  0  0  0  0
  -28.4260  -25.0910   20.8010 C   0  0  0  0  0  2  0  0  0  0  0  0
  -28.4500  -26.4850   20.2400 O   0  0  0  0  0  0  0  0  0  0  0  0
  -24.6360  -31.8990   23.2470 C   0  0  0  0  0  0  0  0  0  0  0  0
  -27.3110  -27.3120   20.2580 C   0  0  0  0  0  0  0  0  0  0  0  0
  -23.4590  -30.4800   21.6050 C   0  0  0  0  0  3  0  0  0  0  0  0
  -24.9350  -28.9210   20.2080 C   0  0  0  0  0  0  0  0  0  0  0  0
  -25.9970  -30.8120   21.4410 C   0  0  0  0  0  2  0  0  0  0  0  0
  -26.0960  -29.4230   20.8070 C   0  0  0  0  0  0  0  0  0  0  0  0
  -27.2890  -28.6360   20.8110 C   0  0  0  0  0  3  0  0  0  0  0  0
  -26.1240  -26.8580   19.6460 C   0  0  0  0  0  3  0  0  0  0  0  0
  -24.9520  -27.6460   19.6150 C   0  0  0  0  0  3  0  0  0  0  0  0
  -23.6910  -29.7920   20.2330 C   0  0  0  0  0  2  0  0  0  0  0  0
  -24.7160  -31.0830   22.1550 N   0  0  0  0  0  0  0  0  0  0  0  0
  -23.5460  -32.1730   23.7710 O   0  0  0  0  0  0  0  0  0  0  0  0
  -22.7930  -29.4680   22.5680 C   0  0  0  0  0  0  0  0  0  0  0  0
  -21.4670  -29.2930   22.4420 N   0  0  0  0  0  0  0  0  0  0  0  0
  -23.4700  -28.8420   23.3880 O   0  0  0  0  0  0  0  0  0  0  0  0
  -20.9820  -29.8500   21.7530 H   0  0  0  0  0  0  0  0  0  0  0  0
  -18.0830  -28.1110   22.9420 C   0  0  0  0  0  0  0  0  0  0  0  0
  -20.6440  -28.3550   23.2080 C   0  0  0  0  0  3  0  0  0  0  0  0
  -20.7360  -26.9270   22.6250 C   0  0  0  0  0  2  0  0  0  0  0  0
  -19.6300  -26.6150   21.6110 C   0  0  0  0  0  2  0  0  0  0  0  0
  -18.2510  -26.7640   22.2590 C   0  0  0  0  0  2  0  0  0  0  0  0
  -19.2060  -28.8660   23.3720 C   0  0  0  0  0  0  0  0  0  0  0  0
  -18.9960  -30.1270   23.9700 C   0  0  0  0  0  3  0  0  0  0  0  0
  -17.6950  -30.6350   24.1420 C   0  0  0  0  0  3  0  0  0  0  0  0
  -16.5860  -29.8770   23.7290 C   0  0  0  0  0  3  0  0  0  0  0  0
  -16.7800  -28.6170   23.1350 C   0  0  0  0  0  3  0  0  0  0  0  0
  -25.9070  -32.5460   23.8800 C   0  0  0  0  0  3  0  0  0  0  0  0
  -25.5850  -33.9430   24.2050 N   0  0  0  0  0  0  0  0  0  0  0  0
  -25.9090  -34.9960   23.4460 C   0  0  0  0  0  0  0  0  0  0  0  0
  -26.5820  -34.8960   22.4170 O   0  0  0  0  0  0  0  0  0  0  0  0
  -24.9850  -34.0920   25.0050 H   0  0  0  0  0  0  0  0  0  0  0  0
  -24.1630  -36.7700   23.0850 C   0  0  0  0  0  1  0  0  0  0  0  0
  -25.4080  -36.3810   23.8980 C   0  0  0  0  0  3  0  0  0  0  0  0
  -27.5330  -37.2910   24.7250 C   0  0  0  0  0  1  0  0  0  0  0  0
  -26.4290  -37.4450   23.7810 N   0  0  0  0  0  0  0  0  0  0  0  0
  -26.0140  -38.3610   23.9270 H   0  0  0  0  0  0  0  0  0  0  0  0
  -26.4150  -31.7840   25.1670 C   0  0  1  0  0  0  0  0  0  0  0  0
  -25.3120  -31.5420   26.2240 C   0  0  0  0  0  1  0  0  0  0  0  0
  -27.0120  -30.4100   24.7830 C   0  0  0  0  0  1  0  0  0  0  0  0
  -27.5540  -32.5860   25.8370 C   0  0  0  0  0  1  0  0  0  0  0  0
  1 19  1  0
  2  7  1  0
  3  4  1  0
  3  2  1  0
  5  4  1  0
  5 26  1  0
  5  6  1  0
  7  1  1  0
  7  6  1  0
  8  1  2  0
  9 11  2  0
  9 13  1  0
 11 12  1  0
 12 14  1  0
 12 10  2  0
 13 18  2  0
 14 15  1  0
 16 17  1  0
 16 20  1  0
 16 11  1  0
 18 10  1  0
 19 21  1  0
 19 13  1  0
 20 15  1  0
 20 22  1  6
 23 24  2  0
 24 25  1  0
 24 43  1  0
 25 28  1  0
 26 23  1  0
 26 27  1  0
 27 25  2  0
 28 29  1  0
 29 30  2  0
 31 34  1  0
 31 30  1  0
 32 31  2  0
 33 32  1  0
 33 28  2  0
 34 35  1  0
 35 36  1  0
 36 37  2  0
 38 37  1  0
 38 42  1  0
 39 38  2  0
 40 35  2  0
 40 39  1  0
 41 40  1  0
 43 44  1  0
 44 47  1  0
 44 46  1  0
 45 43  2  0
 48 49  1  0
 48 23  1  0
 50 48  1  0
 51 20  1  0
 51 52  1  0
 53 55  1  0
 53 52  1  0
 54 65  2  0
 55 60  1  0
 56 64  1  0
 56 66  1  0
 57 63  1  0
 57 59  1  0
 58 64  1  0
 59 60  2  0
 59 58  1  0
 61 55  2  0
 62 61  1  0
 62 57  2  0
 63 56  1  0
 64 54  1  0
 66 68  2  0
 67 66  1  0
 69 67  1  0
 70 79  2  0
 70 75  1  0
 71 67  1  0
 71 75  1  0
 72 71  1  0
 73 74  1  0
 73 72  1  0
 74 70  1  0
 75 76  2  0
 76 77  1  0
 78 77  2  0
 79 78  1  0
 80 54  1  0
 80 81  1  0
 80 90  1  0
 81 84  1  0
 82 86  1  0
 82 81  1  0
 83 82  2  0
 86 85  1  0
 88 86  1  0
 88 89  1  0
 88 87  1  0
 90 93  1  1
 90 91  1  0
 92 90  1  0
M  ISO  4   1 100  19 100  52 101  53 101
M  END
>  <TORSDO>  (8) 
F 17

>  <SCORE>  (8) 
-15.448

>  <name>  (8) 
7

>  <ligand_id>  (8) 
7

>  <original_smiles>  (8) 
[H]c1nc(N([H])C(=O)N2C([H])([H])C([H])([H])C([H])([H])C([H])(n3nc(-c4c([H])c([H])c(Oc5c([H])c([H])c(F)c([H])c5F)c([H])c4[H])c(C(=O)N([H])[H])c3N([H])[H])C2([H])[H])c([H])c2c1C([H])([H])C([H])([H])[N+]([H])(C([H])([H])C([H])([H])Oc1c([H])c([H])c3c(c1[H])C([H])([H])N(C(=O)C([H])(N([H])C(=O)C([H])(N([H])C([H])([H])[H])C([H])([H])[H])C(C([H])([H])[H])(C([H])([H])[H])C([H])([H])[H])C([H])(C(=O)N([H])C1([H])c4c([H])c([H])c([H])c([H])c4C([H])([H])C([H])([H])C1([H])[H])C3([H])[H])C2([H])C([H])([H])[H]

>  <smiles>  (8) 
[H]c1nc(N([H])C(=O)N2C([H])([H])C([H])([H])C([H])([H])C([H])(n3nc(-c4c([H])c([H])c(Oc5c([H])c([H])c(F)c([H])c5F)c([H])c4[H])c(C(=O)N([H])[H])c3N([H])[H])C2([H])[H])c([H])c2c1C([H])([H])C([H])([H])[N+]([H])(C([H])([H])C([H])([H])Oc1c([H])c([H])c3c(c1[H])C([H])([H])N(C(=O)C([H])(N([H])C(=O)C([H])(N([H])C([H])([H])[H])C([H])([H])[H])C(C([H])([H])[H])(C([H])([H])[H])C([H])([H])[H])C([H])(C(=O)N([H])C1([H])c4c([H])c([H])c([H])c([H])c4C([H])([H])C([H])([H])C1([H])[H])C3([H])[H])C2([H])C([H])([H])[H]

$$$$
8:0:0
     RDKit          3D

 91100  0  0  1  0  0  0  0  0999 V2000
  -28.0000  -20.7790   19.1630 C   0  0  0  0  0  3  0  0  0  0  0  0
  -27.3690  -21.9320   18.6640 C   0  0  0  0  0  0  0  0  0  0  0  0
  -28.8930  -20.9010   20.2280 C   0  0  0  0  0  0  0  0  0  0  0  0
  -28.3660  -23.3130   20.2470 C   0  0  0  0  0  0  0  0  0  0  0  0
  -26.3970  -21.8210   17.5020 C   0  0  0  0  0  1  0  0  0  0  0  0
  -27.5550  -23.1650   19.1960 N   0  0  0  0  0  0  0  0  0  0  0  0
  -29.0420  -22.1950   20.7590 N   0  0  0  0  0  0  0  0  0  0  0  0
  -29.6180  -19.7040   20.6910 N   0  0  0  0  0  0  0  0  0  0  0  0
  -30.3040  -19.9060   21.4090 H   0  0  0  0  0  0  0  0  0  0  0  0
  -30.5990  -14.8750   20.1870 C   0  0  0  0  0  0  0  0  0  0  0  0
  -30.3900  -12.5740   19.1710 C   0  0  0  0  0  2  0  0  0  0  0  0
  -29.4150  -12.6250   17.9730 C   0  0  0  0  0  2  0  0  0  0  0  0
  -27.9610  -12.4220   18.4440 C   0  0  0  0  0  2  0  0  0  0  0  0
  -27.6210  -13.2880   19.6870 C   0  0  0  0  0  3  0  0  0  0  0  0
  -28.7170  -13.2270   20.7720 C   0  0  0  0  0  2  0  0  0  0  0  0
  -29.9720  -13.6350   20.1260 N   0  0  0  0  0  0  0  0  0  0  0  0
  -31.7820  -14.9380   19.8370 O   0  0  0  0  0  0  0  0  0  0  0  0
  -29.8490  -17.2630   19.4380 C   0  0  0  0  0  2  0  0  0  0  0  0
  -30.0900  -17.1300   21.4130 C   0  0  0  0  0  2  0  0  0  0  0  0
  -29.2730  -18.1900   20.5720 C   0  0  0  0  0  3  0  0  0  0  0  0
  -29.8440  -16.0640   20.3720 N   0  0  0  0  0  0  0  0  0  0  0  0
  -25.2700  -13.8530   20.5250 C   0  0  0  0  0  0  0  0  0  0  0  0
  -24.2150  -13.0740   20.9170 C   0  0  0  0  0  0  0  0  0  0  0  0
  -24.6710  -11.7220   20.8360 C   0  0  0  0  0  0  0  0  0  0  0  0
  -26.2990  -12.9790   20.2230 N   0  0  0  0  0  0  0  0  0  0  0  0
  -25.9510  -11.6890   20.4770 N   0  0  0  0  0  0  0  0  0  0  0  0
  -23.9430  -10.4580   21.0180 C   0  0  0  0  0  0  0  0  0  0  0  0
  -24.3680   -9.4930   21.9530 C   0  0  0  0  0  3  0  0  0  0  0  0
  -23.6470   -8.2920   22.1320 C   0  0  0  0  0  3  0  0  0  0  0  0
  -22.4790   -8.0520   21.3690 C   0  0  0  0  0  0  0  0  0  0  0  0
  -22.0700   -9.0090   20.4220 C   0  0  0  0  0  3  0  0  0  0  0  0
  -22.7930  -10.1980   20.2420 C   0  0  0  0  0  3  0  0  0  0  0  0
  -21.7230   -6.9080   21.4570 O   0  0  0  0  0  0  0  0  0  0  0  0
  -21.6320   -6.1940   22.6240 C   0  0  0  0  0  0  0  0  0  0  0  0
  -21.0610   -6.7460   23.7940 C   0  0  0  0  0  3  0  0  0  0  0  0
  -20.9220   -5.9520   24.9510 C   0  0  0  0  0  3  0  0  0  0  0  0
  -21.3420   -4.6070   24.9380 C   0  0  0  0  0  0  0  0  0  0  0  0
  -21.9020   -4.0550   23.7720 C   0  0  0  0  0  3  0  0  0  0  0  0
  -22.0420   -4.8470   22.6180 C   0  0  0  0  0  0  0  0  0  0  0  0
  -22.5650   -4.3010   21.4940 F   0  0  0  0  0  0  0  0  0  0  0  0
  -21.2000   -3.8440   26.0460 F   0  0  0  0  0  0  0  0  0  0  0  0
  -22.8310  -13.5540   21.2530 C   0  0  0  0  0  0  0  0  0  0  0  0
  -22.1210  -12.8370   22.1150 N   0  0  0  0  0  0  0  0  0  0  0  0
  -22.3880  -14.6000   20.7810 O   0  0  0  0  0  0  0  0  0  0  0  0
  -22.4930  -11.9920   22.5270 H   0  0  0  0  0  0  0  0  0  0  0  0
  -21.1910  -13.1420   22.3640 H   0  0  0  0  0  0  0  0  0  0  0  0
  -25.4390  -15.2260   20.3710 N   0  0  0  0  0  0  0  0  0  0  0  0
  -24.6920  -15.8890   20.5410 H   0  0  0  0  0  0  0  0  0  0  0  0
  -26.2970  -15.6650   20.0620 H   0  0  0  0  0  0  0  0  0  0  0  0
  -28.2240  -24.7540   21.0370 C   0  0  0  0  0  2  0  0  0  0  0  0
  -28.4390  -26.1890   20.4950 O   0  0  0  0  0  0  0  0  0  0  0  0
  -24.6460  -31.9010   23.2570 C   0  0  0  0  0  0  0  0  0  0  0  0
  -27.3700  -27.1420   20.4590 C   0  0  0  0  0  0  0  0  0  0  0  0
  -23.5240  -30.4510   21.6100 C   0  0  0  0  0  3  0  0  0  0  0  0
  -25.0370  -28.8450   20.2960 C   0  0  0  0  0  0  0  0  0  0  0  0
  -26.0800  -30.7380   21.5370 C   0  0  0  0  0  2  0  0  0  0  0  0
  -26.1890  -29.3270   20.9300 C   0  0  0  0  0  0  0  0  0  0  0  0
  -27.3620  -28.4920   20.9880 C   0  0  0  0  0  3  0  0  0  0  0  0
  -26.1930  -26.7470   19.7940 C   0  0  0  0  0  3  0  0  0  0  0  0
  -25.0470  -27.5670   19.7140 C   0  0  0  0  0  3  0  0  0  0  0  0
  -23.8050  -29.7340   20.2610 C   0  0  0  0  0  2  0  0  0  0  0  0
  -24.7680  -31.0520   22.1910 N   0  0  0  0  0  0  0  0  0  0  0  0
  -23.5370  -32.1880   23.7350 O   0  0  0  0  0  0  0  0  0  0  0  0
  -22.8130  -29.4640   22.5700 C   0  0  0  0  0  0  0  0  0  0  0  0
  -21.4850  -29.3090   22.4220 N   0  0  0  0  0  0  0  0  0  0  0  0
  -23.4600  -28.8410   23.4150 O   0  0  0  0  0  0  0  0  0  0  0  0
  -21.0150  -29.8640   21.7200 H   0  0  0  0  0  0  0  0  0  0  0  0
  -18.0700  -28.2110   22.9280 C   0  0  0  0  0  0  0  0  0  0  0  0
  -20.6360  -28.3900   23.1880 C   0  0  0  0  0  3  0  0  0  0  0  0
  -20.6870  -26.9590   22.6040 C   0  0  0  0  0  2  0  0  0  0  0  0
  -19.5730  -26.6800   21.5910 C   0  0  0  0  0  2  0  0  0  0  0  0
  -18.2000  -26.8630   22.2410 C   0  0  0  0  0  2  0  0  0  0  0  0
  -19.2130  -28.9350   23.3590 C   0  0  0  0  0  0  0  0  0  0  0  0
  -19.0330  -30.1990   23.9620 C   0  0  0  0  0  3  0  0  0  0  0  0
  -17.7450  -30.7360   24.1440 C   0  0  0  0  0  3  0  0  0  0  0  0
  -16.6170  -30.0070   23.7290 C   0  0  0  0  0  3  0  0  0  0  0  0
  -16.7810  -28.7480   23.1270 C   0  0  0  0  0  3  0  0  0  0  0  0
  -25.8920  -32.5650   23.9170 C   0  0  0  0  0  3  0  0  0  0  0  0
  -25.5530  -33.9680   24.2060 N   0  0  0  0  0  0  0  0  0  0  0  0
  -25.8910  -35.0100   23.4350 C   0  0  0  0  0  0  0  0  0  0  0  0
  -26.5860  -34.8930   22.4210 O   0  0  0  0  0  0  0  0  0  0  0  0
  -24.9410  -34.1290   24.9930 H   0  0  0  0  0  0  0  0  0  0  0  0
  -24.1630  -36.7860   22.9860 C   0  0  0  0  0  1  0  0  0  0  0  0
  -25.3760  -36.4010   23.8490 C   0  0  0  0  0  3  0  0  0  0  0  0
  -27.4620  -37.3340   24.7550 C   0  0  0  0  0  1  0  0  0  0  0  0
  -26.4030  -37.4630   23.7560 N   0  0  0  0  0  0  0  0  0  0  0  0
  -25.9810  -38.3810   23.8590 H   0  0  0  0  0  0  0  0  0  0  0  0
  -26.3600  -31.8320   25.2360 C   0  0  1  0  0  0  0  0  0  0  0  0
  -25.2230  -31.5980   26.2600 C   0  0  0  0  0  1  0  0  0  0  0  0
  -26.9830  -30.4540   24.9090 C   0  0  0  0  0  1  0  0  0  0  0  0
  -27.4680  -32.6580   25.9310 C   0  0  0  0  0  1  0  0  0  0  0  0
  1  3  1  0
  2  1  2  0
  2  6  1  0
  3  8  1  0
  3  7  2  0
  4  7  1  0
  4 50  1  0
  5  2  1  0
  6  4  2  0
  8  9  1  0
 10 21  1  0
 11 16  1  0
 12 13  1  0
 12 11  1  0
 14 13  1  0
 14 25  1  0
 14 15  1  0
 16 10  1  0
 16 15  1  0
 17 10  2  0
 18 21  1  0
 18 20  1  0
 20  8  1  0
 20 19  1  0
 21 19  1  0
 22 23  2  0
 23 42  1  0
 24 23  1  0
 24 27  1  0
 25 26  1  0
 25 22  1  0
 26 24  2  0
 27 28  1  0
 28 29  2  0
 30 33  1  0
 30 29  1  0
 31 30  2  0
 32 31  1  0
 32 27  2  0
 33 34  1  0
 34 35  1  0
 35 36  2  0
 37 36  1  0
 37 41  1  0
 38 37  2  0
 39 34  2  0
 39 38  1  0
 40 39  1  0
 42 43  1  0
 43 46  1  0
 43 45  1  0
 44 42  2  0
 47 22  1  0
 47 48  1  0
 49 47  1  0
 51 50  1  0
 52 63  2  0
 53 51  1  0
 53 58  1  0
 54 62  1  0
 54 64  1  0
 55 57  1  0
 56 62  1  0
 57 58  2  0
 57 56  1  0
 59 53  2  0
 60 59  1  0
 60 55  2  0
 61 55  1  0
 61 54  1  0
 62 52  1  0
 64 66  2  0
 65 64  1  0
 67 65  1  0
 68 77  2  0
 68 73  1  0
 69 65  1  0
 69 73  1  0
 70 69  1  0
 71 72  1  0
 71 70  1  0
 72 68  1  0
 73 74  2  0
 74 75  1  0
 76 75  2  0
 77 76  1  0
 78 52  1  0
 78 79  1  0
 78 88  1  0
 79 82  1  0
 80 84  1  0
 80 79  1  0
 81 80  2  0
 84 83  1  0
 86 84  1  0
 86 87  1  0
 86 85  1  0
 88 91  1  1
 88 89  1  0
 90 88  1  0
M  ISO  4  10 100  21 100  50 101  51 101
M  END
>  <TORSDO>  (9) 
F 17

>  <SCORE>  (9) 
-15.127

>  <name>  (9) 
8

>  <ligand_id>  (9) 
8

>  <original_smiles>  (9) 
[H]c1c(N([H])C2([H])C([H])([H])N(C(=O)N3C([H])([H])C([H])([H])C([H])([H])C([H])(n4nc(-c5c([H])c([H])c(Oc6c([H])c([H])c(F)c([H])c6F)c([H])c5[H])c(C(=O)N([H])[H])c4N([H])[H])C3([H])[H])C2([H])[H])nc(C([H])([H])Oc2c([H])c([H])c3c(c2[H])C([H])([H])N(C(=O)C([H])(N([H])C(=O)C([H])(N([H])C([H])([H])[H])C([H])([H])[H])C(C([H])([H])[H])(C([H])([H])[H])C([H])([H])[H])C([H])(C(=O)N([H])C2([H])c4c([H])c([H])c([H])c([H])c4C([H])([H])C([H])([H])C2([H])[H])C3([H])[H])nc1C([H])([H])[H]

>  <smiles>  (9) 
[H]c1c(N([H])C2([H])C([H])([H])N(C(=O)N3C([H])([H])C([H])([H])C([H])([H])C([H])(n4nc(-c5c([H])c([H])c(Oc6c([H])c([H])c(F)c([H])c6F)c([H])c5[H])c(C(=O)N([H])[H])c4N([H])[H])C3([H])[H])C2([H])[H])nc(C([H])([H])Oc2c([H])c([H])c3c(c2[H])C([H])([H])N(C(=O)C([H])(N([H])C(=O)C([H])(N([H])C([H])([H])[H])C([H])([H])[H])C(C([H])([H])[H])(C([H])([H])[H])C([H])([H])[H])C([H])(C(=O)N([H])C2([H])c4c([H])c([H])c([H])c([H])c4C([H])([H])C([H])([H])C2([H])[H])C3([H])[H])nc1C([H])([H])[H]

$$$$
9:0:0
     RDKit          3D

 93102  0  0  1  0  0  0  0  0999 V2000
  -30.0800  -20.1120   19.9380 C   0  0  0  0  0  3  0  0  0  0  0  0
  -30.6620  -18.9130   20.4750 C   0  0  0  0  0  0  0  0  0  0  0  0
  -29.9620  -21.3030   20.7150 C   0  0  0  0  0  0  0  0  0  0  0  0
  -30.8950  -20.0810   22.4370 C   0  0  0  0  0  0  0  0  0  0  0  0
  -31.2360  -20.0300   23.9100 C   0  0  0  0  0  1  0  0  0  0  0  0
  -31.0620  -18.9310   21.7600 N   0  0  0  0  0  0  0  0  0  0  0  0
  -30.3950  -21.2430   21.9820 N   0  0  0  0  0  0  0  0  0  0  0  0
  -29.3650  -22.5260   20.2200 N   0  0  0  0  0  0  0  0  0  0  0  0
  -29.3730  -22.6250   19.2090 H   0  0  0  0  0  0  0  0  0  0  0  0
  -31.4430  -15.1060   20.7060 C   0  0  0  0  0  0  0  0  0  0  0  0
  -31.3910  -12.6720   20.2190 C   0  0  0  0  0  2  0  0  0  0  0  0
  -30.5900  -12.4730   18.9120 C   0  0  0  0  0  2  0  0  0  0  0  0
  -29.0650  -12.4860   19.1560 C   0  0  0  0  0  2  0  0  0  0  0  0
  -28.5960  -13.5610   20.1810 C   0  0  0  0  0  3  0  0  0  0  0  0
  -29.5040  -13.6230   21.4130 C   0  0  0  0  0  2  0  0  0  0  0  0
  -30.8610  -13.8710   20.9020 N   0  0  0  0  0  0  0  0  0  0  0  0
  -32.6790  -15.1980   20.7640 O   0  0  0  0  0  0  0  0  0  0  0  0
  -31.3340  -17.3260   18.4680 C   0  0  0  0  0  2  0  0  0  0  0  0
  -30.4960  -17.5540   19.6940 C   0  0  0  0  0  3  0  0  0  0  0  0
  -30.7290  -15.9340   18.4830 C   0  0  0  0  0  3  0  0  0  0  0  0
  -29.3910  -15.7640   17.7070 C   0  0  0  0  0  1  0  0  0  0  0  0
  -30.6500  -16.0370   20.0000 N   0  0  0  0  0  0  0  0  0  0  0  0
  -26.2190  -14.4450   20.6250 C   0  0  0  0  0  0  0  0  0  0  0  0
  -25.0450  -13.7910   20.8680 C   0  0  0  0  0  0  0  0  0  0  0  0
  -25.3740  -12.3990   20.8980 C   0  0  0  0  0  0  0  0  0  0  0  0
  -27.1880  -13.4530   20.5170 N   0  0  0  0  0  0  0  0  0  0  0  0
  -26.6770  -12.2230   20.7440 N   0  0  0  0  0  0  0  0  0  0  0  0
  -24.5230  -11.2170   21.0020 C   0  0  0  0  0  0  0  0  0  0  0  0
  -24.8210  -10.1730   21.9090 C   0  0  0  0  0  3  0  0  0  0  0  0
  -23.9740   -9.0500   22.0010 C   0  0  0  0  0  3  0  0  0  0  0  0
  -22.8200   -8.9650   21.1880 C   0  0  0  0  0  0  0  0  0  0  0  0
  -22.5470   -9.9940   20.2670 C   0  0  0  0  0  3  0  0  0  0  0  0
  -23.3920  -11.1100   20.1690 C   0  0  0  0  0  3  0  0  0  0  0  0
  -21.9510   -7.9030   21.1970 O   0  0  0  0  0  0  0  0  0  0  0  0
  -21.8270   -7.0820   22.2920 C   0  0  0  0  0  0  0  0  0  0  0  0
  -21.4470   -7.5840   23.5540 C   0  0  0  0  0  3  0  0  0  0  0  0
  -21.2600   -6.6970   24.6360 C   0  0  0  0  0  3  0  0  0  0  0  0
  -21.4420   -5.3140   24.4540 C   0  0  0  0  0  0  0  0  0  0  0  0
  -21.8110   -4.8120   23.1960 C   0  0  0  0  0  3  0  0  0  0  0  0
  -22.0000   -5.6960   22.1140 C   0  0  0  0  0  0  0  0  0  0  0  0
  -22.3350   -5.2030   20.8970 F   0  0  0  0  0  0  0  0  0  0  0  0
  -21.2580   -4.4640   25.4910 F   0  0  0  0  0  0  0  0  0  0  0  0
  -23.6770  -14.4030   20.9790 C   0  0  0  0  0  0  0  0  0  0  0  0
  -22.7990  -13.8210   21.7860 N   0  0  0  0  0  0  0  0  0  0  0  0
  -23.3930  -15.4380   20.3750 O   0  0  0  0  0  0  0  0  0  0  0  0
  -23.0330  -12.9870   22.3010 H   0  0  0  0  0  0  0  0  0  0  0  0
  -21.8700  -14.2130   21.8900 H   0  0  0  0  0  0  0  0  0  0  0  0
  -26.5340  -15.7970   20.4850 N   0  0  0  0  0  0  0  0  0  0  0  0
  -25.8240  -16.5120   20.5960 H   0  0  0  0  0  0  0  0  0  0  0  0
  -27.4690  -16.1770   20.5070 H   0  0  0  0  0  0  0  0  0  0  0  0
  -29.1000  -23.8340   20.9390 C   0  0  0  0  0  2  0  0  0  0  0  0
  -28.1480  -24.9320   20.2040 C   0  0  0  0  0  2  0  0  0  0  0  0
  -28.2260  -26.4240   20.4320 O   0  0  0  0  0  0  0  0  0  0  0  0
  -24.4440  -31.9290   23.2500 C   0  0  0  0  0  0  0  0  0  0  0  0
  -27.1090  -27.2940   20.2980 C   0  0  0  0  0  0  0  0  0  0  0  0
  -23.2660  -30.5170   21.5980 C   0  0  0  0  0  3  0  0  0  0  0  0
  -24.7430  -28.9460   20.2040 C   0  0  0  0  0  0  0  0  0  0  0  0
  -25.8080  -30.8190   21.4570 C   0  0  0  0  0  2  0  0  0  0  0  0
  -25.9000  -29.4270   20.8310 C   0  0  0  0  0  0  0  0  0  0  0  0
  -27.0770  -28.6130   20.8720 C   0  0  0  0  0  3  0  0  0  0  0  0
  -25.9300  -26.8900   19.6240 C   0  0  0  0  0  3  0  0  0  0  0  0
  -24.7660  -27.6840   19.5870 C   0  0  0  0  0  3  0  0  0  0  0  0
  -23.5070  -29.8270   20.2260 C   0  0  0  0  0  2  0  0  0  0  0  0
  -24.5240  -31.1090   22.1580 N   0  0  0  0  0  0  0  0  0  0  0  0
  -23.3510  -32.2150   23.7630 O   0  0  0  0  0  0  0  0  0  0  0  0
  -22.5790  -29.5160   22.5580 C   0  0  0  0  0  0  0  0  0  0  0  0
  -21.2510  -29.3570   22.4210 N   0  0  0  0  0  0  0  0  0  0  0  0
  -23.2420  -28.8840   23.3850 O   0  0  0  0  0  0  0  0  0  0  0  0
  -20.7780  -29.9280   21.7340 H   0  0  0  0  0  0  0  0  0  0  0  0
  -17.8570  -28.1750   22.8680 C   0  0  0  0  0  0  0  0  0  0  0  0
  -20.4110  -28.4290   23.1820 C   0  0  0  0  0  3  0  0  0  0  0  0
  -20.5180  -26.9930   22.6190 C   0  0  0  0  0  2  0  0  0  0  0  0
  -19.4340  -26.6670   21.5860 C   0  0  0  0  0  2  0  0  0  0  0  0
  -18.0410  -26.8210   22.2040 C   0  0  0  0  0  2  0  0  0  0  0  0
  -18.9710  -28.9390   23.3110 C   0  0  0  0  0  0  0  0  0  0  0  0
  -18.7460  -30.2060   23.8910 C   0  0  0  0  0  3  0  0  0  0  0  0
  -17.4420  -30.7150   24.0250 C   0  0  0  0  0  3  0  0  0  0  0  0
  -16.3420  -29.9520   23.5950 C   0  0  0  0  0  3  0  0  0  0  0  0
  -16.5500  -28.6820   23.0280 C   0  0  0  0  0  3  0  0  0  0  0  0
  -25.7190  -32.5610   23.8920 C   0  0  0  0  0  3  0  0  0  0  0  0
  -25.4010  -33.9520   24.2460 N   0  0  0  0  0  0  0  0  0  0  0  0
  -25.7420  -35.0210   23.5130 C   0  0  0  0  0  0  0  0  0  0  0  0
  -26.4270  -34.9400   22.4890 O   0  0  0  0  0  0  0  0  0  0  0  0
  -24.8090  -34.0890   25.0540 H   0  0  0  0  0  0  0  0  0  0  0  0
  -24.0180  -36.8150   23.1640 C   0  0  0  0  0  1  0  0  0  0  0  0
  -25.2480  -36.4030   23.9900 C   0  0  0  0  0  3  0  0  0  0  0  0
  -27.3660  -37.2730   24.8710 C   0  0  0  0  0  1  0  0  0  0  0  0
  -26.2820  -37.4600   23.9080 N   0  0  0  0  0  0  0  0  0  0  0  0
  -25.8740  -38.3780   24.0650 H   0  0  0  0  0  0  0  0  0  0  0  0
  -26.2290  -31.7740   25.1610 C   0  0  1  0  0  0  0  0  0  0  0  0
  -25.1280  -31.4910   26.2100 C   0  0  0  0  0  1  0  0  0  0  0  0
  -26.8380  -30.4190   24.7400 C   0  0  0  0  0  1  0  0  0  0  0  0
  -27.3580  -32.5730   25.8520 C   0  0  0  0  0  1  0  0  0  0  0  0
  1  2  2  0
  1  3  1  0
  2  6  1  0
  3  7  2  0
  4  5  1  0
  6  4  2  0
  7  4  1  0
  8  3  1  0
  8 51  1  0
  9  8  1  0
 10 17  2  0
 10 16  1  0
 11 16  1  0
 12 13  1  0
 12 11  1  0
 14 13  1  0
 14 26  1  0
 14 15  1  0
 16 15  1  0
 18 20  1  0
 18 19  1  0
 19 22  1  0
 19  2  1  0
 20 21  1  0
 20 22  1  0
 22 10  1  0
 23 24  2  0
 24 25  1  0
 24 43  1  0
 25 28  1  0
 26 23  1  0
 26 27  1  0
 27 25  2  0
 28 29  1  0
 29 30  2  0
 31 34  1  0
 31 30  1  0
 32 31  2  0
 33 32  1  0
 33 28  2  0
 34 35  1  0
 35 36  1  0
 36 37  2  0
 38 37  1  0
 38 42  1  0
 39 38  2  0
 40 35  2  0
 40 39  1  0
 41 40  1  0
 43 44  1  0
 44 47  1  0
 44 46  1  0
 45 43  2  0
 48 50  1  0
 48 49  1  0
 48 23  1  0
 52 53  1  0
 52 51  1  0
 54 65  2  0
 55 53  1  0
 55 60  1  0
 56 64  1  0
 56 66  1  0
 57 63  1  0
 57 59  1  0
 58 64  1  0
 59 60  2  0
 59 58  1  0
 61 55  2  0
 62 61  1  0
 62 57  2  0
 63 56  1  0
 64 54  1  0
 66 68  2  0
 67 66  1  0
 69 67  1  0
 70 79  2  0
 70 75  1  0
 71 67  1  0
 71 75  1  0
 72 71  1  0
 73 74  1  0
 73 72  1  0
 74 70  1  0
 75 76  2  0
 76 77  1  0
 78 77  2  0
 79 78  1  0
 80 54  1  0
 80 81  1  0
 80 90  1  0
 81 84  1  0
 82 86  1  0
 82 81  1  0
 83 82  2  0
 86 85  1  0
 88 86  1  0
 88 89  1  0
 88 87  1  0
 90 93  1  1
 90 91  1  0
 92 90  1  0
M  ISO  4  10 100  22 100  52 101  53 101
M  END
>  <TORSDO>  (10) 
F 18

>  <SCORE>  (10) 
-10.956

>  <name>  (10) 
9

>  <ligand_id>  (10) 
9

>  <original_smiles>  (10) 
[H]c1c(N([H])C([H])([H])C([H])([H])Oc2c([H])c([H])c3c(c2[H])C([H])([H])N(C(=O)C([H])(N([H])C(=O)C([H])(N([H])C([H])([H])[H])C([H])([H])[H])C(C([H])([H])[H])(C([H])([H])[H])C([H])([H])[H])C([H])(C(=O)N([H])C2([H])c4c([H])c([H])c([H])c([H])c4C([H])([H])C([H])([H])C2([H])[H])C3([H])[H])nc(C([H])([H])[H])nc1C1([H])N(C(=O)N2C([H])([H])C([H])([H])C([H])([H])C([H])(n3nc(-c4c([H])c([H])c(Oc5c([H])c([H])c(F)c([H])c5F)c([H])c4[H])c(C(=O)N([H])[H])c3N([H])[H])C2([H])[H])C([H])(C([H])([H])[H])C1([H])[H]

>  <smiles>  (10) 
[H]c1c(N([H])C([H])([H])C([H])([H])Oc2c([H])c([H])c3c(c2[H])C([H])([H])N(C(=O)C([H])(N([H])C(=O)C([H])(N([H])C([H])([H])[H])C([H])([H])[H])C(C([H])([H])[H])(C([H])([H])[H])C([H])([H])[H])C([H])(C(=O)N([H])C2([H])c4c([H])c([H])c([H])c([H])c4C([H])([H])C([H])([H])C2([H])[H])C3([H])[H])nc(C([H])([H])[H])nc1C1([H])N(C(=O)N2C([H])([H])C([H])([H])C([H])([H])C([H])(n3nc(-c4c([H])c([H])c(Oc5c([H])c([H])c(F)c([H])c5F)c([H])c4[H])c(C(=O)N([H])[H])c3N([H])[H])C2([H])[H])C([H])(C([H])([H])[H])C1([H])[H]

$$$$
10:0:0
     RDKit          3D

 95104  0  0  1  0  0  0  0  0999 V2000
  -28.4950  -21.9190   19.7620 C   0  0  0  0  0  3  0  0  0  0  0  0
  -29.9670  -22.2360   21.9740 C   0  0  0  0  0  3  0  0  0  0  0  0
  -28.6020  -23.3330   20.2470 C   0  0  0  0  0  0  0  0  0  0  0  0
  -29.3990  -23.4230   21.4250 C   0  0  0  0  0  0  0  0  0  0  0  0
  -29.1210  -20.7200   20.3910 C   0  0  0  0  0  0  0  0  0  0  0  0
  -29.8300  -20.9660   21.5090 N   0  0  0  0  0  0  0  0  0  0  0  0
  -30.4280  -15.2000   20.1210 C   0  0  0  0  0  0  0  0  0  0  0  0
  -30.3410  -12.8320   19.1730 C   0  0  0  0  0  2  0  0  0  0  0  0
  -29.3610  -12.7070   17.9840 C   0  0  0  0  0  2  0  0  0  0  0  0
  -27.9310  -12.4230   18.4810 C   0  0  0  0  0  2  0  0  0  0  0  0
  -27.5320  -13.3290   19.6730 C   0  0  0  0  0  3  0  0  0  0  0  0
  -28.6410  -13.4040   20.7460 C   0  0  0  0  0  2  0  0  0  0  0  0
  -29.8390  -13.9240   20.0680 N   0  0  0  0  0  0  0  0  0  0  0  0
  -31.6330  -15.2270   19.8420 O   0  0  0  0  0  0  0  0  0  0  0  0
  -28.0150  -18.2400   20.8280 C   0  0  0  0  0  2  0  0  0  0  0  0
  -28.2820  -16.7130   20.5260 C   0  0  0  0  0  2  0  0  0  0  0  0
  -30.1980  -17.9420   20.0670 C   0  0  0  0  0  2  0  0  0  0  0  0
  -29.0010  -19.0910   20.0150 C   0  0  0  0  0  3  0  0  0  0  0  0
  -29.7080  -16.4610   20.2250 N   0  0  0  0  0  0  0  0  0  0  0  0
  -25.1780  -13.8190   20.5430 C   0  0  0  0  0  0  0  0  0  0  0  0
  -24.1530  -13.0060   20.9360 C   0  0  0  0  0  0  0  0  0  0  0  0
  -24.6520  -11.6710   20.8410 C   0  0  0  0  0  0  0  0  0  0  0  0
  -26.2330  -12.9800   20.2300 N   0  0  0  0  0  0  0  0  0  0  0  0
  -25.9290  -11.6790   20.4740 N   0  0  0  0  0  0  0  0  0  0  0  0
  -23.9650  -10.3850   21.0180 C   0  0  0  0  0  0  0  0  0  0  0  0
  -24.4360   -9.4180   21.9350 C   0  0  0  0  0  3  0  0  0  0  0  0
  -23.7460   -8.1980   22.1030 C   0  0  0  0  0  3  0  0  0  0  0  0
  -22.5730   -7.9370   21.3550 C   0  0  0  0  0  0  0  0  0  0  0  0
  -22.1250   -8.8920   20.4270 C   0  0  0  0  0  3  0  0  0  0  0  0
  -22.8140  -10.1040   20.2560 C   0  0  0  0  0  3  0  0  0  0  0  0
  -21.8530   -6.7700   21.4340 O   0  0  0  0  0  0  0  0  0  0  0  0
  -21.7720   -6.0520   22.6000 C   0  0  0  0  0  0  0  0  0  0  0  0
  -21.2020   -6.5960   23.7720 C   0  0  0  0  0  3  0  0  0  0  0  0
  -21.0760   -5.8000   24.9280 C   0  0  0  0  0  3  0  0  0  0  0  0
  -21.5110   -4.4610   24.9120 C   0  0  0  0  0  0  0  0  0  0  0  0
  -22.0730   -3.9170   23.7440 C   0  0  0  0  0  3  0  0  0  0  0  0
  -22.2010   -4.7090   22.5910 C   0  0  0  0  0  0  0  0  0  0  0  0
  -22.7250   -4.1740   21.4630 F   0  0  0  0  0  0  0  0  0  0  0  0
  -21.3830   -3.6930   26.0200 F   0  0  0  0  0  0  0  0  0  0  0  0
  -22.7580  -13.4390   21.2820 C   0  0  0  0  0  0  0  0  0  0  0  0
  -22.0990  -12.7190   22.1820 N   0  0  0  0  0  0  0  0  0  0  0  0
  -22.2630  -14.4500   20.7880 O   0  0  0  0  0  0  0  0  0  0  0  0
  -22.5150  -11.9000   22.6030 H   0  0  0  0  0  0  0  0  0  0  0  0
  -21.1650  -12.9900   22.4560 H   0  0  0  0  0  0  0  0  0  0  0  0
  -25.2860  -15.1990   20.3980 N   0  0  0  0  0  0  0  0  0  0  0  0
  -24.4950  -15.8150   20.5530 H   0  0  0  0  0  0  0  0  0  0  0  0
  -26.0920  -15.6760   20.0220 H   0  0  0  0  0  0  0  0  0  0  0  0
  -29.4430  -24.7510   23.6600 C   0  0  0  0  0  1  0  0  0  0  0  0
  -29.6080  -24.7810   22.1260 C   0  0  0  0  0  3  0  0  0  0  0  0
  -30.9020  -25.3860   21.7560 N   0  0  0  0  0  4  0  0  0  0  0  0
  -31.6770  -24.8110   22.0360 H   0  0  0  0  0  0  0  0  0  0  0  0
  -31.0010  -26.2840   22.1970 H   0  0  0  0  0  0  0  0  0  0  0  0
  -30.9540  -25.5360   20.7640 H   0  0  0  0  0  0  0  0  0  0  0  0
  -27.8240  -24.6820   19.6290 C   0  0  0  0  0  2  0  0  0  0  0  0
  -28.1140  -26.2110   19.9060 O   0  0  0  0  0  0  0  0  0  0  0  0
  -24.5540  -31.8730   23.0970 C   0  0  0  0  0  0  0  0  0  0  0  0
  -27.0710  -27.2250   19.8730 C   0  0  0  0  0  0  0  0  0  0  0  0
  -23.3220  -30.5170   21.4510 C   0  0  0  0  0  3  0  0  0  0  0  0
  -24.7400  -28.9870   19.9450 C   0  0  0  0  0  0  0  0  0  0  0  0
  -25.8720  -30.7900   21.2330 C   0  0  0  0  0  2  0  0  0  0  0  0
  -25.9340  -29.4120   20.5410 C   0  0  0  0  0  0  0  0  0  0  0  0
  -27.0980  -28.5480   20.4890 C   0  0  0  0  0  3  0  0  0  0  0  0
  -25.8500  -26.9180   19.2330 C   0  0  0  0  0  3  0  0  0  0  0  0
  -24.7130  -27.7560   19.2750 C   0  0  0  0  0  3  0  0  0  0  0  0
  -23.5110  -29.8790   20.0500 C   0  0  0  0  0  2  0  0  0  0  0  0
  -24.6050  -31.0810   21.9820 N   0  0  0  0  0  0  0  0  0  0  0  0
  -23.4800  -32.1380   23.6580 O   0  0  0  0  0  0  0  0  0  0  0  0
  -22.6690  -29.4830   22.4030 C   0  0  0  0  0  0  0  0  0  0  0  0
  -21.3390  -29.3010   22.2970 N   0  0  0  0  0  0  0  0  0  0  0  0
  -23.3600  -28.8480   23.2040 O   0  0  0  0  0  0  0  0  0  0  0  0
  -20.8360  -29.8650   21.6280 H   0  0  0  0  0  0  0  0  0  0  0  0
  -17.9760  -28.0730   22.8580 C   0  0  0  0  0  0  0  0  0  0  0  0
  -20.5420  -28.3360   23.0610 C   0  0  0  0  0  3  0  0  0  0  0  0
  -20.6300  -26.9230   22.4410 C   0  0  0  0  0  2  0  0  0  0  0  0
  -19.5010  -26.6280   21.4480 C   0  0  0  0  0  2  0  0  0  0  0  0
  -18.1370  -26.7470   22.1340 C   0  0  0  0  0  2  0  0  0  0  0  0
  -19.1040  -28.8250   23.2800 C   0  0  0  0  0  0  0  0  0  0  0  0
  -18.8970  -30.0670   23.9200 C   0  0  0  0  0  3  0  0  0  0  0  0
  -17.5950  -30.5550   24.1410 C   0  0  0  0  0  3  0  0  0  0  0  0
  -16.4820  -29.7980   23.7350 C   0  0  0  0  0  3  0  0  0  0  0  0
  -16.6730  -28.5580   23.0990 C   0  0  0  0  0  3  0  0  0  0  0  0
  -25.8430  -32.5000   23.7110 C   0  0  0  0  0  3  0  0  0  0  0  0
  -26.3740  -31.7140   24.9720 C   0  0  1  0  0  0  0  0  0  0  0  0
  -25.2930  -31.4620   26.0510 C   0  0  0  0  0  1  0  0  0  0  0  0
  -26.9530  -30.3410   24.5600 C   0  0  0  0  0  1  0  0  0  0  0  0
  -27.5330  -32.4990   25.6290 C   0  0  0  0  0  1  0  0  0  0  0  0
  -25.5390  -33.8950   24.0710 N   0  0  0  0  0  0  0  0  0  0  0  0
  -25.8620  -34.9640   23.3320 C   0  0  0  0  0  0  0  0  0  0  0  0
  -26.5160  -34.8810   22.2890 O   0  0  0  0  0  0  0  0  0  0  0  0
  -24.9580  -34.0330   24.8850 H   0  0  0  0  0  0  0  0  0  0  0  0
  -24.1470  -36.7810   23.0330 C   0  0  0  0  0  1  0  0  0  0  0  0
  -25.3880  -36.3450   23.8280 C   0  0  0  0  0  3  0  0  0  0  0  0
  -27.5230  -37.2020   24.6860 C   0  0  0  0  0  1  0  0  0  0  0  0
  -26.4280  -37.3930   23.7380 N   0  0  0  0  0  0  0  0  0  0  0  0
  -26.0280  -38.3140   23.8970 H   0  0  0  0  0  0  0  0  0  0  0  0
  1  3  2  0
  1  5  1  0
  3  4  1  0
  4  2  2  0
  4 49  1  0
  5  6  2  0
  6  2  1  0
  7 19  1  0
  8 13  1  0
  9 10  1  0
  9  8  1  0
 11 10  1  0
 11 23  1  0
 11 12  1  0
 13  7  1  0
 13 12  1  0
 14  7  2  0
 16 15  1  0
 17 19  1  0
 18 17  1  0
 18  5  1  0
 18 15  1  0
 19 16  1  0
 20 21  2  0
 21 40  1  0
 22 21  1  0
 22 25  1  0
 23 24  1  0
 23 20  1  0
 24 22  2  0
 25 26  1  0
 26 27  2  0
 28 31  1  0
 28 27  1  0
 29 28  2  0
 30 29  1  0
 30 25  2  0
 31 32  1  0
 32 33  1  0
 33 34  2  0
 35 34  1  0
 35 39  1  0
 36 35  2  0
 37 32  2  0
 37 36  1  0
 38 37  1  0
 40 41  1  0
 41 44  1  0
 41 43  1  0
 42 40  2  0
 45 20  1  0
 45 46  1  0
 47 45  1  0
 49 48  1  0
 50 51  1  0
 50 49  1  0
 50 52  1  0
 53 50  1  0
 54 55  1  0
 54  3  1  0
 56 67  2  0
 57 55  1  0
 57 62  1  0
 58 66  1  0
 58 68  1  0
 59 65  1  0
 59 61  1  0
 60 66  1  0
 61 60  1  0
 62 61  2  0
 63 64  1  0
 63 57  2  0
 64 59  2  0
 65 58  1  0
 66 56  1  0
 68 70  2  0
 69 68  1  0
 71 69  1  0
 72 81  2  0
 72 77  1  0
 73 69  1  0
 73 77  1  0
 74 73  1  0
 75 76  1  0
 75 74  1  0
 76 72  1  0
 77 78  2  0
 78 79  1  0
 80 79  2  0
 81 80  1  0
 82 56  1  0
 82 87  1  0
 82 83  1  0
 83 86  1  1
 83 84  1  0
 85 83  1  0
 87 90  1  0
 88 92  1  0
 88 87  1  0
 89 88  2  0
 92 91  1  0
 94 92  1  0
 94 95  1  0
 94 93  1  0
M  ISO  4   7 100  19 100  54 101  55 101
M  END
>  <TORSDO>  (11) 
F 19

>  <SCORE>  (11) 
-14.235

>  <name>  (11) 
10

>  <ligand_id>  (11) 
10

>  <original_smiles>  (11) 
[H]c1nc(C2([H])C([H])([H])N(C(=O)N3C([H])([H])C([H])([H])C([H])([H])C([H])(n4nc(-c5c([H])c([H])c(Oc6c([H])c([H])c(F)c([H])c6F)c([H])c5[H])c(C(=O)N([H])[H])c4N([H])[H])C3([H])[H])C([H])([H])C2([H])[H])c([H])c(C([H])([H])Oc2c([H])c([H])c3c(c2[H])C([H])([H])N(C(=O)C([H])(N([H])C(=O)C([H])(N([H])C([H])([H])[H])C([H])([H])[H])C(C([H])([H])[H])(C([H])([H])[H])C([H])([H])[H])C([H])(C(=O)N([H])C2([H])c4c([H])c([H])c([H])c([H])c4C([H])([H])C([H])([H])C2([H])[H])C3([H])[H])c1C([H])(C([H])([H])[H])[N+]([H])([H])[H]

>  <smiles>  (11) 
[H]c1nc(C2([H])C([H])([H])N(C(=O)N3C([H])([H])C([H])([H])C([H])([H])C([H])(n4nc(-c5c([H])c([H])c(Oc6c([H])c([H])c(F)c([H])c6F)c([H])c5[H])c(C(=O)N([H])[H])c4N([H])[H])C3([H])[H])C([H])([H])C2([H])[H])c([H])c(C([H])([H])Oc2c([H])c([H])c3c(c2[H])C([H])([H])N(C(=O)C([H])(N([H])C(=O)C([H])(N([H])C([H])([H])[H])C([H])([H])[H])C(C([H])([H])[H])(C([H])([H])[H])C([H])([H])[H])C([H])(C(=O)N([H])C2([H])c4c([H])c([H])c([H])c([H])c4C([H])([H])C([H])([H])C2([H])[H])C3([H])[H])c1C([H])(C([H])([H])[H])[N+]([H])([H])[H]

$$$$
11:0:0
     RDKit          3D

 92101  0  0  1  0  0  0  0  0999 V2000
  -30.6140  -24.1090   20.3020 C   0  0  0  0  0  0  0  0  0  0  0  0
  -29.2570  -23.7060   20.1990 C   0  0  0  0  0  3  0  0  0  0  0  0
  -30.0970  -21.4490   20.2910 C   0  0  0  0  0  0  0  0  0  0  0  0
  -31.0720  -25.5570   20.2940 C   0  0  0  0  0  1  0  0  0  0  0  0
  -29.0120  -22.3030   20.1870 N   0  0  0  0  0  0  0  0  0  0  0  0
  -31.6150  -23.2070   20.4020 N   0  0  0  0  0  0  0  0  0  0  0  0
  -31.3520  -21.8990   20.4000 N   0  0  0  0  0  2  0  0  0  0  0  0
  -30.1980  -20.0040   20.3410 N   0  0  0  0  0  0  0  0  0  0  0  0
  -31.1810  -19.8080   20.4850 H   0  0  0  0  0  0  0  0  0  0  0  0
  -30.7740  -14.8850   20.0010 C   0  0  0  0  0  0  0  0  0  0  0  0
  -30.5460  -12.6070   18.9580 C   0  0  0  0  0  2  0  0  0  0  0  0
  -29.5460  -12.6570   17.7820 C   0  0  0  0  0  2  0  0  0  0  0  0
  -28.1050  -12.4420   18.2820 C   0  0  0  0  0  2  0  0  0  0  0  0
  -27.7810  -13.2960   19.5400 C   0  0  0  0  0  3  0  0  0  0  0  0
  -28.9030  -13.2150   20.5950 C   0  0  0  0  0  2  0  0  0  0  0  0
  -30.1390  -13.6520   19.9350 N   0  0  0  0  0  0  0  0  0  0  0  0
  -31.9360  -14.9500   19.5810 O   0  0  0  0  0  0  0  0  0  0  0  0
  -29.0560  -17.9700   21.4480 C   0  0  0  0  0  2  0  0  0  0  0  0
  -29.0910  -16.4190   21.2290 C   0  0  0  0  0  2  0  0  0  0  0  0
  -30.4130  -17.4540   19.5950 C   0  0  0  0  0  2  0  0  0  0  0  0
  -29.4990  -18.6630   20.1460 C   0  0  0  0  0  3  0  0  0  0  0  0
  -30.0510  -16.0880   20.1660 N   0  0  0  0  0  0  0  0  0  0  0  0
  -25.4360  -13.8300   20.4210 C   0  0  0  0  0  0  0  0  0  0  0  0
  -24.4050  -13.0320   20.8310 C   0  0  0  0  0  0  0  0  0  0  0  0
  -24.8810  -11.6880   20.7300 C   0  0  0  0  0  0  0  0  0  0  0  0
  -26.4750  -12.9720   20.1000 N   0  0  0  0  0  0  0  0  0  0  0  0
  -26.1520  -11.6760   20.3470 N   0  0  0  0  0  0  0  0  0  0  0  0
  -24.1790  -10.4120   20.9200 C   0  0  0  0  0  0  0  0  0  0  0  0
  -24.6130   -9.4670   21.8760 C   0  0  0  0  0  3  0  0  0  0  0  0
  -23.9090   -8.2550   22.0540 C   0  0  0  0  0  3  0  0  0  0  0  0
  -22.7580   -7.9810   21.2750 C   0  0  0  0  0  0  0  0  0  0  0  0
  -22.3460   -8.9160   20.3080 C   0  0  0  0  0  3  0  0  0  0  0  0
  -23.0500  -10.1180   20.1300 C   0  0  0  0  0  3  0  0  0  0  0  0
  -22.0280   -6.8210   21.3620 O   0  0  0  0  0  0  0  0  0  0  0  0
  -21.8720   -6.1540   22.5510 C   0  0  0  0  0  0  0  0  0  0  0  0
  -21.2880   -6.7690   23.6790 C   0  0  0  0  0  3  0  0  0  0  0  0
  -21.0840   -6.0270   24.8590 C   0  0  0  0  0  3  0  0  0  0  0  0
  -21.4530   -4.6690   24.9100 C   0  0  0  0  0  0  0  0  0  0  0  0
  -22.0300   -4.0540   23.7850 C   0  0  0  0  0  3  0  0  0  0  0  0
  -22.2360   -4.7940   22.6080 C   0  0  0  0  0  0  0  0  0  0  0  0
  -22.7720   -4.1910   21.5190 F   0  0  0  0  0  0  0  0  0  0  0  0
  -21.2510   -3.9530   26.0400 F   0  0  0  0  0  0  0  0  0  0  0  0
  -23.0200  -13.4840   21.1930 C   0  0  0  0  0  0  0  0  0  0  0  0
  -22.3540  -12.7620   22.0860 N   0  0  0  0  0  0  0  0  0  0  0  0
  -22.5380  -14.5110   20.7180 O   0  0  0  0  0  0  0  0  0  0  0  0
  -22.7550  -11.9310   22.4950 H   0  0  0  0  0  0  0  0  0  0  0  0
  -21.4270  -13.0460   22.3680 H   0  0  0  0  0  0  0  0  0  0  0  0
  -25.5680  -15.2060   20.2680 N   0  0  0  0  0  0  0  0  0  0  0  0
  -24.7960  -15.8420   20.4310 H   0  0  0  0  0  0  0  0  0  0  0  0
  -26.3800  -15.6600   19.8710 H   0  0  0  0  0  0  0  0  0  0  0  0
  -28.1040  -24.8330   20.0400 C   0  0  0  0  0  2  0  0  0  0  0  0
  -28.3280  -26.3210   20.3220 O   0  0  0  0  0  0  0  0  0  0  0  0
  -24.6830  -31.8960   23.3230 C   0  0  0  0  0  0  0  0  0  0  0  0
  -27.2550  -27.2570   20.2520 C   0  0  0  0  0  0  0  0  0  0  0  0
  -23.4830  -30.5290   21.6580 C   0  0  0  0  0  3  0  0  0  0  0  0
  -24.9300  -28.9690   20.2270 C   0  0  0  0  0  0  0  0  0  0  0  0
  -26.0360  -30.7960   21.5100 C   0  0  0  0  0  2  0  0  0  0  0  0
  -26.1040  -29.4170   20.8420 C   0  0  0  0  0  0  0  0  0  0  0  0
  -27.2710  -28.5760   20.8390 C   0  0  0  0  0  3  0  0  0  0  0  0
  -26.0530  -26.8900   19.6070 C   0  0  0  0  0  3  0  0  0  0  0  0
  -24.9120  -27.7170   19.5960 C   0  0  0  0  0  3  0  0  0  0  0  0
  -23.7050  -29.8660   20.2740 C   0  0  0  0  0  2  0  0  0  0  0  0
  -24.7530  -31.0920   22.2200 N   0  0  0  0  0  0  0  0  0  0  0  0
  -23.5950  -32.1860   23.8430 O   0  0  0  0  0  0  0  0  0  0  0  0
  -22.7920  -29.5140   22.6030 C   0  0  0  0  0  0  0  0  0  0  0  0
  -21.4680  -29.3410   22.4480 N   0  0  0  0  0  0  0  0  0  0  0  0
  -23.4500  -28.8850   23.4350 O   0  0  0  0  0  0  0  0  0  0  0  0
  -20.9950  -29.9040   21.7540 H   0  0  0  0  0  0  0  0  0  0  0  0
  -18.0740  -28.1560   22.8860 C   0  0  0  0  0  0  0  0  0  0  0  0
  -20.6290  -28.4030   23.1990 C   0  0  0  0  0  3  0  0  0  0  0  0
  -20.7350  -26.9750   22.6170 C   0  0  0  0  0  2  0  0  0  0  0  0
  -19.6490  -26.6620   21.5820 C   0  0  0  0  0  2  0  0  0  0  0  0
  -18.2570  -26.8100   22.2050 C   0  0  0  0  0  2  0  0  0  0  0  0
  -19.1890  -28.9110   23.3380 C   0  0  0  0  0  0  0  0  0  0  0  0
  -18.9660  -30.1700   23.9370 C   0  0  0  0  0  3  0  0  0  0  0  0
  -17.6590  -30.6750   24.0850 C   0  0  0  0  0  3  0  0  0  0  0  0
  -16.5590  -29.9160   23.6490 C   0  0  0  0  0  3  0  0  0  0  0  0
  -16.7670  -28.6590   23.0550 C   0  0  0  0  0  3  0  0  0  0  0  0
  -25.9630  -32.5120   23.9680 C   0  0  0  0  0  3  0  0  0  0  0  0
  -25.6710  -33.9180   24.2820 N   0  0  0  0  0  0  0  0  0  0  0  0
  -25.9980  -34.9590   23.5040 C   0  0  0  0  0  0  0  0  0  0  0  0
  -26.6460  -34.8360   22.4610 O   0  0  0  0  0  0  0  0  0  0  0  0
  -25.0910  -34.0880   25.0900 H   0  0  0  0  0  0  0  0  0  0  0  0
  -24.2600  -36.7530   23.1900 C   0  0  0  0  0  1  0  0  0  0  0  0
  -25.5350  -36.3590   23.9540 C   0  0  0  0  0  3  0  0  0  0  0  0
  -27.7010  -37.2590   24.6790 C   0  0  0  0  0  1  0  0  0  0  0  0
  -26.5640  -37.4060   23.7750 N   0  0  0  0  0  0  0  0  0  0  0  0
  -26.1650  -38.3300   23.9170 H   0  0  0  0  0  0  0  0  0  0  0  0
  -26.4360  -31.7440   25.2630 C   0  0  1  0  0  0  0  0  0  0  0  0
  -25.3140  -31.5360   26.3070 C   0  0  0  0  0  1  0  0  0  0  0  0
  -27.0070  -30.3540   24.9000 C   0  0  0  0  0  1  0  0  0  0  0  0
  -27.5860  -32.5230   25.9460 C   0  0  0  0  0  1  0  0  0  0  0  0
  1  6  2  0
  2 51  1  0
  2  1  1  0
  3  8  1  0
  3  7  1  0
  4  1  1  0
  5  2  1  0
  5  3  2  0
  7  6  1  0
  8  9  1  0
 10 22  1  0
 11 16  1  0
 12 13  1  0
 12 11  1  0
 14 13  1  0
 14 26  1  0
 14 15  1  0
 16 10  1  0
 16 15  1  0
 17 10  2  0
 19 18  1  0
 20 21  1  0
 20 22  1  0
 21  8  1  0
 21 18  1  0
 22 19  1  0
 23 24  2  0
 24 43  1  0
 25 24  1  0
 25 28  1  0
 26 27  1  0
 26 23  1  0
 27 25  2  0
 28 29  1  0
 29 30  2  0
 31 34  1  0
 31 30  1  0
 32 31  2  0
 33 32  1  0
 33 28  2  0
 34 35  1  0
 35 40  2  0
 35 36  1  0
 36 37  2  0
 37 38  1  0
 38 42  1  0
 39 38  2  0
 40 39  1  0
 41 40  1  0
 43 44  1  0
 44 47  1  0
 44 46  1  0
 45 43  2  0
 48 23  1  0
 48 49  1  0
 50 48  1  0
 51 52  1  0
 53 64  2  0
 54 52  1  0
 54 59  1  0
 55 63  1  0
 55 65  1  0
 56 62  1  0
 56 58  1  0
 57 63  1  0
 58 57  1  0
 59 58  2  0
 60 54  2  0
 61 60  1  0
 61 56  2  0
 62 55  1  0
 63 53  1  0
 65 67  2  0
 66 65  1  0
 68 66  1  0
 69 78  2  0
 69 74  1  0
 70 66  1  0
 70 74  1  0
 71 70  1  0
 72 73  1  0
 72 71  1  0
 73 69  1  0
 74 75  2  0
 75 76  1  0
 77 76  2  0
 78 77  1  0
 79 53  1  0
 79 80  1  0
 79 89  1  0
 80 83  1  0
 81 85  1  0
 81 80  1  0
 82 81  2  0
 85 84  1  0
 87 88  1  0
 87 85  1  0
 87 86  1  0
 89 92  1  1
 89 90  1  0
 91 89  1  0
M  ISO  4  10 100  22 100  51 101  52 101
M  END
>  <TORSDO>  (12) 
F 17

>  <SCORE>  (12) 
-14.088

>  <name>  (12) 
11

>  <ligand_id>  (12) 
11

>  <original_smiles>  (12) 
[H]c1c([H])c([H])c2c(c1[H])C([H])([H])C([H])([H])C([H])([H])C2([H])N([H])C(=O)C1([H])N(C(=O)C([H])(N([H])C(=O)C([H])(N([H])C([H])([H])[H])C([H])([H])[H])C(C([H])([H])[H])(C([H])([H])[H])C([H])([H])[H])C([H])([H])c2c([H])c(OC([H])([H])c3nc(N([H])C4([H])C([H])([H])N(C(=O)N5C([H])([H])C([H])([H])C([H])([H])C([H])(n6nc(-c7c([H])c([H])c(Oc8c([H])c([H])c(F)c([H])c8F)c([H])c7[H])c(C(=O)N([H])[H])c6N([H])[H])C5([H])[H])C([H])([H])C4([H])[H])nnc3C([H])([H])[H])c([H])c([H])c2C1([H])[H]

>  <smiles>  (12) 
[H]c1c([H])c([H])c2c(c1[H])C([H])([H])C([H])([H])C([H])([H])C2([H])N([H])C(=O)C1([H])N(C(=O)C([H])(N([H])C(=O)C([H])(N([H])C([H])([H])[H])C([H])([H])[H])C(C([H])([H])[H])(C([H])([H])[H])C([H])([H])[H])C([H])([H])c2c([H])c(OC([H])([H])c3nc(N([H])C4([H])C([H])([H])N(C(=O)N5C([H])([H])C([H])([H])C([H])([H])C([H])(n6nc(-c7c([H])c([H])c(Oc8c([H])c([H])c(F)c([H])c8F)c([H])c7[H])c(C(=O)N([H])[H])c6N([H])[H])C5([H])[H])C([H])([H])C4([H])[H])nnc3C([H])([H])[H])c([H])c([H])c2C1([H])[H]

$$$$
12:0:0
     RDKit          3D

 94103  0  0  1  0  0  0  0  0999 V2000
  -29.0540  -23.1060   20.1250 C   0  0  0  0  0  3  0  0  0  0  0  0
  -31.6230  -22.5280   20.0580 C   0  0  0  0  0  2  0  0  0  0  0  0
  -32.9240  -23.3330   20.1680 C   0  0  0  0  0  2  0  0  0  0  0  0
  -31.0560  -24.8270   20.1090 C   0  0  0  0  0  2  0  0  0  0  0  0
  -30.5150  -23.4600   20.5770 C   0  0  0  0  0  3  0  0  0  0  0  0
  -33.2650  -25.6300   19.2790 C   0  0  0  0  0  1  0  0  0  0  0  0
  -32.5310  -24.7560   20.2200 N   0  0  2  0  0  4  0  0  0  0  0  0
  -32.7680  -25.0750   21.1470 H   0  0  0  0  0  0  0  0  0  0  0  0
  -28.7320  -21.5670   20.5820 N   0  0  0  0  0  4  0  0  0  0  0  0
  -29.0260  -21.4870   21.5420 H   0  0  0  0  0  0  0  0  0  0  0  0
  -27.7280  -21.4860   20.6180 H   0  0  0  0  0  0  0  0  0  0  0  0
  -29.2310  -20.2070   19.8470 C   0  0  0  0  0  2  0  0  0  0  0  0
  -30.4780  -15.0620   20.2030 C   0  0  0  0  0  0  0  0  0  0  0  0
  -30.3680  -12.6830   19.2970 C   0  0  0  0  0  2  0  0  0  0  0  0
  -29.4310  -12.5880   18.0720 C   0  0  0  0  0  2  0  0  0  0  0  0
  -27.9780  -12.3540   18.5290 C   0  0  0  0  0  2  0  0  0  0  0  0
  -27.5670  -13.2980   19.6930 C   0  0  0  0  0  3  0  0  0  0  0  0
  -28.6300  -13.3530   20.8090 C   0  0  0  0  0  2  0  0  0  0  0  0
  -29.8780  -13.7930   20.1730 N   0  0  0  0  0  0  0  0  0  0  0  0
  -31.6790  -15.0860   19.9190 O   0  0  0  0  0  0  0  0  0  0  0  0
  -30.2950  -17.6070   21.0120 C   0  0  0  0  0  2  0  0  0  0  0  0
  -29.2380  -17.2870   19.3670 C   0  0  0  0  0  2  0  0  0  0  0  0
  -29.1580  -18.5460   20.3690 C   0  0  0  0  0  3  0  0  0  0  0  0
  -29.7480  -16.3030   20.4160 N   0  0  0  0  0  0  0  0  0  0  0  0
  -25.1960  -13.8580   20.4680 C   0  0  0  0  0  0  0  0  0  0  0  0
  -24.1410  -13.0760   20.8510 C   0  0  0  0  0  0  0  0  0  0  0  0
  -24.6130  -11.7270   20.8160 C   0  0  0  0  0  0  0  0  0  0  0  0
  -26.2410  -12.9860   20.2150 N   0  0  0  0  0  0  0  0  0  0  0  0
  -25.8990  -11.7000   20.4910 N   0  0  0  0  0  0  0  0  0  0  0  0
  -23.8970  -10.4590   21.0160 C   0  0  0  0  0  0  0  0  0  0  0  0
  -24.3440   -9.4950   21.9480 C   0  0  0  0  0  3  0  0  0  0  0  0
  -23.6230   -8.2960   22.1340 C   0  0  0  0  0  3  0  0  0  0  0  0
  -22.4440   -8.0520   21.3900 C   0  0  0  0  0  0  0  0  0  0  0  0
  -22.0160   -9.0060   20.4480 C   0  0  0  0  0  3  0  0  0  0  0  0
  -22.7390  -10.1960   20.2590 C   0  0  0  0  0  3  0  0  0  0  0  0
  -21.6940   -6.9040   21.4830 O   0  0  0  0  0  0  0  0  0  0  0  0
  -21.6570   -6.1610   22.6380 C   0  0  0  0  0  0  0  0  0  0  0  0
  -21.2340   -6.7120   23.8660 C   0  0  0  0  0  3  0  0  0  0  0  0
  -21.1450   -5.8980   25.0120 C   0  0  0  0  0  3  0  0  0  0  0  0
  -21.4690   -4.5310   24.9310 C   0  0  0  0  0  0  0  0  0  0  0  0
  -21.8890   -3.9780   23.7080 C   0  0  0  0  0  3  0  0  0  0  0  0
  -21.9790   -4.7900   22.5630 C   0  0  0  0  0  0  0  0  0  0  0  0
  -22.3610   -4.2470   21.3840 F   0  0  0  0  0  0  0  0  0  0  0  0
  -21.3770   -3.7470   26.0300 F   0  0  0  0  0  0  0  0  0  0  0  0
  -22.7450  -13.5480   21.1340 C   0  0  0  0  0  0  0  0  0  0  0  0
  -22.0210  -12.8520   22.0030 N   0  0  0  0  0  0  0  0  0  0  0  0
  -22.3020  -14.5730   20.6190 O   0  0  0  0  0  0  0  0  0  0  0  0
  -22.3920  -12.0310   22.4530 H   0  0  0  0  0  0  0  0  0  0  0  0
  -21.0850  -13.1550   22.2310 H   0  0  0  0  0  0  0  0  0  0  0  0
  -25.3470  -15.2310   20.2830 N   0  0  0  0  0  0  0  0  0  0  0  0
  -24.5740  -15.8770   20.4000 H   0  0  0  0  0  0  0  0  0  0  0  0
  -26.1940  -15.6750   19.9570 H   0  0  0  0  0  0  0  0  0  0  0  0
  -28.0300  -24.4790   20.4650 C   0  0  0  0  0  2  0  0  0  0  0  0
  -28.2650  -26.0520   20.2510 O   0  0  0  0  0  0  0  0  0  0  0  0
  -24.6510  -31.8600   23.2200 C   0  0  0  0  0  0  0  0  0  0  0  0
  -27.2130  -27.0700   20.2210 C   0  0  0  0  0  0  0  0  0  0  0  0
  -23.4490  -30.4610   21.5860 C   0  0  0  0  0  3  0  0  0  0  0  0
  -24.8970  -28.8690   20.1710 C   0  0  0  0  0  0  0  0  0  0  0  0
  -26.0080  -30.7050   21.4260 C   0  0  0  0  0  2  0  0  0  0  0  0
  -26.0800  -29.3030   20.7800 C   0  0  0  0  0  0  0  0  0  0  0  0
  -27.2380  -28.4230   20.7840 C   0  0  0  0  0  3  0  0  0  0  0  0
  -26.0040  -26.7620   19.5600 C   0  0  0  0  0  3  0  0  0  0  0  0
  -24.8760  -27.6140   19.5430 C   0  0  0  0  0  3  0  0  0  0  0  0
  -23.6730  -29.7740   20.2120 C   0  0  0  0  0  2  0  0  0  0  0  0
  -24.7230  -31.0330   22.1320 N   0  0  0  0  0  0  0  0  0  0  0  0
  -23.5660  -32.1490   23.7480 O   0  0  0  0  0  0  0  0  0  0  0  0
  -22.7690  -29.4610   22.5550 C   0  0  0  0  0  0  0  0  0  0  0  0
  -21.4380  -29.2930   22.4350 N   0  0  0  0  0  0  0  0  0  0  0  0
  -23.4400  -28.8360   23.3810 O   0  0  0  0  0  0  0  0  0  0  0  0
  -20.9480  -29.8500   21.7480 H   0  0  0  0  0  0  0  0  0  0  0  0
  -18.0620  -28.0860   22.9540 C   0  0  0  0  0  0  0  0  0  0  0  0
  -20.6200  -28.3580   23.2130 C   0  0  0  0  0  3  0  0  0  0  0  0
  -20.7230  -26.9210   22.6480 C   0  0  0  0  0  2  0  0  0  0  0  0
  -19.6230  -26.5900   21.6360 C   0  0  0  0  0  2  0  0  0  0  0  0
  -18.2420  -26.7350   22.2820 C   0  0  0  0  0  2  0  0  0  0  0  0
  -19.1780  -28.8540   23.3770 C   0  0  0  0  0  0  0  0  0  0  0  0
  -18.9550  -30.1160   23.9710 C   0  0  0  0  0  3  0  0  0  0  0  0
  -17.6490  -30.6120   24.1420 C   0  0  0  0  0  3  0  0  0  0  0  0
  -16.5470  -29.8420   23.7320 C   0  0  0  0  0  3  0  0  0  0  0  0
  -16.7540  -28.5800   23.1450 C   0  0  0  0  0  3  0  0  0  0  0  0
  -25.9290  -32.5020   23.8450 C   0  0  0  0  0  3  0  0  0  0  0  0
  -26.4470  -31.7360   25.1260 C   0  0  1  0  0  0  0  0  0  0  0  0
  -25.3530  -31.5050   26.1970 C   0  0  0  0  0  1  0  0  0  0  0  0
  -27.0290  -30.3540   24.7480 C   0  0  0  0  0  1  0  0  0  0  0  0
  -27.5990  -32.5310   25.7830 C   0  0  0  0  0  1  0  0  0  0  0  0
  -25.6140  -33.9000   24.1800 N   0  0  0  0  0  0  0  0  0  0  0  0
  -25.9360  -34.9600   23.4280 C   0  0  0  0  0  0  0  0  0  0  0  0
  -26.5950  -34.8640   22.3880 O   0  0  0  0  0  0  0  0  0  0  0  0
  -25.0290  -34.0470   24.9910 H   0  0  0  0  0  0  0  0  0  0  0  0
  -24.2020  -36.7580   23.1050 C   0  0  0  0  0  1  0  0  0  0  0  0
  -25.4530  -36.3480   23.8980 C   0  0  0  0  0  3  0  0  0  0  0  0
  -27.5980  -37.2340   24.7050 C   0  0  0  0  0  1  0  0  0  0  0  0
  -26.4830  -37.4040   23.7770 N   0  0  0  0  0  0  0  0  0  0  0  0
  -26.0770  -38.3210   23.9360 H   0  0  0  0  0  0  0  0  0  0  0  0
  1 53  1  0
  1  9  1  0
  2  3  1  0
  2  5  1  0
  3  7  1  0
  4  7  1  0
  4  5  1  0
  5  1  1  0
  6  7  1  0
  7  8  1  1
  9 11  1  0
  9 10  1  0
 12  9  1  0
 13 24  1  0
 14 19  1  0
 15 16  1  0
 15 14  1  0
 17 16  1  0
 17 28  1  0
 17 18  1  0
 19 13  1  0
 19 18  1  0
 20 13  2  0
 22 23  1  0
 22 24  1  0
 23 12  1  0
 23 21  1  0
 24 21  1  0
 25 26  2  0
 26 45  1  0
 27 26  1  0
 27 30  1  0
 28 25  1  0
 28 29  1  0
 29 27  2  0
 30 31  1  0
 31 32  2  0
 33 36  1  0
 33 32  1  0
 34 33  2  0
 35 34  1  0
 35 30  2  0
 36 37  1  0
 37 38  1  0
 38 39  2  0
 40 39  1  0
 40 44  1  0
 41 40  2  0
 42 37  2  0
 42 41  1  0
 43 42  1  0
 45 46  1  0
 46 49  1  0
 46 48  1  0
 47 45  2  0
 50 51  1  0
 50 25  1  0
 52 50  1  0
 54 53  1  0
 55 66  2  0
 56 54  1  0
 56 61  1  0
 57 65  1  0
 57 67  1  0
 58 64  1  0
 58 60  1  0
 59 65  1  0
 60 61  2  0
 60 59  1  0
 62 56  2  0
 63 62  1  0
 63 58  2  0
 64 57  1  0
 65 55  1  0
 67 69  2  0
 68 67  1  0
 70 68  1  0
 71 80  2  0
 71 76  1  0
 72 68  1  0
 72 76  1  0
 73 72  1  0
 74 75  1  0
 74 73  1  0
 75 71  1  0
 76 77  2  0
 77 78  1  0
 79 78  2  0
 80 79  1  0
 81 55  1  0
 81 86  1  0
 81 82  1  0
 82 85  1  1
 82 83  1  0
 84 82  1  0
 86 89  1  0
 87 91  1  0
 87 86  1  0
 88 87  2  0
 91 90  1  0
 93 91  1  0
 93 94  1  0
 93 92  1  0
M  ISO  4  13 100  24 100  53 101  54 101
M  END
>  <TORSDO>  (13) 
F 20

>  <SCORE>  (13) 
-15.060

>  <name>  (13) 
12

>  <ligand_id>  (13) 
12

>  <original_smiles>  (13) 
[H]c1c([H])c([H])c2c(c1[H])C([H])([H])C([H])([H])C([H])([H])C2([H])N([H])C(=O)C1([H])N(C(=O)C([H])(N([H])C(=O)C([H])(N([H])C([H])([H])[H])C([H])([H])[H])C(C([H])([H])[H])(C([H])([H])[H])C([H])([H])[H])C([H])([H])c2c([H])c(OC([H])([H])C([H])(C3([H])C([H])([H])C([H])([H])[N+]([H])(C([H])([H])[H])C3([H])[H])[N+]([H])([H])C([H])([H])C3([H])C([H])([H])N(C(=O)N4C([H])([H])C([H])([H])C([H])([H])C([H])(n5nc(-c6c([H])c([H])c(Oc7c([H])c([H])c(F)c([H])c7F)c([H])c6[H])c(C(=O)N([H])[H])c5N([H])[H])C4([H])[H])C3([H])[H])c([H])c([H])c2C1([H])[H]

>  <smiles>  (13) 
[H]c1c([H])c([H])c2c(c1[H])C([H])([H])C([H])([H])C([H])([H])C2([H])N([H])C(=O)C1([H])N(C(=O)C([H])(N([H])C(=O)C([H])(N([H])C([H])([H])[H])C([H])([H])[H])C(C([H])([H])[H])(C([H])([H])[H])C([H])([H])[H])C([H])([H])c2c([H])c(OC([H])([H])C([H])(C3([H])C([H])([H])C([H])([H])[N+]([H])(C([H])([H])[H])C3([H])[H])[N+]([H])([H])C([H])([H])C3([H])C([H])([H])N(C(=O)N4C([H])([H])C([H])([H])C([H])([H])C([H])(n5nc(-c6c([H])c([H])c(Oc7c([H])c([H])c(F)c([H])c7F)c([H])c6[H])c(C(=O)N([H])[H])c5N([H])[H])C4([H])[H])C3([H])[H])c([H])c([H])c2C1([H])[H]

$$$$
13:0:0
     RDKit          3D

 97107  0  0  1  0  0  0  0  0999 V2000
  -29.0820  -20.5220   19.4090 C   0  0  0  0  0  2  0  0  0  0  0  0
  -31.4220  -21.4390   19.5120 C   0  0  0  0  0  2  0  0  0  0  0  0
  -28.7200  -22.0310   19.6340 C   0  0  0  0  0  2  0  0  0  0  0  0
  -30.9700  -22.8000   18.8990 C   0  0  0  0  0  2  0  0  0  0  0  0
  -30.5760  -20.2020   19.0990 C   0  0  0  0  0  3  0  0  0  0  0  0
  -29.4880  -22.9730   18.7690 N   0  0  2  0  0  4  0  0  0  0  0  0
  -29.2960  -22.6130   17.8430 H   0  0  0  0  0  0  0  0  0  0  0  0
  -32.6930  -17.1080   19.7430 C   0  0  0  0  0  2  0  0  0  0  0  0
  -32.5170  -18.6420   19.6440 C   0  0  0  0  0  2  0  0  0  0  0  0
  -30.3900  -17.6240   19.4560 C   0  0  0  0  0  2  0  0  0  0  0  0
  -31.3110  -16.6140   20.1890 C   0  0  0  0  0  3  0  0  0  0  0  0
  -31.0600  -18.9270   19.7540 N   0  0  2  0  0  4  0  0  0  0  0  0
  -30.9090  -19.0600   20.7450 H   0  0  0  0  0  0  0  0  0  0  0  0
  -31.1250  -14.3660   18.9970 C   0  0  0  0  0  0  0  0  0  0  0  0
  -30.4250  -12.2860   17.8110 C   0  0  0  0  0  2  0  0  0  0  0  0
  -29.2510  -12.4830   16.8330 C   0  0  0  0  0  2  0  0  0  0  0  0
  -27.9010  -12.3560   17.5630 C   0  0  0  0  0  2  0  0  0  0  0  0
  -27.8470  -13.2220   18.8410 C   0  0  0  0  0  3  0  0  0  0  0  0
  -29.0960  -13.0090   19.7130 C   0  0  0  0  0  2  0  0  0  0  0  0
  -30.3180  -13.2590   18.9170 N   0  0  0  0  0  0  0  0  0  0  0  0
  -31.8770  -14.6820   18.0670 O   0  0  0  0  0  0  0  0  0  0  0  0
  -31.0600  -15.1290   20.1340 N   0  0  0  0  0  0  0  0  0  0  0  0
  -25.7150  -13.9090   20.1130 C   0  0  0  0  0  0  0  0  0  0  0  0
  -24.7060  -13.1740   20.6750 C   0  0  0  0  0  0  0  0  0  0  0  0
  -25.0600  -11.8040   20.4770 C   0  0  0  0  0  0  0  0  0  0  0  0
  -26.6190  -12.9910   19.6030 N   0  0  0  0  0  0  0  0  0  0  0  0
  -26.2430  -11.7160   19.8810 N   0  0  0  0  0  0  0  0  0  0  0  0
  -24.3130  -10.5730   20.7660 C   0  0  0  0  0  0  0  0  0  0  0  0
  -24.7740   -9.6370   21.7190 C   0  0  0  0  0  3  0  0  0  0  0  0
  -24.0300   -8.4690   21.9940 C   0  0  0  0  0  3  0  0  0  0  0  0
  -22.8100   -8.2310   21.3190 C   0  0  0  0  0  0  0  0  0  0  0  0
  -22.3680   -9.1530   20.3540 C   0  0  0  0  0  3  0  0  0  0  0  0
  -23.1120  -10.3120   20.0780 C   0  0  0  0  0  3  0  0  0  0  0  0
  -22.0360   -7.1100   21.4980 O   0  0  0  0  0  0  0  0  0  0  0  0
  -21.9160   -6.5060   22.7240 C   0  0  0  0  0  0  0  0  0  0  0  0
  -21.4220   -7.2000   23.8510 C   0  0  0  0  0  3  0  0  0  0  0  0
  -21.2500   -6.5240   25.0750 C   0  0  0  0  0  3  0  0  0  0  0  0
  -21.5610   -5.1540   25.1740 C   0  0  0  0  0  0  0  0  0  0  0  0
  -22.0480   -4.4600   24.0520 C   0  0  0  0  0  3  0  0  0  0  0  0
  -22.2200   -5.1340   22.8310 C   0  0  0  0  0  0  0  0  0  0  0  0
  -22.6710   -4.4570   21.7460 F   0  0  0  0  0  0  0  0  0  0  0  0
  -21.3880   -4.5020   26.3460 F   0  0  0  0  0  0  0  0  0  0  0  0
  -23.4380  -13.7060   21.2770 C   0  0  0  0  0  0  0  0  0  0  0  0
  -22.9170  -13.0430   22.3010 N   0  0  0  0  0  0  0  0  0  0  0  0
  -22.9280  -14.7500   20.8710 O   0  0  0  0  0  0  0  0  0  0  0  0
  -23.3470  -12.1980   22.6510 H   0  0  0  0  0  0  0  0  0  0  0  0
  -22.0780  -13.3870   22.7470 H   0  0  0  0  0  0  0  0  0  0  0  0
  -25.9240  -15.2790   19.9710 N   0  0  0  0  0  0  0  0  0  0  0  0
  -25.2380  -15.9620   20.2750 H   0  0  0  0  0  0  0  0  0  0  0  0
  -26.7160  -15.6950   19.5010 H   0  0  0  0  0  0  0  0  0  0  0  0
  -31.7050  -15.0850   22.7110 C   0  0  0  0  0  2  0  0  0  0  0  0
  -30.2300  -14.8400   22.5420 C   0  0  0  0  0  2  0  0  0  0  0  0
  -31.1880  -14.4470   21.4250 C   0  0  0  0  0  3  0  0  0  0  0  0
  -29.9000  -25.2690   17.7800 C   0  0  0  0  0  1  0  0  0  0  0  0
  -28.9800  -24.4070   18.6790 C   0  0  0  0  0  3  0  0  0  0  0  0
  -28.6640  -25.1500   20.0330 C   0  0  0  0  0  2  0  0  0  0  0  0
  -28.6220  -26.6050   19.9220 O   0  0  0  0  0  0  0  0  0  0  0  0
  -24.6550  -31.7210   23.0120 C   0  0  0  0  0  0  0  0  0  0  0  0
  -27.4130  -27.2910   19.9550 C   0  0  0  0  0  0  0  0  0  0  0  0
  -23.4850  -30.2800   21.3780 C   0  0  0  0  0  3  0  0  0  0  0  0
  -24.9780  -28.7660   19.9630 C   0  0  0  0  0  0  0  0  0  0  0  0
  -26.0060  -30.6940   21.1760 C   0  0  0  0  0  2  0  0  0  0  0  0
  -26.1270  -29.3200   20.5360 C   0  0  0  0  0  0  0  0  0  0  0  0
  -27.3460  -28.5960   20.5160 C   0  0  0  0  0  3  0  0  0  0  0  0
  -26.2360  -26.7520   19.3900 C   0  0  0  0  0  3  0  0  0  0  0  0
  -25.0280  -27.4810   19.3900 C   0  0  0  0  0  3  0  0  0  0  0  0
  -23.7120  -29.5980   20.0030 C   0  0  0  0  0  2  0  0  0  0  0  0
  -24.7330  -30.9170   21.9110 N   0  0  0  0  0  0  0  0  0  0  0  0
  -23.5660  -31.9650   23.5520 O   0  0  0  0  0  0  0  0  0  0  0  0
  -22.8590  -29.2470   22.3440 C   0  0  0  0  0  0  0  0  0  0  0  0
  -21.5340  -29.0540   22.2420 N   0  0  0  0  0  0  0  0  0  0  0  0
  -23.5620  -28.6240   23.1440 O   0  0  0  0  0  0  0  0  0  0  0  0
  -21.0260  -29.6020   21.5640 H   0  0  0  0  0  0  0  0  0  0  0  0
  -18.1680  -27.8950   22.8700 C   0  0  0  0  0  0  0  0  0  0  0  0
  -20.7420  -28.1030   23.0240 C   0  0  0  0  0  3  0  0  0  0  0  0
  -20.7920  -26.6910   22.3960 C   0  0  0  0  0  2  0  0  0  0  0  0
  -19.6340  -26.4220   21.4300 C   0  0  0  0  0  2  0  0  0  0  0  0
  -18.2880  -26.5660   22.1450 C   0  0  0  0  0  2  0  0  0  0  0  0
  -19.3210  -28.6250   23.2690 C   0  0  0  0  0  0  0  0  0  0  0  0
  -19.1500  -29.8720   23.9090 C   0  0  0  0  0  3  0  0  0  0  0  0
  -17.8630  -30.3850   24.1590 C   0  0  0  0  0  3  0  0  0  0  0  0
  -16.7280  -29.6500   23.7760 C   0  0  0  0  0  3  0  0  0  0  0  0
  -16.8810  -28.4080   23.1330 C   0  0  0  0  0  3  0  0  0  0  0  0
  -25.9240  -32.3890   23.6270 C   0  0  0  0  0  3  0  0  0  0  0  0
  -26.5720  -31.5400   24.7910 C   0  0  1  0  0  0  0  0  0  0  0  0
  -25.5490  -31.0560   25.8450 C   0  0  0  0  0  1  0  0  0  0  0  0
  -27.2970  -30.2960   24.2270 C   0  0  0  0  0  1  0  0  0  0  0  0
  -27.6410  -32.3840   25.5220 C   0  0  0  0  0  1  0  0  0  0  0  0
  -25.5290  -33.7170   24.1150 N   0  0  0  0  0  0  0  0  0  0  0  0
  -25.7300  -34.8630   23.4500 C   0  0  0  0  0  0  0  0  0  0  0  0
  -26.3370  -34.9170   22.3770 O   0  0  0  0  0  0  0  0  0  0  0  0
  -24.9790  -33.7420   24.9610 H   0  0  0  0  0  0  0  0  0  0  0  0
  -23.8490  -36.5310   23.3870 C   0  0  0  0  0  1  0  0  0  0  0  0
  -25.1700  -36.1540   24.0760 C   0  0  0  0  0  3  0  0  0  0  0  0
  -27.2800  -37.1300   24.8670 C   0  0  0  0  0  1  0  0  0  0  0  0
  -26.1080  -37.2960   24.0100 N   0  0  0  0  0  0  0  0  0  0  0  0
  -25.6430  -38.1590   24.2770 H   0  0  0  0  0  0  0  0  0  0  0  0
  1  3  1  0
  4  2  1  0
  5  1  1  0
  5  2  1  0
  5 12  1  0
  6  4  1  0
  6  3  1  0
  6  7  1  6
  8 11  1  0
  9  8  1  0
  9 12  1  0
 10 12  1  0
 10 11  1  0
 11 22  1  0
 12 13  1  1
 14 22  1  0
 15 20  1  0
 16 17  1  0
 16 15  1  0
 18 17  1  0
 18 26  1  0
 18 19  1  0
 20 14  1  0
 20 19  1  0
 21 14  2  0
 22 53  1  0
 23 24  2  0
 24 43  1  0
 25 24  1  0
 25 28  1  0
 26 27  1  0
 26 23  1  0
 27 25  2  0
 28 29  1  0
 29 30  2  0
 31 34  1  0
 31 30  1  0
 32 31  2  0
 33 32  1  0
 33 28  2  0
 34 35  1  0
 35 40  2  0
 35 36  1  0
 36 37  2  0
 37 38  1  0
 38 42  1  0
 39 38  2  0
 40 39  1  0
 41 40  1  0
 43 44  1  0
 44 46  1  0
 44 47  1  0
 45 43  2  0
 48 23  1  0
 48 49  1  0
 50 48  1  0
 52 51  1  0
 53 52  1  0
 53 51  1  0
 55 54  1  0
 55  6  1  0
 55 56  1  0
 57 59  1  0
 57 56  1  0
 58 69  2  0
 59 64  1  0
 60 68  1  0
 60 70  1  0
 61 67  1  0
 61 63  1  0
 62 68  1  0
 63 62  1  0
 64 63  2  0
 65 59  2  0
 66 65  1  0
 66 61  2  0
 67 60  1  0
 68 58  1  0
 70 72  2  0
 71 70  1  0
 73 71  1  0
 74 83  2  0
 74 79  1  0
 75 71  1  0
 75 79  1  0
 76 75  1  0
 77 78  1  0
 77 76  1  0
 78 74  1  0
 79 80  2  0
 80 81  1  0
 82 81  2  0
 83 82  1  0
 84 58  1  0
 84 89  1  0
 84 85  1  0
 85 88  1  1
 85 86  1  0
 87 85  1  0
 89 92  1  0
 90 94  1  0
 90 89  1  0
 91 90  2  0
 94 93  1  0
 96 94  1  0
 96 97  1  0
 96 95  1  0
M  ISO  4  14 100  22 100  56 101  57 101
M  END
>  <TORSDO>  (14) 
F 20

>  <SCORE>  (14) 
-7.318

>  <name>  (14) 
13

>  <ligand_id>  (14) 
13

>  <original_smiles>  (14) 
[H]c1c([H])c([H])c2c(c1[H])C([H])([H])C([H])([H])C([H])([H])C2([H])N([H])C(=O)C1([H])N(C(=O)C([H])(N([H])C(=O)C([H])(N([H])C([H])([H])[H])C([H])([H])[H])C(C([H])([H])[H])(C([H])([H])[H])C([H])([H])[H])C([H])([H])c2c([H])c(OC([H])([H])C([H])(C([H])([H])[H])[N+]3([H])C([H])([H])C([H])([H])C([H])([N+]4([H])C([H])([H])C([H])([H])C([H])(N(C(=O)N5C([H])([H])C([H])([H])C([H])([H])C([H])(n6nc(-c7c([H])c([H])c(Oc8c([H])c([H])c(F)c([H])c8F)c([H])c7[H])c(C(=O)N([H])[H])c6N([H])[H])C5([H])[H])C5([H])C([H])([H])C5([H])[H])C4([H])[H])C([H])([H])C3([H])[H])c([H])c([H])c2C1([H])[H]

>  <smiles>  (14) 
[H]c1c([H])c([H])c2c(c1[H])C([H])([H])C([H])([H])C([H])([H])C2([H])N([H])C(=O)C1([H])N(C(=O)C([H])(N([H])C(=O)C([H])(N([H])C([H])([H])[H])C([H])([H])[H])C(C([H])([H])[H])(C([H])([H])[H])C([H])([H])[H])C([H])([H])c2c([H])c(OC([H])([H])C([H])(C([H])([H])[H])[N+]3([H])C([H])([H])C([H])([H])C([H])([N+]4([H])C([H])([H])C([H])([H])C([H])(N(C(=O)N5C([H])([H])C([H])([H])C([H])([H])C([H])(n6nc(-c7c([H])c([H])c(Oc8c([H])c([H])c(F)c([H])c8F)c([H])c7[H])c(C(=O)N([H])[H])c6N([H])[H])C5([H])[H])C5([H])C([H])([H])C5([H])[H])C4([H])[H])C([H])([H])C3([H])[H])c([H])c([H])c2C1([H])[H]

$$$$
14:0:0
     RDKit          3D

 91100  0  0  1  0  0  0  0  0999 V2000
  -29.6910  -23.4190   19.7710 C   0  0  0  0  0  3  0  0  0  0  0  0
  -28.4370  -21.3760   21.0620 C   0  0  0  0  0  3  0  0  0  0  0  0
  -28.5650  -23.7070   20.5970 C   0  0  0  0  0  0  0  0  0  0  0  0
  -29.5620  -21.0850   20.2320 C   0  0  0  0  0  0  0  0  0  0  0  0
  -27.9620  -22.6520   21.2380 N   0  0  0  0  0  0  0  0  0  0  0  0
  -30.1690  -22.1350   19.5990 N   0  0  0  0  0  0  0  0  0  0  0  0
  -30.1580  -19.7890   20.0410 N   0  0  0  0  0  0  0  0  0  0  0  0
  -30.9780  -19.7870   19.4370 H   0  0  0  0  0  0  0  0  0  0  0  0
  -27.9480  -25.1320   20.9330 C   0  0  0  0  0  2  0  0  0  0  0  0
  -28.3050  -26.4120   20.2560 O   0  0  0  0  0  0  0  0  0  0  0  0
  -24.6140  -31.8890   23.2240 C   0  0  0  0  0  0  0  0  0  0  0  0
  -27.2410  -27.3260   20.1910 C   0  0  0  0  0  0  0  0  0  0  0  0
  -23.4180  -30.4830   21.5850 C   0  0  0  0  0  3  0  0  0  0  0  0
  -24.8790  -28.9380   20.1580 C   0  0  0  0  0  0  0  0  0  0  0  0
  -25.9590  -30.8080   21.4070 C   0  0  0  0  0  2  0  0  0  0  0  0
  -26.0460  -29.4310   20.7590 C   0  0  0  0  0  0  0  0  0  0  0  0
  -27.2360  -28.6370   20.7660 C   0  0  0  0  0  3  0  0  0  0  0  0
  -26.0590  -26.9010   19.5480 C   0  0  0  0  0  3  0  0  0  0  0  0
  -24.8880  -27.6800   19.5400 C   0  0  0  0  0  3  0  0  0  0  0  0
  -23.6340  -29.8050   20.2080 C   0  0  0  0  0  2  0  0  0  0  0  0
  -24.6820  -31.0760   22.1300 N   0  0  0  0  0  0  0  0  0  0  0  0
  -23.5270  -32.1620   23.7560 O   0  0  0  0  0  0  0  0  0  0  0  0
  -22.7570  -29.4650   22.5450 C   0  0  0  0  0  0  0  0  0  0  0  0
  -21.4290  -29.2940   22.4260 N   0  0  0  0  0  0  0  0  0  0  0  0
  -23.4390  -28.8320   23.3540 O   0  0  0  0  0  0  0  0  0  0  0  0
  -20.9390  -29.8550   21.7440 H   0  0  0  0  0  0  0  0  0  0  0  0
  -18.0500  -28.1160   22.9480 C   0  0  0  0  0  0  0  0  0  0  0  0
  -20.6110  -28.3590   23.2000 C   0  0  0  0  0  3  0  0  0  0  0  0
  -20.6990  -26.9280   22.6200 C   0  0  0  0  0  2  0  0  0  0  0  0
  -19.5880  -26.6140   21.6140 C   0  0  0  0  0  2  0  0  0  0  0  0
  -18.2120  -26.7690   22.2660 C   0  0  0  0  0  2  0  0  0  0  0  0
  -19.1770  -28.8700   23.3710 C   0  0  0  0  0  0  0  0  0  0  0  0
  -18.9700  -30.1340   23.9660 C   0  0  0  0  0  3  0  0  0  0  0  0
  -17.6680  -30.6410   24.1470 C   0  0  0  0  0  3  0  0  0  0  0  0
  -16.5570  -29.8820   23.7440 C   0  0  0  0  0  3  0  0  0  0  0  0
  -16.7480  -28.6230   23.1470 C   0  0  0  0  0  3  0  0  0  0  0  0
  -25.8920  -32.5310   23.8450 C   0  0  0  0  0  3  0  0  0  0  0  0
  -25.5750  -33.9300   24.1670 N   0  0  0  0  0  0  0  0  0  0  0  0
  -25.9010  -34.9810   23.4050 C   0  0  0  0  0  0  0  0  0  0  0  0
  -26.5740  -34.8810   22.3770 O   0  0  0  0  0  0  0  0  0  0  0  0
  -24.9820  -34.0830   24.9680 H   0  0  0  0  0  0  0  0  0  0  0  0
  -24.1710  -36.7700   23.0340 C   0  0  0  0  0  1  0  0  0  0  0  0
  -25.4040  -36.3680   23.8560 C   0  0  0  0  0  3  0  0  0  0  0  0
  -27.5300  -37.2640   24.7030 C   0  0  0  0  0  1  0  0  0  0  0  0
  -26.4330  -37.4270   23.7530 N   0  0  0  0  0  0  0  0  0  0  0  0
  -26.0210  -38.3450   23.8980 H   0  0  0  0  0  0  0  0  0  0  0  0
  -26.4090  -31.7710   25.1290 C   0  0  1  0  0  0  0  0  0  0  0  0
  -25.3120  -31.5370   26.1940 C   0  0  0  0  0  1  0  0  0  0  0  0
  -26.9960  -30.3900   24.7530 C   0  0  0  0  0  1  0  0  0  0  0  0
  -27.5470  -32.5770   25.7940 C   0  0  0  0  0  1  0  0  0  0  0  0
  -29.5450  -18.4370   20.2550 C   0  0  0  0  0  2  0  0  0  0  0  0
  -30.7150  -14.6790   20.0740 C   0  0  0  0  0  0  0  0  0  0  0  0
  -30.3820  -12.4630   18.9720 C   0  0  0  0  0  2  0  0  0  0  0  0
  -29.3800  -12.5980   17.8040 C   0  0  0  0  0  2  0  0  0  0  0  0
  -27.9280  -12.4480   18.3040 C   0  0  0  0  0  2  0  0  0  0  0  0
  -27.6400  -13.2950   19.5750 C   0  0  0  0  0  3  0  0  0  0  0  0
  -28.7560  -13.1390   20.6280 C   0  0  0  0  0  2  0  0  0  0  0  0
  -30.0290  -13.4910   19.9820 N   0  0  0  0  0  0  0  0  0  0  0  0
  -31.8320  -14.7860   19.5560 O   0  0  0  0  0  0  0  0  0  0  0  0
  -31.0430  -17.0150   21.9420 C   0  0  0  0  0  2  0  0  0  0  0  0
  -29.9310  -15.9730   22.0290 C   0  0  0  0  0  2  0  0  0  0  0  0
  -30.5850  -17.2490   20.5080 C   0  0  0  0  0  3  0  0  0  0  0  0
  -30.0730  -15.8080   20.5710 N   0  0  0  0  0  0  0  0  0  0  0  0
  -25.3070  -13.8950   20.4610 C   0  0  0  0  0  0  0  0  0  0  0  0
  -24.2560  -13.1240   20.8780 C   0  0  0  0  0  0  0  0  0  0  0  0
  -24.7000  -11.7680   20.7840 C   0  0  0  0  0  0  0  0  0  0  0  0
  -26.3230  -13.0080   20.1360 N   0  0  0  0  0  0  0  0  0  0  0  0
  -25.9660  -11.7220   20.3940 N   0  0  0  0  0  0  0  0  0  0  0  0
  -23.9710  -10.5090   20.9890 C   0  0  0  0  0  0  0  0  0  0  0  0
  -24.4170   -9.5380   21.9120 C   0  0  0  0  0  3  0  0  0  0  0  0
  -23.6900   -8.3440   22.1060 C   0  0  0  0  0  3  0  0  0  0  0  0
  -22.5000   -8.1140   21.3760 C   0  0  0  0  0  0  0  0  0  0  0  0
  -22.0720   -9.0690   20.4400 C   0  0  0  0  0  3  0  0  0  0  0  0
  -22.8000  -10.2540   20.2450 C   0  0  0  0  0  3  0  0  0  0  0  0
  -21.7400   -6.9730   21.4800 O   0  0  0  0  0  0  0  0  0  0  0  0
  -21.6750   -6.2540   22.6470 C   0  0  0  0  0  0  0  0  0  0  0  0
  -21.2330   -6.8330   23.8570 C   0  0  0  0  0  3  0  0  0  0  0  0
  -21.1190   -6.0390   25.0160 C   0  0  0  0  0  3  0  0  0  0  0  0
  -21.4320   -4.6660   24.9650 C   0  0  0  0  0  0  0  0  0  0  0  0
  -21.8650   -4.0880   23.7580 C   0  0  0  0  0  3  0  0  0  0  0  0
  -21.9810   -4.8800   22.6030 C   0  0  0  0  0  0  0  0  0  0  0  0
  -22.3800   -4.3130   21.4380 F   0  0  0  0  0  0  0  0  0  0  0  0
  -21.3150   -3.9000   26.0760 F   0  0  0  0  0  0  0  0  0  0  0  0
  -22.8820  -13.6070   21.2390 C   0  0  0  0  0  0  0  0  0  0  0  0
  -22.1950  -12.8980   22.1280 N   0  0  0  0  0  0  0  0  0  0  0  0
  -22.4280  -14.6460   20.7650 O   0  0  0  0  0  0  0  0  0  0  0  0
  -22.5800  -12.0630   22.5440 H   0  0  0  0  0  0  0  0  0  0  0  0
  -21.2640  -13.1930   22.3900 H   0  0  0  0  0  0  0  0  0  0  0  0
  -25.4800  -15.2690   20.3110 N   0  0  0  0  0  0  0  0  0  0  0  0
  -24.7430  -15.9400   20.5080 H   0  0  0  0  0  0  0  0  0  0  0  0
  -26.3340  -15.7000   19.9760 H   0  0  0  0  0  0  0  0  0  0  0  0
  1  3  1  0
  2  5  1  0
  3  9  1  0
  3  5  2  0
  4  2  2  0
  6  1  2  0
  6  4  1  0
  7  4  1  0
  7 51  1  0
  8  7  1  0
 10  9  1  0
 11 22  2  0
 12 10  1  0
 12 17  1  0
 13 21  1  0
 13 23  1  0
 14 20  1  0
 14 16  1  0
 15 21  1  0
 16 17  2  0
 16 15  1  0
 18 12  2  0
 19 18  1  0
 19 14  2  0
 20 13  1  0
 21 11  1  0
 23 25  2  0
 24 23  1  0
 26 24  1  0
 27 36  2  0
 27 32  1  0
 28 24  1  0
 28 32  1  0
 29 28  1  0
 30 31  1  0
 30 29  1  0
 31 27  1  0
 32 33  2  0
 33 34  1  0
 35 34  2  0
 36 35  1  0
 37 11  1  0
 37 38  1  0
 37 47  1  0
 38 41  1  0
 39 43  1  0
 39 38  1  0
 40 39  2  0
 43 42  1  0
 45 43  1  0
 45 46  1  0
 45 44  1  0
 47 50  1  1
 47 48  1  0
 49 47  1  0
 52 63  1  0
 53 58  1  0
 54 55  1  0
 54 53  1  0
 56 55  1  0
 56 67  1  0
 56 57  1  0
 58 52  1  0
 58 57  1  0
 59 52  2  0
 60 61  1  0
 62 51  1  0
 62 63  1  0
 62 60  1  0
 63 61  1  0
 64 65  2  0
 65 84  1  0
 66 65  1  0
 66 69  1  0
 67 68  1  0
 67 64  1  0
 68 66  2  0
 69 70  1  0
 70 71  2  0
 72 75  1  0
 72 71  1  0
 73 72  2  0
 74 73  1  0
 74 69  2  0
 75 76  1  0
 76 77  1  0
 77 78  2  0
 79 78  1  0
 79 83  1  0
 80 79  2  0
 81 76  2  0
 81 80  1  0
 82 81  1  0
 84 85  1  0
 85 88  1  0
 85 87  1  0
 86 84  2  0
 89 64  1  0
 89 90  1  0
 91 89  1  0
M  ISO  4   9 101  10 101  52 100  63 100
M  END
>  <TORSDO>  (15) 
F 18

>  <SCORE>  (15) 
-14.387

>  <name>  (15) 
14

>  <ligand_id>  (15) 
14

>  <original_smiles>  (15) 
[H]c1nc(C([H])([H])Oc2c([H])c([H])c3c(c2[H])C([H])([H])N(C(=O)C([H])(N([H])C(=O)C([H])(N([H])C([H])([H])[H])C([H])([H])[H])C(C([H])([H])[H])(C([H])([H])[H])C([H])([H])[H])C([H])(C(=O)N([H])C2([H])c4c([H])c([H])c([H])c([H])c4C([H])([H])C([H])([H])C2([H])[H])C3([H])[H])c([H])nc1N([H])C([H])([H])C1([H])N(C(=O)N2C([H])([H])C([H])([H])C([H])([H])C([H])(n3nc(-c4c([H])c([H])c(Oc5c([H])c([H])c(F)c([H])c5F)c([H])c4[H])c(C(=O)N([H])[H])c3N([H])[H])C2([H])[H])C([H])([H])C1([H])[H]

>  <smiles>  (15) 
[H]c1nc(C([H])([H])Oc2c([H])c([H])c3c(c2[H])C([H])([H])N(C(=O)C([H])(N([H])C(=O)C([H])(N([H])C([H])([H])[H])C([H])([H])[H])C(C([H])([H])[H])(C([H])([H])[H])C([H])([H])[H])C([H])(C(=O)N([H])C2([H])c4c([H])c([H])c([H])c([H])c4C([H])([H])C([H])([H])C2([H])[H])C3([H])[H])c([H])nc1N([H])C([H])([H])C1([H])N(C(=O)N2C([H])([H])C([H])([H])C([H])([H])C([H])(n3nc(-c4c([H])c([H])c(Oc5c([H])c([H])c(F)c([H])c5F)c([H])c4[H])c(C(=O)N([H])[H])c3N([H])[H])C2([H])[H])C([H])([H])C1([H])[H]

$$$$
15:0:0
     RDKit          3D

 94103  0  0  1  0  0  0  0  0999 V2000
  -30.5750  -17.3490   18.8600 C   0  0  0  0  0  3  0  0  0  0  0  0
  -30.3190  -19.6640   18.7800 C   0  0  0  0  0  0  0  0  0  0  0  0
  -29.7390  -19.6840   20.0790 C   0  0  0  0  0  0  0  0  0  0  0  0
  -30.0100  -17.2550   20.1560 C   0  0  0  0  0  0  0  0  0  0  0  0
  -30.7250  -18.5130   18.1910 N   0  0  0  0  0  0  0  0  0  0  0  0
  -29.5850  -18.4570   20.7420 N   0  0  0  0  0  0  0  0  0  0  0  0
  -30.5950  -14.7430   20.4400 C   0  0  0  0  0  0  0  0  0  0  0  0
  -30.3890  -12.4630   19.4550 C   0  0  0  0  0  2  0  0  0  0  0  0
  -29.4740  -12.5480   18.2130 C   0  0  0  0  0  2  0  0  0  0  0  0
  -27.9960  -12.3870   18.6190 C   0  0  0  0  0  2  0  0  0  0  0  0
  -27.6100  -13.2750   19.8310 C   0  0  0  0  0  3  0  0  0  0  0  0
  -28.6500  -13.1850   20.9700 C   0  0  0  0  0  2  0  0  0  0  0  0
  -29.9610  -13.5210   20.4010 N   0  0  0  0  0  0  0  0  0  0  0  0
  -31.7780  -14.8230   20.0930 O   0  0  0  0  0  0  0  0  0  0  0  0
  -29.8550  -15.8880   20.7120 N   0  0  0  0  0  0  0  0  0  0  0  0
  -28.9880  -15.7260   21.1990 H   0  0  0  0  0  0  0  0  0  0  0  0
  -25.2110  -13.8730   20.5160 C   0  0  0  0  0  0  0  0  0  0  0  0
  -24.1390  -13.1030   20.8760 C   0  0  0  0  0  0  0  0  0  0  0  0
  -24.6010  -11.7510   20.8620 C   0  0  0  0  0  0  0  0  0  0  0  0
  -26.2570  -12.9910   20.3020 N   0  0  0  0  0  0  0  0  0  0  0  0
  -25.8960  -11.7100   20.5730 N   0  0  0  0  0  0  0  0  0  0  0  0
  -23.8690  -10.4910   21.0500 C   0  0  0  0  0  0  0  0  0  0  0  0
  -24.2900   -9.5250   21.9890 C   0  0  0  0  0  3  0  0  0  0  0  0
  -23.5590   -8.3310   22.1650 C   0  0  0  0  0  3  0  0  0  0  0  0
  -22.3920   -8.0930   21.4010 C   0  0  0  0  0  0  0  0  0  0  0  0
  -21.9890   -9.0490   20.4500 C   0  0  0  0  0  3  0  0  0  0  0  0
  -22.7210  -10.2340   20.2730 C   0  0  0  0  0  3  0  0  0  0  0  0
  -21.6330   -6.9510   21.4850 O   0  0  0  0  0  0  0  0  0  0  0  0
  -21.5750   -6.2090   22.6380 C   0  0  0  0  0  0  0  0  0  0  0  0
  -21.1510   -6.7670   23.8630 C   0  0  0  0  0  3  0  0  0  0  0  0
  -21.0410   -5.9510   25.0080 C   0  0  0  0  0  3  0  0  0  0  0  0
  -21.3440   -4.5800   24.9270 C   0  0  0  0  0  0  0  0  0  0  0  0
  -21.7620   -4.0210   23.7060 C   0  0  0  0  0  3  0  0  0  0  0  0
  -21.8740   -4.8340   22.5640 C   0  0  0  0  0  0  0  0  0  0  0  0
  -22.2570   -4.2860   21.3850 F   0  0  0  0  0  0  0  0  0  0  0  0
  -21.2320   -3.7940   26.0240 F   0  0  0  0  0  0  0  0  0  0  0  0
  -22.7380  -13.5850   21.1210 C   0  0  0  0  0  0  0  0  0  0  0  0
  -21.9950  -12.8950   21.9790 N   0  0  0  0  0  0  0  0  0  0  0  0
  -22.3120  -14.6080   20.5880 O   0  0  0  0  0  0  0  0  0  0  0  0
  -22.3530  -12.0670   22.4330 H   0  0  0  0  0  0  0  0  0  0  0  0
  -21.0540  -13.1990   22.1860 H   0  0  0  0  0  0  0  0  0  0  0  0
  -25.3790  -15.2430   20.3310 N   0  0  0  0  0  0  0  0  0  0  0  0
  -24.6080  -15.8940   20.4230 H   0  0  0  0  0  0  0  0  0  0  0  0
  -26.2260  -15.6800   19.9930 H   0  0  0  0  0  0  0  0  0  0  0  0
  -29.5240  -21.6000   17.1890 C   0  0  0  0  0  2  0  0  0  0  0  0
  -30.6160  -20.8770   16.4530 C   0  0  0  0  0  2  0  0  0  0  0  0
  -30.6210  -20.9000   17.9710 C   0  0  0  0  0  3  0  0  0  0  0  0
  -29.4980  -21.0850   20.8250 C   0  0  0  0  0  2  0  0  0  0  0  0
  -28.7450  -22.2550   20.1640 N   0  0  0  0  0  4  0  0  0  0  0  0
  -27.7650  -22.0580   20.2940 H   0  0  0  0  0  0  0  0  0  0  0  0
  -28.9180  -22.1980   19.1730 H   0  0  0  0  0  0  0  0  0  0  0  0
  -29.0200  -23.7170   20.5980 C   0  0  0  0  0  3  0  0  0  0  0  0
  -28.0440  -24.8890   20.0470 C   0  0  0  0  0  3  0  0  0  0  0  0
  -28.2770  -26.3600   20.2980 O   0  0  0  0  0  0  0  0  0  0  0  0
  -24.5970  -31.8860   23.2390 C   0  0  0  0  0  0  0  0  0  0  0  0
  -27.1880  -27.2640   20.2100 C   0  0  0  0  0  0  0  0  0  0  0  0
  -23.3930  -30.4860   21.6040 C   0  0  0  0  0  3  0  0  0  0  0  0
  -24.8400  -28.9250   20.1810 C   0  0  0  0  0  0  0  0  0  0  0  0
  -25.9380  -30.7820   21.4280 C   0  0  0  0  0  2  0  0  0  0  0  0
  -26.0130  -29.3980   20.7850 C   0  0  0  0  0  0  0  0  0  0  0  0
  -27.1890  -28.5790   20.7890 C   0  0  0  0  0  3  0  0  0  0  0  0
  -25.9950  -26.8710   19.5600 C   0  0  0  0  0  3  0  0  0  0  0  0
  -24.8370  -27.6710   19.5580 C   0  0  0  0  0  3  0  0  0  0  0  0
  -23.6080  -29.8080   20.2260 C   0  0  0  0  0  2  0  0  0  0  0  0
  -24.6620  -31.0710   22.1460 N   0  0  0  0  0  0  0  0  0  0  0  0
  -23.5130  -32.1710   23.7690 O   0  0  0  0  0  0  0  0  0  0  0  0
  -22.7230  -29.4750   22.5670 C   0  0  0  0  0  0  0  0  0  0  0  0
  -21.3970  -29.2990   22.4370 N   0  0  0  0  0  0  0  0  0  0  0  0
  -23.3980  -28.8520   23.3920 O   0  0  0  0  0  0  0  0  0  0  0  0
  -20.9110  -29.8530   21.7450 H   0  0  0  0  0  0  0  0  0  0  0  0
  -18.0170  -28.1020   22.9290 C   0  0  0  0  0  0  0  0  0  0  0  0
  -20.5750  -28.3670   23.2110 C   0  0  0  0  0  3  0  0  0  0  0  0
  -20.6810  -26.9310   22.6480 C   0  0  0  0  0  2  0  0  0  0  0  0
  -19.5850  -26.5980   21.6300 C   0  0  0  0  0  2  0  0  0  0  0  0
  -18.2000  -26.7480   22.2640 C   0  0  0  0  0  2  0  0  0  0  0  0
  -19.1330  -28.8690   23.3590 C   0  0  0  0  0  0  0  0  0  0  0  0
  -18.9090  -30.1360   23.9400 C   0  0  0  0  0  3  0  0  0  0  0  0
  -17.6020  -30.6370   24.0950 C   0  0  0  0  0  3  0  0  0  0  0  0
  -16.5020  -29.8660   23.6810 C   0  0  0  0  0  3  0  0  0  0  0  0
  -16.7100  -28.6010   23.1040 C   0  0  0  0  0  3  0  0  0  0  0  0
  -25.8800  -32.5190   23.8610 C   0  0  0  0  0  3  0  0  0  0  0  0
  -25.5720  -33.9200   24.1850 N   0  0  0  0  0  0  0  0  0  0  0  0
  -25.9050  -34.9700   23.4220 C   0  0  0  0  0  0  0  0  0  0  0  0
  -26.5720  -34.8610   22.3900 O   0  0  0  0  0  0  0  0  0  0  0  0
  -24.9790  -34.0790   24.9870 H   0  0  0  0  0  0  0  0  0  0  0  0
  -24.1790  -36.7670   23.0680 C   0  0  0  0  0  1  0  0  0  0  0  0
  -25.4220  -36.3620   23.8760 C   0  0  0  0  0  3  0  0  0  0  0  0
  -27.5610  -37.2450   24.6980 C   0  0  0  0  0  1  0  0  0  0  0  0
  -26.4570  -37.4120   23.7570 N   0  0  0  0  0  0  0  0  0  0  0  0
  -26.0530  -38.3330   23.9010 H   0  0  0  0  0  0  0  0  0  0  0  0
  -26.3900  -31.7530   25.1430 C   0  0  1  0  0  0  0  0  0  0  0  0
  -25.2950  -31.5260   26.2090 C   0  0  0  0  0  1  0  0  0  0  0  0
  -26.9690  -30.3720   24.7610 C   0  0  0  0  0  1  0  0  0  0  0  0
  -27.5430  -32.5480   25.8010 C   0  0  0  0  0  1  0  0  0  0  0  0
  1  4  1  0
  2  3  2  0
  3  6  1  0
  3 48  1  0
  4 15  1  0
  4  6  2  0
  5  2  1  0
  5  1  2  0
  7 15  1  0
  8 13  1  0
  9 10  1  0
  9  8  1  0
 11 10  1  0
 11 20  1  0
 11 12  1  0
 13  7  1  0
 13 12  1  0
 14  7  2  0
 15 16  1  0
 17 18  2  0
 18 37  1  0
 19 18  1  0
 19 22  1  0
 20 17  1  0
 20 21  1  0
 21 19  2  0
 22 23  1  0
 23 24  2  0
 25 28  1  0
 25 24  1  0
 26 25  2  0
 27 26  1  0
 27 22  2  0
 28 29  1  0
 29 30  1  0
 30 31  2  0
 32 31  1  0
 32 36  1  0
 33 32  2  0
 34 29  2  0
 34 33  1  0
 35 34  1  0
 37 38  1  0
 38 41  1  0
 38 40  1  0
 39 37  2  0
 42 43  1  0
 42 17  1  0
 44 42  1  0
 45 47  1  0
 46 45  1  0
 46 47  1  0
 47  2  1  0
 49 50  1  0
 49 52  1  0
 49 48  1  0
 51 49  1  0
 53 54  1  0
 53 52  2  0
 55 66  2  0
 56 54  1  0
 56 61  1  0
 57 65  1  0
 57 67  1  0
 58 64  1  0
 58 60  1  0
 59 65  1  0
 60 61  2  0
 60 59  1  0
 62 56  2  0
 63 62  1  0
 63 58  2  0
 64 57  1  0
 65 55  1  0
 67 69  2  0
 68 67  1  0
 70 68  1  0
 71 80  2  0
 71 76  1  0
 72 68  1  0
 72 76  1  0
 73 72  1  0
 74 75  1  0
 74 73  1  0
 75 71  1  0
 76 77  2  0
 77 78  1  0
 79 78  2  0
 80 79  1  0
 81 55  1  0
 81 82  1  0
 81 91  1  0
 82 85  1  0
 83 87  1  0
 83 82  1  0
 84 83  2  0
 87 86  1  0
 89 87  1  0
 89 90  1  0
 89 88  1  0
 91 94  1  1
 91 92  1  0
 93 91  1  0
M  ISO  4   7 100  15 100  53 101  54 101
M  END
>  <TORSDO>  (16) 
F 21

>  <SCORE>  (16) 
-13.580

>  <name>  (16) 
15

>  <ligand_id>  (16) 
15

>  <original_smiles>  (16) 
[H]c1nc(C2([H])C([H])([H])C2([H])[H])c(C([H])([H])[N+]([H])([H])C([H])([H])C([H])([H])Oc2c([H])c([H])c3c(c2[H])C([H])([H])N(C(=O)C([H])(N([H])C(=O)C([H])(N([H])C([H])([H])[H])C([H])([H])[H])C(C([H])([H])[H])(C([H])([H])[H])C([H])([H])[H])C([H])(C(=O)N([H])C2([H])c4c([H])c([H])c([H])c([H])c4C([H])([H])C([H])([H])C2([H])[H])C3([H])[H])nc1N([H])C(=O)N1C([H])([H])C([H])([H])C([H])([H])C([H])(n2nc(-c3c([H])c([H])c(Oc4c([H])c([H])c(F)c([H])c4F)c([H])c3[H])c(C(=O)N([H])[H])c2N([H])[H])C1([H])[H]

>  <smiles>  (16) 
[H]c1nc(C2([H])C([H])([H])C2([H])[H])c(C([H])([H])[N+]([H])([H])C([H])([H])C([H])([H])Oc2c([H])c([H])c3c(c2[H])C([H])([H])N(C(=O)C([H])(N([H])C(=O)C([H])(N([H])C([H])([H])[H])C([H])([H])[H])C(C([H])([H])[H])(C([H])([H])[H])C([H])([H])[H])C([H])(C(=O)N([H])C2([H])c4c([H])c([H])c([H])c([H])c4C([H])([H])C([H])([H])C2([H])[H])C3([H])[H])nc1N([H])C(=O)N1C([H])([H])C([H])([H])C([H])([H])C([H])(n2nc(-c3c([H])c([H])c(Oc4c([H])c([H])c(F)c([H])c4F)c([H])c3[H])c(C(=O)N([H])[H])c2N([H])[H])C1([H])[H]

$$$$
16:0:0
     RDKit          3D

 93103  0  0  1  0  0  0  0  0999 V2000
  -27.6570  -17.7190   17.5910 C   0  0  0  0  0  3  0  0  0  0  0  0
  -27.0880  -18.9800   17.4440 C   0  0  0  0  0  0  0  0  0  0  0  0
  -28.2900  -17.4100   18.8080 C   0  0  0  0  0  0  0  0  0  0  0  0
  -27.8230  -19.8810   19.5450 C   0  0  0  0  0  0  0  0  0  0  0  0
  -26.1520  -19.4180   16.3220 C   0  0  0  0  0  1  0  0  0  0  0  0
  -27.2170  -19.9700   18.3800 N   0  0  0  0  0  0  0  0  0  0  0  0
  -28.3950  -18.5450   19.7620 N   0  0  0  0  0  0  0  0  0  0  0  0
  -28.7550  -15.9820   18.8910 N   0  0  0  0  0  0  0  0  0  0  0  0
  -27.8620  -15.5640   19.1320 H   0  0  0  0  0  0  0  0  0  0  0  0
  -31.3060  -12.5940   20.2600 C   0  0  0  0  0  0  0  0  0  0  0  0
  -31.1810  -13.7700   21.9900 C   0  0  0  0  0  2  0  0  0  0  0  0
  -30.3250  -14.6480   21.1030 C   0  0  0  0  0  2  0  0  0  0  0  0
  -28.9350  -14.0290   21.2650 C   0  0  0  0  0  3  0  0  0  0  0  0
  -28.4230  -12.7050   21.6810 C   0  0  0  0  0  0  0  0  0  0  0  0
  -29.4850  -11.7180   21.6910 C   0  0  0  0  0  2  0  0  0  0  0  0
  -30.7640  -12.4440   21.4530 N   0  0  0  0  0  0  0  0  0  0  0  0
  -32.4970  -12.8240   20.3260 O   0  0  0  0  0  0  0  0  0  0  0  0
  -30.7000  -14.0230   17.9250 C   0  0  0  0  0  2  0  0  0  0  0  0
  -28.9570  -13.1710   18.5310 C   0  0  0  0  0  2  0  0  0  0  0  0
  -29.1980  -14.6890   17.9870 C   0  0  0  0  0  3  0  0  0  0  0  0
  -30.4330  -13.0350   19.0700 N   0  0  0  0  0  0  0  0  0  0  0  0
  -26.1060  -13.6050   20.8640 C   0  0  0  0  0  0  0  0  0  0  0  0
  -24.8790  -12.9800   20.9320 C   0  0  0  0  0  0  0  0  0  0  0  0
  -25.1650  -11.6110   21.1720 C   0  0  0  0  0  0  0  0  0  0  0  0
  -27.0300  -12.5950   21.2020 N   0  0  0  0  0  0  0  0  0  0  0  0
  -26.4740  -11.3850   21.2660 N   0  0  0  0  0  0  0  0  0  0  0  0
  -24.2960  -10.4920   21.3050 C   0  0  0  0  0  0  0  0  0  0  0  0
  -24.4770   -9.5290   22.3360 C   0  0  0  0  0  3  0  0  0  0  0  0
  -23.6050   -8.4560   22.3680 C   0  0  0  0  0  3  0  0  0  0  0  0
  -22.5830   -8.3020   21.4320 C   0  0  0  0  0  0  0  0  0  0  0  0
  -22.5030   -9.1960   20.3450 C   0  0  0  0  0  3  0  0  0  0  0  0
  -23.3970  -10.2540   20.2560 C   0  0  0  0  0  3  0  0  0  0  0  0
  -21.6830   -7.2570   21.3630 O   0  0  0  0  0  0  0  0  0  0  0  0
  -21.4010   -6.5260   22.4670 C   0  0  0  0  0  0  0  0  0  0  0  0
  -20.9410   -7.1180   23.6710 C   0  0  0  0  0  3  0  0  0  0  0  0
  -20.6250   -6.3230   24.7930 C   0  0  0  0  0  3  0  0  0  0  0  0
  -20.7190   -4.9210   24.6970 C   0  0  0  0  0  0  0  0  0  0  0  0
  -21.1600   -4.3110   23.5130 C   0  0  0  0  0  3  0  0  0  0  0  0
  -21.5060   -5.1190   22.4000 C   0  0  0  0  0  0  0  0  0  0  0  0
  -21.9430   -4.5370   21.2630 F   0  0  0  0  0  0  0  0  0  0  0  0
  -20.3980   -4.1420   25.7670 F   0  0  0  0  0  0  0  0  0  0  0  0
  -23.5570  -13.6580   20.7690 C   0  0  0  0  0  0  0  0  0  0  0  0
  -22.6020  -13.2110   21.5960 N   0  0  0  0  0  0  0  0  0  0  0  0
  -23.4280  -14.6000   19.9620 O   0  0  0  0  0  0  0  0  0  0  0  0
  -22.7220  -12.3310   22.1280 H   0  0  0  0  0  0  0  0  0  0  0  0
  -21.7160  -13.7140   21.6480 H   0  0  0  0  0  0  0  0  0  0  0  0
  -26.3280  -14.9630   20.7050 N   0  0  0  0  0  0  0  0  0  0  0  0
  -25.7290  -15.6360   20.1950 H   0  0  0  0  0  0  0  0  0  0  0  0
  -27.1550  -15.4550   21.0870 H   0  0  0  0  0  0  0  0  0  0  0  0
  -27.9890  -22.4970   19.2050 C   0  0  0  0  0  2  0  0  0  0  0  0
  -27.9870  -21.5480   20.3630 C   0  0  0  0  0  3  0  0  0  0  0  0
  -27.5790  -23.4070   20.3020 C   0  0  0  0  0  3  0  0  0  0  0  0
  -28.2390  -25.0750   20.4680 O   0  0  0  0  0  0  0  0  0  0  0  0
  -25.0600  -31.5930   23.5070 C   0  0  0  0  0  0  0  0  0  0  0  0
  -27.4970  -26.4040   20.5450 C   0  0  0  0  0  0  0  0  0  0  0  0
  -23.9840  -30.2150   21.8060 C   0  0  0  0  0  3  0  0  0  0  0  0
  -25.4580  -28.5780   20.4450 C   0  0  0  0  0  0  0  0  0  0  0  0
  -26.5750  -30.2830   21.8360 C   0  0  0  0  0  2  0  0  0  0  0  0
  -26.6300  -28.8590   21.1590 C   0  0  0  0  0  0  0  0  0  0  0  0
  -27.6580  -27.7780   21.2050 C   0  0  0  0  0  3  0  0  0  0  0  0
  -26.3330  -26.3930   19.7710 C   0  0  0  0  0  3  0  0  0  0  0  0
  -25.3560  -27.3970   19.7340 C   0  0  0  0  0  3  0  0  0  0  0  0
  -24.2900  -29.5630   20.4370 C   0  0  0  0  0  2  0  0  0  0  0  0
  -25.2400  -30.7420   22.4340 N   0  0  0  0  0  0  0  0  0  0  0  0
  -23.9310  -31.8870   23.9300 O   0  0  0  0  0  0  0  0  0  0  0  0
  -23.2350  -29.1970   22.7210 C   0  0  0  0  0  0  0  0  0  0  0  0
  -21.9190  -29.0020   22.4850 N   0  0  0  0  0  0  0  0  0  0  0  0
  -23.8430  -28.5790   23.6070 O   0  0  0  0  0  0  0  0  0  0  0  0
  -21.4760  -29.5510   21.7600 H   0  0  0  0  0  0  0  0  0  0  0  0
  -18.5480  -27.6580   22.7200 C   0  0  0  0  0  0  0  0  0  0  0  0
  -21.0650  -28.0380   23.1960 C   0  0  0  0  0  3  0  0  0  0  0  0
  -21.2740  -26.5990   22.6570 C   0  0  0  0  0  2  0  0  0  0  0  0
  -20.2740  -26.2220   21.5610 C   0  0  0  0  0  2  0  0  0  0  0  0
  -18.8410  -26.3110   22.0860 C   0  0  0  0  0  2  0  0  0  0  0  0
  -19.5890  -28.4750   23.2350 C   0  0  0  0  0  0  0  0  0  0  0  0
  -19.2630  -29.7350   23.7890 C   0  0  0  0  0  3  0  0  0  0  0  0
  -17.9250  -30.1700   23.8420 C   0  0  0  0  0  3  0  0  0  0  0  0
  -16.8980  -29.3510   23.3420 C   0  0  0  0  0  3  0  0  0  0  0  0
  -17.2120  -28.0980   22.7880 C   0  0  0  0  0  3  0  0  0  0  0  0
  -26.2600  -32.2760   24.2280 C   0  0  0  0  0  3  0  0  0  0  0  0
  -25.9050  -33.6950   24.4690 N   0  0  0  0  0  0  0  0  0  0  0  0
  -26.3770  -34.7420   23.7810 C   0  0  0  0  0  0  0  0  0  0  0  0
  -27.2150  -34.6170   22.8860 O   0  0  0  0  0  0  0  0  0  0  0  0
  -25.1810  -33.8510   25.1520 H   0  0  0  0  0  0  0  0  0  0  0  0
  -24.7880  -36.5850   23.1340 C   0  0  0  0  0  1  0  0  0  0  0  0
  -25.8500  -36.1420   24.1520 C   0  0  0  0  0  3  0  0  0  0  0  0
  -27.8310  -36.9850   25.3390 C   0  0  0  0  0  1  0  0  0  0  0  0
  -26.9070  -37.1730   24.2250 N   0  0  0  0  0  0  0  0  0  0  0  0
  -26.5000  -38.1020   24.2960 H   0  0  0  0  0  0  0  0  0  0  0  0
  -26.6120  -31.5690   25.5910 C   0  0  1  0  0  0  0  0  0  0  0  0
  -25.4050  -31.3910   26.5410 C   0  0  0  0  0  1  0  0  0  0  0  0
  -27.2330  -30.1760   25.3430 C   0  0  0  0  0  1  0  0  0  0  0  0
  -27.6910  -32.4010   26.3360 C   0  0  0  0  0  1  0  0  0  0  0  0
  1  3  1  0
  2  1  2  0
  2  6  1  0
  3  8  1  0
  3  7  2  0
  4  7  1  0
  5  2  1  0
  6  4  2  0
  8  9  1  0
 10 17  2  0
 10 16  1  0
 12 13  1  0
 12 11  1  0
 13 14  2  0
 14 15  1  0
 16 15  1  0
 16 11  1  0
 18 20  1  0
 18 21  1  0
 19 21  1  0
 20 19  1  0
 20  8  1  0
 21 10  1  0
 22 23  2  0
 22 25  1  0
 23 24  1  0
 24 26  2  0
 24 27  1  0
 25 26  1  0
 25 14  1  0
 27 28  1  0
 28 29  2  0
 30 29  1  0
 31 30  2  0
 32 31  1  0
 32 27  2  0
 33 30  1  0
 33 34  1  0
 34 35  1  0
 35 36  2  0
 37 36  1  0
 37 41  1  0
 38 37  2  0
 39 34  2  0
 39 38  1  0
 40 39  1  0
 42 23  1  0
 42 43  1  0
 43 46  1  0
 43 45  1  0
 44 42  2  0
 47 22  1  0
 47 49  1  0
 48 47  1  0
 50 52  1  0
 50 51  1  0
 51  4  1  0
 52 51  1  0
 52 53  1  0
 53 55  1  0
 54 65  2  0
 55 60  1  0
 56 64  1  0
 56 66  1  0
 57 59  1  0
 58 64  1  0
 59 60  2  0
 59 58  1  0
 61 55  2  0
 62 61  1  0
 62 57  2  0
 63 57  1  0
 63 56  1  0
 64 54  1  0
 66 68  2  0
 67 66  1  0
 69 67  1  0
 70 79  2  0
 70 75  1  0
 71 67  1  0
 71 75  1  0
 72 71  1  0
 73 74  1  0
 73 72  1  0
 74 70  1  0
 75 76  2  0
 76 77  1  0
 78 77  2  0
 79 78  1  0
 80 54  1  0
 80 81  1  0
 80 90  1  0
 81 84  1  0
 82 86  1  0
 82 81  1  0
 83 82  2  0
 86 85  1  0
 86 88  1  0
 88 89  1  0
 88 87  1  0
 90 93  1  1
 90 91  1  0
 92 90  1  0
M  ISO  4  10 100  21 100  52 101  53 101
M  END
>  <TORSDO>  (17) 
F 17

>  <SCORE>  (17) 
-9.436

>  <name>  (17) 
16

>  <ligand_id>  (17) 
16

>  <original_smiles>  (17) 
[H]c1c(N([H])C2([H])C([H])([H])N(C(=O)N3C([H])([H])C([H])([H])C([H])([H])C([H])(n4nc(-c5c([H])c([H])c(Oc6c([H])c([H])c(F)c([H])c6F)c([H])c5[H])c(C(=O)N([H])[H])c4N([H])[H])C3([H])[H])C2([H])[H])nc(C2([H])C([H])([H])C2([H])Oc2c([H])c([H])c3c(c2[H])C([H])([H])N(C(=O)C([H])(N([H])C(=O)C([H])(N([H])C([H])([H])[H])C([H])([H])[H])C(C([H])([H])[H])(C([H])([H])[H])C([H])([H])[H])C([H])(C(=O)N([H])C2([H])c4c([H])c([H])c([H])c([H])c4C([H])([H])C([H])([H])C2([H])[H])C3([H])[H])nc1C([H])([H])[H]

>  <smiles>  (17) 
[H]c1c(N([H])C2([H])C([H])([H])N(C(=O)N3C([H])([H])C([H])([H])C([H])([H])C([H])(n4nc(-c5c([H])c([H])c(Oc6c([H])c([H])c(F)c([H])c6F)c([H])c5[H])c(C(=O)N([H])[H])c4N([H])[H])C3([H])[H])C2([H])[H])nc(C2([H])C([H])([H])C2([H])Oc2c([H])c([H])c3c(c2[H])C([H])([H])N(C(=O)C([H])(N([H])C(=O)C([H])(N([H])C([H])([H])[H])C([H])([H])[H])C(C([H])([H])[H])(C([H])([H])[H])C([H])([H])[H])C([H])(C(=O)N([H])C2([H])c4c([H])c([H])c([H])c([H])c4C([H])([H])C([H])([H])C2([H])[H])C3([H])[H])nc1C([H])([H])[H]

$$$$
17:0:0
     RDKit          3D

 88 97  0  0  1  0  0  0  0  0999 V2000
  -29.8430  -22.7270   20.9750 C   0  0  0  0  0  3  0  0  0  0  0  0
  -28.6670  -23.0550   20.2140 C   0  0  0  0  0  0  0  0  0  0  0  0
  -30.1540  -21.4210   20.9970 N   0  0  0  0  0  0  0  0  0  0  0  0
  -28.2940  -21.8030   19.7800 N   0  0  0  0  0  0  0  0  0  0  0  0
  -29.2090  -20.7820   20.2430 N   0  0  0  0  0  0  0  0  0  0  0  0
  -30.5540  -15.2120   20.1390 C   0  0  0  0  0  0  0  0  0  0  0  0
  -30.4640  -12.8250   19.1930 C   0  0  0  0  0  2  0  0  0  0  0  0
  -29.5220  -12.6880   17.9740 C   0  0  0  0  0  2  0  0  0  0  0  0
  -28.0780  -12.4160   18.4320 C   0  0  0  0  0  2  0  0  0  0  0  0
  -27.6520  -13.3440   19.5960 C   0  0  0  0  0  3  0  0  0  0  0  0
  -28.7230  -13.4290   20.7050 C   0  0  0  0  0  2  0  0  0  0  0  0
  -29.9470  -13.9370   20.0630 N   0  0  0  0  0  0  0  0  0  0  0  0
  -31.7660  -15.2010   19.8790 O   0  0  0  0  0  0  0  0  0  0  0  0
  -28.1810  -18.3340   20.8370 C   0  0  0  0  0  2  0  0  0  0  0  0
  -28.4480  -16.7850   20.5920 C   0  0  0  0  0  2  0  0  0  0  0  0
  -30.3520  -18.0010   20.0800 C   0  0  0  0  0  2  0  0  0  0  0  0
  -29.1530  -19.1660   19.9810 C   0  0  0  0  0  3  0  0  0  0  0  0
  -29.8630  -16.5050   20.2480 N   0  0  0  0  0  0  0  0  0  0  0  0
  -25.2740  -13.8730   20.3640 C   0  0  0  0  0  0  0  0  0  0  0  0
  -24.2300  -13.0800   20.7480 C   0  0  0  0  0  0  0  0  0  0  0  0
  -24.7230  -11.7390   20.7200 C   0  0  0  0  0  0  0  0  0  0  0  0
  -26.3320  -13.0160   20.1180 N   0  0  0  0  0  0  0  0  0  0  0  0
  -26.0120  -11.7270   20.3990 N   0  0  0  0  0  0  0  0  0  0  0  0
  -24.0220  -10.4650   20.9210 C   0  0  0  0  0  0  0  0  0  0  0  0
  -24.4570   -9.5260   21.8830 C   0  0  0  0  0  3  0  0  0  0  0  0
  -23.7520   -8.3180   22.0730 C   0  0  0  0  0  3  0  0  0  0  0  0
  -22.5980   -8.0400   21.3010 C   0  0  0  0  0  0  0  0  0  0  0  0
  -22.1850   -8.9680   20.3280 C   0  0  0  0  0  3  0  0  0  0  0  0
  -22.8900  -10.1670   20.1370 C   0  0  0  0  0  3  0  0  0  0  0  0
  -21.8660   -6.8830   21.3980 O   0  0  0  0  0  0  0  0  0  0  0  0
  -21.7750   -6.1860   22.5770 C   0  0  0  0  0  0  0  0  0  0  0  0
  -21.2600   -6.7750   23.7530 C   0  0  0  0  0  3  0  0  0  0  0  0
  -21.1180   -6.0030   24.9230 C   0  0  0  0  0  3  0  0  0  0  0  0
  -21.4810   -4.6440   24.9190 C   0  0  0  0  0  0  0  0  0  0  0  0
  -21.9900   -4.0530   23.7480 C   0  0  0  0  0  3  0  0  0  0  0  0
  -22.1330   -4.8220   22.5790 C   0  0  0  0  0  0  0  0  0  0  0  0
  -22.6030   -4.2450   21.4480 F   0  0  0  0  0  0  0  0  0  0  0  0
  -21.3380   -3.8990   26.0390 F   0  0  0  0  0  0  0  0  0  0  0  0
  -22.8270  -13.5320   21.0230 C   0  0  0  0  0  0  0  0  0  0  0  0
  -22.1200  -12.8340   21.9050 N   0  0  0  0  0  0  0  0  0  0  0  0
  -22.3650  -14.5420   20.4930 O   0  0  0  0  0  0  0  0  0  0  0  0
  -22.5100  -12.0190   22.3570 H   0  0  0  0  0  0  0  0  0  0  0  0
  -21.1780  -13.1190   22.1330 H   0  0  0  0  0  0  0  0  0  0  0  0
  -25.3990  -15.2450   20.1760 N   0  0  0  0  0  0  0  0  0  0  0  0
  -24.6120  -15.8760   20.2870 H   0  0  0  0  0  0  0  0  0  0  0  0
  -26.2270  -15.7020   19.8190 H   0  0  0  0  0  0  0  0  0  0  0  0
  -27.8370  -24.5180   19.9570 C   0  0  0  0  0  2  0  0  0  0  0  0
  -28.1930  -26.0510   20.2480 O   0  0  0  0  0  0  0  0  0  0  0  0
  -24.6350  -31.8880   23.2450 C   0  0  0  0  0  0  0  0  0  0  0  0
  -27.1830  -27.1150   20.1750 C   0  0  0  0  0  0  0  0  0  0  0  0
  -23.4310  -30.5060   21.6010 C   0  0  0  0  0  3  0  0  0  0  0  0
  -24.8730  -28.9340   20.1560 C   0  0  0  0  0  0  0  0  0  0  0  0
  -25.9920  -30.7440   21.4380 C   0  0  0  0  0  2  0  0  0  0  0  0
  -26.0600  -29.3490   20.7730 C   0  0  0  0  0  0  0  0  0  0  0  0
  -27.2130  -28.4580   20.7650 C   0  0  0  0  0  3  0  0  0  0  0  0
  -25.9690  -26.8340   19.5060 C   0  0  0  0  0  3  0  0  0  0  0  0
  -24.8470  -27.6940   19.5040 C   0  0  0  0  0  3  0  0  0  0  0  0
  -23.6500  -29.8400   20.2170 C   0  0  0  0  0  2  0  0  0  0  0  0
  -24.7070  -31.0700   22.1480 N   0  0  0  0  0  0  0  0  0  0  0  0
  -23.5500  -32.1720   23.7760 O   0  0  0  0  0  0  0  0  0  0  0  0
  -22.7480  -29.4960   22.5590 C   0  0  0  0  0  0  0  0  0  0  0  0
  -21.4200  -29.3230   22.4320 N   0  0  0  0  0  0  0  0  0  0  0  0
  -23.4200  -28.8700   23.3830 O   0  0  0  0  0  0  0  0  0  0  0  0
  -20.9340  -29.8800   21.7430 H   0  0  0  0  0  0  0  0  0  0  0  0
  -18.0420  -28.1090   22.9340 C   0  0  0  0  0  0  0  0  0  0  0  0
  -20.6010  -28.3800   23.2000 C   0  0  0  0  0  3  0  0  0  0  0  0
  -20.7070  -26.9500   22.6200 C   0  0  0  0  0  2  0  0  0  0  0  0
  -19.6050  -26.6280   21.6050 C   0  0  0  0  0  2  0  0  0  0  0  0
  -18.2230  -26.7640   22.2490 C   0  0  0  0  0  2  0  0  0  0  0  0
  -19.1580  -28.8740   23.3650 C   0  0  0  0  0  0  0  0  0  0  0  0
  -18.9320  -30.1310   23.9680 C   0  0  0  0  0  3  0  0  0  0  0  0
  -17.6250  -30.6230   24.1420 C   0  0  0  0  0  3  0  0  0  0  0  0
  -16.5240  -29.8550   23.7240 C   0  0  0  0  0  3  0  0  0  0  0  0
  -16.7340  -28.6000   23.1270 C   0  0  0  0  0  3  0  0  0  0  0  0
  -25.9140  -32.5220   23.8720 C   0  0  0  0  0  3  0  0  0  0  0  0
  -25.6050  -33.9230   24.2050 N   0  0  0  0  0  0  0  0  0  0  0  0
  -25.9100  -34.9780   23.4390 C   0  0  0  0  0  0  0  0  0  0  0  0
  -26.5450  -34.8750   22.3860 O   0  0  0  0  0  0  0  0  0  0  0  0
  -25.0380  -34.0760   25.0260 H   0  0  0  0  0  0  0  0  0  0  0  0
  -24.1490  -36.7570   23.1660 C   0  0  0  0  0  1  0  0  0  0  0  0
  -25.4360  -36.3670   23.9110 C   0  0  0  0  0  3  0  0  0  0  0  0
  -27.6020  -37.2830   24.6230 C   0  0  0  0  0  1  0  0  0  0  0  0
  -26.4510  -37.4290   23.7350 N   0  0  0  0  0  0  0  0  0  0  0  0
  -26.0440  -38.3470   23.8920 H   0  0  0  0  0  0  0  0  0  0  0  0
  -26.4190  -31.7540   25.1560 C   0  0  1  0  0  0  0  0  0  0  0  0
  -25.3170  -31.5280   26.2190 C   0  0  0  0  0  1  0  0  0  0  0  0
  -26.9970  -30.3710   24.7800 C   0  0  0  0  0  1  0  0  0  0  0  0
  -27.5690  -32.5450   25.8220 C   0  0  0  0  0  1  0  0  0  0  0  0
  1  3  2  0
  2  1  1  0
  4  2  2  0
  4  5  1  0
  5  3  1  0
  6 18  1  0
  7 12  1  0
  8  9  1  0
  8  7  1  0
 10  9  1  0
 10 22  1  0
 10 11  1  0
 12  6  1  0
 12 11  1  0
 13  6  2  0
 15 14  1  0
 16 18  1  0
 17 16  1  0
 17  5  1  0
 17 14  1  0
 18 15  1  0
 19 20  2  0
 20 39  1  0
 21 20  1  0
 21 24  1  0
 22 19  1  0
 22 23  1  0
 23 21  2  0
 24 25  1  0
 25 26  2  0
 27 30  1  0
 27 26  1  0
 28 27  2  0
 29 28  1  0
 29 24  2  0
 30 31  1  0
 31 36  2  0
 31 32  1  0
 32 33  2  0
 34 33  1  0
 34 38  1  0
 35 34  2  0
 36 35  1  0
 37 36  1  0
 39 40  1  0
 40 43  1  0
 40 42  1  0
 41 39  2  0
 44 45  1  0
 44 19  1  0
 46 44  1  0
 47  2  1  0
 47 48  1  0
 49 60  2  0
 50 48  1  0
 50 55  1  0
 51 59  1  0
 51 61  1  0
 52 58  1  0
 52 54  1  0
 53 59  1  0
 54 53  1  0
 55 54  2  0
 56 50  2  0
 57 56  1  0
 57 52  2  0
 58 51  1  0
 59 49  1  0
 61 63  2  0
 62 61  1  0
 64 62  1  0
 65 74  2  0
 65 70  1  0
 66 62  1  0
 66 70  1  0
 67 66  1  0
 68 69  1  0
 68 67  1  0
 69 65  1  0
 70 71  2  0
 71 72  1  0
 73 72  2  0
 74 73  1  0
 75 49  1  0
 75 76  1  0
 75 85  1  0
 76 79  1  0
 77 81  1  0
 77 76  1  0
 78 77  2  0
 81 80  1  0
 83 84  1  0
 83 81  1  0
 83 82  1  0
 85 88  1  1
 85 86  1  0
 87 85  1  0
M  ISO  4   6 100  18 100  47 101  48 101
M  END
>  <TORSDO>  (18) 
F 17

>  <SCORE>  (18) 
-15.247

>  <name>  (18) 
17

>  <ligand_id>  (18) 
17

>  <original_smiles>  (18) 
[H]c1nn(C2([H])C([H])([H])N(C(=O)N3C([H])([H])C([H])([H])C([H])([H])C([H])(n4nc(-c5c([H])c([H])c(Oc6c([H])c([H])c(F)c([H])c6F)c([H])c5[H])c(C(=O)N([H])[H])c4N([H])[H])C3([H])[H])C([H])([H])C2([H])[H])nc1C([H])([H])Oc1c([H])c([H])c2c(c1[H])C([H])([H])N(C(=O)C([H])(N([H])C(=O)C([H])(N([H])C([H])([H])[H])C([H])([H])[H])C(C([H])([H])[H])(C([H])([H])[H])C([H])([H])[H])C([H])(C(=O)N([H])C1([H])c3c([H])c([H])c([H])c([H])c3C([H])([H])C([H])([H])C1([H])[H])C2([H])[H]

>  <smiles>  (18) 
[H]c1nn(C2([H])C([H])([H])N(C(=O)N3C([H])([H])C([H])([H])C([H])([H])C([H])(n4nc(-c5c([H])c([H])c(Oc6c([H])c([H])c(F)c([H])c6F)c([H])c5[H])c(C(=O)N([H])[H])c4N([H])[H])C3([H])[H])C([H])([H])C2([H])[H])nc1C([H])([H])Oc1c([H])c([H])c2c(c1[H])C([H])([H])N(C(=O)C([H])(N([H])C(=O)C([H])(N([H])C([H])([H])[H])C([H])([H])[H])C(C([H])([H])[H])(C([H])([H])[H])C([H])([H])[H])C([H])(C(=O)N([H])C1([H])c3c([H])c([H])c([H])c([H])c3C([H])([H])C([H])([H])C1([H])[H])C2([H])[H]

$$$$
18:0:0
     RDKit          3D

 93102  0  0  1  0  0  0  0  0999 V2000
  -31.0180  -23.0550   20.5030 C   0  0  0  0  0  0  0  0  0  0  0  0
  -28.9400  -23.8250   20.2830 C   0  0  0  0  0  0  0  0  0  0  0  0
  -29.3520  -21.5890   20.4250 C   0  0  0  0  0  0  0  0  0  0  0  0
  -32.5040  -23.3250   20.6110 C   0  0  0  0  0  1  0  0  0  0  0  0
  -30.2310  -24.1250   20.3850 N   0  0  0  0  0  4  0  0  0  0  0  0
  -30.6560  -21.7720   20.5240 N   0  0  0  0  0  0  0  0  0  0  0  0
  -28.4430  -22.5640   20.3050 N   0  0  0  0  0  2  0  0  0  0  0  0
  -28.8800  -20.2600   20.4480 N   0  0  0  0  0  0  0  0  0  0  0  0
  -27.8720  -20.1940   20.3810 H   0  0  0  0  0  0  0  0  0  0  0  0
  -30.6420  -14.6350   20.3150 C   0  0  0  0  0  0  0  0  0  0  0  0
  -30.3370  -12.4020   19.2820 C   0  0  0  0  0  2  0  0  0  0  0  0
  -29.3870  -12.5220   18.0740 C   0  0  0  0  0  2  0  0  0  0  0  0
  -27.9230  -12.3690   18.5270 C   0  0  0  0  0  2  0  0  0  0  0  0
  -27.5780  -13.2460   19.7620 C   0  0  0  0  0  3  0  0  0  0  0  0
  -28.6570  -13.1490   20.8630 C   0  0  0  0  0  2  0  0  0  0  0  0
  -29.9500  -13.4550   20.2420 N   0  0  0  0  0  0  0  0  0  0  0  0
  -31.8320  -14.6810   19.9850 O   0  0  0  0  0  0  0  0  0  0  0  0
  -28.9750  -17.9650   19.3470 C   0  0  0  0  0  2  0  0  0  0  0  0
  -29.6930  -18.1400   21.6600 C   0  0  0  0  0  2  0  0  0  0  0  0
  -29.7300  -16.5970   19.2190 C   0  0  0  0  0  2  0  0  0  0  0  0
  -30.4370  -16.7600   21.5240 C   0  0  0  0  0  2  0  0  0  0  0  0
  -29.6220  -18.9600   20.3440 C   0  0  0  0  0  3  0  0  0  0  0  0
  -29.9490  -15.8230   20.4740 N   0  0  0  0  0  0  0  0  0  0  0  0
  -25.2040  -13.8300   20.5420 C   0  0  0  0  0  0  0  0  0  0  0  0
  -24.1420  -13.0510   20.9150 C   0  0  0  0  0  0  0  0  0  0  0  0
  -24.6030  -11.7000   20.8560 C   0  0  0  0  0  0  0  0  0  0  0  0
  -26.2430  -12.9530   20.2740 N   0  0  0  0  0  0  0  0  0  0  0  0
  -25.8890  -11.6660   20.5270 N   0  0  0  0  0  0  0  0  0  0  0  0
  -23.8770  -10.4360   21.0410 C   0  0  0  0  0  0  0  0  0  0  0  0
  -24.3060   -9.4660   21.9740 C   0  0  0  0  0  3  0  0  0  0  0  0
  -23.5800   -8.2680   22.1460 C   0  0  0  0  0  3  0  0  0  0  0  0
  -22.4120   -8.0290   21.3850 C   0  0  0  0  0  0  0  0  0  0  0  0
  -22.0020   -8.9880   20.4410 C   0  0  0  0  0  3  0  0  0  0  0  0
  -22.7280  -10.1780   20.2670 C   0  0  0  0  0  3  0  0  0  0  0  0
  -21.6570   -6.8840   21.4660 O   0  0  0  0  0  0  0  0  0  0  0  0
  -21.5790   -6.1550   22.6260 C   0  0  0  0  0  0  0  0  0  0  0  0
  -21.1020   -6.7170   23.8290 C   0  0  0  0  0  3  0  0  0  0  0  0
  -20.9720   -5.9150   24.9790 C   0  0  0  0  0  3  0  0  0  0  0  0
  -21.3080   -4.5480   24.9270 C   0  0  0  0  0  0  0  0  0  0  0  0
  -21.7780   -3.9850   23.7280 C   0  0  0  0  0  3  0  0  0  0  0  0
  -21.9100   -4.7850   22.5800 C   0  0  0  0  0  0  0  0  0  0  0  0
  -22.3430   -4.2320   21.4220 F   0  0  0  0  0  0  0  0  0  0  0  0
  -21.1760   -3.7740   26.0290 F   0  0  0  0  0  0  0  0  0  0  0  0
  -22.7510  -13.5260   21.2170 C   0  0  0  0  0  0  0  0  0  0  0  0
  -22.0390  -12.8240   22.0900 N   0  0  0  0  0  0  0  0  0  0  0  0
  -22.3040  -14.5550   20.7120 O   0  0  0  0  0  0  0  0  0  0  0  0
  -22.4140  -11.9930   22.5220 H   0  0  0  0  0  0  0  0  0  0  0  0
  -21.1050  -13.1250   22.3340 H   0  0  0  0  0  0  0  0  0  0  0  0
  -25.3690  -15.2020   20.3830 N   0  0  0  0  0  0  0  0  0  0  0  0
  -24.6110  -15.8610   20.5260 H   0  0  0  0  0  0  0  0  0  0  0  0
  -26.2280  -15.6450   20.0820 H   0  0  0  0  0  0  0  0  0  0  0  0
  -27.9300  -24.9960   20.0220 C   0  0  0  0  0  2  0  0  0  0  0  0
  -28.2590  -26.4290   20.2580 O   0  0  0  0  0  0  0  0  0  0  0  0
  -24.6090  -31.8880   23.2810 C   0  0  0  0  0  0  0  0  0  0  0  0
  -27.1710  -27.3200   20.1930 C   0  0  0  0  0  0  0  0  0  0  0  0
  -23.3930  -30.5140   21.6320 C   0  0  0  0  0  3  0  0  0  0  0  0
  -24.8290  -28.9700   20.1950 C   0  0  0  0  0  0  0  0  0  0  0  0
  -25.9380  -30.8050   21.4580 C   0  0  0  0  0  2  0  0  0  0  0  0
  -26.0040  -29.4330   20.7980 C   0  0  0  0  0  0  0  0  0  0  0  0
  -27.1790  -28.6200   20.7900 C   0  0  0  0  0  3  0  0  0  0  0  0
  -25.9680  -26.9260   19.5540 C   0  0  0  0  0  3  0  0  0  0  0  0
  -24.8130  -27.7200   19.5650 C   0  0  0  0  0  3  0  0  0  0  0  0
  -23.6020  -29.8540   20.2470 C   0  0  0  0  0  2  0  0  0  0  0  0
  -24.6660  -31.0850   22.1800 N   0  0  0  0  0  0  0  0  0  0  0  0
  -23.5270  -32.1730   23.8160 O   0  0  0  0  0  0  0  0  0  0  0  0
  -22.7210  -29.4920   22.5820 C   0  0  0  0  0  0  0  0  0  0  0  0
  -21.3950  -29.3210   22.4470 N   0  0  0  0  0  0  0  0  0  0  0  0
  -23.3920  -28.8580   23.4010 O   0  0  0  0  0  0  0  0  0  0  0  0
  -20.9150  -29.8830   21.7590 H   0  0  0  0  0  0  0  0  0  0  0  0
  -18.0060  -28.1530   22.9320 C   0  0  0  0  0  0  0  0  0  0  0  0
  -20.5650  -28.3870   23.2110 C   0  0  0  0  0  3  0  0  0  0  0  0
  -20.6560  -26.9570   22.6300 C   0  0  0  0  0  2  0  0  0  0  0  0
  -19.5540  -26.6490   21.6110 C   0  0  0  0  0  2  0  0  0  0  0  0
  -18.1720  -26.8040   22.2510 C   0  0  0  0  0  2  0  0  0  0  0  0
  -19.1300  -28.9030   23.3680 C   0  0  0  0  0  0  0  0  0  0  0  0
  -18.9210  -30.1650   23.9650 C   0  0  0  0  0  3  0  0  0  0  0  0
  -17.6190  -30.6770   24.1300 C   0  0  0  0  0  3  0  0  0  0  0  0
  -16.5090  -29.9240   23.7090 C   0  0  0  0  0  3  0  0  0  0  0  0
  -16.7040  -28.6640   23.1160 C   0  0  0  0  0  3  0  0  0  0  0  0
  -25.8970  -32.5030   23.9070 C   0  0  0  0  0  3  0  0  0  0  0  0
  -25.6000  -33.9050   24.2400 N   0  0  0  0  0  0  0  0  0  0  0  0
  -25.9170  -34.9530   23.4690 C   0  0  0  0  0  0  0  0  0  0  0  0
  -26.5590  -34.8440   22.4200 O   0  0  0  0  0  0  0  0  0  0  0  0
  -25.0280  -34.0640   25.0550 H   0  0  0  0  0  0  0  0  0  0  0  0
  -24.1720  -36.7410   23.1700 C   0  0  0  0  0  1  0  0  0  0  0  0
  -25.4450  -36.3450   23.9340 C   0  0  0  0  0  3  0  0  0  0  0  0
  -27.6100  -37.2380   24.6710 C   0  0  0  0  0  1  0  0  0  0  0  0
  -26.4700  -37.3990   23.7720 N   0  0  0  0  0  0  0  0  0  0  0  0
  -26.0690  -38.3190   23.9310 H   0  0  0  0  0  0  0  0  0  0  0  0
  -26.4000  -31.7250   25.1830 C   0  0  1  0  0  0  0  0  0  0  0  0
  -25.3010  -31.4970   26.2470 C   0  0  0  0  0  1  0  0  0  0  0  0
  -26.9710  -30.3400   24.7940 C   0  0  0  0  0  1  0  0  0  0  0  0
  -27.5560  -32.5060   25.8510 C   0  0  0  0  0  1  0  0  0  0  0  0
  1  6  1  0
  1  4  1  0
  2  7  1  0
  2  5  2  0
  3  8  1  0
  3  6  2  0
  5  1  2  0
  7  3  1  0
  9  8  1  0
 10 23  1  0
 11 16  1  0
 12 13  1  0
 12 11  1  0
 14 13  1  0
 14 27  1  0
 14 15  1  0
 16 10  1  0
 16 15  1  0
 17 10  2  0
 18 22  1  0
 20 18  1  0
 20 23  1  0
 21 19  1  0
 22  8  1  0
 22 19  1  0
 23 21  1  0
 24 25  2  0
 25 44  1  0
 26 25  1  0
 26 29  1  0
 27 28  1  0
 27 24  1  0
 28 26  2  0
 29 30  1  0
 30 31  2  0
 32 35  1  0
 32 31  1  0
 33 32  2  0
 34 33  1  0
 34 29  2  0
 35 36  1  0
 36 37  1  0
 37 38  2  0
 39 38  1  0
 39 43  1  0
 40 39  2  0
 41 36  2  0
 41 40  1  0
 42 41  1  0
 44 45  1  0
 45 48  1  0
 45 47  1  0
 46 44  2  0
 49 50  1  0
 49 24  1  0
 51 49  1  0
 52 53  1  0
 52  2  1  0
 54 65  2  0
 55 53  1  0
 55 60  1  0
 56 64  1  0
 56 66  1  0
 57 63  1  0
 57 59  1  0
 58 64  1  0
 59 58  1  0
 60 59  2  0
 61 62  1  0
 61 55  2  0
 62 57  2  0
 63 56  1  0
 64 54  1  0
 66 68  2  0
 67 66  1  0
 69 67  1  0
 70 79  2  0
 70 75  1  0
 71 67  1  0
 71 75  1  0
 72 71  1  0
 73 74  1  0
 73 72  1  0
 74 70  1  0
 75 76  2  0
 76 77  1  0
 78 77  2  0
 79 78  1  0
 80 54  1  0
 80 81  1  0
 80 90  1  0
 81 84  1  0
 82 86  1  0
 82 81  1  0
 83 82  2  0
 86 85  1  0
 88 89  1  0
 88 86  1  0
 88 87  1  0
 90 93  1  1
 90 91  1  0
 92 90  1  0
M  ISO  4  10 100  23 100  52 101  53 101
M  END
>  <TORSDO>  (19) 
F 17

>  <SCORE>  (19) 
-14.637

>  <name>  (19) 
18

>  <ligand_id>  (19) 
18

>  <original_smiles>  (19) 
[H]c1c([H])c([H])c2c(c1[H])C([H])([H])C([H])([H])C([H])([H])C2([H])N([H])C(=O)C1([H])N(C(=O)C([H])(N([H])C(=O)C([H])(N([H])C([H])([H])[H])C([H])([H])[H])C(C([H])([H])[H])(C([H])([H])[H])C([H])([H])[H])C([H])([H])c2c([H])c(OC([H])([H])c3nc(N([H])C4([H])C([H])([H])C([H])([H])N(C(=O)N5C([H])([H])C([H])([H])C([H])([H])C([H])(n6nc(-c7c([H])c([H])c(Oc8c([H])c([H])c(F)c([H])c8F)c([H])c7[H])c(C(=O)N([H])[H])c6N([H])[H])C5([H])[H])C([H])([H])C4([H])[H])nc(C([H])([H])[H])n3)c([H])c([H])c2C1([H])[H]

>  <smiles>  (19) 
[H]c1c([H])c([H])c2c(c1[H])C([H])([H])C([H])([H])C([H])([H])C2([H])N([H])C(=O)C1([H])N(C(=O)C([H])(N([H])C(=O)C([H])(N([H])C([H])([H])[H])C([H])([H])[H])C(C([H])([H])[H])(C([H])([H])[H])C([H])([H])[H])C([H])([H])c2c([H])c(OC([H])([H])c3nc(N([H])C4([H])C([H])([H])C([H])([H])N(C(=O)N5C([H])([H])C([H])([H])C([H])([H])C([H])(n6nc(-c7c([H])c([H])c(Oc8c([H])c([H])c(F)c([H])c8F)c([H])c7[H])c(C(=O)N([H])[H])c6N([H])[H])C5([H])[H])C([H])([H])C4([H])[H])nc(C([H])([H])[H])n3)c([H])c([H])c2C1([H])[H]

$$$$
19:0:0
     RDKit          3D

 98108  0  0  1  0  0  0  0  0999 V2000
  -27.4870  -22.1980   18.9160 C   0  0  0  0  0  3  0  0  0  0  0  0
  -28.7400  -22.8220   19.0390 C   0  0  0  0  0  0  0  0  0  0  0  0
  -29.7220  -22.1150   19.7450 C   0  0  0  0  0  0  0  0  0  0  0  0
  -28.2460  -20.4050   20.0990 C   0  0  0  0  0  0  0  0  0  0  0  0
  -29.0250  -24.1980   18.4500 C   0  0  0  0  0  2  0  0  0  0  0  0
  -31.0790  -22.7350   20.0340 C   0  0  0  0  0  2  0  0  0  0  0  0
  -31.3440  -24.0070   19.2020 C   0  0  0  0  0  2  0  0  0  0  0  0
  -27.2460  -20.9850   19.4580 N   0  0  0  0  0  0  0  0  0  0  0  0
  -29.4640  -20.9050   20.2750 N   0  0  0  0  0  0  0  0  0  0  0  0
  -27.9970  -19.1440   20.5860 N   0  0  0  0  0  0  0  0  0  0  0  0
  -30.1380  -24.8720   19.1680 N   0  0  1  0  0  4  0  0  0  0  0  0
  -27.0590  -18.8190   20.3910 H   0  0  0  0  0  0  0  0  0  0  0  0
  -29.8270  -24.9870   20.1240 H   0  0  0  0  0  0  0  0  0  0  0  0
  -30.9020  -14.3610   19.8050 C   0  0  0  0  0  0  0  0  0  0  0  0
  -30.4440  -12.2280   18.6770 C   0  0  0  0  0  2  0  0  0  0  0  0
  -29.3930  -12.4580   17.5720 C   0  0  0  0  0  2  0  0  0  0  0  0
  -27.9660  -12.3310   18.1400 C   0  0  0  0  0  2  0  0  0  0  0  0
  -27.7600  -13.1560   19.4390 C   0  0  0  0  0  3  0  0  0  0  0  0
  -28.9170  -12.9210   20.4330 C   0  0  0  0  0  2  0  0  0  0  0  0
  -30.1790  -13.2110   19.7380 N   0  0  0  0  0  0  0  0  0  0  0  0
  -32.0160  -14.4700   19.2820 O   0  0  0  0  0  0  0  0  0  0  0  0
  -29.2110  -17.5710   19.1200 C   0  0  0  0  0  2  0  0  0  0  0  0
  -28.8230  -16.9630   21.5180 C   0  0  0  0  0  2  0  0  0  0  0  0
  -30.3740  -16.5810   19.0840 C   0  0  0  0  0  2  0  0  0  0  0  0
  -30.0090  -15.9750   21.4270 C   0  0  0  0  0  2  0  0  0  0  0  0
  -29.0450  -18.1300   20.5390 C   0  0  0  0  0  3  0  0  0  0  0  0
  -30.1850  -15.4820   20.0490 N   0  0  0  0  0  0  0  0  0  0  0  0
  -25.4610  -13.7630   20.4220 C   0  0  0  0  0  0  0  0  0  0  0  0
  -24.4260  -12.9910   20.8740 C   0  0  0  0  0  0  0  0  0  0  0  0
  -24.8560  -11.6350   20.7370 C   0  0  0  0  0  0  0  0  0  0  0  0
  -26.4610  -12.8790   20.0490 N   0  0  0  0  0  0  0  0  0  0  0  0
  -26.1050  -11.5910   20.2930 N   0  0  0  0  0  0  0  0  0  0  0  0
  -24.1300  -10.3760   20.9480 C   0  0  0  0  0  0  0  0  0  0  0  0
  -24.5750   -9.4160   21.8850 C   0  0  0  0  0  3  0  0  0  0  0  0
  -23.8500   -8.2200   22.0820 C   0  0  0  0  0  3  0  0  0  0  0  0
  -22.6680   -7.9770   21.3430 C   0  0  0  0  0  0  0  0  0  0  0  0
  -22.2420   -8.9270   20.3990 C   0  0  0  0  0  3  0  0  0  0  0  0
  -22.9660  -10.1130   20.1980 C   0  0  0  0  0  3  0  0  0  0  0  0
  -21.9110   -6.8350   21.4520 O   0  0  0  0  0  0  0  0  0  0  0  0
  -21.7980   -6.1570   22.6390 C   0  0  0  0  0  0  0  0  0  0  0  0
  -21.2770   -6.7680   23.8000 C   0  0  0  0  0  3  0  0  0  0  0  0
  -21.1130   -6.0140   24.9790 C   0  0  0  0  0  3  0  0  0  0  0  0
  -21.4590   -4.6500   24.9980 C   0  0  0  0  0  0  0  0  0  0  0  0
  -21.9730   -4.0380   23.8400 C   0  0  0  0  0  3  0  0  0  0  0  0
  -22.1370   -4.7890   22.6640 C   0  0  0  0  0  0  0  0  0  0  0  0
  -22.6130   -4.1900   21.5450 F   0  0  0  0  0  0  0  0  0  0  0  0
  -21.2940   -3.9230   26.1280 F   0  0  0  0  0  0  0  0  0  0  0  0
  -23.0740  -13.4740   21.3150 C   0  0  0  0  0  0  0  0  0  0  0  0
  -22.4450  -12.7720   22.2500 N   0  0  0  0  0  0  0  0  0  0  0  0
  -22.5880  -14.5110   20.8650 O   0  0  0  0  0  0  0  0  0  0  0  0
  -22.8540  -11.9310   22.6350 H   0  0  0  0  0  0  0  0  0  0  0  0
  -21.5430  -13.0750   22.5850 H   0  0  0  0  0  0  0  0  0  0  0  0
  -25.6270  -15.1370   20.2750 N   0  0  0  0  0  0  0  0  0  0  0  0
  -24.8770  -15.7940   20.4560 H   0  0  0  0  0  0  0  0  0  0  0  0
  -26.4390  -15.5640   19.8460 H   0  0  0  0  0  0  0  0  0  0  0  0
  -30.3680  -26.2760   18.7280 C   0  0  0  0  0  2  0  0  0  0  0  0
  -29.7250  -27.2610   19.7280 C   0  0  0  0  0  2  0  0  0  0  0  0
  -28.4910  -26.6700   20.1190 O   0  0  0  0  0  0  0  0  0  0  0  0
  -24.4690  -31.7380   23.1270 C   0  0  0  0  0  0  0  0  0  0  0  0
  -27.3550  -27.4320   20.1010 C   0  0  0  0  0  0  0  0  0  0  0  0
  -23.3640  -30.3170   21.4290 C   0  0  0  0  0  3  0  0  0  0  0  0
  -24.9150  -28.8370   20.0510 C   0  0  0  0  0  0  0  0  0  0  0  0
  -25.8820  -30.7570   21.3270 C   0  0  0  0  0  2  0  0  0  0  0  0
  -26.0340  -29.3990   20.6780 C   0  0  0  0  0  0  0  0  0  0  0  0
  -27.2630  -28.7060   20.7040 C   0  0  0  0  0  3  0  0  0  0  0  0
  -26.2170  -26.8660   19.4950 C   0  0  0  0  0  3  0  0  0  0  0  0
  -24.9990  -27.5660   19.4550 C   0  0  0  0  0  3  0  0  0  0  0  0
  -23.6430  -29.6550   20.0540 C   0  0  0  0  0  2  0  0  0  0  0  0
  -24.5870  -30.9510   22.0200 N   0  0  0  0  0  0  0  0  0  0  0  0
  -23.3620  -31.9760   23.6290 O   0  0  0  0  0  0  0  0  0  0  0  0
  -22.7050  -29.2720   22.3570 C   0  0  0  0  0  0  0  0  0  0  0  0
  -21.3850  -29.0800   22.1980 N   0  0  0  0  0  0  0  0  0  0  0  0
  -23.3790  -28.6360   23.1720 O   0  0  0  0  0  0  0  0  0  0  0  0
  -20.9050  -29.6460   21.5120 H   0  0  0  0  0  0  0  0  0  0  0  0
  -18.0040  -27.8870   22.6350 C   0  0  0  0  0  0  0  0  0  0  0  0
  -20.5610  -28.1230   22.9350 C   0  0  0  0  0  3  0  0  0  0  0  0
  -20.6620  -26.7100   22.3140 C   0  0  0  0  0  2  0  0  0  0  0  0
  -19.5670  -26.4250   21.2820 C   0  0  0  0  0  2  0  0  0  0  0  0
  -18.1810  -26.5580   21.9190 C   0  0  0  0  0  2  0  0  0  0  0  0
  -19.1230  -28.6290   23.0970 C   0  0  0  0  0  0  0  0  0  0  0  0
  -18.9050  -29.8750   23.7240 C   0  0  0  0  0  3  0  0  0  0  0  0
  -17.6010  -30.3780   23.8930 C   0  0  0  0  0  3  0  0  0  0  0  0
  -16.4970  -29.6320   23.4480 C   0  0  0  0  0  3  0  0  0  0  0  0
  -16.6990  -28.3880   22.8240 C   0  0  0  0  0  3  0  0  0  0  0  0
  -25.7150  -32.3950   23.7980 C   0  0  0  0  0  3  0  0  0  0  0  0
  -25.3600  -33.7810   24.1270 N   0  0  0  0  0  0  0  0  0  0  0  0
  -25.6960  -34.8460   23.3880 C   0  0  0  0  0  0  0  0  0  0  0  0
  -26.4070  -34.7660   22.3820 O   0  0  0  0  0  0  0  0  0  0  0  0
  -24.7290  -33.9150   24.9040 H   0  0  0  0  0  0  0  0  0  0  0  0
  -23.9440  -36.6000   22.9690 C   0  0  0  0  0  1  0  0  0  0  0  0
  -25.1560  -36.2180   23.8330 C   0  0  0  0  0  3  0  0  0  0  0  0
  -27.2270  -37.1470   24.7710 C   0  0  0  0  0  1  0  0  0  0  0  0
  -26.1680  -37.2950   23.7760 N   0  0  0  0  0  0  0  0  0  0  0  0
  -25.7340  -38.2050   23.9060 H   0  0  0  0  0  0  0  0  0  0  0  0
  -26.2080  -31.6220   25.0830 C   0  0  1  0  0  0  0  0  0  0  0  0
  -25.0870  -31.3460   26.1100 C   0  0  0  0  0  1  0  0  0  0  0  0
  -26.8380  -30.2630   24.6950 C   0  0  0  0  0  1  0  0  0  0  0  0
  -27.3150  -32.4370   25.7920 C   0  0  0  0  0  1  0  0  0  0  0  0
  1  2  2  0
  1  8  1  0
  2  3  1  0
  3  6  1  0
  3  9  2  0
  4  9  1  0
  4 10  1  0
  5  2  1  0
  5 11  1  0
  7  6  1  0
  8  4  2  0
 11  7  1  0
 11 13  1  1
 12 10  1  0
 14 27  1  0
 15 20  1  0
 16 17  1  0
 16 15  1  0
 18 17  1  0
 18 31  1  0
 18 19  1  0
 20 14  1  0
 20 19  1  0
 21 14  2  0
 22 26  1  0
 24 22  1  0
 24 27  1  0
 25 23  1  0
 26 10  1  0
 26 23  1  0
 27 25  1  0
 28 29  2  0
 29 48  1  0
 30 29  1  0
 30 33  1  0
 31 32  1  0
 31 28  1  0
 32 30  2  0
 33 34  1  0
 34 35  2  0
 36 39  1  0
 36 35  1  0
 37 36  2  0
 38 37  1  0
 38 33  2  0
 39 40  1  0
 40 45  2  0
 40 41  1  0
 41 42  2  0
 42 43  1  0
 43 47  1  0
 44 43  2  0
 45 44  1  0
 46 45  1  0
 48 49  1  0
 49 52  1  0
 49 51  1  0
 50 48  2  0
 53 28  1  0
 53 54  1  0
 55 53  1  0
 56 11  1  0
 56 57  1  0
 57 58  1  0
 59 70  2  0
 60 58  1  0
 60 65  1  0
 61 69  1  0
 61 71  1  0
 62 68  1  0
 62 64  1  0
 63 69  1  0
 64 65  2  0
 64 63  1  0
 66 60  2  0
 67 66  1  0
 67 62  2  0
 68 61  1  0
 69 59  1  0
 71 73  2  0
 72 71  1  0
 74 72  1  0
 75 84  2  0
 75 80  1  0
 76 72  1  0
 76 80  1  0
 77 76  1  0
 78 79  1  0
 78 77  1  0
 79 75  1  0
 80 81  2  0
 81 82  1  0
 83 82  2  0
 84 83  1  0
 85 59  1  0
 85 86  1  0
 85 95  1  0
 86 89  1  0
 87 91  1  0
 87 86  1  0
 88 87  2  0
 91 90  1  0
 93 91  1  0
 93 94  1  0
 93 92  1  0
 95 98  1  1
 95 96  1  0
 97 95  1  0
M  ISO  4  14 100  27 100  57 101  58 101
M  END
>  <TORSDO>  (20) 
F 18

>  <SCORE>  (20) 
-13.828

>  <name>  (20) 
19

>  <ligand_id>  (20) 
19

>  <original_smiles>  (20) 
[H]c1nc(N([H])C2([H])C([H])([H])C([H])([H])N(C(=O)N3C([H])([H])C([H])([H])C([H])([H])C([H])(n4nc(-c5c([H])c([H])c(Oc6c([H])c([H])c(F)c([H])c6F)c([H])c5[H])c(C(=O)N([H])[H])c4N([H])[H])C3([H])[H])C([H])([H])C2([H])[H])nc2c1C([H])([H])[N+]([H])(C([H])([H])C([H])([H])Oc1c([H])c([H])c3c(c1[H])C([H])([H])N(C(=O)C([H])(N([H])C(=O)C([H])(N([H])C([H])([H])[H])C([H])([H])[H])C(C([H])([H])[H])(C([H])([H])[H])C([H])([H])[H])C([H])(C(=O)N([H])C1([H])c4c([H])c([H])c([H])c([H])c4C([H])([H])C([H])([H])C1([H])[H])C3([H])[H])C([H])([H])C2([H])[H]

>  <smiles>  (20) 
[H]c1nc(N([H])C2([H])C([H])([H])C([H])([H])N(C(=O)N3C([H])([H])C([H])([H])C([H])([H])C([H])(n4nc(-c5c([H])c([H])c(Oc6c([H])c([H])c(F)c([H])c6F)c([H])c5[H])c(C(=O)N([H])[H])c4N([H])[H])C3([H])[H])C([H])([H])C2([H])[H])nc2c1C([H])([H])[N+]([H])(C([H])([H])C([H])([H])Oc1c([H])c([H])c3c(c1[H])C([H])([H])N(C(=O)C([H])(N([H])C(=O)C([H])(N([H])C([H])([H])[H])C([H])([H])[H])C(C([H])([H])[H])(C([H])([H])[H])C([H])([H])[H])C([H])(C(=O)N([H])C1([H])c4c([H])c([H])c([H])c([H])c4C([H])([H])C([H])([H])C1([H])[H])C3([H])[H])C([H])([H])C2([H])[H]

$$$$
20:0:0
     RDKit          3D

102112  0  0  1  0  0  0  0  0999 V2000
  -28.4890  -18.9260   21.1280 C   0  0  0  0  0  3  0  0  0  0  0  0
  -27.8600  -20.1510   21.3640 C   0  0  0  0  0  3  0  0  0  0  0  0
  -29.7760  -18.8830   20.5380 C   0  0  0  0  0  0  0  0  0  0  0  0
  -30.4210  -20.1300   20.2680 C   0  0  0  0  0  0  0  0  0  0  0  0
  -28.5280  -21.3170   20.9930 C   0  0  0  0  0  0  0  0  0  0  0  0
  -29.7610  -21.2990   20.4470 N   0  0  0  0  0  0  0  0  0  0  0  0
  -31.0790  -14.5200   19.7430 C   0  0  0  0  0  0  0  0  0  0  0  0
  -30.6680  -12.3430   18.6640 C   0  0  0  0  0  2  0  0  0  0  0  0
  -29.6230  -12.5090   17.5430 C   0  0  0  0  0  2  0  0  0  0  0  0
  -28.1930  -12.3860   18.1070 C   0  0  0  0  0  2  0  0  0  0  0  0
  -27.9660  -13.2850   19.3510 C   0  0  0  0  0  3  0  0  0  0  0  0
  -29.1060  -13.0820   20.3750 C   0  0  0  0  0  2  0  0  0  0  0  0
  -30.3870  -13.3530   19.6900 N   0  0  0  0  0  0  0  0  0  0  0  0
  -32.1310  -14.7320   19.1300 O   0  0  0  0  0  0  0  0  0  0  0  0
  -31.1320  -16.6310   21.1380 C   0  0  0  0  0  2  0  0  0  0  0  0
  -29.4220  -16.3000   19.9840 C   0  0  0  0  0  2  0  0  0  0  0  0
  -30.3350  -17.5080   20.1680 C   0  0  0  0  0  3  0  0  0  0  0  0
  -30.5060  -15.4660   20.5050 N   0  0  0  0  0  0  0  0  0  0  0  0
  -25.6870  -13.9850   20.3240 C   0  0  0  0  0  0  0  0  0  0  0  0
  -24.6220  -13.2470   20.7660 C   0  0  0  0  0  0  0  0  0  0  0  0
  -25.0050  -11.8790   20.6280 C   0  0  0  0  0  0  0  0  0  0  0  0
  -26.6540  -13.0640   19.9500 N   0  0  0  0  0  0  0  0  0  0  0  0
  -26.2530  -11.7910   20.1880 N   0  0  0  0  0  0  0  0  0  0  0  0
  -24.2400  -10.6430   20.8340 C   0  0  0  0  0  0  0  0  0  0  0  0
  -24.6810   -9.6430   21.7280 C   0  0  0  0  0  3  0  0  0  0  0  0
  -23.9190   -8.4700   21.9170 C   0  0  0  0  0  3  0  0  0  0  0  0
  -22.7030   -8.2910   21.2140 C   0  0  0  0  0  0  0  0  0  0  0  0
  -22.2830   -9.2810   20.3100 C   0  0  0  0  0  3  0  0  0  0  0  0
  -23.0450  -10.4450   20.1170 C   0  0  0  0  0  3  0  0  0  0  0  0
  -21.9110   -7.1730   21.3200 O   0  0  0  0  0  0  0  0  0  0  0  0
  -21.8500   -6.4430   22.4790 C   0  0  0  0  0  0  0  0  0  0  0  0
  -21.4320   -7.0160   23.7010 C   0  0  0  0  0  3  0  0  0  0  0  0
  -21.3130   -6.2120   24.8510 C   0  0  0  0  0  3  0  0  0  0  0  0
  -21.6020   -4.8350   24.7830 C   0  0  0  0  0  0  0  0  0  0  0  0
  -22.0140   -4.2620   23.5650 C   0  0  0  0  0  3  0  0  0  0  0  0
  -22.1320   -5.0630   22.4180 C   0  0  0  0  0  0  0  0  0  0  0  0
  -22.5080   -4.5020   21.2420 F   0  0  0  0  0  0  0  0  0  0  0  0
  -21.4800   -4.0610   25.8860 F   0  0  0  0  0  0  0  0  0  0  0  0
  -23.2840  -13.7740   21.2000 C   0  0  0  0  0  0  0  0  0  0  0  0
  -22.6130  -13.0730   22.1090 N   0  0  0  0  0  0  0  0  0  0  0  0
  -22.8480  -14.8400   20.7680 O   0  0  0  0  0  0  0  0  0  0  0  0
  -22.9780  -12.2070   22.4790 H   0  0  0  0  0  0  0  0  0  0  0  0
  -21.7210  -13.4090   22.4410 H   0  0  0  0  0  0  0  0  0  0  0  0
  -25.9020  -15.3530   20.1850 N   0  0  0  0  0  0  0  0  0  0  0  0
  -25.1660  -16.0260   20.3670 H   0  0  0  0  0  0  0  0  0  0  0  0
  -26.7080  -15.7570   19.7260 H   0  0  0  0  0  0  0  0  0  0  0  0
  -34.7160  -20.6820   19.8060 C   0  0  0  0  0  2  0  0  0  0  0  0
  -32.5440  -21.5920   20.2360 C   0  0  0  0  0  2  0  0  0  0  0  0
  -34.0660  -19.4230   19.2020 C   0  0  0  0  0  2  0  0  0  0  0  0
  -31.8260  -20.3360   19.6430 C   0  0  0  0  0  3  0  0  0  0  0  0
  -33.8520  -21.8490   19.6120 N   0  0  0  0  0  0  0  0  0  0  0  0
  -32.7430  -19.1950   19.8200 N   0  0  0  0  0  4  0  0  0  0  0  0
  -33.7240  -22.0280   18.6180 H   0  0  0  0  0  0  0  0  0  0  0  0
  -32.8660  -19.0500   20.8080 H   0  0  0  0  0  0  0  0  0  0  0  0
  -32.3260  -18.3800   19.4050 H   0  0  0  0  0  0  0  0  0  0  0  0
  -27.8730  -22.6790   21.0850 C   0  0  0  0  0  2  0  0  0  0  0  0
  -28.2730  -23.4190   19.8820 N   0  0  0  0  0  4  0  0  0  0  0  0
  -27.7950  -23.0230   19.0880 H   0  0  0  0  0  0  0  0  0  0  0  0
  -29.2490  -23.1650   19.8070 H   0  0  0  0  0  0  0  0  0  0  0  0
  -28.1060  -24.8840   19.9520 C   0  0  0  0  0  2  0  0  0  0  0  0
  -28.6760  -25.5710   18.6960 C   0  0  0  0  0  2  0  0  0  0  0  0
  -28.5980  -26.9880   18.8120 O   0  0  0  0  0  0  0  0  0  0  0  0
  -24.6340  -31.3080   22.7880 C   0  0  0  0  0  0  0  0  0  0  0  0
  -27.3610  -27.5740   18.9550 C   0  0  0  0  0  0  0  0  0  0  0  0
  -23.4150  -30.0710   21.0250 C   0  0  0  0  0  3  0  0  0  0  0  0
  -24.8700  -28.8600   19.3200 C   0  0  0  0  0  0  0  0  0  0  0  0
  -25.8940  -30.6360   20.7510 C   0  0  0  0  0  2  0  0  0  0  0  0
  -26.0250  -29.3850   19.9120 C   0  0  0  0  0  0  0  0  0  0  0  0
  -27.2700  -28.7490   19.7280 C   0  0  0  0  0  3  0  0  0  0  0  0
  -26.1840  -27.0590   18.3570 C   0  0  0  0  0  3  0  0  0  0  0  0
  -24.9430  -27.6920   18.5450 C   0  0  0  0  0  3  0  0  0  0  0  0
  -23.5780  -29.6070   19.5540 C   0  0  0  0  0  2  0  0  0  0  0  0
  -24.6690  -30.6780   21.5790 N   0  0  0  0  0  0  0  0  0  0  0  0
  -23.5750  -31.4270   23.4160 O   0  0  0  0  0  0  0  0  0  0  0  0
  -22.8950  -28.8790   21.8560 C   0  0  0  0  0  0  0  0  0  0  0  0
  -21.5830  -28.6080   21.7510 N   0  0  0  0  0  0  0  0  0  0  0  0
  -23.6620  -28.2080   22.5510 O   0  0  0  0  0  0  0  0  0  0  0  0
  -21.0200  -29.2070   21.1640 H   0  0  0  0  0  0  0  0  0  0  0  0
  -18.3400  -27.0850   22.1660 C   0  0  0  0  0  0  0  0  0  0  0  0
  -20.8760  -27.5150   22.4130 C   0  0  0  0  0  3  0  0  0  0  0  0
  -21.0740  -26.1830   21.6530 C   0  0  0  0  0  2  0  0  0  0  0  0
  -19.9680  -25.9000   20.6310 C   0  0  0  0  0  2  0  0  0  0  0  0
  -18.6010  -25.8490   21.3200 C   0  0  0  0  0  2  0  0  0  0  0  0
  -19.4080  -27.8760   22.6650 C   0  0  0  0  0  0  0  0  0  0  0  0
  -19.1110  -29.0360   23.4120 C   0  0  0  0  0  3  0  0  0  0  0  0
  -17.7760  -29.4040   23.6690 C   0  0  0  0  0  3  0  0  0  0  0  0
  -16.7220  -28.6060   23.1890 C   0  0  0  0  0  3  0  0  0  0  0  0
  -17.0060  -27.4490   22.4420 C   0  0  0  0  0  3  0  0  0  0  0  0
  -25.9180  -31.9300   23.4210 C   0  0  0  0  0  3  0  0  0  0  0  0
  -25.5470  -33.2430   23.9620 N   0  0  0  0  0  0  0  0  0  0  0  0
  -25.7890  -34.4130   23.3530 C   0  0  0  0  0  0  0  0  0  0  0  0
  -26.4180  -34.5000   22.2960 O   0  0  0  0  0  0  0  0  0  0  0  0
  -24.9770  -33.2440   24.7940 H   0  0  0  0  0  0  0  0  0  0  0  0
  -23.9410  -36.1160   23.3270 C   0  0  0  0  0  1  0  0  0  0  0  0
  -25.2400  -35.6850   24.0240 C   0  0  0  0  0  3  0  0  0  0  0  0
  -27.3520  -36.5820   24.8960 C   0  0  0  0  0  1  0  0  0  0  0  0
  -26.2010  -36.8090   24.0270 N   0  0  0  0  0  0  0  0  0  0  0  0
  -25.7460  -37.6690   24.3220 H   0  0  0  0  0  0  0  0  0  0  0  0
  -26.5610  -31.0240   24.5420 C   0  0  1  0  0  0  0  0  0  0  0  0
  -25.5570  -30.5710   25.6260 C   0  0  0  0  0  1  0  0  0  0  0  0
  -27.1940  -29.7560   23.9220 C   0  0  0  0  0  1  0  0  0  0  0  0
  -27.7040  -31.7930   25.2470 C   0  0  0  0  0  1  0  0  0  0  0  0
  1  2  1  0
  3  1  2  0
  4  6  2  0
  4  3  1  0
  5 56  1  0
  5  2  2  0
  6  5  1  0
  7 18  1  0
  8 13  1  0
  9 10  1  0
  9  8  1  0
 11 10  1  0
 11 22  1  0
 11 12  1  0
 13  7  1  0
 13 12  1  0
 14  7  2  0
 16 17  1  0
 16 18  1  0
 17  3  1  0
 17 15  1  0
 18 15  1  0
 19 20  2  0
 20 39  1  0
 21 20  1  0
 21 24  1  0
 22 23  1  0
 22 19  1  0
 23 21  2  0
 24 25  1  0
 25 26  2  0
 27 30  1  0
 27 26  1  0
 28 27  2  0
 29 28  1  0
 29 24  2  0
 30 31  1  0
 31 32  1  0
 32 33  2  0
 34 33  1  0
 34 38  1  0
 35 34  2  0
 36 31  2  0
 36 35  1  0
 37 36  1  0
 39 40  1  0
 40 43  1  0
 40 42  1  0
 41 39  2  0
 44 19  1  0
 44 45  1  0
 46 44  1  0
 49 47  1  0
 49 52  1  0
 50 52  1  0
 50 48  1  0
 50  4  1  0
 51 47  1  0
 51 48  1  0
 52 54  1  0
 53 51  1  0
 55 52  1  0
 57 60  1  0
 57 56  1  0
 58 57  1  0
 59 57  1  0
 61 62  1  0
 61 60  1  0
 62 64  1  0
 63 74  2  0
 64 69  1  0
 65 73  1  0
 65 75  1  0
 66 72  1  0
 66 68  1  0
 67 73  1  0
 68 67  1  0
 69 68  2  0
 70 71  1  0
 70 64  2  0
 71 66  2  0
 72 65  1  0
 73 63  1  0
 75 77  2  0
 76 75  1  0
 78 76  1  0
 79 88  2  0
 79 84  1  0
 80 76  1  0
 80 84  1  0
 81 80  1  0
 82 83  1  0
 82 81  1  0
 83 79  1  0
 84 85  2  0
 85 86  1  0
 87 86  2  0
 88 87  1  0
 89 63  1  0
 89 90  1  0
 89 99  1  0
 90 93  1  0
 91 90  1  0
 91 95  1  0
 92 91  2  0
 95 94  1  0
 95 97  1  0
 97 98  1  0
 97 96  1  0
 99102  1  1
 99100  1  0
101 99  1  0
M  ISO  4   7 100  18 100  61 101  62 101
M  END
>  <TORSDO>  (21) 
F 21

>  <SCORE>  (21) 
-9.871

>  <name>  (21) 
20

>  <ligand_id>  (21) 
20

>  <original_smiles>  (21) 
[H]c1c(C([H])([H])[N+]([H])([H])C([H])([H])C([H])([H])Oc2c([H])c([H])c3c(c2[H])C([H])([H])N(C(=O)C([H])(N([H])C(=O)C([H])(N([H])C([H])([H])[H])C([H])([H])[H])C(C([H])([H])[H])(C([H])([H])[H])C([H])([H])[H])C([H])(C(=O)N([H])C2([H])c4c([H])c([H])c([H])c([H])c4C([H])([H])C([H])([H])C2([H])[H])C3([H])[H])nc(C2([H])C([H])([H])N([H])C([H])([H])C([H])([H])[N+]2([H])[H])c(C2([H])C([H])([H])N(C(=O)N3C([H])([H])C([H])([H])C([H])([H])C([H])(n4nc(-c5c([H])c([H])c(Oc6c([H])c([H])c(F)c([H])c6F)c([H])c5[H])c(C(=O)N([H])[H])c4N([H])[H])C3([H])[H])C2([H])[H])c1[H]

>  <smiles>  (21) 
[H]c1c(C([H])([H])[N+]([H])([H])C([H])([H])C([H])([H])Oc2c([H])c([H])c3c(c2[H])C([H])([H])N(C(=O)C([H])(N([H])C(=O)C([H])(N([H])C([H])([H])[H])C([H])([H])[H])C(C([H])([H])[H])(C([H])([H])[H])C([H])([H])[H])C([H])(C(=O)N([H])C2([H])c4c([H])c([H])c([H])c([H])c4C([H])([H])C([H])([H])C2([H])[H])C3([H])[H])nc(C2([H])C([H])([H])N([H])C([H])([H])C([H])([H])[N+]2([H])[H])c(C2([H])C([H])([H])N(C(=O)N3C([H])([H])C([H])([H])C([H])([H])C([H])(n4nc(-c5c([H])c([H])c(Oc6c([H])c([H])c(F)c([H])c6F)c([H])c5[H])c(C(=O)N([H])[H])c4N([H])[H])C3([H])[H])C2([H])[H])c1[H]

$$$$
21:0:0
     RDKit          3D

 96105  0  0  1  0  0  0  0  0999 V2000
  -30.9010  -14.5510   20.2630 C   0  0  0  0  0  0  0  0  0  0  0  0
  -30.6660  -12.2540   19.3280 C   0  0  0  0  0  2  0  0  0  0  0  0
  -29.7130  -12.2130   18.1140 C   0  0  0  0  0  2  0  0  0  0  0  0
  -28.2430  -12.0710   18.5650 C   0  0  0  0  0  2  0  0  0  0  0  0
  -27.8740  -13.0910   19.6720 C   0  0  0  0  0  3  0  0  0  0  0  0
  -28.9270  -13.0080   20.7990 C   0  0  0  0  0  2  0  0  0  0  0  0
  -30.2400  -13.3500   20.2240 N   0  0  0  0  0  0  0  0  0  0  0  0
  -31.9530  -14.7130   19.6270 O   0  0  0  0  0  0  0  0  0  0  0  0
  -30.8500  -21.7950   20.6320 C   0  0  0  0  0  3  0  0  0  0  0  0
  -28.6120  -20.2970   20.7690 C   0  0  0  0  0  3  0  0  0  0  0  0
  -29.5640  -22.3920   20.6680 C   0  0  0  0  0  0  0  0  0  0  0  0
  -29.8990  -19.6760   20.7850 C   0  0  0  0  0  0  0  0  0  0  0  0
  -28.9510  -17.5130   21.4450 C   0  0  0  0  0  2  0  0  0  0  0  0
  -31.4000  -17.8460   21.4530 C   0  0  0  0  0  2  0  0  0  0  0  0
  -29.1080  -15.9910   21.2910 C   0  0  0  0  0  2  0  0  0  0  0  0
  -31.4570  -16.3540   21.8740 C   0  0  0  0  0  2  0  0  0  0  0  0
  -28.4410  -21.6380   20.7090 N   0  0  0  0  0  0  0  0  0  0  0  0
  -31.0140  -20.4490   20.6800 N   0  0  0  0  0  0  0  0  0  0  0  0
  -30.0920  -18.2750   20.9400 N   0  0  0  0  0  0  0  0  0  0  0  0
  -30.4910  -15.4890   21.1700 N   0  0  0  0  0  0  0  0  0  0  0  0
  -25.5300  -13.8200   20.4640 C   0  0  0  0  0  0  0  0  0  0  0  0
  -24.4340  -13.0960   20.8430 C   0  0  0  0  0  0  0  0  0  0  0  0
  -24.8210  -11.7230   20.7600 C   0  0  0  0  0  0  0  0  0  0  0  0
  -26.5200  -12.8890   20.1790 N   0  0  0  0  0  0  0  0  0  0  0  0
  -26.0950  -11.6210   20.4110 N   0  0  0  0  0  0  0  0  0  0  0  0
  -24.0360  -10.4960   20.9370 C   0  0  0  0  0  0  0  0  0  0  0  0
  -24.4560   -9.4720   21.8140 C   0  0  0  0  0  3  0  0  0  0  0  0
  -23.6770   -8.3060   21.9790 C   0  0  0  0  0  3  0  0  0  0  0  0
  -22.4650   -8.1550   21.2640 C   0  0  0  0  0  0  0  0  0  0  0  0
  -22.0620   -9.1680   20.3760 C   0  0  0  0  0  3  0  0  0  0  0  0
  -22.8420  -10.3250   20.2090 C   0  0  0  0  0  3  0  0  0  0  0  0
  -21.6590   -7.0440   21.3400 O   0  0  0  0  0  0  0  0  0  0  0  0
  -21.6430   -6.2420   22.4510 C   0  0  0  0  0  0  0  0  0  0  0  0
  -21.3260   -6.7470   23.7310 C   0  0  0  0  0  3  0  0  0  0  0  0
  -21.2500   -5.8750   24.8330 C   0  0  0  0  0  3  0  0  0  0  0  0
  -21.4850   -4.4970   24.6620 C   0  0  0  0  0  0  0  0  0  0  0  0
  -21.7990   -3.9920   23.3880 C   0  0  0  0  0  3  0  0  0  0  0  0
  -21.8750   -4.8600   22.2860 C   0  0  0  0  0  0  0  0  0  0  0  0
  -22.1560   -4.3640   21.0570 F   0  0  0  0  0  0  0  0  0  0  0  0
  -21.4050   -3.6580   25.7210 F   0  0  0  0  0  0  0  0  0  0  0  0
  -23.0710  -13.6360   21.1690 C   0  0  0  0  0  0  0  0  0  0  0  0
  -22.3370  -12.9680   22.0520 N   0  0  0  0  0  0  0  0  0  0  0  0
  -22.6680  -14.6900   20.6780 O   0  0  0  0  0  0  0  0  0  0  0  0
  -22.6710  -12.1150   22.4750 H   0  0  0  0  0  0  0  0  0  0  0  0
  -21.4260  -13.3170   22.3090 H   0  0  0  0  0  0  0  0  0  0  0  0
  -25.7620  -15.1840   20.3160 N   0  0  0  0  0  0  0  0  0  0  0  0
  -25.0230  -15.8670   20.4340 H   0  0  0  0  0  0  0  0  0  0  0  0
  -26.6090  -15.5810   19.9330 H   0  0  0  0  0  0  0  0  0  0  0  0
  -29.3520  -23.8960   20.7510 C   0  0  0  0  0  2  0  0  0  0  0  0
  -28.7210  -24.4480   19.5340 N   0  0  0  0  0  4  0  0  0  0  0  0
  -27.8950  -24.9380   19.8440 H   0  0  0  0  0  0  0  0  0  0  0  0
  -28.3920  -23.6960   18.9510 H   0  0  0  0  0  0  0  0  0  0  0  0
  -29.5340  -25.4310   18.7630 C   0  0  0  0  0  2  0  0  0  0  0  0
  -28.9660  -27.1840   20.4770 C   0  0  0  0  0  1  0  0  0  0  0  0
  -28.9760  -26.8530   18.9610 C   0  0  0  0  0  3  0  0  0  0  0  0
  -27.7080  -26.7720   18.2910 O   0  0  0  0  0  0  0  0  0  0  0  0
  -24.7240  -31.3730   22.8210 C   0  0  0  0  0  0  0  0  0  0  0  0
  -26.6570  -27.5950   18.6150 C   0  0  0  0  0  0  0  0  0  0  0  0
  -23.2040  -30.3540   21.1520 C   0  0  0  0  0  3  0  0  0  0  0  0
  -24.3510  -29.0900   19.2540 C   0  0  0  0  0  0  0  0  0  0  0  0
  -25.6710  -30.7200   20.6120 C   0  0  0  0  0  2  0  0  0  0  0  0
  -25.6040  -29.4870   19.7390 C   0  0  0  0  0  0  0  0  0  0  0  0
  -26.7640  -28.7650   19.3960 C   0  0  0  0  0  3  0  0  0  0  0  0
  -25.3900  -27.2130   18.1170 C   0  0  0  0  0  3  0  0  0  0  0  0
  -24.2380  -27.9560   18.4320 C   0  0  0  0  0  3  0  0  0  0  0  0
  -23.1640  -29.9350   19.6550 C   0  0  0  0  0  2  0  0  0  0  0  0
  -24.5630  -30.8100   21.5910 N   0  0  0  0  0  0  0  0  0  0  0  0
  -23.7570  -31.5610   23.5700 O   0  0  0  0  0  0  0  0  0  0  0  0
  -22.6510  -29.1800   21.9920 C   0  0  0  0  0  0  0  0  0  0  0  0
  -21.3160  -29.0310   21.9960 N   0  0  0  0  0  0  0  0  0  0  0  0
  -23.4090  -28.4130   22.5900 O   0  0  0  0  0  0  0  0  0  0  0  0
  -20.7620  -29.6990   21.4800 H   0  0  0  0  0  0  0  0  0  0  0  0
  -18.0040  -27.7170   22.5540 C   0  0  0  0  0  0  0  0  0  0  0  0
  -20.5710  -27.9810   22.6860 C   0  0  0  0  0  3  0  0  0  0  0  0
  -20.6460  -26.6480   21.9060 C   0  0  0  0  0  2  0  0  0  0  0  0
  -19.4780  -26.4520   20.9350 C   0  0  0  0  0  2  0  0  0  0  0  0
  -18.1440  -26.4760   21.6870 C   0  0  0  0  0  2  0  0  0  0  0  0
  -19.1420  -28.4330   23.0090 C   0  0  0  0  0  0  0  0  0  0  0  0
  -18.9530  -29.6010   23.7790 C   0  0  0  0  0  3  0  0  0  0  0  0
  -17.6580  -30.0510   24.1010 C   0  0  0  0  0  3  0  0  0  0  0  0
  -16.5360  -29.3300   23.6610 C   0  0  0  0  0  3  0  0  0  0  0  0
  -16.7070  -28.1670   22.8900 C   0  0  0  0  0  3  0  0  0  0  0  0
  -26.1210  -31.8330   23.3390 C   0  0  0  0  0  3  0  0  0  0  0  0
  -26.8170  -30.7820   24.2900 C   0  0  1  0  0  0  0  0  0  0  0  0
  -25.9090  -30.3180   25.4580 C   0  0  0  0  0  1  0  0  0  0  0  0
  -27.2460  -29.5330   23.4830 C   0  0  0  0  0  1  0  0  0  0  0  0
  -28.1110  -31.3960   24.8750 C   0  0  0  0  0  1  0  0  0  0  0  0
  -25.9330  -33.1130   24.0340 N   0  0  0  0  0  0  0  0  0  0  0  0
  -26.2460  -34.3090   23.5180 C   0  0  0  0  0  0  0  0  0  0  0  0
  -26.8030  -34.4410   22.4250 O   0  0  0  0  0  0  0  0  0  0  0  0
  -25.4280  -33.0840   24.9070 H   0  0  0  0  0  0  0  0  0  0  0  0
  -24.6160  -36.2030   23.8000 C   0  0  0  0  0  1  0  0  0  0  0  0
  -25.8940  -35.5530   24.3500 C   0  0  0  0  0  3  0  0  0  0  0  0
  -28.1510  -36.1280   25.1360 C   0  0  0  0  0  1  0  0  0  0  0  0
  -26.9740  -36.5630   24.3880 N   0  0  0  0  0  0  0  0  0  0  0  0
  -26.6410  -37.4330   24.7930 H   0  0  0  0  0  0  0  0  0  0  0  0
  1 20  1  0
  2  7  1  0
  3  4  1  0
  3  2  1  0
  5  4  1  0
  5 24  1  0
  5  6  1  0
  7  1  1  0
  7  6  1  0
  8  1  2  0
  9 11  2  0
  9 18  1  0
 10 12  1  0
 11 17  1  0
 11 49  1  0
 12 19  1  0
 14 16  1  0
 15 13  1  0
 17 10  2  0
 18 12  2  0
 19 13  1  0
 19 14  1  0
 20 15  1  0
 20 16  1  0
 21 22  2  0
 22 41  1  0
 23 22  1  0
 23 26  1  0
 24 25  1  0
 24 21  1  0
 25 23  2  0
 26 27  1  0
 27 28  2  0
 29 32  1  0
 29 28  1  0
 30 29  2  0
 31 30  1  0
 31 26  2  0
 32 33  1  0
 33 34  1  0
 34 35  2  0
 36 35  1  0
 36 40  1  0
 37 36  2  0
 38 33  2  0
 38 37  1  0
 39 38  1  0
 41 42  1  0
 42 45  1  0
 42 44  1  0
 43 41  2  0
 46 47  1  0
 46 21  1  0
 48 46  1  0
 50 51  1  0
 50 49  1  0
 52 50  1  0
 53 55  1  0
 53 50  1  0
 55 54  1  0
 56 58  1  0
 56 55  1  0
 57 68  2  0
 58 63  1  0
 59 67  1  0
 59 69  1  0
 60 66  1  0
 60 62  1  0
 61 67  1  0
 62 61  1  0
 63 62  2  0
 64 65  1  0
 64 58  2  0
 65 60  2  0
 66 59  1  0
 67 57  1  0
 69 70  1  0
 69 71  2  0
 72 70  1  0
 73 82  2  0
 73 78  1  0
 74 70  1  0
 74 78  1  0
 75 74  1  0
 76 77  1  0
 76 75  1  0
 77 73  1  0
 78 79  2  0
 79 80  1  0
 81 80  2  0
 82 81  1  0
 83 57  1  0
 83 88  1  0
 83 84  1  0
 84 87  1  1
 84 85  1  0
 86 84  1  0
 88 91  1  0
 89 88  1  0
 89 93  1  0
 90 89  2  0
 93 92  1  0
 93 95  1  0
 95 96  1  0
 95 94  1  0
M  ISO  4   1 100  20 100  55 101  56 101
M  END
>  <TORSDO>  (22) 
F 19

>  <SCORE>  (22) 
-11.390

>  <name>  (22) 
21

>  <ligand_id>  (22) 
21

>  <original_smiles>  (22) 
[H]c1nc(C([H])([H])[N+]([H])([H])C([H])([H])C([H])(Oc2c([H])c([H])c3c(c2[H])C([H])([H])N(C(=O)C([H])(N([H])C(=O)C([H])(N([H])C([H])([H])[H])C([H])([H])[H])C(C([H])([H])[H])(C([H])([H])[H])C([H])([H])[H])C([H])(C(=O)N([H])C2([H])c4c([H])c([H])c([H])c([H])c4C([H])([H])C([H])([H])C2([H])[H])C3([H])[H])C([H])([H])[H])c([H])nc1N1C([H])([H])C([H])([H])N(C(=O)N2C([H])([H])C([H])([H])C([H])([H])C([H])(n3nc(-c4c([H])c([H])c(Oc5c([H])c([H])c(F)c([H])c5F)c([H])c4[H])c(C(=O)N([H])[H])c3N([H])[H])C2([H])[H])C([H])([H])C1([H])[H]

>  <smiles>  (22) 
[H]c1nc(C([H])([H])[N+]([H])([H])C([H])([H])C([H])(Oc2c([H])c([H])c3c(c2[H])C([H])([H])N(C(=O)C([H])(N([H])C(=O)C([H])(N([H])C([H])([H])[H])C([H])([H])[H])C(C([H])([H])[H])(C([H])([H])[H])C([H])([H])[H])C([H])(C(=O)N([H])C2([H])c4c([H])c([H])c([H])c([H])c4C([H])([H])C([H])([H])C2([H])[H])C3([H])[H])C([H])([H])[H])c([H])nc1N1C([H])([H])C([H])([H])N(C(=O)N2C([H])([H])C([H])([H])C([H])([H])C([H])(n3nc(-c4c([H])c([H])c(Oc5c([H])c([H])c(F)c([H])c5F)c([H])c4[H])c(C(=O)N([H])[H])c3N([H])[H])C2([H])[H])C([H])([H])C1([H])[H]

$$$$
22:0:0
     RDKit          3D

 95104  0  0  1  0  0  0  0  0999 V2000
  -27.5030  -24.5370   22.4780 C   0  0  0  0  0  0  0  0  0  0  0  0
  -28.9790  -23.6040   21.1030 C   0  0  0  0  0  3  0  0  0  0  0  0
  -28.2890  -25.7120   20.7540 C   0  0  0  0  0  0  0  0  0  0  0  0
  -26.6270  -24.4470   23.7120 C   0  0  0  0  0  1  0  0  0  0  0  0
  -28.1970  -23.4450   22.1680 N   0  0  0  0  0  0  0  0  0  0  0  0
  -27.5060  -25.6940   21.8290 N   0  0  0  0  0  0  0  0  0  0  0  0
  -29.0730  -24.7090   20.3480 N   0  0  0  0  0  0  0  0  0  0  0  0
  -28.3450  -26.8660   20.0060 O   0  0  0  0  0  0  0  0  0  0  0  0
  -24.5670  -32.0280   23.1730 C   0  0  0  0  0  0  0  0  0  0  0  0
  -27.2130  -27.6700   19.9820 C   0  0  0  0  0  0  0  0  0  0  0  0
  -23.3630  -30.6690   21.4920 C   0  0  0  0  0  3  0  0  0  0  0  0
  -24.8220  -29.1880   20.0100 C   0  0  0  0  0  0  0  0  0  0  0  0
  -25.8860  -31.0490   21.2950 C   0  0  0  0  0  2  0  0  0  0  0  0
  -25.9790  -29.6970   20.6160 C   0  0  0  0  0  0  0  0  0  0  0  0
  -27.1790  -28.9460   20.5990 C   0  0  0  0  0  3  0  0  0  0  0  0
  -26.0480  -27.1970   19.3420 C   0  0  0  0  0  3  0  0  0  0  0  0
  -24.8520  -27.9390   19.3670 C   0  0  0  0  0  3  0  0  0  0  0  0
  -23.5710  -30.0350   20.0900 C   0  0  0  0  0  2  0  0  0  0  0  0
  -24.6230  -31.2640   22.0440 N   0  0  0  0  0  0  0  0  0  0  0  0
  -23.4870  -32.2730   23.7260 O   0  0  0  0  0  0  0  0  0  0  0  0
  -22.7250  -29.6130   22.4250 C   0  0  0  0  0  0  0  0  0  0  0  0
  -21.4020  -29.4210   22.3020 N   0  0  0  0  0  0  0  0  0  0  0  0
  -23.4200  -28.9660   23.2150 O   0  0  0  0  0  0  0  0  0  0  0  0
  -20.9010  -29.9930   21.6360 H   0  0  0  0  0  0  0  0  0  0  0  0
  -18.0380  -28.2040   22.8110 C   0  0  0  0  0  0  0  0  0  0  0  0
  -20.5990  -28.4530   23.0500 C   0  0  0  0  0  3  0  0  0  0  0  0
  -20.6920  -27.0450   22.4170 C   0  0  0  0  0  2  0  0  0  0  0  0
  -19.5740  -26.7630   21.4080 C   0  0  0  0  0  2  0  0  0  0  0  0
  -18.2030  -26.8830   22.0790 C   0  0  0  0  0  2  0  0  0  0  0  0
  -19.1620  -28.9500   23.2530 C   0  0  0  0  0  0  0  0  0  0  0  0
  -18.9530  -30.1880   23.8950 C   0  0  0  0  0  3  0  0  0  0  0  0
  -17.6510  -30.6830   24.1020 C   0  0  0  0  0  3  0  0  0  0  0  0
  -16.5410  -29.9330   23.6760 C   0  0  0  0  0  3  0  0  0  0  0  0
  -16.7340  -28.6960   23.0370 C   0  0  0  0  0  3  0  0  0  0  0  0
  -25.8530  -32.6490   23.8040 C   0  0  0  0  0  3  0  0  0  0  0  0
  -26.3690  -31.8590   25.0690 C   0  0  1  0  0  0  0  0  0  0  0  0
  -25.2750  -31.6050   26.1320 C   0  0  0  0  0  1  0  0  0  0  0  0
  -26.9530  -30.4870   24.6580 C   0  0  0  0  0  1  0  0  0  0  0  0
  -27.5190  -32.6440   25.7460 C   0  0  0  0  0  1  0  0  0  0  0  0
  -25.5450  -34.0420   24.1520 N   0  0  0  0  0  0  0  0  0  0  0  0
  -25.8810  -35.1040   23.4060 C   0  0  0  0  0  0  0  0  0  0  0  0
  -26.5560  -35.0140   22.3760 O   0  0  0  0  0  0  0  0  0  0  0  0
  -24.9520  -34.1870   24.9560 H   0  0  0  0  0  0  0  0  0  0  0  0
  -24.1540  -36.9000   23.0650 C   0  0  0  0  0  1  0  0  0  0  0  0
  -25.3900  -36.4850   23.8790 C   0  0  0  0  0  3  0  0  0  0  0  0
  -27.5210  -37.3580   24.7320 C   0  0  0  0  0  1  0  0  0  0  0  0
  -26.4220  -37.5420   23.7890 N   0  0  0  0  0  0  0  0  0  0  0  0
  -26.0120  -38.4570   23.9530 H   0  0  0  0  0  0  0  0  0  0  0  0
  -29.8960  -22.4090   20.7840 C   0  0  0  0  0  2  0  0  0  0  0  0
  -29.3340  -21.1020   21.2320 N   0  0  0  0  0  4  0  0  0  0  0  0
  -28.5650  -20.8920   20.6180 H   0  0  0  0  0  0  0  0  0  0  0  0
  -28.9370  -21.3190   22.1360 H   0  0  0  0  0  0  0  0  0  0  0  0
  -30.3140  -19.9670   21.3160 C   0  0  0  0  0  2  0  0  0  0  0  0
  -29.7500  -18.5190   21.0390 C   0  0  0  0  0  2  0  0  0  0  0  0
  -30.9420  -14.9310   20.3110 C   0  0  0  0  0  0  0  0  0  0  0  0
  -30.6860  -12.6560   19.3830 C   0  0  0  0  0  2  0  0  0  0  0  0
  -29.7730  -12.6890   18.1400 C   0  0  0  0  0  2  0  0  0  0  0  0
  -28.2880  -12.5950   18.5520 C   0  0  0  0  0  2  0  0  0  0  0  0
  -27.9020  -13.5240   19.7390 C   0  0  0  0  0  3  0  0  0  0  0  0
  -28.9480  -13.4770   20.8730 C   0  0  0  0  0  2  0  0  0  0  0  0
  -30.2580  -13.7470   20.2740 N   0  0  0  0  0  0  0  0  0  0  0  0
  -32.1670  -14.9550   20.1670 O   0  0  0  0  0  0  0  0  0  0  0  0
  -30.4280  -17.5320   18.2060 C   0  0  0  0  0  2  0  0  0  0  0  0
  -31.4710  -17.8960   19.2420 C   0  0  0  0  0  2  0  0  0  0  0  0
  -29.6540  -16.3720   18.8490 C   0  0  0  0  0  2  0  0  0  0  0  0
  -30.8060  -17.4410   20.5550 C   0  0  0  0  0  3  0  0  0  0  0  0
  -30.2220  -16.1050   20.1920 N   0  0  0  0  0  0  0  0  0  0  0  0
  -25.5070  -14.1530   20.4240 C   0  0  0  0  0  0  0  0  0  0  0  0
  -24.4280  -13.3900   20.7850 C   0  0  0  0  0  0  0  0  0  0  0  0
  -24.8870  -12.0370   20.7880 C   0  0  0  0  0  0  0  0  0  0  0  0
  -26.5500  -13.2620   20.2210 N   0  0  0  0  0  0  0  0  0  0  0  0
  -26.1820  -11.9880   20.5070 N   0  0  0  0  0  0  0  0  0  0  0  0
  -24.1540  -10.7800   20.9870 C   0  0  0  0  0  0  0  0  0  0  0  0
  -24.5410   -9.8450   21.9720 C   0  0  0  0  0  3  0  0  0  0  0  0
  -23.8060   -8.6540   22.1550 C   0  0  0  0  0  3  0  0  0  0  0  0
  -22.6720   -8.3880   21.3530 C   0  0  0  0  0  0  0  0  0  0  0  0
  -22.3050   -9.3130   20.3570 C   0  0  0  0  0  3  0  0  0  0  0  0
  -23.0410  -10.4950   20.1720 C   0  0  0  0  0  3  0  0  0  0  0  0
  -21.9130   -7.2470   21.4420 O   0  0  0  0  0  0  0  0  0  0  0  0
  -21.7770   -6.5640   22.6240 C   0  0  0  0  0  0  0  0  0  0  0  0
  -21.2410   -7.1720   23.7790 C   0  0  0  0  0  3  0  0  0  0  0  0
  -21.0530   -6.4160   24.9530 C   0  0  0  0  0  3  0  0  0  0  0  0
  -21.3920   -5.0500   24.9730 C   0  0  0  0  0  0  0  0  0  0  0  0
  -21.9200   -4.4400   23.8210 C   0  0  0  0  0  3  0  0  0  0  0  0
  -22.1090   -5.1930   22.6490 C   0  0  0  0  0  0  0  0  0  0  0  0
  -22.5970   -4.5940   21.5380 F   0  0  0  0  0  0  0  0  0  0  0  0
  -21.2060   -4.3210   26.0980 F   0  0  0  0  0  0  0  0  0  0  0  0
  -23.0270  -13.8740   21.0220 C   0  0  0  0  0  0  0  0  0  0  0  0
  -22.2820  -13.2010   21.8900 N   0  0  0  0  0  0  0  0  0  0  0  0
  -22.6000  -14.8870   20.4700 O   0  0  0  0  0  0  0  0  0  0  0  0
  -22.6350  -12.3780   22.3590 H   0  0  0  0  0  0  0  0  0  0  0  0
  -21.3450  -13.5170   22.0940 H   0  0  0  0  0  0  0  0  0  0  0  0
  -25.6810  -15.5200   20.2280 N   0  0  0  0  0  0  0  0  0  0  0  0
  -24.9300  -16.1940   20.3240 H   0  0  0  0  0  0  0  0  0  0  0  0
  -26.5600  -15.9460   19.9600 H   0  0  0  0  0  0  0  0  0  0  0  0
  1  4  1  0
  2 49  1  0
  2  5  1  0
  3  6  2  0
  5  1  2  0
  6  1  1  0
  7  3  2  0
  7  2  1  0
  8  3  1  0
  9 20  2  0
 10  8  1  0
 10 15  1  0
 11 19  1  0
 11 21  1  0
 12 18  1  0
 12 14  1  0
 13 19  1  0
 14 13  1  0
 15 14  2  0
 16 17  1  0
 16 10  2  0
 17 12  2  0
 18 11  1  0
 19  9  1  0
 21 23  2  0
 22 21  1  0
 24 22  1  0
 25 34  2  0
 25 30  1  0
 26 22  1  0
 26 30  1  0
 27 26  1  0
 28 29  1  0
 28 27  1  0
 29 25  1  0
 30 31  2  0
 31 32  1  0
 33 32  2  0
 34 33  1  0
 35  9  1  0
 35 40  1  0
 35 36  1  0
 36 39  1  1
 36 37  1  0
 38 36  1  0
 40 43  1  0
 41 45  1  0
 41 40  1  0
 42 41  2  0
 45 44  1  0
 47 45  1  0
 47 48  1  0
 47 46  1  0
 49 50  1  0
 50 53  1  0
 50 52  1  0
 51 50  1  0
 54 53  1  0
 56 61  1  0
 57 58  1  0
 57 56  1  0
 59 58  1  0
 59 71  1  0
 59 60  1  0
 61 55  1  0
 61 60  1  0
 62 55  2  0
 63 65  1  0
 63 64  1  0
 64 66  1  0
 65 67  1  0
 66 54  1  0
 67 55  1  0
 67 66  1  0
 68 69  2  0
 69 70  1  0
 69 88  1  0
 70 73  1  0
 71 68  1  0
 71 72  1  0
 72 70  2  0
 73 74  1  0
 74 75  2  0
 76 79  1  0
 76 75  1  0
 77 76  2  0
 78 77  1  0
 78 73  2  0
 79 80  1  0
 80 85  2  0
 80 81  1  0
 81 82  2  0
 82 83  1  0
 83 87  1  0
 84 83  2  0
 85 84  1  0
 86 85  1  0
 88 89  1  0
 89 92  1  0
 89 91  1  0
 90 88  2  0
 93 94  1  0
 93 68  1  0
 95 93  1  0
M  ISO  4   3 101   8 101  55 100  67 100
M  END
>  <TORSDO>  (23) 
F 20

>  <SCORE>  (23) 
-11.407

>  <name>  (23) 
22

>  <ligand_id>  (23) 
22

>  <original_smiles>  (23) 
[H]c1c([H])c([H])c2c(c1[H])C([H])([H])C([H])([H])C([H])([H])C2([H])N([H])C(=O)C1([H])N(C(=O)C([H])(N([H])C(=O)C([H])(N([H])C([H])([H])[H])C([H])([H])[H])C(C([H])([H])[H])(C([H])([H])[H])C([H])([H])[H])C([H])([H])c2c([H])c(Oc3nc(C([H])([H])[H])nc(C([H])([H])[N+]([H])([H])C([H])([H])C([H])([H])C4([H])N(C(=O)N5C([H])([H])C([H])([H])C([H])([H])C([H])(n6nc(-c7c([H])c([H])c(Oc8c([H])c([H])c(F)c([H])c8F)c([H])c7[H])c(C(=O)N([H])[H])c6N([H])[H])C5([H])[H])C([H])([H])C([H])([H])C4([H])[H])n3)c([H])c([H])c2C1([H])[H]

>  <smiles>  (23) 
[H]c1c([H])c([H])c2c(c1[H])C([H])([H])C([H])([H])C([H])([H])C2([H])N([H])C(=O)C1([H])N(C(=O)C([H])(N([H])C(=O)C([H])(N([H])C([H])([H])[H])C([H])([H])[H])C(C([H])([H])[H])(C([H])([H])[H])C([H])([H])[H])C([H])([H])c2c([H])c(Oc3nc(C([H])([H])[H])nc(C([H])([H])[N+]([H])([H])C([H])([H])C([H])([H])C4([H])N(C(=O)N5C([H])([H])C([H])([H])C([H])([H])C([H])(n6nc(-c7c([H])c([H])c(Oc8c([H])c([H])c(F)c([H])c8F)c([H])c7[H])c(C(=O)N([H])[H])c6N([H])[H])C5([H])[H])C([H])([H])C([H])([H])C4([H])[H])n3)c([H])c([H])c2C1([H])[H]

$$$$
23:0:0
     RDKit          3D

 98103  0  0  1  0  0  0  0  0999 V2000
  -25.1790  -24.8610   22.9890 C   0  0  0  0  0  3  0  0  0  0  0  0
  -24.3110  -24.4660   24.0670 C   0  0  0  0  0  0  0  0  0  0  0  0
  -25.9920  -23.3660   22.4500 C   0  0  0  0  0  0  0  0  0  0  0  0
  -24.6650  -22.2050   23.9750 C   0  0  0  0  0  0  0  0  0  0  0  0
  -23.5260  -25.4460   24.9220 C   0  0  0  0  0  1  0  0  0  0  0  0
  -24.2590  -20.8190   24.4250 C   0  0  0  0  0  1  0  0  0  0  0  0
  -24.0490  -23.2260   24.4940 N   0  0  0  0  0  0  0  0  0  0  0  0
  -25.5910  -22.2560   23.0680 N   0  0  0  0  0  0  0  0  0  0  0  0
  -27.0380  -22.3530   21.5560 N   0  0  0  0  0  0  0  0  0  0  0  0
  -27.4820  -22.9270   20.8420 H   0  0  0  0  0  0  0  0  0  0  0  0
  -30.2930  -17.1400   20.4150 C   0  0  0  0  0  0  0  0  0  0  0  0
  -31.0370  -14.5920   19.5070 C   0  0  0  0  0  2  0  0  0  0  0  0
  -30.3550  -13.8990   18.2650 C   0  0  0  0  0  2  0  0  0  0  0  0
  -28.9590  -13.3730   18.6180 C   0  0  0  0  0  2  0  0  0  0  0  0
  -28.2760  -14.3860   19.5530 C   0  0  0  0  0  3  0  0  0  0  0  0
  -29.1050  -14.8000   20.7730 C   0  0  0  0  0  2  0  0  0  0  0  0
  -30.1420  -15.6630   20.2410 N   0  0  0  0  0  0  0  0  0  0  0  0
  -31.5300  -17.2590   20.1500 O   0  0  0  0  0  0  0  0  0  0  0  0
  -28.0700  -19.3890   20.2320 C   0  0  0  0  0  3  0  0  0  0  0  0
  -29.3030  -19.8540   21.6190 C   0  0  0  0  0  3  0  0  0  0  0  0
  -27.7060  -20.5990   21.4730 C   0  0  0  0  0  3  0  0  0  0  0  0
  -29.2490  -18.3780   20.8470 N   0  0  0  0  0  0  0  0  0  0  0  0
  -25.9310  -14.8750   20.2650 C   0  0  0  0  0  0  0  0  0  0  0  0
  -24.8900  -14.0730   20.6220 C   0  0  0  0  0  0  0  0  0  0  0  0
  -25.3830  -12.7320   20.5610 C   0  0  0  0  0  0  0  0  0  0  0  0
  -26.9670  -14.0120   19.9880 N   0  0  0  0  0  0  0  0  0  0  0  0
  -26.6680  -12.7170   20.2370 N   0  0  0  0  0  0  0  0  0  0  0  0
  -24.6830  -11.4580   20.7250 C   0  0  0  0  0  0  0  0  0  0  0  0
  -25.0270  -10.5510   21.7510 C   0  0  0  0  0  3  0  0  0  0  0  0
  -24.3180   -9.3400   21.8950 C   0  0  0  0  0  3  0  0  0  0  0  0
  -23.2550   -9.0310   21.0130 C   0  0  0  0  0  0  0  0  0  0  0  0
  -22.9370   -9.9280   19.9780 C   0  0  0  0  0  3  0  0  0  0  0  0
  -23.6460  -11.1290   19.8320 C   0  0  0  0  0  3  0  0  0  0  0  0
  -22.5240   -7.8700   21.0630 O   0  0  0  0  0  0  0  0  0  0  0  0
  -22.2150   -7.2660   22.2540 C   0  0  0  0  0  0  0  0  0  0  0  0
  -21.5300   -7.9520   23.2810 C   0  0  0  0  0  3  0  0  0  0  0  0
  -21.1710   -7.2720   24.4620 C   0  0  0  0  0  3  0  0  0  0  0  0
  -21.4850   -5.9080   24.6130 C   0  0  0  0  0  0  0  0  0  0  0  0
  -22.1620   -5.2220   23.5890 C   0  0  0  0  0  3  0  0  0  0  0  0
  -22.5240   -5.9000   22.4110 C   0  0  0  0  0  0  0  0  0  0  0  0
  -23.1570   -5.2320   21.4180 F   0  0  0  0  0  0  0  0  0  0  0  0
  -21.1310   -5.2520   25.7430 F   0  0  0  0  0  0  0  0  0  0  0  0
  -23.4940  -14.5310   20.9020 C   0  0  0  0  0  0  0  0  0  0  0  0
  -22.7990  -13.8440   21.8010 N   0  0  0  0  0  0  0  0  0  0  0  0
  -23.0320  -15.5330   20.3600 O   0  0  0  0  0  0  0  0  0  0  0  0
  -23.1930  -13.0350   22.2570 H   0  0  0  0  0  0  0  0  0  0  0  0
  -21.8600  -14.1300   22.0380 H   0  0  0  0  0  0  0  0  0  0  0  0
  -26.0870  -16.2520   20.1320 N   0  0  0  0  0  0  0  0  0  0  0  0
  -25.3220  -16.9010   20.2750 H   0  0  0  0  0  0  0  0  0  0  0  0
  -26.9330  -16.6990   19.8020 H   0  0  0  0  0  0  0  0  0  0  0  0
  -24.7730  -26.8460   22.9200 C   0  0  0  0  0  1  0  0  0  0  0  0
  -23.5980  -28.5490   23.6880 C   0  0  0  0  0 15  0  0  0  0  0  0
  -22.4410  -30.0250   22.9090 N   0  0  0  0  0  2  0  0  0  0  0  0
  -23.0600  -30.8250   22.8990 H   0  0  0  0  0  0  0  0  0  0  0  0
  -21.7410  -30.2400   23.6060 H   0  0  0  0  0  0  0  0  0  0  0  0
  -21.4800  -30.0360   21.0400 C   0  0  0  0  0 15  0  0  0  0  0  0
  -22.1690  -28.7360   19.3270 C   0  0  0  0  0 15  0  0  0  0  0  0
  -23.9040  -27.8990   19.0890 O   0  0  0  0  0  1  0  0  0  0  0  0
  -25.1000  -31.7900   22.7250 C   0  0  0  0  0  0  0  0  0  0  0  0
  -25.2900  -28.0960   18.5840 C   0  0  0  0  0  3  0  0  0  0  0  0
  -23.9090  -30.3180   21.1510 C   0  0  0  0  0  3  0  0  0  0  0  0
  -24.4580  -30.4400   18.7360 C   0  0  0  0  0  3  0  0  0  0  0  0
  -26.0710  -31.1680   20.4940 C   0  0  0  0  0  2  0  0  0  0  0  0
  -25.7070  -30.2670   19.3310 C   0  0  0  0  0  3  0  0  0  0  0  0
  -26.2400  -28.9950   19.1680 C   0  0  0  0  0  2  0  0  0  0  0  0
  -24.9220  -28.4970   17.3380 C   0  0  0  0  0  2  0  0  0  0  0  0
  -24.1340  -29.6500   17.5800 C   0  0  0  0  0  2  0  0  0  0  0  0
  -23.5170  -31.0270   19.7510 C   0  0  0  0  0  2  0  0  0  0  0  0
  -25.0620  -31.0790   21.5650 N   0  0  0  0  0  0  0  0  0  0  0  0
  -24.1470  -31.9060   23.5170 O   0  0  0  0  0  0  0  0  0  0  0  0
  -24.0280  -28.5610   21.4650 C   0  0  0  0  0  3  0  0  0  0  0  0
  -22.8830  -27.3610   21.2470 N   0  0  0  0  0  0  0  0  0  0  0  0
  -24.8720  -28.3820   22.2890 O   0  0  0  0  0  0  0  0  0  0  0  0
  -23.3460  -26.4840   21.0560 H   0  0  0  0  0  0  0  0  0  0  0  0
  -18.3440  -27.4860   22.3050 C   0  0  0  0  0  0  0  0  0  0  0  0
  -21.1030  -27.0130   21.8140 C   0  0  0  0  0  3  0  0  0  0  0  0
  -20.6190  -26.0800   20.8320 C   0  0  0  0  0  2  0  0  0  0  0  0
  -19.3030  -26.4980   20.2680 C   0  0  0  0  0  2  0  0  0  0  0  0
  -18.2200  -26.3700   21.3290 C   0  0  0  0  0  2  0  0  0  0  0  0
  -19.6830  -27.9290   22.5920 C   0  0  0  0  0  0  0  0  0  0  0  0
  -19.5250  -29.1530   23.4340 C   0  0  0  0  0  3  0  0  0  0  0  0
  -18.2890  -29.7300   23.9090 C   0  0  0  0  0  3  0  0  0  0  0  0
  -17.0530  -29.1490   23.6090 C   0  0  0  0  0  3  0  0  0  0  0  0
  -17.1030  -28.0170   22.7910 C   0  0  0  0  0  3  0  0  0  0  0  0
  -26.4470  -32.3820   23.1320 C   0  0  0  0  0  3  0  0  0  0  0  0
  -26.1980  -33.6840   23.7560 N   0  0  0  0  0  0  0  0  0  0  0  0
  -26.3650  -34.8570   23.1330 C   0  0  0  0  0  0  0  0  0  0  0  0
  -26.7880  -34.9470   21.9760 O   0  0  0  0  0  0  0  0  0  0  0  0
  -25.7890  -33.6820   24.6790 H   0  0  0  0  0  0  0  0  0  0  0  0
  -24.6790  -36.6930   23.4600 C   0  0  0  0  0  1  0  0  0  0  0  0
  -26.0310  -36.1320   23.9250 C   0  0  0  0  0  3  0  0  0  0  0  0
  -28.3230  -36.8080   24.4790 C   0  0  0  0  0  1  0  0  0  0  0  0
  -27.0730  -37.1740   23.8170 N   0  0  0  0  0  0  0  0  0  0  0  0
  -26.7490  -38.0530   24.2080 H   0  0  0  0  0  0  0  0  0  0  0  0
  -27.1910  -31.3940   24.1010 C   0  0  1  0  0  0  0  0  0  0  0  0
  -26.3270  -30.9020   25.2890 C   0  0  0  0  0  1  0  0  0  0  0  0
  -27.7230  -30.1360   23.3740 C   0  0  0  0  0  1  0  0  0  0  0  0
  -28.4420  -32.1070   24.6480 C   0  0  0  0  0  1  0  0  0  0  0  0
  1  2  2  0
  2  7  1  0
  2  5  1  0
  3  1  1  0
  3  8  2  0
  4  6  1  0
  4  7  2  0
  8  4  1  0
  9  3  1  0
 10  9  1  0
 11 22  1  0
 12 17  1  0
 13 14  1  0
 13 12  1  0
 15 14  1  0
 15 26  1  0
 15 16  1  0
 17 11  1  0
 17 16  1  0
 18 11  2  0
 19 22  1  0
 19 21  1  0
 19 20  1  0
 20 22  1  0
 21  9  1  0
 21 20  1  0
 23 24  2  0
 24 43  1  0
 25 24  1  0
 25 28  1  0
 26 27  1  0
 26 23  1  0
 27 25  2  0
 28 29  1  0
 29 30  2  0
 31 34  1  0
 31 30  1  0
 32 31  2  0
 33 32  1  0
 33 28  2  0
 34 35  1  0
 35 40  2  0
 35 36  1  0
 36 37  2  0
 37 38  1  0
 38 42  1  0
 39 38  2  0
 40 39  1  0
 41 40  1  0
 43 44  1  0
 44 47  1  0
 44 46  1  0
 45 43  2  0
 48 23  1  0
 48 49  1  0
 50 48  1  0
 53 55  1  0
 54 53  1  0
 59 70  2  0
 60 58  1  0
 60 65  1  0
 61 71  1  0
 61 69  1  0
 62 67  1  0
 62 64  1  0
 62 68  1  0
 63 69  1  0
 64 65  1  0
 64 63  1  0
 66 67  1  0
 66 60  1  0
 68 61  1  0
 69 59  1  0
 71 73  1  0
 72 71  1  0
 73 51  1  0
 74 72  1  0
 75 80  2  0
 75 84  1  0
 76 72  1  0
 76 80  1  0
 77 76  1  0
 78 77  1  0
 78 79  1  0
 79 75  1  0
 80 81  1  0
 81 82  2  0
 83 82  1  0
 84 83  2  0
 85 59  1  0
 85 86  1  0
 85 95  1  0
 86 89  1  0
 87 86  1  0
 87 91  1  0
 88 87  2  0
 91 90  1  0
 93 91  1  0
 93 94  1  0
 93 92  1  0
 95 98  1  1
 95 96  1  0
 97 95  1  0
M  ISO  4  11 100  22 100  57 101  58 101
M  END
>  <TORSDO>  (24) 
F 21

>  <SCORE>  (24) 
16.089

>  <name>  (24) 
23

>  <ligand_id>  (24) 
23

>  <original_smiles>  (24) 
[H]c1c([H])c([H])c2c(c1[H])C([H])([H])C([H])([H])C([H])([H])C2([H])N([H])C(=O)C1([H])N(C(=O)C([H])(N([H])C(=O)C([H])(N([H])C([H])([H])[H])C([H])([H])[H])C(C([H])([H])[H])(C([H])([H])[H])C([H])([H])[H])C([H])([H])c2c([H])c(OC([H])([H])C([H])([H])[N+]([H])([H])C([H])([H])C([H])([H])c3c(N([H])C4([H])C([H])([H])N(C(=O)N5C([H])([H])C([H])([H])C([H])([H])C([H])(n6nc(-c7c([H])c([H])c(Oc8c([H])c([H])c(F)c([H])c8F)c([H])c7[H])c(C(=O)N([H])[H])c6N([H])[H])C5([H])[H])C4([H])[H])nc(C([H])([H])[H])nc3C([H])([H])[H])c([H])c([H])c2C1([H])[H]

>  <smiles>  (24) 
[H]c1c([H])c([H])c2c(c1[H])C([H])([H])C([H])([H])C([H])([H])C2([H])N([H])C(=O)C1([H])N(C(=O)C([H])(N([H])C(=O)C([H])(N([H])C([H])([H])[H])C([H])([H])[H])C(C([H])([H])[H])(C([H])([H])[H])C([H])([H])[H])C([H])([H])c2c([H])c(OC([H])([H])C([H])([H])[N+]([H])([H])C([H])([H])C([H])([H])c3c(N([H])C4([H])C([H])([H])N(C(=O)N5C([H])([H])C([H])([H])C([H])([H])C([H])(n6nc(-c7c([H])c([H])c(Oc8c([H])c([H])c(F)c([H])c8F)c([H])c7[H])c(C(=O)N([H])[H])c6N([H])[H])C5([H])[H])C4([H])[H])nc(C([H])([H])[H])nc3C([H])([H])[H])c([H])c([H])c2C1([H])[H]

$$$$
24:0:0
     RDKit          3D

 90 99  0  0  1  0  0  0  0  0999 V2000
  -29.2660  -22.7880   19.0930 C   0  0  0  0  0  3  0  0  0  0  0  0
  -28.6630  -22.7770   21.3380 C   0  0  0  0  0  3  0  0  0  0  0  0
  -28.7290  -23.5530   20.1550 C   0  0  0  0  0  0  0  0  0  0  0  0
  -29.5360  -20.8080   20.3530 C   0  0  0  0  0  0  0  0  0  0  0  0
  -29.6630  -18.4190   21.4620 C   0  0  0  0  0  2  0  0  0  0  0  0
  -29.9930  -18.3860   19.4240 C   0  0  0  0  0  2  0  0  0  0  0  0
  -30.4130  -17.3750   20.5520 C   0  0  0  0  0  3  0  0  0  0  0  0
  -29.6520  -21.4760   19.2000 N   0  0  0  0  0  0  0  0  0  0  0  0
  -29.0640  -21.4630   21.4230 N   0  0  0  0  0  0  0  0  0  0  0  0
  -30.0720  -19.4310   20.4670 N   0  0  0  0  0  0  0  0  0  0  0  0
  -30.6560  -14.7800   20.2260 C   0  0  0  0  0  0  0  0  0  0  0  0
  -30.4120  -12.5160   19.1960 C   0  0  0  0  0  2  0  0  0  0  0  0
  -29.4370  -12.5880   18.0000 C   0  0  0  0  0  2  0  0  0  0  0  0
  -27.9830  -12.4070   18.4750 C   0  0  0  0  0  2  0  0  0  0  0  0
  -27.6420  -13.2900   19.7060 C   0  0  0  0  0  3  0  0  0  0  0  0
  -28.7350  -13.2070   20.7940 C   0  0  0  0  0  2  0  0  0  0  0  0
  -30.0110  -13.5650   20.1610 N   0  0  0  0  0  0  0  0  0  0  0  0
  -31.8300  -14.8710   19.8550 O   0  0  0  0  0  0  0  0  0  0  0  0
  -29.9260  -15.9230   20.5150 N   0  0  0  0  0  0  0  0  0  0  0  0
  -28.9580  -15.7730   20.7510 H   0  0  0  0  0  0  0  0  0  0  0  0
  -25.2810  -13.8670   20.5260 C   0  0  0  0  0  0  0  0  0  0  0  0
  -24.2270  -13.0870   20.9140 C   0  0  0  0  0  0  0  0  0  0  0  0
  -24.6850  -11.7360   20.8380 C   0  0  0  0  0  0  0  0  0  0  0  0
  -26.3140  -12.9920   20.2360 N   0  0  0  0  0  0  0  0  0  0  0  0
  -25.9650  -11.7030   20.4870 N   0  0  0  0  0  0  0  0  0  0  0  0
  -23.9610  -10.4720   21.0240 C   0  0  0  0  0  0  0  0  0  0  0  0
  -24.3940   -9.5020   21.9550 C   0  0  0  0  0  3  0  0  0  0  0  0
  -23.6710   -8.3020   22.1280 C   0  0  0  0  0  3  0  0  0  0  0  0
  -22.4990   -8.0640   21.3700 C   0  0  0  0  0  0  0  0  0  0  0  0
  -22.0860   -9.0220   20.4290 C   0  0  0  0  0  3  0  0  0  0  0  0
  -22.8110  -10.2130   20.2530 C   0  0  0  0  0  3  0  0  0  0  0  0
  -21.7470   -6.9170   21.4540 O   0  0  0  0  0  0  0  0  0  0  0  0
  -21.6540   -6.2010   22.6200 C   0  0  0  0  0  0  0  0  0  0  0  0
  -21.1340   -6.7680   23.8040 C   0  0  0  0  0  3  0  0  0  0  0  0
  -20.9930   -5.9750   24.9610 C   0  0  0  0  0  3  0  0  0  0  0  0
  -21.3590   -4.6170   24.9330 C   0  0  0  0  0  0  0  0  0  0  0  0
  -21.8720   -4.0490   23.7540 C   0  0  0  0  0  3  0  0  0  0  0  0
  -22.0150   -4.8390   22.6000 C   0  0  0  0  0  0  0  0  0  0  0  0
  -22.4890   -4.2810   21.4600 F   0  0  0  0  0  0  0  0  0  0  0  0
  -21.2160   -3.8530   26.0430 F   0  0  0  0  0  0  0  0  0  0  0  0
  -22.8400  -13.5600   21.2400 C   0  0  0  0  0  0  0  0  0  0  0  0
  -22.1400  -12.8510   22.1170 N   0  0  0  0  0  0  0  0  0  0  0  0
  -22.3860  -14.5950   20.7500 O   0  0  0  0  0  0  0  0  0  0  0  0
  -22.5200  -12.0140   22.5340 H   0  0  0  0  0  0  0  0  0  0  0  0
  -21.2110  -13.1500   22.3790 H   0  0  0  0  0  0  0  0  0  0  0  0
  -25.4400  -15.2410   20.3700 N   0  0  0  0  0  0  0  0  0  0  0  0
  -24.6720  -15.8890   20.5100 H   0  0  0  0  0  0  0  0  0  0  0  0
  -26.2640  -15.6840   19.9830 H   0  0  0  0  0  0  0  0  0  0  0  0
  -27.9070  -24.9050   19.9130 C   0  0  0  0  0  2  0  0  0  0  0  0
  -28.2720  -26.3220   20.2900 O   0  0  0  0  0  0  0  0  0  0  0  0
  -24.6430  -31.8790   23.3200 C   0  0  0  0  0  0  0  0  0  0  0  0
  -27.2180  -27.2810   20.2130 C   0  0  0  0  0  0  0  0  0  0  0  0
  -23.4390  -30.5130   21.6600 C   0  0  0  0  0  3  0  0  0  0  0  0
  -24.8840  -28.9790   20.2130 C   0  0  0  0  0  0  0  0  0  0  0  0
  -25.9900  -30.7930   21.5010 C   0  0  0  0  0  2  0  0  0  0  0  0
  -26.0610  -29.4210   20.8310 C   0  0  0  0  0  0  0  0  0  0  0  0
  -27.2300  -28.5840   20.8250 C   0  0  0  0  0  3  0  0  0  0  0  0
  -26.0160  -26.9370   19.5440 C   0  0  0  0  0  3  0  0  0  0  0  0
  -24.8690  -27.7450   19.5580 C   0  0  0  0  0  3  0  0  0  0  0  0
  -23.6570  -29.8660   20.2700 C   0  0  0  0  0  2  0  0  0  0  0  0
  -24.7100  -31.0790   22.2160 N   0  0  0  0  0  0  0  0  0  0  0  0
  -23.5570  -32.1590   23.8500 O   0  0  0  0  0  0  0  0  0  0  0  0
  -22.7620  -29.4850   22.6000 C   0  0  0  0  0  0  0  0  0  0  0  0
  -21.4370  -29.3100   22.4580 N   0  0  0  0  0  0  0  0  0  0  0  0
  -23.4290  -28.8500   23.4200 O   0  0  0  0  0  0  0  0  0  0  0  0
  -20.9560  -29.8750   21.7710 H   0  0  0  0  0  0  0  0  0  0  0  0
  -18.0490  -28.1230   22.9270 C   0  0  0  0  0  0  0  0  0  0  0  0
  -20.6070  -28.3680   23.2120 C   0  0  0  0  0  3  0  0  0  0  0  0
  -20.7060  -26.9420   22.6220 C   0  0  0  0  0  2  0  0  0  0  0  0
  -19.6080  -26.6360   21.5980 C   0  0  0  0  0  2  0  0  0  0  0  0
  -18.2230  -26.7810   22.2370 C   0  0  0  0  0  2  0  0  0  0  0  0
  -19.1690  -28.8750   23.3720 C   0  0  0  0  0  0  0  0  0  0  0  0
  -18.9520  -30.1310   23.9790 C   0  0  0  0  0  3  0  0  0  0  0  0
  -17.6490  -30.6350   24.1450 C   0  0  0  0  0  3  0  0  0  0  0  0
  -16.5430  -29.8810   23.7160 C   0  0  0  0  0  3  0  0  0  0  0  0
  -16.7440  -28.6260   23.1130 C   0  0  0  0  0  3  0  0  0  0  0  0
  -25.9250  -32.4980   23.9550 C   0  0  0  0  0  3  0  0  0  0  0  0
  -25.6250  -33.8980   24.2870 N   0  0  0  0  0  0  0  0  0  0  0  0
  -25.9330  -34.9480   23.5130 C   0  0  0  0  0  0  0  0  0  0  0  0
  -26.5690  -34.8380   22.4620 O   0  0  0  0  0  0  0  0  0  0  0  0
  -25.0570  -34.0570   25.1060 H   0  0  0  0  0  0  0  0  0  0  0  0
  -24.1810  -36.7300   23.2270 C   0  0  0  0  0  1  0  0  0  0  0  0
  -25.4620  -36.3390   23.9800 C   0  0  0  0  0  3  0  0  0  0  0  0
  -27.6240  -37.2490   24.7060 C   0  0  0  0  0  1  0  0  0  0  0  0
  -26.4830  -37.3950   23.8070 N   0  0  0  0  0  0  0  0  0  0  0  0
  -26.0780  -38.3150   23.9560 H   0  0  0  0  0  0  0  0  0  0  0  0
  -26.4190  -31.7180   25.2360 C   0  0  1  0  0  0  0  0  0  0  0  0
  -25.3100  -31.4870   26.2900 C   0  0  0  0  0  1  0  0  0  0  0  0
  -26.9970  -30.3370   24.8520 C   0  0  0  0  0  1  0  0  0  0  0  0
  -27.5660  -32.5030   25.9140 C   0  0  0  0  0  1  0  0  0  0  0  0
  1  8  1  0
  1  3  2  0
  2  9  2  0
  3  2  1  0
  4 10  1  0
  4  9  1  0
  6 10  1  0
  6  7  1  0
  7 19  1  0
  7  5  1  0
  8  4  2  0
 10  5  1  0
 11 19  1  0
 12 17  1  0
 13 14  1  0
 13 12  1  0
 15 14  1  0
 15 24  1  0
 15 16  1  0
 17 11  1  0
 17 16  1  0
 18 11  2  0
 19 20  1  0
 21 22  2  0
 22 41  1  0
 23 22  1  0
 23 26  1  0
 24 25  1  0
 24 21  1  0
 25 23  2  0
 26 27  1  0
 27 28  2  0
 29 32  1  0
 29 28  1  0
 30 29  2  0
 31 30  1  0
 31 26  2  0
 32 33  1  0
 33 34  1  0
 34 35  2  0
 36 35  1  0
 36 40  1  0
 37 36  2  0
 38 33  2  0
 38 37  1  0
 39 38  1  0
 41 42  1  0
 42 45  1  0
 42 44  1  0
 43 41  2  0
 46 47  1  0
 46 21  1  0
 48 46  1  0
 49  3  1  0
 49 50  1  0
 51 62  2  0
 52 50  1  0
 52 57  1  0
 53 61  1  0
 53 63  1  0
 54 60  1  0
 54 56  1  0
 55 61  1  0
 56 55  1  0
 57 56  2  0
 58 59  1  0
 58 52  2  0
 59 54  2  0
 60 53  1  0
 61 51  1  0
 63 65  2  0
 64 63  1  0
 66 64  1  0
 67 76  2  0
 67 72  1  0
 68 64  1  0
 68 72  1  0
 69 68  1  0
 70 71  1  0
 70 69  1  0
 71 67  1  0
 72 73  2  0
 73 74  1  0
 75 74  2  0
 76 75  1  0
 77 51  1  0
 77 78  1  0
 77 87  1  0
 78 81  1  0
 79 83  1  0
 79 78  1  0
 80 79  2  0
 83 82  1  0
 85 86  1  0
 85 83  1  0
 85 84  1  0
 87 90  1  1
 87 88  1  0
 89 87  1  0
M  ISO  4  11 100  19 100  49 101  50 101
M  END
>  <TORSDO>  (25) 
F 17

>  <SCORE>  (25) 
-14.797

>  <name>  (25) 
24

>  <ligand_id>  (25) 
24

>  <original_smiles>  (25) 
[H]c1nc(N2C([H])([H])C([H])(N([H])C(=O)N3C([H])([H])C([H])([H])C([H])([H])C([H])(n4nc(-c5c([H])c([H])c(Oc6c([H])c([H])c(F)c([H])c6F)c([H])c5[H])c(C(=O)N([H])[H])c4N([H])[H])C3([H])[H])C2([H])[H])nc([H])c1C([H])([H])Oc1c([H])c([H])c2c(c1[H])C([H])([H])N(C(=O)C([H])(N([H])C(=O)C([H])(N([H])C([H])([H])[H])C([H])([H])[H])C(C([H])([H])[H])(C([H])([H])[H])C([H])([H])[H])C([H])(C(=O)N([H])C1([H])c3c([H])c([H])c([H])c([H])c3C([H])([H])C([H])([H])C1([H])[H])C2([H])[H]

>  <smiles>  (25) 
[H]c1nc(N2C([H])([H])C([H])(N([H])C(=O)N3C([H])([H])C([H])([H])C([H])([H])C([H])(n4nc(-c5c([H])c([H])c(Oc6c([H])c([H])c(F)c([H])c6F)c([H])c5[H])c(C(=O)N([H])[H])c4N([H])[H])C3([H])[H])C2([H])[H])nc([H])c1C([H])([H])Oc1c([H])c([H])c2c(c1[H])C([H])([H])N(C(=O)C([H])(N([H])C(=O)C([H])(N([H])C([H])([H])[H])C([H])([H])[H])C(C([H])([H])[H])(C([H])([H])[H])C([H])([H])[H])C([H])(C(=O)N([H])C1([H])c3c([H])c([H])c([H])c([H])c3C([H])([H])C([H])([H])C1([H])[H])C2([H])[H]

$$$$
25:0:0
     RDKit          3D

 90 99  0  0  1  0  0  0  0  0999 V2000
  -30.6310  -15.7560   20.1350 C   0  0  0  0  0  0  0  0  0  0  0  0
  -30.6220  -13.2720   19.3530 C   0  0  0  0  0  2  0  0  0  0  0  0
  -29.7250  -12.9280   18.1390 C   0  0  0  0  0  2  0  0  0  0  0  0
  -28.2980  -12.6180   18.6080 C   0  0  0  0  0  2  0  0  0  0  0  0
  -27.7980  -13.6500   19.6500 C   0  0  0  0  0  3  0  0  0  0  0  0
  -28.8270  -13.9350   20.7650 C   0  0  0  0  0  2  0  0  0  0  0  0
  -30.0260  -14.4600   20.0870 N   0  0  0  0  0  0  0  0  0  0  0  0
  -31.8630  -15.6590   20.0060 O   0  0  0  0  0  0  0  0  0  0  0  0
  -26.4150  -23.1610   20.7600 C   0  0  0  0  0  3  0  0  0  0  0  0
  -28.3370  -22.1150   20.1030 C   0  0  0  0  0  0  0  0  0  0  0  0
  -27.9450  -24.6250   19.9720 C   0  0  0  0  0  0  0  0  0  0  0  0
  -30.1640  -19.9680   19.4090 C   0  0  0  0  0  3  0  0  0  0  0  0
  -28.2900  -19.3700   20.6070 C   0  0  0  0  0  3  0  0  0  0  0  0
  -30.7910  -18.4930   19.9770 C   0  0  0  0  0  3  0  0  0  0  0  0
  -28.6180  -17.7640   20.1490 C   0  0  0  0  0  3  0  0  0  0  0  0
  -25.0220  -23.0010   21.3340 C   0  0  0  0  0  1  0  0  0  0  0  0
  -27.1140  -22.0320   20.6100 N   0  0  0  0  0  0  0  0  0  0  0  0
  -26.7430  -24.4190   20.4820 N   0  0  0  0  0  0  0  0  0  0  0  0
  -28.7980  -23.4520   19.7670 N   0  0  0  0  0  0  0  0  0  0  0  0
  -28.9510  -20.6470   20.0370 N   0  0  0  0  0  0  0  0  0  0  0  0
  -30.0210  -17.1420   20.0930 N   0  0  0  0  0  0  0  0  0  0  0  0
  -25.4280  -14.1830   20.4090 C   0  0  0  0  0  0  0  0  0  0  0  0
  -24.3730  -13.3970   20.7750 C   0  0  0  0  0  0  0  0  0  0  0  0
  -24.8570  -12.0520   20.7530 C   0  0  0  0  0  0  0  0  0  0  0  0
  -26.4800  -13.3190   20.1700 N   0  0  0  0  0  0  0  0  0  0  0  0
  -26.1500  -12.0310   20.4490 N   0  0  0  0  0  0  0  0  0  0  0  0
  -24.1440  -10.7810   20.9460 C   0  0  0  0  0  0  0  0  0  0  0  0
  -24.5570   -9.8370   21.9110 C   0  0  0  0  0  3  0  0  0  0  0  0
  -23.8400   -8.6350   22.0900 C   0  0  0  0  0  3  0  0  0  0  0  0
  -22.6950   -8.3670   21.3040 C   0  0  0  0  0  0  0  0  0  0  0  0
  -22.3020   -9.2990   20.3270 C   0  0  0  0  0  3  0  0  0  0  0  0
  -23.0190  -10.4940   20.1470 C   0  0  0  0  0  3  0  0  0  0  0  0
  -21.9510   -7.2160   21.3920 O   0  0  0  0  0  0  0  0  0  0  0  0
  -21.8540   -6.5090   22.5630 C   0  0  0  0  0  0  0  0  0  0  0  0
  -21.3130   -7.0790   23.7360 C   0  0  0  0  0  3  0  0  0  0  0  0
  -21.1730   -6.2940   24.8990 C   0  0  0  0  0  3  0  0  0  0  0  0
  -21.5630   -4.9420   24.8870 C   0  0  0  0  0  0  0  0  0  0  0  0
  -22.0940   -4.3720   23.7170 C   0  0  0  0  0  3  0  0  0  0  0  0
  -22.2350   -5.1530   22.5570 C   0  0  0  0  0  0  0  0  0  0  0  0
  -22.7310   -4.5930   21.4270 F   0  0  0  0  0  0  0  0  0  0  0  0
  -21.4180   -4.1850   26.0000 F   0  0  0  0  0  0  0  0  0  0  0  0
  -22.9700  -13.8590   21.0290 C   0  0  0  0  0  0  0  0  0  0  0  0
  -22.2480  -13.1620   21.9000 N   0  0  0  0  0  0  0  0  0  0  0  0
  -22.5240  -14.8710   20.4910 O   0  0  0  0  0  0  0  0  0  0  0  0
  -22.6270  -12.3400   22.3480 H   0  0  0  0  0  0  0  0  0  0  0  0
  -21.3080  -13.4520   22.1220 H   0  0  0  0  0  0  0  0  0  0  0  0
  -25.5830  -15.5540   20.2280 N   0  0  0  0  0  0  0  0  0  0  0  0
  -24.8170  -16.2070   20.3420 H   0  0  0  0  0  0  0  0  0  0  0  0
  -26.4300  -15.9860   19.8890 H   0  0  0  0  0  0  0  0  0  0  0  0
  -28.2190  -26.1030   19.7500 O   0  0  0  0  0  0  0  0  0  0  0  0
  -24.8750  -31.8870   23.4740 C   0  0  0  0  0  0  0  0  0  0  0  0
  -27.2560  -27.2580   19.8970 C   0  0  0  0  0  0  0  0  0  0  0  0
  -23.6280  -30.7010   21.7170 C   0  0  0  0  0  3  0  0  0  0  0  0
  -25.0190  -29.2280   20.1020 C   0  0  0  0  0  0  0  0  0  0  0  0
  -26.2010  -30.8490   21.5600 C   0  0  0  0  0  2  0  0  0  0  0  0
  -26.2250  -29.5120   20.7550 C   0  0  0  0  0  0  0  0  0  0  0  0
  -27.3360  -28.5500   20.6350 C   0  0  0  0  0  3  0  0  0  0  0  0
  -26.0310  -27.1700   19.1920 C   0  0  0  0  0  3  0  0  0  0  0  0
  -24.9480  -28.0770   19.3070 C   0  0  0  0  0  3  0  0  0  0  0  0
  -23.8250  -30.1710   20.2710 C   0  0  0  0  0  2  0  0  0  0  0  0
  -24.9260  -31.1690   22.3060 N   0  0  0  0  0  0  0  0  0  0  0  0
  -23.8000  -32.1470   24.0390 O   0  0  0  0  0  0  0  0  0  0  0  0
  -22.9230  -29.6230   22.5810 C   0  0  0  0  0  0  0  0  0  0  0  0
  -21.6040  -29.4420   22.3950 N   0  0  0  0  0  0  0  0  0  0  0  0
  -23.5720  -28.9530   23.3890 O   0  0  0  0  0  0  0  0  0  0  0  0
  -21.1350  -30.0280   21.7200 H   0  0  0  0  0  0  0  0  0  0  0  0
  -18.2250  -28.1560   22.7180 C   0  0  0  0  0  0  0  0  0  0  0  0
  -20.7750  -28.4310   23.0640 C   0  0  0  0  0  3  0  0  0  0  0  0
  -20.9090  -27.0520   22.3740 C   0  0  0  0  0  2  0  0  0  0  0  0
  -19.8360  -26.8050   21.3070 C   0  0  0  0  0  2  0  0  0  0  0  0
  -18.4370  -26.8790   21.9230 C   0  0  0  0  0  2  0  0  0  0  0  0
  -19.3230  -28.8940   23.2370 C   0  0  0  0  0  0  0  0  0  0  0  0
  -19.0690  -30.0940   23.9380 C   0  0  0  0  0  3  0  0  0  0  0  0
  -17.7520  -30.5540   24.1220 C   0  0  0  0  0  3  0  0  0  0  0  0
  -16.6700  -29.8130   23.6150 C   0  0  0  0  0  3  0  0  0  0  0  0
  -16.9060  -28.6140   22.9190 C   0  0  0  0  0  3  0  0  0  0  0  0
  -26.1680  -32.4330   24.1520 C   0  0  0  0  0  3  0  0  0  0  0  0
  -25.8970  -33.8080   24.6040 N   0  0  0  0  0  0  0  0  0  0  0  0
  -26.2070  -34.9180   23.9200 C   0  0  0  0  0  0  0  0  0  0  0  0
  -26.8140  -34.8890   22.8460 O   0  0  0  0  0  0  0  0  0  0  0  0
  -25.3450  -33.9030   25.4440 H   0  0  0  0  0  0  0  0  0  0  0  0
  -24.4800  -36.7510   23.8560 C   0  0  0  0  0  1  0  0  0  0  0  0
  -25.7820  -36.2750   24.5190 C   0  0  0  0  0  3  0  0  0  0  0  0
  -27.9820  -37.0990   25.2380 C   0  0  0  0  0  1  0  0  0  0  0  0
  -26.8160  -37.3270   24.3890 N   0  0  0  0  0  0  0  0  0  0  0  0
  -26.4310  -38.2390   24.6200 H   0  0  0  0  0  0  0  0  0  0  0  0
  -26.6470  -31.5490   25.3690 C   0  0  1  0  0  0  0  0  0  0  0  0
  -25.5390  -31.2710   26.4130 C   0  0  0  0  0  1  0  0  0  0  0  0
  -27.1840  -30.1820   24.8850 C   0  0  0  0  0  1  0  0  0  0  0  0
  -27.8210  -32.2490   26.0950 C   0  0  0  0  0  1  0  0  0  0  0  0
  2  7  1  0
  3  4  1  0
  3  2  1  0
  5  4  1  0
  5 25  1  0
  5  6  1  0
  7  1  1  0
  7  6  1  0
  8  1  2  0
  9 16  1  0
 10 17  2  0
 11 18  2  0
 12 14  2  0
 12 20  1  0
 14 21  1  0
 15 13  2  0
 17  9  1  0
 18  9  1  0
 19 11  2  0
 19 10  1  0
 20 10  1  0
 20 13  1  0
 21  1  1  0
 21 15  1  0
 22 23  2  0
 23 42  1  0
 24 23  1  0
 24 27  1  0
 25 22  1  0
 25 26  1  0
 26 24  2  0
 27 28  1  0
 28 29  2  0
 30 33  1  0
 30 29  1  0
 31 30  2  0
 32 31  1  0
 32 27  2  0
 33 34  1  0
 34 35  1  0
 35 36  2  0
 37 36  1  0
 37 41  1  0
 38 37  2  0
 39 34  2  0
 39 38  1  0
 40 39  1  0
 42 43  1  0
 43 46  1  0
 43 45  1  0
 44 42  2  0
 47 48  1  0
 47 22  1  0
 49 47  1  0
 50 52  1  0
 50 11  1  0
 51 62  2  0
 52 57  1  0
 53 61  1  0
 53 63  1  0
 54 60  1  0
 54 56  1  0
 55 61  1  0
 56 55  1  0
 57 56  2  0
 58 59  1  0
 58 52  2  0
 59 54  2  0
 60 53  1  0
 61 51  1  0
 63 65  2  0
 64 63  1  0
 66 64  1  0
 67 76  2  0
 67 72  1  0
 68 64  1  0
 68 72  1  0
 69 68  1  0
 70 71  1  0
 70 69  1  0
 71 67  1  0
 72 73  2  0
 73 74  1  0
 75 74  2  0
 76 75  1  0
 77 51  1  0
 77 78  1  0
 77 87  1  0
 78 81  1  0
 79 83  1  0
 79 78  1  0
 80 79  2  0
 83 82  1  0
 85 83  1  0
 85 86  1  0
 85 84  1  0
 87 90  1  1
 87 88  1  0
 89 87  1  0
M  ISO  4   1 100  11 101  21 100  50 101
M  END
>  <TORSDO>  (26) 
F 15

>  <SCORE>  (26) 
-14.751

>  <name>  (26) 
25

>  <ligand_id>  (26) 
25

>  <original_smiles>  (26) 
[H]c1c([H])c([H])c2c(c1[H])C([H])([H])C([H])([H])C([H])([H])C2([H])N([H])C(=O)C1([H])N(C(=O)C([H])(N([H])C(=O)C([H])(N([H])C([H])([H])[H])C([H])([H])[H])C(C([H])([H])[H])(C([H])([H])[H])C([H])([H])[H])C([H])([H])c2c([H])c(Oc3nc(N4C([H])([H])C([H])([H])N(C(=O)N5C([H])([H])C([H])([H])C([H])([H])C([H])(n6nc(-c7c([H])c([H])c(Oc8c([H])c([H])c(F)c([H])c8F)c([H])c7[H])c(C(=O)N([H])[H])c6N([H])[H])C5([H])[H])C([H])([H])C4([H])[H])nc(C([H])([H])[H])n3)c([H])c([H])c2C1([H])[H]

>  <smiles>  (26) 
[H]c1c([H])c([H])c2c(c1[H])C([H])([H])C([H])([H])C([H])([H])C2([H])N([H])C(=O)C1([H])N(C(=O)C([H])(N([H])C(=O)C([H])(N([H])C([H])([H])[H])C([H])([H])[H])C(C([H])([H])[H])(C([H])([H])[H])C([H])([H])[H])C([H])([H])c2c([H])c(Oc3nc(N4C([H])([H])C([H])([H])N(C(=O)N5C([H])([H])C([H])([H])C([H])([H])C([H])(n6nc(-c7c([H])c([H])c(Oc8c([H])c([H])c(F)c([H])c8F)c([H])c7[H])c(C(=O)N([H])[H])c6N([H])[H])C5([H])[H])C([H])([H])C4([H])[H])nc(C([H])([H])[H])n3)c([H])c([H])c2C1([H])[H]

$$$$
26:0:0
     RDKit          3D

 96105  0  0  1  0  0  0  0  0999 V2000
  -30.6080  -14.9570   20.3030 C   0  0  0  0  0  0  0  0  0  0  0  0
  -30.4360  -12.5730   19.4810 C   0  0  0  0  0  2  0  0  0  0  0  0
  -29.5270  -12.4870   18.2350 C   0  0  0  0  0  2  0  0  0  0  0  0
  -28.0550  -12.3120   18.6570 C   0  0  0  0  0  2  0  0  0  0  0  0
  -27.6400  -13.2930   19.7850 C   0  0  0  0  0  3  0  0  0  0  0  0
  -28.6820  -13.3690   20.9220 C   0  0  0  0  0  2  0  0  0  0  0  0
  -29.9610  -13.7250   20.3000 N   0  0  0  0  0  0  0  0  0  0  0  0
  -31.8140  -14.9420   20.0250 O   0  0  0  0  0  0  0  0  0  0  0  0
  -28.5000  -21.9400   19.7420 C   0  0  0  0  0  0  0  0  0  0  0  0
  -28.8920  -23.3710   19.7580 C   0  0  0  0  0  0  0  0  0  0  0  0
  -29.4820  -20.8790   19.9910 C   0  0  0  0  0  0  0  0  0  0  0  0
  -31.0300  -22.5970   20.1950 C   0  0  0  0  0  0  0  0  0  0  0  0
  -30.2830  -18.6470   19.1240 C   0  0  0  0  0  2  0  0  0  0  0  0
  -29.3240  -18.6200   21.2200 C   0  0  0  0  0  2  0  0  0  0  0  0
  -30.0500  -17.0720   18.9420 C   0  0  0  0  0  2  0  0  0  0  0  0
  -29.1610  -17.0010   21.1720 C   0  0  0  0  0  2  0  0  0  0  0  0
  -32.4880  -22.9490   20.3980 C   0  0  0  0  0  1  0  0  0  0  0  0
  -30.1960  -23.6220   19.9880 N   0  0  0  0  0  0  0  0  0  0  0  0
  -30.7410  -21.2920   20.2110 N   0  0  0  0  0  0  0  0  0  0  0  0
  -29.2990  -19.4040   19.9450 N   0  0  0  0  0  0  0  0  0  0  0  0
  -29.8980  -16.1850   20.1440 N   0  0  0  0  0  0  0  0  0  0  0  0
  -25.2730  -13.9120   20.5270 C   0  0  0  0  0  0  0  0  0  0  0  0
  -24.1930  -13.1560   20.8900 C   0  0  0  0  0  0  0  0  0  0  0  0
  -24.6300  -11.7970   20.8490 C   0  0  0  0  0  0  0  0  0  0  0  0
  -26.2980  -13.0150   20.2830 N   0  0  0  0  0  0  0  0  0  0  0  0
  -25.9210  -11.7370   20.5430 N   0  0  0  0  0  0  0  0  0  0  0  0
  -23.8770  -10.5470   21.0280 C   0  0  0  0  0  0  0  0  0  0  0  0
  -24.2860   -9.5620   21.9530 C   0  0  0  0  0  3  0  0  0  0  0  0
  -23.5340   -8.3790   22.1220 C   0  0  0  0  0  3  0  0  0  0  0  0
  -22.3560   -8.1750   21.3640 C   0  0  0  0  0  0  0  0  0  0  0  0
  -21.9650   -9.1480   20.4280 C   0  0  0  0  0  3  0  0  0  0  0  0
  -22.7190  -10.3220   20.2580 C   0  0  0  0  0  3  0  0  0  0  0  0
  -21.5740   -7.0480   21.4430 O   0  0  0  0  0  0  0  0  0  0  0  0
  -21.5020   -6.3000   22.5920 C   0  0  0  0  0  0  0  0  0  0  0  0
  -21.0860   -6.8590   23.8200 C   0  0  0  0  0  3  0  0  0  0  0  0
  -20.9600   -6.0400   24.9600 C   0  0  0  0  0  3  0  0  0  0  0  0
  -21.2390   -4.6620   24.8710 C   0  0  0  0  0  0  0  0  0  0  0  0
  -21.6470   -4.1030   23.6480 C   0  0  0  0  0  3  0  0  0  0  0  0
  -21.7750   -4.9200   22.5110 C   0  0  0  0  0  0  0  0  0  0  0  0
  -22.1490   -4.3710   21.3300 F   0  0  0  0  0  0  0  0  0  0  0  0
  -21.1090   -3.8740   25.9640 F   0  0  0  0  0  0  0  0  0  0  0  0
  -22.8050  -13.6600   21.1600 C   0  0  0  0  0  0  0  0  0  0  0  0
  -22.0650  -12.9840   22.0300 N   0  0  0  0  0  0  0  0  0  0  0  0
  -22.3870  -14.6890   20.6320 O   0  0  0  0  0  0  0  0  0  0  0  0
  -22.4170  -12.1510   22.4790 H   0  0  0  0  0  0  0  0  0  0  0  0
  -21.1330  -13.3050   22.2520 H   0  0  0  0  0  0  0  0  0  0  0  0
  -25.4650  -15.2800   20.3570 N   0  0  0  0  0  0  0  0  0  0  0  0
  -24.7130  -15.9500   20.4750 H   0  0  0  0  0  0  0  0  0  0  0  0
  -26.3250  -15.6990   20.0280 H   0  0  0  0  0  0  0  0  0  0  0  0
  -27.0430  -21.5380   19.5000 C   0  0  0  0  0  2  0  0  0  0  0  0
  -25.3710  -20.6770   17.8920 C   0  0  0  0  0  1  0  0  0  0  0  0
  -26.7800  -21.0500   18.1270 N   0  0  0  0  0  4  0  0  0  0  0  0
  -27.0300  -21.7510   17.4480 H   0  0  0  0  0  0  0  0  0  0  0  0
  -27.3360  -20.2290   17.9460 H   0  0  0  0  0  0  0  0  0  0  0  0
  -27.9480  -24.6870   19.4600 C   0  0  0  0  0  2  0  0  0  0  0  0
  -28.2830  -26.1870   19.6850 O   0  0  0  0  0  0  0  0  0  0  0  0
  -24.5600  -31.6220   22.9980 C   0  0  0  0  0  0  0  0  0  0  0  0
  -27.2200  -27.1610   19.6770 C   0  0  0  0  0  0  0  0  0  0  0  0
  -23.3830  -30.3040   21.2810 C   0  0  0  0  0  3  0  0  0  0  0  0
  -24.8580  -28.8540   19.7610 C   0  0  0  0  0  0  0  0  0  0  0  0
  -25.9320  -30.6310   21.1310 C   0  0  0  0  0  2  0  0  0  0  0  0
  -26.0320  -29.2840   20.3940 C   0  0  0  0  0  0  0  0  0  0  0  0
  -27.2140  -28.4560   20.3380 C   0  0  0  0  0  3  0  0  0  0  0  0
  -26.0160  -26.8390   19.0090 C   0  0  0  0  0  3  0  0  0  0  0  0
  -24.8610  -27.6440   19.0550 C   0  0  0  0  0  3  0  0  0  0  0  0
  -23.6140  -29.7210   19.8640 C   0  0  0  0  0  2  0  0  0  0  0  0
  -24.6450  -30.8710   21.8600 N   0  0  0  0  0  0  0  0  0  0  0  0
  -23.4690  -31.8520   23.5430 O   0  0  0  0  0  0  0  0  0  0  0  0
  -22.7290  -29.2250   22.1800 C   0  0  0  0  0  0  0  0  0  0  0  0
  -21.3960  -29.0680   22.0770 N   0  0  0  0  0  0  0  0  0  0  0  0
  -23.4200  -28.5360   22.9330 O   0  0  0  0  0  0  0  0  0  0  0  0
  -20.8950  -29.6780   21.4470 H   0  0  0  0  0  0  0  0  0  0  0  0
  -18.0170  -27.8780   22.6200 C   0  0  0  0  0  0  0  0  0  0  0  0
  -20.5910  -28.0790   22.7980 C   0  0  0  0  0  3  0  0  0  0  0  0
  -20.6400  -26.7010   22.0970 C   0  0  0  0  0  2  0  0  0  0  0  0
  -19.4920  -26.4850   21.1070 C   0  0  0  0  0  2  0  0  0  0  0  0
  -18.1410  -26.5920   21.8200 C   0  0  0  0  0  2  0  0  0  0  0  0
  -19.1670  -28.5840   23.0650 C   0  0  0  0  0  0  0  0  0  0  0  0
  -18.9950  -29.7910   23.7770 C   0  0  0  0  0  3  0  0  0  0  0  0
  -17.7070  -30.2920   24.0450 C   0  0  0  0  0  3  0  0  0  0  0  0
  -16.5730  -29.5820   23.6130 C   0  0  0  0  0  3  0  0  0  0  0  0
  -16.7290  -28.3760   22.9070 C   0  0  0  0  0  3  0  0  0  0  0  0
  -25.8270  -32.2430   23.6600 C   0  0  0  0  0  3  0  0  0  0  0  0
  -25.4810  -33.6060   24.0950 N   0  0  0  0  0  0  0  0  0  0  0  0
  -25.7670  -34.7220   23.4110 C   0  0  0  0  0  0  0  0  0  0  0  0
  -26.4170  -34.7130   22.3620 O   0  0  0  0  0  0  0  0  0  0  0  0
  -24.9000  -33.6830   24.9160 H   0  0  0  0  0  0  0  0  0  0  0  0
  -23.9740  -36.4810   23.2370 C   0  0  0  0  0  1  0  0  0  0  0  0
  -25.2530  -36.0590   23.9810 C   0  0  0  0  0  3  0  0  0  0  0  0
  -27.3840  -36.9550   24.8090 C   0  0  0  0  0  1  0  0  0  0  0  0
  -26.2480  -37.1510   23.9130 N   0  0  0  0  0  0  0  0  0  0  0  0
  -25.8180  -38.0450   24.1370 H   0  0  0  0  0  0  0  0  0  0  0  0
  -26.3680  -31.3980   24.8780 C   0  0  1  0  0  0  0  0  0  0  0  0
  -25.2890  -31.0680   25.9370 C   0  0  0  0  0  1  0  0  0  0  0  0
  -26.9730  -30.0590   24.3950 C   0  0  0  0  0  1  0  0  0  0  0  0
  -27.5100  -32.1670   25.5840 C   0  0  0  0  0  1  0  0  0  0  0  0
  2  7  1  0
  3  4  1  0
  3  2  1  0
  5  4  1  0
  5 25  1  0
  5  6  1  0
  7  1  1  0
  7  6  1  0
  8  1  2  0
  9 10  2  0
  9 11  1  0
 10 18  1  0
 11 19  2  0
 12 19  1  0
 12 17  1  0
 13 20  1  0
 15 13  1  0
 15 21  1  0
 16 14  1  0
 18 12  2  0
 20 11  1  0
 20 14  1  0
 21  1  1  0
 21 16  1  0
 22 23  2  0
 23 42  1  0
 24 23  1  0
 24 27  1  0
 25 22  1  0
 25 26  1  0
 26 24  2  0
 27 28  1  0
 28 29  2  0
 30 33  1  0
 30 29  1  0
 31 30  2  0
 32 31  1  0
 32 27  2  0
 33 34  1  0
 34 35  1  0
 35 36  2  0
 37 36  1  0
 37 41  1  0
 38 37  2  0
 39 34  2  0
 39 38  1  0
 40 39  1  0
 42 43  1  0
 43 46  1  0
 43 45  1  0
 44 42  2  0
 47 48  1  0
 47 22  1  0
 49 47  1  0
 50  9  1  0
 51 52  1  0
 52 50  1  0
 53 52  1  0
 54 52  1  0
 55 56  1  0
 55 10  1  0
 57 68  2  0
 58 56  1  0
 58 63  1  0
 59 67  1  0
 59 69  1  0
 60 66  1  0
 60 62  1  0
 61 67  1  0
 62 61  1  0
 63 62  2  0
 64 65  1  0
 64 58  2  0
 65 60  2  0
 66 59  1  0
 67 57  1  0
 69 71  2  0
 70 69  1  0
 72 70  1  0
 73 82  2  0
 73 78  1  0
 74 70  1  0
 74 78  1  0
 75 74  1  0
 76 77  1  0
 76 75  1  0
 77 73  1  0
 78 79  2  0
 79 80  1  0
 81 80  2  0
 82 81  1  0
 83 57  1  0
 83 84  1  0
 83 93  1  0
 84 87  1  0
 85 89  1  0
 85 84  1  0
 86 85  2  0
 89 88  1  0
 91 89  1  0
 91 92  1  0
 91 90  1  0
 93 96  1  1
 93 94  1  0
 95 93  1  0
M  ISO  4   1 100  21 100  55 101  56 101
M  END
>  <TORSDO>  (27) 
F 18

>  <SCORE>  (27) 
-13.814

>  <name>  (27) 
26

>  <ligand_id>  (27) 
26

>  <original_smiles>  (27) 
[H]c1c([H])c([H])c2c(c1[H])C([H])([H])C([H])([H])C([H])([H])C2([H])N([H])C(=O)C1([H])N(C(=O)C([H])(N([H])C(=O)C([H])(N([H])C([H])([H])[H])C([H])([H])[H])C(C([H])([H])[H])(C([H])([H])[H])C([H])([H])[H])C([H])([H])c2c([H])c(OC([H])([H])c3nc(C([H])([H])[H])nc(N4C([H])([H])C([H])([H])N(C(=O)N5C([H])([H])C([H])([H])C([H])([H])C([H])(n6nc(-c7c([H])c([H])c(Oc8c([H])c([H])c(F)c([H])c8F)c([H])c7[H])c(C(=O)N([H])[H])c6N([H])[H])C5([H])[H])C([H])([H])C4([H])[H])c3C([H])([H])[N+]([H])([H])C([H])([H])[H])c([H])c([H])c2C1([H])[H]

>  <smiles>  (27) 
[H]c1c([H])c([H])c2c(c1[H])C([H])([H])C([H])([H])C([H])([H])C2([H])N([H])C(=O)C1([H])N(C(=O)C([H])(N([H])C(=O)C([H])(N([H])C([H])([H])[H])C([H])([H])[H])C(C([H])([H])[H])(C([H])([H])[H])C([H])([H])[H])C([H])([H])c2c([H])c(OC([H])([H])c3nc(C([H])([H])[H])nc(N4C([H])([H])C([H])([H])N(C(=O)N5C([H])([H])C([H])([H])C([H])([H])C([H])(n6nc(-c7c([H])c([H])c(Oc8c([H])c([H])c(F)c([H])c8F)c([H])c7[H])c(C(=O)N([H])[H])c6N([H])[H])C5([H])[H])C([H])([H])C4([H])[H])c3C([H])([H])[N+]([H])([H])C([H])([H])[H])c([H])c([H])c2C1([H])[H]

$$$$
27:0:0
     RDKit          3D

 92101  0  0  1  0  0  0  0  0999 V2000
  -30.0000  -22.2530   21.4110 C   0  0  0  0  0  3  0  0  0  0  0  0
  -28.4510  -22.7030   19.2350 C   0  0  0  0  0  3  0  0  0  0  0  0
  -29.6440  -23.6020   21.0970 C   0  0  0  0  0  0  0  0  0  0  0  0
  -28.8400  -23.8690   19.9590 C   0  0  0  0  0  0  0  0  0  0  0  0
  -29.5840  -21.1590   20.6100 C   0  0  0  0  0  0  0  0  0  0  0  0
  -30.1620  -24.7340   21.9620 C   0  0  0  0  0  1  0  0  0  0  0  0
  -28.7990  -21.4070   19.5370 N   0  0  0  0  0  0  0  0  0  0  0  0
  -30.0280  -19.8310   20.9280 N   0  0  0  0  0  0  0  0  0  0  0  0
  -30.6360  -19.7640   21.7380 H   0  0  0  0  0  0  0  0  0  0  0  0
  -30.6520  -14.7660   20.2930 C   0  0  0  0  0  0  0  0  0  0  0  0
  -30.4000  -12.5150   19.2410 C   0  0  0  0  0  2  0  0  0  0  0  0
  -29.4530  -12.5700   18.0250 C   0  0  0  0  0  2  0  0  0  0  0  0
  -27.9910  -12.3670   18.4680 C   0  0  0  0  0  2  0  0  0  0  0  0
  -27.6160  -13.2490   19.6840 C   0  0  0  0  0  3  0  0  0  0  0  0
  -28.6900  -13.1720   20.7960 C   0  0  0  0  0  2  0  0  0  0  0  0
  -29.9660  -13.5710   20.1880 N   0  0  0  0  0  0  0  0  0  0  0  0
  -31.8550  -14.7770   20.0090 O   0  0  0  0  0  0  0  0  0  0  0  0
  -28.4500  -17.8570   20.8530 C   0  0  0  0  0  2  0  0  0  0  0  0
  -28.5900  -16.3560   20.5160 C   0  0  0  0  0  2  0  0  0  0  0  0
  -30.7230  -17.3300   20.4970 C   0  0  0  0  0  2  0  0  0  0  0  0
  -29.6970  -18.5180   20.2850 C   0  0  0  0  0  3  0  0  0  0  0  0
  -30.0170  -15.9990   20.5010 N   0  0  0  0  0  0  0  0  0  0  0  0
  -25.2240  -13.8520   20.3920 C   0  0  0  0  0  0  0  0  0  0  0  0
  -24.1630  -13.0770   20.7730 C   0  0  0  0  0  0  0  0  0  0  0  0
  -24.6390  -11.7300   20.7700 C   0  0  0  0  0  0  0  0  0  0  0  0
  -26.2760  -12.9730   20.1800 N   0  0  0  0  0  0  0  0  0  0  0  0
  -25.9310  -11.6950   20.4710 N   0  0  0  0  0  0  0  0  0  0  0  0
  -23.9260  -10.4650   20.9770 C   0  0  0  0  0  0  0  0  0  0  0  0
  -24.3710   -9.5120   21.9180 C   0  0  0  0  0  3  0  0  0  0  0  0
  -23.6580   -8.3110   22.1120 C   0  0  0  0  0  3  0  0  0  0  0  0
  -22.4840   -8.0550   21.3630 C   0  0  0  0  0  0  0  0  0  0  0  0
  -22.0590   -8.9970   20.4100 C   0  0  0  0  0  3  0  0  0  0  0  0
  -22.7740  -10.1900   20.2150 C   0  0  0  0  0  3  0  0  0  0  0  0
  -21.7410   -6.9050   21.4670 O   0  0  0  0  0  0  0  0  0  0  0  0
  -21.7080   -6.1720   22.6260 C   0  0  0  0  0  0  0  0  0  0  0  0
  -21.2870   -6.7340   23.8510 C   0  0  0  0  0  3  0  0  0  0  0  0
  -21.2030   -5.9270   25.0040 C   0  0  0  0  0  3  0  0  0  0  0  0
  -21.5290   -4.5590   24.9310 C   0  0  0  0  0  0  0  0  0  0  0  0
  -21.9430   -3.9980   23.7110 C   0  0  0  0  0  3  0  0  0  0  0  0
  -22.0300   -4.8020   22.5620 C   0  0  0  0  0  0  0  0  0  0  0  0
  -22.4090   -4.2500   21.3830 F   0  0  0  0  0  0  0  0  0  0  0  0
  -21.4390   -3.7820   26.0350 F   0  0  0  0  0  0  0  0  0  0  0  0
  -22.7610  -13.5470   21.0260 C   0  0  0  0  0  0  0  0  0  0  0  0
  -22.0350  -12.8630   21.9040 N   0  0  0  0  0  0  0  0  0  0  0  0
  -22.3150  -14.5560   20.4810 O   0  0  0  0  0  0  0  0  0  0  0  0
  -22.4080  -12.0470   22.3680 H   0  0  0  0  0  0  0  0  0  0  0  0
  -21.0940  -13.1610   22.1180 H   0  0  0  0  0  0  0  0  0  0  0  0
  -25.3690  -15.2190   20.1820 N   0  0  0  0  0  0  0  0  0  0  0  0
  -24.5910  -15.8620   20.2780 H   0  0  0  0  0  0  0  0  0  0  0  0
  -26.2100  -15.6650   19.8450 H   0  0  0  0  0  0  0  0  0  0  0  0
  -28.5220  -25.3060   19.3680 C   0  0  0  0  0  2  0  0  0  0  0  0
  -28.3420  -26.5090   20.2140 O   0  0  0  0  0  0  0  0  0  0  0  0
  -24.5780  -31.8820   23.2250 C   0  0  0  0  0  0  0  0  0  0  0  0
  -27.2010  -27.3330   20.1410 C   0  0  0  0  0  0  0  0  0  0  0  0
  -23.3740  -30.4840   21.5860 C   0  0  0  0  0  3  0  0  0  0  0  0
  -24.8240  -28.9410   20.1520 C   0  0  0  0  0  0  0  0  0  0  0  0
  -25.9130  -30.8080   21.3960 C   0  0  0  0  0  2  0  0  0  0  0  0
  -25.9940  -29.4300   20.7450 C   0  0  0  0  0  0  0  0  0  0  0  0
  -27.1790  -28.6370   20.7340 C   0  0  0  0  0  3  0  0  0  0  0  0
  -25.9960  -26.8890   19.5470 C   0  0  0  0  0  3  0  0  0  0  0  0
  -24.8280  -27.6750   19.5480 C   0  0  0  0  0  3  0  0  0  0  0  0
  -23.5860  -29.8120   20.2030 C   0  0  0  0  0  2  0  0  0  0  0  0
  -24.6410  -31.0750   22.1250 N   0  0  0  0  0  0  0  0  0  0  0  0
  -23.4950  -32.1560   23.7630 O   0  0  0  0  0  0  0  0  0  0  0  0
  -22.7160  -29.4640   22.5460 C   0  0  0  0  0  0  0  0  0  0  0  0
  -21.3890  -29.2860   22.4240 N   0  0  0  0  0  0  0  0  0  0  0  0
  -23.3980  -28.8350   23.3600 O   0  0  0  0  0  0  0  0  0  0  0  0
  -20.8980  -29.8440   21.7400 H   0  0  0  0  0  0  0  0  0  0  0  0
  -18.0140  -28.0910   22.9360 C   0  0  0  0  0  0  0  0  0  0  0  0
  -20.5730  -28.3470   23.1950 C   0  0  0  0  0  3  0  0  0  0  0  0
  -20.6720  -26.9170   22.6150 C   0  0  0  0  0  2  0  0  0  0  0  0
  -19.5650  -26.5990   21.6040 C   0  0  0  0  0  2  0  0  0  0  0  0
  -18.1860  -26.7430   22.2550 C   0  0  0  0  0  2  0  0  0  0  0  0
  -19.1350  -28.8510   23.3630 C   0  0  0  0  0  0  0  0  0  0  0  0
  -18.9190  -30.1120   23.9600 C   0  0  0  0  0  3  0  0  0  0  0  0
  -17.6150  -30.6130   24.1330 C   0  0  0  0  0  3  0  0  0  0  0  0
  -16.5080  -29.8510   23.7210 C   0  0  0  0  0  3  0  0  0  0  0  0
  -16.7080  -28.5900   23.1280 C   0  0  0  0  0  3  0  0  0  0  0  0
  -25.8610  -32.5170   23.8450 C   0  0  0  0  0  3  0  0  0  0  0  0
  -25.5480  -33.9140   24.1790 N   0  0  0  0  0  0  0  0  0  0  0  0
  -25.8720  -34.9690   23.4200 C   0  0  0  0  0  0  0  0  0  0  0  0
  -26.5360  -34.8690   22.3850 O   0  0  0  0  0  0  0  0  0  0  0  0
  -24.9580  -34.0650   24.9850 H   0  0  0  0  0  0  0  0  0  0  0  0
  -24.1370  -36.7580   23.0800 C   0  0  0  0  0  1  0  0  0  0  0  0
  -25.3840  -36.3560   23.8830 C   0  0  0  0  0  3  0  0  0  0  0  0
  -27.5210  -37.2460   24.7030 C   0  0  0  0  0  1  0  0  0  0  0  0
  -26.4130  -37.4110   23.7660 N   0  0  0  0  0  0  0  0  0  0  0  0
  -26.0060  -38.3310   23.9170 H   0  0  0  0  0  0  0  0  0  0  0  0
  -26.3810  -31.7450   25.1210 C   0  0  1  0  0  0  0  0  0  0  0  0
  -25.2890  -31.5040   26.1900 C   0  0  0  0  0  1  0  0  0  0  0  0
  -26.9660  -30.3680   24.7280 C   0  0  0  0  0  1  0  0  0  0  0  0
  -27.5310  -32.5410   25.7820 C   0  0  0  0  0  1  0  0  0  0  0  0
  2  7  2  0
  2  4  1  0
  3  1  1  0
  3  6  1  0
  4  3  2  0
  5  8  1  0
  5  1  2  0
  7  5  1  0
  8  9  1  0
 10 22  1  0
 11 16  1  0
 12 13  1  0
 12 11  1  0
 14 13  1  0
 14 26  1  0
 14 15  1  0
 16 10  1  0
 16 15  1  0
 17 10  2  0
 19 18  1  0
 20 22  1  0
 21 20  1  0
 21 18  1  0
 21  8  1  0
 22 19  1  0
 23 24  2  0
 24 43  1  0
 25 24  1  0
 25 28  1  0
 26 23  1  0
 26 27  1  0
 27 25  2  0
 28 29  1  0
 29 30  2  0
 31 34  1  0
 31 30  1  0
 32 31  2  0
 33 32  1  0
 33 28  2  0
 34 35  1  0
 35 36  1  0
 36 37  2  0
 38 37  1  0
 38 42  1  0
 39 38  2  0
 40 35  2  0
 40 39  1  0
 41 40  1  0
 43 44  1  0
 44 47  1  0
 44 46  1  0
 45 43  2  0
 48 49  1  0
 48 23  1  0
 50 48  1  0
 51  4  1  0
 51 52  1  0
 53 64  2  0
 54 52  1  0
 54 59  1  0
 55 63  1  0
 55 65  1  0
 56 62  1  0
 56 58  1  0
 57 63  1  0
 58 57  1  0
 59 58  2  0
 60 61  1  0
 60 54  2  0
 61 56  2  0
 62 55  1  0
 63 53  1  0
 65 67  2  0
 66 65  1  0
 68 66  1  0
 69 78  2  0
 69 74  1  0
 70 66  1  0
 70 74  1  0
 71 70  1  0
 72 73  1  0
 72 71  1  0
 73 69  1  0
 74 75  2  0
 75 76  1  0
 77 76  2  0
 78 77  1  0
 79 53  1  0
 79 80  1  0
 79 89  1  0
 80 83  1  0
 81 85  1  0
 81 80  1  0
 82 81  2  0
 85 84  1  0
 87 85  1  0
 87 88  1  0
 87 86  1  0
 89 92  1  1
 89 90  1  0
 91 89  1  0
M  ISO  4  10 100  22 100  51 101  52 101
M  END
>  <TORSDO>  (28) 
F 17

>  <SCORE>  (28) 
-14.956

>  <name>  (28) 
27

>  <ligand_id>  (28) 
27

>  <original_smiles>  (28) 
[H]c1nc(N([H])C2([H])C([H])([H])N(C(=O)N3C([H])([H])C([H])([H])C([H])([H])C([H])(n4nc(-c5c([H])c([H])c(Oc6c([H])c([H])c(F)c([H])c6F)c([H])c5[H])c(C(=O)N([H])[H])c4N([H])[H])C3([H])[H])C([H])([H])C2([H])[H])c([H])c(C([H])([H])[H])c1C([H])([H])Oc1c([H])c([H])c2c(c1[H])C([H])([H])N(C(=O)C([H])(N([H])C(=O)C([H])(N([H])C([H])([H])[H])C([H])([H])[H])C(C([H])([H])[H])(C([H])([H])[H])C([H])([H])[H])C([H])(C(=O)N([H])C1([H])c3c([H])c([H])c([H])c([H])c3C([H])([H])C([H])([H])C1([H])[H])C2([H])[H]

>  <smiles>  (28) 
[H]c1nc(N([H])C2([H])C([H])([H])N(C(=O)N3C([H])([H])C([H])([H])C([H])([H])C([H])(n4nc(-c5c([H])c([H])c(Oc6c([H])c([H])c(F)c([H])c6F)c([H])c5[H])c(C(=O)N([H])[H])c4N([H])[H])C3([H])[H])C([H])([H])C2([H])[H])c([H])c(C([H])([H])[H])c1C([H])([H])Oc1c([H])c([H])c2c(c1[H])C([H])([H])N(C(=O)C([H])(N([H])C(=O)C([H])(N([H])C([H])([H])[H])C([H])([H])[H])C(C([H])([H])[H])(C([H])([H])[H])C([H])([H])[H])C([H])(C(=O)N([H])C1([H])c3c([H])c([H])c([H])c([H])c3C([H])([H])C([H])([H])C1([H])[H])C2([H])[H]

$$$$
28:0:0
     RDKit          3D

 99108  0  0  1  0  0  0  0  0999 V2000
  -29.6850  -22.9420   18.9240 C   0  0  0  0  0  3  0  0  0  0  0  0
  -28.7060  -21.9210   19.2700 C   0  0  0  0  0  0  0  0  0  0  0  0
  -27.4870  -22.7410   19.4570 C   0  0  0  0  0  3  0  0  0  0  0  0
  -28.3070  -25.0120   18.9350 C   0  0  0  0  0  0  0  0  0  0  0  0
  -29.5010  -24.3490   18.8100 N   0  0  0  0  0  0  0  0  0  0  0  0
  -27.3110  -24.1510   19.2820 N   0  0  0  0  0  0  0  0  0  0  0  0
  -26.1610  -22.0780   19.8580 C   0  0  0  0  0  3  0  0  0  0  0  0
  -25.7000  -21.3410   18.8420 F   0  0  0  0  0  0  0  0  0  0  0  0
  -25.0620  -23.0640   20.3210 C   0  0  0  0  0  2  0  0  0  0  0  0
  -23.7340  -25.0330   19.5370 C   0  0  0  0  0  1  0  0  0  0  0  0
  -24.4700  -23.8030   19.1820 N   0  0  0  0  0  4  0  0  0  0  0  0
  -25.2540  -24.0480   18.5840 H   0  0  0  0  0  0  0  0  0  0  0  0
  -23.8680  -23.1810   18.6680 H   0  0  0  0  0  0  0  0  0  0  0  0
  -28.2340  -26.5140   18.9690 O   0  0  0  0  0  0  0  0  0  0  0  0
  -24.7300  -31.6900   23.2130 C   0  0  0  0  0  0  0  0  0  0  0  0
  -27.1370  -27.4870   19.2370 C   0  0  0  0  0  0  0  0  0  0  0  0
  -23.4440  -30.5920   21.4240 C   0  0  0  0  0  3  0  0  0  0  0  0
  -24.8100  -29.2830   19.6600 C   0  0  0  0  0  0  0  0  0  0  0  0
  -25.9910  -30.8770   21.1610 C   0  0  0  0  0  2  0  0  0  0  0  0
  -26.0290  -29.6060   20.2670 C   0  0  0  0  0  0  0  0  0  0  0  0
  -27.1830  -28.7350   20.0330 C   0  0  0  0  0  3  0  0  0  0  0  0
  -25.8810  -27.3160   18.6090 C   0  0  0  0  0  3  0  0  0  0  0  0
  -24.7550  -28.1580   18.8190 C   0  0  0  0  0  3  0  0  0  0  0  0
  -23.5890  -30.1610   19.9370 C   0  0  0  0  0  2  0  0  0  0  0  0
  -24.7450  -31.0690   21.9890 N   0  0  0  0  0  0  0  0  0  0  0  0
  -23.6720  -31.8590   23.8430 O   0  0  0  0  0  0  0  0  0  0  0  0
  -22.8170  -29.4270   22.2340 C   0  0  0  0  0  0  0  0  0  0  0  0
  -21.4920  -29.2290   22.1170 N   0  0  0  0  0  0  0  0  0  0  0  0
  -23.5320  -28.7060   22.9350 O   0  0  0  0  0  0  0  0  0  0  0  0
  -20.9650  -29.8710   21.5410 H   0  0  0  0  0  0  0  0  0  0  0  0
  -18.1770  -27.7980   22.4970 C   0  0  0  0  0  0  0  0  0  0  0  0
  -20.7270  -28.1460   22.7490 C   0  0  0  0  0  3  0  0  0  0  0  0
  -20.8790  -26.8270   21.9560 C   0  0  0  0  0  2  0  0  0  0  0  0
  -19.7670  -26.6100   20.9260 C   0  0  0  0  0  2  0  0  0  0  0  0
  -18.3970  -26.5840   21.6090 C   0  0  0  0  0  2  0  0  0  0  0  0
  -19.2710  -28.5400   23.0190 C   0  0  0  0  0  0  0  0  0  0  0  0
  -19.0080  -29.6750   23.8160 C   0  0  0  0  0  3  0  0  0  0  0  0
  -17.6860  -30.0750   24.0860 C   0  0  0  0  0  3  0  0  0  0  0  0
  -16.6080  -29.3290   23.5790 C   0  0  0  0  0  3  0  0  0  0  0  0
  -16.8550  -28.1900   22.7920 C   0  0  0  0  0  3  0  0  0  0  0  0
  -26.0350  -32.2300   23.8740 C   0  0  0  0  0  3  0  0  0  0  0  0
  -26.5330  -31.3360   25.0760 C   0  0  1  0  0  0  0  0  0  0  0  0
  -25.4480  -31.0550   26.1450 C   0  0  0  0  0  1  0  0  0  0  0  0
  -27.0500  -29.9710   24.5690 C   0  0  0  0  0  1  0  0  0  0  0  0
  -27.7290  -32.0260   25.7780 C   0  0  0  0  0  1  0  0  0  0  0  0
  -25.7690  -33.6010   24.3440 N   0  0  0  0  0  0  0  0  0  0  0  0
  -26.1410  -34.7190   23.7080 C   0  0  0  0  0  0  0  0  0  0  0  0
  -26.8050  -34.7000   22.6670 O   0  0  0  0  0  0  0  0  0  0  0  0
  -25.1780  -33.6870   25.1570 H   0  0  0  0  0  0  0  0  0  0  0  0
  -24.4910  -36.6160   23.5580 C   0  0  0  0  0  1  0  0  0  0  0  0
  -25.7130  -36.0710   24.3130 C   0  0  0  0  0  3  0  0  0  0  0  0
  -27.8830  -36.7720   25.2290 C   0  0  0  0  0  1  0  0  0  0  0  0
  -26.7890  -37.0860   24.3140 N   0  0  0  0  0  0  0  0  0  0  0  0
  -26.4230  -38.0010   24.5590 H   0  0  0  0  0  0  0  0  0  0  0  0
  -28.8040  -20.1470   19.2690 C   0  0  0  0  0  2  0  0  0  0  0  0
  -30.6190  -15.9340   19.6120 C   0  0  0  0  0  0  0  0  0  0  0  0
  -30.7370  -13.3950   19.0400 C   0  0  0  0  0  2  0  0  0  0  0  0
  -29.8290  -12.9550   17.8570 C   0  0  0  0  0  2  0  0  0  0  0  0
  -28.3980  -12.6530   18.3370 C   0  0  0  0  0  2  0  0  0  0  0  0
  -27.8970  -13.7320   19.3260 C   0  0  0  0  0  3  0  0  0  0  0  0
  -28.9330  -14.0550   20.4190 C   0  0  0  0  0  2  0  0  0  0  0  0
  -30.1300  -14.5950   19.7390 N   0  0  0  0  0  0  0  0  0  0  0  0
  -31.7890  -15.9610   19.1970 O   0  0  0  0  0  0  0  0  0  0  0  0
  -29.4680  -17.4330   21.1840 C   0  0  0  0  0  2  0  0  0  0  0  0
  -30.6720  -17.9760   21.9840 C   0  0  0  0  0  2  0  0  0  0  0  0
  -31.3170  -19.2760   19.9080 C   0  0  0  0  0  2  0  0  0  0  0  0
  -30.0030  -18.7930   19.2500 C   0  0  0  0  0  3  0  0  0  0  0  0
  -32.6250  -19.4640   22.0010 C   0  0  0  0  0  1  0  0  0  0  0  0
  -29.8510  -17.2100   19.7850 N   0  0  0  0  0  0  0  0  0  0  0  0
  -31.2920  -19.2020   21.4030 N   0  0  2  0  0  4  0  0  0  0  0  0
  -30.7080  -19.9660   21.7090 H   0  0  0  0  0  0  0  0  0  0  0  0
  -25.5790  -14.3050   20.2170 C   0  0  0  0  0  0  0  0  0  0  0  0
  -24.5320  -13.5350   20.6320 C   0  0  0  0  0  0  0  0  0  0  0  0
  -24.9820  -12.1790   20.5530 C   0  0  0  0  0  0  0  0  0  0  0  0
  -26.5940  -13.4230   19.8930 N   0  0  0  0  0  0  0  0  0  0  0  0
  -26.2530  -12.1370   20.1660 N   0  0  0  0  0  0  0  0  0  0  0  0
  -24.2540  -10.9210   20.7630 C   0  0  0  0  0  0  0  0  0  0  0  0
  -24.6500   -9.9920   21.7500 C   0  0  0  0  0  3  0  0  0  0  0  0
  -23.9220   -8.7990   21.9440 C   0  0  0  0  0  3  0  0  0  0  0  0
  -22.7840   -8.5260   21.1500 C   0  0  0  0  0  0  0  0  0  0  0  0
  -22.4080   -9.4410   20.1500 C   0  0  0  0  0  3  0  0  0  0  0  0
  -23.1390  -10.6260   19.9540 C   0  0  0  0  0  3  0  0  0  0  0  0
  -22.0290   -7.3820   21.2500 O   0  0  0  0  0  0  0  0  0  0  0  0
  -21.8150   -6.7630   22.4560 C   0  0  0  0  0  0  0  0  0  0  0  0
  -21.1980   -7.4300   23.5370 C   0  0  0  0  0  3  0  0  0  0  0  0
  -20.9350   -6.7380   24.7350 C   0  0  0  0  0  3  0  0  0  0  0  0
  -21.2790   -5.3770   24.8540 C   0  0  0  0  0  0  0  0  0  0  0  0
  -21.8850   -4.7080   23.7750 C   0  0  0  0  0  3  0  0  0  0  0  0
  -22.1500   -5.3990   22.5790 C   0  0  0  0  0  0  0  0  0  0  0  0
  -22.7170   -4.7430   21.5380 F   0  0  0  0  0  0  0  0  0  0  0  0
  -21.0170   -4.7090   26.0010 F   0  0  0  0  0  0  0  0  0  0  0  0
  -23.1570  -14.0190   20.9850 C   0  0  0  0  0  0  0  0  0  0  0  0
  -22.4730  -13.3250   21.8880 N   0  0  0  0  0  0  0  0  0  0  0  0
  -22.6990  -15.0500   20.4950 O   0  0  0  0  0  0  0  0  0  0  0  0
  -22.8580  -12.4900   22.3060 H   0  0  0  0  0  0  0  0  0  0  0  0
  -21.5510  -13.6300   22.1660 H   0  0  0  0  0  0  0  0  0  0  0  0
  -25.7520  -15.6790   20.0590 N   0  0  0  0  0  0  0  0  0  0  0  0
  -25.0080  -16.3460   20.2340 H   0  0  0  0  0  0  0  0  0  0  0  0
  -26.5960  -16.1100   19.7050 H   0  0  0  0  0  0  0  0  0  0  0  0
  1  2  2  0
  2  3  1  0
  3  7  1  0
  4 14  1  0
  4  6  2  0
  5  1  1  0
  5  4  2  0
  6  3  1  0
  7  8  1  0
  7  9  1  0
 11 10  1  0
 11  9  1  0
 12 11  1  0
 13 11  1  0
 14 16  1  0
 15 26  2  0
 16 21  1  0
 17 25  1  0
 17 27  1  0
 18 24  1  0
 18 20  1  0
 19 25  1  0
 20 19  1  0
 21 20  2  0
 22 23  1  0
 22 16  2  0
 23 18  2  0
 24 17  1  0
 25 15  1  0
 27 29  2  0
 28 27  1  0
 30 28  1  0
 31 40  2  0
 31 36  1  0
 32 28  1  0
 32 36  1  0
 33 32  1  0
 34 35  1  0
 34 33  1  0
 35 31  1  0
 36 37  2  0
 37 38  1  0
 39 38  2  0
 40 39  1  0
 41 15  1  0
 41 46  1  0
 41 42  1  0
 42 45  1  1
 42 43  1  0
 44 42  1  0
 46 49  1  0
 47 51  1  0
 47 46  1  0
 48 47  2  0
 51 50  1  0
 51 53  1  0
 53 54  1  0
 53 52  1  0
 55  2  1  0
 56 62  1  0
 56 69  1  0
 57 62  1  0
 58 59  1  0
 58 57  1  0
 60 59  1  0
 60 75  1  0
 60 61  1  0
 62 61  1  0
 63 56  2  0
 64 65  1  0
 66 70  1  0
 67 55  1  0
 67 69  1  0
 67 66  1  0
 69 64  1  0
 70 71  1  1
 70 65  1  0
 70 68  1  0
 72 73  2  0
 73 92  1  0
 74 73  1  0
 74 77  1  0
 75 76  1  0
 75 72  1  0
 76 74  2  0
 77 78  1  0
 78 79  2  0
 80 83  1  0
 80 79  1  0
 81 80  2  0
 82 81  1  0
 82 77  2  0
 83 84  1  0
 84 89  2  0
 84 85  1  0
 85 86  2  0
 86 87  1  0
 87 91  1  0
 88 87  2  0
 89 88  1  0
 90 89  1  0
 92 93  1  0
 93 96  1  0
 93 95  1  0
 94 92  2  0
 97 72  1  0
 97 98  1  0
 99 97  1  0
M  ISO  4   4 101  14 101  56 100  69 100
M  END
>  <TORSDO>  (29) 
F 20

>  <SCORE>  (29) 
-12.746

>  <name>  (29) 
28

>  <ligand_id>  (29) 
28

>  <original_smiles>  (29) 
[H]c1nc(Oc2c([H])c([H])c3c(c2[H])C([H])([H])N(C(=O)C([H])(N([H])C(=O)C([H])(N([H])C([H])([H])[H])C([H])([H])[H])C(C([H])([H])[H])(C([H])([H])[H])C([H])([H])[H])C([H])(C(=O)N([H])C2([H])c4c([H])c([H])c([H])c([H])c4C([H])([H])C([H])([H])C2([H])[H])C3([H])[H])nc(C([H])(F)C([H])([H])[N+]([H])([H])C([H])([H])[H])c1C([H])([H])C1([H])N(C(=O)N2C([H])([H])C([H])([H])C([H])([H])C([H])(n3nc(-c4c([H])c([H])c(Oc5c([H])c([H])c(F)c([H])c5F)c([H])c4[H])c(C(=O)N([H])[H])c3N([H])[H])C2([H])[H])C([H])([H])C([H])([H])[N+]([H])(C([H])([H])[H])C1([H])[H]

>  <smiles>  (29) 
[H]c1nc(Oc2c([H])c([H])c3c(c2[H])C([H])([H])N(C(=O)C([H])(N([H])C(=O)C([H])(N([H])C([H])([H])[H])C([H])([H])[H])C(C([H])([H])[H])(C([H])([H])[H])C([H])([H])[H])C([H])(C(=O)N([H])C2([H])c4c([H])c([H])c([H])c([H])c4C([H])([H])C([H])([H])C2([H])[H])C3([H])[H])nc(C([H])(F)C([H])([H])[N+]([H])([H])C([H])([H])[H])c1C([H])([H])C1([H])N(C(=O)N2C([H])([H])C([H])([H])C([H])([H])C([H])(n3nc(-c4c([H])c([H])c(Oc5c([H])c([H])c(F)c([H])c5F)c([H])c4[H])c(C(=O)N([H])[H])c3N([H])[H])C2([H])[H])C([H])([H])C([H])([H])[N+]([H])(C([H])([H])[H])C1([H])[H]

$$$$
29:0:0
     RDKit          3D

 94104  0  0  1  0  0  0  0  0999 V2000
  -30.7080  -14.8420   20.3330 C   0  0  0  0  0  0  0  0  0  0  0  0
  -30.4320  -12.5620   19.3230 C   0  0  0  0  0  2  0  0  0  0  0  0
  -29.5110  -12.5960   18.0860 C   0  0  0  0  0  2  0  0  0  0  0  0
  -28.0420  -12.4200   18.5120 C   0  0  0  0  0  2  0  0  0  0  0  0
  -27.6550  -13.3290   19.7100 C   0  0  0  0  0  3  0  0  0  0  0  0
  -28.7090  -13.2970   20.8370 C   0  0  0  0  0  2  0  0  0  0  0  0
  -29.9950  -13.6590   20.2280 N   0  0  0  0  0  0  0  0  0  0  0  0
  -31.9180  -14.7850   20.0850 O   0  0  0  0  0  0  0  0  0  0  0  0
  -29.3310  -23.0080   19.3810 C   0  0  0  0  0  0  0  0  0  0  0  0
  -29.5970  -21.5820   19.2610 C   0  0  0  0  0  0  0  0  0  0  0  0
  -28.7180  -23.5110   20.5720 C   0  0  0  0  0  0  0  0  0  0  0  0
  -29.3150  -20.6760   20.3460 C   0  0  0  0  0  0  0  0  0  0  0  0
  -30.8000  -18.6130   19.9350 C   0  0  0  0  0  2  0  0  0  0  0  0
  -28.9010  -18.2910   21.3070 C   0  0  0  0  0  2  0  0  0  0  0  0
  -30.6380  -17.1700   19.3290 C   0  0  0  0  0  2  0  0  0  0  0  0
  -28.9610  -16.6990   21.0250 C   0  0  0  0  0  2  0  0  0  0  0  0
  -30.0990  -21.0330   17.9290 C   0  0  0  0  0  1  0  0  0  0  0  0
  -28.4790  -22.5800   21.5570 N   0  0  0  0  0  0  0  0  0  0  0  0
  -28.7700  -21.2510   21.4610 N   0  0  0  0  0  0  0  0  0  0  0  0
  -29.5130  -19.2160   20.3170 N   0  0  0  0  0  0  0  0  0  0  0  0
  -30.0900  -16.1080   20.2330 N   0  0  0  0  0  0  0  0  0  0  0  0
  -25.2650  -13.9150   20.4160 C   0  0  0  0  0  0  0  0  0  0  0  0
  -24.1960  -13.1420   20.7810 C   0  0  0  0  0  0  0  0  0  0  0  0
  -24.6620  -11.7920   20.7680 C   0  0  0  0  0  0  0  0  0  0  0  0
  -26.3110  -13.0370   20.1990 N   0  0  0  0  0  0  0  0  0  0  0  0
  -25.9580  -11.7540   20.4750 N   0  0  0  0  0  0  0  0  0  0  0  0
  -23.9330  -10.5310   20.9590 C   0  0  0  0  0  0  0  0  0  0  0  0
  -24.3460   -9.5760   21.9150 C   0  0  0  0  0  3  0  0  0  0  0  0
  -23.6170   -8.3810   22.0920 C   0  0  0  0  0  3  0  0  0  0  0  0
  -22.4600   -8.1310   21.3150 C   0  0  0  0  0  0  0  0  0  0  0  0
  -22.0680   -9.0750   20.3500 C   0  0  0  0  0  3  0  0  0  0  0  0
  -22.7970  -10.2610   20.1690 C   0  0  0  0  0  3  0  0  0  0  0  0
  -21.7040   -6.9870   21.4020 O   0  0  0  0  0  0  0  0  0  0  0  0
  -21.6150   -6.2700   22.5670 C   0  0  0  0  0  0  0  0  0  0  0  0
  -21.1300   -6.8460   23.7620 C   0  0  0  0  0  3  0  0  0  0  0  0
  -20.9900   -6.0550   24.9190 C   0  0  0  0  0  3  0  0  0  0  0  0
  -21.3260   -4.6880   24.8840 C   0  0  0  0  0  0  0  0  0  0  0  0
  -21.8040   -4.1110   23.6940 C   0  0  0  0  0  3  0  0  0  0  0  0
  -21.9450   -4.8990   22.5380 C   0  0  0  0  0  0  0  0  0  0  0  0
  -22.3870   -4.3340   21.3890 F   0  0  0  0  0  0  0  0  0  0  0  0
  -21.1840   -3.9250   25.9930 F   0  0  0  0  0  0  0  0  0  0  0  0
  -22.7950  -13.6230   21.0290 C   0  0  0  0  0  0  0  0  0  0  0  0
  -22.0590  -12.9410   21.8980 N   0  0  0  0  0  0  0  0  0  0  0  0
  -22.3630  -14.6380   20.4860 O   0  0  0  0  0  0  0  0  0  0  0  0
  -22.4190  -12.1200   22.3590 H   0  0  0  0  0  0  0  0  0  0  0  0
  -21.1200  -13.2480   22.1060 H   0  0  0  0  0  0  0  0  0  0  0  0
  -25.4240  -15.2840   20.2230 N   0  0  0  0  0  0  0  0  0  0  0  0
  -24.6500  -15.9320   20.3110 H   0  0  0  0  0  0  0  0  0  0  0  0
  -26.2660  -15.7150   19.8640 H   0  0  0  0  0  0  0  0  0  0  0  0
  -31.0570  -24.0310   17.6890 C   0  0  0  0  0  2  0  0  0  0  0  0
  -30.4980  -25.1920   18.4620 C   0  0  0  0  0  2  0  0  0  0  0  0
  -29.6520  -23.9540   18.2550 C   0  0  0  0  0  3  0  0  0  0  0  0
  -28.0320  -24.9630   20.8210 C   0  0  0  0  0  2  0  0  0  0  0  0
  -28.3930  -26.3200   20.2330 O   0  0  0  0  0  0  0  0  0  0  0  0
  -24.6540  -31.8460   23.2100 C   0  0  0  0  0  0  0  0  0  0  0  0
  -27.3360  -27.2700   20.1700 C   0  0  0  0  0  0  0  0  0  0  0  0
  -23.4930  -30.4600   21.5330 C   0  0  0  0  0  3  0  0  0  0  0  0
  -24.9830  -28.9320   20.1120 C   0  0  0  0  0  0  0  0  0  0  0  0
  -26.0400  -30.7760   21.4090 C   0  0  0  0  0  2  0  0  0  0  0  0
  -26.1420  -29.3990   20.7460 C   0  0  0  0  0  0  0  0  0  0  0  0
  -27.3240  -28.5830   20.7640 C   0  0  0  0  0  3  0  0  0  0  0  0
  -26.1630  -26.8950   19.4800 C   0  0  0  0  0  3  0  0  0  0  0  0
  -25.0020  -27.6890   19.4630 C   0  0  0  0  0  3  0  0  0  0  0  0
  -23.7410  -29.8050   20.1490 C   0  0  0  0  0  2  0  0  0  0  0  0
  -24.7470  -31.0460   22.1060 N   0  0  0  0  0  0  0  0  0  0  0  0
  -23.5570  -32.1120   23.7270 O   0  0  0  0  0  0  0  0  0  0  0  0
  -22.8150  -29.4290   22.4690 C   0  0  0  0  0  0  0  0  0  0  0  0
  -21.4900  -29.2550   22.3250 N   0  0  0  0  0  0  0  0  0  0  0  0
  -23.4830  -28.7910   23.2870 O   0  0  0  0  0  0  0  0  0  0  0  0
  -21.0090  -29.8210   21.6400 H   0  0  0  0  0  0  0  0  0  0  0  0
  -18.1020  -28.0680   22.7970 C   0  0  0  0  0  0  0  0  0  0  0  0
  -20.6620  -28.3050   23.0730 C   0  0  0  0  0  3  0  0  0  0  0  0
  -20.7540  -26.8870   22.4640 C   0  0  0  0  0  2  0  0  0  0  0  0
  -19.6510  -26.5970   21.4420 C   0  0  0  0  0  2  0  0  0  0  0  0
  -18.2700  -26.7360   22.0880 C   0  0  0  0  0  2  0  0  0  0  0  0
  -19.2250  -28.8120   23.2460 C   0  0  0  0  0  0  0  0  0  0  0  0
  -19.0130  -30.0610   23.8690 C   0  0  0  0  0  3  0  0  0  0  0  0
  -17.7120  -30.5650   24.0480 C   0  0  0  0  0  3  0  0  0  0  0  0
  -16.6030  -29.8190   23.6140 C   0  0  0  0  0  3  0  0  0  0  0  0
  -16.7980  -28.5710   22.9950 C   0  0  0  0  0  3  0  0  0  0  0  0
  -25.9190  -32.4820   23.8650 C   0  0  0  0  0  3  0  0  0  0  0  0
  -25.5930  -33.8760   24.1990 N   0  0  0  0  0  0  0  0  0  0  0  0
  -25.9170  -34.9370   23.4470 C   0  0  0  0  0  0  0  0  0  0  0  0
  -26.5900  -34.8450   22.4170 O   0  0  0  0  0  0  0  0  0  0  0  0
  -24.9940  -34.0210   24.9990 H   0  0  0  0  0  0  0  0  0  0  0  0
  -24.1680  -36.7140   23.1080 C   0  0  0  0  0  1  0  0  0  0  0  0
  -25.4170  -36.3190   23.9110 C   0  0  0  0  0  3  0  0  0  0  0  0
  -27.5450  -37.2270   24.7360 C   0  0  0  0  0  1  0  0  0  0  0  0
  -26.4370  -37.3840   23.7970 N   0  0  0  0  0  0  0  0  0  0  0  0
  -26.0220  -38.2990   23.9480 H   0  0  0  0  0  0  0  0  0  0  0  0
  -26.4100  -31.7050   25.1480 C   0  0  1  0  0  0  0  0  0  0  0  0
  -25.2950  -31.4590   26.1910 C   0  0  0  0  0  1  0  0  0  0  0  0
  -27.0060  -30.3320   24.7660 C   0  0  0  0  0  1  0  0  0  0  0  0
  -27.5440  -32.5010   25.8390 C   0  0  0  0  0  1  0  0  0  0  0  0
  2  7  1  0
  3  4  1  0
  3  2  1  0
  5  4  1  0
  5 25  1  0
  5  6  1  0
  7  1  1  0
  7  6  1  0
  8  1  2  0
  9 11  1  0
 10  9  2  0
 10 12  1  0
 11 53  1  0
 11 18  2  0
 12 19  2  0
 13 20  1  0
 15 13  1  0
 15 21  1  0
 16 14  1  0
 17 10  1  0
 19 18  1  0
 20 12  1  0
 20 14  1  0
 21  1  1  0
 21 16  1  0
 22 23  2  0
 23 42  1  0
 24 23  1  0
 24 27  1  0
 25 22  1  0
 25 26  1  0
 26 24  2  0
 27 28  1  0
 28 29  2  0
 30 33  1  0
 30 29  1  0
 31 30  2  0
 32 31  1  0
 32 27  2  0
 33 34  1  0
 34 35  1  0
 35 36  2  0
 37 36  1  0
 37 41  1  0
 38 37  2  0
 39 34  2  0
 39 38  1  0
 40 39  1  0
 42 43  1  0
 43 46  1  0
 43 45  1  0
 44 42  2  0
 47 48  1  0
 47 22  1  0
 49 47  1  0
 50 52  1  0
 50 51  1  0
 52 51  1  0
 52  9  1  0
 54 53  1  0
 55 66  2  0
 56 54  1  0
 56 61  1  0
 57 65  1  0
 57 67  1  0
 58 64  1  0
 58 60  1  0
 59 65  1  0
 60 61  2  0
 60 59  1  0
 62 56  2  0
 63 62  1  0
 63 58  2  0
 64 57  1  0
 65 55  1  0
 67 69  2  0
 68 67  1  0
 70 68  1  0
 71 80  2  0
 71 76  1  0
 72 68  1  0
 72 76  1  0
 73 72  1  0
 74 75  1  0
 74 73  1  0
 75 71  1  0
 76 77  2  0
 77 78  1  0
 79 78  2  0
 80 79  1  0
 81 55  1  0
 81 82  1  0
 81 91  1  0
 82 85  1  0
 83 87  1  0
 83 82  1  0
 84 83  2  0
 87 86  1  0
 89 87  1  0
 89 90  1  0
 89 88  1  0
 91 94  1  1
 91 92  1  0
 93 91  1  0
M  ISO  4   1 100  21 100  53 101  54 101
M  END
>  <TORSDO>  (30) 
F 17

>  <SCORE>  (30) 
-14.754

>  <name>  (30) 
29

>  <ligand_id>  (30) 
29

>  <original_smiles>  (30) 
[H]c1c([H])c([H])c2c(c1[H])C([H])([H])C([H])([H])C([H])([H])C2([H])N([H])C(=O)C1([H])N(C(=O)C([H])(N([H])C(=O)C([H])(N([H])C([H])([H])[H])C([H])([H])[H])C(C([H])([H])[H])(C([H])([H])[H])C([H])([H])[H])C([H])([H])c2c([H])c(OC([H])([H])c3nnc(N4C([H])([H])C([H])([H])N(C(=O)N5C([H])([H])C([H])([H])C([H])([H])C([H])(n6nc(-c7c([H])c([H])c(Oc8c([H])c([H])c(F)c([H])c8F)c([H])c7[H])c(C(=O)N([H])[H])c6N([H])[H])C5([H])[H])C([H])([H])C4([H])[H])c(C([H])([H])[H])c3C3([H])C([H])([H])C3([H])[H])c([H])c([H])c2C1([H])[H]

>  <smiles>  (30) 
[H]c1c([H])c([H])c2c(c1[H])C([H])([H])C([H])([H])C([H])([H])C2([H])N([H])C(=O)C1([H])N(C(=O)C([H])(N([H])C(=O)C([H])(N([H])C([H])([H])[H])C([H])([H])[H])C(C([H])([H])[H])(C([H])([H])[H])C([H])([H])[H])C([H])([H])c2c([H])c(OC([H])([H])c3nnc(N4C([H])([H])C([H])([H])N(C(=O)N5C([H])([H])C([H])([H])C([H])([H])C([H])(n6nc(-c7c([H])c([H])c(Oc8c([H])c([H])c(F)c([H])c8F)c([H])c7[H])c(C(=O)N([H])[H])c6N([H])[H])C5([H])[H])C([H])([H])C4([H])[H])c(C([H])([H])[H])c3C3([H])C([H])([H])C3([H])[H])c([H])c([H])c2C1([H])[H]

$$$$
30:0:0
     RDKit          3D

 92101  0  0  1  0  0  0  0  0999 V2000
  -26.8910  -22.6360   20.6070 C   0  0  0  0  0  0  0  0  0  0  0  0
  -28.5590  -24.0520   20.1240 C   0  0  0  0  0  0  0  0  0  0  0  0
  -28.9350  -21.7680   20.4100 C   0  0  0  0  0  0  0  0  0  0  0  0
  -25.4060  -22.4270   20.8240 C   0  0  0  0  0  1  0  0  0  0  0  0
  -27.2630  -23.8930   20.3740 N   0  0  0  0  0  4  0  0  0  0  0  0
  -27.6530  -21.5430   20.6400 N   0  0  0  0  0  0  0  0  0  0  0  0
  -29.4490  -23.0010   20.1390 N   0  0  0  0  0  2  0  0  0  0  0  0
  -29.7800  -20.6020   20.4580 N   0  0  0  0  0  0  0  0  0  0  0  0
  -30.7630  -20.8130   20.3400 H   0  0  0  0  0  0  0  0  0  0  0  0
  -29.5590  -18.3730   19.2230 C   0  0  0  0  0  2  0  0  0  0  0  0
  -29.4250  -19.1150   20.5210 C   0  0  0  0  0  3  0  0  0  0  0  0
  -30.3900  -17.8130   20.3640 C   0  0  0  0  0  3  0  0  0  0  0  0
  -30.9090  -15.2320   20.5340 C   0  0  0  0  0  0  0  0  0  0  0  0
  -30.7860  -12.9460   19.5220 C   0  0  0  0  0  2  0  0  0  0  0  0
  -29.9070  -13.0150   18.2530 C   0  0  0  0  0  2  0  0  0  0  0  0
  -28.4230  -12.8280   18.6140 C   0  0  0  0  0  2  0  0  0  0  0  0
  -27.9860  -13.7180   19.8080 C   0  0  0  0  0  3  0  0  0  0  0  0
  -28.9860  -13.6320   20.9800 C   0  0  0  0  0  2  0  0  0  0  0  0
  -30.3070  -13.9950   20.4540 N   0  0  0  0  0  0  0  0  0  0  0  0
  -32.1100  -15.3400   20.2640 O   0  0  0  0  0  0  0  0  0  0  0  0
  -30.0960  -16.3590   20.6630 N   0  0  0  0  0  0  0  0  0  0  0  0
  -29.1310  -16.1500   20.8690 H   0  0  0  0  0  0  0  0  0  0  0  0
  -25.5720  -14.3150   20.4330 C   0  0  0  0  0  0  0  0  0  0  0  0
  -24.4870  -13.5430   20.7470 C   0  0  0  0  0  0  0  0  0  0  0  0
  -24.9470  -12.1900   20.7300 C   0  0  0  0  0  0  0  0  0  0  0  0
  -26.6210  -13.4330   20.2350 N   0  0  0  0  0  0  0  0  0  0  0  0
  -26.2500  -12.1500   20.4790 N   0  0  0  0  0  0  0  0  0  0  0  0
  -24.2100  -10.9290   20.8790 C   0  0  0  0  0  0  0  0  0  0  0  0
  -24.5770   -9.9680   21.8460 C   0  0  0  0  0  3  0  0  0  0  0  0
  -23.8390   -8.7720   21.9790 C   0  0  0  0  0  3  0  0  0  0  0  0
  -22.7210   -8.5290   21.1440 C   0  0  0  0  0  0  0  0  0  0  0  0
  -22.3770   -9.4810   20.1670 C   0  0  0  0  0  3  0  0  0  0  0  0
  -23.1150  -10.6680   20.0320 C   0  0  0  0  0  3  0  0  0  0  0  0
  -21.9610   -7.3860   21.1860 O   0  0  0  0  0  0  0  0  0  0  0  0
  -21.8130   -6.6620   22.3410 C   0  0  0  0  0  0  0  0  0  0  0  0
  -21.2490   -7.2240   23.5080 C   0  0  0  0  0  3  0  0  0  0  0  0
  -21.0510   -6.4250   24.6510 C   0  0  0  0  0  3  0  0  0  0  0  0
  -21.4090   -5.0630   24.6280 C   0  0  0  0  0  0  0  0  0  0  0  0
  -21.9660   -4.5000   23.4680 C   0  0  0  0  0  3  0  0  0  0  0  0
  -22.1650   -5.2970   22.3260 C   0  0  0  0  0  0  0  0  0  0  0  0
  -22.6820   -4.7440   21.2030 F   0  0  0  0  0  0  0  0  0  0  0  0
  -21.2120   -4.2930   25.7240 F   0  0  0  0  0  0  0  0  0  0  0  0
  -23.0810  -14.0250   20.9530 C   0  0  0  0  0  0  0  0  0  0  0  0
  -22.3140  -13.3370   21.7940 N   0  0  0  0  0  0  0  0  0  0  0  0
  -22.6680  -15.0460   20.4070 O   0  0  0  0  0  0  0  0  0  0  0  0
  -22.6570  -12.5080   22.2570 H   0  0  0  0  0  0  0  0  0  0  0  0
  -21.3700  -13.6450   21.9770 H   0  0  0  0  0  0  0  0  0  0  0  0
  -25.7480  -15.6870   20.2720 N   0  0  0  0  0  0  0  0  0  0  0  0
  -24.9720  -16.3360   20.3450 H   0  0  0  0  0  0  0  0  0  0  0  0
  -26.6000  -16.1280   19.9540 H   0  0  0  0  0  0  0  0  0  0  0  0
  -28.9630  -25.4980   19.5460 C   0  0  0  0  0  2  0  0  0  0  0  0
  -28.7530  -26.8190   20.2540 O   0  0  0  0  0  0  0  0  0  0  0  0
  -24.7650  -32.0100   23.3840 C   0  0  0  0  0  0  0  0  0  0  0  0
  -27.6040  -27.6410   20.1720 C   0  0  0  0  0  0  0  0  0  0  0  0
  -23.6500  -30.6430   21.6550 C   0  0  0  0  0  3  0  0  0  0  0  0
  -25.1840  -29.2030   20.1860 C   0  0  0  0  0  0  0  0  0  0  0  0
  -26.1830  -31.0450   21.5440 C   0  0  0  0  0  2  0  0  0  0  0  0
  -26.3230  -29.6960   20.8340 C   0  0  0  0  0  0  0  0  0  0  0  0
  -27.5280  -28.9240   20.8200 C   0  0  0  0  0  3  0  0  0  0  0  0
  -26.4380  -27.2110   19.5050 C   0  0  0  0  0  3  0  0  0  0  0  0
  -25.2460  -27.9690   19.5140 C   0  0  0  0  0  3  0  0  0  0  0  0
  -23.9170  -30.0360   20.2510 C   0  0  0  0  0  2  0  0  0  0  0  0
  -24.8830  -31.2520   22.2510 N   0  0  0  0  0  0  0  0  0  0  0  0
  -23.6620  -32.2220   23.9070 O   0  0  0  0  0  0  0  0  0  0  0  0
  -23.0030  -29.5650   22.5580 C   0  0  0  0  0  0  0  0  0  0  0  0
  -21.6840  -29.3540   22.4060 N   0  0  0  0  0  0  0  0  0  0  0  0
  -23.6890  -28.9210   23.3560 O   0  0  0  0  0  0  0  0  0  0  0  0
  -21.1850  -29.9270   21.7400 H   0  0  0  0  0  0  0  0  0  0  0  0
  -18.3410  -28.0290   22.8220 C   0  0  0  0  0  0  0  0  0  0  0  0
  -20.8890  -28.3480   23.1150 C   0  0  0  0  0  3  0  0  0  0  0  0
  -21.0390  -26.9570   22.4540 C   0  0  0  0  0  2  0  0  0  0  0  0
  -19.9410  -26.6470   21.4280 C   0  0  0  0  0  2  0  0  0  0  0  0
  -18.5580  -26.7190   22.0820 C   0  0  0  0  0  2  0  0  0  0  0  0
  -19.4360  -28.7990   23.2970 C   0  0  0  0  0  0  0  0  0  0  0  0
  -19.1780  -30.0200   23.9580 C   0  0  0  0  0  3  0  0  0  0  0  0
  -17.8590  -30.4750   24.1420 C   0  0  0  0  0  3  0  0  0  0  0  0
  -16.7790  -29.7020   23.6810 C   0  0  0  0  0  3  0  0  0  0  0  0
  -17.0210  -28.4800   23.0280 C   0  0  0  0  0  3  0  0  0  0  0  0
  -26.0080  -32.6630   24.0640 C   0  0  0  0  0  3  0  0  0  0  0  0
  -25.6570  -34.0510   24.4010 N   0  0  0  0  0  0  0  0  0  0  0  0
  -25.9840  -35.1210   23.6640 C   0  0  0  0  0  0  0  0  0  0  0  0
  -26.6810  -35.0450   22.6490 O   0  0  0  0  0  0  0  0  0  0  0  0
  -25.0410  -34.1820   25.1900 H   0  0  0  0  0  0  0  0  0  0  0  0
  -24.2180  -36.8750   23.2950 C   0  0  0  0  0  1  0  0  0  0  0  0
  -25.4540  -36.4930   24.1250 C   0  0  0  0  0  3  0  0  0  0  0  0
  -27.5460  -37.4280   25.0080 C   0  0  0  0  0  1  0  0  0  0  0  0
  -26.4620  -37.5720   24.0390 N   0  0  0  0  0  0  0  0  0  0  0  0
  -26.0320  -38.4820   24.1750 H   0  0  0  0  0  0  0  0  0  0  0  0
  -26.4890  -31.8900   25.3540 C   0  0  1  0  0  0  0  0  0  0  0  0
  -25.3540  -31.5940   26.3620 C   0  0  0  0  0  1  0  0  0  0  0  0
  -27.1420  -30.5420   24.9720 C   0  0  0  0  0  1  0  0  0  0  0  0
  -27.5760  -32.7130   26.0830 C   0  0  0  0  0  1  0  0  0  0  0  0
  1  6  1  0
  1  4  1  0
  2  7  1  0
  2  5  2  0
  3  8  1  0
  3  6  2  0
  5  1  2  0
  7  3  1  0
  9  8  1  0
 10 12  1  0
 10 11  1  0
 11  8  1  0
 12 11  1  0
 12 21  1  0
 13 21  1  0
 14 19  1  0
 15 16  1  0
 15 14  1  0
 17 16  1  0
 17 26  1  0
 17 18  1  0
 19 13  1  0
 19 18  1  0
 20 13  2  0
 21 22  1  0
 23 24  2  0
 24 43  1  0
 25 24  1  0
 25 28  1  0
 26 23  1  0
 26 27  1  0
 27 25  2  0
 28 29  1  0
 29 30  2  0
 31 34  1  0
 31 30  1  0
 32 31  2  0
 33 32  1  0
 33 28  2  0
 34 35  1  0
 35 36  1  0
 36 37  2  0
 38 37  1  0
 38 42  1  0
 39 38  2  0
 40 35  2  0
 40 39  1  0
 41 40  1  0
 43 44  1  0
 44 47  1  0
 44 46  1  0
 45 43  2  0
 48 49  1  0
 48 23  1  0
 50 48  1  0
 51  2  1  0
 51 52  1  0
 53 64  2  0
 54 52  1  0
 54 59  1  0
 55 63  1  0
 55 65  1  0
 56 62  1  0
 56 58  1  0
 57 63  1  0
 58 57  1  0
 59 58  2  0
 60 61  1  0
 60 54  2  0
 61 56  2  0
 62 55  1  0
 63 53  1  0
 65 67  2  0
 66 65  1  0
 68 66  1  0
 69 78  2  0
 69 74  1  0
 70 66  1  0
 70 74  1  0
 71 70  1  0
 72 73  1  0
 72 71  1  0
 73 69  1  0
 74 75  2  0
 75 76  1  0
 77 76  2  0
 78 77  1  0
 79 53  1  0
 79 80  1  0
 79 89  1  0
 80 83  1  0
 81 85  1  0
 81 80  1  0
 82 81  2  0
 85 84  1  0
 87 85  1  0
 87 88  1  0
 87 86  1  0
 89 92  1  1
 89 90  1  0
 91 89  1  0
M  ISO  4  13 100  21 100  51 101  52 101
M  END
>  <TORSDO>  (31) 
F 18

>  <SCORE>  (31) 
-12.906

>  <name>  (31) 
30

>  <ligand_id>  (31) 
30

>  <original_smiles>  (31) 
[H]c1c([H])c([H])c2c(c1[H])C([H])([H])C([H])([H])C([H])([H])C2([H])N([H])C(=O)C1([H])N(C(=O)C([H])(N([H])C(=O)C([H])(N([H])C([H])([H])[H])C([H])([H])[H])C(C([H])([H])[H])(C([H])([H])[H])C([H])([H])[H])C([H])([H])c2c([H])c(OC([H])([H])c3nc(N([H])C4([H])C([H])([H])C4([H])N([H])C(=O)N4C([H])([H])C([H])([H])C([H])([H])C([H])(n5nc(-c6c([H])c([H])c(Oc7c([H])c([H])c(F)c([H])c7F)c([H])c6[H])c(C(=O)N([H])[H])c5N([H])[H])C4([H])[H])nc(C([H])([H])[H])n3)c([H])c([H])c2C1([H])[H]

>  <smiles>  (31) 
[H]c1c([H])c([H])c2c(c1[H])C([H])([H])C([H])([H])C([H])([H])C2([H])N([H])C(=O)C1([H])N(C(=O)C([H])(N([H])C(=O)C([H])(N([H])C([H])([H])[H])C([H])([H])[H])C(C([H])([H])[H])(C([H])([H])[H])C([H])([H])[H])C([H])([H])c2c([H])c(OC([H])([H])c3nc(N([H])C4([H])C([H])([H])C4([H])N([H])C(=O)N4C([H])([H])C([H])([H])C([H])([H])C([H])(n5nc(-c6c([H])c([H])c(Oc7c([H])c([H])c(F)c([H])c7F)c([H])c6[H])c(C(=O)N([H])[H])c5N([H])[H])C4([H])[H])nc(C([H])([H])[H])n3)c([H])c([H])c2C1([H])[H]

$$$$
31:0:0
     RDKit          3D

 91 99  0  0  1  0  0  0  0  0999 V2000
  -28.5200  -22.9620   19.9340 C   0  0  0  0  0  3  0  0  0  0  0  0
  -29.0960  -23.2130   18.5970 N   0  0  0  0  0  4  0  0  0  0  0  0
  -30.0210  -23.5990   18.6680 H   0  0  0  0  0  0  0  0  0  0  0  0
  -28.5260  -23.8620   18.0820 H   0  0  0  0  0  0  0  0  0  0  0  0
  -29.1500  -22.3610   18.0680 H   0  0  0  0  0  0  0  0  0  0  0  0
  -29.3080  -21.5180   20.5540 C   0  0  0  0  0  2  0  0  0  0  0  0
  -30.5130  -15.1980   20.0300 C   0  0  0  0  0  0  0  0  0  0  0  0
  -30.3610  -12.8210   19.0660 C   0  0  0  0  0  2  0  0  0  0  0  0
  -29.3790  -12.7030   17.8780 C   0  0  0  0  0  2  0  0  0  0  0  0
  -27.9530  -12.4350   18.3880 C   0  0  0  0  0  2  0  0  0  0  0  0
  -27.5720  -13.3640   19.5680 C   0  0  0  0  0  3  0  0  0  0  0  0
  -28.6760  -13.4640   20.6410 C   0  0  0  0  0  2  0  0  0  0  0  0
  -29.8850  -13.9370   19.9530 N   0  0  0  0  0  0  0  0  0  0  0  0
  -31.7230  -15.1680   19.7650 O   0  0  0  0  0  0  0  0  0  0  0  0
  -30.2400  -17.4980   21.3490 C   0  0  0  0  0  2  0  0  0  0  0  0
  -30.2490  -19.1270   21.1130 C   0  0  0  0  0  2  0  0  0  0  0  0
  -28.9600  -17.3380   19.3870 C   0  0  0  0  0  2  0  0  0  0  0  0
  -29.0620  -19.0030   19.2410 C   0  0  0  0  0  3  0  0  0  0  0  0
  -27.8510  -19.4740   18.4230 C   0  0  0  0  0  1  0  0  0  0  0  0
  -29.8550  -16.4850   20.2840 N   0  0  0  0  0  0  0  0  0  0  0  0
  -29.1270  -19.9030   20.4600 N   0  0  0  0  0  0  0  0  0  0  0  0
  -25.2390  -13.8990   20.4530 C   0  0  0  0  0  0  0  0  0  0  0  0
  -24.2000  -13.1080   20.8570 C   0  0  0  0  0  0  0  0  0  0  0  0
  -24.6700  -11.7610   20.7740 C   0  0  0  0  0  0  0  0  0  0  0  0
  -26.2710  -13.0330   20.1370 N   0  0  0  0  0  0  0  0  0  0  0  0
  -25.9440  -11.7410   20.3990 N   0  0  0  0  0  0  0  0  0  0  0  0
  -23.9570  -10.4920   20.9700 C   0  0  0  0  0  0  0  0  0  0  0  0
  -24.4040   -9.5290   21.9020 C   0  0  0  0  0  3  0  0  0  0  0  0
  -23.6870   -8.3270   22.0880 C   0  0  0  0  0  3  0  0  0  0  0  0
  -22.5100   -8.0800   21.3420 C   0  0  0  0  0  0  0  0  0  0  0  0
  -22.0840   -9.0320   20.4000 C   0  0  0  0  0  3  0  0  0  0  0  0
  -22.8010  -10.2240   20.2110 C   0  0  0  0  0  3  0  0  0  0  0  0
  -21.7620   -6.9300   21.4390 O   0  0  0  0  0  0  0  0  0  0  0  0
  -21.6860   -6.2170   22.6090 C   0  0  0  0  0  0  0  0  0  0  0  0
  -21.1730   -6.7850   23.7960 C   0  0  0  0  0  3  0  0  0  0  0  0
  -21.0480   -5.9950   24.9560 C   0  0  0  0  0  3  0  0  0  0  0  0
  -21.4260   -4.6400   24.9300 C   0  0  0  0  0  0  0  0  0  0  0  0
  -21.9310   -4.0720   23.7470 C   0  0  0  0  0  3  0  0  0  0  0  0
  -22.0580   -4.8580   22.5900 C   0  0  0  0  0  0  0  0  0  0  0  0
  -22.5260   -4.3000   21.4460 F   0  0  0  0  0  0  0  0  0  0  0  0
  -21.2990   -3.8790   26.0430 F   0  0  0  0  0  0  0  0  0  0  0  0
  -22.8150  -13.5730   21.2020 C   0  0  0  0  0  0  0  0  0  0  0  0
  -22.1290  -12.8530   22.0830 N   0  0  0  0  0  0  0  0  0  0  0  0
  -22.3530  -14.6100   20.7290 O   0  0  0  0  0  0  0  0  0  0  0  0
  -22.5180  -12.0130   22.4860 H   0  0  0  0  0  0  0  0  0  0  0  0
  -21.2020  -13.1450   22.3580 H   0  0  0  0  0  0  0  0  0  0  0  0
  -25.3880  -15.2740   20.3000 N   0  0  0  0  0  0  0  0  0  0  0  0
  -24.6280  -15.9220   20.4700 H   0  0  0  0  0  0  0  0  0  0  0  0
  -26.2320  -15.7250   19.9720 H   0  0  0  0  0  0  0  0  0  0  0  0
  -28.3030  -24.5350   20.6980 C   0  0  0  0  0  2  0  0  0  0  0  0
  -28.3360  -26.0760   20.2150 O   0  0  0  0  0  0  0  0  0  0  0  0
  -24.6580  -31.8850   23.2230 C   0  0  0  0  0  0  0  0  0  0  0  0
  -27.2620  -27.0760   20.2530 C   0  0  0  0  0  0  0  0  0  0  0  0
  -23.4720  -30.4710   21.5920 C   0  0  0  0  0  3  0  0  0  0  0  0
  -24.9320  -28.8710   20.1930 C   0  0  0  0  0  0  0  0  0  0  0  0
  -26.0310  -30.7230   21.4370 C   0  0  0  0  0  2  0  0  0  0  0  0
  -26.1160  -29.3150   20.8000 C   0  0  0  0  0  0  0  0  0  0  0  0
  -27.2790  -28.4400   20.7990 C   0  0  0  0  0  3  0  0  0  0  0  0
  -26.0460  -26.7510   19.6150 C   0  0  0  0  0  3  0  0  0  0  0  0
  -24.9160  -27.6060   19.5850 C   0  0  0  0  0  3  0  0  0  0  0  0
  -23.7070  -29.7790   20.2220 C   0  0  0  0  0  2  0  0  0  0  0  0
  -24.7420  -31.0520   22.1380 N   0  0  0  0  0  0  0  0  0  0  0  0
  -23.5680  -32.1650   23.7440 O   0  0  0  0  0  0  0  0  0  0  0  0
  -22.7910  -29.4730   22.5620 C   0  0  0  0  0  0  0  0  0  0  0  0
  -21.4610  -29.2980   22.4380 N   0  0  0  0  0  0  0  0  0  0  0  0
  -23.4640  -28.8540   23.3900 O   0  0  0  0  0  0  0  0  0  0  0  0
  -20.9690  -29.8540   21.7540 H   0  0  0  0  0  0  0  0  0  0  0  0
  -18.0860  -28.0820   22.9570 C   0  0  0  0  0  0  0  0  0  0  0  0
  -20.6450  -28.3590   23.2130 C   0  0  0  0  0  3  0  0  0  0  0  0
  -20.7520  -26.9240   22.6450 C   0  0  0  0  0  2  0  0  0  0  0  0
  -19.6500  -26.5900   21.6360 C   0  0  0  0  0  2  0  0  0  0  0  0
  -18.2680  -26.7320   22.2800 C   0  0  0  0  0  2  0  0  0  0  0  0
  -19.2030  -28.8520   23.3800 C   0  0  0  0  0  0  0  0  0  0  0  0
  -18.9780  -30.1120   23.9750 C   0  0  0  0  0  3  0  0  0  0  0  0
  -17.6710  -30.6060   24.1480 C   0  0  0  0  0  3  0  0  0  0  0  0
  -16.5690  -29.8340   23.7380 C   0  0  0  0  0  3  0  0  0  0  0  0
  -16.7770  -28.5740   23.1490 C   0  0  0  0  0  3  0  0  0  0  0  0
  -25.9260  -32.5360   23.8530 C   0  0  0  0  0  3  0  0  0  0  0  0
  -26.4390  -31.7800   25.1410 C   0  0  1  0  0  0  0  0  0  0  0  0
  -25.3410  -31.5450   26.2050 C   0  0  0  0  0  1  0  0  0  0  0  0
  -27.0390  -30.4040   24.7700 C   0  0  0  0  0  1  0  0  0  0  0  0
  -27.5780  -32.5900   25.8050 C   0  0  0  0  0  1  0  0  0  0  0  0
  -25.6030  -33.9350   24.1810 N   0  0  0  0  0  0  0  0  0  0  0  0
  -25.9190  -34.9930   23.4250 C   0  0  0  0  0  0  0  0  0  0  0  0
  -26.5800  -34.8970   22.3880 O   0  0  0  0  0  0  0  0  0  0  0  0
  -25.0200  -34.0850   24.9930 H   0  0  0  0  0  0  0  0  0  0  0  0
  -24.1810  -36.7820   23.0880 C   0  0  0  0  0  1  0  0  0  0  0  0
  -25.4270  -36.3780   23.8910 C   0  0  0  0  0  3  0  0  0  0  0  0
  -27.5560  -37.2820   24.7170 C   0  0  0  0  0  1  0  0  0  0  0  0
  -26.4510  -37.4390   23.7770 N   0  0  0  0  0  0  0  0  0  0  0  0
  -26.0350  -38.3540   23.9280 H   0  0  0  0  0  0  0  0  0  0  0  0
  1  6  1  0
  1 50  1  0
  2  3  1  0
  2  1  1  0
  4  2  1  0
  5  2  1  0
  7 20  1  0
  8 13  1  0
  9 10  1  0
  9  8  1  0
 11 10  1  0
 11 25  1  0
 11 12  1  0
 13  7  1  0
 13 12  1  0
 14  7  2  0
 16 15  1  0
 17 20  1  0
 18 19  1  0
 18 17  1  0
 18 21  1  0
 20 15  1  0
 21  6  1  0
 21 16  1  0
 22 23  2  0
 23 42  1  0
 24 23  1  0
 24 27  1  0
 25 26  1  0
 25 22  1  0
 26 24  2  0
 27 28  1  0
 28 29  2  0
 30 33  1  0
 30 29  1  0
 31 30  2  0
 32 31  1  0
 32 27  2  0
 33 34  1  0
 34 35  1  0
 35 36  2  0
 37 36  1  0
 37 41  1  0
 38 37  2  0
 39 34  2  0
 39 38  1  0
 40 39  1  0
 42 43  1  0
 43 46  1  0
 43 45  1  0
 44 42  2  0
 47 22  1  0
 47 48  1  0
 49 47  1  0
 51 53  1  0
 51 50  1  0
 52 63  2  0
 53 58  1  0
 54 62  1  0
 54 64  1  0
 55 61  1  0
 55 57  1  0
 56 62  1  0
 57 56  1  0
 58 57  2  0
 59 53  2  0
 60 59  1  0
 60 55  2  0
 61 54  1  0
 62 52  1  0
 64 66  2  0
 65 64  1  0
 67 65  1  0
 68 77  2  0
 68 73  1  0
 69 65  1  0
 69 73  1  0
 70 69  1  0
 71 72  1  0
 71 70  1  0
 72 68  1  0
 73 74  2  0
 74 75  1  0
 76 75  2  0
 77 76  1  0
 78 52  1  0
 78 83  1  0
 78 79  1  0
 79 82  1  1
 79 80  1  0
 81 79  1  0
 83 86  1  0
 84 88  1  0
 84 83  1  0
 85 84  2  0
 88 87  1  0
 90 88  1  0
 90 91  1  0
 90 89  1  0
M  ISO  4   7 100  20 100  50 101  51 101
M  END
>  <TORSDO>  (32) 
F 19

>  <SCORE>  (32) 
-16.071

>  <name>  (32) 
31

>  <ligand_id>  (32) 
31

>  <original_smiles>  (32) 
[H]c1c([H])c([H])c2c(c1[H])C([H])([H])C([H])([H])C([H])([H])C2([H])N([H])C(=O)C1([H])N(C(=O)C([H])(N([H])C(=O)C([H])(N([H])C([H])([H])[H])C([H])([H])[H])C(C([H])([H])[H])(C([H])([H])[H])C([H])([H])[H])C([H])([H])c2c([H])c(OC([H])([H])C([H])(C([H])([H])N3C([H])([H])C([H])([H])N(C(=O)N4C([H])([H])C([H])([H])C([H])([H])C([H])(n5nc(-c6c([H])c([H])c(Oc7c([H])c([H])c(F)c([H])c7F)c([H])c6[H])c(C(=O)N([H])[H])c5N([H])[H])C4([H])[H])C([H])([H])C3([H])C([H])([H])[H])[N+]([H])([H])[H])c([H])c([H])c2C1([H])[H]

>  <smiles>  (32) 
[H]c1c([H])c([H])c2c(c1[H])C([H])([H])C([H])([H])C([H])([H])C2([H])N([H])C(=O)C1([H])N(C(=O)C([H])(N([H])C(=O)C([H])(N([H])C([H])([H])[H])C([H])([H])[H])C(C([H])([H])[H])(C([H])([H])[H])C([H])([H])[H])C([H])([H])c2c([H])c(OC([H])([H])C([H])(C([H])([H])N3C([H])([H])C([H])([H])N(C(=O)N4C([H])([H])C([H])([H])C([H])([H])C([H])(n5nc(-c6c([H])c([H])c(Oc7c([H])c([H])c(F)c([H])c7F)c([H])c6[H])c(C(=O)N([H])[H])c5N([H])[H])C4([H])[H])C([H])([H])C3([H])C([H])([H])[H])[N+]([H])([H])[H])c([H])c([H])c2C1([H])[H]

$$$$
32:0:0
     RDKit          3D

 88 97  0  0  1  0  0  0  0  0999 V2000
  -30.6840  -20.9500   20.9580 C   0  0  0  0  0  3  0  0  0  0  0  0
  -30.9380  -22.3220   21.1520 C   0  0  0  0  0  3  0  0  0  0  0  0
  -29.4600  -20.5090   20.4370 C   0  0  0  0  0  0  0  0  0  0  0  0
  -28.8780  -23.0230   20.3520 C   0  0  0  0  0  0  0  0  0  0  0  0
  -30.0700  -23.3160   20.8620 N   0  0  0  0  0  0  0  0  0  0  0  0
  -28.5740  -21.6280   20.1390 N   0  0  0  0  0  0  0  0  0  0  0  0
  -30.4560  -15.2030   20.2670 C   0  0  0  0  0  0  0  0  0  0  0  0
  -30.3690  -12.7900   19.3720 C   0  0  0  0  0  2  0  0  0  0  0  0
  -29.4370  -12.6340   18.1490 C   0  0  0  0  0  2  0  0  0  0  0  0
  -27.9860  -12.3860   18.5980 C   0  0  0  0  0  2  0  0  0  0  0  0
  -27.5590  -13.3350   19.7470 C   0  0  0  0  0  3  0  0  0  0  0  0
  -28.6220  -13.4580   20.8600 C   0  0  0  0  0  2  0  0  0  0  0  0
  -29.8540  -13.9270   20.2090 N   0  0  0  0  0  0  0  0  0  0  0  0
  -31.6730  -15.1930   20.0320 O   0  0  0  0  0  0  0  0  0  0  0  0
  -29.9560  -17.6950   19.3490 C   0  0  0  0  0  2  0  0  0  0  0  0
  -29.7310  -17.6160   21.3160 C   0  0  0  0  0  2  0  0  0  0  0  0
  -29.2660  -18.7980   20.3080 C   0  0  0  0  0  3  0  0  0  0  0  0
  -29.7220  -16.4770   20.2760 N   0  0  0  0  0  0  0  0  0  0  0  0
  -25.1960  -13.8850   20.5370 C   0  0  0  0  0  0  0  0  0  0  0  0
  -24.1390  -13.1020   20.9050 C   0  0  0  0  0  0  0  0  0  0  0  0
  -24.6050  -11.7520   20.8480 C   0  0  0  0  0  0  0  0  0  0  0  0
  -26.2360  -13.0140   20.2690 N   0  0  0  0  0  0  0  0  0  0  0  0
  -25.8940  -11.7240   20.5240 N   0  0  0  0  0  0  0  0  0  0  0  0
  -23.8810  -10.4870   21.0260 C   0  0  0  0  0  0  0  0  0  0  0  0
  -24.3050   -9.5160   21.9600 C   0  0  0  0  0  3  0  0  0  0  0  0
  -23.5800   -8.3170   22.1270 C   0  0  0  0  0  3  0  0  0  0  0  0
  -22.4140   -8.0800   21.3590 C   0  0  0  0  0  0  0  0  0  0  0  0
  -22.0100   -9.0380   20.4150 C   0  0  0  0  0  3  0  0  0  0  0  0
  -22.7360  -10.2290   20.2460 C   0  0  0  0  0  3  0  0  0  0  0  0
  -21.6600   -6.9330   21.4350 O   0  0  0  0  0  0  0  0  0  0  0  0
  -21.5740   -6.2030   22.5940 C   0  0  0  0  0  0  0  0  0  0  0  0
  -21.0900   -6.7650   23.7960 C   0  0  0  0  0  3  0  0  0  0  0  0
  -20.9540   -5.9610   24.9450 C   0  0  0  0  0  3  0  0  0  0  0  0
  -21.2910   -4.5960   24.8930 C   0  0  0  0  0  0  0  0  0  0  0  0
  -21.7680   -4.0320   23.6960 C   0  0  0  0  0  3  0  0  0  0  0  0
  -21.9070   -4.8340   22.5500 C   0  0  0  0  0  0  0  0  0  0  0  0
  -22.3460   -4.2810   21.3940 F   0  0  0  0  0  0  0  0  0  0  0  0
  -21.1540   -3.8210   25.9940 F   0  0  0  0  0  0  0  0  0  0  0  0
  -22.7440  -13.5720   21.1950 C   0  0  0  0  0  0  0  0  0  0  0  0
  -22.0270  -12.8660   22.0610 N   0  0  0  0  0  0  0  0  0  0  0  0
  -22.3010  -14.6030   20.6910 O   0  0  0  0  0  0  0  0  0  0  0  0
  -22.4020  -12.0320   22.4890 H   0  0  0  0  0  0  0  0  0  0  0  0
  -21.0900  -13.1590   22.2980 H   0  0  0  0  0  0  0  0  0  0  0  0
  -25.3600  -15.2590   20.3800 N   0  0  0  0  0  0  0  0  0  0  0  0
  -24.6020  -15.9180   20.5210 H   0  0  0  0  0  0  0  0  0  0  0  0
  -26.2180  -15.7000   20.0710 H   0  0  0  0  0  0  0  0  0  0  0  0
  -27.9120  -24.4100   20.0430 C   0  0  0  0  0  2  0  0  0  0  0  0
  -28.2040  -25.9840   20.3100 O   0  0  0  0  0  0  0  0  0  0  0  0
  -24.6460  -31.8840   23.2650 C   0  0  0  0  0  0  0  0  0  0  0  0
  -27.1920  -27.0560   20.2340 C   0  0  0  0  0  0  0  0  0  0  0  0
  -23.4480  -30.4990   21.6190 C   0  0  0  0  0  3  0  0  0  0  0  0
  -24.8940  -28.9040   20.1920 C   0  0  0  0  0  0  0  0  0  0  0  0
  -26.0140  -30.7150   21.4760 C   0  0  0  0  0  2  0  0  0  0  0  0
  -26.0800  -29.3140   20.8140 C   0  0  0  0  0  0  0  0  0  0  0  0
  -27.2260  -28.4090   20.8130 C   0  0  0  0  0  3  0  0  0  0  0  0
  -25.9760  -26.7820   19.5670 C   0  0  0  0  0  3  0  0  0  0  0  0
  -24.8630  -27.6560   19.5510 C   0  0  0  0  0  3  0  0  0  0  0  0
  -23.6770  -29.8220   20.2400 C   0  0  0  0  0  2  0  0  0  0  0  0
  -24.7230  -31.0570   22.1740 N   0  0  0  0  0  0  0  0  0  0  0  0
  -23.5570  -32.1780   23.7830 O   0  0  0  0  0  0  0  0  0  0  0  0
  -22.7500  -29.5000   22.5770 C   0  0  0  0  0  0  0  0  0  0  0  0
  -21.4190  -29.3440   22.4460 N   0  0  0  0  0  0  0  0  0  0  0  0
  -23.4090  -28.8680   23.4060 O   0  0  0  0  0  0  0  0  0  0  0  0
  -20.9420  -29.9050   21.7560 H   0  0  0  0  0  0  0  0  0  0  0  0
  -18.0260  -28.1640   22.9420 C   0  0  0  0  0  0  0  0  0  0  0  0
  -20.5860  -28.4090   23.2120 C   0  0  0  0  0  3  0  0  0  0  0  0
  -20.6790  -26.9790   22.6310 C   0  0  0  0  0  2  0  0  0  0  0  0
  -19.5750  -26.6700   21.6130 C   0  0  0  0  0  2  0  0  0  0  0  0
  -18.1940  -26.8180   22.2560 C   0  0  0  0  0  2  0  0  0  0  0  0
  -19.1480  -28.9180   23.3750 C   0  0  0  0  0  0  0  0  0  0  0  0
  -18.9360  -30.1760   23.9790 C   0  0  0  0  0  3  0  0  0  0  0  0
  -17.6340  -30.6820   24.1520 C   0  0  0  0  0  3  0  0  0  0  0  0
  -16.5250  -29.9250   23.7320 C   0  0  0  0  0  3  0  0  0  0  0  0
  -16.7220  -28.6680   23.1330 C   0  0  0  0  0  3  0  0  0  0  0  0
  -25.9200  -32.5150   23.9050 C   0  0  0  0  0  3  0  0  0  0  0  0
  -25.6130  -33.9170   24.2350 N   0  0  0  0  0  0  0  0  0  0  0  0
  -25.9290  -34.9720   23.4720 C   0  0  0  0  0  0  0  0  0  0  0  0
  -26.5750  -34.8670   22.4260 O   0  0  0  0  0  0  0  0  0  0  0  0
  -25.0360  -34.0730   25.0500 H   0  0  0  0  0  0  0  0  0  0  0  0
  -24.1830  -36.7620   23.1840 C   0  0  0  0  0  1  0  0  0  0  0  0
  -25.4590  -36.3640   23.9420 C   0  0  0  0  0  3  0  0  0  0  0  0
  -27.6230  -37.2660   24.6760 C   0  0  0  0  0  1  0  0  0  0  0  0
  -26.4830  -37.4200   23.7750 N   0  0  0  0  0  0  0  0  0  0  0  0
  -26.0800  -38.3420   23.9260 H   0  0  0  0  0  0  0  0  0  0  0  0
  -26.4110  -31.7460   25.1930 C   0  0  1  0  0  0  0  0  0  0  0  0
  -25.3010  -31.5240   26.2490 C   0  0  0  0  0  1  0  0  0  0  0  0
  -26.9870  -30.3620   24.8240 C   0  0  0  0  0  1  0  0  0  0  0  0
  -27.5600  -32.5340   25.8650 C   0  0  0  0  0  1  0  0  0  0  0  0
  1  2  2  0
  3  1  1  0
  4  5  2  0
  5  2  1  0
  6  4  1  0
  6  3  2  0
  7 18  1  0
  8 13  1  0
  9 10  1  0
  9  8  1  0
 11 10  1  0
 11 22  1  0
 11 12  1  0
 13  7  1  0
 13 12  1  0
 14  7  2  0
 15 18  1  0
 15 17  1  0
 17  3  1  0
 17 16  1  0
 18 16  1  0
 19 20  2  0
 20 39  1  0
 21 20  1  0
 21 24  1  0
 22 23  1  0
 22 19  1  0
 23 21  2  0
 24 25  1  0
 25 26  2  0
 27 30  1  0
 27 26  1  0
 28 27  2  0
 29 28  1  0
 29 24  2  0
 30 31  1  0
 31 32  1  0
 32 33  2  0
 34 33  1  0
 34 38  1  0
 35 34  2  0
 36 31  2  0
 36 35  1  0
 37 36  1  0
 39 40  1  0
 40 43  1  0
 40 42  1  0
 41 39  2  0
 44 45  1  0
 44 19  1  0
 46 44  1  0
 47 48  1  0
 47  4  1  0
 49 60  2  0
 50 48  1  0
 50 55  1  0
 51 59  1  0
 51 61  1  0
 52 58  1  0
 52 54  1  0
 53 59  1  0
 54 53  1  0
 55 54  2  0
 56 50  2  0
 57 56  1  0
 57 52  2  0
 58 51  1  0
 59 49  1  0
 61 63  2  0
 62 61  1  0
 64 62  1  0
 65 74  2  0
 65 70  1  0
 66 62  1  0
 66 70  1  0
 67 66  1  0
 68 69  1  0
 68 67  1  0
 69 65  1  0
 70 71  2  0
 71 72  1  0
 73 72  2  0
 74 73  1  0
 75 49  1  0
 75 76  1  0
 75 85  1  0
 76 79  1  0
 77 81  1  0
 77 76  1  0
 78 77  2  0
 81 80  1  0
 83 84  1  0
 83 81  1  0
 83 82  1  0
 85 88  1  1
 85 86  1  0
 87 85  1  0
M  ISO  4   7 100  18 100  47 101  48 101
M  END
>  <TORSDO>  (33) 
F 17

>  <SCORE>  (33) 
-16.247

>  <name>  (33) 
32

>  <ligand_id>  (33) 
32

>  <original_smiles>  (33) 
[H]c1nc(C([H])([H])Oc2c([H])c([H])c3c(c2[H])C([H])([H])N(C(=O)C([H])(N([H])C(=O)C([H])(N([H])C([H])([H])[H])C([H])([H])[H])C(C([H])([H])[H])(C([H])([H])[H])C([H])([H])[H])C([H])(C(=O)N([H])C2([H])c4c([H])c([H])c([H])c([H])c4C([H])([H])C([H])([H])C2([H])[H])C3([H])[H])nc(C2([H])C([H])([H])N(C(=O)N3C([H])([H])C([H])([H])C([H])([H])C([H])(n4nc(-c5c([H])c([H])c(Oc6c([H])c([H])c(F)c([H])c6F)c([H])c5[H])c(C(=O)N([H])[H])c4N([H])[H])C3([H])[H])C2([H])[H])c1[H]

>  <smiles>  (33) 
[H]c1nc(C([H])([H])Oc2c([H])c([H])c3c(c2[H])C([H])([H])N(C(=O)C([H])(N([H])C(=O)C([H])(N([H])C([H])([H])[H])C([H])([H])[H])C(C([H])([H])[H])(C([H])([H])[H])C([H])([H])[H])C([H])(C(=O)N([H])C2([H])c4c([H])c([H])c([H])c([H])c4C([H])([H])C([H])([H])C2([H])[H])C3([H])[H])nc(C2([H])C([H])([H])N(C(=O)N3C([H])([H])C([H])([H])C([H])([H])C([H])(n4nc(-c5c([H])c([H])c(Oc6c([H])c([H])c(F)c([H])c6F)c([H])c5[H])c(C(=O)N([H])[H])c4N([H])[H])C3([H])[H])C2([H])[H])c1[H]

$$$$
33:0:0
     RDKit          3D

 94103  0  0  1  0  0  0  0  0999 V2000
  -29.5370  -22.7200   18.6330 C   0  0  0  0  0  0  0  0  0  0  0  0
  -28.7080  -23.7230   20.4470 C   0  0  0  0  0  0  0  0  0  0  0  0
  -29.1360  -21.4320   20.4100 C   0  0  0  0  0  0  0  0  0  0  0  0
  -29.1280  -23.8530   19.1940 N   0  0  0  0  0  4  0  0  0  0  0  0
  -29.5320  -21.4960   19.1530 N   0  0  0  0  0  0  0  0  0  0  0  0
  -28.7090  -22.5170   21.1150 N   0  0  0  0  0  2  0  0  0  0  0  0
  -29.2200  -20.1250   21.0190 N   0  0  0  0  0  0  0  0  0  0  0  0
  -28.9270  -20.1190   21.9880 H   0  0  0  0  0  0  0  0  0  0  0  0
  -30.7620  -18.6280   19.6120 C   0  0  0  0  0  2  0  0  0  0  0  0
  -31.4260  -18.0260   20.8530 C   0  0  0  0  0  2  0  0  0  0  0  0
  -29.4450  -18.7360   20.4040 C   0  0  0  0  0  3  0  0  0  0  0  0
  -30.0460  -17.5030   21.2990 C   0  0  0  0  0  3  0  0  0  0  0  0
  -30.5730  -14.8990   20.7210 C   0  0  0  0  0  0  0  0  0  0  0  0
  -30.4680  -12.6530   19.6070 C   0  0  0  0  0  2  0  0  0  0  0  0
  -29.5580  -12.7340   18.3630 C   0  0  0  0  0  2  0  0  0  0  0  0
  -28.0860  -12.4880   18.7530 C   0  0  0  0  0  2  0  0  0  0  0  0
  -27.6530  -13.3170   19.9930 C   0  0  0  0  0  3  0  0  0  0  0  0
  -28.6900  -13.2350   21.1330 C   0  0  0  0  0  2  0  0  0  0  0  0
  -29.9770  -13.6640   20.5730 N   0  0  0  0  0  0  0  0  0  0  0  0
  -31.7800  -15.0010   20.4890 O   0  0  0  0  0  0  0  0  0  0  0  0
  -29.7660  -16.0220   20.9330 N   0  0  0  0  0  0  0  0  0  0  0  0
  -28.7900  -15.7790   20.9890 H   0  0  0  0  0  0  0  0  0  0  0  0
  -25.2250  -13.7940   20.6570 C   0  0  0  0  0  0  0  0  0  0  0  0
  -24.1850  -12.9710   20.9890 C   0  0  0  0  0  0  0  0  0  0  0  0
  -24.7080  -11.6420   20.9640 C   0  0  0  0  0  0  0  0  0  0  0  0
  -26.3120  -12.9640   20.4450 N   0  0  0  0  0  0  0  0  0  0  0  0
  -26.0090  -11.6640   20.6940 N   0  0  0  0  0  0  0  0  0  0  0  0
  -24.0340  -10.3470   21.1200 C   0  0  0  0  0  0  0  0  0  0  0  0
  -24.4360   -9.4200   22.1070 C   0  0  0  0  0  3  0  0  0  0  0  0
  -23.7590   -8.1900   22.2510 C   0  0  0  0  0  3  0  0  0  0  0  0
  -22.6660   -7.8780   21.4070 C   0  0  0  0  0  0  0  0  0  0  0  0
  -22.2860   -8.7930   20.4110 C   0  0  0  0  0  3  0  0  0  0  0  0
  -22.9640  -10.0150   20.2650 C   0  0  0  0  0  3  0  0  0  0  0  0
  -21.9640   -6.6980   21.4580 O   0  0  0  0  0  0  0  0  0  0  0  0
  -21.8130   -6.0010   22.6300 C   0  0  0  0  0  0  0  0  0  0  0  0
  -21.1060   -6.5330   23.7300 C   0  0  0  0  0  3  0  0  0  0  0  0
  -20.9160   -5.7540   24.8880 C   0  0  0  0  0  3  0  0  0  0  0  0
  -21.4240   -4.4420   24.9470 C   0  0  0  0  0  0  0  0  0  0  0  0
  -22.1230   -3.9080   23.8500 C   0  0  0  0  0  3  0  0  0  0  0  0
  -22.3150   -4.6850   22.6950 C   0  0  0  0  0  0  0  0  0  0  0  0
  -22.9720   -4.1580   21.6330 F   0  0  0  0  0  0  0  0  0  0  0  0
  -21.2360   -3.6910   26.0570 F   0  0  0  0  0  0  0  0  0  0  0  0
  -22.7600  -13.3820   21.2180 C   0  0  0  0  0  0  0  0  0  0  0  0
  -22.0320  -12.6380   22.0430 N   0  0  0  0  0  0  0  0  0  0  0  0
  -22.2990  -14.4000   20.7000 O   0  0  0  0  0  0  0  0  0  0  0  0
  -22.4160  -11.8150   22.4810 H   0  0  0  0  0  0  0  0  0  0  0  0
  -21.0760  -12.8960   22.2400 H   0  0  0  0  0  0  0  0  0  0  0  0
  -25.3300  -15.1720   20.4910 N   0  0  0  0  0  0  0  0  0  0  0  0
  -24.5250  -15.7830   20.5710 H   0  0  0  0  0  0  0  0  0  0  0  0
  -26.1560  -15.6520   20.1600 H   0  0  0  0  0  0  0  0  0  0  0  0
  -28.8910  -22.6050   16.1820 C   0  0  0  0  0  1  0  0  0  0  0  0
  -30.0180  -22.8280   17.1970 C   0  0  0  0  0  2  0  0  0  0  0  0
  -28.1100  -25.0580   21.1110 C   0  0  0  0  0  2  0  0  0  0  0  0
  -28.3090  -26.4430   20.5270 O   0  0  0  0  0  0  0  0  0  0  0  0
  -24.4500  -31.9240   23.4020 C   0  0  0  0  0  0  0  0  0  0  0  0
  -27.2060  -27.3270   20.4810 C   0  0  0  0  0  0  0  0  0  0  0  0
  -23.3160  -30.4940   21.7410 C   0  0  0  0  0  3  0  0  0  0  0  0
  -24.8300  -28.9420   20.3750 C   0  0  0  0  0  0  0  0  0  0  0  0
  -25.8590  -30.8350   21.6310 C   0  0  0  0  0  2  0  0  0  0  0  0
  -25.9780  -29.4450   21.0010 C   0  0  0  0  0  0  0  0  0  0  0  0
  -27.1730  -28.6530   21.0370 C   0  0  0  0  0  3  0  0  0  0  0  0
  -26.0350  -26.8900   19.8250 C   0  0  0  0  0  3  0  0  0  0  0  0
  -24.8650  -27.6740   19.7730 C   0  0  0  0  0  3  0  0  0  0  0  0
  -23.5820  -29.8060   20.3760 C   0  0  0  0  0  2  0  0  0  0  0  0
  -24.5590  -31.1040   22.3140 N   0  0  0  0  0  0  0  0  0  0  0  0
  -23.3470  -32.1890   23.9020 O   0  0  0  0  0  0  0  0  0  0  0  0
  -22.6370  -29.4780   22.6930 C   0  0  0  0  0  0  0  0  0  0  0  0
  -21.3200  -29.2710   22.5220 N   0  0  0  0  0  0  0  0  0  0  0  0
  -23.2990  -28.8790   23.5450 O   0  0  0  0  0  0  0  0  0  0  0  0
  -20.8450  -29.8110   21.8120 H   0  0  0  0  0  0  0  0  0  0  0  0
  -17.9390  -28.0600   22.9750 C   0  0  0  0  0  0  0  0  0  0  0  0
  -20.4940  -28.3250   23.2760 C   0  0  0  0  0  3  0  0  0  0  0  0
  -20.6050  -26.8970   22.6900 C   0  0  0  0  0  2  0  0  0  0  0  0
  -19.5160  -26.5800   21.6610 C   0  0  0  0  0  2  0  0  0  0  0  0
  -18.1270  -26.7160   22.2900 C   0  0  0  0  0  2  0  0  0  0  0  0
  -19.0510  -28.8220   23.4230 C   0  0  0  0  0  0  0  0  0  0  0  0
  -18.8210  -30.0790   24.0240 C   0  0  0  0  0  3  0  0  0  0  0  0
  -17.5130  -30.5730   24.1790 C   0  0  0  0  0  3  0  0  0  0  0  0
  -16.4160  -29.8090   23.7480 C   0  0  0  0  0  3  0  0  0  0  0  0
  -16.6300  -28.5540   23.1510 C   0  0  0  0  0  3  0  0  0  0  0  0
  -25.7030  -32.5830   24.0580 C   0  0  0  0  0  3  0  0  0  0  0  0
  -26.1300  -31.8940   25.4120 C   0  0  1  0  0  0  0  0  0  0  0  0
  -24.9670  -31.7130   26.4150 C   0  0  0  0  0  1  0  0  0  0  0  0
  -26.7420  -30.4990   25.1470 C   0  0  0  0  0  1  0  0  0  0  0  0
  -27.2300  -32.7340   26.1020 C   0  0  0  0  0  1  0  0  0  0  0  0
  -25.3960  -34.0050   24.2770 N   0  0  0  0  0  0  0  0  0  0  0  0
  -25.7780  -35.0020   23.4680 C   0  0  0  0  0  0  0  0  0  0  0  0
  -26.4930  -34.8230   22.4790 O   0  0  0  0  0  0  0  0  0  0  0  0
  -24.7690  -34.2180   25.0390 H   0  0  0  0  0  0  0  0  0  0  0  0
  -24.1130  -36.7990   22.8940 C   0  0  0  0  0  1  0  0  0  0  0  0
  -25.2880  -36.4230   23.8100 C   0  0  0  0  0  3  0  0  0  0  0  0
  -27.3670  -37.3360   24.7460 C   0  0  0  0  0  1  0  0  0  0  0  0
  -26.3460  -37.4520   23.7080 N   0  0  0  0  0  0  0  0  0  0  0  0
  -25.9460  -38.3850   23.7600 H   0  0  0  0  0  0  0  0  0  0  0  0
  1  5  1  0
  1  4  2  0
  2 53  1  0
  2  6  1  0
  3  7  1  0
  3  6  1  0
  4  2  2  0
  5  3  2  0
  7  8  1  0
  9 11  1  0
  9 10  1  0
 10 12  1  0
 11  7  1  0
 11 12  1  0
 12 21  1  0
 13 21  1  0
 14 19  1  0
 15 16  1  0
 15 14  1  0
 17 16  1  0
 17 26  1  0
 17 18  1  0
 19 13  1  0
 19 18  1  0
 20 13  2  0
 21 22  1  0
 23 24  2  0
 24 43  1  0
 25 24  1  0
 25 28  1  0
 26 23  1  0
 26 27  1  0
 27 25  2  0
 28 29  1  0
 29 30  2  0
 31 34  1  0
 31 30  1  0
 32 31  2  0
 33 32  1  0
 33 28  2  0
 34 35  1  0
 35 40  2  0
 35 36  1  0
 36 37  2  0
 37 38  1  0
 38 42  1  0
 39 38  2  0
 40 39  1  0
 41 40  1  0
 43 44  1  0
 44 47  1  0
 44 46  1  0
 45 43  2  0
 48 49  1  0
 48 23  1  0
 50 48  1  0
 51 52  1  0
 52  1  1  0
 54 53  1  0
 55 66  2  0
 56 54  1  0
 56 61  1  0
 57 65  1  0
 57 67  1  0
 58 64  1  0
 58 60  1  0
 59 65  1  0
 60 61  2  0
 60 59  1  0
 62 56  2  0
 63 62  1  0
 63 58  2  0
 64 57  1  0
 65 55  1  0
 67 69  2  0
 68 67  1  0
 70 68  1  0
 71 80  2  0
 71 76  1  0
 72 68  1  0
 72 76  1  0
 73 72  1  0
 74 75  1  0
 74 73  1  0
 75 71  1  0
 76 77  2  0
 77 78  1  0
 79 78  2  0
 80 79  1  0
 81 55  1  0
 81 86  1  0
 81 82  1  0
 82 85  1  1
 82 83  1  0
 84 82  1  0
 86 89  1  0
 87 91  1  0
 87 86  1  0
 88 87  2  0
 91 90  1  0
 93 94  1  0
 93 91  1  0
 93 92  1  0
M  ISO  4  13 100  21 100  53 101  54 101
M  END
>  <TORSDO>  (34) 
F 19

>  <SCORE>  (34) 
-13.493

>  <name>  (34) 
33

>  <ligand_id>  (34) 
33

>  <original_smiles>  (34) 
[H]c1c([H])c([H])c2c(c1[H])C([H])([H])C([H])([H])C([H])([H])C2([H])N([H])C(=O)C1([H])N(C(=O)C([H])(N([H])C(=O)C([H])(N([H])C([H])([H])[H])C([H])([H])[H])C(C([H])([H])[H])(C([H])([H])[H])C([H])([H])[H])C([H])([H])c2c([H])c(OC([H])([H])c3nc(N([H])C4([H])C([H])([H])C([H])([H])C4([H])N([H])C(=O)N4C([H])([H])C([H])([H])C([H])([H])C([H])(n5nc(-c6c([H])c([H])c(Oc7c([H])c([H])c(F)c([H])c7F)c([H])c6[H])c(C(=O)N([H])[H])c5N([H])[H])C4([H])[H])nc(C([H])([H])C([H])([H])[H])n3)c([H])c([H])c2C1([H])[H]

>  <smiles>  (34) 
[H]c1c([H])c([H])c2c(c1[H])C([H])([H])C([H])([H])C([H])([H])C2([H])N([H])C(=O)C1([H])N(C(=O)C([H])(N([H])C(=O)C([H])(N([H])C([H])([H])[H])C([H])([H])[H])C(C([H])([H])[H])(C([H])([H])[H])C([H])([H])[H])C([H])([H])c2c([H])c(OC([H])([H])c3nc(N([H])C4([H])C([H])([H])C([H])([H])C4([H])N([H])C(=O)N4C([H])([H])C([H])([H])C([H])([H])C([H])(n5nc(-c6c([H])c([H])c(Oc7c([H])c([H])c(F)c([H])c7F)c([H])c6[H])c(C(=O)N([H])[H])c5N([H])[H])C4([H])[H])nc(C([H])([H])C([H])([H])[H])n3)c([H])c([H])c2C1([H])[H]

$$$$
34:0:0
     RDKit          3D

 95104  0  0  1  0  0  0  0  0999 V2000
  -29.6180  -21.7020   22.2380 C   0  0  0  0  0  3  0  0  0  0  0  0
  -29.3510  -23.9810   22.6160 C   0  0  0  0  0  0  0  0  0  0  0  0
  -29.1480  -24.2540   21.2140 C   0  0  0  0  0  0  0  0  0  0  0  0
  -29.4550  -21.8590   20.8460 C   0  0  0  0  0  0  0  0  0  0  0  0
  -29.5850  -22.7360   23.0950 N   0  0  0  0  0  0  0  0  0  0  0  0
  -29.2260  -23.1530   20.3430 N   0  0  0  0  0  0  0  0  0  0  0  0
  -28.6070  -24.7320   24.9590 C   0  0  0  0  0  1  0  0  0  0  0  0
  -29.4650  -25.0460   23.7180 C   0  0  0  0  0  2  0  0  0  0  0  0
  -30.4920  -26.2910   20.4130 C   0  0  0  0  0  1  0  0  0  0  0  0
  -29.0720  -25.8070   20.7650 C   0  0  0  0  0  3  0  0  0  0  0  0
  -28.2270  -26.3220   19.6740 O   0  0  0  0  0  0  0  0  0  0  0  0
  -24.6620  -31.7660   23.0950 C   0  0  0  0  0  0  0  0  0  0  0  0
  -27.1800  -27.2590   19.8410 C   0  0  0  0  0  0  0  0  0  0  0  0
  -23.4170  -30.4400   21.4250 C   0  0  0  0  0  3  0  0  0  0  0  0
  -24.8340  -28.9210   19.9250 C   0  0  0  0  0  0  0  0  0  0  0  0
  -25.9620  -30.7210   21.2220 C   0  0  0  0  0  2  0  0  0  0  0  0
  -26.0200  -29.3590   20.5350 C   0  0  0  0  0  0  0  0  0  0  0  0
  -27.1960  -28.5350   20.5010 C   0  0  0  0  0  3  0  0  0  0  0  0
  -25.9750  -26.8900   19.2100 C   0  0  0  0  0  3  0  0  0  0  0  0
  -24.8130  -27.6860   19.2590 C   0  0  0  0  0  3  0  0  0  0  0  0
  -23.6050  -29.8070   20.0200 C   0  0  0  0  0  2  0  0  0  0  0  0
  -24.6990  -30.9930   21.9680 N   0  0  0  0  0  0  0  0  0  0  0  0
  -23.5890  -32.0370   23.6540 O   0  0  0  0  0  0  0  0  0  0  0  0
  -22.7560  -29.3980   22.3580 C   0  0  0  0  0  0  0  0  0  0  0  0
  -21.4250  -29.2520   22.2580 N   0  0  0  0  0  0  0  0  0  0  0  0
  -23.4410  -28.7270   23.1330 O   0  0  0  0  0  0  0  0  0  0  0  0
  -20.9310  -29.8430   21.6050 H   0  0  0  0  0  0  0  0  0  0  0  0
  -18.0320  -28.1190   22.8180 C   0  0  0  0  0  0  0  0  0  0  0  0
  -20.6050  -28.2940   23.0060 C   0  0  0  0  0  3  0  0  0  0  0  0
  -20.6460  -26.8960   22.3480 C   0  0  0  0  0  2  0  0  0  0  0  0
  -19.4990  -26.6590   21.3600 C   0  0  0  0  0  2  0  0  0  0  0  0
  -18.1470  -26.8040   22.0620 C   0  0  0  0  0  2  0  0  0  0  0  0
  -19.1880  -28.8260   23.2450 C   0  0  0  0  0  0  0  0  0  0  0  0
  -19.0260  -30.0600   23.9120 C   0  0  0  0  0  3  0  0  0  0  0  0
  -17.7430  -30.5860   24.1540 C   0  0  0  0  0  3  0  0  0  0  0  0
  -16.6030  -29.8720   23.7440 C   0  0  0  0  0  3  0  0  0  0  0  0
  -16.7490  -28.6410   23.0820 C   0  0  0  0  0  3  0  0  0  0  0  0
  -25.9590  -32.3610   23.7180 C   0  0  0  0  0  3  0  0  0  0  0  0
  -26.5000  -31.5240   24.9440 C   0  0  1  0  0  0  0  0  0  0  0  0
  -25.4310  -31.2510   26.0280 C   0  0  0  0  0  1  0  0  0  0  0  0
  -27.0570  -30.1590   24.4750 C   0  0  0  0  0  1  0  0  0  0  0  0
  -27.6710  -32.2780   25.6170 C   0  0  0  0  0  1  0  0  0  0  0  0
  -25.6630  -33.7400   24.1280 N   0  0  0  0  0  0  0  0  0  0  0  0
  -26.0200  -34.8360   23.4440 C   0  0  0  0  0  0  0  0  0  0  0  0
  -26.7040  -34.7880   22.4170 O   0  0  0  0  0  0  0  0  0  0  0  0
  -25.0590  -33.8530   24.9290 H   0  0  0  0  0  0  0  0  0  0  0  0
  -24.3370  -36.6860   23.1670 C   0  0  0  0  0  1  0  0  0  0  0  0
  -25.5450  -36.1970   23.9830 C   0  0  0  0  0  3  0  0  0  0  0  0
  -27.6640  -36.9830   24.9440 C   0  0  0  0  0  1  0  0  0  0  0  0
  -26.5990  -37.2350   23.9780 N   0  0  0  0  0  0  0  0  0  0  0  0
  -26.2030  -38.1510   24.1720 H   0  0  0  0  0  0  0  0  0  0  0  0
  -29.5170  -20.7150   19.9640 N   0  0  0  0  0  0  0  0  0  0  0  0
  -29.3240  -20.9650   18.9980 H   0  0  0  0  0  0  0  0  0  0  0  0
  -30.9470  -14.8370   20.6200 C   0  0  0  0  0  0  0  0  0  0  0  0
  -30.7160  -12.4960   19.7680 C   0  0  0  0  0  2  0  0  0  0  0  0
  -29.8740  -12.4520   18.4810 C   0  0  0  0  0  2  0  0  0  0  0  0
  -28.3900  -12.2520   18.8370 C   0  0  0  0  0  2  0  0  0  0  0  0
  -27.9130  -13.2250   19.9490 C   0  0  0  0  0  3  0  0  0  0  0  0
  -28.9080  -13.3350   21.1300 C   0  0  0  0  0  2  0  0  0  0  0  0
  -30.2260  -13.6540   20.5670 N   0  0  0  0  0  0  0  0  0  0  0  0
  -32.1620  -14.7590   20.4180 O   0  0  0  0  0  0  0  0  0  0  0  0
  -28.7820  -18.1890   20.1290 C   0  0  0  0  0  2  0  0  0  0  0  0
  -30.8310  -18.7510   21.2660 C   0  0  0  0  0  2  0  0  0  0  0  0
  -29.1840  -16.6430   20.0520 C   0  0  0  0  0  2  0  0  0  0  0  0
  -31.3420  -17.2570   21.1110 C   0  0  0  0  0  2  0  0  0  0  0  0
  -29.9260  -19.2430   20.1130 C   0  0  0  0  0  3  0  0  0  0  0  0
  -30.3910  -16.1300   20.7800 N   0  0  0  0  0  0  0  0  0  0  0  0
  -25.4940  -13.8170   20.5400 C   0  0  0  0  0  0  0  0  0  0  0  0
  -24.4120  -13.0510   20.8770 C   0  0  0  0  0  0  0  0  0  0  0  0
  -24.8810  -11.7010   20.9130 C   0  0  0  0  0  0  0  0  0  0  0  0
  -26.5520  -12.9370   20.3880 N   0  0  0  0  0  0  0  0  0  0  0  0
  -26.1860  -11.6600   20.6730 N   0  0  0  0  0  0  0  0  0  0  0  0
  -24.1470  -10.4420   21.1000 C   0  0  0  0  0  0  0  0  0  0  0  0
  -24.5340   -9.5010   22.0780 C   0  0  0  0  0  3  0  0  0  0  0  0
  -23.8030   -8.3070   22.2550 C   0  0  0  0  0  3  0  0  0  0  0  0
  -22.6670   -8.0460   21.4540 C   0  0  0  0  0  0  0  0  0  0  0  0
  -22.2940   -8.9780   20.4700 C   0  0  0  0  0  3  0  0  0  0  0  0
  -23.0240  -10.1630   20.2900 C   0  0  0  0  0  3  0  0  0  0  0  0
  -21.9100   -6.9030   21.5390 O   0  0  0  0  0  0  0  0  0  0  0  0
  -21.8190   -6.1830   22.7030 C   0  0  0  0  0  0  0  0  0  0  0  0
  -21.3200   -6.7560   23.8950 C   0  0  0  0  0  3  0  0  0  0  0  0
  -21.1780   -5.9630   25.0510 C   0  0  0  0  0  3  0  0  0  0  0  0
  -21.5230   -4.5980   25.0160 C   0  0  0  0  0  0  0  0  0  0  0  0
  -22.0100   -4.0240   23.8290 C   0  0  0  0  0  3  0  0  0  0  0  0
  -22.1540   -4.8140   22.6750 C   0  0  0  0  0  0  0  0  0  0  0  0
  -22.6070   -4.2520   21.5290 F   0  0  0  0  0  0  0  0  0  0  0  0
  -21.3770   -3.8340   26.1240 F   0  0  0  0  0  0  0  0  0  0  0  0
  -23.0000  -13.5310   21.0550 C   0  0  0  0  0  0  0  0  0  0  0  0
  -22.2280  -12.8660   21.9070 N   0  0  0  0  0  0  0  0  0  0  0  0
  -22.5890  -14.5350   20.4720 O   0  0  0  0  0  0  0  0  0  0  0  0
  -22.5690  -12.0570   22.4050 H   0  0  0  0  0  0  0  0  0  0  0  0
  -21.2750  -13.1710   22.0630 H   0  0  0  0  0  0  0  0  0  0  0  0
  -25.6530  -15.1840   20.3280 N   0  0  0  0  0  0  0  0  0  0  0  0
  -24.8760  -15.8290   20.4020 H   0  0  0  0  0  0  0  0  0  0  0  0
  -26.5150  -15.6310   20.0460 H   0  0  0  0  0  0  0  0  0  0  0  0
  1  5  1  0
  2  5  2  0
  2  8  1  0
  3  2  1  0
  4  1  2  0
  6  4  1  0
  6  3  2  0
  8  7  1  0
 10  9  1  0
 10  3  1  0
 11 13  1  0
 11 10  1  0
 12 23  2  0
 13 18  1  0
 14 22  1  0
 14 24  1  0
 15 21  1  0
 15 17  1  0
 16 22  1  0
 17 16  1  0
 18 17  2  0
 19 20  1  0
 19 13  2  0
 20 15  2  0
 21 14  1  0
 22 12  1  0
 24 26  2  0
 25 24  1  0
 27 25  1  0
 28 37  2  0
 28 33  1  0
 29 25  1  0
 29 33  1  0
 30 29  1  0
 31 32  1  0
 31 30  1  0
 32 28  1  0
 33 34  2  0
 34 35  1  0
 36 35  2  0
 37 36  1  0
 38 12  1  0
 38 43  1  0
 38 39  1  0
 39 42  1  1
 39 40  1  0
 41 39  1  0
 43 46  1  0
 44 48  1  0
 44 43  1  0
 45 44  2  0
 48 47  1  0
 50 48  1  0
 50 51  1  0
 50 49  1  0
 52  4  1  0
 53 52  1  0
 54 67  1  0
 55 60  1  0
 56 57  1  0
 56 55  1  0
 58 57  1  0
 58 71  1  0
 58 59  1  0
 60 54  1  0
 60 59  1  0
 61 54  2  0
 64 62  1  0
 64 67  1  0
 65 63  1  0
 66 52  1  0
 66 62  1  0
 66 63  1  0
 67 65  1  0
 68 69  2  0
 69 70  1  0
 69 88  1  0
 70 73  1  0
 71 68  1  0
 71 72  1  0
 72 70  2  0
 73 74  1  0
 74 75  2  0
 76 79  1  0
 76 75  1  0
 77 76  2  0
 78 77  1  0
 78 73  2  0
 79 80  1  0
 80 81  1  0
 81 82  2  0
 83 82  1  0
 83 87  1  0
 84 83  2  0
 85 80  2  0
 85 84  1  0
 86 85  1  0
 88 89  1  0
 89 92  1  0
 89 91  1  0
 90 88  2  0
 93 94  1  0
 93 68  1  0
 95 93  1  0
M  ISO  4  10 101  11 101  54 100  67 100
M  END
>  <TORSDO>  (35) 
F 19

>  <SCORE>  (35) 
-13.006

>  <name>  (35) 
34

>  <ligand_id>  (35) 
34

>  <original_smiles>  (35) 
[H]c1nc(C([H])([H])C([H])([H])[H])c(C([H])(Oc2c([H])c([H])c3c(c2[H])C([H])([H])N(C(=O)C([H])(N([H])C(=O)C([H])(N([H])C([H])([H])[H])C([H])([H])[H])C(C([H])([H])[H])(C([H])([H])[H])C([H])([H])[H])C([H])(C(=O)N([H])C2([H])c4c([H])c([H])c([H])c([H])c4C([H])([H])C([H])([H])C2([H])[H])C3([H])[H])C([H])([H])[H])nc1N([H])C1([H])C([H])([H])C([H])([H])N(C(=O)N2C([H])([H])C([H])([H])C([H])([H])C([H])(n3nc(-c4c([H])c([H])c(Oc5c([H])c([H])c(F)c([H])c5F)c([H])c4[H])c(C(=O)N([H])[H])c3N([H])[H])C2([H])[H])C([H])([H])C1([H])[H]

>  <smiles>  (35) 
[H]c1nc(C([H])([H])C([H])([H])[H])c(C([H])(Oc2c([H])c([H])c3c(c2[H])C([H])([H])N(C(=O)C([H])(N([H])C(=O)C([H])(N([H])C([H])([H])[H])C([H])([H])[H])C(C([H])([H])[H])(C([H])([H])[H])C([H])([H])[H])C([H])(C(=O)N([H])C2([H])c4c([H])c([H])c([H])c([H])c4C([H])([H])C([H])([H])C2([H])[H])C3([H])[H])C([H])([H])[H])nc1N([H])C1([H])C([H])([H])C([H])([H])N(C(=O)N2C([H])([H])C([H])([H])C([H])([H])C([H])(n3nc(-c4c([H])c([H])c(Oc5c([H])c([H])c(F)c([H])c5F)c([H])c4[H])c(C(=O)N([H])[H])c3N([H])[H])C2([H])[H])C([H])([H])C1([H])[H]

$$$$
35:0:0
     RDKit          3D

 94103  0  0  1  0  0  0  0  0999 V2000
  -28.4920  -21.0690   19.1070 C   0  0  0  0  0  2  0  0  0  0  0  0
  -28.7520  -21.0940   21.6440 C   0  0  0  0  0  2  0  0  0  0  0  0
  -27.8720  -22.4500   19.4250 C   0  0  0  0  0  2  0  0  0  0  0  0
  -29.1750  -22.5750   21.5630 C   0  0  0  0  0  2  0  0  0  0  0  0
  -29.0650  -20.3270   20.3470 C   0  0  0  0  0  3  0  0  0  0  0  0
  -28.7390  -23.2700   20.3140 N   0  0  2  0  0  4  0  0  0  0  0  0
  -29.5980  -23.4260   19.8030 H   0  0  0  0  0  0  0  0  0  0  0  0
  -28.5830  -18.9210   20.4180 N   0  0  0  0  0  4  0  0  0  0  0  0
  -28.2860  -18.6720   19.4880 H   0  0  0  0  0  0  0  0  0  0  0  0
  -27.7680  -18.8580   21.0080 H   0  0  0  0  0  0  0  0  0  0  0  0
  -29.5680  -17.8780   20.8070 C   0  0  0  0  0  2  0  0  0  0  0  0
  -30.8550  -14.7000   20.9230 C   0  0  0  0  0  0  0  0  0  0  0  0
  -30.6960  -12.4300   20.0470 C   0  0  0  0  0  2  0  0  0  0  0  0
  -29.8750  -12.4850   18.7430 C   0  0  0  0  0  2  0  0  0  0  0  0
  -28.3720  -12.3270   19.0430 C   0  0  0  0  0  2  0  0  0  0  0  0
  -27.8840  -13.2730   20.1680 C   0  0  0  0  0  3  0  0  0  0  0  0
  -28.8360  -13.2740   21.3890 C   0  0  0  0  0  2  0  0  0  0  0  0
  -30.2030  -13.5100   20.9080 N   0  0  0  0  0  0  0  0  0  0  0  0
  -32.0820  -14.7740   20.9770 O   0  0  0  0  0  0  0  0  0  0  0  0
  -29.4980  -16.5980   18.5060 C   0  0  0  0  0  2  0  0  0  0  0  0
  -30.9070  -16.1150   18.8340 C   0  0  0  0  0  2  0  0  0  0  0  0
  -29.2460  -16.5960   20.0210 C   0  0  0  0  0  3  0  0  0  0  0  0
  -30.2920  -15.5570   20.0420 N   0  0  0  0  0  0  0  0  0  0  0  0
  -25.4350  -13.8850   20.6570 C   0  0  0  0  0  0  0  0  0  0  0  0
  -24.3440  -13.1130   20.9530 C   0  0  0  0  0  0  0  0  0  0  0  0
  -24.8210  -11.7680   21.0080 C   0  0  0  0  0  0  0  0  0  0  0  0
  -26.5030  -13.0070   20.5490 N   0  0  0  0  0  0  0  0  0  0  0  0
  -26.1320  -11.7320   20.8230 N   0  0  0  0  0  0  0  0  0  0  0  0
  -24.0950  -10.5040   21.1650 C   0  0  0  0  0  0  0  0  0  0  0  0
  -24.4730   -9.5520   22.1380 C   0  0  0  0  0  3  0  0  0  0  0  0
  -23.7470   -8.3510   22.2820 C   0  0  0  0  0  3  0  0  0  0  0  0
  -22.6300   -8.0940   21.4500 C   0  0  0  0  0  0  0  0  0  0  0  0
  -22.2760   -9.0320   20.4650 C   0  0  0  0  0  3  0  0  0  0  0  0
  -23.0030  -10.2250   20.3200 C   0  0  0  0  0  3  0  0  0  0  0  0
  -21.8810   -6.9430   21.5010 O   0  0  0  0  0  0  0  0  0  0  0  0
  -21.7740   -6.2040   22.6520 C   0  0  0  0  0  0  0  0  0  0  0  0
  -21.2970   -6.7630   23.8580 C   0  0  0  0  0  3  0  0  0  0  0  0
  -21.1420   -5.9500   24.9970 C   0  0  0  0  0  3  0  0  0  0  0  0
  -21.4520   -4.5770   24.9310 C   0  0  0  0  0  0  0  0  0  0  0  0
  -21.9210   -4.0190   23.7290 C   0  0  0  0  0  3  0  0  0  0  0  0
  -22.0800   -4.8290   22.5920 C   0  0  0  0  0  0  0  0  0  0  0  0
  -22.5130   -4.2820   21.4310 F   0  0  0  0  0  0  0  0  0  0  0  0
  -21.2940   -3.7940   26.0220 F   0  0  0  0  0  0  0  0  0  0  0  0
  -22.9230  -13.5820   21.0750 C   0  0  0  0  0  0  0  0  0  0  0  0
  -22.1260  -12.9050   21.8940 N   0  0  0  0  0  0  0  0  0  0  0  0
  -22.5270  -14.5830   20.4790 O   0  0  0  0  0  0  0  0  0  0  0  0
  -22.4580  -12.0940   22.3920 H   0  0  0  0  0  0  0  0  0  0  0  0
  -21.1680  -13.1980   22.0190 H   0  0  0  0  0  0  0  0  0  0  0  0
  -25.6010  -15.2490   20.4410 N   0  0  0  0  0  0  0  0  0  0  0  0
  -24.8050  -15.8760   20.3970 H   0  0  0  0  0  0  0  0  0  0  0  0
  -26.4540  -15.6580   20.0880 H   0  0  0  0  0  0  0  0  0  0  0  0
  -28.2000  -24.6340   20.5690 C   0  0  0  0  0  2  0  0  0  0  0  0
  -28.5020  -25.5960   19.4100 C   0  0  0  0  0  2  0  0  0  0  0  0
  -28.3800  -26.9350   19.8600 O   0  0  0  0  0  0  0  0  0  0  0  0
  -24.5390  -31.9070   23.1160 C   0  0  0  0  0  0  0  0  0  0  0  0
  -27.1490  -27.5500   19.9090 C   0  0  0  0  0  0  0  0  0  0  0  0
  -23.3020  -30.5230   21.4750 C   0  0  0  0  0  3  0  0  0  0  0  0
  -24.7350  -29.0110   20.0080 C   0  0  0  0  0  0  0  0  0  0  0  0
  -25.8210  -30.9010   21.2340 C   0  0  0  0  0  2  0  0  0  0  0  0
  -25.8950  -29.5410   20.5790 C   0  0  0  0  0  0  0  0  0  0  0  0
  -27.1020  -28.8150   20.5310 C   0  0  0  0  0  3  0  0  0  0  0  0
  -25.9620  -27.0120   19.3580 C   0  0  0  0  0  3  0  0  0  0  0  0
  -24.7580  -27.7430   19.4040 C   0  0  0  0  0  3  0  0  0  0  0  0
  -23.4880  -29.8600   20.0840 C   0  0  0  0  0  2  0  0  0  0  0  0
  -24.5720  -31.1250   21.9980 N   0  0  0  0  0  0  0  0  0  0  0  0
  -23.4690  -32.1650   23.6840 O   0  0  0  0  0  0  0  0  0  0  0  0
  -22.6780  -29.4830   22.4340 C   0  0  0  0  0  0  0  0  0  0  0  0
  -21.3500  -29.3060   22.3400 N   0  0  0  0  0  0  0  0  0  0  0  0
  -23.3830  -28.8410   23.2160 O   0  0  0  0  0  0  0  0  0  0  0  0
  -20.8400  -29.8800   21.6830 H   0  0  0  0  0  0  0  0  0  0  0  0
  -17.9920  -28.1120   22.9040 C   0  0  0  0  0  0  0  0  0  0  0  0
  -20.5550  -28.3550   23.1140 C   0  0  0  0  0  3  0  0  0  0  0  0
  -20.6380  -26.9350   22.5090 C   0  0  0  0  0  2  0  0  0  0  0  0
  -19.5100  -26.6360   21.5170 C   0  0  0  0  0  2  0  0  0  0  0  0
  -18.1460  -26.7740   22.1990 C   0  0  0  0  0  2  0  0  0  0  0  0
  -19.1230  -28.8600   23.3220 C   0  0  0  0  0  0  0  0  0  0  0  0
  -18.9290  -30.1130   23.9410 C   0  0  0  0  0  3  0  0  0  0  0  0
  -17.6320  -30.6210   24.1450 C   0  0  0  0  0  3  0  0  0  0  0  0
  -16.5140  -29.8680   23.7480 C   0  0  0  0  0  3  0  0  0  0  0  0
  -16.6940  -28.6160   23.1340 C   0  0  0  0  0  3  0  0  0  0  0  0
  -25.8370  -32.5290   23.7180 C   0  0  0  0  0  3  0  0  0  0  0  0
  -26.4020  -31.7240   24.9540 C   0  0  1  0  0  0  0  0  0  0  0  0
  -25.3440  -31.4480   26.0470 C   0  0  0  0  0  1  0  0  0  0  0  0
  -26.9850  -30.3660   24.4990 C   0  0  0  0  0  1  0  0  0  0  0  0
  -27.5670  -32.5100   25.6050 C   0  0  0  0  0  1  0  0  0  0  0  0
  -25.5330  -33.9130   24.0980 N   0  0  0  0  0  0  0  0  0  0  0  0
  -25.8450  -34.9880   23.3620 C   0  0  0  0  0  0  0  0  0  0  0  0
  -26.4960  -34.9200   22.3150 O   0  0  0  0  0  0  0  0  0  0  0  0
  -24.9630  -34.0430   24.9200 H   0  0  0  0  0  0  0  0  0  0  0  0
  -24.1010  -36.7730   23.0860 C   0  0  0  0  0  1  0  0  0  0  0  0
  -25.3550  -36.3570   23.8690 C   0  0  0  0  0  3  0  0  0  0  0  0
  -27.4960  -37.2240   24.6990 C   0  0  0  0  0  1  0  0  0  0  0  0
  -26.3790  -37.4200   23.7760 N   0  0  0  0  0  0  0  0  0  0  0  0
  -25.9710  -38.3310   23.9670 H   0  0  0  0  0  0  0  0  0  0  0  0
  1  3  1  0
  1  5  1  0
  3  6  1  0
  4  2  1  0
  5  8  1  0
  5  2  1  0
  6 52  1  0
  6  4  1  0
  6  7  1  6
  8 11  1  0
  8 10  1  0
  9  8  1  0
 12 19  2  0
 13 18  1  0
 14 15  1  0
 14 13  1  0
 16 15  1  0
 16 27  1  0
 16 17  1  0
 18 12  1  0
 18 17  1  0
 20 21  1  0
 20 22  1  0
 21 23  1  0
 22 23  1  0
 22 11  1  0
 23 12  1  0
 24 25  2  0
 25 26  1  0
 25 44  1  0
 26 29  1  0
 27 24  1  0
 27 28  1  0
 28 26  2  0
 29 30  1  0
 30 31  2  0
 32 35  1  0
 32 31  1  0
 33 32  2  0
 34 33  1  0
 34 29  2  0
 35 36  1  0
 36 37  1  0
 37 38  2  0
 39 38  1  0
 39 43  1  0
 40 39  2  0
 41 36  2  0
 41 40  1  0
 42 41  1  0
 44 45  1  0
 45 48  1  0
 45 47  1  0
 46 44  2  0
 49 24  1  0
 50 49  1  0
 51 49  1  0
 53 54  1  0
 53 52  1  0
 54 56  1  0
 55 66  2  0
 56 61  1  0
 57 65  1  0
 57 67  1  0
 58 64  1  0
 58 60  1  0
 59 65  1  0
 60 59  1  0
 61 60  2  0
 62 63  1  0
 62 56  2  0
 63 58  2  0
 64 57  1  0
 65 55  1  0
 67 69  2  0
 68 67  1  0
 70 68  1  0
 71 80  2  0
 71 76  1  0
 72 68  1  0
 72 76  1  0
 73 72  1  0
 74 75  1  0
 74 73  1  0
 75 71  1  0
 76 77  2  0
 77 78  1  0
 79 78  2  0
 80 79  1  0
 81 55  1  0
 81 86  1  0
 81 82  1  0
 82 85  1  1
 82 83  1  0
 84 82  1  0
 86 89  1  0
 87 91  1  0
 87 86  1  0
 88 87  2  0
 91 90  1  0
 93 91  1  0
 93 94  1  0
 93 92  1  0
M  ISO  4  12 100  23 100  53 101  54 101
M  END
>  <TORSDO>  (36) 
F 20

>  <SCORE>  (36) 
-13.396

>  <name>  (36) 
35

>  <ligand_id>  (36) 
35

>  <original_smiles>  (36) 
[H]c1c([H])c([H])c2c(c1[H])C([H])([H])C([H])([H])C([H])([H])C2([H])N([H])C(=O)C1([H])N(C(=O)C([H])(N([H])C(=O)C([H])(N([H])C([H])([H])[H])C([H])([H])[H])C(C([H])([H])[H])(C([H])([H])[H])C([H])([H])[H])C([H])([H])c2c([H])c(OC([H])([H])C([H])([H])[N+]3([H])C([H])([H])C([H])([H])C([H])([N+]([H])([H])C([H])([H])C4([H])N(C(=O)N5C([H])([H])C([H])([H])C([H])([H])C([H])(n6nc(-c7c([H])c([H])c(Oc8c([H])c([H])c(F)c([H])c8F)c([H])c7[H])c(C(=O)N([H])[H])c6N([H])[H])C5([H])[H])C([H])([H])C4([H])[H])C([H])([H])C3([H])[H])c([H])c([H])c2C1([H])[H]

>  <smiles>  (36) 
[H]c1c([H])c([H])c2c(c1[H])C([H])([H])C([H])([H])C([H])([H])C2([H])N([H])C(=O)C1([H])N(C(=O)C([H])(N([H])C(=O)C([H])(N([H])C([H])([H])[H])C([H])([H])[H])C(C([H])([H])[H])(C([H])([H])[H])C([H])([H])[H])C([H])([H])c2c([H])c(OC([H])([H])C([H])([H])[N+]3([H])C([H])([H])C([H])([H])C([H])([N+]([H])([H])C([H])([H])C4([H])N(C(=O)N5C([H])([H])C([H])([H])C([H])([H])C([H])(n6nc(-c7c([H])c([H])c(Oc8c([H])c([H])c(F)c([H])c8F)c([H])c7[H])c(C(=O)N([H])[H])c6N([H])[H])C5([H])[H])C([H])([H])C4([H])[H])C([H])([H])C3([H])[H])c([H])c([H])c2C1([H])[H]

$$$$
36:0:0
     RDKit          3D

 94104  0  0  1  0  0  0  0  0999 V2000
  -30.2670  -22.3220   20.6160 C   0  0  0  0  0  3  0  0  0  0  0  0
  -29.7340  -23.6340   20.3980 C   0  0  0  0  0  0  0  0  0  0  0  0
  -28.4980  -23.7300   19.7070 C   0  0  0  0  0  0  0  0  0  0  0  0
  -29.5660  -21.1630   20.1770 C   0  0  0  0  0  0  0  0  0  0  0  0
  -27.8790  -22.5680   19.3130 N   0  0  0  0  0  0  0  0  0  0  0  0
  -28.3810  -21.3310   19.5390 N   0  0  0  0  0  0  0  0  0  0  0  0
  -30.1130  -19.8520   20.3760 N   0  0  0  0  0  0  0  0  0  0  0  0
  -31.0180  -19.8400   20.8340 H   0  0  0  0  0  0  0  0  0  0  0  0
  -30.6660  -14.8380   19.9580 C   0  0  0  0  0  0  0  0  0  0  0  0
  -30.3770  -12.6020   18.8930 C   0  0  0  0  0  2  0  0  0  0  0  0
  -29.3440  -12.6780   17.7480 C   0  0  0  0  0  2  0  0  0  0  0  0
  -27.9170  -12.4640   18.2890 C   0  0  0  0  0  2  0  0  0  0  0  0
  -27.6230  -13.3140   19.5540 C   0  0  0  0  0  3  0  0  0  0  0  0
  -28.7730  -13.2080   20.5800 C   0  0  0  0  0  2  0  0  0  0  0  0
  -30.0040  -13.6290   19.8970 N   0  0  0  0  0  0  0  0  0  0  0  0
  -31.8030  -14.9200   19.4830 O   0  0  0  0  0  0  0  0  0  0  0  0
  -28.9650  -17.8620   21.4550 C   0  0  0  0  0  2  0  0  0  0  0  0
  -28.9820  -16.3270   21.2230 C   0  0  0  0  0  2  0  0  0  0  0  0
  -30.4380  -17.3600   19.6760 C   0  0  0  0  0  2  0  0  0  0  0  0
  -29.4820  -18.5090   20.1670 C   0  0  0  0  0  3  0  0  0  0  0  0
  -29.9790  -16.0270   20.1880 N   0  0  0  0  0  0  0  0  0  0  0  0
  -25.3010  -13.8290   20.5180 C   0  0  0  0  0  0  0  0  0  0  0  0
  -24.2800  -13.0190   20.9330 C   0  0  0  0  0  0  0  0  0  0  0  0
  -24.7500  -11.6790   20.7790 C   0  0  0  0  0  0  0  0  0  0  0  0
  -26.3300  -12.9810   20.1400 N   0  0  0  0  0  0  0  0  0  0  0  0
  -26.0090  -11.6780   20.3560 N   0  0  0  0  0  0  0  0  0  0  0  0
  -24.0550  -10.3980   20.9520 C   0  0  0  0  0  0  0  0  0  0  0  0
  -24.5160   -9.4240   21.8660 C   0  0  0  0  0  3  0  0  0  0  0  0
  -23.8170   -8.2080   22.0290 C   0  0  0  0  0  3  0  0  0  0  0  0
  -22.6450   -7.9570   21.2770 C   0  0  0  0  0  0  0  0  0  0  0  0
  -22.2030   -8.9190   20.3530 C   0  0  0  0  0  3  0  0  0  0  0  0
  -22.9010  -10.1270   20.1880 C   0  0  0  0  0  3  0  0  0  0  0  0
  -21.9160   -6.7940   21.3520 O   0  0  0  0  0  0  0  0  0  0  0  0
  -21.7700   -6.1100   22.5320 C   0  0  0  0  0  0  0  0  0  0  0  0
  -21.1700   -6.6990   23.6660 C   0  0  0  0  0  3  0  0  0  0  0  0
  -20.9780   -5.9380   24.8360 C   0  0  0  0  0  3  0  0  0  0  0  0
  -21.3740   -4.5880   24.8720 C   0  0  0  0  0  0  0  0  0  0  0  0
  -21.9670   -3.9980   23.7420 C   0  0  0  0  0  3  0  0  0  0  0  0
  -22.1620   -4.7560   22.5740 C   0  0  0  0  0  0  0  0  0  0  0  0
  -22.7140   -4.1770   21.4810 F   0  0  0  0  0  0  0  0  0  0  0  0
  -21.1830   -3.8540   25.9930 F   0  0  0  0  0  0  0  0  0  0  0  0
  -22.9080  -13.4600   21.3560 C   0  0  0  0  0  0  0  0  0  0  0  0
  -22.2800  -12.7200   22.2630 N   0  0  0  0  0  0  0  0  0  0  0  0
  -22.4050  -14.4930   20.9180 O   0  0  0  0  0  0  0  0  0  0  0  0
  -22.7020  -11.8830   22.6380 H   0  0  0  0  0  0  0  0  0  0  0  0
  -21.3640  -12.9950   22.5880 H   0  0  0  0  0  0  0  0  0  0  0  0
  -25.4300  -15.2100   20.4040 N   0  0  0  0  0  0  0  0  0  0  0  0
  -24.6640  -15.8400   20.6150 H   0  0  0  0  0  0  0  0  0  0  0  0
  -26.2320  -15.6810   20.0050 H   0  0  0  0  0  0  0  0  0  0  0  0
  -30.9120  -25.0020   22.3110 C   0  0  0  0  0  2  0  0  0  0  0  0
  -29.7790  -25.8510   21.7880 C   0  0  0  0  0  2  0  0  0  0  0  0
  -30.4580  -24.8570   20.8750 C   0  0  0  0  0  3  0  0  0  0  0  0
  -27.6800  -25.0350   19.3450 C   0  0  0  0  0  2  0  0  0  0  0  0
  -28.0510  -26.4630   19.5970 O   0  0  0  0  0  0  0  0  0  0  0  0
  -24.4590  -31.7320   23.0570 C   0  0  0  0  0  0  0  0  0  0  0  0
  -26.9580  -27.3640   19.6200 C   0  0  0  0  0  0  0  0  0  0  0  0
  -23.1900  -30.3980   21.4190 C   0  0  0  0  0  3  0  0  0  0  0  0
  -24.5820  -28.9660   19.8300 C   0  0  0  0  0  0  0  0  0  0  0  0
  -25.7170  -30.7640   21.1190 C   0  0  0  0  0  2  0  0  0  0  0  0
  -25.7800  -29.4240   20.3940 C   0  0  0  0  0  0  0  0  0  0  0  0
  -26.9700  -28.6340   20.2870 C   0  0  0  0  0  3  0  0  0  0  0  0
  -25.7310  -26.9980   19.0070 C   0  0  0  0  0  3  0  0  0  0  0  0
  -24.5610  -27.7590   19.1280 C   0  0  0  0  0  3  0  0  0  0  0  0
  -23.3370  -29.8110   19.9950 C   0  0  0  0  0  2  0  0  0  0  0  0
  -24.4770  -30.9790   21.9210 N   0  0  0  0  0  0  0  0  0  0  0  0
  -23.4020  -31.9620   23.6630 O   0  0  0  0  0  0  0  0  0  0  0  0
  -22.6000  -29.3150   22.3560 C   0  0  0  0  0  0  0  0  0  0  0  0
  -21.2800  -29.0800   22.2550 N   0  0  0  0  0  0  0  0  0  0  0  0
  -23.3270  -28.6940   23.1340 O   0  0  0  0  0  0  0  0  0  0  0  0
  -20.7490  -29.6380   21.6010 H   0  0  0  0  0  0  0  0  0  0  0  0
  -17.9810  -27.6860   22.7690 C   0  0  0  0  0  0  0  0  0  0  0  0
  -20.5240  -28.0830   23.0160 C   0  0  0  0  0  3  0  0  0  0  0  0
  -20.6990  -26.6710   22.4100 C   0  0  0  0  0  2  0  0  0  0  0  0
  -19.6050  -26.3070   21.4020 C   0  0  0  0  0  2  0  0  0  0  0  0
  -18.2250  -26.3620   22.0640 C   0  0  0  0  0  2  0  0  0  0  0  0
  -19.0610  -28.5010   23.2010 C   0  0  0  0  0  0  0  0  0  0  0  0
  -18.7780  -29.7370   23.8220 C   0  0  0  0  0  3  0  0  0  0  0  0
  -17.4490  -30.1600   24.0120 C   0  0  0  0  0  3  0  0  0  0  0  0
  -16.3850  -29.3420   23.5950 C   0  0  0  0  0  3  0  0  0  0  0  0
  -16.6510  -28.1070   22.9790 C   0  0  0  0  0  3  0  0  0  0  0  0
  -25.7630  -32.3590   23.6380 C   0  0  0  0  0  3  0  0  0  0  0  0
  -25.4520  -33.7400   24.0350 N   0  0  0  0  0  0  0  0  0  0  0  0
  -25.7660  -34.8270   23.3180 C   0  0  0  0  0  0  0  0  0  0  0  0
  -26.4190  -34.7740   22.2720 O   0  0  0  0  0  0  0  0  0  0  0  0
  -24.8710  -33.8550   24.8520 H   0  0  0  0  0  0  0  0  0  0  0  0
  -24.0450  -36.6430   23.0500 C   0  0  0  0  0  1  0  0  0  0  0  0
  -25.2810  -36.1910   23.8450 C   0  0  0  0  0  3  0  0  0  0  0  0
  -27.4050  -37.0320   24.7440 C   0  0  0  0  0  1  0  0  0  0  0  0
  -26.3170  -37.2460   23.7940 N   0  0  0  0  0  0  0  0  0  0  0  0
  -25.9110  -38.1590   23.9760 H   0  0  0  0  0  0  0  0  0  0  0  0
  -26.3490  -31.5490   24.8580 C   0  0  1  0  0  0  0  0  0  0  0  0
  -25.3120  -31.2560   25.9670 C   0  0  0  0  0  1  0  0  0  0  0  0
  -26.9310  -30.1940   24.3910 C   0  0  0  0  0  1  0  0  0  0  0  0
  -27.5210  -32.3350   25.4940 C   0  0  0  0  0  1  0  0  0  0  0  0
  2  1  1  0
  2 52  1  0
  3  2  2  0
  4  7  1  0
  4  1  2  0
  5  6  2  0
  5  3  1  0
  6  4  1  0
  7  8  1  0
  9 21  1  0
 10 15  1  0
 11 12  1  0
 11 10  1  0
 13 12  1  0
 13 25  1  0
 13 14  1  0
 15  9  1  0
 15 14  1  0
 16  9  2  0
 18 17  1  0
 19 20  1  0
 19 21  1  0
 20  7  1  0
 20 17  1  0
 21 18  1  0
 22 23  2  0
 23 42  1  0
 24 23  1  0
 24 27  1  0
 25 26  1  0
 25 22  1  0
 26 24  2  0
 27 28  1  0
 28 29  2  0
 30 33  1  0
 30 29  1  0
 31 30  2  0
 32 31  1  0
 32 27  2  0
 33 34  1  0
 34 39  2  0
 34 35  1  0
 35 36  2  0
 36 37  1  0
 37 41  1  0
 38 37  2  0
 39 38  1  0
 40 39  1  0
 42 43  1  0
 43 46  1  0
 43 45  1  0
 44 42  2  0
 47 22  1  0
 47 48  1  0
 49 47  1  0
 51 50  1  0
 52 51  1  0
 52 50  1  0
 53 54  1  0
 53  3  1  0
 54 56  1  0
 55 66  2  0
 56 61  1  0
 57 65  1  0
 57 67  1  0
 58 64  1  0
 58 60  1  0
 59 65  1  0
 60 59  1  0
 61 60  2  0
 62 63  1  0
 62 56  2  0
 63 58  2  0
 64 57  1  0
 65 55  1  0
 67 69  2  0
 68 67  1  0
 70 68  1  0
 71 80  2  0
 71 76  1  0
 72 68  1  0
 72 76  1  0
 73 72  1  0
 74 75  1  0
 74 73  1  0
 75 71  1  0
 76 77  2  0
 77 78  1  0
 79 78  2  0
 80 79  1  0
 81 55  1  0
 81 82  1  0
 81 91  1  0
 82 85  1  0
 83 87  1  0
 83 82  1  0
 84 83  2  0
 87 86  1  0
 89 87  1  0
 89 90  1  0
 89 88  1  0
 91 94  1  1
 91 92  1  0
 93 91  1  0
M  ISO  4   9 100  21 100  53 101  54 101
M  END
>  <TORSDO>  (37) 
F 18

>  <SCORE>  (37) 
-12.564

>  <name>  (37) 
36

>  <ligand_id>  (37) 
36

>  <original_smiles>  (37) 
[H]c1c([H])c([H])c2c(c1[H])C([H])([H])C([H])([H])C([H])([H])C2([H])N([H])C(=O)C1([H])N(C(=O)C([H])(N([H])C(=O)C([H])(N([H])C([H])([H])[H])C([H])([H])[H])C(C([H])([H])[H])(C([H])([H])[H])C([H])([H])[H])C([H])([H])c2c([H])c(OC([H])([H])c3nnc(N([H])C4([H])C([H])([H])N(C(=O)N5C([H])([H])C([H])([H])C([H])([H])C([H])(n6nc(-c7c([H])c([H])c(Oc8c([H])c([H])c(F)c([H])c8F)c([H])c7[H])c(C(=O)N([H])[H])c6N([H])[H])C5([H])[H])C([H])([H])C4([H])[H])c([H])c3C3([H])C([H])([H])C3([H])[H])c([H])c([H])c2C1([H])[H]

>  <smiles>  (37) 
[H]c1c([H])c([H])c2c(c1[H])C([H])([H])C([H])([H])C([H])([H])C2([H])N([H])C(=O)C1([H])N(C(=O)C([H])(N([H])C(=O)C([H])(N([H])C([H])([H])[H])C([H])([H])[H])C(C([H])([H])[H])(C([H])([H])[H])C([H])([H])[H])C([H])([H])c2c([H])c(OC([H])([H])c3nnc(N([H])C4([H])C([H])([H])N(C(=O)N5C([H])([H])C([H])([H])C([H])([H])C([H])(n6nc(-c7c([H])c([H])c(Oc8c([H])c([H])c(F)c([H])c8F)c([H])c7[H])c(C(=O)N([H])[H])c6N([H])[H])C5([H])[H])C([H])([H])C4([H])[H])c([H])c3C3([H])C([H])([H])C3([H])[H])c([H])c([H])c2C1([H])[H]

$$$$
37:0:0
     RDKit          3D

 96105  0  0  1  0  0  0  0  0999 V2000
  -30.9410  -20.2100   20.2070 C   0  0  0  0  0  3  0  0  0  0  0  0
  -29.3110  -21.9540   21.6880 C   0  0  0  0  0  2  0  0  0  0  0  0
  -29.7540  -22.3080   20.4020 C   0  0  0  0  0  0  0  0  0  0  0  0
  -30.5640  -21.4510   19.6660 C   0  0  0  0  0  0  0  0  0  0  0  0
  -30.4800  -19.8750   21.5070 C   0  0  0  0  0  0  0  0  0  0  0  0
  -29.5850  -23.5250   19.6490 C   0  0  0  0  0  0  0  0  0  0  0  0
  -28.8340  -24.5860   19.9860 C   0  0  0  0  0  3  0  0  0  0  0  0
  -30.4730  -23.3700   18.4300 C   0  0  0  0  0  2  0  0  0  0  0  0
  -29.6980  -20.7550   22.1870 N   0  0  0  0  0  0  0  0  0  0  0  0
  -30.9450  -21.9810   18.4220 N   0  0  0  0  0  0  0  0  0  0  0  0
  -30.8000  -18.6700   22.1410 N   0  0  0  0  0  0  0  0  0  0  0  0
  -29.3800  -20.5140   23.1300 H   0  0  0  0  0  0  0  0  0  0  0  0
  -31.9000  -21.7950   18.1250 H   0  0  0  0  0  0  0  0  0  0  0  0
  -30.4870  -18.5840   23.0960 H   0  0  0  0  0  0  0  0  0  0  0  0
  -28.8160  -25.8940   19.2300 C   0  0  0  0  0  2  0  0  0  0  0  0
  -28.5770  -26.9670   20.1330 O   0  0  0  0  0  0  0  0  0  0  0  0
  -24.6160  -31.9550   23.2520 C   0  0  0  0  0  0  0  0  0  0  0  0
  -27.3430  -27.5760   20.1640 C   0  0  0  0  0  0  0  0  0  0  0  0
  -23.4340  -30.5320   21.6090 C   0  0  0  0  0  3  0  0  0  0  0  0
  -24.9110  -29.0110   20.1990 C   0  0  0  0  0  0  0  0  0  0  0  0
  -25.9530  -30.9320   21.4180 C   0  0  0  0  0  2  0  0  0  0  0  0
  -26.0570  -29.5620   20.7830 C   0  0  0  0  0  0  0  0  0  0  0  0
  -27.2710  -28.8480   20.7690 C   0  0  0  0  0  3  0  0  0  0  0  0
  -26.1660  -27.0120   19.6150 C   0  0  0  0  0  3  0  0  0  0  0  0
  -24.9570  -27.7310   19.6200 C   0  0  0  0  0  3  0  0  0  0  0  0
  -23.6560  -29.8490   20.2340 C   0  0  0  0  0  2  0  0  0  0  0  0
  -24.6850  -31.1550   22.1510 N   0  0  0  0  0  0  0  0  0  0  0  0
  -23.5290  -32.2120   23.7880 O   0  0  0  0  0  0  0  0  0  0  0  0
  -22.7960  -29.5040   22.5700 C   0  0  0  0  0  0  0  0  0  0  0  0
  -21.4770  -29.2950   22.4270 N   0  0  0  0  0  0  0  0  0  0  0  0
  -23.4830  -28.8980   23.3950 O   0  0  0  0  0  0  0  0  0  0  0  0
  -20.9870  -29.8310   21.7250 H   0  0  0  0  0  0  0  0  0  0  0  0
  -18.1210  -28.0470   22.8990 C   0  0  0  0  0  0  0  0  0  0  0  0
  -20.6700  -28.3490   23.1950 C   0  0  0  0  0  3  0  0  0  0  0  0
  -20.8040  -26.9180   22.6280 C   0  0  0  0  0  2  0  0  0  0  0  0
  -19.7170  -26.5710   21.6030 C   0  0  0  0  0  2  0  0  0  0  0  0
  -18.3250  -26.6980   22.2310 C   0  0  0  0  0  2  0  0  0  0  0  0
  -19.2210  -28.8300   23.3360 C   0  0  0  0  0  0  0  0  0  0  0  0
  -18.9770  -30.0930   23.9180 C   0  0  0  0  0  3  0  0  0  0  0  0
  -17.6620  -30.5740   24.0670 C   0  0  0  0  0  3  0  0  0  0  0  0
  -16.5750  -29.7890   23.6460 C   0  0  0  0  0  3  0  0  0  0  0  0
  -16.8040  -28.5270   23.0690 C   0  0  0  0  0  3  0  0  0  0  0  0
  -25.8920  -32.6040   23.8740 C   0  0  0  0  0  3  0  0  0  0  0  0
  -26.4150  -31.8470   25.1570 C   0  0  1  0  0  0  0  0  0  0  0  0
  -25.3190  -31.5860   26.2160 C   0  0  0  0  0  1  0  0  0  0  0  0
  -27.0330  -30.4820   24.7740 C   0  0  0  0  0  1  0  0  0  0  0  0
  -27.5440  -32.6700   25.8240 C   0  0  0  0  0  1  0  0  0  0  0  0
  -25.5650  -34.0010   24.1910 N   0  0  0  0  0  0  0  0  0  0  0  0
  -25.8900  -35.0500   23.4240 C   0  0  0  0  0  0  0  0  0  0  0  0
  -26.5670  -34.9460   22.3970 O   0  0  0  0  0  0  0  0  0  0  0  0
  -24.9670  -34.1550   24.9890 H   0  0  0  0  0  0  0  0  0  0  0  0
  -24.1460  -36.8210   23.0370 C   0  0  0  0  0  1  0  0  0  0  0  0
  -25.3830  -36.4360   23.8660 C   0  0  0  0  0  3  0  0  0  0  0  0
  -27.4970  -37.3510   24.7160 C   0  0  0  0  0  1  0  0  0  0  0  0
  -26.4050  -37.4990   23.7560 N   0  0  0  0  0  0  0  0  0  0  0  0
  -25.9870  -38.4160   23.8910 H   0  0  0  0  0  0  0  0  0  0  0  0
  -30.5860  -17.4740   21.3420 C   0  0  0  0  0  2  0  0  0  0  0  0
  -31.0280  -16.2040   22.0860 C   0  0  0  0  0  2  0  0  0  0  0  0
  -30.7250  -14.4000   20.3820 C   0  0  0  0  0  0  0  0  0  0  0  0
  -30.2870  -12.4210   18.9750 C   0  0  0  0  0  2  0  0  0  0  0  0
  -29.2850  -12.7110   17.8420 C   0  0  0  0  0  2  0  0  0  0  0  0
  -27.8350  -12.5470   18.3330 C   0  0  0  0  0  2  0  0  0  0  0  0
  -27.5680  -13.3140   19.6530 C   0  0  0  0  0  3  0  0  0  0  0  0
  -28.6590  -12.9950   20.6970 C   0  0  0  0  0  2  0  0  0  0  0  0
  -29.9800  -13.3010   20.1110 N   0  0  0  0  0  0  0  0  0  0  0  0
  -31.6710  -14.7820   19.6850 O   0  0  0  0  0  0  0  0  0  0  0  0
  -30.4000  -15.0130   21.5250 N   0  0  0  0  0  0  0  0  0  0  0  0
  -29.6500  -14.5960   22.0570 H   0  0  0  0  0  0  0  0  0  0  0  0
  -25.1890  -13.9100   20.4450 C   0  0  0  0  0  0  0  0  0  0  0  0
  -24.1360  -13.1290   20.8430 C   0  0  0  0  0  0  0  0  0  0  0  0
  -24.6020  -11.7800   20.7810 C   0  0  0  0  0  0  0  0  0  0  0  0
  -26.2290  -13.0350   20.1700 N   0  0  0  0  0  0  0  0  0  0  0  0
  -25.8800  -11.7480   20.4260 N   0  0  0  0  0  0  0  0  0  0  0  0
  -23.8890  -10.5120   20.9830 C   0  0  0  0  0  0  0  0  0  0  0  0
  -24.3380   -9.5530   21.9170 C   0  0  0  0  0  3  0  0  0  0  0  0
  -23.6250   -8.3490   22.1050 C   0  0  0  0  0  3  0  0  0  0  0  0
  -22.4500   -8.0960   21.3600 C   0  0  0  0  0  0  0  0  0  0  0  0
  -22.0200   -9.0430   20.4150 C   0  0  0  0  0  3  0  0  0  0  0  0
  -22.7340  -10.2390   20.2240 C   0  0  0  0  0  3  0  0  0  0  0  0
  -21.7080   -6.9440   21.4570 O   0  0  0  0  0  0  0  0  0  0  0  0
  -21.6520   -6.2210   22.6220 C   0  0  0  0  0  0  0  0  0  0  0  0
  -21.1850   -6.7860   23.8280 C   0  0  0  0  0  3  0  0  0  0  0  0
  -21.0780   -5.9870   24.9850 C   0  0  0  0  0  3  0  0  0  0  0  0
  -21.4270   -4.6240   24.9360 C   0  0  0  0  0  0  0  0  0  0  0  0
  -21.8870   -4.0590   23.7340 C   0  0  0  0  0  3  0  0  0  0  0  0
  -21.9960   -4.8540   22.5790 C   0  0  0  0  0  0  0  0  0  0  0  0
  -22.4190   -4.2980   21.4180 F   0  0  0  0  0  0  0  0  0  0  0  0
  -21.3170   -3.8550   26.0440 F   0  0  0  0  0  0  0  0  0  0  0  0
  -22.7480  -13.5970   21.1720 C   0  0  0  0  0  0  0  0  0  0  0  0
  -22.0520  -12.8810   22.0500 N   0  0  0  0  0  0  0  0  0  0  0  0
  -22.2890  -14.6290   20.6860 O   0  0  0  0  0  0  0  0  0  0  0  0
  -22.4370  -12.0450   22.4640 H   0  0  0  0  0  0  0  0  0  0  0  0
  -21.1220  -13.1740   22.3120 H   0  0  0  0  0  0  0  0  0  0  0  0
  -25.3430  -15.2820   20.2750 N   0  0  0  0  0  0  0  0  0  0  0  0
  -24.5790  -15.9360   20.4080 H   0  0  0  0  0  0  0  0  0  0  0  0
  -26.1860  -15.7230   19.9300 H   0  0  0  0  0  0  0  0  0  0  0  0
  1  5  2  0
  2  9  1  0
  3  2  1  0
  4  1  1  0
  4  3  2  0
  5 11  1  0
  5  9  1  0
  6  7  2  0
  6  3  1  0
  8  6  1  0
  9 12  1  0
 10  8  1  0
 10  4  1  0
 11 14  1  0
 13 10  1  0
 15  7  1  0
 15 16  1  0
 16 18  1  0
 17 28  2  0
 18 23  1  0
 19 27  1  0
 19 29  1  0
 20 26  1  0
 20 22  1  0
 21 27  1  0
 22 21  1  0
 23 22  2  0
 24 25  1  0
 24 18  2  0
 25 20  2  0
 26 19  1  0
 27 17  1  0
 29 31  2  0
 30 29  1  0
 32 30  1  0
 33 42  2  0
 33 38  1  0
 34 30  1  0
 34 38  1  0
 35 34  1  0
 36 37  1  0
 36 35  1  0
 37 33  1  0
 38 39  2  0
 39 40  1  0
 41 40  2  0
 42 41  1  0
 43 17  1  0
 43 48  1  0
 43 44  1  0
 44 47  1  1
 44 45  1  0
 46 44  1  0
 48 51  1  0
 49 53  1  0
 49 48  1  0
 50 49  2  0
 53 52  1  0
 55 53  1  0
 55 56  1  0
 55 54  1  0
 57 58  1  0
 57 11  1  0
 59 67  1  0
 60 65  1  0
 61 62  1  0
 61 60  1  0
 63 62  1  0
 63 72  1  0
 63 64  1  0
 65 59  1  0
 65 64  1  0
 66 59  2  0
 67 68  1  0
 67 58  1  0
 69 70  2  0
 70 89  1  0
 71 70  1  0
 71 74  1  0
 72 73  1  0
 72 69  1  0
 73 71  2  0
 74 75  1  0
 75 76  2  0
 77 80  1  0
 77 76  1  0
 78 77  2  0
 79 78  1  0
 79 74  2  0
 80 81  1  0
 81 82  1  0
 82 83  2  0
 84 83  1  0
 84 88  1  0
 85 84  2  0
 86 81  2  0
 86 85  1  0
 87 86  1  0
 89 90  1  0
 90 93  1  0
 90 92  1  0
 91 89  2  0
 94 95  1  0
 94 69  1  0
 96 94  1  0
M  ISO  4  15 101  16 101  59 100  67 100
M  END
>  <TORSDO>  (38) 
F 19

>  <SCORE>  (38) 
-14.533

>  <name>  (38) 
37

>  <ligand_id>  (38) 
37

>  <original_smiles>  (38) 
[H]C(=C1c2c(c([H])c(N([H])C([H])([H])C([H])([H])N([H])C(=O)N3C([H])([H])C([H])([H])C([H])([H])C([H])(n4nc(-c5c([H])c([H])c(Oc6c([H])c([H])c(F)c([H])c6F)c([H])c5[H])c(C(=O)N([H])[H])c4N([H])[H])C3([H])[H])[n+]([H])c2[H])N([H])C1([H])[H])C([H])([H])Oc1c([H])c([H])c2c(c1[H])C([H])([H])N(C(=O)C([H])(N([H])C(=O)C([H])(N([H])C([H])([H])[H])C([H])([H])[H])C(C([H])([H])[H])(C([H])([H])[H])C([H])([H])[H])C([H])(C(=O)N([H])C1([H])c3c([H])c([H])c([H])c([H])c3C([H])([H])C([H])([H])C1([H])[H])C2([H])[H]

>  <smiles>  (38) 
[H]C(=C1c2c(c([H])c(N([H])C([H])([H])C([H])([H])N([H])C(=O)N3C([H])([H])C([H])([H])C([H])([H])C([H])(n4nc(-c5c([H])c([H])c(Oc6c([H])c([H])c(F)c([H])c6F)c([H])c5[H])c(C(=O)N([H])[H])c4N([H])[H])C3([H])[H])[n+]([H])c2[H])N([H])C1([H])[H])C([H])([H])Oc1c([H])c([H])c2c(c1[H])C([H])([H])N(C(=O)C([H])(N([H])C(=O)C([H])(N([H])C([H])([H])[H])C([H])([H])[H])C(C([H])([H])[H])(C([H])([H])[H])C([H])([H])[H])C([H])(C(=O)N([H])C1([H])c3c([H])c([H])c([H])c([H])c3C([H])([H])C([H])([H])C1([H])[H])C2([H])[H]

$$$$
38:0:0
     RDKit          3D

 91100  0  0  1  0  0  0  0  0999 V2000
  -29.8780  -22.3200   21.5000 C   0  0  0  0  0  3  0  0  0  0  0  0
  -29.4790  -20.4970   20.5330 C   0  0  0  0  0  0  0  0  0  0  0  0
  -30.5160  -18.2070   20.9540 C   0  0  0  0  0  2  0  0  0  0  0  0
  -28.7480  -18.0940   19.9000 C   0  0  0  0  0  2  0  0  0  0  0  0
  -29.9650  -17.1120   20.0090 C   0  0  0  0  0  3  0  0  0  0  0  0
  -30.5250  -23.3340   22.3880 C   0  0  0  0  0  1  0  0  0  0  0  0
  -30.0670  -21.0050   21.6530 N   0  0  0  0  0  0  0  0  0  0  0  0
  -28.8780  -21.4390   19.7750 N   0  0  0  0  0  2  0  0  0  0  0  0
  -29.1470  -22.6400   20.4180 N   0  0  0  0  0  0  0  0  0  0  0  0
  -29.7610  -19.1400   20.0990 N   0  0  0  0  0  0  0  0  0  0  0  0
  -30.5580  -14.6510   20.3660 C   0  0  0  0  0  0  0  0  0  0  0  0
  -30.3600  -12.4070   19.3430 C   0  0  0  0  0  2  0  0  0  0  0  0
  -29.4130  -12.5350   18.1280 C   0  0  0  0  0  2  0  0  0  0  0  0
  -27.9410  -12.3790   18.5560 C   0  0  0  0  0  2  0  0  0  0  0  0
  -27.5850  -13.2440   19.7950 C   0  0  0  0  0  3  0  0  0  0  0  0
  -28.6450  -13.0960   20.9090 C   0  0  0  0  0  2  0  0  0  0  0  0
  -29.9500  -13.4280   20.3260 N   0  0  0  0  0  0  0  0  0  0  0  0
  -31.7250  -14.7980   19.9930 O   0  0  0  0  0  0  0  0  0  0  0  0
  -29.7430  -15.7350   20.5670 N   0  0  0  0  0  0  0  0  0  0  0  0
  -28.8090  -15.5220   20.8820 H   0  0  0  0  0  0  0  0  0  0  0  0
  -25.2000  -13.8520   20.5340 C   0  0  0  0  0  0  0  0  0  0  0  0
  -24.1360  -13.0780   20.9170 C   0  0  0  0  0  0  0  0  0  0  0  0
  -24.5960  -11.7250   20.8800 C   0  0  0  0  0  0  0  0  0  0  0  0
  -26.2400  -12.9670   20.2900 N   0  0  0  0  0  0  0  0  0  0  0  0
  -25.8840  -11.6850   20.5600 N   0  0  0  0  0  0  0  0  0  0  0  0
  -23.8700  -10.4630   21.0730 C   0  0  0  0  0  0  0  0  0  0  0  0
  -24.3180   -9.4870   21.9900 C   0  0  0  0  0  3  0  0  0  0  0  0
  -23.5920   -8.2890   22.1700 C   0  0  0  0  0  3  0  0  0  0  0  0
  -22.4050   -8.0610   21.4340 C   0  0  0  0  0  0  0  0  0  0  0  0
  -21.9780   -9.0260   20.5050 C   0  0  0  0  0  3  0  0  0  0  0  0
  -22.7040  -10.2150   20.3220 C   0  0  0  0  0  3  0  0  0  0  0  0
  -21.6510   -6.9170   21.5230 O   0  0  0  0  0  0  0  0  0  0  0  0
  -21.6290   -6.1550   22.6650 C   0  0  0  0  0  0  0  0  0  0  0  0
  -21.2420   -6.6910   23.9120 C   0  0  0  0  0  3  0  0  0  0  0  0
  -21.1680   -5.8570   25.0460 C   0  0  0  0  0  3  0  0  0  0  0  0
  -21.4730   -4.4890   24.9330 C   0  0  0  0  0  0  0  0  0  0  0  0
  -21.8530   -3.9500   23.6910 C   0  0  0  0  0  3  0  0  0  0  0  0
  -21.9270   -4.7820   22.5600 C   0  0  0  0  0  0  0  0  0  0  0  0
  -22.2740   -4.2540   21.3610 F   0  0  0  0  0  0  0  0  0  0  0  0
  -21.3940   -3.6840   26.0190 F   0  0  0  0  0  0  0  0  0  0  0  0
  -22.7400  -13.5550   21.1970 C   0  0  0  0  0  0  0  0  0  0  0  0
  -22.0120  -12.8620   22.0670 N   0  0  0  0  0  0  0  0  0  0  0  0
  -22.3010  -14.5800   20.6790 O   0  0  0  0  0  0  0  0  0  0  0  0
  -22.3800  -12.0350   22.5140 H   0  0  0  0  0  0  0  0  0  0  0  0
  -21.0740  -13.1660   22.2880 H   0  0  0  0  0  0  0  0  0  0  0  0
  -25.3610  -15.2210   20.3490 N   0  0  0  0  0  0  0  0  0  0  0  0
  -24.5820  -15.8650   20.4430 H   0  0  0  0  0  0  0  0  0  0  0  0
  -26.1770  -15.6490   19.9350 H   0  0  0  0  0  0  0  0  0  0  0  0
  -28.8760  -23.9830   19.7820 C   0  0  0  0  0  3  0  0  0  0  0  0
  -28.2000  -25.1360   20.6430 C   0  0  0  0  0  3  0  0  0  0  0  0
  -28.3280  -26.5280   20.1630 O   0  0  0  0  0  0  0  0  0  0  0  0
  -24.5890  -31.8840   23.2350 C   0  0  0  0  0  0  0  0  0  0  0  0
  -27.1920  -27.3430   20.1750 C   0  0  0  0  0  0  0  0  0  0  0  0
  -23.3750  -30.4800   21.6030 C   0  0  0  0  0  3  0  0  0  0  0  0
  -24.8180  -28.9240   20.1770 C   0  0  0  0  0  0  0  0  0  0  0  0
  -25.9090  -30.8090   21.3970 C   0  0  0  0  0  2  0  0  0  0  0  0
  -25.9880  -29.4290   20.7570 C   0  0  0  0  0  0  0  0  0  0  0  0
  -27.1810  -28.6520   20.7400 C   0  0  0  0  0  3  0  0  0  0  0  0
  -26.0020  -26.8800   19.5770 C   0  0  0  0  0  3  0  0  0  0  0  0
  -24.8240  -27.6530   19.5800 C   0  0  0  0  0  3  0  0  0  0  0  0
  -23.5840  -29.8000   20.2250 C   0  0  0  0  0  2  0  0  0  0  0  0
  -24.6440  -31.0760   22.1360 N   0  0  0  0  0  0  0  0  0  0  0  0
  -23.5100  -32.1620   23.7780 O   0  0  0  0  0  0  0  0  0  0  0  0
  -22.7190  -29.4660   22.5700 C   0  0  0  0  0  0  0  0  0  0  0  0
  -21.3920  -29.2860   22.4480 N   0  0  0  0  0  0  0  0  0  0  0  0
  -23.4010  -28.8440   23.3890 O   0  0  0  0  0  0  0  0  0  0  0  0
  -20.8990  -29.8450   21.7670 H   0  0  0  0  0  0  0  0  0  0  0  0
  -18.0180  -28.0770   22.9510 C   0  0  0  0  0  0  0  0  0  0  0  0
  -20.5750  -28.3490   23.2230 C   0  0  0  0  0  3  0  0  0  0  0  0
  -20.6830  -26.9130   22.6570 C   0  0  0  0  0  2  0  0  0  0  0  0
  -19.5830  -26.5780   21.6440 C   0  0  0  0  0  2  0  0  0  0  0  0
  -18.2000  -26.7230   22.2850 C   0  0  0  0  0  2  0  0  0  0  0  0
  -19.1330  -28.8480   23.3780 C   0  0  0  0  0  0  0  0  0  0  0  0
  -18.9070  -30.1140   23.9610 C   0  0  0  0  0  3  0  0  0  0  0  0
  -17.6000  -30.6100   24.1210 C   0  0  0  0  0  3  0  0  0  0  0  0
  -16.5010  -29.8370   23.7110 C   0  0  0  0  0  3  0  0  0  0  0  0
  -16.7090  -28.5730   23.1320 C   0  0  0  0  0  3  0  0  0  0  0  0
  -25.8750  -32.5170   23.8500 C   0  0  0  0  0  3  0  0  0  0  0  0
  -25.5700  -33.9160   24.1830 N   0  0  0  0  0  0  0  0  0  0  0  0
  -25.9050  -34.9680   23.4230 C   0  0  0  0  0  0  0  0  0  0  0  0
  -26.5710  -34.8610   22.3900 O   0  0  0  0  0  0  0  0  0  0  0  0
  -24.9840  -34.0720   24.9890 H   0  0  0  0  0  0  0  0  0  0  0  0
  -24.1840  -36.7650   23.0640 C   0  0  0  0  0  1  0  0  0  0  0  0
  -25.4220  -36.3570   23.8800 C   0  0  0  0  0  3  0  0  0  0  0  0
  -27.5600  -37.2280   24.7160 C   0  0  0  0  0  1  0  0  0  0  0  0
  -26.4610  -37.4060   23.7710 N   0  0  0  0  0  0  0  0  0  0  0  0
  -26.0590  -38.3280   23.9190 H   0  0  0  0  0  0  0  0  0  0  0  0
  -26.3980  -31.7460   25.1260 C   0  0  1  0  0  0  0  0  0  0  0  0
  -25.3110  -31.5090   26.2020 C   0  0  0  0  0  1  0  0  0  0  0  0
  -26.9750  -30.3680   24.7300 C   0  0  0  0  0  1  0  0  0  0  0  0
  -27.5600  -32.5330   25.7770 C   0  0  0  0  0  1  0  0  0  0  0  0
  1  7  1  0
  1  6  1  0
  2  7  2  0
  4  5  1  0
  4 10  1  0
  5 19  1  0
  5  3  1  0
  8  9  1  0
  8  2  1  0
  9  1  1  0
 10  2  1  0
 10  3  1  0
 11 19  1  0
 12 17  1  0
 13 14  1  0
 13 12  1  0
 15 14  1  0
 15 24  1  0
 15 16  1  0
 17 11  1  0
 17 16  1  0
 18 11  2  0
 19 20  1  0
 21 22  2  0
 22 41  1  0
 23 22  1  0
 23 26  1  0
 24 21  1  0
 24 25  1  0
 25 23  2  0
 26 27  1  0
 27 28  2  0
 29 32  1  0
 29 28  1  0
 30 29  2  0
 31 30  1  0
 31 26  2  0
 32 33  1  0
 33 34  1  0
 34 35  2  0
 36 35  1  0
 36 40  1  0
 37 36  2  0
 38 33  2  0
 38 37  1  0
 39 38  1  0
 41 42  1  0
 42 45  1  0
 42 44  1  0
 43 41  2  0
 46 47  1  0
 46 21  1  0
 48 46  1  0
 49  9  1  0
 49 50  2  0
 51 53  1  0
 51 50  1  0
 52 63  2  0
 53 58  1  0
 54 62  1  0
 54 64  1  0
 55 61  1  0
 55 57  1  0
 56 62  1  0
 57 56  1  0
 58 57  2  0
 59 60  1  0
 59 53  2  0
 60 55  2  0
 61 54  1  0
 62 52  1  0
 64 66  2  0
 65 64  1  0
 67 65  1  0
 68 77  2  0
 68 73  1  0
 69 65  1  0
 69 73  1  0
 70 69  1  0
 71 72  1  0
 71 70  1  0
 72 68  1  0
 73 74  2  0
 74 75  1  0
 76 75  2  0
 77 76  1  0
 78 52  1  0
 78 79  1  0
 78 88  1  0
 79 82  1  0
 80 84  1  0
 80 79  1  0
 81 80  2  0
 84 83  1  0
 86 84  1  0
 86 87  1  0
 86 85  1  0
 88 91  1  1
 88 89  1  0
 90 88  1  0
M  ISO  4  11 100  19 100  50 101  51 101
M  END
>  <TORSDO>  (39) 
F 18

>  <SCORE>  (39) 
-14.664

>  <name>  (39) 
38

>  <ligand_id>  (39) 
38

>  <original_smiles>  (39) 
[H]c1c([H])c([H])c2c(c1[H])C([H])([H])C([H])([H])C([H])([H])C2([H])N([H])C(=O)C1([H])N(C(=O)C([H])(N([H])C(=O)C([H])(N([H])C([H])([H])[H])C([H])([H])[H])C(C([H])([H])[H])(C([H])([H])[H])C([H])([H])[H])C([H])([H])c2c([H])c(OC([H])([H])C([H])([H])n3nc(N4C([H])([H])C([H])(N([H])C(=O)N5C([H])([H])C([H])([H])C([H])([H])C([H])(n6nc(-c7c([H])c([H])c(Oc8c([H])c([H])c(F)c([H])c8F)c([H])c7[H])c(C(=O)N([H])[H])c6N([H])[H])C5([H])[H])C4([H])[H])nc3C([H])([H])[H])c([H])c([H])c2C1([H])[H]

>  <smiles>  (39) 
[H]c1c([H])c([H])c2c(c1[H])C([H])([H])C([H])([H])C([H])([H])C2([H])N([H])C(=O)C1([H])N(C(=O)C([H])(N([H])C(=O)C([H])(N([H])C([H])([H])[H])C([H])([H])[H])C(C([H])([H])[H])(C([H])([H])[H])C([H])([H])[H])C([H])([H])c2c([H])c(OC([H])([H])C([H])([H])n3nc(N4C([H])([H])C([H])(N([H])C(=O)N5C([H])([H])C([H])([H])C([H])([H])C([H])(n6nc(-c7c([H])c([H])c(Oc8c([H])c([H])c(F)c([H])c8F)c([H])c7[H])c(C(=O)N([H])[H])c6N([H])[H])C5([H])[H])C4([H])[H])nc3C([H])([H])[H])c([H])c([H])c2C1([H])[H]

$$$$
39:0:0
     RDKit          3D

 92101  0  0  1  0  0  0  0  0999 V2000
  -31.0310  -21.7150   20.8410 C   0  0  0  0  0  2  0  0  0  0  0  0
  -30.1610  -22.8790   21.3340 C   0  0  0  0  0  2  0  0  0  0  0  0
  -28.8410  -21.7050   19.8790 C   0  0  0  0  0  2  0  0  0  0  0  0
  -30.1050  -20.7910   20.0300 C   0  0  0  0  0  3  0  0  0  0  0  0
  -29.2580  -23.0920   20.2090 N   0  0  0  0  0  0  0  0  0  0  0  0
  -29.9270  -19.4890   20.7580 N   0  0  0  0  0  4  0  0  0  0  0  0
  -29.1670  -19.5690   21.4140 H   0  0  0  0  0  0  0  0  0  0  0  0
  -30.7630  -19.3900   21.3080 H   0  0  0  0  0  0  0  0  0  0  0  0
  -29.8050  -18.1860   20.0160 C   0  0  0  0  0  2  0  0  0  0  0  0
  -30.9190  -14.6010   19.9030 C   0  0  0  0  0  0  0  0  0  0  0  0
  -30.5550  -12.4270   18.7510 C   0  0  0  0  0  2  0  0  0  0  0  0
  -29.5330  -12.5790   17.6040 C   0  0  0  0  0  2  0  0  0  0  0  0
  -28.0880  -12.4370   18.1210 C   0  0  0  0  0  2  0  0  0  0  0  0
  -27.8270  -13.2870   19.3910 C   0  0  0  0  0  3  0  0  0  0  0  0
  -28.9460  -13.0650   20.4270 C   0  0  0  0  0  2  0  0  0  0  0  0
  -30.2260  -13.4220   19.7900 N   0  0  0  0  0  0  0  0  0  0  0  0
  -31.9900  -14.7690   19.3120 O   0  0  0  0  0  0  0  0  0  0  0  0
  -30.8560  -16.8710   22.0940 C   0  0  0  0  0  2  0  0  0  0  0  0
  -29.9090  -15.6990   21.9210 C   0  0  0  0  0  2  0  0  0  0  0  0
  -30.7700  -17.0900   20.5890 C   0  0  0  0  0  3  0  0  0  0  0  0
  -30.2910  -15.6650   20.5000 N   0  0  0  0  0  0  0  0  0  0  0  0
  -25.4990  -13.9170   20.2840 C   0  0  0  0  0  0  0  0  0  0  0  0
  -24.4490  -13.1530   20.7170 C   0  0  0  0  0  0  0  0  0  0  0  0
  -24.8870  -11.7960   20.6330 C   0  0  0  0  0  0  0  0  0  0  0  0
  -26.5100  -13.0240   19.9620 N   0  0  0  0  0  0  0  0  0  0  0  0
  -26.1500  -11.7430   20.2320 N   0  0  0  0  0  0  0  0  0  0  0  0
  -24.1570  -10.5410   20.8550 C   0  0  0  0  0  0  0  0  0  0  0  0
  -24.5910   -9.5940   21.8090 C   0  0  0  0  0  3  0  0  0  0  0  0
  -23.8630   -8.4020   22.0160 C   0  0  0  0  0  3  0  0  0  0  0  0
  -22.6880   -8.1490   21.2680 C   0  0  0  0  0  0  0  0  0  0  0  0
  -22.2750   -9.0840   20.3020 C   0  0  0  0  0  3  0  0  0  0  0  0
  -23.0040  -10.2670   20.0940 C   0  0  0  0  0  3  0  0  0  0  0  0
  -21.9310   -7.0090   21.3830 O   0  0  0  0  0  0  0  0  0  0  0  0
  -21.8170   -6.3370   22.5730 C   0  0  0  0  0  0  0  0  0  0  0  0
  -21.3140   -6.9630   23.7360 C   0  0  0  0  0  3  0  0  0  0  0  0
  -21.1460   -6.2160   24.9200 C   0  0  0  0  0  3  0  0  0  0  0  0
  -21.4730   -4.8480   24.9430 C   0  0  0  0  0  0  0  0  0  0  0  0
  -21.9710   -4.2220   23.7850 C   0  0  0  0  0  3  0  0  0  0  0  0
  -22.1400   -4.9650   22.6040 C   0  0  0  0  0  0  0  0  0  0  0  0
  -22.5980   -4.3540   21.4850 F   0  0  0  0  0  0  0  0  0  0  0  0
  -21.3070   -4.1290   26.0770 F   0  0  0  0  0  0  0  0  0  0  0  0
  -23.0800  -13.6450   21.0940 C   0  0  0  0  0  0  0  0  0  0  0  0
  -22.4080  -12.9510   22.0050 N   0  0  0  0  0  0  0  0  0  0  0  0
  -22.6190  -14.6810   20.6150 O   0  0  0  0  0  0  0  0  0  0  0  0
  -22.7930  -12.1130   22.4130 H   0  0  0  0  0  0  0  0  0  0  0  0
  -21.4930  -13.2640   22.2970 H   0  0  0  0  0  0  0  0  0  0  0  0
  -25.6740  -15.2890   20.1150 N   0  0  0  0  0  0  0  0  0  0  0  0
  -24.9340  -15.9580   20.2970 H   0  0  0  0  0  0  0  0  0  0  0  0
  -26.5090  -15.7150   19.7340 H   0  0  0  0  0  0  0  0  0  0  0  0
  -28.1450  -24.0630   20.4160 C   0  0  0  0  0  2  0  0  0  0  0  0
  -28.4800  -25.4960   20.9950 C   0  0  0  0  0  2  0  0  0  0  0  0
  -28.3810  -26.6490   20.1210 O   0  0  0  0  0  0  0  0  0  0  0  0
  -24.5540  -31.8760   23.2310 C   0  0  0  0  0  0  0  0  0  0  0  0
  -27.2220  -27.4020   20.1800 C   0  0  0  0  0  0  0  0  0  0  0  0
  -23.3650  -30.4720   21.5810 C   0  0  0  0  0  3  0  0  0  0  0  0
  -24.8310  -28.9300   20.1710 C   0  0  0  0  0  0  0  0  0  0  0  0
  -25.8940  -30.8250   21.4060 C   0  0  0  0  0  2  0  0  0  0  0  0
  -25.9870  -29.4500   20.7680 C   0  0  0  0  0  0  0  0  0  0  0  0
  -27.1880  -28.6950   20.7650 C   0  0  0  0  0  3  0  0  0  0  0  0
  -26.0490  -26.9030   19.5800 C   0  0  0  0  0  3  0  0  0  0  0  0
  -24.8580  -27.6560   19.5740 C   0  0  0  0  0  3  0  0  0  0  0  0
  -23.5880  -29.7910   20.2050 C   0  0  0  0  0  2  0  0  0  0  0  0
  -24.6220  -31.0740   22.1310 N   0  0  0  0  0  0  0  0  0  0  0  0
  -23.4680  -32.1480   23.7620 O   0  0  0  0  0  0  0  0  0  0  0  0
  -22.7040  -29.4520   22.5360 C   0  0  0  0  0  0  0  0  0  0  0  0
  -21.3790  -29.2750   22.4040 N   0  0  0  0  0  0  0  0  0  0  0  0
  -23.3820  -28.8200   23.3510 O   0  0  0  0  0  0  0  0  0  0  0  0
  -20.8920  -29.8360   21.7190 H   0  0  0  0  0  0  0  0  0  0  0  0
  -17.9930  -28.1170   22.9140 C   0  0  0  0  0  0  0  0  0  0  0  0
  -20.5560  -28.3370   23.1680 C   0  0  0  0  0  3  0  0  0  0  0  0
  -20.6360  -26.9140   22.5700 C   0  0  0  0  0  2  0  0  0  0  0  0
  -19.5210  -26.6210   21.5600 C   0  0  0  0  0  2  0  0  0  0  0  0
  -18.1460  -26.7760   22.2170 C   0  0  0  0  0  2  0  0  0  0  0  0
  -19.1250  -28.8580   23.3450 C   0  0  0  0  0  0  0  0  0  0  0  0
  -18.9280  -30.1160   23.9560 C   0  0  0  0  0  3  0  0  0  0  0  0
  -17.6310  -30.6310   24.1400 C   0  0  0  0  0  3  0  0  0  0  0  0
  -16.5140  -29.8870   23.7240 C   0  0  0  0  0  3  0  0  0  0  0  0
  -16.6960  -28.6310   23.1170 C   0  0  0  0  0  3  0  0  0  0  0  0
  -25.8330  -32.5090   23.8630 C   0  0  0  0  0  3  0  0  0  0  0  0
  -26.3330  -31.7480   25.1520 C   0  0  1  0  0  0  0  0  0  0  0  0
  -25.2250  -31.5200   26.2060 C   0  0  0  0  0  1  0  0  0  0  0  0
  -26.9210  -30.3680   24.7780 C   0  0  0  0  0  1  0  0  0  0  0  0
  -27.4750  -32.5490   25.8230 C   0  0  0  0  0  1  0  0  0  0  0  0
  -25.5260  -33.9120   24.1750 N   0  0  0  0  0  0  0  0  0  0  0  0
  -25.8860  -34.9550   23.4150 C   0  0  0  0  0  0  0  0  0  0  0  0
  -26.5820  -34.8390   22.4030 O   0  0  0  0  0  0  0  0  0  0  0  0
  -24.9110  -34.0770   24.9580 H   0  0  0  0  0  0  0  0  0  0  0  0
  -24.1900  -36.7640   22.9910 C   0  0  0  0  0  1  0  0  0  0  0  0
  -25.3970  -36.3500   23.8500 C   0  0  0  0  0  3  0  0  0  0  0  0
  -27.5060  -37.2170   24.7590 C   0  0  0  0  0  1  0  0  0  0  0  0
  -26.4440  -37.3920   23.7720 N   0  0  0  0  0  0  0  0  0  0  0  0
  -26.0420  -38.3160   23.9000 H   0  0  0  0  0  0  0  0  0  0  0  0
  1  2  1  0
  3  4  1  0
  3  5  1  0
  4  6  1  0
  4  1  1  0
  5 50  1  0
  5  2  1  0
  6  8  1  0
  6  7  1  0
  9  6  1  0
 10 21  1  0
 11 16  1  0
 12 13  1  0
 12 11  1  0
 14 13  1  0
 14 25  1  0
 14 15  1  0
 16 10  1  0
 16 15  1  0
 17 10  2  0
 19 18  1  0
 20  9  1  0
 20 18  1  0
 21 20  1  0
 21 19  1  0
 22 23  2  0
 23 42  1  0
 24 23  1  0
 24 27  1  0
 25 26  1  0
 25 22  1  0
 26 24  2  0
 27 28  1  0
 28 29  2  0
 30 33  1  0
 30 29  1  0
 31 30  2  0
 32 31  1  0
 32 27  2  0
 33 34  1  0
 34 39  2  0
 34 35  1  0
 35 36  2  0
 36 37  1  0
 37 41  1  0
 38 37  2  0
 39 38  1  0
 40 39  1  0
 42 43  1  0
 43 46  1  0
 43 45  1  0
 44 42  2  0
 47 22  1  0
 47 48  1  0
 49 47  1  0
 50 51  1  0
 52 54  1  0
 52 51  1  0
 53 64  2  0
 54 59  1  0
 55 63  1  0
 55 65  1  0
 56 62  1  0
 56 58  1  0
 57 63  1  0
 58 57  1  0
 59 58  2  0
 60 54  2  0
 61 60  1  0
 61 56  2  0
 62 55  1  0
 63 53  1  0
 65 67  2  0
 66 65  1  0
 68 66  1  0
 69 78  2  0
 69 74  1  0
 70 66  1  0
 70 74  1  0
 71 70  1  0
 72 73  1  0
 72 71  1  0
 73 69  1  0
 74 75  2  0
 75 76  1  0
 77 76  2  0
 78 77  1  0
 79 53  1  0
 79 84  1  0
 79 80  1  0
 80 83  1  1
 80 81  1  0
 82 80  1  0
 84 87  1  0
 85 89  1  0
 85 84  1  0
 86 85  2  0
 89 88  1  0
 91 89  1  0
 91 92  1  0
 91 90  1  0
M  ISO  4  10 100  21 100  51 101  52 101
M  END
>  <TORSDO>  (40) 
F 20

>  <SCORE>  (40) 
-13.292

>  <name>  (40) 
39

>  <ligand_id>  (40) 
39

>  <original_smiles>  (40) 
[H]c1c([H])c([H])c2c(c1[H])C([H])([H])C([H])([H])C([H])([H])C2([H])N([H])C(=O)C1([H])N(C(=O)C([H])(N([H])C(=O)C([H])(N([H])C([H])([H])[H])C([H])([H])[H])C(C([H])([H])[H])(C([H])([H])[H])C([H])([H])[H])C([H])([H])c2c([H])c(OC([H])([H])C([H])([H])N3C([H])([H])C([H])([H])C([H])([N+]([H])([H])C([H])([H])C4([H])N(C(=O)N5C([H])([H])C([H])([H])C([H])([H])C([H])(n6nc(-c7c([H])c([H])c(Oc8c([H])c([H])c(F)c([H])c8F)c([H])c7[H])c(C(=O)N([H])[H])c6N([H])[H])C5([H])[H])C([H])([H])C4([H])[H])C3([H])[H])c([H])c([H])c2C1([H])[H]

>  <smiles>  (40) 
[H]c1c([H])c([H])c2c(c1[H])C([H])([H])C([H])([H])C([H])([H])C2([H])N([H])C(=O)C1([H])N(C(=O)C([H])(N([H])C(=O)C([H])(N([H])C([H])([H])[H])C([H])([H])[H])C(C([H])([H])[H])(C([H])([H])[H])C([H])([H])[H])C([H])([H])c2c([H])c(OC([H])([H])C([H])([H])N3C([H])([H])C([H])([H])C([H])([N+]([H])([H])C([H])([H])C4([H])N(C(=O)N5C([H])([H])C([H])([H])C([H])([H])C([H])(n6nc(-c7c([H])c([H])c(Oc8c([H])c([H])c(F)c([H])c8F)c([H])c7[H])c(C(=O)N([H])[H])c6N([H])[H])C5([H])[H])C([H])([H])C4([H])[H])C3([H])[H])c([H])c([H])c2C1([H])[H]

$$$$
40:0:0
     RDKit          3D

 92100  0  0  1  0  0  0  0  0999 V2000
  -30.5350  -22.3970   20.3320 C   0  0  0  0  0  3  0  0  0  0  0  0
  -27.9340  -22.5060   19.6930 C   0  0  0  0  0  0  0  0  0  0  0  0
  -28.6790  -23.7350   19.8290 C   0  0  0  0  0  0  0  0  0  0  0  0
  -29.7930  -21.1800   20.1870 C   0  0  0  0  0  0  0  0  0  0  0  0
  -30.0000  -23.6520   20.1580 N   0  0  0  0  0  0  0  0  0  0  0  0
  -28.4780  -21.2670   19.9020 N   0  0  0  0  0  0  0  0  0  0  0  0
  -26.0850  -21.4470   18.2340 C   0  0  0  0  0  1  0  0  0  0  0  0
  -26.4450  -22.4630   19.3320 C   0  0  0  0  0  2  0  0  0  0  0  0
  -30.3860  -19.8840   20.3170 N   0  0  0  0  0  0  0  0  0  0  0  0
  -31.4020  -19.8650   20.3560 H   0  0  0  0  0  0  0  0  0  0  0  0
  -29.6910  -18.5600   20.2530 C   0  0  0  0  0  2  0  0  0  0  0  0
  -30.6650  -17.3000   20.2950 C   0  0  0  0  0  2  0  0  0  0  0  0
  -30.7770  -14.7590   20.1140 C   0  0  0  0  0  0  0  0  0  0  0  0
  -30.4730  -12.5010   19.1260 C   0  0  0  0  0  2  0  0  0  0  0  0
  -29.4980  -12.5820   17.9330 C   0  0  0  0  0  2  0  0  0  0  0  0
  -28.0440  -12.4270   18.4160 C   0  0  0  0  0  2  0  0  0  0  0  0
  -27.7170  -13.3400   19.6280 C   0  0  0  0  0  3  0  0  0  0  0  0
  -28.8120  -13.2620   20.7160 C   0  0  0  0  0  2  0  0  0  0  0  0
  -30.0980  -13.5680   20.0760 N   0  0  0  0  0  0  0  0  0  0  0  0
  -31.9380  -14.8350   19.7080 O   0  0  0  0  0  0  0  0  0  0  0  0
  -30.0940  -15.9100   20.4110 N   0  0  0  0  0  0  0  0  0  0  0  0
  -29.1260  -15.8190   20.6830 H   0  0  0  0  0  0  0  0  0  0  0  0
  -25.3610  -13.9470   20.4510 C   0  0  0  0  0  0  0  0  0  0  0  0
  -24.3000  -13.1770   20.8470 C   0  0  0  0  0  0  0  0  0  0  0  0
  -24.7480  -11.8210   20.7760 C   0  0  0  0  0  0  0  0  0  0  0  0
  -26.3880  -13.0610   20.1640 N   0  0  0  0  0  0  0  0  0  0  0  0
  -26.0260  -11.7780   20.4210 N   0  0  0  0  0  0  0  0  0  0  0  0
  -24.0140  -10.5640   20.9700 C   0  0  0  0  0  0  0  0  0  0  0  0
  -24.4460   -9.5930   21.9020 C   0  0  0  0  0  3  0  0  0  0  0  0
  -23.7130   -8.4010   22.0840 C   0  0  0  0  0  3  0  0  0  0  0  0
  -22.5340   -8.1710   21.3360 C   0  0  0  0  0  0  0  0  0  0  0  0
  -22.1210   -9.1290   20.3940 C   0  0  0  0  0  3  0  0  0  0  0  0
  -22.8550  -10.3130   20.2090 C   0  0  0  0  0  3  0  0  0  0  0  0
  -21.7720   -7.0310   21.4290 O   0  0  0  0  0  0  0  0  0  0  0  0
  -21.7040   -6.3020   22.5890 C   0  0  0  0  0  0  0  0  0  0  0  0
  -21.2500   -6.8720   23.8000 C   0  0  0  0  0  3  0  0  0  0  0  0
  -21.1300   -6.0700   24.9530 C   0  0  0  0  0  3  0  0  0  0  0  0
  -21.4520   -4.7020   24.8960 C   0  0  0  0  0  0  0  0  0  0  0  0
  -21.9000   -4.1320   23.6910 C   0  0  0  0  0  3  0  0  0  0  0  0
  -22.0220   -4.9300   22.5400 C   0  0  0  0  0  0  0  0  0  0  0  0
  -22.4320   -4.3720   21.3760 F   0  0  0  0  0  0  0  0  0  0  0  0
  -21.3300   -3.9290   26.0010 F   0  0  0  0  0  0  0  0  0  0  0  0
  -22.9190  -13.6650   21.1780 C   0  0  0  0  0  0  0  0  0  0  0  0
  -22.2180  -12.9610   22.0590 N   0  0  0  0  0  0  0  0  0  0  0  0
  -22.4730  -14.7020   20.6900 O   0  0  0  0  0  0  0  0  0  0  0  0
  -22.5930  -12.1210   22.4750 H   0  0  0  0  0  0  0  0  0  0  0  0
  -21.2920  -13.2680   22.3250 H   0  0  0  0  0  0  0  0  0  0  0  0
  -25.5330  -15.3180   20.2870 N   0  0  0  0  0  0  0  0  0  0  0  0
  -24.7770  -15.9790   20.4340 H   0  0  0  0  0  0  0  0  0  0  0  0
  -26.3680  -15.7500   19.9110 H   0  0  0  0  0  0  0  0  0  0  0  0
  -28.0220  -25.1060   19.3960 C   0  0  0  0  0  2  0  0  0  0  0  0
  -28.4240  -26.5010   19.7450 O   0  0  0  0  0  0  0  0  0  0  0  0
  -24.5540  -31.6480   23.0700 C   0  0  0  0  0  0  0  0  0  0  0  0
  -27.3350  -27.4080   19.7010 C   0  0  0  0  0  0  0  0  0  0  0  0
  -23.4160  -30.3470   21.3140 C   0  0  0  0  0  3  0  0  0  0  0  0
  -24.9320  -28.9790   19.7870 C   0  0  0  0  0  0  0  0  0  0  0  0
  -25.9530  -30.7490   21.1970 C   0  0  0  0  0  2  0  0  0  0  0  0
  -26.0840  -29.4330   20.4410 C   0  0  0  0  0  0  0  0  0  0  0  0
  -27.2890  -28.6600   20.3970 C   0  0  0  0  0  3  0  0  0  0  0  0
  -26.1560  -27.0500   18.9920 C   0  0  0  0  0  3  0  0  0  0  0  0
  -24.9720  -27.7920   19.0530 C   0  0  0  0  0  3  0  0  0  0  0  0
  -23.6670  -29.8020   19.8880 C   0  0  0  0  0  2  0  0  0  0  0  0
  -24.6590  -30.9280   21.9160 N   0  0  0  0  0  0  0  0  0  0  0  0
  -23.4550  -31.8490   23.6070 O   0  0  0  0  0  0  0  0  0  0  0  0
  -22.7780  -29.2320   22.1770 C   0  0  0  0  0  0  0  0  0  0  0  0
  -21.4510  -29.0540   22.0540 N   0  0  0  0  0  0  0  0  0  0  0  0
  -23.4740  -28.5370   22.9220 O   0  0  0  0  0  0  0  0  0  0  0  0
  -20.9470  -29.6700   21.4310 H   0  0  0  0  0  0  0  0  0  0  0  0
  -18.0790  -27.8450   22.5650 C   0  0  0  0  0  0  0  0  0  0  0  0
  -20.6500  -28.0420   22.7470 C   0  0  0  0  0  3  0  0  0  0  0  0
  -20.7030  -26.6860   22.0060 C   0  0  0  0  0  2  0  0  0  0  0  0
  -19.5520  -26.4950   21.0130 C   0  0  0  0  0  2  0  0  0  0  0  0
  -18.2020  -26.5820   21.7310 C   0  0  0  0  0  2  0  0  0  0  0  0
  -19.2280  -28.5400   23.0290 C   0  0  0  0  0  0  0  0  0  0  0  0
  -19.0560  -29.7270   23.7730 C   0  0  0  0  0  3  0  0  0  0  0  0
  -17.7690  -30.2200   24.0560 C   0  0  0  0  0  3  0  0  0  0  0  0
  -16.6340  -29.5220   23.6060 C   0  0  0  0  0  3  0  0  0  0  0  0
  -16.7910  -28.3360   22.8670 C   0  0  0  0  0  3  0  0  0  0  0  0
  -25.8070  -32.2730   23.7550 C   0  0  0  0  0  3  0  0  0  0  0  0
  -25.4720  -33.6570   24.1160 N   0  0  0  0  0  0  0  0  0  0  0  0
  -25.7930  -34.7340   23.3850 C   0  0  0  0  0  0  0  0  0  0  0  0
  -26.4710  -34.6660   22.3570 O   0  0  0  0  0  0  0  0  0  0  0  0
  -24.8720  -33.7820   24.9170 H   0  0  0  0  0  0  0  0  0  0  0  0
  -24.0240  -36.4940   23.0760 C   0  0  0  0  0  1  0  0  0  0  0  0
  -25.2780  -36.1030   23.8720 C   0  0  0  0  0  3  0  0  0  0  0  0
  -27.3960  -37.0180   24.7090 C   0  0  0  0  0  1  0  0  0  0  0  0
  -26.2880  -37.1790   23.7720 N   0  0  0  0  0  0  0  0  0  0  0  0
  -25.8630  -38.0870   23.9370 H   0  0  0  0  0  0  0  0  0  0  0  0
  -26.2850  -31.4670   25.0250 C   0  0  1  0  0  0  0  0  0  0  0  0
  -25.1560  -31.1900   26.0460 C   0  0  0  0  0  1  0  0  0  0  0  0
  -26.8930  -30.1050   24.6150 C   0  0  0  0  0  1  0  0  0  0  0  0
  -27.4060  -32.2490   25.7470 C   0  0  0  0  0  1  0  0  0  0  0  0
  2  3  2  0
  2  6  1  0
  3  5  1  0
  4  9  1  0
  4  1  1  0
  5  1  2  0
  6  4  2  0
  7  8  1  0
  8  2  1  0
  9 10  1  0
 11 12  1  0
 11  9  1  0
 12 21  1  0
 13 21  1  0
 14 19  1  0
 15 16  1  0
 15 14  1  0
 17 16  1  0
 17 26  1  0
 17 18  1  0
 19 13  1  0
 19 18  1  0
 20 13  2  0
 21 22  1  0
 23 24  2  0
 24 43  1  0
 25 24  1  0
 25 28  1  0
 26 27  1  0
 26 23  1  0
 27 25  2  0
 28 29  1  0
 29 30  2  0
 31 34  1  0
 31 30  1  0
 32 31  2  0
 33 32  1  0
 33 28  2  0
 34 35  1  0
 35 36  1  0
 36 37  2  0
 38 37  1  0
 38 42  1  0
 39 38  2  0
 40 35  2  0
 40 39  1  0
 41 40  1  0
 43 44  1  0
 44 47  1  0
 44 46  1  0
 45 43  2  0
 48 49  1  0
 48 23  1  0
 50 48  1  0
 51 52  1  0
 51  3  1  0
 53 64  2  0
 54 52  1  0
 54 59  1  0
 55 63  1  0
 55 65  1  0
 56 62  1  0
 56 58  1  0
 57 63  1  0
 58 57  1  0
 59 58  2  0
 60 61  1  0
 60 54  2  0
 61 56  2  0
 62 55  1  0
 63 53  1  0
 65 67  2  0
 66 65  1  0
 68 66  1  0
 69 78  2  0
 69 74  1  0
 70 66  1  0
 70 74  1  0
 71 70  1  0
 72 73  1  0
 72 71  1  0
 73 69  1  0
 74 75  2  0
 75 76  1  0
 77 76  2  0
 78 77  1  0
 79 53  1  0
 79 80  1  0
 79 89  1  0
 80 83  1  0
 81 85  1  0
 81 80  1  0
 82 81  2  0
 85 84  1  0
 87 85  1  0
 87 88  1  0
 87 86  1  0
 89 92  1  1
 89 90  1  0
 91 89  1  0
M  ISO  4  13 100  21 100  51 101  52 101
M  END
>  <TORSDO>  (41) 
F 21

>  <SCORE>  (41) 
-13.166

>  <name>  (41) 
40

>  <ligand_id>  (41) 
40

>  <original_smiles>  (41) 
[H]c1nc(C([H])([H])Oc2c([H])c([H])c3c(c2[H])C([H])([H])N(C(=O)C([H])(N([H])C(=O)C([H])(N([H])C([H])([H])[H])C([H])([H])[H])C(C([H])([H])[H])(C([H])([H])[H])C([H])([H])[H])C([H])(C(=O)N([H])C2([H])c4c([H])c([H])c([H])c([H])c4C([H])([H])C([H])([H])C2([H])[H])C3([H])[H])c(C([H])([H])C([H])([H])[H])nc1N([H])C([H])([H])C([H])([H])N([H])C(=O)N1C([H])([H])C([H])([H])C([H])([H])C([H])(n2nc(-c3c([H])c([H])c(Oc4c([H])c([H])c(F)c([H])c4F)c([H])c3[H])c(C(=O)N([H])[H])c2N([H])[H])C1([H])[H]

>  <smiles>  (41) 
[H]c1nc(C([H])([H])Oc2c([H])c([H])c3c(c2[H])C([H])([H])N(C(=O)C([H])(N([H])C(=O)C([H])(N([H])C([H])([H])[H])C([H])([H])[H])C(C([H])([H])[H])(C([H])([H])[H])C([H])([H])[H])C([H])(C(=O)N([H])C2([H])c4c([H])c([H])c([H])c([H])c4C([H])([H])C([H])([H])C2([H])[H])C3([H])[H])c(C([H])([H])C([H])([H])[H])nc1N([H])C([H])([H])C([H])([H])N([H])C(=O)N1C([H])([H])C([H])([H])C([H])([H])C([H])(n2nc(-c3c([H])c([H])c(Oc4c([H])c([H])c(F)c([H])c4F)c([H])c3[H])c(C(=O)N([H])[H])c2N([H])[H])C1([H])[H]

$$$$
41:0:0
     RDKit          3D

 88 96  0  0  1  0  0  0  0  0999 V2000
  -28.7410  -21.8950   20.3910 N   0  0  0  0  0  4  0  0  0  0  0  0
  -29.1510  -21.9370   21.3100 H   0  0  0  0  0  0  0  0  0  0  0  0
  -27.7630  -21.7040   20.5320 H   0  0  0  0  0  0  0  0  0  0  0  0
  -29.3540  -20.5900   19.7110 C   0  0  0  0  0  2  0  0  0  0  0  0
  -30.5070  -15.0720   20.1260 C   0  0  0  0  0  0  0  0  0  0  0  0
  -30.3550  -12.7400   19.1400 C   0  0  0  0  0  2  0  0  0  0  0  0
  -29.3850  -12.6880   17.9380 C   0  0  0  0  0  2  0  0  0  0  0  0
  -27.9360  -12.4470   18.3990 C   0  0  0  0  0  2  0  0  0  0  0  0
  -27.5580  -13.3310   19.6090 C   0  0  0  0  0  3  0  0  0  0  0  0
  -28.6480  -13.3560   20.7080 C   0  0  0  0  0  2  0  0  0  0  0  0
  -29.8790  -13.8200   20.0580 N   0  0  0  0  0  0  0  0  0  0  0  0
  -31.7100  -15.0690   19.8360 O   0  0  0  0  0  0  0  0  0  0  0  0
  -28.0600  -18.1770   20.3180 C   0  0  0  0  0  2  0  0  0  0  0  0
  -28.4390  -16.6740   20.6430 C   0  0  0  0  0  2  0  0  0  0  0  0
  -30.3410  -17.7880   19.9650 C   0  0  0  0  0  2  0  0  0  0  0  0
  -29.3410  -19.0300   20.3990 C   0  0  0  0  0  3  0  0  0  0  0  0
  -29.8230  -16.3490   20.2330 N   0  0  0  0  0  0  0  0  0  0  0  0
  -25.1960  -13.9020   20.4180 C   0  0  0  0  0  0  0  0  0  0  0  0
  -24.1500  -13.1220   20.8250 C   0  0  0  0  0  0  0  0  0  0  0  0
  -24.6240  -11.7780   20.7770 C   0  0  0  0  0  0  0  0  0  0  0  0
  -26.2370  -13.0310   20.1470 N   0  0  0  0  0  0  0  0  0  0  0  0
  -25.9060  -11.7460   20.4310 N   0  0  0  0  0  0  0  0  0  0  0  0
  -23.9080  -10.5150   20.9720 C   0  0  0  0  0  0  0  0  0  0  0  0
  -24.3670   -9.5460   21.8930 C   0  0  0  0  0  3  0  0  0  0  0  0
  -23.6490   -8.3460   22.0810 C   0  0  0  0  0  3  0  0  0  0  0  0
  -22.4600   -8.1070   21.3480 C   0  0  0  0  0  0  0  0  0  0  0  0
  -22.0260   -9.0630   20.4140 C   0  0  0  0  0  3  0  0  0  0  0  0
  -22.7460  -10.2530   20.2220 C   0  0  0  0  0  3  0  0  0  0  0  0
  -21.7010   -6.9660   21.4580 O   0  0  0  0  0  0  0  0  0  0  0  0
  -21.6670   -6.2310   22.6150 C   0  0  0  0  0  0  0  0  0  0  0  0
  -21.2550   -6.7910   23.8450 C   0  0  0  0  0  3  0  0  0  0  0  0
  -21.1660   -5.9780   24.9940 C   0  0  0  0  0  3  0  0  0  0  0  0
  -21.4790   -4.6080   24.9140 C   0  0  0  0  0  0  0  0  0  0  0  0
  -21.8850   -4.0490   23.6890 C   0  0  0  0  0  3  0  0  0  0  0  0
  -21.9770   -4.8580   22.5440 C   0  0  0  0  0  0  0  0  0  0  0  0
  -22.3480   -4.3070   21.3620 F   0  0  0  0  0  0  0  0  0  0  0  0
  -21.3860   -3.8290   26.0140 F   0  0  0  0  0  0  0  0  0  0  0  0
  -22.7610  -13.5960   21.1350 C   0  0  0  0  0  0  0  0  0  0  0  0
  -22.0610  -12.9020   22.0240 N   0  0  0  0  0  0  0  0  0  0  0  0
  -22.3120  -14.6210   20.6250 O   0  0  0  0  0  0  0  0  0  0  0  0
  -22.4430  -12.0780   22.4640 H   0  0  0  0  0  0  0  0  0  0  0  0
  -21.1270  -13.1980   22.2700 H   0  0  0  0  0  0  0  0  0  0  0  0
  -25.3160  -15.2720   20.2370 N   0  0  0  0  0  0  0  0  0  0  0  0
  -24.5400  -15.9080   20.3900 H   0  0  0  0  0  0  0  0  0  0  0  0
  -26.1270  -15.7320   19.8510 H   0  0  0  0  0  0  0  0  0  0  0  0
  -28.8290  -23.3810   19.7970 C   0  0  0  0  0  3  0  0  0  0  0  0
  -28.1260  -24.7280   20.5470 C   0  0  0  0  0  3  0  0  0  0  0  0
  -28.3270  -26.2450   20.2260 O   0  0  0  0  0  0  0  0  0  0  0  0
  -24.6120  -31.8910   23.2280 C   0  0  0  0  0  0  0  0  0  0  0  0
  -27.2470  -27.1980   20.2260 C   0  0  0  0  0  0  0  0  0  0  0  0
  -23.4300  -30.4850   21.5830 C   0  0  0  0  0  3  0  0  0  0  0  0
  -24.8940  -28.9050   20.1870 C   0  0  0  0  0  0  0  0  0  0  0  0
  -25.9840  -30.7660   21.4370 C   0  0  0  0  0  2  0  0  0  0  0  0
  -26.0710  -29.3730   20.7870 C   0  0  0  0  0  0  0  0  0  0  0  0
  -27.2500  -28.5400   20.7830 C   0  0  0  0  0  3  0  0  0  0  0  0
  -26.0410  -26.8220   19.6000 C   0  0  0  0  0  3  0  0  0  0  0  0
  -24.8890  -27.6370   19.5840 C   0  0  0  0  0  3  0  0  0  0  0  0
  -23.6660  -29.7990   20.2110 C   0  0  0  0  0  2  0  0  0  0  0  0
  -24.6950  -31.0680   22.1370 N   0  0  0  0  0  0  0  0  0  0  0  0
  -23.5230  -32.1720   23.7490 O   0  0  0  0  0  0  0  0  0  0  0  0
  -22.7480  -29.4790   22.5420 C   0  0  0  0  0  0  0  0  0  0  0  0
  -21.4220  -29.3050   22.4070 N   0  0  0  0  0  0  0  0  0  0  0  0
  -23.4120  -28.8590   23.3740 O   0  0  0  0  0  0  0  0  0  0  0  0
  -20.9370  -29.8600   21.7150 H   0  0  0  0  0  0  0  0  0  0  0  0
  -18.0450  -28.0830   22.8740 C   0  0  0  0  0  0  0  0  0  0  0  0
  -20.5980  -28.3670   23.1730 C   0  0  0  0  0  3  0  0  0  0  0  0
  -20.7160  -26.9310   22.6120 C   0  0  0  0  0  2  0  0  0  0  0  0
  -19.6300  -26.5900   21.5860 C   0  0  0  0  0  2  0  0  0  0  0  0
  -18.2380  -26.7300   22.2100 C   0  0  0  0  0  2  0  0  0  0  0  0
  -19.1520  -28.8570   23.3120 C   0  0  0  0  0  0  0  0  0  0  0  0
  -18.9150  -30.1200   23.8970 C   0  0  0  0  0  3  0  0  0  0  0  0
  -17.6050  -30.6130   24.0450 C   0  0  0  0  0  3  0  0  0  0  0  0
  -16.5110  -29.8380   23.6270 C   0  0  0  0  0  3  0  0  0  0  0  0
  -16.7330  -28.5760   23.0470 C   0  0  0  0  0  3  0  0  0  0  0  0
  -25.8840  -32.5320   23.8650 C   0  0  0  0  0  3  0  0  0  0  0  0
  -26.3840  -31.7750   25.1580 C   0  0  1  0  0  0  0  0  0  0  0  0
  -25.2780  -31.5590   26.2160 C   0  0  0  0  0  1  0  0  0  0  0  0
  -26.9710  -30.3920   24.7960 C   0  0  0  0  0  1  0  0  0  0  0  0
  -27.5220  -32.5810   25.8270 C   0  0  0  0  0  1  0  0  0  0  0  0
  -25.5690  -33.9330   24.1820 N   0  0  0  0  0  0  0  0  0  0  0  0
  -25.9050  -34.9870   23.4240 C   0  0  0  0  0  0  0  0  0  0  0  0
  -26.5810  -34.8830   22.3990 O   0  0  0  0  0  0  0  0  0  0  0  0
  -24.9780  -34.0890   24.9850 H   0  0  0  0  0  0  0  0  0  0  0  0
  -24.1780  -36.7770   23.0540 C   0  0  0  0  0  1  0  0  0  0  0  0
  -25.4130  -36.3770   23.8750 C   0  0  0  0  0  3  0  0  0  0  0  0
  -27.5420  -37.2650   24.7160 C   0  0  0  0  0  1  0  0  0  0  0  0
  -26.4470  -37.4290   23.7640 N   0  0  0  0  0  0  0  0  0  0  0  0
  -26.0380  -38.3490   23.9110 H   0  0  0  0  0  0  0  0  0  0  0  0
  1  3  1  0
  1  2  1  0
  4  1  1  0
  5 17  1  0
  6 11  1  0
  7  8  1  0
  7  6  1  0
  9  8  1  0
  9 21  1  0
  9 10  1  0
 11  5  1  0
 11 10  1  0
 12  5  2  0
 13 16  1  0
 13 14  1  0
 15 17  1  0
 15 16  1  0
 16  4  1  0
 17 14  1  0
 18 19  2  0
 19 38  1  0
 20 19  1  0
 20 23  1  0
 21 18  1  0
 21 22  1  0
 22 20  2  0
 23 24  1  0
 24 25  2  0
 26 29  1  0
 26 25  1  0
 27 26  2  0
 28 27  1  0
 28 23  2  0
 29 30  1  0
 30 31  1  0
 31 32  2  0
 33 32  1  0
 33 37  1  0
 34 33  2  0
 35 30  2  0
 35 34  1  0
 36 35  1  0
 38 39  1  0
 39 42  1  0
 39 41  1  0
 40 38  2  0
 43 44  1  0
 43 18  1  0
 45 43  1  0
 46  1  1  0
 46 47  2  0
 48 50  1  0
 48 47  1  0
 49 60  2  0
 50 55  1  0
 51 59  1  0
 51 61  1  0
 52 58  1  0
 52 54  1  0
 53 59  1  0
 54 53  1  0
 55 54  2  0
 56 50  2  0
 57 56  1  0
 57 52  2  0
 58 51  1  0
 59 49  1  0
 61 63  2  0
 62 61  1  0
 64 62  1  0
 65 74  2  0
 65 70  1  0
 66 62  1  0
 66 70  1  0
 67 66  1  0
 68 69  1  0
 68 67  1  0
 69 65  1  0
 70 71  2  0
 71 72  1  0
 73 72  2  0
 74 73  1  0
 75 49  1  0
 75 80  1  0
 75 76  1  0
 76 79  1  1
 76 77  1  0
 78 76  1  0
 80 83  1  0
 81 85  1  0
 81 80  1  0
 82 81  2  0
 85 84  1  0
 87 85  1  0
 87 88  1  0
 87 86  1  0
M  ISO  4   5 100  17 100  47 101  48 101
M  END
>  <TORSDO>  (42) 
F 19

>  <SCORE>  (42) 
-14.742

>  <name>  (42) 
41

>  <ligand_id>  (42) 
41

>  <original_smiles>  (42) 
[H]c1c([H])c([H])c2c(c1[H])C([H])([H])C([H])([H])C([H])([H])C2([H])N([H])C(=O)C1([H])N(C(=O)C([H])(N([H])C(=O)C([H])(N([H])C([H])([H])[H])C([H])([H])[H])C(C([H])([H])[H])(C([H])([H])[H])C([H])([H])[H])C([H])([H])c2c([H])c(OC([H])([H])C([H])([H])[N+]([H])([H])C([H])([H])C3([H])C([H])([H])N(C(=O)N4C([H])([H])C([H])([H])C([H])([H])C([H])(n5nc(-c6c([H])c([H])c(Oc7c([H])c([H])c(F)c([H])c7F)c([H])c6[H])c(C(=O)N([H])[H])c5N([H])[H])C4([H])[H])C([H])([H])C3([H])[H])c([H])c([H])c2C1([H])[H]

>  <smiles>  (42) 
[H]c1c([H])c([H])c2c(c1[H])C([H])([H])C([H])([H])C([H])([H])C2([H])N([H])C(=O)C1([H])N(C(=O)C([H])(N([H])C(=O)C([H])(N([H])C([H])([H])[H])C([H])([H])[H])C(C([H])([H])[H])(C([H])([H])[H])C([H])([H])[H])C([H])([H])c2c([H])c(OC([H])([H])C([H])([H])[N+]([H])([H])C([H])([H])C3([H])C([H])([H])N(C(=O)N4C([H])([H])C([H])([H])C([H])([H])C([H])(n5nc(-c6c([H])c([H])c(Oc7c([H])c([H])c(F)c([H])c7F)c([H])c6[H])c(C(=O)N([H])[H])c5N([H])[H])C4([H])[H])C([H])([H])C3([H])[H])c([H])c([H])c2C1([H])[H]

$$$$
42:0:0
     RDKit          3D

 95104  0  0  1  0  0  0  0  0999 V2000
  -30.1960  -23.2730   19.3250 C   0  0  0  0  0  3  0  0  0  0  0  0
  -28.1670  -22.9030   20.4320 C   0  0  0  0  0  3  0  0  0  0  0  0
  -28.9890  -23.8550   19.7750 C   0  0  0  0  0  0  0  0  0  0  0  0
  -29.6410  -21.1350   20.0750 C   0  0  0  0  0  0  0  0  0  0  0  0
  -29.3620  -18.5230   20.7030 C   0  0  0  0  0  2  0  0  0  0  0  0
  -31.2520  -19.2920   19.5010 C   0  0  0  0  0  2  0  0  0  0  0  0
  -30.4080  -17.3110   20.6650 C   0  0  0  0  0  3  0  0  0  0  0  0
  -31.2320  -17.7500   19.4360 C   0  0  0  0  0  3  0  0  0  0  0  0
  -30.5030  -21.9540   19.4790 N   0  0  0  0  0  0  0  0  0  0  0  0
  -28.4860  -21.5710   20.5750 N   0  0  0  0  0  0  0  0  0  0  0  0
  -29.9990  -19.7410   20.1040 N   0  0  0  0  0  0  0  0  0  0  0  0
  -30.6260  -14.6950   20.4480 C   0  0  0  0  0  0  0  0  0  0  0  0
  -30.3770  -12.4380   19.4300 C   0  0  0  0  0  2  0  0  0  0  0  0
  -29.4670  -12.5380   18.1860 C   0  0  0  0  0  2  0  0  0  0  0  0
  -27.9900  -12.3810   18.5950 C   0  0  0  0  0  2  0  0  0  0  0  0
  -27.6060  -13.2680   19.8100 C   0  0  0  0  0  3  0  0  0  0  0  0
  -28.6440  -13.1720   20.9480 C   0  0  0  0  0  2  0  0  0  0  0  0
  -29.9550  -13.4980   20.3740 N   0  0  0  0  0  0  0  0  0  0  0  0
  -31.8140  -14.7570   20.1240 O   0  0  0  0  0  0  0  0  0  0  0  0
  -29.9150  -15.8610   20.6610 N   0  0  0  0  0  0  0  0  0  0  0  0
  -28.9450  -15.7270   20.8990 H   0  0  0  0  0  0  0  0  0  0  0  0
  -25.2040  -13.8660   20.4750 C   0  0  0  0  0  0  0  0  0  0  0  0
  -24.1290  -13.0940   20.8330 C   0  0  0  0  0  0  0  0  0  0  0  0
  -24.5950  -11.7440   20.8300 C   0  0  0  0  0  0  0  0  0  0  0  0
  -26.2520  -12.9860   20.2730 N   0  0  0  0  0  0  0  0  0  0  0  0
  -25.8930  -11.7050   20.5500 N   0  0  0  0  0  0  0  0  0  0  0  0
  -23.8660  -10.4820   21.0200 C   0  0  0  0  0  0  0  0  0  0  0  0
  -24.2810   -9.5230   21.9710 C   0  0  0  0  0  3  0  0  0  0  0  0
  -23.5530   -8.3280   22.1480 C   0  0  0  0  0  3  0  0  0  0  0  0
  -22.3940   -8.0820   21.3730 C   0  0  0  0  0  0  0  0  0  0  0  0
  -21.9960   -9.0310   20.4130 C   0  0  0  0  0  3  0  0  0  0  0  0
  -22.7250  -10.2170   20.2330 C   0  0  0  0  0  3  0  0  0  0  0  0
  -21.6360   -6.9400   21.4590 O   0  0  0  0  0  0  0  0  0  0  0  0
  -21.5660   -6.2090   22.6160 C   0  0  0  0  0  0  0  0  0  0  0  0
  -21.1130   -6.7750   23.8290 C   0  0  0  0  0  3  0  0  0  0  0  0
  -20.9970   -5.9730   24.9810 C   0  0  0  0  0  3  0  0  0  0  0  0
  -21.3130   -4.6030   24.9190 C   0  0  0  0  0  0  0  0  0  0  0  0
  -21.7550   -4.0340   23.7120 C   0  0  0  0  0  3  0  0  0  0  0  0
  -21.8770   -4.8350   22.5630 C   0  0  0  0  0  0  0  0  0  0  0  0
  -22.2860   -4.2810   21.3950 F   0  0  0  0  0  0  0  0  0  0  0  0
  -21.1910   -3.8270   26.0220 F   0  0  0  0  0  0  0  0  0  0  0  0
  -22.7280  -13.5750   21.0710 C   0  0  0  0  0  0  0  0  0  0  0  0
  -21.9830  -12.8840   21.9260 N   0  0  0  0  0  0  0  0  0  0  0  0
  -22.3020  -14.5960   20.5320 O   0  0  0  0  0  0  0  0  0  0  0  0
  -22.3460  -12.0600   22.3810 H   0  0  0  0  0  0  0  0  0  0  0  0
  -21.0420  -13.1860   22.1300 H   0  0  0  0  0  0  0  0  0  0  0  0
  -25.3660  -15.2330   20.2770 N   0  0  0  0  0  0  0  0  0  0  0  0
  -24.5880  -15.8790   20.3420 H   0  0  0  0  0  0  0  0  0  0  0  0
  -26.2050  -15.6610   19.9060 H   0  0  0  0  0  0  0  0  0  0  0  0
  -32.5900  -17.1860   19.3900 N   0  0  0  0  0  4  0  0  0  0  0  0
  -33.1490  -17.5250   20.1510 H   0  0  0  0  0  0  0  0  0  0  0  0
  -33.0490  -17.3990   18.5240 H   0  0  0  0  0  0  0  0  0  0  0  0
  -32.5030  -16.1760   19.4940 H   0  0  0  0  0  0  0  0  0  0  0  0
  -28.5380  -25.3000   19.2920 C   0  0  0  0  0  2  0  0  0  0  0  0
  -28.3560  -26.4570   20.2110 O   0  0  0  0  0  0  0  0  0  0  0  0
  -24.6120  -31.8740   23.2380 C   0  0  0  0  0  0  0  0  0  0  0  0
  -27.2270  -27.3050   20.1440 C   0  0  0  0  0  0  0  0  0  0  0  0
  -23.4020  -30.4740   21.5990 C   0  0  0  0  0  3  0  0  0  0  0  0
  -24.8520  -28.9260   20.1650 C   0  0  0  0  0  0  0  0  0  0  0  0
  -25.9460  -30.7850   21.4160 C   0  0  0  0  0  2  0  0  0  0  0  0
  -26.0250  -29.4090   20.7610 C   0  0  0  0  0  0  0  0  0  0  0  0
  -27.2090  -28.6070   20.7450 C   0  0  0  0  0  3  0  0  0  0  0  0
  -26.0150  -26.8700   19.5550 C   0  0  0  0  0  3  0  0  0  0  0  0
  -24.8520  -27.6620   19.5590 C   0  0  0  0  0  3  0  0  0  0  0  0
  -23.6150  -29.8010   20.2180 C   0  0  0  0  0  2  0  0  0  0  0  0
  -24.6730  -31.0600   22.1420 N   0  0  0  0  0  0  0  0  0  0  0  0
  -23.5290  -32.1470   23.7780 O   0  0  0  0  0  0  0  0  0  0  0  0
  -22.7390  -29.4580   22.5590 C   0  0  0  0  0  0  0  0  0  0  0  0
  -21.4140  -29.2780   22.4320 N   0  0  0  0  0  0  0  0  0  0  0  0
  -23.4190  -28.8330   23.3770 O   0  0  0  0  0  0  0  0  0  0  0  0
  -20.9240  -29.8330   21.7430 H   0  0  0  0  0  0  0  0  0  0  0  0
  -18.0400  -28.0710   22.9260 C   0  0  0  0  0  0  0  0  0  0  0  0
  -20.5990  -28.3390   23.2030 C   0  0  0  0  0  3  0  0  0  0  0  0
  -20.7060  -26.9070   22.6300 C   0  0  0  0  0  2  0  0  0  0  0  0
  -19.6070  -26.5790   21.6140 C   0  0  0  0  0  2  0  0  0  0  0  0
  -18.2230  -26.7210   22.2520 C   0  0  0  0  0  2  0  0  0  0  0  0
  -19.1540  -28.8380   23.3570 C   0  0  0  0  0  0  0  0  0  0  0  0
  -18.9260  -30.1040   23.9410 C   0  0  0  0  0  3  0  0  0  0  0  0
  -17.6190  -30.5980   24.1030 C   0  0  0  0  0  3  0  0  0  0  0  0
  -16.5190  -29.8270   23.6880 C   0  0  0  0  0  3  0  0  0  0  0  0
  -16.7300  -28.5660   23.1040 C   0  0  0  0  0  3  0  0  0  0  0  0
  -25.8960  -32.5070   23.8570 C   0  0  0  0  0  3  0  0  0  0  0  0
  -26.4080  -31.7410   25.1360 C   0  0  1  0  0  0  0  0  0  0  0  0
  -25.3160  -31.5120   26.2060 C   0  0  0  0  0  1  0  0  0  0  0  0
  -26.9860  -30.3590   24.7540 C   0  0  0  0  0  1  0  0  0  0  0  0
  -27.5590  -32.5350   25.7970 C   0  0  0  0  0  1  0  0  0  0  0  0
  -25.5890  -33.9060   24.1850 N   0  0  0  0  0  0  0  0  0  0  0  0
  -25.9150  -34.9570   23.4220 C   0  0  0  0  0  0  0  0  0  0  0  0
  -26.5780  -34.8530   22.3870 O   0  0  0  0  0  0  0  0  0  0  0  0
  -25.0050  -34.0650   24.9930 H   0  0  0  0  0  0  0  0  0  0  0  0
  -24.1840  -36.7500   23.0710 C   0  0  0  0  0  1  0  0  0  0  0  0
  -25.4280  -36.3470   23.8790 C   0  0  0  0  0  3  0  0  0  0  0  0
  -27.5740  -37.2230   24.6950 C   0  0  0  0  0  1  0  0  0  0  0  0
  -26.4570  -37.4060   23.7710 N   0  0  0  0  0  0  0  0  0  0  0  0
  -26.0480  -38.3190   23.9510 H   0  0  0  0  0  0  0  0  0  0  0  0
  1  9  1  0
  1  3  2  0
  2 10  2  0
  3  2  1  0
  4 11  1  0
  4 10  1  0
  6 11  1  0
  7 20  1  0
  7  5  1  0
  8 50  1  0
  8  6  1  0
  8  7  1  0
  9  4  2  0
 11  5  1  0
 12 20  1  0
 13 18  1  0
 14 15  1  0
 14 13  1  0
 16 15  1  0
 16 25  1  0
 16 17  1  0
 18 12  1  0
 18 17  1  0
 19 12  2  0
 20 21  1  0
 22 23  2  0
 23 42  1  0
 24 23  1  0
 24 27  1  0
 25 22  1  0
 25 26  1  0
 26 24  2  0
 27 28  1  0
 28 29  2  0
 30 33  1  0
 30 29  1  0
 31 30  2  0
 32 31  1  0
 32 27  2  0
 33 34  1  0
 34 35  1  0
 35 36  2  0
 37 36  1  0
 37 41  1  0
 38 37  2  0
 39 34  2  0
 39 38  1  0
 40 39  1  0
 42 43  1  0
 43 46  1  0
 43 45  1  0
 44 42  2  0
 47 48  1  0
 47 22  1  0
 49 47  1  0
 50 53  1  0
 50 51  1  0
 52 50  1  0
 54  3  1  0
 54 55  1  0
 56 67  2  0
 57 55  1  0
 57 62  1  0
 58 66  1  0
 58 68  1  0
 59 65  1  0
 59 61  1  0
 60 66  1  0
 61 60  1  0
 62 61  2  0
 63 64  1  0
 63 57  2  0
 64 59  2  0
 65 58  1  0
 66 56  1  0
 68 70  2  0
 69 68  1  0
 71 69  1  0
 72 81  2  0
 72 77  1  0
 73 69  1  0
 73 77  1  0
 74 73  1  0
 75 76  1  0
 75 74  1  0
 76 72  1  0
 77 78  2  0
 78 79  1  0
 80 79  2  0
 81 80  1  0
 82 56  1  0
 82 87  1  0
 82 83  1  0
 83 86  1  1
 83 84  1  0
 85 83  1  0
 87 90  1  0
 88 92  1  0
 88 87  1  0
 89 88  2  0
 92 91  1  0
 94 92  1  0
 94 95  1  0
 94 93  1  0
M  ISO  4  12 100  20 100  54 101  55 101
M  END
>  <TORSDO>  (43) 
F 18

>  <SCORE>  (43) 
-14.841

>  <name>  (43) 
42

>  <ligand_id>  (43) 
42

>  <original_smiles>  (43) 
[H]c1nc(N2C([H])([H])C([H])(N([H])C(=O)N3C([H])([H])C([H])([H])C([H])([H])C([H])(n4nc(-c5c([H])c([H])c(Oc6c([H])c([H])c(F)c([H])c6F)c([H])c5[H])c(C(=O)N([H])[H])c4N([H])[H])C3([H])[H])C([H])([N+]([H])([H])[H])C2([H])[H])nc([H])c1C([H])([H])Oc1c([H])c([H])c2c(c1[H])C([H])([H])N(C(=O)C([H])(N([H])C(=O)C([H])(N([H])C([H])([H])[H])C([H])([H])[H])C(C([H])([H])[H])(C([H])([H])[H])C([H])([H])[H])C([H])(C(=O)N([H])C1([H])c3c([H])c([H])c([H])c([H])c3C([H])([H])C([H])([H])C1([H])[H])C2([H])[H]

>  <smiles>  (43) 
[H]c1nc(N2C([H])([H])C([H])(N([H])C(=O)N3C([H])([H])C([H])([H])C([H])([H])C([H])(n4nc(-c5c([H])c([H])c(Oc6c([H])c([H])c(F)c([H])c6F)c([H])c5[H])c(C(=O)N([H])[H])c4N([H])[H])C3([H])[H])C([H])([N+]([H])([H])[H])C2([H])[H])nc([H])c1C([H])([H])Oc1c([H])c([H])c2c(c1[H])C([H])([H])N(C(=O)C([H])(N([H])C(=O)C([H])(N([H])C([H])([H])[H])C([H])([H])[H])C(C([H])([H])[H])(C([H])([H])[H])C([H])([H])[H])C([H])(C(=O)N([H])C1([H])c3c([H])c([H])c([H])c([H])c3C([H])([H])C([H])([H])C1([H])[H])C2([H])[H]

$$$$
43:0:0
     RDKit          3D

 91 99  0  0  1  0  0  0  0  0999 V2000
  -28.7560  -22.6560   20.7400 N   0  0  0  0  0  4  0  0  0  0  0  0
  -27.7720  -22.4790   20.8820 H   0  0  0  0  0  0  0  0  0  0  0  0
  -29.1610  -22.7550   21.6580 H   0  0  0  0  0  0  0  0  0  0  0  0
  -30.8330  -21.5820   19.8010 C   0  0  0  0  0  1  0  0  0  0  0  0
  -29.3360  -21.3970   20.1190 C   0  0  0  0  0  3  0  0  0  0  0  0
  -29.1140  -20.1050   21.0240 C   0  0  0  0  0  2  0  0  0  0  0  0
  -30.7400  -14.6270   20.0720 C   0  0  0  0  0  0  0  0  0  0  0  0
  -30.3780  -12.4380   18.9750 C   0  0  0  0  0  2  0  0  0  0  0  0
  -29.3860  -12.6160   17.8080 C   0  0  0  0  0  2  0  0  0  0  0  0
  -27.9370  -12.4630   18.3100 C   0  0  0  0  0  2  0  0  0  0  0  0
  -27.6490  -13.3050   19.5830 C   0  0  0  0  0  3  0  0  0  0  0  0
  -28.7630  -13.1450   20.6420 C   0  0  0  0  0  2  0  0  0  0  0  0
  -30.0410  -13.4540   19.9900 N   0  0  0  0  0  0  0  0  0  0  0  0
  -31.8990  -14.7050   19.6490 O   0  0  0  0  0  0  0  0  0  0  0  0
  -30.6710  -16.6040   21.4730 C   0  0  0  0  0  2  0  0  0  0  0  0
  -29.7160  -16.6810   19.2800 C   0  0  0  0  0  2  0  0  0  0  0  0
  -29.8980  -17.9170   21.8060 C   0  0  0  0  0  2  0  0  0  0  0  0
  -28.9850  -18.0090   19.6730 C   0  0  0  0  0  2  0  0  0  0  0  0
  -30.0660  -15.7760   20.4060 N   0  0  0  0  0  0  0  0  0  0  0  0
  -29.7590  -18.8050   20.6380 N   0  0  0  0  0  0  0  0  0  0  0  0
  -25.2970  -13.8900   20.4290 C   0  0  0  0  0  0  0  0  0  0  0  0
  -24.2470  -13.1100   20.8340 C   0  0  0  0  0  0  0  0  0  0  0  0
  -24.7060  -11.7600   20.7580 C   0  0  0  0  0  0  0  0  0  0  0  0
  -26.3270  -13.0140   20.1310 N   0  0  0  0  0  0  0  0  0  0  0  0
  -25.9810  -11.7270   20.3900 N   0  0  0  0  0  0  0  0  0  0  0  0
  -23.9880  -10.4940   20.9600 C   0  0  0  0  0  0  0  0  0  0  0  0
  -24.4390   -9.5290   21.8870 C   0  0  0  0  0  3  0  0  0  0  0  0
  -23.7200   -8.3280   22.0770 C   0  0  0  0  0  3  0  0  0  0  0  0
  -22.5360   -8.0860   21.3400 C   0  0  0  0  0  0  0  0  0  0  0  0
  -22.1040   -9.0420   20.4030 C   0  0  0  0  0  3  0  0  0  0  0  0
  -22.8240  -10.2330   20.2110 C   0  0  0  0  0  3  0  0  0  0  0  0
  -21.7860   -6.9390   21.4400 O   0  0  0  0  0  0  0  0  0  0  0  0
  -21.7260   -6.2180   22.6050 C   0  0  0  0  0  0  0  0  0  0  0  0
  -21.2770   -6.7920   23.8160 C   0  0  0  0  0  3  0  0  0  0  0  0
  -21.1660   -5.9960   24.9730 C   0  0  0  0  0  3  0  0  0  0  0  0
  -21.4930   -4.6280   24.9220 C   0  0  0  0  0  0  0  0  0  0  0  0
  -21.9350   -4.0540   23.7180 C   0  0  0  0  0  3  0  0  0  0  0  0
  -22.0490   -4.8470   22.5620 C   0  0  0  0  0  0  0  0  0  0  0  0
  -22.4550   -4.2830   21.3990 F   0  0  0  0  0  0  0  0  0  0  0  0
  -21.3790   -3.8620   26.0320 F   0  0  0  0  0  0  0  0  0  0  0  0
  -22.8650  -13.5840   21.1790 C   0  0  0  0  0  0  0  0  0  0  0  0
  -22.1780  -12.8740   22.0670 N   0  0  0  0  0  0  0  0  0  0  0  0
  -22.4040  -14.6180   20.6960 O   0  0  0  0  0  0  0  0  0  0  0  0
  -22.5640  -12.0370   22.4780 H   0  0  0  0  0  0  0  0  0  0  0  0
  -21.2530  -13.1720   22.3420 H   0  0  0  0  0  0  0  0  0  0  0  0
  -25.4530  -15.2630   20.2680 N   0  0  0  0  0  0  0  0  0  0  0  0
  -24.6960  -15.9170   20.4340 H   0  0  0  0  0  0  0  0  0  0  0  0
  -26.2980  -15.7090   19.9330 H   0  0  0  0  0  0  0  0  0  0  0  0
  -28.8850  -23.9890   20.0210 C   0  0  0  0  0  2  0  0  0  0  0  0
  -28.1920  -25.2060   20.7580 C   0  0  0  0  0  2  0  0  0  0  0  0
  -28.3850  -26.5600   20.2160 O   0  0  0  0  0  0  0  0  0  0  0  0
  -24.6020  -31.8930   23.2170 C   0  0  0  0  0  0  0  0  0  0  0  0
  -27.2590  -27.3790   20.1870 C   0  0  0  0  0  0  0  0  0  0  0  0
  -23.4110  -30.4760   21.5790 C   0  0  0  0  0  3  0  0  0  0  0  0
  -24.8770  -28.9340   20.1640 C   0  0  0  0  0  0  0  0  0  0  0  0
  -25.9430  -30.8280   21.3930 C   0  0  0  0  0  2  0  0  0  0  0  0
  -26.0370  -29.4490   20.7570 C   0  0  0  0  0  0  0  0  0  0  0  0
  -27.2350  -28.6830   20.7590 C   0  0  0  0  0  3  0  0  0  0  0  0
  -26.0840  -26.9060   19.5670 C   0  0  0  0  0  3  0  0  0  0  0  0
  -24.9000  -27.6670   19.5610 C   0  0  0  0  0  3  0  0  0  0  0  0
  -23.6320  -29.7940   20.2030 C   0  0  0  0  0  2  0  0  0  0  0  0
  -24.6710  -31.0830   22.1200 N   0  0  0  0  0  0  0  0  0  0  0  0
  -23.5160  -32.1630   23.7500 O   0  0  0  0  0  0  0  0  0  0  0  0
  -22.7590  -29.4570   22.5430 C   0  0  0  0  0  0  0  0  0  0  0  0
  -21.4340  -29.2700   22.4170 N   0  0  0  0  0  0  0  0  0  0  0  0
  -23.4420  -28.8370   23.3620 O   0  0  0  0  0  0  0  0  0  0  0  0
  -20.9430  -29.8220   21.7280 H   0  0  0  0  0  0  0  0  0  0  0  0
  -18.0640  -28.0550   22.9120 C   0  0  0  0  0  0  0  0  0  0  0  0
  -20.6200  -28.3330   23.1910 C   0  0  0  0  0  3  0  0  0  0  0  0
  -20.7330  -26.8980   22.6240 C   0  0  0  0  0  2  0  0  0  0  0  0
  -19.6370  -26.5620   21.6080 C   0  0  0  0  0  2  0  0  0  0  0  0
  -18.2520  -26.7020   22.2470 C   0  0  0  0  0  2  0  0  0  0  0  0
  -19.1770  -28.8270   23.3420 C   0  0  0  0  0  0  0  0  0  0  0  0
  -18.9480  -30.0930   23.9240 C   0  0  0  0  0  3  0  0  0  0  0  0
  -17.6390  -30.5860   24.0810 C   0  0  0  0  0  3  0  0  0  0  0  0
  -16.5410  -29.8120   23.6690 C   0  0  0  0  0  3  0  0  0  0  0  0
  -16.7550  -28.5480   23.0900 C   0  0  0  0  0  3  0  0  0  0  0  0
  -25.8800  -32.5370   23.8370 C   0  0  0  0  0  3  0  0  0  0  0  0
  -26.4060  -31.7690   25.1120 C   0  0  1  0  0  0  0  0  0  0  0  0
  -25.3180  -31.5170   26.1810 C   0  0  0  0  0  1  0  0  0  0  0  0
  -27.0020  -30.3980   24.7150 C   0  0  0  0  0  1  0  0  0  0  0  0
  -27.5510  -32.5730   25.7720 C   0  0  0  0  0  1  0  0  0  0  0  0
  -25.5570  -33.9310   24.1690 N   0  0  0  0  0  0  0  0  0  0  0  0
  -25.8810  -34.9890   23.4130 C   0  0  0  0  0  0  0  0  0  0  0  0
  -26.5520  -34.8920   22.3820 O   0  0  0  0  0  0  0  0  0  0  0  0
  -24.9590  -34.0790   24.9690 H   0  0  0  0  0  0  0  0  0  0  0  0
  -24.1390  -36.7680   23.0540 C   0  0  0  0  0  1  0  0  0  0  0  0
  -25.3790  -36.3710   23.8710 C   0  0  0  0  0  3  0  0  0  0  0  0
  -27.5020  -37.2710   24.7160 C   0  0  0  0  0  1  0  0  0  0  0  0
  -26.4030  -37.4330   23.7670 N   0  0  0  0  0  0  0  0  0  0  0  0
  -25.9890  -38.3490   23.9140 H   0  0  0  0  0  0  0  0  0  0  0  0
  1  2  1  0
  1  3  1  0
  5  4  1  0
  5  1  1  0
  5  6  1  0
  7 19  1  0
  8 13  1  0
  9 10  1  0
  9  8  1  0
 11 10  1  0
 11 24  1  0
 11 12  1  0
 13  7  1  0
 13 12  1  0
 14  7  2  0
 15 17  1  0
 16 18  1  0
 16 19  1  0
 18 20  1  0
 19 15  1  0
 20  6  1  0
 20 17  1  0
 21 22  2  0
 22 41  1  0
 23 22  1  0
 23 26  1  0
 24 25  1  0
 24 21  1  0
 25 23  2  0
 26 27  1  0
 27 28  2  0
 29 32  1  0
 29 28  1  0
 30 29  2  0
 31 30  1  0
 31 26  2  0
 32 33  1  0
 33 34  1  0
 34 35  2  0
 36 35  1  0
 36 40  1  0
 37 36  2  0
 38 33  2  0
 38 37  1  0
 39 38  1  0
 41 42  1  0
 42 45  1  0
 42 44  1  0
 43 41  2  0
 46 21  1  0
 46 47  1  0
 48 46  1  0
 49  1  1  0
 49 50  1  0
 51 50  1  0
 52 63  2  0
 53 51  1  0
 53 58  1  0
 54 62  1  0
 54 64  1  0
 55 61  1  0
 55 57  1  0
 56 62  1  0
 57 58  2  0
 57 56  1  0
 59 53  2  0
 60 59  1  0
 60 55  2  0
 61 54  1  0
 62 52  1  0
 64 66  2  0
 65 64  1  0
 67 65  1  0
 68 77  2  0
 68 73  1  0
 69 65  1  0
 69 73  1  0
 70 69  1  0
 71 72  1  0
 71 70  1  0
 72 68  1  0
 73 74  2  0
 74 75  1  0
 76 75  2  0
 77 76  1  0
 78 52  1  0
 78 83  1  0
 78 79  1  0
 79 82  1  1
 79 80  1  0
 81 79  1  0
 83 86  1  0
 84 88  1  0
 84 83  1  0
 85 84  2  0
 88 87  1  0
 90 88  1  0
 90 91  1  0
 90 89  1  0
M  ISO  4   7 100  19 100  50 101  51 101
M  END
>  <TORSDO>  (44) 
F 20

>  <SCORE>  (44) 
-13.546

>  <name>  (44) 
43

>  <ligand_id>  (44) 
43

>  <original_smiles>  (44) 
[H]c1c([H])c([H])c2c(c1[H])C([H])([H])C([H])([H])C([H])([H])C2([H])N([H])C(=O)C1([H])N(C(=O)C([H])(N([H])C(=O)C([H])(N([H])C([H])([H])[H])C([H])([H])[H])C(C([H])([H])[H])(C([H])([H])[H])C([H])([H])[H])C([H])([H])c2c([H])c(OC([H])([H])C([H])([H])[N+]([H])([H])C([H])(C([H])([H])[H])C([H])([H])N3C([H])([H])C([H])([H])N(C(=O)N4C([H])([H])C([H])([H])C([H])([H])C([H])(n5nc(-c6c([H])c([H])c(Oc7c([H])c([H])c(F)c([H])c7F)c([H])c6[H])c(C(=O)N([H])[H])c5N([H])[H])C4([H])[H])C([H])([H])C3([H])[H])c([H])c([H])c2C1([H])[H]

>  <smiles>  (44) 
[H]c1c([H])c([H])c2c(c1[H])C([H])([H])C([H])([H])C([H])([H])C2([H])N([H])C(=O)C1([H])N(C(=O)C([H])(N([H])C(=O)C([H])(N([H])C([H])([H])[H])C([H])([H])[H])C(C([H])([H])[H])(C([H])([H])[H])C([H])([H])[H])C([H])([H])c2c([H])c(OC([H])([H])C([H])([H])[N+]([H])([H])C([H])(C([H])([H])[H])C([H])([H])N3C([H])([H])C([H])([H])N(C(=O)N4C([H])([H])C([H])([H])C([H])([H])C([H])(n5nc(-c6c([H])c([H])c(Oc7c([H])c([H])c(F)c([H])c7F)c([H])c6[H])c(C(=O)N([H])[H])c5N([H])[H])C4([H])[H])C([H])([H])C3([H])[H])c([H])c([H])c2C1([H])[H]

$$$$
44:0:0
     RDKit          3D

 90 98  0  0  1  0  0  0  0  0999 V2000
  -28.4340  -23.0000   20.5870 C   0  0  0  0  0  3  0  0  0  0  0  0
  -27.0920  -22.7200   21.0910 N   0  0  0  0  0  0  0  0  0  0  0  0
  -26.5080  -22.3000   20.3750 H   0  0  0  0  0  0  0  0  0  0  0  0
  -27.1040  -22.0680   21.8700 H   0  0  0  0  0  0  0  0  0  0  0  0
  -29.1230  -21.4980   19.9980 C   0  0  0  0  0  2  0  0  0  0  0  0
  -28.8090  -20.0060   20.5500 N   0  0  0  0  0  4  0  0  0  0  0  0
  -28.7430  -20.1460   21.5430 H   0  0  0  0  0  0  0  0  0  0  0  0
  -27.8640  -19.8150   20.2590 H   0  0  0  0  0  0  0  0  0  0  0  0
  -30.4680  -15.0840   20.0690 C   0  0  0  0  0  0  0  0  0  0  0  0
  -30.3430  -12.7110   19.1170 C   0  0  0  0  0  2  0  0  0  0  0  0
  -29.3690  -12.6310   17.9180 C   0  0  0  0  0  2  0  0  0  0  0  0
  -27.9320  -12.3840   18.4140 C   0  0  0  0  0  2  0  0  0  0  0  0
  -27.5550  -13.3140   19.5970 C   0  0  0  0  0  3  0  0  0  0  0  0
  -28.6470  -13.3670   20.6860 C   0  0  0  0  0  2  0  0  0  0  0  0
  -29.8740  -13.8140   20.0220 N   0  0  0  0  0  0  0  0  0  0  0  0
  -31.6590  -15.1120   19.7270 O   0  0  0  0  0  0  0  0  0  0  0  0
  -29.1100  -17.2430   21.1480 C   0  0  0  0  0  2  0  0  0  0  0  0
  -29.7120  -17.5850   19.2050 C   0  0  0  0  0  2  0  0  0  0  0  0
  -29.6350  -18.5930   20.4400 C   0  0  0  0  0  3  0  0  0  0  0  0
  -29.7030  -16.3210   20.0850 N   0  0  0  0  0  0  0  0  0  0  0  0
  -25.2110  -13.8870   20.4360 C   0  0  0  0  0  0  0  0  0  0  0  0
  -24.1580  -13.1120   20.8340 C   0  0  0  0  0  0  0  0  0  0  0  0
  -24.6160  -11.7570   20.7690 C   0  0  0  0  0  0  0  0  0  0  0  0
  -26.2400  -13.0090   20.1430 N   0  0  0  0  0  0  0  0  0  0  0  0
  -25.8950  -11.7220   20.4120 N   0  0  0  0  0  0  0  0  0  0  0  0
  -23.8910  -10.4930   20.9630 C   0  0  0  0  0  0  0  0  0  0  0  0
  -24.3360   -9.5270   21.8940 C   0  0  0  0  0  3  0  0  0  0  0  0
  -23.6120   -8.3310   22.0860 C   0  0  0  0  0  3  0  0  0  0  0  0
  -22.4320   -8.0900   21.3430 C   0  0  0  0  0  0  0  0  0  0  0  0
  -22.0040   -9.0430   20.4050 C   0  0  0  0  0  3  0  0  0  0  0  0
  -22.7280  -10.2310   20.2100 C   0  0  0  0  0  3  0  0  0  0  0  0
  -21.6840   -6.9410   21.4400 O   0  0  0  0  0  0  0  0  0  0  0  0
  -21.6210   -6.2140   22.6020 C   0  0  0  0  0  0  0  0  0  0  0  0
  -21.1810   -6.7870   23.8150 C   0  0  0  0  0  3  0  0  0  0  0  0
  -21.0670   -5.9900   24.9700 C   0  0  0  0  0  3  0  0  0  0  0  0
  -21.3830   -4.6210   24.9150 C   0  0  0  0  0  0  0  0  0  0  0  0
  -21.8180   -4.0450   23.7090 C   0  0  0  0  0  3  0  0  0  0  0  0
  -21.9340   -4.8410   22.5550 C   0  0  0  0  0  0  0  0  0  0  0  0
  -22.3300   -4.2780   21.3880 F   0  0  0  0  0  0  0  0  0  0  0  0
  -21.2680   -3.8540   26.0240 F   0  0  0  0  0  0  0  0  0  0  0  0
  -22.7710  -13.5870   21.1590 C   0  0  0  0  0  0  0  0  0  0  0  0
  -22.0770  -12.8820   22.0440 N   0  0  0  0  0  0  0  0  0  0  0  0
  -22.3180  -14.6190   20.6650 O   0  0  0  0  0  0  0  0  0  0  0  0
  -22.4610  -12.0490   22.4640 H   0  0  0  0  0  0  0  0  0  0  0  0
  -21.1480  -13.1750   22.3050 H   0  0  0  0  0  0  0  0  0  0  0  0
  -25.3750  -15.2570   20.2640 N   0  0  0  0  0  0  0  0  0  0  0  0
  -24.6150  -15.9160   20.3960 H   0  0  0  0  0  0  0  0  0  0  0  0
  -26.2070  -15.6810   19.8770 H   0  0  0  0  0  0  0  0  0  0  0  0
  -28.2500  -24.5370   19.7790 C   0  0  0  0  0  2  0  0  0  0  0  0
  -28.2230  -26.0460   20.3110 O   0  0  0  0  0  0  0  0  0  0  0  0
  -24.6350  -31.8660   23.2140 C   0  0  0  0  0  0  0  0  0  0  0  0
  -27.1750  -27.0580   20.1920 C   0  0  0  0  0  0  0  0  0  0  0  0
  -23.4290  -30.4660   21.5840 C   0  0  0  0  0  3  0  0  0  0  0  0
  -24.8700  -28.8710   20.1540 C   0  0  0  0  0  0  0  0  0  0  0  0
  -25.9880  -30.6980   21.4130 C   0  0  0  0  0  2  0  0  0  0  0  0
  -26.0540  -29.2970   20.7660 C   0  0  0  0  0  0  0  0  0  0  0  0
  -27.2030  -28.4060   20.7700 C   0  0  0  0  0  3  0  0  0  0  0  0
  -25.9630  -26.7550   19.5360 C   0  0  0  0  0  3  0  0  0  0  0  0
  -24.8410  -27.6160   19.5250 C   0  0  0  0  0  3  0  0  0  0  0  0
  -23.6520  -29.7880   20.2070 C   0  0  0  0  0  2  0  0  0  0  0  0
  -24.7060  -31.0320   22.1290 N   0  0  0  0  0  0  0  0  0  0  0  0
  -23.5490  -32.1580   23.7370 O   0  0  0  0  0  0  0  0  0  0  0  0
  -22.7540  -29.4620   22.5530 C   0  0  0  0  0  0  0  0  0  0  0  0
  -21.4250  -29.2930   22.4370 N   0  0  0  0  0  0  0  0  0  0  0  0
  -23.4270  -28.8380   23.3780 O   0  0  0  0  0  0  0  0  0  0  0  0
  -20.9390  -29.8520   21.7510 H   0  0  0  0  0  0  0  0  0  0  0  0
  -18.0480  -28.0780   22.9480 C   0  0  0  0  0  0  0  0  0  0  0  0
  -20.6070  -28.3600   23.2170 C   0  0  0  0  0  3  0  0  0  0  0  0
  -20.7190  -26.9250   22.6550 C   0  0  0  0  0  2  0  0  0  0  0  0
  -19.6180  -26.5820   21.6460 C   0  0  0  0  0  2  0  0  0  0  0  0
  -18.2330  -26.7260   22.2830 C   0  0  0  0  0  2  0  0  0  0  0  0
  -19.1610  -28.8520   23.3730 C   0  0  0  0  0  0  0  0  0  0  0  0
  -18.9330  -30.1180   23.9570 C   0  0  0  0  0  3  0  0  0  0  0  0
  -17.6250  -30.6070   24.1190 C   0  0  0  0  0  3  0  0  0  0  0  0
  -16.5270  -29.8330   23.7050 C   0  0  0  0  0  3  0  0  0  0  0  0
  -16.7390  -28.5700   23.1240 C   0  0  0  0  0  3  0  0  0  0  0  0
  -25.9110  -32.5090   23.8360 C   0  0  0  0  0  3  0  0  0  0  0  0
  -26.4260  -31.7450   25.1180 C   0  0  1  0  0  0  0  0  0  0  0  0
  -25.3280  -31.5150   26.1820 C   0  0  0  0  0  1  0  0  0  0  0  0
  -27.0060  -30.3660   24.7320 C   0  0  0  0  0  1  0  0  0  0  0  0
  -27.5790  -32.5380   25.7740 C   0  0  0  0  0  1  0  0  0  0  0  0
  -25.5950  -33.9090   24.1740 N   0  0  0  0  0  0  0  0  0  0  0  0
  -25.9200  -34.9680   23.4200 C   0  0  0  0  0  0  0  0  0  0  0  0
  -26.5780  -34.8700   22.3820 O   0  0  0  0  0  0  0  0  0  0  0  0
  -25.0150  -34.0590   24.9860 H   0  0  0  0  0  0  0  0  0  0  0  0
  -24.1800  -36.7580   23.0980 C   0  0  0  0  0  1  0  0  0  0  0  0
  -25.4330  -36.3550   23.8900 C   0  0  0  0  0  3  0  0  0  0  0  0
  -27.5750  -37.2380   24.7000 C   0  0  0  0  0  1  0  0  0  0  0  0
  -26.4610  -37.4110   23.7730 N   0  0  0  0  0  0  0  0  0  0  0  0
  -26.0530  -38.3280   23.9340 H   0  0  0  0  0  0  0  0  0  0  0  0
  1 49  1  0
  1  2  1  0
  2  4  1  0
  3  2  1  0
  5  6  1  0
  5  1  1  0
  6  7  1  0
  8  6  1  0
  9 20  1  0
 10 15  1  0
 11 12  1  0
 11 10  1  0
 13 12  1  0
 13 24  1  0
 13 14  1  0
 15  9  1  0
 15 14  1  0
 16  9  2  0
 18 20  1  0
 18 19  1  0
 19  6  1  0
 19 17  1  0
 20 17  1  0
 21 22  2  0
 22 41  1  0
 23 22  1  0
 23 26  1  0
 24 25  1  0
 24 21  1  0
 25 23  2  0
 26 27  1  0
 27 28  2  0
 29 32  1  0
 29 28  1  0
 30 29  2  0
 31 30  1  0
 31 26  2  0
 32 33  1  0
 33 34  1  0
 34 35  2  0
 36 35  1  0
 36 40  1  0
 37 36  2  0
 38 33  2  0
 38 37  1  0
 39 38  1  0
 41 42  1  0
 42 45  1  0
 42 44  1  0
 43 41  2  0
 46 47  1  0
 46 21  1  0
 48 46  1  0
 49 50  1  0
 51 62  2  0
 52 50  1  0
 52 57  1  0
 53 61  1  0
 53 63  1  0
 54 60  1  0
 54 56  1  0
 55 61  1  0
 56 57  2  0
 56 55  1  0
 58 52  2  0
 59 58  1  0
 59 54  2  0
 60 53  1  0
 61 51  1  0
 63 65  2  0
 64 63  1  0
 66 64  1  0
 67 76  2  0
 67 72  1  0
 68 64  1  0
 68 72  1  0
 69 68  1  0
 70 71  1  0
 70 69  1  0
 71 67  1  0
 72 73  2  0
 73 74  1  0
 75 74  2  0
 76 75  1  0
 77 51  1  0
 77 82  1  0
 77 78  1  0
 78 81  1  1
 78 79  1  0
 80 78  1  0
 82 85  1  0
 83 87  1  0
 83 82  1  0
 84 83  2  0
 87 86  1  0
 89 87  1  0
 89 90  1  0
 89 88  1  0
M  ISO  4   9 100  20 100  49 101  50 101
M  END
>  <TORSDO>  (45) 
F 20

>  <SCORE>  (45) 
-15.492

>  <name>  (45) 
44

>  <ligand_id>  (45) 
44

>  <original_smiles>  (45) 
[H]c1c([H])c([H])c2c(c1[H])C([H])([H])C([H])([H])C([H])([H])C2([H])N([H])C(=O)C1([H])N(C(=O)C([H])(N([H])C(=O)C([H])(N([H])C([H])([H])[H])C([H])([H])[H])C(C([H])([H])[H])(C([H])([H])[H])C([H])([H])[H])C([H])([H])c2c([H])c(OC([H])([H])C([H])(N([H])[H])C([H])([H])[N+]([H])([H])C3([H])C([H])([H])N(C(=O)N4C([H])([H])C([H])([H])C([H])([H])C([H])(n5nc(-c6c([H])c([H])c(Oc7c([H])c([H])c(F)c([H])c7F)c([H])c6[H])c(C(=O)N([H])[H])c5N([H])[H])C4([H])[H])C3([H])[H])c([H])c([H])c2C1([H])[H]

>  <smiles>  (45) 
[H]c1c([H])c([H])c2c(c1[H])C([H])([H])C([H])([H])C([H])([H])C2([H])N([H])C(=O)C1([H])N(C(=O)C([H])(N([H])C(=O)C([H])(N([H])C([H])([H])[H])C([H])([H])[H])C(C([H])([H])[H])(C([H])([H])[H])C([H])([H])[H])C([H])([H])c2c([H])c(OC([H])([H])C([H])(N([H])[H])C([H])([H])[N+]([H])([H])C3([H])C([H])([H])N(C(=O)N4C([H])([H])C([H])([H])C([H])([H])C([H])(n5nc(-c6c([H])c([H])c(Oc7c([H])c([H])c(F)c([H])c7F)c([H])c6[H])c(C(=O)N([H])[H])c5N([H])[H])C4([H])[H])C3([H])[H])c([H])c([H])c2C1([H])[H]

$$$$
45:0:0
     RDKit          3D

 87 98  0  0  1  0  0  0  0  0999 V2000
  -28.6020  -21.5000   21.2000 C   0  0  0  0  0  3  0  0  0  0  0  0
  -28.8770  -21.5250   19.2730 C   0  0  0  0  0  3  0  0  0  0  0  0
  -28.8370  -22.8300   20.2670 C   0  0  0  0  0  3  0  0  0  0  0  0
  -29.3620  -20.4880   20.3090 N   0  0  2  0  0  4  0  0  0  0  0  0
  -30.3490  -20.6400   20.4490 H   0  0  0  0  0  0  0  0  0  0  0  0
  -30.4380  -15.2790   20.2100 C   0  0  0  0  0  0  0  0  0  0  0  0
  -30.3790  -12.8550   19.3120 C   0  0  0  0  0  2  0  0  0  0  0  0
  -29.4370  -12.6690   18.0990 C   0  0  0  0  0  2  0  0  0  0  0  0
  -27.9960  -12.4000   18.5680 C   0  0  0  0  0  2  0  0  0  0  0  0
  -27.5670  -13.3530   19.7120 C   0  0  0  0  0  3  0  0  0  0  0  0
  -28.6380  -13.4950   20.8140 C   0  0  0  0  0  2  0  0  0  0  0  0
  -29.8530  -13.9890   20.1520 N   0  0  0  0  0  0  0  0  0  0  0  0
  -31.6530  -15.2750   19.9650 O   0  0  0  0  0  0  0  0  0  0  0  0
  -29.8840  -17.7850   19.3020 C   0  0  0  0  0  3  0  0  0  0  0  0
  -29.7440  -17.7350   21.2590 C   0  0  0  0  0  3  0  0  0  0  0  0
  -29.1130  -18.8400   20.2530 C   0  0  0  0  0  3  0  0  0  0  0  0
  -29.6920  -16.5590   20.2410 N   0  0  0  0  0  0  0  0  0  0  0  0
  -25.2150  -13.8900   20.5330 C   0  0  0  0  0  0  0  0  0  0  0  0
  -24.1620  -13.1030   20.9090 C   0  0  0  0  0  0  0  0  0  0  0  0
  -24.6330  -11.7550   20.8420 C   0  0  0  0  0  0  0  0  0  0  0  0
  -26.2530  -13.0240   20.2480 N   0  0  0  0  0  0  0  0  0  0  0  0
  -25.9180  -11.7320   20.5020 N   0  0  0  0  0  0  0  0  0  0  0  0
  -23.9150  -10.4870   21.0230 C   0  0  0  0  0  0  0  0  0  0  0  0
  -24.3460   -9.5180   21.9560 C   0  0  0  0  0  3  0  0  0  0  0  0
  -23.6240   -8.3170   22.1270 C   0  0  0  0  0  3  0  0  0  0  0  0
  -22.4570   -8.0750   21.3650 C   0  0  0  0  0  0  0  0  0  0  0  0
  -22.0430   -9.0330   20.4220 C   0  0  0  0  0  3  0  0  0  0  0  0
  -22.7670  -10.2250   20.2490 C   0  0  0  0  0  3  0  0  0  0  0  0
  -21.7070   -6.9260   21.4450 O   0  0  0  0  0  0  0  0  0  0  0  0
  -21.6210   -6.2030   22.6080 C   0  0  0  0  0  0  0  0  0  0  0  0
  -21.1240   -6.7670   23.8020 C   0  0  0  0  0  3  0  0  0  0  0  0
  -20.9870   -5.9680   24.9550 C   0  0  0  0  0  3  0  0  0  0  0  0
  -21.3390   -4.6050   24.9140 C   0  0  0  0  0  0  0  0  0  0  0  0
  -21.8300   -4.0410   23.7230 C   0  0  0  0  0  3  0  0  0  0  0  0
  -21.9670   -4.8360   22.5730 C   0  0  0  0  0  0  0  0  0  0  0  0
  -22.4210   -4.2820   21.4230 F   0  0  0  0  0  0  0  0  0  0  0  0
  -21.2010   -3.8360   26.0190 F   0  0  0  0  0  0  0  0  0  0  0  0
  -22.7690  -13.5700   21.2150 C   0  0  0  0  0  0  0  0  0  0  0  0
  -22.0630  -12.8600   22.0850 N   0  0  0  0  0  0  0  0  0  0  0  0
  -22.3190  -14.6010   20.7160 O   0  0  0  0  0  0  0  0  0  0  0  0
  -22.4430  -12.0260   22.5100 H   0  0  0  0  0  0  0  0  0  0  0  0
  -21.1280  -13.1540   22.3330 H   0  0  0  0  0  0  0  0  0  0  0  0
  -25.3710  -15.2660   20.3810 N   0  0  0  0  0  0  0  0  0  0  0  0
  -24.6100  -15.9190   20.5330 H   0  0  0  0  0  0  0  0  0  0  0  0
  -26.2230  -15.7130   20.0680 H   0  0  0  0  0  0  0  0  0  0  0  0
  -27.8910  -24.3460   20.1290 C   0  0  0  0  0  2  0  0  0  0  0  0
  -28.1760  -25.9500   20.2920 O   0  0  0  0  0  0  0  0  0  0  0  0
  -24.6520  -31.9090   23.2440 C   0  0  0  0  0  0  0  0  0  0  0  0
  -27.1680  -27.0380   20.2270 C   0  0  0  0  0  0  0  0  0  0  0  0
  -23.4440  -30.5210   21.6090 C   0  0  0  0  0  3  0  0  0  0  0  0
  -24.8780  -28.9110   20.1840 C   0  0  0  0  0  0  0  0  0  0  0  0
  -26.0090  -30.7230   21.4540 C   0  0  0  0  0  2  0  0  0  0  0  0
  -26.0690  -29.3160   20.7990 C   0  0  0  0  0  0  0  0  0  0  0  0
  -27.2100  -28.4000   20.7950 C   0  0  0  0  0  3  0  0  0  0  0  0
  -25.9470  -26.7770   19.5650 C   0  0  0  0  0  3  0  0  0  0  0  0
  -24.8400  -27.6610   19.5460 C   0  0  0  0  0  3  0  0  0  0  0  0
  -23.6640  -29.8370   20.2320 C   0  0  0  0  0  2  0  0  0  0  0  0
  -24.7240  -31.0770   22.1560 N   0  0  0  0  0  0  0  0  0  0  0  0
  -23.5660  -32.2060   23.7680 O   0  0  0  0  0  0  0  0  0  0  0  0
  -22.7470  -29.5290   22.5760 C   0  0  0  0  0  0  0  0  0  0  0  0
  -21.4160  -29.3680   22.4500 N   0  0  0  0  0  0  0  0  0  0  0  0
  -23.4090  -28.9030   23.4070 O   0  0  0  0  0  0  0  0  0  0  0  0
  -20.9360  -29.9230   21.7550 H   0  0  0  0  0  0  0  0  0  0  0  0
  -18.0280  -28.1780   22.9580 C   0  0  0  0  0  0  0  0  0  0  0  0
  -20.5890  -28.4370   23.2220 C   0  0  0  0  0  3  0  0  0  0  0  0
  -20.6860  -27.0020   22.6530 C   0  0  0  0  0  2  0  0  0  0  0  0
  -19.5840  -26.6800   21.6390 C   0  0  0  0  0  2  0  0  0  0  0  0
  -18.2020  -26.8280   22.2820 C   0  0  0  0  0  2  0  0  0  0  0  0
  -19.1480  -28.9400   23.3850 C   0  0  0  0  0  0  0  0  0  0  0  0
  -18.9290  -30.2020   23.9790 C   0  0  0  0  0  3  0  0  0  0  0  0
  -17.6240  -30.7020   24.1480 C   0  0  0  0  0  3  0  0  0  0  0  0
  -16.5190  -29.9370   23.7350 C   0  0  0  0  0  3  0  0  0  0  0  0
  -16.7220  -28.6770   23.1460 C   0  0  0  0  0  3  0  0  0  0  0  0
  -25.9300  -32.5420   23.8740 C   0  0  0  0  0  3  0  0  0  0  0  0
  -25.6220  -33.9420   24.2130 N   0  0  0  0  0  0  0  0  0  0  0  0
  -25.9280  -35.0020   23.4540 C   0  0  0  0  0  0  0  0  0  0  0  0
  -26.5630  -34.9050   22.4010 O   0  0  0  0  0  0  0  0  0  0  0  0
  -25.0520  -34.0900   25.0330 H   0  0  0  0  0  0  0  0  0  0  0  0
  -24.1740  -36.7910   23.1900 C   0  0  0  0  0  1  0  0  0  0  0  0
  -25.4570  -36.3910   23.9360 C   0  0  0  0  0  3  0  0  0  0  0  0
  -27.6220  -37.2950   24.6640 C   0  0  0  0  0  1  0  0  0  0  0  0
  -26.4770  -37.4500   23.7700 N   0  0  0  0  0  0  0  0  0  0  0  0
  -26.0720  -38.3680   23.9300 H   0  0  0  0  0  0  0  0  0  0  0  0
  -26.4360  -31.7710   25.1550 C   0  0  1  0  0  0  0  0  0  0  0  0
  -25.3370  -31.5410   26.2200 C   0  0  0  0  0  1  0  0  0  0  0  0
  -27.0140  -30.3890   24.7770 C   0  0  0  0  0  1  0  0  0  0  0  0
  -27.5870  -32.5610   25.8200 C   0  0  0  0  0  1  0  0  0  0  0  0
  2  3  1  0
  2  4  1  0
  2  1  1  0
  3  1  1  0
  4  5  1  1
  4  1  1  0
  6 17  1  0
  7 12  1  0
  8  9  1  0
  8  7  1  0
  9 10  1  0
 10 21  1  0
 10 11  1  0
 12  6  1  0
 12 11  1  0
 13  6  2  0
 14 17  1  0
 14 16  1  0
 14 15  1  0
 16  4  1  0
 16 15  1  0
 17 15  1  0
 18 19  2  0
 19 38  1  0
 20 19  1  0
 20 23  1  0
 21 22  1  0
 21 18  1  0
 22 20  2  0
 23 24  1  0
 24 25  2  0
 26 29  1  0
 26 25  1  0
 27 26  2  0
 28 27  1  0
 28 23  2  0
 29 30  1  0
 30 31  1  0
 31 32  2  0
 33 32  1  0
 33 37  1  0
 34 33  2  0
 35 30  2  0
 35 34  1  0
 36 35  1  0
 38 39  1  0
 39 42  1  0
 39 41  1  0
 40 38  2  0
 43 44  1  0
 43 18  1  0
 45 43  1  0
 46  3  1  0
 46 47  1  0
 48 59  2  0
 48 74  1  0
 49 47  1  0
 49 54  1  0
 50 58  1  0
 50 60  1  0
 51 57  1  0
 51 53  1  0
 52 58  1  0
 53 52  1  0
 54 53  2  0
 55 49  2  0
 56 55  1  0
 56 51  2  0
 57 50  1  0
 58 48  1  0
 60 62  2  0
 61 60  1  0
 61 65  1  0
 63 61  1  0
 64 73  2  0
 64 69  1  0
 65 69  1  0
 66 65  1  0
 67 68  1  0
 67 66  1  0
 68 64  1  0
 69 70  2  0
 70 71  1  0
 72 71  2  0
 73 72  1  0
 74 75  1  0
 74 84  1  0
 75 78  1  0
 76 80  1  0
 76 75  1  0
 77 76  2  0
 79 80  1  0
 82 83  1  0
 82 80  1  0
 82 81  1  0
 84 87  1  1
 84 85  1  0
 86 84  1  0
M  ISO  4   6 100  17 100  46 101  47 101
M  END
>  <TORSDO>  (46) 
F 17

>  <SCORE>  (46) 
-15.622

>  <name>  (46) 
45

>  <ligand_id>  (46) 
45

>  <original_smiles>  (46) 
[H]c1c([H])c([H])c2c(c1[H])C([H])([H])C([H])([H])C([H])([H])C2([H])N([H])C(=O)C1([H])N(C(=O)C([H])(N([H])C(=O)C([H])(N([H])C([H])([H])[H])C([H])([H])[H])C(C([H])([H])[H])(C([H])([H])[H])C([H])([H])[H])C([H])([H])c2c([H])c(OC([H])([H])C3([H])C([H])([H])[N+]([H])(C4([H])C([H])([H])N(C(=O)N5C([H])([H])C([H])([H])C([H])([H])C([H])(n6nc(-c7c([H])c([H])c(Oc8c([H])c([H])c(F)c([H])c8F)c([H])c7[H])c(C(=O)N([H])[H])c6N([H])[H])C5([H])[H])C4([H])[H])C3([H])[H])c([H])c([H])c2C1([H])[H]

>  <smiles>  (46) 
[H]c1c([H])c([H])c2c(c1[H])C([H])([H])C([H])([H])C([H])([H])C2([H])N([H])C(=O)C1([H])N(C(=O)C([H])(N([H])C(=O)C([H])(N([H])C([H])([H])[H])C([H])([H])[H])C(C([H])([H])[H])(C([H])([H])[H])C([H])([H])[H])C([H])([H])c2c([H])c(OC([H])([H])C3([H])C([H])([H])[N+]([H])(C4([H])C([H])([H])N(C(=O)N5C([H])([H])C([H])([H])C([H])([H])C([H])(n6nc(-c7c([H])c([H])c(Oc8c([H])c([H])c(F)c([H])c8F)c([H])c7[H])c(C(=O)N([H])[H])c6N([H])[H])C5([H])[H])C4([H])[H])C3([H])[H])c([H])c([H])c2C1([H])[H]

$$$$
46:0:0
     RDKit          3D

 93102  0  0  1  0  0  0  0  0999 V2000
  -27.5190  -22.1580   18.6890 C   0  0  0  0  0  3  0  0  0  0  0  0
  -29.4740  -22.4760   20.4500 C   0  0  0  0  0  0  0  0  0  0  0  0
  -28.6480  -23.6190   20.0630 C   0  0  0  0  0  0  0  0  0  0  0  0
  -29.2040  -21.1640   19.8920 C   0  0  0  0  0  0  0  0  0  0  0  0
  -27.6770  -23.3950   19.1580 N   0  0  0  0  0  0  0  0  0  0  0  0
  -28.2010  -21.0570   19.0120 N   0  0  0  0  0  0  0  0  0  0  0  0
  -29.9430  -19.9430   20.1690 N   0  0  0  0  0  0  0  0  0  0  0  0
  -30.7260  -20.0690   20.7990 H   0  0  0  0  0  0  0  0  0  0  0  0
  -30.8000  -14.7710   19.9740 C   0  0  0  0  0  0  0  0  0  0  0  0
  -30.5240  -12.4860   18.9690 C   0  0  0  0  0  2  0  0  0  0  0  0
  -29.5260  -12.5320   17.7910 C   0  0  0  0  0  2  0  0  0  0  0  0
  -28.0790  -12.3650   18.2950 C   0  0  0  0  0  2  0  0  0  0  0  0
  -27.7690  -13.2550   19.5290 C   0  0  0  0  0  3  0  0  0  0  0  0
  -28.8850  -13.1560   20.5900 C   0  0  0  0  0  2  0  0  0  0  0  0
  -30.1340  -13.5550   19.9280 N   0  0  0  0  0  0  0  0  0  0  0  0
  -31.9610  -14.8060   19.5510 O   0  0  0  0  0  0  0  0  0  0  0  0
  -28.9540  -17.8610   21.2700 C   0  0  0  0  0  2  0  0  0  0  0  0
  -29.0610  -16.3130   21.1180 C   0  0  0  0  0  2  0  0  0  0  0  0
  -30.5560  -17.3510   19.6280 C   0  0  0  0  0  2  0  0  0  0  0  0
  -29.4960  -18.4950   19.9870 C   0  0  0  0  0  3  0  0  0  0  0  0
  -30.1140  -15.9910   20.1430 N   0  0  0  0  0  0  0  0  0  0  0  0
  -25.4310  -13.8620   20.3930 C   0  0  0  0  0  0  0  0  0  0  0  0
  -24.3790  -13.0950   20.8100 C   0  0  0  0  0  0  0  0  0  0  0  0
  -24.8210  -11.7390   20.7320 C   0  0  0  0  0  0  0  0  0  0  0  0
  -26.4500  -12.9740   20.0890 N   0  0  0  0  0  0  0  0  0  0  0  0
  -26.0930  -11.6900   20.3530 N   0  0  0  0  0  0  0  0  0  0  0  0
  -24.0890  -10.4830   20.9400 C   0  0  0  0  0  0  0  0  0  0  0  0
  -24.5390   -9.5060   21.8550 C   0  0  0  0  0  3  0  0  0  0  0  0
  -23.8050   -8.3170   22.0520 C   0  0  0  0  0  3  0  0  0  0  0  0
  -22.6050   -8.0970   21.3320 C   0  0  0  0  0  0  0  0  0  0  0  0
  -22.1750   -9.0620   20.4040 C   0  0  0  0  0  3  0  0  0  0  0  0
  -22.9110  -10.2420   20.2050 C   0  0  0  0  0  3  0  0  0  0  0  0
  -21.8410   -6.9610   21.4390 O   0  0  0  0  0  0  0  0  0  0  0  0
  -21.7890   -6.2340   22.6020 C   0  0  0  0  0  0  0  0  0  0  0  0
  -21.3840   -6.8130   23.8250 C   0  0  0  0  0  3  0  0  0  0  0  0
  -21.2760   -6.0140   24.9800 C   0  0  0  0  0  3  0  0  0  0  0  0
  -21.5660   -4.6380   24.9160 C   0  0  0  0  0  0  0  0  0  0  0  0
  -21.9660   -4.0590   23.6970 C   0  0  0  0  0  3  0  0  0  0  0  0
  -22.0730   -4.8550   22.5440 C   0  0  0  0  0  0  0  0  0  0  0  0
  -22.4370   -4.2880   21.3690 F   0  0  0  0  0  0  0  0  0  0  0  0
  -21.4560   -3.8680   26.0230 F   0  0  0  0  0  0  0  0  0  0  0  0
  -23.0060  -13.5860   21.1660 C   0  0  0  0  0  0  0  0  0  0  0  0
  -22.3200  -12.8900   22.0660 N   0  0  0  0  0  0  0  0  0  0  0  0
  -22.5530  -14.6210   20.6810 O   0  0  0  0  0  0  0  0  0  0  0  0
  -22.7020  -12.0520   22.4800 H   0  0  0  0  0  0  0  0  0  0  0  0
  -21.4000  -13.1990   22.3470 H   0  0  0  0  0  0  0  0  0  0  0  0
  -25.5910  -15.2320   20.2210 N   0  0  0  0  0  0  0  0  0  0  0  0
  -24.8270  -15.8830   20.3660 H   0  0  0  0  0  0  0  0  0  0  0  0
  -26.4100  -15.6710   19.8190 H   0  0  0  0  0  0  0  0  0  0  0  0
  -30.1800  -22.5750   22.9030 C   0  0  0  0  0  1  0  0  0  0  0  0
  -30.6230  -22.6610   21.4370 C   0  0  0  0  0  2  0  0  0  0  0  0
  -28.6110  -25.0720   20.7550 C   0  0  0  0  0  2  0  0  0  0  0  0
  -28.6070  -26.3770   20.0020 O   0  0  0  0  0  0  0  0  0  0  0  0
  -24.6870  -31.6810   23.1290 C   0  0  0  0  0  0  0  0  0  0  0  0
  -27.4720  -27.2160   20.0450 C   0  0  0  0  0  0  0  0  0  0  0  0
  -23.5480  -30.2750   21.4510 C   0  0  0  0  0  3  0  0  0  0  0  0
  -25.0640  -28.7810   20.0220 C   0  0  0  0  0  0  0  0  0  0  0  0
  -26.0820  -30.6620   21.3070 C   0  0  0  0  0  2  0  0  0  0  0  0
  -26.2140  -29.2920   20.6400 C   0  0  0  0  0  0  0  0  0  0  0  0
  -27.4240  -28.5260   20.6330 C   0  0  0  0  0  3  0  0  0  0  0  0
  -26.2980  -26.7590   19.4180 C   0  0  0  0  0  3  0  0  0  0  0  0
  -25.1090  -27.5200   19.4030 C   0  0  0  0  0  3  0  0  0  0  0  0
  -23.8030  -29.6250   20.0650 C   0  0  0  0  0  2  0  0  0  0  0  0
  -24.7910  -30.8920   22.0190 N   0  0  0  0  0  0  0  0  0  0  0  0
  -23.5890  -31.9180   23.6540 O   0  0  0  0  0  0  0  0  0  0  0  0
  -22.9010  -29.2270   22.3880 C   0  0  0  0  0  0  0  0  0  0  0  0
  -21.5800  -29.0200   22.2480 N   0  0  0  0  0  0  0  0  0  0  0  0
  -23.5880  -28.6020   23.2010 O   0  0  0  0  0  0  0  0  0  0  0  0
  -21.0870  -29.5760   21.5650 H   0  0  0  0  0  0  0  0  0  0  0  0
  -18.2300  -27.7250   22.6990 C   0  0  0  0  0  0  0  0  0  0  0  0
  -20.7790  -28.0470   22.9930 C   0  0  0  0  0  3  0  0  0  0  0  0
  -20.9230  -26.6310   22.3910 C   0  0  0  0  0  2  0  0  0  0  0  0
  -19.8360  -26.2990   21.3640 C   0  0  0  0  0  2  0  0  0  0  0  0
  -18.4450  -26.3940   21.9970 C   0  0  0  0  0  2  0  0  0  0  0  0
  -19.3250  -28.5080   23.1520 C   0  0  0  0  0  0  0  0  0  0  0  0
  -19.0670  -29.7530   23.7680 C   0  0  0  0  0  3  0  0  0  0  0  0
  -17.7480  -30.2130   23.9370 C   0  0  0  0  0  3  0  0  0  0  0  0
  -16.6680  -29.4270   23.4980 C   0  0  0  0  0  3  0  0  0  0  0  0
  -16.9110  -28.1850   22.8850 C   0  0  0  0  0  3  0  0  0  0  0  0
  -25.9410  -32.3420   23.7820 C   0  0  0  0  0  3  0  0  0  0  0  0
  -25.5840  -33.7250   24.1350 N   0  0  0  0  0  0  0  0  0  0  0  0
  -25.8810  -34.8010   23.3950 C   0  0  0  0  0  0  0  0  0  0  0  0
  -26.5550  -34.7390   22.3640 O   0  0  0  0  0  0  0  0  0  0  0  0
  -24.9850  -33.8450   24.9390 H   0  0  0  0  0  0  0  0  0  0  0  0
  -24.0850  -36.5350   23.0820 C   0  0  0  0  0  1  0  0  0  0  0  0
  -25.3480  -36.1650   23.8770 C   0  0  0  0  0  3  0  0  0  0  0  0
  -27.4570  -37.1140   24.7010 C   0  0  0  0  0  1  0  0  0  0  0  0
  -26.3410  -37.2570   23.7700 N   0  0  0  0  0  0  0  0  0  0  0  0
  -25.9030  -38.1600   23.9350 H   0  0  0  0  0  0  0  0  0  0  0  0
  -26.4610  -31.5670   25.0540 C   0  0  1  0  0  0  0  0  0  0  0  0
  -25.3610  -31.2820   26.1040 C   0  0  0  0  0  1  0  0  0  0  0  0
  -27.0910  -30.2130   24.6510 C   0  0  0  0  0  1  0  0  0  0  0  0
  -27.5810  -32.3840   25.7410 C   0  0  0  0  0  1  0  0  0  0  0  0
  1  6  2  0
  1  5  1  0
  2 51  1  0
  3  2  1  0
  3 52  1  0
  4  7  1  0
  4  2  2  0
  5  3  2  0
  6  4  1  0
  7  8  1  0
  9 21  1  0
 10 15  1  0
 11 12  1  0
 11 10  1  0
 13 12  1  0
 13 25  1  0
 13 14  1  0
 15  9  1  0
 15 14  1  0
 16  9  2  0
 18 17  1  0
 19 20  1  0
 19 21  1  0
 20  7  1  0
 20 17  1  0
 21 18  1  0
 22 23  2  0
 23 42  1  0
 24 23  1  0
 24 27  1  0
 25 26  1  0
 25 22  1  0
 26 24  2  0
 27 28  1  0
 28 29  2  0
 30 33  1  0
 30 29  1  0
 31 30  2  0
 32 31  1  0
 32 27  2  0
 33 34  1  0
 34 35  1  0
 35 36  2  0
 37 36  1  0
 37 41  1  0
 38 37  2  0
 39 34  2  0
 39 38  1  0
 40 39  1  0
 42 43  1  0
 43 46  1  0
 43 45  1  0
 44 42  2  0
 47 48  1  0
 47 22  1  0
 49 47  1  0
 51 50  1  0
 53 55  1  0
 53 52  1  0
 54 65  2  0
 55 60  1  0
 56 64  1  0
 56 66  1  0
 57 63  1  0
 57 59  1  0
 58 64  1  0
 59 58  1  0
 60 59  2  0
 61 55  2  0
 62 61  1  0
 62 57  2  0
 63 56  1  0
 64 54  1  0
 66 68  2  0
 67 66  1  0
 69 67  1  0
 70 79  2  0
 70 75  1  0
 71 67  1  0
 71 75  1  0
 72 71  1  0
 73 74  1  0
 73 72  1  0
 74 70  1  0
 75 76  2  0
 76 77  1  0
 78 77  2  0
 79 78  1  0
 80 54  1  0
 80 81  1  0
 80 90  1  0
 81 84  1  0
 82 86  1  0
 82 81  1  0
 83 82  2  0
 86 85  1  0
 88 86  1  0
 88 89  1  0
 88 87  1  0
 90 93  1  1
 90 91  1  0
 92 90  1  0
M  ISO  4   9 100  21 100  52 101  53 101
M  END
>  <TORSDO>  (47) 
F 18

>  <SCORE>  (47) 
-14.047

>  <name>  (47) 
46

>  <ligand_id>  (47) 
46

>  <original_smiles>  (47) 
[H]c1nc(N([H])C2([H])C([H])([H])N(C(=O)N3C([H])([H])C([H])([H])C([H])([H])C([H])(n4nc(-c5c([H])c([H])c(Oc6c([H])c([H])c(F)c([H])c6F)c([H])c5[H])c(C(=O)N([H])[H])c4N([H])[H])C3([H])[H])C([H])([H])C2([H])[H])c(C([H])([H])C([H])([H])[H])c(C([H])([H])Oc2c([H])c([H])c3c(c2[H])C([H])([H])N(C(=O)C([H])(N([H])C(=O)C([H])(N([H])C([H])([H])[H])C([H])([H])[H])C(C([H])([H])[H])(C([H])([H])[H])C([H])([H])[H])C([H])(C(=O)N([H])C2([H])c4c([H])c([H])c([H])c([H])c4C([H])([H])C([H])([H])C2([H])[H])C3([H])[H])n1

>  <smiles>  (47) 
[H]c1nc(N([H])C2([H])C([H])([H])N(C(=O)N3C([H])([H])C([H])([H])C([H])([H])C([H])(n4nc(-c5c([H])c([H])c(Oc6c([H])c([H])c(F)c([H])c6F)c([H])c5[H])c(C(=O)N([H])[H])c4N([H])[H])C3([H])[H])C([H])([H])C2([H])[H])c(C([H])([H])C([H])([H])[H])c(C([H])([H])Oc2c([H])c([H])c3c(c2[H])C([H])([H])N(C(=O)C([H])(N([H])C(=O)C([H])(N([H])C([H])([H])[H])C([H])([H])[H])C(C([H])([H])[H])(C([H])([H])[H])C([H])([H])[H])C([H])(C(=O)N([H])C2([H])c4c([H])c([H])c([H])c([H])c4C([H])([H])C([H])([H])C2([H])[H])C3([H])[H])n1

$$$$
47:0:0
     RDKit          3D

 92101  0  0  1  0  0  0  0  0999 V2000
  -27.0800  -19.9800   18.9980 C   0  0  0  0  0  2  0  0  0  0  0  0
  -27.0940  -21.5040   19.0050 C   0  0  0  0  0  2  0  0  0  0  0  0
  -28.3210  -19.9670   19.9400 C   0  0  0  0  0  3  0  0  0  0  0  0
  -28.5740  -21.4650   19.4360 C   0  0  0  0  0  3  0  0  0  0  0  0
  -30.6930  -14.5990   20.1530 C   0  0  0  0  0  0  0  0  0  0  0  0
  -30.3790  -12.3700   19.1230 C   0  0  0  0  0  2  0  0  0  0  0  0
  -29.4210  -12.5290   17.9250 C   0  0  0  0  0  2  0  0  0  0  0  0
  -27.9560  -12.3970   18.3880 C   0  0  0  0  0  2  0  0  0  0  0  0
  -27.6340  -13.2570   19.6410 C   0  0  0  0  0  3  0  0  0  0  0  0
  -28.7210  -13.1190   20.7300 C   0  0  0  0  0  2  0  0  0  0  0  0
  -30.0110  -13.4140   20.0980 N   0  0  0  0  0  0  0  0  0  0  0  0
  -31.8880  -14.6570   19.8500 O   0  0  0  0  0  0  0  0  0  0  0  0
  -30.2370  -16.7690   21.2350 C   0  0  0  0  0  2  0  0  0  0  0  0
  -29.8980  -16.5060   18.9050 C   0  0  0  0  0  2  0  0  0  0  0  0
  -29.3210  -18.0490   21.2040 C   0  0  0  0  0  2  0  0  0  0  0  0
  -28.9620  -17.7580   18.9010 C   0  0  0  0  0  2  0  0  0  0  0  0
  -29.9530  -15.7620   20.1870 N   0  0  0  0  0  0  0  0  0  0  0  0
  -29.2980  -18.7810   19.9160 N   0  0  0  0  0  0  0  0  0  0  0  0
  -25.2680  -13.8580   20.4310 C   0  0  0  0  0  0  0  0  0  0  0  0
  -24.2080  -13.0870   20.8170 C   0  0  0  0  0  0  0  0  0  0  0  0
  -24.6610  -11.7330   20.7660 C   0  0  0  0  0  0  0  0  0  0  0  0
  -26.3010  -12.9760   20.1610 N   0  0  0  0  0  0  0  0  0  0  0  0
  -25.9450  -11.6930   20.4260 N   0  0  0  0  0  0  0  0  0  0  0  0
  -23.9340  -10.4740   20.9640 C   0  0  0  0  0  0  0  0  0  0  0  0
  -24.3620   -9.5100   21.9010 C   0  0  0  0  0  3  0  0  0  0  0  0
  -23.6290   -8.3170   22.0860 C   0  0  0  0  0  3  0  0  0  0  0  0
  -22.4570   -8.0770   21.3310 C   0  0  0  0  0  0  0  0  0  0  0  0
  -22.0490   -9.0320   20.3830 C   0  0  0  0  0  3  0  0  0  0  0  0
  -22.7800  -10.2160   20.1960 C   0  0  0  0  0  3  0  0  0  0  0  0
  -21.7010   -6.9330   21.4240 O   0  0  0  0  0  0  0  0  0  0  0  0
  -21.6230   -6.2150   22.5910 C   0  0  0  0  0  0  0  0  0  0  0  0
  -21.1450   -6.7910   23.7880 C   0  0  0  0  0  3  0  0  0  0  0  0
  -21.0140   -5.9990   24.9460 C   0  0  0  0  0  3  0  0  0  0  0  0
  -21.3520   -4.6320   24.9070 C   0  0  0  0  0  0  0  0  0  0  0  0
  -21.8220   -4.0560   23.7140 C   0  0  0  0  0  3  0  0  0  0  0  0
  -21.9560   -4.8460   22.5570 C   0  0  0  0  0  0  0  0  0  0  0  0
  -22.3890   -4.2820   21.4030 F   0  0  0  0  0  0  0  0  0  0  0  0
  -21.2190   -3.8690   26.0180 F   0  0  0  0  0  0  0  0  0  0  0  0
  -22.8210  -13.5690   21.1270 C   0  0  0  0  0  0  0  0  0  0  0  0
  -22.1090  -12.8740   22.0040 N   0  0  0  0  0  0  0  0  0  0  0  0
  -22.3800  -14.6030   20.6250 O   0  0  0  0  0  0  0  0  0  0  0  0
  -22.4820  -12.0370   22.4290 H   0  0  0  0  0  0  0  0  0  0  0  0
  -21.1800  -13.1820   22.2560 H   0  0  0  0  0  0  0  0  0  0  0  0
  -25.4350  -15.2310   20.2680 N   0  0  0  0  0  0  0  0  0  0  0  0
  -24.6690  -15.8780   20.4140 H   0  0  0  0  0  0  0  0  0  0  0  0
  -26.2880  -15.6850   19.9710 H   0  0  0  0  0  0  0  0  0  0  0  0
  -28.8560  -22.5870   20.4160 N   0  0  0  0  0  4  0  0  0  0  0  0
  -29.7320  -22.4030   20.8840 H   0  0  0  0  0  0  0  0  0  0  0  0
  -28.1500  -22.5650   21.1360 H   0  0  0  0  0  0  0  0  0  0  0  0
  -28.9220  -23.9930   19.8360 C   0  0  0  0  0  3  0  0  0  0  0  0
  -28.2910  -25.1530   20.7080 C   0  0  0  0  0  3  0  0  0  0  0  0
  -28.4630  -26.5320   20.2200 O   0  0  0  0  0  0  0  0  0  0  0  0
  -24.6270  -31.8270   23.1950 C   0  0  0  0  0  0  0  0  0  0  0  0
  -27.3280  -27.3390   20.1770 C   0  0  0  0  0  0  0  0  0  0  0  0
  -23.4610  -30.4310   21.5230 C   0  0  0  0  0  3  0  0  0  0  0  0
  -24.9470  -28.9030   20.1150 C   0  0  0  0  0  0  0  0  0  0  0  0
  -25.9950  -30.7830   21.3810 C   0  0  0  0  0  2  0  0  0  0  0  0
  -26.0980  -29.4120   20.7320 C   0  0  0  0  0  0  0  0  0  0  0  0
  -27.2940  -28.6440   20.7500 C   0  0  0  0  0  3  0  0  0  0  0  0
  -26.1600  -26.8720   19.5360 C   0  0  0  0  0  3  0  0  0  0  0  0
  -24.9790  -27.6370   19.5070 C   0  0  0  0  0  3  0  0  0  0  0  0
  -23.6990  -29.7630   20.1450 C   0  0  0  0  0  2  0  0  0  0  0  0
  -24.7120  -31.0300   22.0900 N   0  0  0  0  0  0  0  0  0  0  0  0
  -23.5320  -32.0940   23.7110 O   0  0  0  0  0  0  0  0  0  0  0  0
  -22.7920  -29.4030   22.4670 C   0  0  0  0  0  0  0  0  0  0  0  0
  -21.4620  -29.2510   22.3450 N   0  0  0  0  0  0  0  0  0  0  0  0
  -23.4670  -28.7480   23.2640 O   0  0  0  0  0  0  0  0  0  0  0  0
  -20.9770  -29.8330   21.6750 H   0  0  0  0  0  0  0  0  0  0  0  0
  -18.0610  -28.1370   22.8750 C   0  0  0  0  0  0  0  0  0  0  0  0
  -20.6310  -28.3140   23.1020 C   0  0  0  0  0  3  0  0  0  0  0  0
  -20.6790  -26.9000   22.4790 C   0  0  0  0  0  2  0  0  0  0  0  0
  -19.5480  -26.6420   21.4790 C   0  0  0  0  0  2  0  0  0  0  0  0
  -18.1820  -26.8060   22.1520 C   0  0  0  0  0  2  0  0  0  0  0  0
  -19.2100  -28.8530   23.3050 C   0  0  0  0  0  0  0  0  0  0  0  0
  -19.0390  -30.1030   23.9390 C   0  0  0  0  0  3  0  0  0  0  0  0
  -17.7520  -30.6350   24.1500 C   0  0  0  0  0  3  0  0  0  0  0  0
  -16.6180  -29.9160   23.7330 C   0  0  0  0  0  3  0  0  0  0  0  0
  -16.7740  -28.6690   23.1030 C   0  0  0  0  0  3  0  0  0  0  0  0
  -25.8950  -32.4630   23.8430 C   0  0  0  0  0  3  0  0  0  0  0  0
  -26.3980  -31.6850   25.1210 C   0  0  1  0  0  0  0  0  0  0  0  0
  -25.2870  -31.4190   26.1660 C   0  0  0  0  0  1  0  0  0  0  0  0
  -27.0080  -30.3200   24.7250 C   0  0  0  0  0  1  0  0  0  0  0  0
  -27.5310  -32.4840   25.8100 C   0  0  0  0  0  1  0  0  0  0  0  0
  -25.5690  -33.8560   24.1830 N   0  0  0  0  0  0  0  0  0  0  0  0
  -25.8900  -34.9190   23.4320 C   0  0  0  0  0  0  0  0  0  0  0  0
  -26.5650  -34.8320   22.4030 O   0  0  0  0  0  0  0  0  0  0  0  0
  -24.9780  -33.9960   24.9890 H   0  0  0  0  0  0  0  0  0  0  0  0
  -24.1410  -36.6920   23.0860 C   0  0  0  0  0  1  0  0  0  0  0  0
  -25.3840  -36.2970   23.8990 C   0  0  0  0  0  3  0  0  0  0  0  0
  -27.5000  -37.2020   24.7530 C   0  0  0  0  0  1  0  0  0  0  0  0
  -26.4050  -37.3630   23.7990 N   0  0  0  0  0  0  0  0  0  0  0  0
  -25.9870  -38.2770   23.9500 H   0  0  0  0  0  0  0  0  0  0  0  0
  1  2  1  0
  2  4  1  0
  3  1  1  0
  4  3  1  0
  4 47  1  0
  5 17  1  0
  6 11  1  0
  7  8  1  0
  7  6  1  0
  9  8  1  0
  9 22  1  0
  9 10  1  0
 11  5  1  0
 11 10  1  0
 12  5  2  0
 14 17  1  0
 15 13  1  0
 16 14  1  0
 17 13  1  0
 18 16  1  0
 18  3  1  0
 18 15  1  0
 19 20  2  0
 20 39  1  0
 21 20  1  0
 21 24  1  0
 22 23  1  0
 22 19  1  0
 23 21  2  0
 24 25  1  0
 25 26  2  0
 27 30  1  0
 27 26  1  0
 28 27  2  0
 29 28  1  0
 29 24  2  0
 30 31  1  0
 31 32  1  0
 32 33  2  0
 34 33  1  0
 34 38  1  0
 35 34  2  0
 36 31  2  0
 36 35  1  0
 37 36  1  0
 39 40  1  0
 40 43  1  0
 40 42  1  0
 41 39  2  0
 44 45  1  0
 44 19  1  0
 46 44  1  0
 47 48  1  0
 47 49  1  0
 50 47  1  0
 50 51  2  0
 52 51  1  0
 53 64  2  0
 54 52  1  0
 54 59  1  0
 55 63  1  0
 55 65  1  0
 56 62  1  0
 56 58  1  0
 57 63  1  0
 58 59  2  0
 58 57  1  0
 60 54  2  0
 61 60  1  0
 61 56  2  0
 62 55  1  0
 63 53  1  0
 65 67  2  0
 66 65  1  0
 68 66  1  0
 69 78  2  0
 69 74  1  0
 70 66  1  0
 70 74  1  0
 71 70  1  0
 72 73  1  0
 72 71  1  0
 73 69  1  0
 74 75  2  0
 75 76  1  0
 77 76  2  0
 78 77  1  0
 79 53  1  0
 79 84  1  0
 79 80  1  0
 80 83  1  1
 80 81  1  0
 82 80  1  0
 84 87  1  0
 85 89  1  0
 85 84  1  0
 86 85  2  0
 89 88  1  0
 91 89  1  0
 91 92  1  0
 91 90  1  0
M  ISO  4   5 100  17 100  51 101  52 101
M  END
>  <TORSDO>  (48) 
F 19

>  <SCORE>  (48) 
-14.017

>  <name>  (48) 
47

>  <ligand_id>  (48) 
47

>  <original_smiles>  (48) 
[H]c1c([H])c([H])c2c(c1[H])C([H])([H])C([H])([H])C([H])([H])C2([H])N([H])C(=O)C1([H])N(C(=O)C([H])(N([H])C(=O)C([H])(N([H])C([H])([H])[H])C([H])([H])[H])C(C([H])([H])[H])(C([H])([H])[H])C([H])([H])[H])C([H])([H])c2c([H])c(OC([H])([H])C([H])([H])[N+]([H])([H])C3([H])C([H])([H])C([H])([H])C3([H])N3C([H])([H])C([H])([H])N(C(=O)N4C([H])([H])C([H])([H])C([H])([H])C([H])(n5nc(-c6c([H])c([H])c(Oc7c([H])c([H])c(F)c([H])c7F)c([H])c6[H])c(C(=O)N([H])[H])c5N([H])[H])C4([H])[H])C([H])([H])C3([H])[H])c([H])c([H])c2C1([H])[H]

>  <smiles>  (48) 
[H]c1c([H])c([H])c2c(c1[H])C([H])([H])C([H])([H])C([H])([H])C2([H])N([H])C(=O)C1([H])N(C(=O)C([H])(N([H])C(=O)C([H])(N([H])C([H])([H])[H])C([H])([H])[H])C(C([H])([H])[H])(C([H])([H])[H])C([H])([H])[H])C([H])([H])c2c([H])c(OC([H])([H])C([H])([H])[N+]([H])([H])C3([H])C([H])([H])C([H])([H])C3([H])N3C([H])([H])C([H])([H])N(C(=O)N4C([H])([H])C([H])([H])C([H])([H])C([H])(n5nc(-c6c([H])c([H])c(Oc7c([H])c([H])c(F)c([H])c7F)c([H])c6[H])c(C(=O)N([H])[H])c5N([H])[H])C4([H])[H])C([H])([H])C3([H])[H])c([H])c([H])c2C1([H])[H]

$$$$
48:0:0
     RDKit          3D

 91100  0  0  1  0  0  0  0  0999 V2000
  -30.6680  -14.8610   20.4260 C   0  0  0  0  0  0  0  0  0  0  0  0
  -30.3720  -12.5620   19.4570 C   0  0  0  0  0  2  0  0  0  0  0  0
  -29.4700  -12.5540   18.2090 C   0  0  0  0  0  2  0  0  0  0  0  0
  -28.0030  -12.3650   18.6270 C   0  0  0  0  0  2  0  0  0  0  0  0
  -27.5950  -13.3060   19.7910 C   0  0  0  0  0  3  0  0  0  0  0  0
  -28.6380  -13.3380   20.9310 C   0  0  0  0  0  2  0  0  0  0  0  0
  -29.9260  -13.6920   20.3230 N   0  0  0  0  0  0  0  0  0  0  0  0
  -31.8760  -14.7520   20.1850 O   0  0  0  0  0  0  0  0  0  0  0  0
  -29.9250  -23.0030   20.5370 C   0  0  0  0  0  3  0  0  0  0  0  0
  -28.6870  -23.5370   20.0620 C   0  0  0  0  0  0  0  0  0  0  0  0
  -29.1590  -20.7740   20.4030 C   0  0  0  0  0  0  0  0  0  0  0  0
  -30.7070  -18.7470   20.8960 C   0  0  0  0  0  3  0  0  0  0  0  0
  -28.4380  -18.2340   20.2550 C   0  0  0  0  0  3  0  0  0  0  0  0
  -31.0560  -17.3530   20.2230 C   0  0  0  0  0  3  0  0  0  0  0  0
  -28.7950  -16.7500   20.8020 C   0  0  0  0  0  3  0  0  0  0  0  0
  -31.1150  -23.9040   20.8050 C   0  0  0  0  0  1  0  0  0  0  0  0
  -30.1440  -21.6460   20.7080 N   0  0  0  0  0  0  0  0  0  0  0  0
  -27.7330  -22.5790   19.8050 N   0  0  0  0  0  0  0  0  0  0  0  0
  -27.9550  -21.2340   19.9790 N   0  0  0  0  0  2  0  0  0  0  0  0
  -29.4120  -19.3340   20.5050 N   0  0  0  0  0  0  0  0  0  0  0  0
  -30.1460  -16.1830   20.4850 N   0  0  0  0  0  0  0  0  0  0  0  0
  -25.2070  -13.9030   20.4900 C   0  0  0  0  0  0  0  0  0  0  0  0
  -24.1360  -13.1350   20.8530 C   0  0  0  0  0  0  0  0  0  0  0  0
  -24.5990  -11.7840   20.8470 C   0  0  0  0  0  0  0  0  0  0  0  0
  -26.2520  -13.0210   20.2790 N   0  0  0  0  0  0  0  0  0  0  0  0
  -25.8960  -11.7420   20.5610 N   0  0  0  0  0  0  0  0  0  0  0  0
  -23.8670  -10.5250   21.0360 C   0  0  0  0  0  0  0  0  0  0  0  0
  -24.2890   -9.5590   21.9750 C   0  0  0  0  0  3  0  0  0  0  0  0
  -23.5550   -8.3660   22.1540 C   0  0  0  0  0  3  0  0  0  0  0  0
  -22.3850   -8.1320   21.3930 C   0  0  0  0  0  0  0  0  0  0  0  0
  -21.9830   -9.0870   20.4420 C   0  0  0  0  0  3  0  0  0  0  0  0
  -22.7180  -10.2710   20.2610 C   0  0  0  0  0  3  0  0  0  0  0  0
  -21.6250   -6.9920   21.4800 O   0  0  0  0  0  0  0  0  0  0  0  0
  -21.5710   -6.2490   22.6330 C   0  0  0  0  0  0  0  0  0  0  0  0
  -21.1610   -6.8110   23.8620 C   0  0  0  0  0  3  0  0  0  0  0  0
  -21.0540   -5.9960   25.0060 C   0  0  0  0  0  3  0  0  0  0  0  0
  -21.3450   -4.6210   24.9230 C   0  0  0  0  0  0  0  0  0  0  0  0
  -21.7480   -4.0590   23.6980 C   0  0  0  0  0  3  0  0  0  0  0  0
  -21.8570   -4.8720   22.5550 C   0  0  0  0  0  0  0  0  0  0  0  0
  -22.2250   -4.3210   21.3730 F   0  0  0  0  0  0  0  0  0  0  0  0
  -21.2350   -3.8360   26.0200 F   0  0  0  0  0  0  0  0  0  0  0  0
  -22.7350  -13.6190   21.0890 C   0  0  0  0  0  0  0  0  0  0  0  0
  -21.9910  -12.9380   21.9530 N   0  0  0  0  0  0  0  0  0  0  0  0
  -22.3100  -14.6360   20.5430 O   0  0  0  0  0  0  0  0  0  0  0  0
  -22.3500  -12.1170   22.4170 H   0  0  0  0  0  0  0  0  0  0  0  0
  -21.0510  -13.2450   22.1570 H   0  0  0  0  0  0  0  0  0  0  0  0
  -25.3700  -15.2710   20.2920 N   0  0  0  0  0  0  0  0  0  0  0  0
  -24.5930  -15.9180   20.3740 H   0  0  0  0  0  0  0  0  0  0  0  0
  -26.2070  -15.7010   19.9260 H   0  0  0  0  0  0  0  0  0  0  0  0
  -28.4690  -25.0330   19.4630 C   0  0  0  0  0  2  0  0  0  0  0  0
  -28.3690  -26.3400   20.2350 O   0  0  0  0  0  0  0  0  0  0  0  0
  -24.6460  -31.8660   23.1970 C   0  0  0  0  0  0  0  0  0  0  0  0
  -27.2750  -27.2490   20.1320 C   0  0  0  0  0  0  0  0  0  0  0  0
  -23.4580  -30.4680   21.5510 C   0  0  0  0  0  3  0  0  0  0  0  0
  -24.9190  -28.9260   20.1170 C   0  0  0  0  0  0  0  0  0  0  0  0
  -26.0050  -30.7740   21.3840 C   0  0  0  0  0  2  0  0  0  0  0  0
  -26.0900  -29.3930   20.7250 C   0  0  0  0  0  0  0  0  0  0  0  0
  -27.2660  -28.5670   20.7230 C   0  0  0  0  0  3  0  0  0  0  0  0
  -26.0670  -26.8590   19.5060 C   0  0  0  0  0  3  0  0  0  0  0  0
  -24.9170  -27.6690   19.4970 C   0  0  0  0  0  3  0  0  0  0  0  0
  -23.6810  -29.8030   20.1670 C   0  0  0  0  0  2  0  0  0  0  0  0
  -24.7220  -31.0550   22.0990 N   0  0  0  0  0  0  0  0  0  0  0  0
  -23.5580  -32.1370   23.7270 O   0  0  0  0  0  0  0  0  0  0  0  0
  -22.7930  -29.4460   22.5040 C   0  0  0  0  0  0  0  0  0  0  0  0
  -21.4640  -29.2780   22.3890 N   0  0  0  0  0  0  0  0  0  0  0  0
  -23.4730  -28.8070   23.3120 O   0  0  0  0  0  0  0  0  0  0  0  0
  -20.9720  -29.8450   21.7120 H   0  0  0  0  0  0  0  0  0  0  0  0
  -18.0820  -28.1000   22.9180 C   0  0  0  0  0  0  0  0  0  0  0  0
  -20.6460  -28.3380   23.1580 C   0  0  0  0  0  3  0  0  0  0  0  0
  -20.7290  -26.9130   22.5630 C   0  0  0  0  0  2  0  0  0  0  0  0
  -19.6120  -26.6120   21.5580 C   0  0  0  0  0  2  0  0  0  0  0  0
  -18.2400  -26.7590   22.2220 C   0  0  0  0  0  2  0  0  0  0  0  0
  -19.2110  -28.8480   23.3440 C   0  0  0  0  0  0  0  0  0  0  0  0
  -19.0090  -30.1030   23.9580 C   0  0  0  0  0  3  0  0  0  0  0  0
  -17.7100  -30.6110   24.1480 C   0  0  0  0  0  3  0  0  0  0  0  0
  -16.5950  -29.8600   23.7380 C   0  0  0  0  0  3  0  0  0  0  0  0
  -16.7830  -28.6050   23.1290 C   0  0  0  0  0  3  0  0  0  0  0  0
  -25.9210  -32.5070   23.8260 C   0  0  0  0  0  3  0  0  0  0  0  0
  -25.5960  -33.9000   24.1670 N   0  0  0  0  0  0  0  0  0  0  0  0
  -25.9140  -34.9630   23.4170 C   0  0  0  0  0  0  0  0  0  0  0  0
  -26.5790  -34.8750   22.3810 O   0  0  0  0  0  0  0  0  0  0  0  0
  -25.0030  -34.0420   24.9720 H   0  0  0  0  0  0  0  0  0  0  0  0
  -24.1630  -36.7420   23.0940 C   0  0  0  0  0  1  0  0  0  0  0  0
  -25.4170  -36.3440   23.8890 C   0  0  0  0  0  3  0  0  0  0  0  0
  -27.5510  -37.2460   24.7030 C   0  0  0  0  0  1  0  0  0  0  0  0
  -26.4370  -37.4100   23.7730 N   0  0  0  0  0  0  0  0  0  0  0  0
  -26.0230  -38.3240   23.9320 H   0  0  0  0  0  0  0  0  0  0  0  0
  -26.4390  -31.7330   25.1010 C   0  0  1  0  0  0  0  0  0  0  0  0
  -25.3460  -31.4850   26.1660 C   0  0  0  0  0  1  0  0  0  0  0  0
  -27.0300  -30.3600   24.7080 C   0  0  0  0  0  1  0  0  0  0  0  0
  -27.5840  -32.5320   25.7680 C   0  0  0  0  0  1  0  0  0  0  0  0
  1 21  1  0
  2  7  1  0
  3  4  1  0
  3  2  1  0
  5  4  1  0
  5 25  1  0
  5  6  1  0
  7  1  1  0
  7  6  1  0
  8  1  2  0
  9 17  1  0
  9 16  1  0
 10  9  1  0
 11 20  1  0
 11 17  2  0
 13 20  1  0
 13 15  2  0
 14 21  1  0
 14 12  2  0
 18 19  1  0
 18 10  2  0
 19 11  1  0
 20 12  1  0
 21 15  1  0
 22 23  2  0
 23 42  1  0
 24 23  1  0
 24 27  1  0
 25 22  1  0
 25 26  1  0
 26 24  2  0
 27 28  1  0
 28 29  2  0
 30 33  1  0
 30 29  1  0
 31 30  2  0
 32 31  1  0
 32 27  2  0
 33 34  1  0
 34 35  1  0
 35 36  2  0
 37 36  1  0
 37 41  1  0
 38 37  2  0
 39 34  2  0
 39 38  1  0
 40 39  1  0
 42 43  1  0
 43 46  1  0
 43 45  1  0
 44 42  2  0
 47 48  1  0
 47 22  1  0
 49 47  1  0
 50 10  1  0
 50 51  1  0
 52 63  2  0
 53 51  1  0
 53 58  1  0
 54 62  1  0
 54 64  1  0
 55 61  1  0
 55 57  1  0
 56 62  1  0
 57 56  1  0
 58 57  2  0
 59 53  2  0
 60 59  1  0
 60 55  2  0
 61 54  1  0
 62 52  1  0
 64 66  2  0
 65 64  1  0
 67 65  1  0
 68 77  2  0
 68 73  1  0
 69 65  1  0
 69 73  1  0
 70 69  1  0
 71 72  1  0
 71 70  1  0
 72 68  1  0
 73 74  2  0
 74 75  1  0
 76 75  2  0
 77 76  1  0
 78 52  1  0
 78 79  1  0
 78 88  1  0
 79 82  1  0
 80 84  1  0
 80 79  1  0
 81 80  2  0
 84 83  1  0
 86 84  1  0
 86 87  1  0
 86 85  1  0
 88 91  1  1
 88 89  1  0
 90 88  1  0
M  ISO  4   1 100  21 100  50 101  51 101
M  END
>  <TORSDO>  (49) 
F 16

>  <SCORE>  (49) 
-15.767

>  <name>  (49) 
48

>  <ligand_id>  (49) 
48

>  <original_smiles>  (49) 
[H]c1c([H])c([H])c2c(c1[H])C([H])([H])C([H])([H])C([H])([H])C2([H])N([H])C(=O)C1([H])N(C(=O)C([H])(N([H])C(=O)C([H])(N([H])C([H])([H])[H])C([H])([H])[H])C(C([H])([H])[H])(C([H])([H])[H])C([H])([H])[H])C([H])([H])c2c([H])c(OC([H])([H])c3nnc(N4C([H])([H])C([H])([H])N(C(=O)N5C([H])([H])C([H])([H])C([H])([H])C([H])(n6nc(-c7c([H])c([H])c(Oc8c([H])c([H])c(F)c([H])c8F)c([H])c7[H])c(C(=O)N([H])[H])c6N([H])[H])C5([H])[H])C([H])([H])C4([H])[H])nc3C([H])([H])[H])c([H])c([H])c2C1([H])[H]

>  <smiles>  (49) 
[H]c1c([H])c([H])c2c(c1[H])C([H])([H])C([H])([H])C([H])([H])C2([H])N([H])C(=O)C1([H])N(C(=O)C([H])(N([H])C(=O)C([H])(N([H])C([H])([H])[H])C([H])([H])[H])C(C([H])([H])[H])(C([H])([H])[H])C([H])([H])[H])C([H])([H])c2c([H])c(OC([H])([H])c3nnc(N4C([H])([H])C([H])([H])N(C(=O)N5C([H])([H])C([H])([H])C([H])([H])C([H])(n6nc(-c7c([H])c([H])c(Oc8c([H])c([H])c(F)c([H])c8F)c([H])c7[H])c(C(=O)N([H])[H])c6N([H])[H])C5([H])[H])C([H])([H])C4([H])[H])nc3C([H])([H])[H])c([H])c([H])c2C1([H])[H]

$$$$
49:0:0
     RDKit          3D

 91100  0  0  1  0  0  0  0  0999 V2000
  -27.5340  -20.2970   20.3270 C   0  0  0  0  0  2  0  0  0  0  0  0
  -27.6400  -21.7710   19.8540 C   0  0  0  0  0  2  0  0  0  0  0  0
  -29.7230  -21.1990   20.5830 C   0  0  0  0  0  2  0  0  0  0  0  0
  -28.9230  -19.8270   20.8210 C   0  0  0  0  0  3  0  0  0  0  0  0
  -28.7430  -22.3470   20.6140 N   0  0  0  0  0  0  0  0  0  0  0  0
  -30.7740  -14.9010   20.3090 C   0  0  0  0  0  0  0  0  0  0  0  0
  -30.5660  -12.6050   19.3510 C   0  0  0  0  0  2  0  0  0  0  0  0
  -29.6530  -12.6200   18.1070 C   0  0  0  0  0  2  0  0  0  0  0  0
  -28.1800  -12.4380   18.5210 C   0  0  0  0  0  2  0  0  0  0  0  0
  -27.7660  -13.3670   19.6930 C   0  0  0  0  0  3  0  0  0  0  0  0
  -28.8080  -13.3690   20.8330 C   0  0  0  0  0  2  0  0  0  0  0  0
  -30.1070  -13.7000   20.2370 N   0  0  0  0  0  0  0  0  0  0  0  0
  -31.9930  -14.9120   20.1020 O   0  0  0  0  0  0  0  0  0  0  0  0
  -30.4230  -16.8570   18.8130 C   0  0  0  0  0  2  0  0  0  0  0  0
  -29.5340  -17.1710   20.9250 C   0  0  0  0  0  2  0  0  0  0  0  0
  -30.2650  -18.3930   19.0740 C   0  0  0  0  0  3  0  0  0  0  0  0
  -29.8590  -19.1430   17.7850 C   0  0  0  0  0  1  0  0  0  0  0  0
  -30.0600  -16.0740   20.0250 N   0  0  0  0  0  0  0  0  0  0  0  0
  -29.2800  -18.4690   20.1600 N   0  0  2  0  0  4  0  0  0  0  0  0
  -28.4070  -18.2590   19.7000 H   0  0  0  0  0  0  0  0  0  0  0  0
  -25.3800  -13.9450   20.4270 C   0  0  0  0  0  0  0  0  0  0  0  0
  -24.3190  -13.1700   20.7970 C   0  0  0  0  0  0  0  0  0  0  0  0
  -24.7880  -11.8200   20.7650 C   0  0  0  0  0  0  0  0  0  0  0  0
  -26.4250  -13.0700   20.1830 N   0  0  0  0  0  0  0  0  0  0  0  0
  -26.0780  -11.7860   20.4550 N   0  0  0  0  0  0  0  0  0  0  0  0
  -24.0670  -10.5520   20.9430 C   0  0  0  0  0  0  0  0  0  0  0  0
  -24.4820   -9.5940   21.8920 C   0  0  0  0  0  3  0  0  0  0  0  0
  -23.7560   -8.3940   22.0610 C   0  0  0  0  0  3  0  0  0  0  0  0
  -22.6020   -8.1420   21.2800 C   0  0  0  0  0  0  0  0  0  0  0  0
  -22.2090   -9.0910   20.3200 C   0  0  0  0  0  3  0  0  0  0  0  0
  -22.9350  -10.2840   20.1490 C   0  0  0  0  0  3  0  0  0  0  0  0
  -21.8530   -6.9930   21.3580 O   0  0  0  0  0  0  0  0  0  0  0  0
  -21.7470   -6.2790   22.5270 C   0  0  0  0  0  0  0  0  0  0  0  0
  -21.2280   -6.8520   23.7080 C   0  0  0  0  0  3  0  0  0  0  0  0
  -21.0770   -6.0630   24.8660 C   0  0  0  0  0  3  0  0  0  0  0  0
  -21.4320   -4.7000   24.8400 C   0  0  0  0  0  0  0  0  0  0  0  0
  -21.9410   -4.1270   23.6600 C   0  0  0  0  0  3  0  0  0  0  0  0
  -22.0970   -4.9140   22.5070 C   0  0  0  0  0  0  0  0  0  0  0  0
  -22.5680   -4.3520   21.3670 F   0  0  0  0  0  0  0  0  0  0  0  0
  -21.2780   -3.9370   25.9460 F   0  0  0  0  0  0  0  0  0  0  0  0
  -22.9180  -13.6420   21.0540 C   0  0  0  0  0  0  0  0  0  0  0  0
  -22.1810  -12.9440   21.9100 N   0  0  0  0  0  0  0  0  0  0  0  0
  -22.4800  -14.6660   20.5290 O   0  0  0  0  0  0  0  0  0  0  0  0
  -22.5450  -12.1250   22.3710 H   0  0  0  0  0  0  0  0  0  0  0  0
  -21.2390  -13.2420   22.1140 H   0  0  0  0  0  0  0  0  0  0  0  0
  -25.5450  -15.3160   20.2530 N   0  0  0  0  0  0  0  0  0  0  0  0
  -24.7780  -15.9740   20.3490 H   0  0  0  0  0  0  0  0  0  0  0  0
  -26.3730  -15.7300   19.8440 H   0  0  0  0  0  0  0  0  0  0  0  0
  -29.1490  -23.7740   20.2390 C   0  0  0  0  0  3  0  0  0  0  0  0
  -28.0280  -24.9530   20.1740 C   0  0  0  0  0  3  0  0  0  0  0  0
  -28.3180  -26.4410   20.1480 O   0  0  0  0  0  0  0  0  0  0  0  0
  -24.6000  -31.9270   23.1600 C   0  0  0  0  0  0  0  0  0  0  0  0
  -27.2260  -27.3460   20.0930 C   0  0  0  0  0  0  0  0  0  0  0  0
  -23.4050  -30.5300   21.5140 C   0  0  0  0  0  3  0  0  0  0  0  0
  -24.8650  -28.9890   20.0840 C   0  0  0  0  0  0  0  0  0  0  0  0
  -25.9470  -30.8530   21.3320 C   0  0  0  0  0  2  0  0  0  0  0  0
  -26.0360  -29.4710   20.6810 C   0  0  0  0  0  0  0  0  0  0  0  0
  -27.2220  -28.6620   20.6740 C   0  0  0  0  0  3  0  0  0  0  0  0
  -26.0270  -26.9450   19.4570 C   0  0  0  0  0  3  0  0  0  0  0  0
  -24.8640  -27.7350   19.4610 C   0  0  0  0  0  3  0  0  0  0  0  0
  -23.6270  -29.8610   20.1340 C   0  0  0  0  0  2  0  0  0  0  0  0
  -24.6700  -31.1220   22.0580 N   0  0  0  0  0  0  0  0  0  0  0  0
  -23.5140  -32.1950   23.6960 O   0  0  0  0  0  0  0  0  0  0  0  0
  -22.7440  -29.5080   22.4700 C   0  0  0  0  0  0  0  0  0  0  0  0
  -21.4160  -29.3400   22.3630 N   0  0  0  0  0  0  0  0  0  0  0  0
  -23.4270  -28.8680   23.2740 O   0  0  0  0  0  0  0  0  0  0  0  0
  -20.9200  -29.9100   21.6930 H   0  0  0  0  0  0  0  0  0  0  0  0
  -18.0370  -28.1660   22.9060 C   0  0  0  0  0  0  0  0  0  0  0  0
  -20.6020  -28.3980   23.1330 C   0  0  0  0  0  3  0  0  0  0  0  0
  -20.6800  -26.9740   22.5350 C   0  0  0  0  0  2  0  0  0  0  0  0
  -19.5580  -26.6790   21.5320 C   0  0  0  0  0  2  0  0  0  0  0  0
  -18.1880  -26.8270   22.2010 C   0  0  0  0  0  2  0  0  0  0  0  0
  -19.1700  -28.9110   23.3280 C   0  0  0  0  0  0  0  0  0  0  0  0
  -18.9730  -30.1620   23.9480 C   0  0  0  0  0  3  0  0  0  0  0  0
  -17.6760  -30.6730   24.1500 C   0  0  0  0  0  3  0  0  0  0  0  0
  -16.5570  -29.9240   23.7440 C   0  0  0  0  0  3  0  0  0  0  0  0
  -16.7380  -28.6730   23.1290 C   0  0  0  0  0  3  0  0  0  0  0  0
  -25.8760  -32.5690   23.7840 C   0  0  0  0  0  3  0  0  0  0  0  0
  -25.5510  -33.9600   24.1300 N   0  0  0  0  0  0  0  0  0  0  0  0
  -25.8600  -35.0250   23.3750 C   0  0  0  0  0  0  0  0  0  0  0  0
  -26.5130  -34.9420   22.3330 O   0  0  0  0  0  0  0  0  0  0  0  0
  -24.9760  -34.0980   24.9460 H   0  0  0  0  0  0  0  0  0  0  0  0
  -24.1100  -36.8090   23.0690 C   0  0  0  0  0  1  0  0  0  0  0  0
  -25.3640  -36.4040   23.8590 C   0  0  0  0  0  3  0  0  0  0  0  0
  -27.4970  -37.3100   24.6760 C   0  0  0  0  0  1  0  0  0  0  0  0
  -26.3840  -37.4700   23.7440 N   0  0  0  0  0  0  0  0  0  0  0  0
  -25.9660  -38.3840   23.9040 H   0  0  0  0  0  0  0  0  0  0  0  0
  -26.4090  -31.7900   25.0500 C   0  0  1  0  0  0  0  0  0  0  0  0
  -25.3260  -31.5310   26.1230 C   0  0  0  0  0  1  0  0  0  0  0  0
  -27.0020  -30.4220   24.6410 C   0  0  0  0  0  1  0  0  0  0  0  0
  -27.5510  -32.5910   25.7140 C   0  0  0  0  0  1  0  0  0  0  0  0
  2  1  1  0
  2  5  1  0
  3  5  1  0
  3  4  1  0
  4  1  1  0
  7 12  1  0
  8  9  1  0
  8  7  1  0
 10  9  1  0
 10 24  1  0
 10 11  1  0
 12  6  1  0
 12 11  1  0
 13  6  2  0
 14 16  1  0
 14 18  1  0
 16 17  1  0
 16 19  1  0
 18  6  1  0
 18 15  1  0
 19 20  1  6
 19  4  1  0
 19 15  1  0
 21 22  2  0
 22 41  1  0
 23 22  1  0
 23 26  1  0
 24 21  1  0
 24 25  1  0
 25 23  2  0
 26 27  1  0
 27 28  2  0
 29 32  1  0
 29 28  1  0
 30 29  2  0
 31 30  1  0
 31 26  2  0
 32 33  1  0
 33 34  1  0
 34 35  2  0
 36 35  1  0
 36 40  1  0
 37 36  2  0
 38 33  2  0
 38 37  1  0
 39 38  1  0
 41 42  1  0
 42 45  1  0
 42 44  1  0
 43 41  2  0
 46 47  1  0
 46 21  1  0
 48 46  1  0
 49  5  1  0
 50 49  2  0
 51 50  1  0
 52 63  2  0
 53 51  1  0
 53 58  1  0
 54 62  1  0
 54 64  1  0
 55 61  1  0
 55 57  1  0
 56 62  1  0
 57 56  1  0
 58 57  2  0
 59 60  1  0
 59 53  2  0
 60 55  2  0
 61 54  1  0
 62 52  1  0
 64 66  2  0
 65 64  1  0
 67 65  1  0
 68 77  2  0
 68 73  1  0
 69 65  1  0
 69 73  1  0
 70 69  1  0
 71 72  1  0
 71 70  1  0
 72 68  1  0
 73 74  2  0
 74 75  1  0
 76 75  2  0
 77 76  1  0
 78 52  1  0
 78 79  1  0
 78 88  1  0
 79 82  1  0
 80 84  1  0
 80 79  1  0
 81 80  2  0
 84 83  1  0
 86 84  1  0
 86 87  1  0
 86 85  1  0
 88 91  1  1
 88 89  1  0
 90 88  1  0
M  ISO  4   6 100  18 100  50 101  51 101
M  END
>  <TORSDO>  (50) 
F 18

>  <SCORE>  (50) 
-14.377

>  <name>  (50) 
49

>  <ligand_id>  (50) 
49

>  <original_smiles>  (50) 
[H]c1c([H])c([H])c2c(c1[H])C([H])([H])C([H])([H])C([H])([H])C2([H])N([H])C(=O)C1([H])N(C(=O)C([H])(N([H])C(=O)C([H])(N([H])C([H])([H])[H])C([H])([H])[H])C(C([H])([H])[H])(C([H])([H])[H])C([H])([H])[H])C([H])([H])c2c([H])c(OC([H])([H])C([H])([H])N3C([H])([H])C([H])([H])C([H])([N+]4([H])C([H])([H])N(C(=O)N5C([H])([H])C([H])([H])C([H])([H])C([H])(n6nc(-c7c([H])c([H])c(Oc8c([H])c([H])c(F)c([H])c8F)c([H])c7[H])c(C(=O)N([H])[H])c6N([H])[H])C5([H])[H])C([H])([H])C4([H])C([H])([H])[H])C3([H])[H])c([H])c([H])c2C1([H])[H]

>  <smiles>  (50) 
[H]c1c([H])c([H])c2c(c1[H])C([H])([H])C([H])([H])C([H])([H])C2([H])N([H])C(=O)C1([H])N(C(=O)C([H])(N([H])C(=O)C([H])(N([H])C([H])([H])[H])C([H])([H])[H])C(C([H])([H])[H])(C([H])([H])[H])C([H])([H])[H])C([H])([H])c2c([H])c(OC([H])([H])C([H])([H])N3C([H])([H])C([H])([H])C([H])([N+]4([H])C([H])([H])N(C(=O)N5C([H])([H])C([H])([H])C([H])([H])C([H])(n6nc(-c7c([H])c([H])c(Oc8c([H])c([H])c(F)c([H])c8F)c([H])c7[H])c(C(=O)N([H])[H])c6N([H])[H])C5([H])[H])C([H])([H])C4([H])C([H])([H])[H])C3([H])[H])c([H])c([H])c2C1([H])[H]

$$$$
50:0:0
     RDKit          3D

 89 98  0  0  1  0  0  0  0  0999 V2000
  -28.5470  -23.0130   21.6200 C   0  0  0  0  0  3  0  0  0  0  0  0
  -28.8020  -21.6290   21.8910 C   0  0  0  0  0  3  0  0  0  0  0  0
  -28.6050  -23.4960   20.2890 C   0  0  0  0  0  0  0  0  0  0  0  0
  -29.1180  -20.7170   20.8450 C   0  0  0  0  0  0  0  0  0  0  0  0
  -28.9550  -22.5640   19.3260 N   0  0  0  0  0  0  0  0  0  0  0  0
  -29.2180  -21.2380   19.5820 N   0  0  0  0  0  0  0  0  0  0  0  0
  -27.8930  -24.8680   19.8250 C   0  0  0  0  0  2  0  0  0  0  0  0
  -28.2140  -26.3020   20.2320 O   0  0  0  0  0  0  0  0  0  0  0  0
  -24.5980  -31.8990   23.2210 C   0  0  0  0  0  0  0  0  0  0  0  0
  -27.1640  -27.2690   20.1370 C   0  0  0  0  0  0  0  0  0  0  0  0
  -23.3870  -30.5090   21.5870 C   0  0  0  0  0  3  0  0  0  0  0  0
  -24.8270  -28.9660   20.1370 C   0  0  0  0  0  0  0  0  0  0  0  0
  -25.9350  -30.7980   21.4020 C   0  0  0  0  0  2  0  0  0  0  0  0
  -26.0060  -29.4170   20.7440 C   0  0  0  0  0  0  0  0  0  0  0  0
  -27.1750  -28.5800   20.7410 C   0  0  0  0  0  3  0  0  0  0  0  0
  -25.9660  -26.9260   19.4610 C   0  0  0  0  0  3  0  0  0  0  0  0
  -24.8160  -27.7300   19.4830 C   0  0  0  0  0  3  0  0  0  0  0  0
  -23.5940  -29.8470   20.2000 C   0  0  0  0  0  2  0  0  0  0  0  0
  -24.6600  -31.0870   22.1250 N   0  0  0  0  0  0  0  0  0  0  0  0
  -23.5170  -32.1780   23.7600 O   0  0  0  0  0  0  0  0  0  0  0  0
  -22.7260  -29.4880   22.5460 C   0  0  0  0  0  0  0  0  0  0  0  0
  -21.3980  -29.3080   22.4250 N   0  0  0  0  0  0  0  0  0  0  0  0
  -23.4060  -28.8610   23.3620 O   0  0  0  0  0  0  0  0  0  0  0  0
  -20.9060  -29.8650   21.7400 H   0  0  0  0  0  0  0  0  0  0  0  0
  -18.0260  -28.0940   22.9350 C   0  0  0  0  0  0  0  0  0  0  0  0
  -20.5840  -28.3680   23.1980 C   0  0  0  0  0  3  0  0  0  0  0  0
  -20.6920  -26.9350   22.6260 C   0  0  0  0  0  2  0  0  0  0  0  0
  -19.5890  -26.6050   21.6150 C   0  0  0  0  0  2  0  0  0  0  0  0
  -18.2080  -26.7450   22.2610 C   0  0  0  0  0  2  0  0  0  0  0  0
  -19.1410  -28.8640   23.3610 C   0  0  0  0  0  0  0  0  0  0  0  0
  -18.9170  -30.1260   23.9530 C   0  0  0  0  0  3  0  0  0  0  0  0
  -17.6100  -30.6190   24.1220 C   0  0  0  0  0  3  0  0  0  0  0  0
  -16.5080  -29.8480   23.7120 C   0  0  0  0  0  3  0  0  0  0  0  0
  -16.7170  -28.5880   23.1240 C   0  0  0  0  0  3  0  0  0  0  0  0
  -25.8820  -32.5330   23.8370 C   0  0  0  0  0  3  0  0  0  0  0  0
  -25.5700  -33.9290   24.1760 N   0  0  0  0  0  0  0  0  0  0  0  0
  -25.8920  -34.9880   23.4220 C   0  0  0  0  0  0  0  0  0  0  0  0
  -26.5520  -34.8930   22.3840 O   0  0  0  0  0  0  0  0  0  0  0  0
  -24.9840  -34.0780   24.9850 H   0  0  0  0  0  0  0  0  0  0  0  0
  -24.1560  -36.7810   23.0990 C   0  0  0  0  0  1  0  0  0  0  0  0
  -25.4070  -36.3730   23.8930 C   0  0  0  0  0  3  0  0  0  0  0  0
  -27.5490  -37.2570   24.7060 C   0  0  0  0  0  1  0  0  0  0  0  0
  -26.4360  -37.4300   23.7760 N   0  0  0  0  0  0  0  0  0  0  0  0
  -26.0290  -38.3480   23.9340 H   0  0  0  0  0  0  0  0  0  0  0  0
  -26.4070  -31.7580   25.1080 C   0  0  1  0  0  0  0  0  0  0  0  0
  -25.3210  -31.5170   26.1820 C   0  0  0  0  0  1  0  0  0  0  0  0
  -26.9900  -30.3820   24.7120 C   0  0  0  0  0  1  0  0  0  0  0  0
  -27.5610  -32.5530   25.7640 C   0  0  0  0  0  1  0  0  0  0  0  0
  -29.2340  -19.3170   21.1440 O   0  0  0  0  0  0  0  0  0  0  0  0
  -30.6360  -14.8330   20.2420 C   0  0  0  0  0  0  0  0  0  0  0  0
  -30.3520  -12.5590   19.2310 C   0  0  0  0  0  2  0  0  0  0  0  0
  -29.4050  -12.6210   18.0140 C   0  0  0  0  0  2  0  0  0  0  0  0
  -27.9460  -12.4450   18.4680 C   0  0  0  0  0  2  0  0  0  0  0  0
  -27.5870  -13.3430   19.6820 C   0  0  0  0  0  3  0  0  0  0  0  0
  -28.6620  -13.2960   20.7910 C   0  0  0  0  0  2  0  0  0  0  0  0
  -29.9470  -13.6370   20.1720 N   0  0  0  0  0  0  0  0  0  0  0  0
  -31.8140  -14.8520   19.8750 O   0  0  0  0  0  0  0  0  0  0  0  0
  -30.7820  -17.2820   21.0430 C   0  0  0  0  0  2  0  0  0  0  0  0
  -28.9090  -16.8540   20.2050 C   0  0  0  0  0  2  0  0  0  0  0  0
  -29.7430  -18.1860   20.3100 C   0  0  0  0  0  3  0  0  0  0  0  0
  -30.0530  -16.0230   20.6910 N   0  0  0  0  0  0  0  0  0  0  0  0
  -25.2130  -13.9300   20.4440 C   0  0  0  0  0  0  0  0  0  0  0  0
  -24.1520  -13.1550   20.8270 C   0  0  0  0  0  0  0  0  0  0  0  0
  -24.6150  -11.8050   20.7940 C   0  0  0  0  0  0  0  0  0  0  0  0
  -26.2530  -13.0510   20.1960 N   0  0  0  0  0  0  0  0  0  0  0  0
  -25.9030  -11.7670   20.4700 N   0  0  0  0  0  0  0  0  0  0  0  0
  -23.8890  -10.5430   20.9930 C   0  0  0  0  0  0  0  0  0  0  0  0
  -24.3310   -9.5750   21.9230 C   0  0  0  0  0  3  0  0  0  0  0  0
  -23.6040   -8.3800   22.1110 C   0  0  0  0  0  3  0  0  0  0  0  0
  -22.4220   -8.1430   21.3700 C   0  0  0  0  0  0  0  0  0  0  0  0
  -22.0000   -9.0990   20.4290 C   0  0  0  0  0  3  0  0  0  0  0  0
  -22.7280  -10.2860   20.2390 C   0  0  0  0  0  3  0  0  0  0  0  0
  -21.6660   -7.0000   21.4670 O   0  0  0  0  0  0  0  0  0  0  0  0
  -21.6270   -6.2600   22.6220 C   0  0  0  0  0  0  0  0  0  0  0  0
  -21.2180   -6.8190   23.8520 C   0  0  0  0  0  3  0  0  0  0  0  0
  -21.1260   -6.0060   24.9990 C   0  0  0  0  0  3  0  0  0  0  0  0
  -21.4310   -4.6340   24.9170 C   0  0  0  0  0  0  0  0  0  0  0  0
  -21.8320   -4.0740   23.6920 C   0  0  0  0  0  3  0  0  0  0  0  0
  -21.9260   -4.8840   22.5460 C   0  0  0  0  0  0  0  0  0  0  0  0
  -22.2920   -4.3350   21.3630 F   0  0  0  0  0  0  0  0  0  0  0  0
  -21.3350   -3.8510   26.0170 F   0  0  0  0  0  0  0  0  0  0  0  0
  -22.7580  -13.6350   21.1120 C   0  0  0  0  0  0  0  0  0  0  0  0
  -22.0400  -12.9420   21.9890 N   0  0  0  0  0  0  0  0  0  0  0  0
  -22.3150  -14.6580   20.5930 O   0  0  0  0  0  0  0  0  0  0  0  0
  -22.4120  -12.1140   22.4310 H   0  0  0  0  0  0  0  0  0  0  0  0
  -21.1050  -13.2450   22.2240 H   0  0  0  0  0  0  0  0  0  0  0  0
  -25.3740  -15.2990   20.2600 N   0  0  0  0  0  0  0  0  0  0  0  0
  -24.6070  -15.9530   20.3760 H   0  0  0  0  0  0  0  0  0  0  0  0
  -26.2150  -15.7340   19.9070 H   0  0  0  0  0  0  0  0  0  0  0  0
  1  2  2  0
  3  1  1  0
  4 49  1  0
  4  2  1  0
  5  6  1  0
  5  3  2  0
  6  4  2  0
  7  8  1  0
  7  3  1  0
  9 20  2  0
 10  8  1  0
 10 15  1  0
 11 19  1  0
 11 21  1  0
 12 18  1  0
 12 14  1  0
 13 19  1  0
 14 13  1  0
 15 14  2  0
 16 17  1  0
 16 10  2  0
 17 12  2  0
 18 11  1  0
 19  9  1  0
 21 23  2  0
 22 21  1  0
 24 22  1  0
 25 34  2  0
 25 30  1  0
 26 22  1  0
 26 30  1  0
 27 26  1  0
 28 29  1  0
 28 27  1  0
 29 25  1  0
 30 31  2  0
 31 32  1  0
 33 32  2  0
 34 33  1  0
 35  9  1  0
 35 36  1  0
 35 45  1  0
 36 39  1  0
 37 41  1  0
 37 36  1  0
 38 37  2  0
 41 40  1  0
 43 41  1  0
 43 44  1  0
 43 42  1  0
 45 48  1  1
 45 46  1  0
 47 45  1  0
 50 61  1  0
 51 56  1  0
 52 53  1  0
 52 51  1  0
 54 53  1  0
 54 65  1  0
 54 55  1  0
 56 50  1  0
 56 55  1  0
 57 50  2  0
 59 60  1  0
 59 61  1  0
 60 58  1  0
 60 49  1  0
 61 58  1  0
 62 63  2  0
 63 82  1  0
 64 63  1  0
 64 67  1  0
 65 62  1  0
 65 66  1  0
 66 64  2  0
 67 68  1  0
 68 69  2  0
 70 73  1  0
 70 69  1  0
 71 70  2  0
 72 71  1  0
 72 67  2  0
 73 74  1  0
 74 75  1  0
 75 76  2  0
 77 76  1  0
 77 81  1  0
 78 77  2  0
 79 74  2  0
 79 78  1  0
 80 79  1  0
 82 83  1  0
 83 86  1  0
 83 85  1  0
 84 82  2  0
 87 88  1  0
 87 62  1  0
 89 87  1  0
M  ISO  4   7 101   8 101  50 100  61 100
M  END
>  <TORSDO>  (51) 
F 18

>  <SCORE>  (51) 
-14.740

>  <name>  (51) 
50

>  <ligand_id>  (51) 
50

>  <original_smiles>  (51) 
[H]c1c(OC2([H])C([H])([H])N(C(=O)N3C([H])([H])C([H])([H])C([H])([H])C([H])(n4nc(-c5c([H])c([H])c(Oc6c([H])c([H])c(F)c([H])c6F)c([H])c5[H])c(C(=O)N([H])[H])c4N([H])[H])C3([H])[H])C2([H])[H])nnc(C([H])([H])Oc2c([H])c([H])c3c(c2[H])C([H])([H])N(C(=O)C([H])(N([H])C(=O)C([H])(N([H])C([H])([H])[H])C([H])([H])[H])C(C([H])([H])[H])(C([H])([H])[H])C([H])([H])[H])C([H])(C(=O)N([H])C2([H])c4c([H])c([H])c([H])c([H])c4C([H])([H])C([H])([H])C2([H])[H])C3([H])[H])c1[H]

>  <smiles>  (51) 
[H]c1c(OC2([H])C([H])([H])N(C(=O)N3C([H])([H])C([H])([H])C([H])([H])C([H])(n4nc(-c5c([H])c([H])c(Oc6c([H])c([H])c(F)c([H])c6F)c([H])c5[H])c(C(=O)N([H])[H])c4N([H])[H])C3([H])[H])C2([H])[H])nnc(C([H])([H])Oc2c([H])c([H])c3c(c2[H])C([H])([H])N(C(=O)C([H])(N([H])C(=O)C([H])(N([H])C([H])([H])[H])C([H])([H])[H])C(C([H])([H])[H])(C([H])([H])[H])C([H])([H])[H])C([H])(C(=O)N([H])C2([H])c4c([H])c([H])c([H])c([H])c4C([H])([H])C([H])([H])C2([H])[H])C3([H])[H])c1[H]

$$$$
51:0:0
     RDKit          3D

 98109  0  0  1  0  0  0  0  0999 V2000
  -29.9040  -22.0320   20.5960 C   0  0  0  0  0  0  0  0  0  0  0  0
  -29.5390  -22.5840   19.3230 C   0  0  0  0  0  0  0  0  0  0  0  0
  -29.5500  -23.0780   21.4430 C   0  0  0  0  0  0  0  0  0  0  0  0
  -29.7330  -21.9860   17.9590 C   0  0  0  0  0  1  0  0  0  0  0  0
  -29.6890  -23.1760   22.9310 C   0  0  0  0  0  1  0  0  0  0  0  0
  -29.0020  -23.8080   19.3970 N   0  0  0  0  0  0  0  0  0  0  0  0
  -29.0260  -24.1560   20.7020 N   0  0  0  0  0  0  0  0  0  0  0  0
  -30.6740  -20.6910   20.9110 C   0  0  0  0  0  2  0  0  0  0  0  0
  -30.8700  -14.8560   20.2910 C   0  0  0  0  0  0  0  0  0  0  0  0
  -30.6380  -12.5920   19.2970 C   0  0  0  0  0  2  0  0  0  0  0  0
  -29.6740  -12.6510   18.0930 C   0  0  0  0  0  2  0  0  0  0  0  0
  -28.2160  -12.4630   18.5590 C   0  0  0  0  0  2  0  0  0  0  0  0
  -27.8610  -13.3330   19.7940 C   0  0  0  0  0  3  0  0  0  0  0  0
  -28.9470  -13.2960   20.8840 C   0  0  0  0  0  2  0  0  0  0  0  0
  -30.2170  -13.6480   20.2390 N   0  0  0  0  0  0  0  0  0  0  0  0
  -32.0820  -14.9050   20.0650 O   0  0  0  0  0  0  0  0  0  0  0  0
  -30.5030  -17.7630   18.5980 C   0  0  0  0  0  2  0  0  0  0  0  0
  -29.7950  -18.3370   21.6160 C   0  0  0  0  0  2  0  0  0  0  0  0
  -30.7310  -17.2840   20.9630 C   0  0  0  0  0  3  0  0  0  0  0  0
  -30.9940  -18.3390   19.8950 C   0  0  0  0  0  3  0  0  0  0  0  0
  -29.6090  -16.5680   19.0090 C   0  0  0  0  0  3  0  0  0  0  0  0
  -30.1350  -16.0440   20.3180 N   0  0  0  0  0  0  0  0  0  0  0  0
  -30.0870  -19.3330   20.5460 N   0  0  2  0  0  4  0  0  0  0  0  0
  -29.2570  -19.4590   19.9860 H   0  0  0  0  0  0  0  0  0  0  0  0
  -25.4860  -13.9340   20.5710 C   0  0  0  0  0  0  0  0  0  0  0  0
  -24.4220  -13.1560   20.9320 C   0  0  0  0  0  0  0  0  0  0  0  0
  -24.8860  -11.8080   20.8690 C   0  0  0  0  0  0  0  0  0  0  0  0
  -26.5260  -13.0550   20.3040 N   0  0  0  0  0  0  0  0  0  0  0  0
  -26.1710  -11.7710   20.5460 N   0  0  0  0  0  0  0  0  0  0  0  0
  -24.1630  -10.5440   21.0390 C   0  0  0  0  0  0  0  0  0  0  0  0
  -24.5850   -9.5780   21.9770 C   0  0  0  0  0  3  0  0  0  0  0  0
  -23.8630   -8.3760   22.1380 C   0  0  0  0  0  3  0  0  0  0  0  0
  -22.7080   -8.1340   21.3580 C   0  0  0  0  0  0  0  0  0  0  0  0
  -22.3070   -9.0900   20.4070 C   0  0  0  0  0  3  0  0  0  0  0  0
  -23.0290  -10.2840   20.2450 C   0  0  0  0  0  3  0  0  0  0  0  0
  -21.9570   -6.9860   21.4280 O   0  0  0  0  0  0  0  0  0  0  0  0
  -21.8440   -6.2720   22.5930 C   0  0  0  0  0  0  0  0  0  0  0  0
  -21.3030   -6.8420   23.7660 C   0  0  0  0  0  3  0  0  0  0  0  0
  -21.1450   -6.0540   24.9230 C   0  0  0  0  0  3  0  0  0  0  0  0
  -21.5140   -4.6950   24.9050 C   0  0  0  0  0  0  0  0  0  0  0  0
  -22.0490   -4.1250   23.7370 C   0  0  0  0  0  3  0  0  0  0  0  0
  -22.2110   -4.9110   22.5830 C   0  0  0  0  0  0  0  0  0  0  0  0
  -22.7060   -4.3530   21.4520 F   0  0  0  0  0  0  0  0  0  0  0  0
  -21.3520   -3.9350   26.0130 F   0  0  0  0  0  0  0  0  0  0  0  0
  -23.0300  -13.6310   21.2310 C   0  0  0  0  0  0  0  0  0  0  0  0
  -22.3140  -12.9190   22.0930 N   0  0  0  0  0  0  0  0  0  0  0  0
  -22.5890  -14.6670   20.7360 O   0  0  0  0  0  0  0  0  0  0  0  0
  -22.6870  -12.0800   22.5100 H   0  0  0  0  0  0  0  0  0  0  0  0
  -21.3810  -13.2190   22.3390 H   0  0  0  0  0  0  0  0  0  0  0  0
  -25.6390  -15.3060   20.4260 N   0  0  0  0  0  0  0  0  0  0  0  0
  -24.8680  -15.9500   20.5490 H   0  0  0  0  0  0  0  0  0  0  0  0
  -26.4830  -15.7530   20.0980 H   0  0  0  0  0  0  0  0  0  0  0  0
  -28.0810  -16.9050   19.0720 C   0  0  0  0  0  2  0  0  0  0  0  0
  -26.2200  -18.7270   18.8720 C   0  0  0  0  0  2  0  0  0  0  0  0
  -27.4350  -19.4750   19.3580 C   0  0  0  0  0  2  0  0  0  0  0  0
  -27.6010  -18.2340   18.5040 C   0  0  0  0  0  3  0  0  0  0  0  0
  -28.4210  -25.4500   21.1880 C   0  0  0  0  0  2  0  0  0  0  0  0
  -28.6090  -26.6150   20.3510 O   0  0  0  0  0  0  0  0  0  0  0  0
  -24.6940  -31.9260   23.2530 C   0  0  0  0  0  0  0  0  0  0  0  0
  -27.4930  -27.4520   20.2770 C   0  0  0  0  0  0  0  0  0  0  0  0
  -23.5600  -30.4910   21.5910 C   0  0  0  0  0  3  0  0  0  0  0  0
  -25.0830  -28.9760   20.2010 C   0  0  0  0  0  0  0  0  0  0  0  0
  -26.0900  -30.8860   21.4560 C   0  0  0  0  0  2  0  0  0  0  0  0
  -26.2230  -29.5090   20.8190 C   0  0  0  0  0  0  0  0  0  0  0  0
  -27.4350  -28.7590   20.8450 C   0  0  0  0  0  3  0  0  0  0  0  0
  -26.3370  -26.9660   19.6300 C   0  0  0  0  0  3  0  0  0  0  0  0
  -25.1410  -27.7110   19.5960 C   0  0  0  0  0  3  0  0  0  0  0  0
  -23.8180  -29.8130   20.2190 C   0  0  0  0  0  2  0  0  0  0  0  0
  -24.7990  -31.1180   22.1580 N   0  0  0  0  0  0  0  0  0  0  0  0
  -23.5940  -32.1770   23.7650 O   0  0  0  0  0  0  0  0  0  0  0  0
  -22.9030  -29.4620   22.5420 C   0  0  0  0  0  0  0  0  0  0  0  0
  -21.5870  -29.2450   22.3820 N   0  0  0  0  0  0  0  0  0  0  0  0
  -23.5780  -28.8620   23.3820 O   0  0  0  0  0  0  0  0  0  0  0  0
  -21.1010  -29.7800   21.6760 H   0  0  0  0  0  0  0  0  0  0  0  0
  -18.2320  -27.9610   22.8080 C   0  0  0  0  0  0  0  0  0  0  0  0
  -20.7760  -28.2910   23.1400 C   0  0  0  0  0  3  0  0  0  0  0  0
  -20.9300  -26.8590   22.5760 C   0  0  0  0  0  2  0  0  0  0  0  0
  -19.8630  -26.5010   21.5370 C   0  0  0  0  0  2  0  0  0  0  0  0
  -18.4610  -26.6130   22.1450 C   0  0  0  0  0  2  0  0  0  0  0  0
  -19.3200  -28.7560   23.2610 C   0  0  0  0  0  0  0  0  0  0  0  0
  -19.0520  -30.0160   23.8400 C   0  0  0  0  0  3  0  0  0  0  0  0
  -17.7320  -30.4820   23.9730 C   0  0  0  0  0  3  0  0  0  0  0  0
  -16.6590  -29.6860   23.5360 C   0  0  0  0  0  3  0  0  0  0  0  0
  -16.9100  -28.4280   22.9590 C   0  0  0  0  0  3  0  0  0  0  0  0
  -25.9480  -32.5920   23.8990 C   0  0  0  0  0  3  0  0  0  0  0  0
  -26.4470  -31.8450   25.1970 C   0  0  1  0  0  0  0  0  0  0  0  0
  -25.3310  -31.5900   26.2360 C   0  0  0  0  0  1  0  0  0  0  0  0
  -27.0750  -30.4800   24.8340 C   0  0  0  0  0  1  0  0  0  0  0  0
  -27.5600  -32.6740   25.8810 C   0  0  0  0  0  1  0  0  0  0  0  0
  -25.6020  -33.9870   24.2050 N   0  0  0  0  0  0  0  0  0  0  0  0
  -25.9300  -35.0370   23.4400 C   0  0  0  0  0  0  0  0  0  0  0  0
  -26.6250  -34.9350   22.4240 O   0  0  0  0  0  0  0  0  0  0  0  0
  -24.9850  -34.1390   24.9890 H   0  0  0  0  0  0  0  0  0  0  0  0
  -24.1780  -36.7940   23.0210 C   0  0  0  0  0  1  0  0  0  0  0  0
  -25.4050  -36.4210   23.8690 C   0  0  0  0  0  3  0  0  0  0  0  0
  -27.4960  -37.3580   24.7500 C   0  0  0  0  0  1  0  0  0  0  0  0
  -26.4210  -37.4930   23.7710 N   0  0  0  0  0  0  0  0  0  0  0  0
  -25.9940  -38.4070   23.8940 H   0  0  0  0  0  0  0  0  0  0  0  0
  1  8  1  0
  1  3  2  0
  2  6  2  0
  2  1  1  0
  3  5  1  0
  4  2  1  0
  6  7  1  0
  7 57  1  0
  7  3  1  0
  9 22  1  0
 10 15  1  0
 11 12  1  0
 11 10  1  0
 13 12  1  0
 13 28  1  0
 13 14  1  0
 15  9  1  0
 15 14  1  0
 16  9  2  0
 17 21  1  0
 19 18  1  0
 20 17  1  0
 20 23  1  0
 20 19  1  0
 21 53  1  0
 21 22  1  0
 22 19  1  0
 23  8  1  0
 23 18  1  0
 23 24  1  6
 25 26  2  0
 26 45  1  0
 27 26  1  0
 27 30  1  0
 28 29  1  0
 28 25  1  0
 29 27  2  0
 30 31  1  0
 31 32  2  0
 33 36  1  0
 33 32  1  0
 34 33  2  0
 35 34  1  0
 35 30  2  0
 36 37  1  0
 37 38  1  0
 38 39  2  0
 40 39  1  0
 40 44  1  0
 41 40  2  0
 42 37  2  0
 42 41  1  0
 43 42  1  0
 45 46  1  0
 46 49  1  0
 46 48  1  0
 47 45  2  0
 50 51  1  0
 50 25  1  0
 52 50  1  0
 54 55  1  0
 56 54  1  0
 56 53  1  0
 56 55  1  0
 58 57  1  0
 59 70  2  0
 60 58  1  0
 60 65  1  0
 61 69  1  0
 61 71  1  0
 62 68  1  0
 62 64  1  0
 63 69  1  0
 64 65  2  0
 64 63  1  0
 66 60  2  0
 67 66  1  0
 67 62  2  0
 68 61  1  0
 69 59  1  0
 71 73  2  0
 72 71  1  0
 74 72  1  0
 75 84  2  0
 75 80  1  0
 76 72  1  0
 76 80  1  0
 77 76  1  0
 78 79  1  0
 78 77  1  0
 79 75  1  0
 80 81  2  0
 81 82  1  0
 83 82  2  0
 84 83  1  0
 85 59  1  0
 85 90  1  0
 85 86  1  0
 86 89  1  1
 86 87  1  0
 88 86  1  0
 90 93  1  0
 91 95  1  0
 91 90  1  0
 92 91  2  0
 95 94  1  0
 97 95  1  0
 97 98  1  0
 97 96  1  0
M  ISO  4   9 100  22 100  57 101  58 101
M  END
>  <TORSDO>  (52) 
F 20

>  <SCORE>  (52) 
-13.548

>  <name>  (52) 
51

>  <ligand_id>  (52) 
51

>  <original_smiles>  (52) 
[H]c1c([H])c([H])c2c(c1[H])C([H])([H])C([H])([H])C([H])([H])C2([H])N([H])C(=O)C1([H])N(C(=O)C([H])(N([H])C(=O)C([H])(N([H])C([H])([H])[H])C([H])([H])[H])C(C([H])([H])[H])(C([H])([H])[H])C([H])([H])[H])C([H])([H])c2c([H])c(OC([H])([H])n3nc(C([H])([H])[H])c(C([H])([H])[N+]4([H])C([H])([H])C5([H])N(C(=O)N6C([H])([H])C([H])([H])C([H])([H])C([H])(n7nc(-c8c([H])c([H])c(Oc9c([H])c([H])c(F)c([H])c9F)c([H])c8[H])c(C(=O)N([H])[H])c7N([H])[H])C6([H])[H])C([H])(C([H])([H])C6([H])C([H])([H])C6([H])[H])C([H])([H])C54[H])c3C([H])([H])[H])c([H])c([H])c2C1([H])[H]

>  <smiles>  (52) 
[H]c1c([H])c([H])c2c(c1[H])C([H])([H])C([H])([H])C([H])([H])C2([H])N([H])C(=O)C1([H])N(C(=O)C([H])(N([H])C(=O)C([H])(N([H])C([H])([H])[H])C([H])([H])[H])C(C([H])([H])[H])(C([H])([H])[H])C([H])([H])[H])C([H])([H])c2c([H])c(OC([H])([H])n3nc(C([H])([H])[H])c(C([H])([H])[N+]4([H])C([H])([H])C5([H])N(C(=O)N6C([H])([H])C([H])([H])C([H])([H])C([H])(n7nc(-c8c([H])c([H])c(Oc9c([H])c([H])c(F)c([H])c9F)c([H])c8[H])c(C(=O)N([H])[H])c7N([H])[H])C6([H])[H])C([H])(C([H])([H])C6([H])C([H])([H])C6([H])[H])C([H])([H])C54[H])c3C([H])([H])[H])c([H])c([H])c2C1([H])[H]

$$$$
52:0:0
     RDKit          3D

 91101  0  0  1  0  0  0  0  0999 V2000
  -30.4380  -15.3700   20.3900 C   0  0  0  0  0  0  0  0  0  0  0  0
  -30.4200  -12.9360   19.4670 C   0  0  0  0  0  2  0  0  0  0  0  0
  -29.5200  -12.7220   18.2250 C   0  0  0  0  0  2  0  0  0  0  0  0
  -28.0610  -12.4540   18.6440 C   0  0  0  0  0  2  0  0  0  0  0  0
  -27.5930  -13.4120   19.7690 C   0  0  0  0  0  3  0  0  0  0  0  0
  -28.6250  -13.5580   20.9030 C   0  0  0  0  0  2  0  0  0  0  0  0
  -29.8510  -14.0770   20.2730 N   0  0  0  0  0  0  0  0  0  0  0  0
  -31.6780  -15.3220   20.3300 O   0  0  0  0  0  0  0  0  0  0  0  0
  -29.4910  -19.7190   20.0570 C   0  0  0  0  0  0  0  0  0  0  0  0
  -29.1770  -21.2350   20.0340 C   0  0  0  0  0  0  0  0  0  0  0  0
  -30.0710  -20.6170   18.1040 C   0  0  0  0  0  0  0  0  0  0  0  0
  -29.5390  -18.1890   20.8680 C   0  0  0  0  0  2  0  0  0  0  0  0
  -30.3510  -18.1320   18.2440 C   0  0  0  0  0  2  0  0  0  0  0  0
  -29.4620  -16.9730   18.7730 C   0  0  0  0  0  2  0  0  0  0  0  0
  -29.6400  -21.6590   18.7910 N   0  0  0  0  0  0  0  0  0  0  0  0
  -29.9720  -19.4560   18.7660 N   0  0  0  0  0  0  0  0  0  0  0  0
  -29.7170  -16.6720   20.1880 N   0  0  0  0  0  0  0  0  0  0  0  0
  -25.2080  -13.9710   20.4700 C   0  0  0  0  0  0  0  0  0  0  0  0
  -24.1400  -13.1940   20.8200 C   0  0  0  0  0  0  0  0  0  0  0  0
  -24.6110  -11.8460   20.8200 C   0  0  0  0  0  0  0  0  0  0  0  0
  -26.2580  -13.0960   20.2590 N   0  0  0  0  0  0  0  0  0  0  0  0
  -25.9110  -11.8120   20.5400 N   0  0  0  0  0  0  0  0  0  0  0  0
  -23.8840  -10.5830   21.0050 C   0  0  0  0  0  0  0  0  0  0  0  0
  -24.2960   -9.6250   21.9580 C   0  0  0  0  0  3  0  0  0  0  0  0
  -23.5640   -8.4300   22.1330 C   0  0  0  0  0  3  0  0  0  0  0  0
  -22.4070   -8.1850   21.3560 C   0  0  0  0  0  0  0  0  0  0  0  0
  -22.0150   -9.1320   20.3930 C   0  0  0  0  0  3  0  0  0  0  0  0
  -22.7470  -10.3170   20.2150 C   0  0  0  0  0  3  0  0  0  0  0  0
  -21.6490   -7.0410   21.4390 O   0  0  0  0  0  0  0  0  0  0  0  0
  -21.5760   -6.3100   22.5980 C   0  0  0  0  0  0  0  0  0  0  0  0
  -21.1210   -6.8760   23.8090 C   0  0  0  0  0  3  0  0  0  0  0  0
  -20.9940   -6.0700   24.9590 C   0  0  0  0  0  3  0  0  0  0  0  0
  -21.3120   -4.6990   24.8970 C   0  0  0  0  0  0  0  0  0  0  0  0
  -21.7600   -4.1350   23.6910 C   0  0  0  0  0  3  0  0  0  0  0  0
  -21.8880   -4.9370   22.5440 C   0  0  0  0  0  0  0  0  0  0  0  0
  -22.2990   -4.3810   21.3780 F   0  0  0  0  0  0  0  0  0  0  0  0
  -21.1840   -3.9250   25.9990 F   0  0  0  0  0  0  0  0  0  0  0  0
  -22.7340  -13.6710   21.0440 C   0  0  0  0  0  0  0  0  0  0  0  0
  -21.9820  -12.9860   21.8980 N   0  0  0  0  0  0  0  0  0  0  0  0
  -22.3100  -14.6860   20.4940 O   0  0  0  0  0  0  0  0  0  0  0  0
  -22.3380  -12.1670   22.3670 H   0  0  0  0  0  0  0  0  0  0  0  0
  -21.0360  -13.2870   22.0880 H   0  0  0  0  0  0  0  0  0  0  0  0
  -25.3730  -15.3400   20.2840 N   0  0  0  0  0  0  0  0  0  0  0  0
  -24.6050  -15.9960   20.3810 H   0  0  0  0  0  0  0  0  0  0  0  0
  -26.2350  -15.7820   19.9910 H   0  0  0  0  0  0  0  0  0  0  0  0
  -30.0960  -21.7200   15.7130 C   0  0  0  0  0  2  0  0  0  0  0  0
  -29.8100  -20.2530   15.5290 C   0  0  0  0  0  2  0  0  0  0  0  0
  -30.6280  -20.7160   16.7160 C   0  0  0  0  0  3  0  0  0  0  0  0
  -28.3170  -22.6080   20.6870 C   0  0  0  0  0  2  0  0  0  0  0  0
  -28.5240  -24.4060   20.9440 C   0  0  0  0  0  2  0  0  0  0  0  0
  -28.3830  -25.9430   20.3320 O   0  0  0  0  0  0  0  0  0  0  0  0
  -24.6270  -31.8910   23.2570 C   0  0  0  0  0  0  0  0  0  0  0  0
  -27.3170  -26.9860   20.3970 C   0  0  0  0  0  0  0  0  0  0  0  0
  -23.4880  -30.4470   21.6210 C   0  0  0  0  0  3  0  0  0  0  0  0
  -24.9880  -28.8300   20.2700 C   0  0  0  0  0  0  0  0  0  0  0  0
  -26.0530  -30.6940   21.5200 C   0  0  0  0  0  2  0  0  0  0  0  0
  -26.1590  -29.2690   20.9010 C   0  0  0  0  0  0  0  0  0  0  0  0
  -27.3220  -28.3710   20.9300 C   0  0  0  0  0  3  0  0  0  0  0  0
  -26.1090  -26.6970   19.7260 C   0  0  0  0  0  3  0  0  0  0  0  0
  -24.9870  -27.5640   19.6630 C   0  0  0  0  0  3  0  0  0  0  0  0
  -23.7580  -29.7380   20.2650 C   0  0  0  0  0  2  0  0  0  0  0  0
  -24.7440  -31.0390   22.1860 N   0  0  0  0  0  0  0  0  0  0  0  0
  -23.5240  -32.1720   23.7510 O   0  0  0  0  0  0  0  0  0  0  0  0
  -22.7900  -29.4580   22.5920 C   0  0  0  0  0  0  0  0  0  0  0  0
  -21.4620  -29.2840   22.4540 N   0  0  0  0  0  0  0  0  0  0  0  0
  -23.4500  -28.8490   23.4370 O   0  0  0  0  0  0  0  0  0  0  0  0
  -20.9820  -29.8270   21.7510 H   0  0  0  0  0  0  0  0  0  0  0  0
  -18.0790  -28.0730   22.9580 C   0  0  0  0  0  0  0  0  0  0  0  0
  -20.6380  -28.3490   23.2270 C   0  0  0  0  0  3  0  0  0  0  0  0
  -20.7450  -26.9130   22.6590 C   0  0  0  0  0  2  0  0  0  0  0  0
  -19.6470  -26.5840   21.6430 C   0  0  0  0  0  2  0  0  0  0  0  0
  -18.2630  -26.7240   22.2840 C   0  0  0  0  0  2  0  0  0  0  0  0
  -19.1950  -28.8430   23.3860 C   0  0  0  0  0  0  0  0  0  0  0  0
  -18.9670  -30.1040   23.9800 C   0  0  0  0  0  3  0  0  0  0  0  0
  -17.6590  -30.5960   24.1460 C   0  0  0  0  0  3  0  0  0  0  0  0
  -16.5590  -29.8250   23.7320 C   0  0  0  0  0  3  0  0  0  0  0  0
  -16.7710  -28.5650   23.1440 C   0  0  0  0  0  3  0  0  0  0  0  0
  -25.8760  -32.5660   23.9040 C   0  0  0  0  0  3  0  0  0  0  0  0
  -25.5310  -33.9670   24.2000 N   0  0  0  0  0  0  0  0  0  0  0  0
  -25.8700  -35.0180   23.4410 C   0  0  0  0  0  0  0  0  0  0  0  0
  -26.5680  -34.9120   22.4290 O   0  0  0  0  0  0  0  0  0  0  0  0
  -24.9140  -34.1220   24.9840 H   0  0  0  0  0  0  0  0  0  0  0  0
  -24.1360  -36.7970   23.0210 C   0  0  0  0  0  1  0  0  0  0  0  0
  -25.3570  -36.4090   23.8710 C   0  0  0  0  0  3  0  0  0  0  0  0
  -27.4540  -37.3310   24.7560 C   0  0  0  0  0  1  0  0  0  0  0  0
  -26.3810  -37.4730   23.7750 N   0  0  0  0  0  0  0  0  0  0  0  0
  -25.9600  -38.3900   23.8950 H   0  0  0  0  0  0  0  0  0  0  0  0
  -26.3600  -31.8370   25.2180 C   0  0  1  0  0  0  0  0  0  0  0  0
  -25.2370  -31.6170   26.2590 C   0  0  0  0  0  1  0  0  0  0  0  0
  -26.9700  -30.4550   24.8920 C   0  0  0  0  0  1  0  0  0  0  0  0
  -27.4800  -32.6650   25.8920 C   0  0  0  0  0  1  0  0  0  0  0  0
  2  7  1  0
  3  4  1  0
  3  2  1  0
  5  4  1  0
  5 21  1  0
  5  6  1  0
  7  1  1  0
  7  6  1  0
  8  1  2  0
  9 12  1  0
 10  9  2  0
 10 49  1  0
 11 16  1  0
 11 15  2  0
 13 16  1  0
 13 14  1  0
 14 17  1  0
 15 10  1  0
 16  9  1  0
 17  1  1  0
 17 12  1  0
 18 19  2  0
 19 20  1  0
 19 38  1  0
 20 23  1  0
 21 18  1  0
 21 22  1  0
 22 20  2  0
 23 24  1  0
 24 25  2  0
 26 29  1  0
 26 25  1  0
 27 26  2  0
 28 27  1  0
 28 23  2  0
 29 30  1  0
 30 31  1  0
 31 32  2  0
 33 32  1  0
 33 37  1  0
 34 33  2  0
 35 30  2  0
 35 34  1  0
 36 35  1  0
 38 39  1  0
 39 42  1  0
 39 41  1  0
 40 38  2  0
 43 44  1  0
 43 18  1  0
 45 43  1  0
 46 48  1  0
 47 46  1  0
 47 48  1  0
 48 11  1  0
 49 50  1  0
 51 53  1  0
 51 50  1  0
 52 63  2  0
 53 58  1  0
 54 62  1  0
 54 64  1  0
 55 57  1  0
 56 62  1  0
 57 58  2  0
 57 56  1  0
 59 53  2  0
 60 59  1  0
 60 55  2  0
 61 55  1  0
 61 54  1  0
 62 52  1  0
 64 66  2  0
 65 64  1  0
 67 65  1  0
 68 77  2  0
 68 73  1  0
 69 65  1  0
 69 73  1  0
 70 69  1  0
 71 72  1  0
 71 70  1  0
 72 68  1  0
 73 74  2  0
 74 75  1  0
 76 75  2  0
 77 76  1  0
 78 52  1  0
 78 79  1  0
 78 88  1  0
 79 82  1  0
 80 84  1  0
 80 79  1  0
 81 80  2  0
 84 83  1  0
 86 84  1  0
 86 87  1  0
 86 85  1  0
 88 91  1  1
 88 89  1  0
 90 88  1  0
M  ISO  4   1 100  17 100  50 101  51 101
M  END
>  <TORSDO>  (53) 
F 18

>  <SCORE>  (53) 
-16.149

>  <name>  (53) 
52

>  <ligand_id>  (53) 
52

>  <original_smiles>  (53) 
[H]c1c([H])c([H])c2c(c1[H])C([H])([H])C([H])([H])C([H])([H])C2([H])N([H])C(=O)C1([H])N(C(=O)C([H])(N([H])C(=O)C([H])(N([H])C([H])([H])[H])C([H])([H])[H])C(C([H])([H])[H])(C([H])([H])[H])C([H])([H])[H])C([H])([H])c2c([H])c(OC([H])([H])C([H])([H])c3nc(C4([H])C([H])([H])C4([H])[H])n4c3C([H])([H])N(C(=O)N3C([H])([H])C([H])([H])C([H])([H])C([H])(n5nc(-c6c([H])c([H])c(Oc7c([H])c([H])c(F)c([H])c7F)c([H])c6[H])c(C(=O)N([H])[H])c5N([H])[H])C3([H])[H])C([H])([H])C4([H])[H])c([H])c([H])c2C1([H])[H]

>  <smiles>  (53) 
[H]c1c([H])c([H])c2c(c1[H])C([H])([H])C([H])([H])C([H])([H])C2([H])N([H])C(=O)C1([H])N(C(=O)C([H])(N([H])C(=O)C([H])(N([H])C([H])([H])[H])C([H])([H])[H])C(C([H])([H])[H])(C([H])([H])[H])C([H])([H])[H])C([H])([H])c2c([H])c(OC([H])([H])C([H])([H])c3nc(C4([H])C([H])([H])C4([H])[H])n4c3C([H])([H])N(C(=O)N3C([H])([H])C([H])([H])C([H])([H])C([H])(n5nc(-c6c([H])c([H])c(Oc7c([H])c([H])c(F)c([H])c7F)c([H])c6[H])c(C(=O)N([H])[H])c5N([H])[H])C3([H])[H])C([H])([H])C4([H])[H])c([H])c([H])c2C1([H])[H]

$$$$
53:0:0
     RDKit          3D

 98102  0  0  1  0  0  0  0  0999 V2000
  -28.0880  -27.9620   15.0540 C   0  0  0  0  0  3  0  0  0  0  0  0
  -27.8520  -25.5410   14.0070 C   0  0  0  0  0  3  0  0  0  0  0  0
  -26.4510  -25.9880   14.2450 C   0  0  0  0  0  0  0  0  0  0  0  0
  -26.7470  -27.3150   14.8200 C   0  0  0  0  0  0  0  0  0  0  0  0
  -29.4270  -27.4320   14.7750 C   0  0  0  0  0  0  0  0  0  0  0  0
  -29.1420  -26.1590   14.2470 N   0  0  0  0  0  0  0  0  0  0  0  0
  -25.3850  -28.2550   15.3140 Cl  0  0  0  0  0  0  0  0  0  0  0  0
  -24.8730  -25.2120   14.0950 C   0  0  0  0  0  0  0  0  0  0  0  0
  -24.1190  -24.0940   14.9180 N   0  0  0  0  0  2  0  0  0  0  0  0
  -24.2380  -25.6110   13.1200 O   0  0  0  0  0  0  0  0  0  0  0  0
  -23.2160  -23.8310   14.5460 H   0  0  0  0  0  0  0  0  0  0  0  0
  -24.5930  -22.9790   17.1560 C   0  0  0  0  0 15  0  0  0  0  0  0
  -26.5580  -22.4700   17.7140 C   0  0  0  0  0  1  0  0  0  0  0  0
  -27.6620  -21.1540   18.4110 O   0  0  0  0  0  0  0  0  0  0  0  0
  -32.5790  -19.5950   16.6330 C   0  0  0  0  0  0  0  0  0  0  0  0
  -27.6160  -20.0440   19.3680 C   0  0  0  0  0  3  0  0  0  0  0  0
  -30.3050  -19.8970   15.8240 C   0  0  0  0  0  3  0  0  0  0  0  0
  -28.3770  -18.8840   17.2300 C   0  0  0  0  0  3  0  0  0  0  0  0
  -30.7370  -18.5210   17.9250 C   0  0  0  0  0  2  0  0  0  0  0  0
  -29.3090  -18.8670   18.2680 C   0  0  0  0  0  3  0  0  0  0  0  0
  -28.8520  -19.3310   19.5140 C   0  0  0  0  0  2  0  0  0  0  0  0
  -26.6120  -19.2570   18.8810 C   0  0  0  0  0  2  0  0  0  0  0  0
  -26.9900  -18.8650   17.5840 C   0  0  0  0  0  2  0  0  0  0  0  0
  -28.9290  -19.1290   15.8420 C   0  0  0  0  0  2  0  0  0  0  0  0
  -31.2650  -19.3000   16.7830 N   0  0  0  0  0  0  0  0  0  0  0  0
  -32.9900  -20.2570   15.6690 O   0  0  0  0  0  0  0  0  0  0  0  0
  -30.2730  -21.4170   16.1550 C   0  0  0  0  0  0  0  0  0  0  0  0
  -31.1500  -21.9430   16.9630 N   0  0  0  0  0  0  0  0  0  0  0  0
  -29.3870  -22.1590   15.7660 O   0  0  0  0  0  0  0  0  0  0  0  0
  -31.7860  -21.3530   17.4780 H   0  0  0  0  0  0  0  0  0  0  0  0
  -32.0260  -24.0920   19.8240 C   0  0  0  0  0  0  0  0  0  0  0  0
  -31.4780  -23.3890   16.9040 C   0  0  0  0  0  2  0  0  0  0  0  0
  -33.4060  -23.8570   16.0390 C   0  0  0  0  0 15  0  0  0  0  0  0
  -34.9230  -24.3610   17.8850 C   0  0  0  0  0 15  0  0  0  0  0  0
  -33.8400  -24.4170   19.6880 C   0  0  0  0  0  1  0  0  0  0  0  0
  -31.0840  -23.6230   18.6710 C   0  0  0  0  0  0  0  0  0  0  0  0
  -29.7430  -23.2380   19.0720 C   0  0  0  0  0  3  0  0  0  0  0  0
  -29.1790  -23.4020   20.3630 C   0  0  0  0  0  3  0  0  0  0  0  0
  -29.9470  -24.0270   21.3550 C   0  0  0  0  0  3  0  0  0  0  0  0
  -31.3140  -24.3510   21.0790 C   0  0  0  0  0  3  0  0  0  0  0  0
  -33.6210  -19.0930   17.6620 C   0  0  0  0  0  3  0  0  0  0  0  0
  -34.3670  -20.2630   18.4110 C   0  0  1  0  0  0  0  0  0  0  0  0
  -35.0650  -21.2680   17.4640 C   0  0  0  0  0  1  0  0  0  0  0  0
  -33.3860  -21.0620   19.3010 C   0  0  0  0  0  1  0  0  0  0  0  0
  -35.4310  -19.6640   19.3560 C   0  0  0  0  0  1  0  0  0  0  0  0
  -34.5670  -18.2680   16.9080 N   0  0  0  0  0  0  0  0  0  0  0  0
  -34.4360  -16.9490   16.7300 C   0  0  0  0  0  0  0  0  0  0  0  0
  -33.5450  -16.2880   17.2710 O   0  0  0  0  0  0  0  0  0  0  0  0
  -35.2780  -18.7560   16.3850 H   0  0  0  0  0  0  0  0  0  0  0  0
  -34.8100  -15.9230   14.4630 C   0  0  0  0  0  1  0  0  0  0  0  0
  -35.4610  -16.2550   15.8150 C   0  0  0  0  0  3  0  0  0  0  0  0
  -36.9600  -15.3010   17.5080 C   0  0  0  0  0  1  0  0  0  0  0  0
  -36.0390  -15.0310   16.4070 N   0  0  0  0  0  0  0  0  0  0  0  0
  -36.5370  -14.4920   15.7030 H   0  0  0  0  0  0  0  0  0  0  0  0
  -31.0220  -27.9560   15.4310 C   0  0  0  0  0  2  0  0  0  0  0  0
  -32.4780  -29.0640   21.9830 C   0  0  0  0  0  0  0  0  0  0  0  0
  -31.5350  -28.8600   24.4300 C   0  0  0  0  0  2  0  0  0  0  0  0
  -30.7780  -27.5200   24.6640 C   0  0  0  0  0  2  0  0  0  0  0  0
  -29.3850  -27.5420   24.0020 C   0  0  0  0  0  2  0  0  0  0  0  0
  -29.4520  -28.1770   22.5920 C   0  0  0  0  0  3  0  0  0  0  0  0
  -30.1280  -29.5460   22.6240 C   0  0  0  0  0  2  0  0  0  0  0  0
  -31.4870  -29.2340   22.9640 N   0  0  0  0  0  0  0  0  0  0  0  0
  -33.6160  -29.0140   22.5200 O   0  0  0  0  0  0  0  0  0  0  0  0
  -32.2750  -27.5030   19.7000 C   0  0  0  0  0  2  0  0  0  0  0  0
  -32.4430  -29.6730   19.2670 C   0  0  0  0  0  2  0  0  0  0  0  0
  -31.7810  -27.1910   18.0840 C   0  0  0  0  0  2  0  0  0  0  0  0
  -31.7420  -29.4600   17.7330 C   0  0  0  0  0  2  0  0  0  0  0  0
  -32.1330  -28.8160   20.5210 N   0  0  0  0  0  0  0  0  0  0  0  0
  -31.9110  -28.1680   16.8740 N   0  0  2  0  0  4  0  0  0  0  0  0
  -32.8770  -28.1560   16.5880 H   0  0  0  0  0  0  0  0  0  0  0  0
  -27.8610  -27.9960   20.6370 C   0  0  0  0  0  0  0  0  0  0  0  0
  -26.5300  -28.2480   20.5180 C   0  0  0  0  0  0  0  0  0  0  0  0
  -26.1150  -28.7490   21.7910 C   0  0  0  0  0  0  0  0  0  0  0  0
  -28.1790  -28.3050   21.9430 N   0  0  0  0  0  0  0  0  0  0  0  0
  -27.1410  -28.8310   22.6220 N   0  0  0  0  0  0  0  0  0  0  0  0
  -24.7890  -29.0910   22.2930 C   0  0  0  0  0  0  0  0  0  0  0  0
  -24.1270  -30.2670   21.8800 C   0  0  0  0  0  3  0  0  0  0  0  0
  -22.8410  -30.5660   22.3730 C   0  0  0  0  0  3  0  0  0  0  0  0
  -22.2090  -29.6850   23.2820 C   0  0  0  0  0  0  0  0  0  0  0  0
  -22.8870  -28.5300   23.7080 C   0  0  0  0  0  3  0  0  0  0  0  0
  -24.1700  -28.2350   23.2230 C   0  0  0  0  0  3  0  0  0  0  0  0
  -20.9690  -29.9020   23.8280 O   0  0  0  0  0  0  0  0  0  0  0  0
  -19.8620  -29.2240   23.3880 C   0  0  0  0  0  0  0  0  0  0  0  0
  -19.9670  -28.0270   22.6460 C   0  0  0  0  0  3  0  0  0  0  0  0
  -18.8020  -27.3260   22.2750 C   0  0  0  0  0  3  0  0  0  0  0  0
  -17.5370  -27.8140   22.6530 C   0  0  0  0  0  0  0  0  0  0  0  0
  -17.4330  -29.0020   23.3960 C   0  0  0  0  0  3  0  0  0  0  0  0
  -18.5930  -29.7040   23.7640 C   0  0  0  0  0  0  0  0  0  0  0  0
  -18.4880  -30.8390   24.4970 F   0  0  0  0  0  0  0  0  0  0  0  0
  -16.4190  -27.1350   22.3060 F   0  0  0  0  0  0  0  0  0  0  0  0
  -25.6760  -27.9570   19.3240 C   0  0  0  0  0  0  0  0  0  0  0  0
  -25.0840  -28.9890   18.7370 N   0  0  0  0  0  0  0  0  0  0  0  0
  -25.5700  -26.8130   18.8790 O   0  0  0  0  0  0  0  0  0  0  0  0
  -25.2020  -29.9250   19.0950 H   0  0  0  0  0  0  0  0  0  0  0  0
  -24.5180  -28.8420   17.9130 H   0  0  0  0  0  0  0  0  0  0  0  0
  -28.8260  -27.5150   19.7620 N   0  0  0  0  0  0  0  0  0  0  0  0
  -28.6000  -27.1570   18.8420 H   0  0  0  0  0  0  0  0  0  0  0  0
  -29.7990  -27.4500   20.0160 H   0  0  0  0  0  0  0  0  0  0  0  0
  2  3  1  0
  2  6  2  0
  3  4  2  0
  4  1  1  0
  4  7  1  0
  5  1  2  0
  5 55  1  0
  6  5  1  0
  8  3  1  0
  8  9  1  0
 10  8  2  0
 11  9  1  0
 13 14  1  0
 15 25  1  0
 16 14  1  0
 16 21  1  0
 17 24  1  0
 17 27  1  0
 17 25  1  0
 18 24  1  0
 18 23  1  0
 18 20  1  0
 20 19  1  0
 20 21  1  0
 22 16  1  0
 23 22  1  0
 25 19  1  0
 26 15  2  0
 27 28  1  0
 28 30  1  0
 29 27  2  0
 31 40  1  0
 32 28  1  0
 32 36  1  0
 35 31  1  0
 36 37  1  0
 36 31  2  0
 37 38  2  0
 38 39  1  0
 40 39  2  0
 41 15  1  0
 41 42  1  0
 42 44  1  1
 42 45  1  0
 43 42  1  0
 46 41  1  0
 47 46  1  0
 47 48  2  0
 49 46  1  0
 51 50  1  0
 51 53  1  0
 51 47  1  0
 53 52  1  0
 54 53  1  0
 55 69  1  0
 56 63  2  0
 56 62  1  0
 57 58  1  0
 59 58  1  0
 60 74  1  0
 60 61  1  0
 60 59  1  0
 61 62  1  0
 62 57  1  0
 64 68  1  0
 65 68  1  0
 66 64  1  0
 67 65  1  0
 68 56  1  0
 69 67  1  0
 69 66  1  0
 69 70  1  6
 71 74  1  0
 72 71  2  0
 72 73  1  0
 73 76  1  0
 73 75  2  0
 74 75  1  0
 76 81  1  0
 77 76  2  0
 77 78  1  0
 78 79  2  0
 79 80  1  0
 79 82  1  0
 81 80  2  0
 83 88  1  0
 83 82  1  0
 84 83  2  0
 85 84  1  0
 85 86  2  0
 86 87  1  0
 87 88  2  0
 88 89  1  0
 90 86  1  0
 91 72  1  0
 92 94  1  0
 92 91  1  0
 93 91  2  0
 95 92  1  0
 96 98  1  0
 96 71  1  0
 97 96  1  0
M  ISO  4  13 101  14 101  56 100  68 100
M  END
>  <TORSDO>  (54) 
F 20

>  <SCORE>  (54) 
-6.082

>  <name>  (54) 
53

>  <ligand_id>  (54) 
53

>  <original_smiles>  (54) 
[H]c1nc(C([H])([H])[N+]2([H])C([H])([H])C([H])([H])N(C(=O)N3C([H])([H])C([H])([H])C([H])([H])C([H])(n4nc(-c5c([H])c([H])c(Oc6c([H])c([H])c(F)c([H])c6F)c([H])c5[H])c(C(=O)N([H])[H])c4N([H])[H])C3([H])[H])C([H])([H])C2([H])[H])c([H])c(Cl)c1C(=O)N([H])C([H])([H])C([H])([H])Oc1c([H])c([H])c2c(c1[H])C([H])([H])N(C(=O)C([H])(N([H])C(=O)C([H])(N([H])C([H])([H])[H])C([H])([H])[H])C(C([H])([H])[H])(C([H])([H])[H])C([H])([H])[H])C([H])(C(=O)N([H])C1([H])c3c([H])c([H])c([H])c([H])c3C([H])([H])C([H])([H])C1([H])[H])C2([H])[H]

>  <smiles>  (54) 
[H]c1nc(C([H])([H])[N+]2([H])C([H])([H])C([H])([H])N(C(=O)N3C([H])([H])C([H])([H])C([H])([H])C([H])(n4nc(-c5c([H])c([H])c(Oc6c([H])c([H])c(F)c([H])c6F)c([H])c5[H])c(C(=O)N([H])[H])c4N([H])[H])C3([H])[H])C([H])([H])C2([H])[H])c([H])c(Cl)c1C(=O)N([H])C([H])([H])C([H])([H])Oc1c([H])c([H])c2c(c1[H])C([H])([H])N(C(=O)C([H])(N([H])C(=O)C([H])(N([H])C([H])([H])[H])C([H])([H])[H])C(C([H])([H])[H])(C([H])([H])[H])C([H])([H])[H])C([H])(C(=O)N([H])C1([H])c3c([H])c([H])c([H])c([H])c3C([H])([H])C([H])([H])C1([H])[H])C2([H])[H]

$$$$
54:0:0
     RDKit          3D

 94103  0  0  1  0  0  0  0  0999 V2000
  -30.2770  -20.7640   18.2880 C   0  0  0  0  0  2  0  0  0  0  0  0
  -29.6670  -22.1570   18.1790 C   0  0  0  0  0  2  0  0  0  0  0  0
  -29.3090  -21.4380   20.3920 C   0  0  0  0  0  2  0  0  0  0  0  0
  -29.6230  -20.1350   19.5200 C   0  0  0  0  0  3  0  0  0  0  0  0
  -29.5290  -22.6880   19.5580 N   0  0  2  0  0  4  0  0  0  0  0  0
  -30.4580  -23.0040   19.7990 H   0  0  0  0  0  0  0  0  0  0  0  0
  -30.6460  -17.8770   19.0930 C   0  0  0  0  0  2  0  0  0  0  0  0
  -31.0280  -17.0550   20.3460 C   0  0  0  0  0  3  0  0  0  0  0  0
  -30.1130  -18.1090   21.0560 C   0  0  0  0  0  3  0  0  0  0  0  0
  -30.5470  -19.0470   20.0010 N   0  0  0  0  0  0  0  0  0  0  0  0
  -31.3400  -14.4930   20.2440 C   0  0  0  0  0  0  0  0  0  0  0  0
  -31.0710  -12.1540   19.4520 C   0  0  0  0  0  2  0  0  0  0  0  0
  -30.1440  -12.1520   18.2180 C   0  0  0  0  0  2  0  0  0  0  0  0
  -28.6640  -12.0810   18.6460 C   0  0  0  0  0  2  0  0  0  0  0  0
  -28.3150  -13.1000   19.7650 C   0  0  0  0  0  3  0  0  0  0  0  0
  -29.3590  -13.0680   20.9030 C   0  0  0  0  0  2  0  0  0  0  0  0
  -30.6780  -13.2980   20.2970 N   0  0  0  0  0  0  0  0  0  0  0  0
  -32.5230  -14.5590   19.8970 O   0  0  0  0  0  0  0  0  0  0  0  0
  -30.5860  -15.6230   20.4000 N   0  0  0  0  0  0  0  0  0  0  0  0
  -29.6140  -15.4680   20.6170 H   0  0  0  0  0  0  0  0  0  0  0  0
  -25.9820  -13.8580   20.5300 C   0  0  0  0  0  0  0  0  0  0  0  0
  -24.8650  -13.1570   20.8950 C   0  0  0  0  0  0  0  0  0  0  0  0
  -25.2260  -11.7760   20.8300 C   0  0  0  0  0  0  0  0  0  0  0  0
  -26.9560  -12.9080   20.2630 N   0  0  0  0  0  0  0  0  0  0  0  0
  -26.5060  -11.6500   20.5040 N   0  0  0  0  0  0  0  0  0  0  0  0
  -24.4090  -10.5670   21.0000 C   0  0  0  0  0  0  0  0  0  0  0  0
  -24.7590   -9.5640   21.9300 C   0  0  0  0  0  3  0  0  0  0  0  0
  -23.9480   -8.4200   22.0890 C   0  0  0  0  0  3  0  0  0  0  0  0
  -22.7720   -8.2720   21.3160 C   0  0  0  0  0  0  0  0  0  0  0  0
  -22.4410   -9.2610   20.3730 C   0  0  0  0  0  3  0  0  0  0  0  0
  -23.2520  -10.3970   20.2130 C   0  0  0  0  0  3  0  0  0  0  0  0
  -21.9370   -7.1830   21.3850 O   0  0  0  0  0  0  0  0  0  0  0  0
  -21.7790   -6.4680   22.5450 C   0  0  0  0  0  0  0  0  0  0  0  0
  -21.3340   -7.0780   23.7380 C   0  0  0  0  0  3  0  0  0  0  0  0
  -21.1180   -6.2950   24.8910 C   0  0  0  0  0  3  0  0  0  0  0  0
  -21.3370   -4.9050   24.8480 C   0  0  0  0  0  0  0  0  0  0  0  0
  -21.7730   -4.2960   23.6590 C   0  0  0  0  0  3  0  0  0  0  0  0
  -21.9900   -5.0760   22.5090 C   0  0  0  0  0  0  0  0  0  0  0  0
  -22.3910   -4.4820   21.3610 F   0  0  0  0  0  0  0  0  0  0  0  0
  -21.1210   -4.1500   25.9510 F   0  0  0  0  0  0  0  0  0  0  0  0
  -23.5090  -13.7290   21.1940 C   0  0  0  0  0  0  0  0  0  0  0  0
  -22.7520  -13.0830   22.0720 N   0  0  0  0  0  0  0  0  0  0  0  0
  -23.1340  -14.7840   20.6840 O   0  0  0  0  0  0  0  0  0  0  0  0
  -23.0700  -12.2280   22.5060 H   0  0  0  0  0  0  0  0  0  0  0  0
  -21.8420  -13.4460   22.3150 H   0  0  0  0  0  0  0  0  0  0  0  0
  -26.2440  -15.2170   20.3800 N   0  0  0  0  0  0  0  0  0  0  0  0
  -25.5220  -15.9160   20.5120 H   0  0  0  0  0  0  0  0  0  0  0  0
  -27.1020  -15.6010   20.0100 H   0  0  0  0  0  0  0  0  0  0  0  0
  -30.6840  -17.4900   23.4520 C   0  0  0  0  0  1  0  0  0  0  0  0
  -30.4700  -18.6240   22.4460 C   0  0  0  0  0  2  0  0  0  0  0  0
  -28.5460  -24.7270   18.3430 C   0  0  0  0  0  1  0  0  0  0  0  0
  -28.5990  -23.9200   19.6720 C   0  0  0  0  0  3  0  0  0  0  0  0
  -28.8950  -24.9510   20.8510 C   0  0  0  0  0  2  0  0  0  0  0  0
  -28.9130  -26.4000   20.5720 O   0  0  0  0  0  0  0  0  0  0  0  0
  -24.8860  -31.6380   23.4330 C   0  0  0  0  0  0  0  0  0  0  0  0
  -27.7330  -27.1440   20.5300 C   0  0  0  0  0  0  0  0  0  0  0  0
  -23.7880  -30.2140   21.7400 C   0  0  0  0  0  3  0  0  0  0  0  0
  -25.3330  -28.6790   20.4020 C   0  0  0  0  0  0  0  0  0  0  0  0
  -26.3230  -30.5850   21.6760 C   0  0  0  0  0  2  0  0  0  0  0  0
  -26.4600  -29.2070   21.0430 C   0  0  0  0  0  0  0  0  0  0  0  0
  -27.6650  -28.4540   21.0880 C   0  0  0  0  0  3  0  0  0  0  0  0
  -26.5800  -26.6410   19.8910 C   0  0  0  0  0  3  0  0  0  0  0  0
  -25.3930  -27.4000   19.8180 C   0  0  0  0  0  3  0  0  0  0  0  0
  -24.0820  -29.5320   20.3760 C   0  0  0  0  0  2  0  0  0  0  0  0
  -25.0150  -30.8300   22.3410 N   0  0  0  0  0  0  0  0  0  0  0  0
  -23.7750  -31.8990   23.9140 O   0  0  0  0  0  0  0  0  0  0  0  0
  -23.0960  -29.1910   22.6710 C   0  0  0  0  0  0  0  0  0  0  0  0
  -21.7890  -28.9670   22.4550 N   0  0  0  0  0  0  0  0  0  0  0  0
  -23.7390  -28.6000   23.5440 O   0  0  0  0  0  0  0  0  0  0  0  0
  -21.3310  -29.4930   21.7240 H   0  0  0  0  0  0  0  0  0  0  0  0
  -18.4300  -27.6580   22.7320 C   0  0  0  0  0  0  0  0  0  0  0  0
  -20.9500  -28.0160   23.1860 C   0  0  0  0  0  3  0  0  0  0  0  0
  -21.1460  -26.5790   22.6520 C   0  0  0  0  0  2  0  0  0  0  0  0
  -20.1340  -26.1970   21.5660 C   0  0  0  0  0  2  0  0  0  0  0  0
  -18.7030  -26.3040   22.1010 C   0  0  0  0  0  2  0  0  0  0  0  0
  -19.4850  -28.4700   23.2270 C   0  0  0  0  0  0  0  0  0  0  0  0
  -19.1780  -29.7360   23.7700 C   0  0  0  0  0  3  0  0  0  0  0  0
  -17.8480  -30.1910   23.8280 C   0  0  0  0  0  3  0  0  0  0  0  0
  -16.8060  -29.3790   23.3510 C   0  0  0  0  0  3  0  0  0  0  0  0
  -17.0970  -28.1140   22.8080 C   0  0  0  0  0  3  0  0  0  0  0  0
  -26.1280  -32.2920   24.1140 C   0  0  0  0  0  3  0  0  0  0  0  0
  -26.5730  -31.5530   25.4350 C   0  0  1  0  0  0  0  0  0  0  0  0
  -25.4180  -31.3210   26.4380 C   0  0  0  0  0  1  0  0  0  0  0  0
  -27.1950  -30.1750   25.1090 C   0  0  0  0  0  1  0  0  0  0  0  0
  -27.6750  -32.3720   26.1470 C   0  0  0  0  0  1  0  0  0  0  0  0
  -25.7910  -33.6950   24.3940 N   0  0  0  0  0  0  0  0  0  0  0  0
  -26.1610  -34.7340   23.6320 C   0  0  0  0  0  0  0  0  0  0  0  0
  -26.8880  -34.6120   22.6430 O   0  0  0  0  0  0  0  0  0  0  0  0
  -25.1450  -33.8610   25.1510 H   0  0  0  0  0  0  0  0  0  0  0  0
  -24.4430  -36.5060   23.1430 C   0  0  0  0  0  1  0  0  0  0  0  0
  -25.6400  -36.1300   24.0300 C   0  0  0  0  0  3  0  0  0  0  0  0
  -27.7200  -37.0470   24.9570 C   0  0  0  0  0  1  0  0  0  0  0  0
  -26.6720  -37.1870   23.9500 N   0  0  0  0  0  0  0  0  0  0  0  0
  -26.2530  -38.1070   24.0560 H   0  0  0  0  0  0  0  0  0  0  0  0
  2  1  1  0
  2  5  1  0
  4  1  1  0
  4 10  1  0
  4  3  1  0
  5 52  1  0
  5  6  1  1
  5  3  1  0
  7  8  1  0
  8 19  1  0
  8  9  1  0
  9 50  1  0
 10  7  1  0
 10  9  1  0
 11 17  1  0
 11 19  1  0
 12 17  1  0
 13 14  1  0
 13 12  1  0
 15 14  1  0
 15 24  1  0
 15 16  1  0
 17 16  1  0
 18 11  2  0
 19 20  1  0
 21 22  2  0
 22 41  1  0
 23 22  1  0
 23 26  1  0
 24 25  1  0
 24 21  1  0
 25 23  2  0
 26 27  1  0
 27 28  2  0
 29 32  1  0
 29 28  1  0
 30 29  2  0
 31 30  1  0
 31 26  2  0
 32 33  1  0
 33 34  1  0
 34 35  2  0
 36 35  1  0
 36 40  1  0
 37 36  2  0
 38 33  2  0
 38 37  1  0
 39 38  1  0
 41 42  1  0
 42 45  1  0
 42 44  1  0
 43 41  2  0
 46 47  1  0
 46 21  1  0
 48 46  1  0
 50 49  1  0
 52 51  1  0
 52 53  1  0
 54 53  1  0
 55 66  2  0
 56 54  1  0
 56 61  1  0
 57 65  1  0
 57 67  1  0
 58 60  1  0
 59 65  1  0
 60 61  2  0
 60 59  1  0
 62 56  2  0
 63 62  1  0
 63 58  2  0
 64 58  1  0
 64 57  1  0
 65 55  1  0
 67 69  2  0
 68 67  1  0
 70 68  1  0
 71 80  2  0
 71 76  1  0
 72 68  1  0
 72 76  1  0
 73 72  1  0
 74 75  1  0
 74 73  1  0
 75 71  1  0
 76 77  2  0
 77 78  1  0
 79 78  2  0
 80 79  1  0
 81 55  1  0
 81 86  1  0
 81 82  1  0
 82 85  1  1
 82 83  1  0
 84 82  1  0
 86 89  1  0
 87 91  1  0
 87 86  1  0
 88 87  2  0
 91 90  1  0
 93 91  1  0
 93 94  1  0
 93 92  1  0
M  ISO  4  11 100  19 100  53 101  54 101
M  END
>  <TORSDO>  (55) 
F 20

>  <SCORE>  (55) 
-11.892

>  <name>  (55) 
54

>  <ligand_id>  (55) 
54

>  <original_smiles>  (55) 
[H]c1c([H])c([H])c2c(c1[H])C([H])([H])C([H])([H])C([H])([H])C2([H])N([H])C(=O)C1([H])N(C(=O)C([H])(N([H])C(=O)C([H])(N([H])C([H])([H])[H])C([H])([H])[H])C(C([H])([H])[H])(C([H])([H])[H])C([H])([H])[H])C([H])([H])c2c([H])c(OC([H])([H])C([H])(C([H])([H])[H])[N+]3([H])C([H])([H])C([H])([H])C([H])(N4C([H])([H])C([H])(N([H])C(=O)N5C([H])([H])C([H])([H])C([H])([H])C([H])(n6nc(-c7c([H])c([H])c(Oc8c([H])c([H])c(F)c([H])c8F)c([H])c7[H])c(C(=O)N([H])[H])c6N([H])[H])C5([H])[H])C4([H])C([H])([H])C([H])([H])[H])C3([H])[H])c([H])c([H])c2C1([H])[H]

>  <smiles>  (55) 
[H]c1c([H])c([H])c2c(c1[H])C([H])([H])C([H])([H])C([H])([H])C2([H])N([H])C(=O)C1([H])N(C(=O)C([H])(N([H])C(=O)C([H])(N([H])C([H])([H])[H])C([H])([H])[H])C(C([H])([H])[H])(C([H])([H])[H])C([H])([H])[H])C([H])([H])c2c([H])c(OC([H])([H])C([H])(C([H])([H])[H])[N+]3([H])C([H])([H])C([H])([H])C([H])(N4C([H])([H])C([H])(N([H])C(=O)N5C([H])([H])C([H])([H])C([H])([H])C([H])(n6nc(-c7c([H])c([H])c(Oc8c([H])c([H])c(F)c([H])c8F)c([H])c7[H])c(C(=O)N([H])[H])c6N([H])[H])C5([H])[H])C4([H])C([H])([H])C([H])([H])[H])C3([H])[H])c([H])c([H])c2C1([H])[H]

$$$$
55:0:0
     RDKit          3D

 94103  0  0  1  0  0  0  0  0999 V2000
  -29.6580  -19.5420   20.1350 C   0  0  0  0  0  3  0  0  0  0  0  0
  -28.6470  -20.5080   20.1690 C   0  0  0  0  0  0  0  0  0  0  0  0
  -30.8380  -19.8800   19.4700 C   0  0  0  0  0  0  0  0  0  0  0  0
  -29.9600  -21.9560   18.9820 C   0  0  0  0  0  0  0  0  0  0  0  0
  -27.3350  -20.2290   20.8810 C   0  0  0  0  0  1  0  0  0  0  0  0
  -28.8090  -21.7150   19.5860 N   0  0  0  0  0  0  0  0  0  0  0  0
  -30.9810  -21.1010   18.8840 N   0  0  0  0  0  0  0  0  0  0  0  0
  -31.9460  -19.0200   19.3710 N   0  0  0  0  0  0  0  0  0  0  0  0
  -30.0430  -23.2430   18.4690 N   0  0  0  0  0  0  0  0  0  0  0  0
  -32.6960  -19.4150   18.8140 H   0  0  0  0  0  0  0  0  0  0  0  0
  -29.2240  -23.8050   18.6700 H   0  0  0  0  0  0  0  0  0  0  0  0
  -32.0840  -14.6540   20.5100 C   0  0  0  0  0  0  0  0  0  0  0  0
  -31.7300  -12.2450   20.0320 C   0  0  0  0  0  2  0  0  0  0  0  0
  -30.8880  -12.0730   18.7510 C   0  0  0  0  0  2  0  0  0  0  0  0
  -29.3840  -12.1140   19.0780 C   0  0  0  0  0  2  0  0  0  0  0  0
  -29.0070  -13.3180   19.9860 C   0  0  0  0  0  3  0  0  0  0  0  0
  -29.9680  -13.4430   21.1890 C   0  0  0  0  0  2  0  0  0  0  0  0
  -31.3390  -13.5200   20.6630 N   0  0  0  0  0  0  0  0  0  0  0  0
  -33.2570  -14.6280   20.1260 O   0  0  0  0  0  0  0  0  0  0  0  0
  -32.0250  -17.0950   21.1800 C   0  0  0  0  0  2  0  0  0  0  0  0
  -31.0310  -16.5850   19.4220 C   0  0  0  0  0  2  0  0  0  0  0  0
  -32.1360  -17.5910   19.7340 C   0  0  0  0  0  3  0  0  0  0  0  0
  -31.4230  -15.8380   20.6440 N   0  0  0  0  0  0  0  0  0  0  0  0
  -26.7080  -14.2710   20.6260 C   0  0  0  0  0  0  0  0  0  0  0  0
  -25.5180  -13.6670   20.9280 C   0  0  0  0  0  0  0  0  0  0  0  0
  -25.7630  -12.2600   20.8560 C   0  0  0  0  0  0  0  0  0  0  0  0
  -27.6110  -13.2460   20.4030 N   0  0  0  0  0  0  0  0  0  0  0  0
  -27.0430  -12.0270   20.5920 N   0  0  0  0  0  0  0  0  0  0  0  0
  -24.8390  -11.1240   20.9630 C   0  0  0  0  0  0  0  0  0  0  0  0
  -25.1470   -9.9970   21.7560 C   0  0  0  0  0  3  0  0  0  0  0  0
  -24.2340   -8.9250   21.8600 C   0  0  0  0  0  3  0  0  0  0  0  0
  -23.0020   -8.9760   21.1690 C   0  0  0  0  0  0  0  0  0  0  0  0
  -22.7100  -10.0910   20.3620 C   0  0  0  0  0  3  0  0  0  0  0  0
  -23.6200  -11.1520   20.2550 C   0  0  0  0  0  3  0  0  0  0  0  0
  -22.0680   -7.9690   21.1830 O   0  0  0  0  0  0  0  0  0  0  0  0
  -21.8760   -7.1840   22.2920 C   0  0  0  0  0  0  0  0  0  0  0  0
  -21.4460   -7.7260   23.5220 C   0  0  0  0  0  3  0  0  0  0  0  0
  -21.2020   -6.8740   24.6200 C   0  0  0  0  0  3  0  0  0  0  0  0
  -21.3780   -5.4850   24.4840 C   0  0  0  0  0  0  0  0  0  0  0  0
  -21.7990   -4.9440   23.2570 C   0  0  0  0  0  3  0  0  0  0  0  0
  -22.0420   -5.7900   22.1640 C   0  0  0  0  0  0  0  0  0  0  0  0
  -22.4300   -5.2620   20.9770 F   0  0  0  0  0  0  0  0  0  0  0  0
  -21.1350   -4.6670   25.5350 F   0  0  0  0  0  0  0  0  0  0  0  0
  -24.2060  -14.3490   21.1820 C   0  0  0  0  0  0  0  0  0  0  0  0
  -23.3690  -13.7660   22.0300 N   0  0  0  0  0  0  0  0  0  0  0  0
  -23.9420  -15.4300   20.6580 O   0  0  0  0  0  0  0  0  0  0  0  0
  -23.6030  -12.8900   22.4750 H   0  0  0  0  0  0  0  0  0  0  0  0
  -22.4870  -14.2070   22.2550 H   0  0  0  0  0  0  0  0  0  0  0  0
  -27.0940  -15.6050   20.5020 N   0  0  0  0  0  0  0  0  0  0  0  0
  -26.4450  -16.3710   20.6420 H   0  0  0  0  0  0  0  0  0  0  0  0
  -27.9900  -15.9070   20.1430 H   0  0  0  0  0  0  0  0  0  0  0  0
  -31.0010  -23.8560   17.5320 C   0  0  0  0  0  2  0  0  0  0  0  0
  -30.3080  -24.9340   16.6330 C   0  0  0  0  0  2  0  0  0  0  0  0
  -30.2360  -26.3190   17.0950 O   0  0  0  0  0  0  0  0  0  0  0  0
  -25.6840  -27.7160   22.4390 C   0  0  0  0  0  0  0  0  0  0  0  0
  -28.9660  -26.7610   17.4570 C   0  0  0  0  0  0  0  0  0  0  0  0
  -24.6840  -27.3870   20.2030 C   0  0  0  0  0  3  0  0  0  0  0  0
  -26.3160  -27.4250   18.2440 C   0  0  0  0  0  0  0  0  0  0  0  0
  -27.0590  -28.3300   20.4490 C   0  0  0  0  0  2  0  0  0  0  0  0
  -27.3880  -27.7040   19.1030 C   0  0  0  0  0  0  0  0  0  0  0  0
  -28.7150  -27.3810   18.7130 C   0  0  0  0  0  3  0  0  0  0  0  0
  -27.8610  -26.5520   16.5930 C   0  0  0  0  0  3  0  0  0  0  0  0
  -26.5490  -26.8510   16.9880 C   0  0  0  0  0  3  0  0  0  0  0  0
  -24.9240  -27.7750   18.7220 C   0  0  0  0  0  2  0  0  0  0  0  0
  -25.8280  -27.7920   21.0870 N   0  0  0  0  0  0  0  0  0  0  0  0
  -24.6150  -27.3570   22.9490 O   0  0  0  0  0  0  0  0  0  0  0  0
  -24.3560  -25.8790   20.2820 C   0  0  0  0  0  0  0  0  0  0  0  0
  -23.1660  -25.4950   19.7880 N   0  0  0  0  0  0  0  0  0  0  0  0
  -25.1650  -25.0780   20.7580 O   0  0  0  0  0  0  0  0  0  0  0  0
  -22.5560  -26.2090   19.4200 H   0  0  0  0  0  0  0  0  0  0  0  0
  -20.3920  -23.4580   18.6890 C   0  0  0  0  0  0  0  0  0  0  0  0
  -22.6620  -24.1240   19.7290 C   0  0  0  0  0  3  0  0  0  0  0  0
  -23.3090  -23.3420   18.5620 C   0  0  0  0  0  2  0  0  0  0  0  0
  -22.4850  -23.3940   17.2720 C   0  0  0  0  0  2  0  0  0  0  0  0
  -21.0870  -22.8140   17.5030 C   0  0  0  0  0  2  0  0  0  0  0  0
  -21.1290  -24.0860   19.7270 C   0  0  0  0  0  0  0  0  0  0  0  0
  -20.4310  -24.7000   20.7890 C   0  0  0  0  0  3  0  0  0  0  0  0
  -19.0230  -24.6900   20.8260 C   0  0  0  0  0  3  0  0  0  0  0  0
  -18.2980  -24.0540   19.8030 C   0  0  0  0  0  3  0  0  0  0  0  0
  -18.9820  -23.4360   18.7410 C   0  0  0  0  0  3  0  0  0  0  0  0
  -26.8440  -28.1080   23.4050 C   0  0  0  0  0  3  0  0  0  0  0  0
  -26.6810  -29.5310   23.7350 N   0  0  0  0  0  0  0  0  0  0  0  0
  -27.4970  -30.5080   23.3160 C   0  0  0  0  0  0  0  0  0  0  0  0
  -28.5190  -30.2890   22.6600 O   0  0  0  0  0  0  0  0  0  0  0  0
  -25.8380  -29.7880   24.2240 H   0  0  0  0  0  0  0  0  0  0  0  0
  -26.6030  -32.6850   22.4330 C   0  0  0  0  0  1  0  0  0  0  0  0
  -27.1180  -31.9540   23.6830 C   0  0  0  0  0  3  0  0  0  0  0  0
  -28.6000  -32.2540   25.6180 C   0  0  0  0  0  1  0  0  0  0  0  0
  -28.2320  -32.7200   24.2840 N   0  0  0  0  0  0  0  0  0  0  0  0
  -27.9960  -33.7060   24.3460 H   0  0  0  0  0  0  0  0  0  0  0  0
  -26.8830  -27.2300   24.7150 C   0  0  1  0  0  0  0  0  0  0  0  0
  -25.5370  -27.1830   25.4750 C   0  0  0  0  0  1  0  0  0  0  0  0
  -27.2880  -25.7750   24.3870 C   0  0  0  0  0  1  0  0  0  0  0  0
  -27.9560  -27.7840   25.6820 C   0  0  0  0  0  1  0  0  0  0  0  0
  1  2  2  0
  2  5  1  0
  3  1  1  0
  4  6  2  0
  6  2  1  0
  7  4  1  0
  7  3  2  0
  8  3  1  0
  9 11  1  0
  9  4  1  0
 10  8  1  0
 12 23  1  0
 12 18  1  0
 13 18  1  0
 14 15  1  0
 14 13  1  0
 16 15  1  0
 16 27  1  0
 16 17  1  0
 18 17  1  0
 19 12  2  0
 21 22  1  0
 21 23  1  0
 22  8  1  0
 22 20  1  0
 23 20  1  0
 24 25  2  0
 25 44  1  0
 26 25  1  0
 26 29  1  0
 27 28  1  0
 27 24  1  0
 28 26  2  0
 29 30  1  0
 30 31  2  0
 32 35  1  0
 32 31  1  0
 33 32  2  0
 34 33  1  0
 34 29  2  0
 35 36  1  0
 36 37  1  0
 37 38  2  0
 39 38  1  0
 39 43  1  0
 40 39  2  0
 41 36  2  0
 41 40  1  0
 42 41  1  0
 44 45  1  0
 45 48  1  0
 45 47  1  0
 46 44  2  0
 49 24  1  0
 49 50  1  0
 51 49  1  0
 52  9  1  0
 53 54  1  0
 53 52  1  0
 54 56  1  0
 55 66  2  0
 56 61  1  0
 57 67  1  0
 57 65  1  0
 58 64  1  0
 58 60  1  0
 59 65  1  0
 60 59  1  0
 61 60  2  0
 62 63  1  0
 62 56  2  0
 63 58  2  0
 64 57  1  0
 65 55  1  0
 67 69  2  0
 68 67  1  0
 70 68  1  0
 71 80  2  0
 71 76  1  0
 72 68  1  0
 73 72  1  0
 74 75  1  0
 74 73  1  0
 75 71  1  0
 76 72  1  0
 76 77  2  0
 77 78  1  0
 79 78  2  0
 80 79  1  0
 81 55  1  0
 81 82  1  0
 81 91  1  0
 82 85  1  0
 83 87  1  0
 83 82  1  0
 84 83  2  0
 87 86  1  0
 87 89  1  0
 89 90  1  0
 89 88  1  0
 91 92  1  1
 91 94  1  0
 93 91  1  0
M  ISO  4  12 100  23 100  53 101  54 101
M  END
>  <TORSDO>  (56) 
F 18

>  <SCORE>  (56) 
-8.236

>  <name>  (56) 
55

>  <ligand_id>  (56) 
55

>  <original_smiles>  (56) 
[H]c1c(N([H])C2([H])C([H])([H])N(C(=O)N3C([H])([H])C([H])([H])C([H])([H])C([H])(n4nc(-c5c([H])c([H])c(Oc6c([H])c([H])c(F)c([H])c6F)c([H])c5[H])c(C(=O)N([H])[H])c4N([H])[H])C3([H])[H])C2([H])[H])nc(N([H])C([H])([H])C([H])([H])Oc2c([H])c([H])c3c(c2[H])C([H])([H])N(C(=O)C([H])(N([H])C(=O)C([H])(N([H])C([H])([H])[H])C([H])([H])[H])C(C([H])([H])[H])(C([H])([H])[H])C([H])([H])[H])C([H])(C(=O)N([H])C2([H])c4c([H])c([H])c([H])c([H])c4C([H])([H])C([H])([H])C2([H])[H])C3([H])[H])nc1C([H])([H])[H]

>  <smiles>  (56) 
[H]c1c(N([H])C2([H])C([H])([H])N(C(=O)N3C([H])([H])C([H])([H])C([H])([H])C([H])(n4nc(-c5c([H])c([H])c(Oc6c([H])c([H])c(F)c([H])c6F)c([H])c5[H])c(C(=O)N([H])[H])c4N([H])[H])C3([H])[H])C2([H])[H])nc(N([H])C([H])([H])C([H])([H])Oc2c([H])c([H])c3c(c2[H])C([H])([H])N(C(=O)C([H])(N([H])C(=O)C([H])(N([H])C([H])([H])[H])C([H])([H])[H])C(C([H])([H])[H])(C([H])([H])[H])C([H])([H])[H])C([H])(C(=O)N([H])C2([H])c4c([H])c([H])c([H])c([H])c4C([H])([H])C([H])([H])C2([H])[H])C3([H])[H])nc1C([H])([H])[H]

$$$$
56:0:0
     RDKit          3D

 93102  0  0  1  0  0  0  0  0999 V2000
  -25.8890  -21.6250   19.0110 C   0  0  0  0  0  3  0  0  0  0  0  0
  -26.6920  -22.7140   19.3620 C   0  0  0  0  0  3  0  0  0  0  0  0
  -26.4220  -20.3480   19.1230 C   0  0  0  0  0  3  0  0  0  0  0  0
  -28.0310  -22.5430   19.8200 C   0  0  0  0  0  0  0  0  0  0  0  0
  -28.5110  -21.1810   19.8390 C   0  0  0  0  0  0  0  0  0  0  0  0
  -27.6880  -20.1440   19.5240 N   0  0  0  0  0  0  0  0  0  0  0  0
  -30.6080  -20.4730   21.4620 C   0  0  0  0  0  2  0  0  0  0  0  0
  -29.9270  -20.6620   20.1160 C   0  0  0  0  0  3  0  0  0  0  0  0
  -29.7870  -19.4230   20.9120 N   0  0  1  0  0  4  0  0  0  0  0  0
  -28.7940  -19.4240   21.1100 H   0  0  0  0  0  0  0  0  0  0  0  0
  -30.3330  -18.1310   20.3760 C   0  0  0  0  0  2  0  0  0  0  0  0
  -30.4320  -17.0080   21.4690 C   0  0  0  0  0  2  0  0  0  0  0  0
  -30.8480  -14.6410   20.4960 C   0  0  0  0  0  0  0  0  0  0  0  0
  -30.6030  -12.4590   19.3400 C   0  0  0  0  0  2  0  0  0  0  0  0
  -29.6450  -12.6140   18.1390 C   0  0  0  0  0  2  0  0  0  0  0  0
  -28.1740  -12.4550   18.5770 C   0  0  0  0  0  2  0  0  0  0  0  0
  -27.8280  -13.3050   19.8280 C   0  0  0  0  0  3  0  0  0  0  0  0
  -28.8910  -13.1050   20.9320 C   0  0  0  0  0  2  0  0  0  0  0  0
  -30.2060  -13.4450   20.3580 N   0  0  0  0  0  0  0  0  0  0  0  0
  -31.9740  -14.8610   20.0420 O   0  0  0  0  0  0  0  0  0  0  0  0
  -30.1040  -15.6180   21.0590 N   0  0  0  0  0  0  0  0  0  0  0  0
  -29.1840  -15.3030   21.3320 H   0  0  0  0  0  0  0  0  0  0  0  0
  -25.4350  -13.9070   20.5640 C   0  0  0  0  0  0  0  0  0  0  0  0
  -24.3670  -13.1310   20.9280 C   0  0  0  0  0  0  0  0  0  0  0  0
  -24.8240  -11.7790   20.8720 C   0  0  0  0  0  0  0  0  0  0  0  0
  -26.4770  -13.0260   20.3110 N   0  0  0  0  0  0  0  0  0  0  0  0
  -26.1130  -11.7400   20.5540 N   0  0  0  0  0  0  0  0  0  0  0  0
  -24.0960  -10.5150   21.0450 C   0  0  0  0  0  0  0  0  0  0  0  0
  -24.5000   -9.5560   21.9990 C   0  0  0  0  0  3  0  0  0  0  0  0
  -23.7720   -8.3570   22.1590 C   0  0  0  0  0  3  0  0  0  0  0  0
  -22.6280   -8.1100   21.3650 C   0  0  0  0  0  0  0  0  0  0  0  0
  -22.2440   -9.0580   20.4000 C   0  0  0  0  0  3  0  0  0  0  0  0
  -22.9720  -10.2490   20.2380 C   0  0  0  0  0  3  0  0  0  0  0  0
  -21.8750   -6.9620   21.4320 O   0  0  0  0  0  0  0  0  0  0  0  0
  -21.7440   -6.2560   22.6020 C   0  0  0  0  0  0  0  0  0  0  0  0
  -21.1690   -6.8290   23.7580 C   0  0  0  0  0  3  0  0  0  0  0  0
  -20.9900   -6.0470   24.9160 C   0  0  0  0  0  3  0  0  0  0  0  0
  -21.3740   -4.6920   24.9180 C   0  0  0  0  0  0  0  0  0  0  0  0
  -21.9410   -4.1200   23.7670 C   0  0  0  0  0  3  0  0  0  0  0  0
  -22.1220   -4.8980   22.6110 C   0  0  0  0  0  0  0  0  0  0  0  0
  -22.6500   -4.3360   21.4970 F   0  0  0  0  0  0  0  0  0  0  0  0
  -21.1940   -3.9390   26.0280 F   0  0  0  0  0  0  0  0  0  0  0  0
  -22.9720  -13.6080   21.2160 C   0  0  0  0  0  0  0  0  0  0  0  0
  -22.2490  -12.9030   22.0790 N   0  0  0  0  0  0  0  0  0  0  0  0
  -22.5320  -14.6420   20.7140 O   0  0  0  0  0  0  0  0  0  0  0  0
  -22.6170  -12.0670   22.5080 H   0  0  0  0  0  0  0  0  0  0  0  0
  -21.3130  -13.2040   22.3130 H   0  0  0  0  0  0  0  0  0  0  0  0
  -25.6010  -15.2800   20.4080 N   0  0  0  0  0  0  0  0  0  0  0  0
  -24.8320  -15.9300   20.5280 H   0  0  0  0  0  0  0  0  0  0  0  0
  -26.4430  -15.7220   20.0620 H   0  0  0  0  0  0  0  0  0  0  0  0
  -28.8400  -23.8260   20.2490 C   0  0  0  0  0  2  0  0  0  0  0  0
  -28.0150  -25.1570   20.0420 C   0  0  0  0  0  2  0  0  0  0  0  0
  -28.3380  -26.5450   20.3920 O   0  0  0  0  0  0  0  0  0  0  0  0
  -24.5380  -31.9220   23.3400 C   0  0  0  0  0  0  0  0  0  0  0  0
  -27.2290  -27.4090   20.3090 C   0  0  0  0  0  0  0  0  0  0  0  0
  -23.3760  -30.5310   21.6690 C   0  0  0  0  0  3  0  0  0  0  0  0
  -24.8600  -29.0090   20.2690 C   0  0  0  0  0  0  0  0  0  0  0  0
  -25.9200  -30.8570   21.5500 C   0  0  0  0  0  2  0  0  0  0  0  0
  -26.0160  -29.4880   20.8970 C   0  0  0  0  0  0  0  0  0  0  0  0
  -27.2040  -28.7000   20.9170 C   0  0  0  0  0  3  0  0  0  0  0  0
  -26.0420  -26.9980   19.6430 C   0  0  0  0  0  3  0  0  0  0  0  0
  -24.8720  -27.7650   19.6380 C   0  0  0  0  0  3  0  0  0  0  0  0
  -23.6210  -29.8750   20.2900 C   0  0  0  0  0  2  0  0  0  0  0  0
  -24.6290  -31.1180   22.2440 N   0  0  0  0  0  0  0  0  0  0  0  0
  -23.4420  -32.1970   23.8480 O   0  0  0  0  0  0  0  0  0  0  0  0
  -22.6940  -29.5020   22.6030 C   0  0  0  0  0  0  0  0  0  0  0  0
  -21.3700  -29.3300   22.4500 N   0  0  0  0  0  0  0  0  0  0  0  0
  -23.3560  -28.8640   23.4270 O   0  0  0  0  0  0  0  0  0  0  0  0
  -20.8970  -29.8980   21.7600 H   0  0  0  0  0  0  0  0  0  0  0  0
  -17.9720  -28.1800   22.9030 C   0  0  0  0  0  0  0  0  0  0  0  0
  -20.5310  -28.3940   23.1990 C   0  0  0  0  0  3  0  0  0  0  0  0
  -20.6160  -26.9700   22.6040 C   0  0  0  0  0  2  0  0  0  0  0  0
  -19.5170  -26.6780   21.5770 C   0  0  0  0  0  2  0  0  0  0  0  0
  -18.1320  -26.8370   22.2110 C   0  0  0  0  0  2  0  0  0  0  0  0
  -19.0980  -28.9180   23.3540 C   0  0  0  0  0  0  0  0  0  0  0  0
  -18.8940  -30.1760   23.9600 C   0  0  0  0  0  3  0  0  0  0  0  0
  -17.5960  -30.6970   24.1220 C   0  0  0  0  0  3  0  0  0  0  0  0
  -16.4830  -29.9550   23.6870 C   0  0  0  0  0  3  0  0  0  0  0  0
  -16.6730  -28.6980   23.0840 C   0  0  0  0  0  3  0  0  0  0  0  0
  -25.8060  -32.5520   23.9920 C   0  0  0  0  0  3  0  0  0  0  0  0
  -25.5080  -33.9650   24.2620 N   0  0  0  0  0  0  0  0  0  0  0  0
  -25.8880  -34.9850   23.4800 C   0  0  0  0  0  0  0  0  0  0  0  0
  -26.5970  -34.8350   22.4820 O   0  0  0  0  0  0  0  0  0  0  0  0
  -24.8870  -34.1570   25.0340 H   0  0  0  0  0  0  0  0  0  0  0  0
  -24.2230  -36.8010   22.9760 C   0  0  0  0  0  1  0  0  0  0  0  0
  -25.4050  -36.3960   23.8700 C   0  0  0  0  0  3  0  0  0  0  0  0
  -27.4990  -37.2700   24.8090 C   0  0  0  0  0  1  0  0  0  0  0  0
  -26.4660  -37.4240   23.7890 N   0  0  0  0  0  0  0  0  0  0  0  0
  -26.0710  -38.3570   23.8740 H   0  0  0  0  0  0  0  0  0  0  0  0
  -26.2550  -31.8140   25.3140 C   0  0  1  0  0  0  0  0  0  0  0  0
  -25.1120  -31.6210   26.3370 C   0  0  0  0  0  1  0  0  0  0  0  0
  -26.8390  -30.4190   24.9900 C   0  0  0  0  0  1  0  0  0  0  0  0
  -27.3840  -32.6170   26.0020 C   0  0  0  0  0  1  0  0  0  0  0  0
  1  3  2  0
  1  2  1  0
  2  4  2  0
  3  6  1  0
  4  5  1  0
  4 51  1  0
  6  5  2  0
  8  5  1  0
  8  9  1  0
  8  7  1  0
  9 10  1  1
  9  7  1  0
 11  9  1  0
 11 12  1  0
 13 21  1  0
 14 19  1  0
 15 16  1  0
 15 14  1  0
 17 16  1  0
 17 26  1  0
 17 18  1  0
 19 13  1  0
 19 18  1  0
 20 13  2  0
 21 22  1  0
 21 12  1  0
 23 24  2  0
 24 43  1  0
 25 24  1  0
 25 28  1  0
 26 27  1  0
 26 23  1  0
 27 25  2  0
 28 29  1  0
 29 30  2  0
 31 34  1  0
 31 30  1  0
 32 31  2  0
 33 32  1  0
 33 28  2  0
 34 35  1  0
 35 40  2  0
 35 36  1  0
 36 37  2  0
 37 38  1  0
 38 42  1  0
 39 38  2  0
 40 39  1  0
 41 40  1  0
 43 44  1  0
 44 47  1  0
 44 46  1  0
 45 43  2  0
 48 49  1  0
 48 23  1  0
 50 48  1  0
 52 51  1  0
 52 53  1  0
 54 65  2  0
 55 53  1  0
 55 60  1  0
 56 64  1  0
 56 66  1  0
 57 63  1  0
 57 59  1  0
 58 64  1  0
 59 60  2  0
 59 58  1  0
 61 55  2  0
 62 61  1  0
 62 57  2  0
 63 56  1  0
 64 54  1  0
 66 68  2  0
 67 66  1  0
 69 67  1  0
 70 79  2  0
 70 75  1  0
 71 67  1  0
 71 75  1  0
 72 71  1  0
 73 74  1  0
 73 72  1  0
 74 70  1  0
 75 76  2  0
 76 77  1  0
 78 77  2  0
 79 78  1  0
 80 54  1  0
 80 81  1  0
 80 90  1  0
 81 84  1  0
 82 86  1  0
 82 81  1  0
 83 82  2  0
 86 85  1  0
 88 86  1  0
 88 89  1  0
 88 87  1  0
 90 93  1  1
 90 91  1  0
 92 90  1  0
M  ISO  4  13 100  21 100  52 101  53 101
M  END
>  <TORSDO>  (57) 
F 21

>  <SCORE>  (57) 
-13.125

>  <name>  (57) 
56

>  <ligand_id>  (57) 
56

>  <original_smiles>  (57) 
[H]c1nc(C2([H])C([H])([H])[N+]2([H])C([H])([H])C([H])([H])N([H])C(=O)N2C([H])([H])C([H])([H])C([H])([H])C([H])(n3nc(-c4c([H])c([H])c(Oc5c([H])c([H])c(F)c([H])c5F)c([H])c4[H])c(C(=O)N([H])[H])c3N([H])[H])C2([H])[H])c(C([H])([H])C([H])([H])Oc2c([H])c([H])c3c(c2[H])C([H])([H])N(C(=O)C([H])(N([H])C(=O)C([H])(N([H])C([H])([H])[H])C([H])([H])[H])C(C([H])([H])[H])(C([H])([H])[H])C([H])([H])[H])C([H])(C(=O)N([H])C2([H])c4c([H])c([H])c([H])c([H])c4C([H])([H])C([H])([H])C2([H])[H])C3([H])[H])c([H])c1[H]

>  <smiles>  (57) 
[H]c1nc(C2([H])C([H])([H])[N+]2([H])C([H])([H])C([H])([H])N([H])C(=O)N2C([H])([H])C([H])([H])C([H])([H])C([H])(n3nc(-c4c([H])c([H])c(Oc5c([H])c([H])c(F)c([H])c5F)c([H])c4[H])c(C(=O)N([H])[H])c3N([H])[H])C2([H])[H])c(C([H])([H])C([H])([H])Oc2c([H])c([H])c3c(c2[H])C([H])([H])N(C(=O)C([H])(N([H])C(=O)C([H])(N([H])C([H])([H])[H])C([H])([H])[H])C(C([H])([H])[H])(C([H])([H])[H])C([H])([H])[H])C([H])(C(=O)N([H])C2([H])c4c([H])c([H])c([H])c([H])c4C([H])([H])C([H])([H])C2([H])[H])C3([H])[H])c([H])c1[H]

$$$$
57:0:0
     RDKit          3D

 92101  0  0  1  0  0  0  0  0999 V2000
  -29.4480  -21.4100   23.0680 C   0  0  0  0  0  2  0  0  0  0  0  0
  -29.7800  -20.3260   21.1500 C   0  0  0  0  0  0  0  0  0  0  0  0
  -29.1550  -22.4910   21.1750 C   0  0  0  0  0  0  0  0  0  0  0  0
  -31.0760  -18.1870   21.0440 C   0  0  0  0  0  2  0  0  0  0  0  0
  -29.1860  -18.1100   20.2350 C   0  0  0  0  0  2  0  0  0  0  0  0
  -30.4140  -17.1830   20.0890 C   0  0  0  0  0  3  0  0  0  0  0  0
  -29.7810  -20.2700   22.4720 N   0  0  0  0  0  0  0  0  0  0  0  0
  -29.1250  -22.5600   22.4960 N   0  0  0  0  0  0  0  0  0  0  0  0
  -29.4740  -21.4210   20.4480 N   0  0  0  0  0  0  0  0  0  0  0  0
  -30.1820  -19.1700   20.4080 N   0  0  0  0  0  0  0  0  0  0  0  0
  -31.0090  -14.7570   20.1930 C   0  0  0  0  0  0  0  0  0  0  0  0
  -30.7190  -12.5740   19.0910 C   0  0  0  0  0  2  0  0  0  0  0  0
  -29.7560  -12.7910   17.9010 C   0  0  0  0  0  2  0  0  0  0  0  0
  -28.2870  -12.6580   18.3540 C   0  0  0  0  0  2  0  0  0  0  0  0
  -27.9790  -13.4920   19.6290 C   0  0  0  0  0  3  0  0  0  0  0  0
  -29.0530  -13.2550   20.7170 C   0  0  0  0  0  2  0  0  0  0  0  0
  -30.3670  -13.5590   20.1280 N   0  0  0  0  0  0  0  0  0  0  0  0
  -32.1340  -14.9380   19.7120 O   0  0  0  0  0  0  0  0  0  0  0  0
  -30.2440  -15.8020   20.5880 N   0  0  0  0  0  0  0  0  0  0  0  0
  -29.3580  -15.5600   21.0070 H   0  0  0  0  0  0  0  0  0  0  0  0
  -25.6080  -14.1350   20.4050 C   0  0  0  0  0  0  0  0  0  0  0  0
  -24.5370  -13.3780   20.7960 C   0  0  0  0  0  0  0  0  0  0  0  0
  -24.9700  -12.0180   20.7330 C   0  0  0  0  0  0  0  0  0  0  0  0
  -26.6310  -13.2360   20.1310 N   0  0  0  0  0  0  0  0  0  0  0  0
  -26.2500  -11.9590   20.3870 N   0  0  0  0  0  0  0  0  0  0  0  0
  -24.2290  -10.7670   20.9290 C   0  0  0  0  0  0  0  0  0  0  0  0
  -24.6210   -9.8180   21.8980 C   0  0  0  0  0  3  0  0  0  0  0  0
  -23.8830   -8.6290   22.0790 C   0  0  0  0  0  3  0  0  0  0  0  0
  -22.7370   -8.3790   21.2870 C   0  0  0  0  0  0  0  0  0  0  0  0
  -22.3620   -9.3160   20.3060 C   0  0  0  0  0  3  0  0  0  0  0  0
  -23.1030  -10.4970   20.1250 C   0  0  0  0  0  3  0  0  0  0  0  0
  -21.9710   -7.2410   21.3730 O   0  0  0  0  0  0  0  0  0  0  0  0
  -21.7980   -6.5750   22.5600 C   0  0  0  0  0  0  0  0  0  0  0  0
  -21.2140   -7.1990   23.6830 C   0  0  0  0  0  3  0  0  0  0  0  0
  -20.9950   -6.4600   24.8630 C   0  0  0  0  0  3  0  0  0  0  0  0
  -21.3460   -5.0970   24.9180 C   0  0  0  0  0  0  0  0  0  0  0  0
  -21.9210   -4.4720   23.7960 C   0  0  0  0  0  3  0  0  0  0  0  0
  -22.1440   -5.2090   22.6210 C   0  0  0  0  0  0  0  0  0  0  0  0
  -22.6780   -4.5980   21.5370 F   0  0  0  0  0  0  0  0  0  0  0  0
  -21.1280   -4.3850   26.0470 F   0  0  0  0  0  0  0  0  0  0  0  0
  -23.1550  -13.8740   21.1160 C   0  0  0  0  0  0  0  0  0  0  0  0
  -22.4400  -13.1830   21.9990 N   0  0  0  0  0  0  0  0  0  0  0  0
  -22.7180  -14.9100   20.6170 O   0  0  0  0  0  0  0  0  0  0  0  0
  -22.8060  -12.3460   22.4310 H   0  0  0  0  0  0  0  0  0  0  0  0
  -21.5140  -13.4960   22.2490 H   0  0  0  0  0  0  0  0  0  0  0  0
  -25.7940  -15.5030   20.2300 N   0  0  0  0  0  0  0  0  0  0  0  0
  -25.0340  -16.1670   20.3250 H   0  0  0  0  0  0  0  0  0  0  0  0
  -26.6110  -15.8990   19.7850 H   0  0  0  0  0  0  0  0  0  0  0  0
  -28.8640  -23.6060   20.4460 O   0  0  0  0  0  0  0  0  0  0  0  0
  -28.1440  -24.7230   21.0250 C   0  0  0  0  0  2  0  0  0  0  0  0
  -28.9320  -26.0650   21.0260 C   0  0  0  0  0  2  0  0  0  0  0  0
  -28.6860  -26.9390   19.9060 O   0  0  0  0  0  0  0  0  0  0  0  0
  -24.7280  -31.8880   23.2120 C   0  0  0  0  0  0  0  0  0  0  0  0
  -27.5180  -27.6670   19.9630 C   0  0  0  0  0  0  0  0  0  0  0  0
  -23.5710  -30.5270   21.5000 C   0  0  0  0  0  3  0  0  0  0  0  0
  -25.0810  -29.1000   20.0180 C   0  0  0  0  0  0  0  0  0  0  0  0
  -26.0870  -30.9710   21.3360 C   0  0  0  0  0  2  0  0  0  0  0  0
  -26.2190  -29.6320   20.6400 C   0  0  0  0  0  0  0  0  0  0  0  0
  -27.4410  -28.9190   20.6170 C   0  0  0  0  0  3  0  0  0  0  0  0
  -26.3720  -27.1610   19.3200 C   0  0  0  0  0  3  0  0  0  0  0  0
  -25.1510  -27.8620   19.3550 C   0  0  0  0  0  3  0  0  0  0  0  0
  -23.8110  -29.9180   20.0930 C   0  0  0  0  0  2  0  0  0  0  0  0
  -24.8120  -31.1430   22.0740 N   0  0  0  0  0  0  0  0  0  0  0  0
  -23.6360  -32.1060   23.7580 O   0  0  0  0  0  0  0  0  0  0  0  0
  -22.9480  -29.4440   22.4080 C   0  0  0  0  0  0  0  0  0  0  0  0
  -21.6240  -29.2480   22.2880 N   0  0  0  0  0  0  0  0  0  0  0  0
  -23.6520  -28.7800   23.1730 O   0  0  0  0  0  0  0  0  0  0  0  0
  -21.1160  -29.8390   21.6460 H   0  0  0  0  0  0  0  0  0  0  0  0
  -18.2650  -28.0150   22.7950 C   0  0  0  0  0  0  0  0  0  0  0  0
  -20.8300  -28.2570   23.0130 C   0  0  0  0  0  3  0  0  0  0  0  0
  -20.9140  -26.8660   22.3370 C   0  0  0  0  0  2  0  0  0  0  0  0
  -19.7850  -26.6140   21.3350 C   0  0  0  0  0  2  0  0  0  0  0  0
  -18.4220  -26.7150   22.0250 C   0  0  0  0  0  2  0  0  0  0  0  0
  -19.3950  -28.7470   23.2470 C   0  0  0  0  0  0  0  0  0  0  0  0
  -19.1920  -29.9700   23.9230 C   0  0  0  0  0  3  0  0  0  0  0  0
  -17.8920  -30.4530   24.1590 C   0  0  0  0  0  3  0  0  0  0  0  0
  -16.7780  -29.7130   23.7280 C   0  0  0  0  0  3  0  0  0  0  0  0
  -16.9660  -28.4970   23.0460 C   0  0  0  0  0  3  0  0  0  0  0  0
  -25.9950  -32.5280   23.8640 C   0  0  0  0  0  3  0  0  0  0  0  0
  -26.5050  -31.7410   25.1330 C   0  0  1  0  0  0  0  0  0  0  0  0
  -25.3980  -31.4580   26.1730 C   0  0  0  0  0  1  0  0  0  0  0  0
  -27.1240  -30.3820   24.7240 C   0  0  0  0  0  1  0  0  0  0  0  0
  -27.6270  -32.5430   25.8310 C   0  0  0  0  0  1  0  0  0  0  0  0
  -25.6610  -33.9160   24.2120 N   0  0  0  0  0  0  0  0  0  0  0  0
  -25.9910  -34.9840   23.4720 C   0  0  0  0  0  0  0  0  0  0  0  0
  -26.6780  -34.9060   22.4500 O   0  0  0  0  0  0  0  0  0  0  0  0
  -25.0570  -34.0510   25.0090 H   0  0  0  0  0  0  0  0  0  0  0  0
  -24.2450  -36.7560   23.1010 C   0  0  0  0  0  1  0  0  0  0  0  0
  -25.4700  -36.3570   23.9400 C   0  0  0  0  0  3  0  0  0  0  0  0
  -27.5710  -37.2570   24.8370 C   0  0  0  0  0  1  0  0  0  0  0  0
  -26.4870  -37.4290   23.8750 N   0  0  0  0  0  0  0  0  0  0  0  0
  -26.0610  -38.3360   24.0390 H   0  0  0  0  0  0  0  0  0  0  0  0
  2  7  2  0
  3  8  2  0
  5 10  1  0
  6  5  1  0
  6 19  1  0
  6  4  1  0
  7  1  1  0
  8  1  1  0
  9  2  1  0
  9  3  2  0
 10  4  1  0
 10  2  1  0
 11 19  1  0
 12 17  1  0
 13 14  1  0
 13 12  1  0
 15 14  1  0
 15 24  1  0
 15 16  1  0
 17 11  1  0
 17 16  1  0
 18 11  2  0
 19 20  1  0
 21 22  2  0
 22 41  1  0
 23 22  1  0
 23 26  1  0
 24 25  1  0
 24 21  1  0
 25 23  2  0
 26 27  1  0
 27 28  2  0
 29 32  1  0
 29 28  1  0
 30 29  2  0
 31 30  1  0
 31 26  2  0
 32 33  1  0
 33 38  2  0
 33 34  1  0
 34 35  2  0
 35 36  1  0
 36 40  1  0
 37 36  2  0
 38 37  1  0
 39 38  1  0
 41 42  1  0
 42 45  1  0
 42 44  1  0
 43 41  2  0
 46 47  1  0
 46 21  1  0
 48 46  1  0
 49 50  1  0
 49  3  1  0
 50 51  1  0
 52 54  1  0
 52 51  1  0
 53 64  2  0
 54 59  1  0
 55 63  1  0
 55 65  1  0
 56 62  1  0
 56 58  1  0
 57 63  1  0
 58 57  1  0
 59 58  2  0
 60 61  1  0
 60 54  2  0
 61 56  2  0
 62 55  1  0
 63 53  1  0
 65 67  2  0
 66 65  1  0
 68 66  1  0
 69 78  2  0
 69 74  1  0
 70 66  1  0
 70 74  1  0
 71 70  1  0
 72 73  1  0
 72 71  1  0
 73 69  1  0
 74 75  2  0
 75 76  1  0
 77 76  2  0
 78 77  1  0
 79 53  1  0
 79 84  1  0
 79 80  1  0
 80 83  1  1
 80 81  1  0
 82 80  1  0
 84 87  1  0
 85 89  1  0
 85 84  1  0
 86 85  2  0
 89 88  1  0
 91 89  1  0
 91 92  1  0
 91 90  1  0
M  ISO  4  11 100  19 100  51 101  52 101
M  END
>  <TORSDO>  (58) 
F 19

>  <SCORE>  (58) 
-13.208

>  <name>  (58) 
57

>  <ligand_id>  (58) 
57

>  <original_smiles>  (58) 
[H]c1nc(OC([H])([H])C([H])([H])Oc2c([H])c([H])c3c(c2[H])C([H])([H])N(C(=O)C([H])(N([H])C(=O)C([H])(N([H])C([H])([H])[H])C([H])([H])[H])C(C([H])([H])[H])(C([H])([H])[H])C([H])([H])[H])C([H])(C(=O)N([H])C2([H])c4c([H])c([H])c([H])c([H])c4C([H])([H])C([H])([H])C2([H])[H])C3([H])[H])nc(N2C([H])([H])C([H])(N([H])C(=O)N3C([H])([H])C([H])([H])C([H])([H])C([H])(n4nc(-c5c([H])c([H])c(Oc6c([H])c([H])c(F)c([H])c6F)c([H])c5[H])c(C(=O)N([H])[H])c4N([H])[H])C3([H])[H])C2([H])[H])n1

>  <smiles>  (58) 
[H]c1nc(OC([H])([H])C([H])([H])Oc2c([H])c([H])c3c(c2[H])C([H])([H])N(C(=O)C([H])(N([H])C(=O)C([H])(N([H])C([H])([H])[H])C([H])([H])[H])C(C([H])([H])[H])(C([H])([H])[H])C([H])([H])[H])C([H])(C(=O)N([H])C2([H])c4c([H])c([H])c([H])c([H])c4C([H])([H])C([H])([H])C2([H])[H])C3([H])[H])nc(N2C([H])([H])C([H])(N([H])C(=O)N3C([H])([H])C([H])([H])C([H])([H])C([H])(n4nc(-c5c([H])c([H])c(Oc6c([H])c([H])c(F)c([H])c6F)c([H])c5[H])c(C(=O)N([H])[H])c4N([H])[H])C3([H])[H])C2([H])[H])n1

$$$$
58:0:0
     RDKit          3D

 90 99  0  0  1  0  0  0  0  0999 V2000
  -30.5810  -14.9810   20.3590 C   0  0  0  0  0  0  0  0  0  0  0  0
  -30.4320  -12.6120   19.4750 C   0  0  0  0  0  2  0  0  0  0  0  0
  -29.5370  -12.5410   18.2190 C   0  0  0  0  0  2  0  0  0  0  0  0
  -28.0610  -12.3530   18.6170 C   0  0  0  0  0  2  0  0  0  0  0  0
  -27.6310  -13.2950   19.7750 C   0  0  0  0  0  3  0  0  0  0  0  0
  -28.6620  -13.3550   20.9200 C   0  0  0  0  0  2  0  0  0  0  0  0
  -29.9380  -13.7430   20.3110 N   0  0  0  0  0  0  0  0  0  0  0  0
  -31.7980  -14.9590   20.1340 O   0  0  0  0  0  0  0  0  0  0  0  0
  -31.0030  -22.6680   20.7430 C   0  0  0  0  0  2  0  0  0  0  0  0
  -28.9780  -23.3500   20.0900 C   0  0  0  0  0  0  0  0  0  0  0  0
  -29.5680  -21.0310   20.2230 C   0  0  0  0  0  0  0  0  0  0  0  0
  -30.5320  -18.7290   19.4860 C   0  0  0  0  0  3  0  0  0  0  0  0
  -28.7000  -18.6160   20.9670 C   0  0  0  0  0  3  0  0  0  0  0  0
  -30.2030  -17.2020   19.1040 C   0  0  0  0  0  3  0  0  0  0  0  0
  -29.2950  -17.1090   21.2890 C   0  0  0  0  0  3  0  0  0  0  0  0
  -30.1910  -23.6930   20.5010 N   0  0  0  0  0  0  0  0  0  0  0  0
  -30.7800  -21.3620   20.6250 N   0  0  0  0  0  0  0  0  0  0  0  0
  -28.6130  -22.0000   19.9410 N   0  0  0  0  0  2  0  0  0  0  0  0
  -29.4210  -19.5570   20.0440 N   0  0  0  0  0  0  0  0  0  0  0  0
  -29.8830  -16.2280   20.2060 N   0  0  0  0  0  0  0  0  0  0  0  0
  -25.2370  -13.8790   20.4550 C   0  0  0  0  0  0  0  0  0  0  0  0
  -24.1650  -13.1100   20.8110 C   0  0  0  0  0  0  0  0  0  0  0  0
  -24.6290  -11.7590   20.8150 C   0  0  0  0  0  0  0  0  0  0  0  0
  -26.2850  -12.9990   20.2530 N   0  0  0  0  0  0  0  0  0  0  0  0
  -25.9280  -11.7180   20.5370 N   0  0  0  0  0  0  0  0  0  0  0  0
  -23.8960  -10.5000   21.0110 C   0  0  0  0  0  0  0  0  0  0  0  0
  -24.3150   -9.5410   21.9600 C   0  0  0  0  0  3  0  0  0  0  0  0
  -23.5800   -8.3490   22.1440 C   0  0  0  0  0  3  0  0  0  0  0  0
  -22.4130   -8.1090   21.3800 C   0  0  0  0  0  0  0  0  0  0  0  0
  -22.0140   -9.0580   20.4220 C   0  0  0  0  0  3  0  0  0  0  0  0
  -22.7490  -10.2410   20.2350 C   0  0  0  0  0  3  0  0  0  0  0  0
  -21.6520   -6.9690   21.4730 O   0  0  0  0  0  0  0  0  0  0  0  0
  -21.5950   -6.2310   22.6280 C   0  0  0  0  0  0  0  0  0  0  0  0
  -21.1870   -6.7970   23.8540 C   0  0  0  0  0  3  0  0  0  0  0  0
  -21.0780   -5.9880   25.0030 C   0  0  0  0  0  3  0  0  0  0  0  0
  -21.3670   -4.6130   24.9250 C   0  0  0  0  0  0  0  0  0  0  0  0
  -21.7680   -4.0450   23.7030 C   0  0  0  0  0  3  0  0  0  0  0  0
  -21.8800   -4.8520   22.5570 C   0  0  0  0  0  0  0  0  0  0  0  0
  -22.2460   -4.2950   21.3770 F   0  0  0  0  0  0  0  0  0  0  0  0
  -21.2550   -3.8330   26.0260 F   0  0  0  0  0  0  0  0  0  0  0  0
  -22.7610  -13.5940   21.0370 C   0  0  0  0  0  0  0  0  0  0  0  0
  -22.0130  -12.9230   21.9030 N   0  0  0  0  0  0  0  0  0  0  0  0
  -22.3380  -14.6050   20.4770 O   0  0  0  0  0  0  0  0  0  0  0  0
  -22.3670  -12.1070   22.3800 H   0  0  0  0  0  0  0  0  0  0  0  0
  -21.0710  -13.2330   22.0940 H   0  0  0  0  0  0  0  0  0  0  0  0
  -25.4040  -15.2470   20.2590 N   0  0  0  0  0  0  0  0  0  0  0  0
  -24.6360  -15.9030   20.3530 H   0  0  0  0  0  0  0  0  0  0  0  0
  -26.2620  -15.6850   19.9450 H   0  0  0  0  0  0  0  0  0  0  0  0
  -28.0000  -24.6410   19.7570 C   0  0  0  0  0  2  0  0  0  0  0  0
  -28.3140  -26.1540   20.0160 O   0  0  0  0  0  0  0  0  0  0  0  0
  -24.7290  -31.8220   23.1240 C   0  0  0  0  0  0  0  0  0  0  0  0
  -27.2680  -27.1520   19.9760 C   0  0  0  0  0  0  0  0  0  0  0  0
  -23.5110  -30.4500   21.4810 C   0  0  0  0  0  3  0  0  0  0  0  0
  -24.9420  -28.9020   20.0110 C   0  0  0  0  0  0  0  0  0  0  0  0
  -26.0650  -30.7160   21.2900 C   0  0  0  0  0  2  0  0  0  0  0  0
  -26.1300  -29.3340   20.6130 C   0  0  0  0  0  0  0  0  0  0  0  0
  -27.2940  -28.4770   20.5790 C   0  0  0  0  0  3  0  0  0  0  0  0
  -26.0520  -26.8290   19.3330 C   0  0  0  0  0  3  0  0  0  0  0  0
  -24.9160  -27.6640   19.3540 C   0  0  0  0  0  3  0  0  0  0  0  0
  -23.7150  -29.7970   20.0890 C   0  0  0  0  0  2  0  0  0  0  0  0
  -24.7900  -31.0170   22.0200 N   0  0  0  0  0  0  0  0  0  0  0  0
  -23.6490  -32.0980   23.6680 O   0  0  0  0  0  0  0  0  0  0  0  0
  -22.8440  -29.4280   22.4350 C   0  0  0  0  0  0  0  0  0  0  0  0
  -21.5130  -29.2670   22.3290 N   0  0  0  0  0  0  0  0  0  0  0  0
  -23.5260  -28.7810   23.2350 O   0  0  0  0  0  0  0  0  0  0  0  0
  -21.0180  -29.8390   21.6590 H   0  0  0  0  0  0  0  0  0  0  0  0
  -18.1330  -28.0800   22.8770 C   0  0  0  0  0  0  0  0  0  0  0  0
  -20.7000  -28.3210   23.0990 C   0  0  0  0  0  3  0  0  0  0  0  0
  -20.7800  -26.8990   22.4970 C   0  0  0  0  0  2  0  0  0  0  0  0
  -19.6560  -26.6020   21.4990 C   0  0  0  0  0  2  0  0  0  0  0  0
  -18.2880  -26.7440   22.1720 C   0  0  0  0  0  2  0  0  0  0  0  0
  -19.2650  -28.8280   23.2990 C   0  0  0  0  0  0  0  0  0  0  0  0
  -19.0640  -30.0780   23.9220 C   0  0  0  0  0  3  0  0  0  0  0  0
  -17.7660  -30.5820   24.1260 C   0  0  0  0  0  3  0  0  0  0  0  0
  -16.6490  -29.8320   23.7180 C   0  0  0  0  0  3  0  0  0  0  0  0
  -16.8340  -28.5820   23.1000 C   0  0  0  0  0  3  0  0  0  0  0  0
  -26.0130  -32.4510   23.7460 C   0  0  0  0  0  3  0  0  0  0  0  0
  -25.6950  -33.8380   24.1240 N   0  0  0  0  0  0  0  0  0  0  0  0
  -25.9920  -34.9190   23.3910 C   0  0  0  0  0  0  0  0  0  0  0  0
  -26.6300  -34.8550   22.3370 O   0  0  0  0  0  0  0  0  0  0  0  0
  -25.1230  -33.9600   24.9480 H   0  0  0  0  0  0  0  0  0  0  0  0
  -24.2280  -36.7000   23.1590 C   0  0  0  0  0  1  0  0  0  0  0  0
  -25.5070  -36.2890   23.9080 C   0  0  0  0  0  3  0  0  0  0  0  0
  -27.6640  -37.1790   24.6720 C   0  0  0  0  0  1  0  0  0  0  0  0
  -26.5210  -37.3590   23.7820 N   0  0  0  0  0  0  0  0  0  0  0  0
  -26.1090  -38.2690   23.9740 H   0  0  0  0  0  0  0  0  0  0  0  0
  -26.5520  -31.6510   24.9950 C   0  0  1  0  0  0  0  0  0  0  0  0
  -25.4780  -31.3830   26.0750 C   0  0  0  0  0  1  0  0  0  0  0  0
  -27.1330  -30.2850   24.5650 C   0  0  0  0  0  1  0  0  0  0  0  0
  -27.7110  -32.4320   25.6580 C   0  0  0  0  0  1  0  0  0  0  0  0
  2  7  1  0
  3  4  1  0
  3  2  1  0
  5  4  1  0
  5 24  1  0
  5  6  1  0
  7  1  1  0
  7  6  1  0
  8  1  2  0
 10 16  2  0
 11 17  2  0
 12 19  1  0
 13 15  2  0
 14 12  2  0
 14 20  1  0
 16  9  1  0
 17  9  1  0
 18 10  1  0
 18 11  1  0
 19 11  1  0
 19 13  1  0
 20  1  1  0
 20 15  1  0
 21 22  2  0
 22 23  1  0
 22 41  1  0
 23 26  1  0
 24 21  1  0
 24 25  1  0
 25 23  2  0
 26 27  1  0
 27 28  2  0
 29 32  1  0
 29 28  1  0
 30 29  2  0
 31 30  1  0
 31 26  2  0
 32 33  1  0
 33 34  1  0
 34 35  2  0
 36 35  1  0
 36 40  1  0
 37 36  2  0
 38 33  2  0
 38 37  1  0
 39 38  1  0
 41 42  1  0
 42 45  1  0
 42 44  1  0
 43 41  2  0
 46 47  1  0
 46 21  1  0
 48 46  1  0
 49 50  1  0
 49 10  1  0
 51 62  2  0
 52 50  1  0
 52 57  1  0
 53 61  1  0
 53 63  1  0
 54 60  1  0
 54 56  1  0
 55 61  1  0
 56 55  1  0
 57 56  2  0
 58 59  1  0
 58 52  2  0
 59 54  2  0
 60 53  1  0
 61 51  1  0
 63 65  2  0
 64 63  1  0
 66 64  1  0
 67 76  2  0
 67 72  1  0
 68 64  1  0
 68 72  1  0
 69 68  1  0
 70 71  1  0
 70 69  1  0
 71 67  1  0
 72 73  2  0
 73 74  1  0
 75 74  2  0
 76 75  1  0
 77 51  1  0
 77 78  1  0
 77 87  1  0
 78 81  1  0
 79 83  1  0
 79 78  1  0
 80 79  2  0
 83 82  1  0
 85 83  1  0
 85 86  1  0
 85 84  1  0
 87 90  1  1
 87 88  1  0
 89 87  1  0
M  ISO  4   1 100  20 100  49 101  50 101
M  END
>  <TORSDO>  (59) 
F 16

>  <SCORE>  (59) 
-15.022

>  <name>  (59) 
58

>  <ligand_id>  (59) 
58

>  <original_smiles>  (59) 
[H]c1nc(N2C([H])([H])C([H])([H])N(C(=O)N3C([H])([H])C([H])([H])C([H])([H])C([H])(n4nc(-c5c([H])c([H])c(Oc6c([H])c([H])c(F)c([H])c6F)c([H])c5[H])c(C(=O)N([H])[H])c4N([H])[H])C3([H])[H])C([H])([H])C2([H])[H])nc(C([H])([H])Oc2c([H])c([H])c3c(c2[H])C([H])([H])N(C(=O)C([H])(N([H])C(=O)C([H])(N([H])C([H])([H])[H])C([H])([H])[H])C(C([H])([H])[H])(C([H])([H])[H])C([H])([H])[H])C([H])(C(=O)N([H])C2([H])c4c([H])c([H])c([H])c([H])c4C([H])([H])C([H])([H])C2([H])[H])C3([H])[H])n1

>  <smiles>  (59) 
[H]c1nc(N2C([H])([H])C([H])([H])N(C(=O)N3C([H])([H])C([H])([H])C([H])([H])C([H])(n4nc(-c5c([H])c([H])c(Oc6c([H])c([H])c(F)c([H])c6F)c([H])c5[H])c(C(=O)N([H])[H])c4N([H])[H])C3([H])[H])C([H])([H])C2([H])[H])nc(C([H])([H])Oc2c([H])c([H])c3c(c2[H])C([H])([H])N(C(=O)C([H])(N([H])C(=O)C([H])(N([H])C([H])([H])[H])C([H])([H])[H])C(C([H])([H])[H])(C([H])([H])[H])C([H])([H])[H])C([H])(C(=O)N([H])C2([H])c4c([H])c([H])c([H])c([H])c4C([H])([H])C([H])([H])C2([H])[H])C3([H])[H])n1

$$$$
59:0:0
     RDKit          3D

 93102  0  0  1  0  0  0  0  0999 V2000
  -31.3550  -22.4480   19.5580 C   0  0  0  0  0  3  0  0  0  0  0  0
  -31.0360  -21.0840   19.7850 C   0  0  0  0  0  3  0  0  0  0  0  0
  -30.4180  -23.5010   19.7040 C   0  0  0  0  0  3  0  0  0  0  0  0
  -28.7920  -21.8110   20.3090 C   0  0  0  0  0  3  0  0  0  0  0  0
  -29.7460  -20.6660   20.1810 C   0  0  0  0  0  0  0  0  0  0  0  0
  -29.0850  -23.2590   20.0850 C   0  0  0  0  0  0  0  0  0  0  0  0
  -31.5990  -17.9320   20.9430 C   0  0  0  0  0  2  0  0  0  0  0  0
  -30.9460  -18.4160   22.2520 C   0  0  0  0  0  2  0  0  0  0  0  0
  -29.4750  -19.0430   20.4720 C   0  0  0  0  0  3  0  0  0  0  0  0
  -30.4330  -17.7350   19.9640 C   0  0  0  0  0  3  0  0  0  0  0  0
  -29.5870  -18.8960   21.9290 N   0  0  0  0  0  4  0  0  0  0  0  0
  -29.3790  -19.7620   22.3980 H   0  0  0  0  0  0  0  0  0  0  0  0
  -28.9230  -18.2040   22.2340 H   0  0  0  0  0  0  0  0  0  0  0  0
  -30.7910  -14.9840   19.8490 C   0  0  0  0  0  0  0  0  0  0  0  0
  -30.6160  -12.6190   18.9470 C   0  0  0  0  0  2  0  0  0  0  0  0
  -29.6110  -12.5430   17.7740 C   0  0  0  0  0  2  0  0  0  0  0  0
  -28.1780  -12.3340   18.2960 C   0  0  0  0  0  2  0  0  0  0  0  0
  -27.8370  -13.2770   19.4790 C   0  0  0  0  0  3  0  0  0  0  0  0
  -28.9570  -13.3180   20.5400 C   0  0  0  0  0  2  0  0  0  0  0  0
  -30.1850  -13.7280   19.8470 N   0  0  0  0  0  0  0  0  0  0  0  0
  -31.9760  -15.0310   19.5050 O   0  0  0  0  0  0  0  0  0  0  0  0
  -30.0420  -16.1870   20.0370 N   0  0  0  0  0  0  0  0  0  0  0  0
  -29.0670  -16.0130   20.2270 H   0  0  0  0  0  0  0  0  0  0  0  0
  -25.5270  -13.8630   20.4110 C   0  0  0  0  0  0  0  0  0  0  0  0
  -24.4770  -13.0910   20.8250 C   0  0  0  0  0  0  0  0  0  0  0  0
  -24.9120  -11.7350   20.7090 C   0  0  0  0  0  0  0  0  0  0  0  0
  -26.5340  -12.9780   20.0620 N   0  0  0  0  0  0  0  0  0  0  0  0
  -26.1780  -11.6900   20.3060 N   0  0  0  0  0  0  0  0  0  0  0  0
  -24.1770  -10.4780   20.8990 C   0  0  0  0  0  0  0  0  0  0  0  0
  -24.5670   -9.5330   21.8730 C   0  0  0  0  0  3  0  0  0  0  0  0
  -23.8290   -8.3420   22.0510 C   0  0  0  0  0  3  0  0  0  0  0  0
  -22.6870   -8.0880   21.2540 C   0  0  0  0  0  0  0  0  0  0  0  0
  -22.3170   -9.0220   20.2700 C   0  0  0  0  0  3  0  0  0  0  0  0
  -23.0550  -10.2050   20.0910 C   0  0  0  0  0  3  0  0  0  0  0  0
  -21.9260   -6.9480   21.3380 O   0  0  0  0  0  0  0  0  0  0  0  0
  -21.7190   -6.3080   22.5330 C   0  0  0  0  0  0  0  0  0  0  0  0
  -21.0950   -6.9500   23.6240 C   0  0  0  0  0  3  0  0  0  0  0  0
  -20.8390   -6.2330   24.8110 C   0  0  0  0  0  3  0  0  0  0  0  0
  -21.1970   -4.8760   24.9050 C   0  0  0  0  0  0  0  0  0  0  0  0
  -21.8150   -4.2330   23.8180 C   0  0  0  0  0  3  0  0  0  0  0  0
  -22.0720   -4.9460   22.6340 C   0  0  0  0  0  0  0  0  0  0  0  0
  -22.6480   -4.3170   21.5820 F   0  0  0  0  0  0  0  0  0  0  0  0
  -20.9450   -4.1850   26.0420 F   0  0  0  0  0  0  0  0  0  0  0  0
  -23.1110  -13.5800   21.2080 C   0  0  0  0  0  0  0  0  0  0  0  0
  -22.4400  -12.8800   22.1150 N   0  0  0  0  0  0  0  0  0  0  0  0
  -22.6510  -14.6210   20.7370 O   0  0  0  0  0  0  0  0  0  0  0  0
  -22.8260  -12.0390   22.5170 H   0  0  0  0  0  0  0  0  0  0  0  0
  -21.5270  -13.1910   22.4130 H   0  0  0  0  0  0  0  0  0  0  0  0
  -25.7010  -15.2370   20.2720 N   0  0  0  0  0  0  0  0  0  0  0  0
  -24.9360  -15.8840   20.4290 H   0  0  0  0  0  0  0  0  0  0  0  0
  -26.4870  -15.6630   19.8010 H   0  0  0  0  0  0  0  0  0  0  0  0
  -28.0250  -24.5330   20.1270 C   0  0  0  0  0  2  0  0  0  0  0  0
  -28.3390  -26.0720   20.1570 O   0  0  0  0  0  0  0  0  0  0  0  0
  -24.5160  -31.6660   23.1530 C   0  0  0  0  0  0  0  0  0  0  0  0
  -27.2680  -27.0490   20.1000 C   0  0  0  0  0  0  0  0  0  0  0  0
  -23.3820  -30.2540   21.4850 C   0  0  0  0  0  3  0  0  0  0  0  0
  -24.8940  -28.7430   20.0610 C   0  0  0  0  0  0  0  0  0  0  0  0
  -25.9320  -30.5940   21.3570 C   0  0  0  0  0  2  0  0  0  0  0  0
  -26.0560  -29.2110   20.6890 C   0  0  0  0  0  0  0  0  0  0  0  0
  -27.2450  -28.3820   20.6900 C   0  0  0  0  0  3  0  0  0  0  0  0
  -26.0760  -26.6960   19.4310 C   0  0  0  0  0  3  0  0  0  0  0  0
  -24.9180  -27.5010   19.4160 C   0  0  0  0  0  3  0  0  0  0  0  0
  -23.6410  -29.6040   20.1010 C   0  0  0  0  0  2  0  0  0  0  0  0
  -24.6290  -30.8590   22.0540 N   0  0  0  0  0  0  0  0  0  0  0  0
  -23.4150  -31.9100   23.6690 O   0  0  0  0  0  0  0  0  0  0  0  0
  -22.7220  -29.2140   22.4250 C   0  0  0  0  0  0  0  0  0  0  0  0
  -21.4000  -29.0060   22.2820 N   0  0  0  0  0  0  0  0  0  0  0  0
  -23.4020  -28.5960   23.2470 O   0  0  0  0  0  0  0  0  0  0  0  0
  -20.9050  -29.5590   21.5960 H   0  0  0  0  0  0  0  0  0  0  0  0
  -18.0440  -27.7300   22.7640 C   0  0  0  0  0  0  0  0  0  0  0  0
  -20.5980  -28.0370   23.0330 C   0  0  0  0  0  3  0  0  0  0  0  0
  -20.7260  -26.6190   22.4270 C   0  0  0  0  0  2  0  0  0  0  0  0
  -19.6280  -26.2970   21.4070 C   0  0  0  0  0  2  0  0  0  0  0  0
  -18.2450  -26.4000   22.0570 C   0  0  0  0  0  2  0  0  0  0  0  0
  -19.1480  -28.5050   23.2090 C   0  0  0  0  0  0  0  0  0  0  0  0
  -18.9030  -29.7480   23.8310 C   0  0  0  0  0  3  0  0  0  0  0  0
  -17.5890  -30.2160   24.0130 C   0  0  0  0  0  3  0  0  0  0  0  0
  -16.4990  -29.4390   23.5830 C   0  0  0  0  0  3  0  0  0  0  0  0
  -16.7280  -28.1980   22.9640 C   0  0  0  0  0  3  0  0  0  0  0  0
  -25.7640  -32.3340   23.8040 C   0  0  0  0  0  3  0  0  0  0  0  0
  -25.4030  -33.7210   24.1430 N   0  0  0  0  0  0  0  0  0  0  0  0
  -25.7000  -34.7920   23.3970 C   0  0  0  0  0  0  0  0  0  0  0  0
  -26.3720  -34.7210   22.3660 O   0  0  0  0  0  0  0  0  0  0  0  0
  -24.8020  -33.8450   24.9440 H   0  0  0  0  0  0  0  0  0  0  0  0
  -23.9130  -36.5350   23.0680 C   0  0  0  0  0  1  0  0  0  0  0  0
  -25.1700  -36.1610   23.8710 C   0  0  0  0  0  3  0  0  0  0  0  0
  -27.2700  -37.1190   24.7110 C   0  0  0  0  0  1  0  0  0  0  0  0
  -26.1670  -37.2480   23.7630 N   0  0  0  0  0  0  0  0  0  0  0  0
  -25.7290  -38.1540   23.9070 H   0  0  0  0  0  0  0  0  0  0  0  0
  -26.2770  -31.5700   25.0860 C   0  0  1  0  0  0  0  0  0  0  0  0
  -25.1700  -31.2900   26.1290 C   0  0  0  0  0  1  0  0  0  0  0  0
  -26.9130  -30.2150   24.7020 C   0  0  0  0  0  1  0  0  0  0  0  0
  -27.3880  -32.3960   25.7770 C   0  0  0  0  0  1  0  0  0  0  0  0
  1  3  2  0
  1  2  1  0
  2  5  2  0
  3  6  1  0
  5  4  1  0
  6 52  1  0
  6  4  2  0
  7  8  1  0
  9  5  1  0
  9 11  1  0
 10 22  1  0
 10  9  1  0
 10  7  1  0
 11 13  1  0
 11  8  1  0
 11 12  1  0
 14 22  1  0
 15 20  1  0
 16 17  1  0
 16 15  1  0
 18 17  1  0
 18 27  1  0
 18 19  1  0
 20 14  1  0
 20 19  1  0
 21 14  2  0
 22 23  1  0
 24 25  2  0
 25 44  1  0
 26 25  1  0
 26 29  1  0
 27 28  1  0
 27 24  1  0
 28 26  2  0
 29 30  1  0
 30 31  2  0
 32 35  1  0
 32 31  1  0
 33 32  2  0
 34 33  1  0
 34 29  2  0
 35 36  1  0
 36 41  2  0
 36 37  1  0
 37 38  2  0
 38 39  1  0
 39 43  1  0
 40 39  2  0
 41 40  1  0
 42 41  1  0
 44 45  1  0
 45 48  1  0
 45 47  1  0
 46 44  2  0
 49 24  1  0
 49 50  1  0
 51 49  1  0
 52 53  1  0
 54 65  2  0
 55 53  1  0
 55 60  1  0
 56 64  1  0
 56 66  1  0
 57 63  1  0
 57 59  1  0
 58 64  1  0
 59 60  2  0
 59 58  1  0
 61 55  2  0
 62 61  1  0
 62 57  2  0
 63 56  1  0
 64 54  1  0
 66 68  2  0
 67 66  1  0
 69 67  1  0
 70 79  2  0
 70 75  1  0
 71 67  1  0
 71 75  1  0
 72 71  1  0
 73 74  1  0
 73 72  1  0
 74 70  1  0
 75 76  2  0
 76 77  1  0
 78 77  2  0
 79 78  1  0
 80 54  1  0
 80 81  1  0
 80 90  1  0
 81 84  1  0
 82 86  1  0
 82 81  1  0
 83 82  2  0
 86 85  1  0
 88 86  1  0
 88 89  1  0
 88 87  1  0
 90 93  1  1
 90 91  1  0
 92 90  1  0
M  ISO  4  14 100  22 100  52 101  53 101
M  END
>  <TORSDO>  (60) 
F 18

>  <SCORE>  (60) 
-13.534

>  <name>  (60) 
59

>  <ligand_id>  (60) 
59

>  <original_smiles>  (60) 
[H]c1c([H])c([H])c2c(c1[H])C([H])([H])C([H])([H])C([H])([H])C2([H])N([H])C(=O)C1([H])N(C(=O)C([H])(N([H])C(=O)C([H])(N([H])C([H])([H])[H])C([H])([H])[H])C(C([H])([H])[H])(C([H])([H])[H])C([H])([H])[H])C([H])([H])c2c([H])c(OC([H])([H])c3c([H])c([H])c([H])c(C4([H])C([H])(N([H])C(=O)N5C([H])([H])C([H])([H])C([H])([H])C([H])(n6nc(-c7c([H])c([H])c(Oc8c([H])c([H])c(F)c([H])c8F)c([H])c7[H])c(C(=O)N([H])[H])c6N([H])[H])C5([H])[H])C([H])([H])C([H])([H])[N+]4([H])[H])c3[H])c([H])c([H])c2C1([H])[H]

>  <smiles>  (60) 
[H]c1c([H])c([H])c2c(c1[H])C([H])([H])C([H])([H])C([H])([H])C2([H])N([H])C(=O)C1([H])N(C(=O)C([H])(N([H])C(=O)C([H])(N([H])C([H])([H])[H])C([H])([H])[H])C(C([H])([H])[H])(C([H])([H])[H])C([H])([H])[H])C([H])([H])c2c([H])c(OC([H])([H])c3c([H])c([H])c([H])c(C4([H])C([H])(N([H])C(=O)N5C([H])([H])C([H])([H])C([H])([H])C([H])(n6nc(-c7c([H])c([H])c(Oc8c([H])c([H])c(F)c([H])c8F)c([H])c7[H])c(C(=O)N([H])[H])c6N([H])[H])C5([H])[H])C([H])([H])C([H])([H])[N+]4([H])[H])c3[H])c([H])c([H])c2C1([H])[H]

$$$$
60:0:0
     RDKit          3D

 90 99  0  0  1  0  0  0  0  0999 V2000
  -28.8280  -20.6210   21.1480 C   0  0  0  0  0  3  0  0  0  0  0  0
  -29.4280  -19.8560   20.0760 C   0  0  0  0  0  0  0  0  0  0  0  0
  -28.4650  -22.0610   21.0590 C   0  0  0  0  0  0  0  0  0  0  0  0
  -29.6160  -20.7750   19.0030 C   0  0  0  0  0  0  0  0  0  0  0  0
  -28.6810  -22.9310   19.9010 C   0  0  0  0  0  0  0  0  0  0  0  0
  -30.3570  -20.0290   17.9120 C   0  0  0  0  0  2  0  0  0  0  0  0
  -30.4750  -18.5160   18.3430 C   0  0  0  0  0  2  0  0  0  0  0  0
  -30.1580  -18.3180   19.8580 C   0  0  0  0  0  3  0  0  0  0  0  0
  -27.7810  -22.6640   22.2730 C   0  0  0  0  0  1  0  0  0  0  0  0
  -29.2710  -22.1530   18.8910 N   0  0  0  0  0  0  0  0  0  0  0  0
  -30.5550  -15.4440   20.0570 C   0  0  0  0  0  0  0  0  0  0  0  0
  -30.4980  -12.9930   19.2330 C   0  0  0  0  0  2  0  0  0  0  0  0
  -29.5650  -12.7850   18.0140 C   0  0  0  0  0  2  0  0  0  0  0  0
  -28.1200  -12.5310   18.4730 C   0  0  0  0  0  2  0  0  0  0  0  0
  -27.6860  -13.5070   19.5950 C   0  0  0  0  0  3  0  0  0  0  0  0
  -28.7490  -13.6670   20.7040 C   0  0  0  0  0  2  0  0  0  0  0  0
  -29.9760  -14.1460   20.0500 N   0  0  0  0  0  0  0  0  0  0  0  0
  -31.7650  -15.4340   19.7910 O   0  0  0  0  0  0  0  0  0  0  0  0
  -29.8130  -16.7210   20.1530 N   0  0  0  0  0  0  0  0  0  0  0  0
  -28.8400  -16.5680   20.3730 H   0  0  0  0  0  0  0  0  0  0  0  0
  -25.3300  -14.0700   20.3910 C   0  0  0  0  0  0  0  0  0  0  0  0
  -24.2720  -13.2960   20.7770 C   0  0  0  0  0  0  0  0  0  0  0  0
  -24.7350  -11.9440   20.7350 C   0  0  0  0  0  0  0  0  0  0  0  0
  -26.3660  -13.1940   20.1260 N   0  0  0  0  0  0  0  0  0  0  0  0
  -26.0220  -11.9080   20.4020 N   0  0  0  0  0  0  0  0  0  0  0  0
  -24.0080  -10.6840   20.9340 C   0  0  0  0  0  0  0  0  0  0  0  0
  -24.4260   -9.7290   21.8880 C   0  0  0  0  0  3  0  0  0  0  0  0
  -23.6960   -8.5360   22.0750 C   0  0  0  0  0  3  0  0  0  0  0  0
  -22.5320   -8.2880   21.3090 C   0  0  0  0  0  0  0  0  0  0  0  0
  -22.1330   -9.2300   20.3450 C   0  0  0  0  0  3  0  0  0  0  0  0
  -22.8640  -10.4150   20.1560 C   0  0  0  0  0  3  0  0  0  0  0  0
  -21.7740   -7.1450   21.4030 O   0  0  0  0  0  0  0  0  0  0  0  0
  -21.6820   -6.4390   22.5760 C   0  0  0  0  0  0  0  0  0  0  0  0
  -21.1490   -7.0120   23.7520 C   0  0  0  0  0  3  0  0  0  0  0  0
  -21.0070   -6.2300   24.9140 C   0  0  0  0  0  3  0  0  0  0  0  0
  -21.3880   -4.8750   24.9040 C   0  0  0  0  0  0  0  0  0  0  0  0
  -21.9140   -4.3010   23.7330 C   0  0  0  0  0  3  0  0  0  0  0  0
  -22.0570   -5.0800   22.5720 C   0  0  0  0  0  0  0  0  0  0  0  0
  -22.5440   -4.5170   21.4410 F   0  0  0  0  0  0  0  0  0  0  0  0
  -21.2450   -4.1210   26.0180 F   0  0  0  0  0  0  0  0  0  0  0  0
  -22.8800  -13.7760   21.0680 C   0  0  0  0  0  0  0  0  0  0  0  0
  -22.1670  -13.0910   21.9520 N   0  0  0  0  0  0  0  0  0  0  0  0
  -22.4360  -14.7960   20.5420 O   0  0  0  0  0  0  0  0  0  0  0  0
  -22.5410  -12.2660   22.3990 H   0  0  0  0  0  0  0  0  0  0  0  0
  -21.2340  -13.3960   22.1900 H   0  0  0  0  0  0  0  0  0  0  0  0
  -25.4900  -15.4420   20.2120 N   0  0  0  0  0  0  0  0  0  0  0  0
  -24.7220  -16.0920   20.3370 H   0  0  0  0  0  0  0  0  0  0  0  0
  -26.3180  -15.8790   19.8310 H   0  0  0  0  0  0  0  0  0  0  0  0
  -27.9390  -24.4890   19.5980 C   0  0  0  0  0  2  0  0  0  0  0  0
  -28.2400  -26.0590   19.9490 O   0  0  0  0  0  0  0  0  0  0  0  0
  -24.5500  -31.8140   23.1150 C   0  0  0  0  0  0  0  0  0  0  0  0
  -27.2170  -27.1390   19.9080 C   0  0  0  0  0  0  0  0  0  0  0  0
  -23.3830  -30.4470   21.4340 C   0  0  0  0  0  3  0  0  0  0  0  0
  -24.8660  -28.9440   19.9430 C   0  0  0  0  0  0  0  0  0  0  0  0
  -25.9410  -30.7410   21.2790 C   0  0  0  0  0  2  0  0  0  0  0  0
  -26.0460  -29.3610   20.5720 C   0  0  0  0  0  0  0  0  0  0  0  0
  -27.2160  -28.4780   20.5340 C   0  0  0  0  0  3  0  0  0  0  0  0
  -26.0040  -26.8770   19.2280 C   0  0  0  0  0  3  0  0  0  0  0  0
  -24.8690  -27.7240   19.2500 C   0  0  0  0  0  3  0  0  0  0  0  0
  -23.6210  -29.8230   20.0320 C   0  0  0  0  0  2  0  0  0  0  0  0
  -24.6450  -31.0260   21.9960 N   0  0  0  0  0  0  0  0  0  0  0  0
  -23.4570  -32.0540   23.6530 O   0  0  0  0  0  0  0  0  0  0  0  0
  -22.7250  -29.3950   22.3640 C   0  0  0  0  0  0  0  0  0  0  0  0
  -21.4000  -29.1930   22.2360 N   0  0  0  0  0  0  0  0  0  0  0  0
  -23.4120  -28.7640   23.1710 O   0  0  0  0  0  0  0  0  0  0  0  0
  -20.8970  -29.7550   21.5630 H   0  0  0  0  0  0  0  0  0  0  0  0
  -18.0540  -27.8780   22.7240 C   0  0  0  0  0  0  0  0  0  0  0  0
  -20.6080  -28.2060   22.9770 C   0  0  0  0  0  3  0  0  0  0  0  0
  -20.7440  -26.7990   22.3490 C   0  0  0  0  0  2  0  0  0  0  0  0
  -19.6420  -26.4840   21.3320 C   0  0  0  0  0  2  0  0  0  0  0  0
  -18.2620  -26.5630   21.9930 C   0  0  0  0  0  2  0  0  0  0  0  0
  -19.1550  -28.6570   23.1730 C   0  0  0  0  0  0  0  0  0  0  0  0
  -18.9020  -29.8850   23.8200 C   0  0  0  0  0  3  0  0  0  0  0  0
  -17.5840  -30.3380   24.0210 C   0  0  0  0  0  3  0  0  0  0  0  0
  -16.5000  -29.5560   23.5870 C   0  0  0  0  0  3  0  0  0  0  0  0
  -16.7350  -28.3280   22.9450 C   0  0  0  0  0  3  0  0  0  0  0  0
  -25.8070  -32.4680   23.7620 C   0  0  0  0  0  3  0  0  0  0  0  0
  -25.4750  -33.8660   24.0880 N   0  0  0  0  0  0  0  0  0  0  0  0
  -25.7690  -34.9240   23.3200 C   0  0  0  0  0  0  0  0  0  0  0  0
  -26.4120  -34.8270   22.2720 O   0  0  0  0  0  0  0  0  0  0  0  0
  -24.8990  -34.0130   24.9040 H   0  0  0  0  0  0  0  0  0  0  0  0
  -23.9860  -36.6790   23.0340 C   0  0  0  0  0  1  0  0  0  0  0  0
  -25.2740  -36.3080   23.7870 C   0  0  0  0  0  3  0  0  0  0  0  0
  -27.4190  -37.2610   24.5130 C   0  0  0  0  0  1  0  0  0  0  0  0
  -26.2750  -37.3830   23.6130 N   0  0  0  0  0  0  0  0  0  0  0  0
  -25.8530  -38.2960   23.7600 H   0  0  0  0  0  0  0  0  0  0  0  0
  -26.3000  -31.7110   25.0580 C   0  0  1  0  0  0  0  0  0  0  0  0
  -25.1840  -31.4730   26.1030 C   0  0  0  0  0  1  0  0  0  0  0  0
  -26.9040  -30.3350   24.6990 C   0  0  0  0  0  1  0  0  0  0  0  0
  -27.4290  -32.5200   25.7400 C   0  0  0  0  0  1  0  0  0  0  0  0
  2  1  2  0
  3  1  1  0
  3  9  1  0
  4  2  1  0
  5  3  2  0
  6  7  1  0
  6  4  1  0
  7  8  1  0
  8  2  1  0
  8 19  1  0
 10  4  2  0
 10  5  1  0
 11 19  1  0
 12 17  1  0
 13 14  1  0
 13 12  1  0
 15 14  1  0
 15 24  1  0
 15 16  1  0
 17 11  1  0
 17 16  1  0
 18 11  2  0
 19 20  1  0
 21 22  2  0
 22 41  1  0
 23 22  1  0
 23 26  1  0
 24 21  1  0
 24 25  1  0
 25 23  2  0
 26 27  1  0
 27 28  2  0
 29 32  1  0
 29 28  1  0
 30 29  2  0
 31 30  1  0
 31 26  2  0
 32 33  1  0
 33 34  1  0
 34 35  2  0
 36 35  1  0
 36 40  1  0
 37 36  2  0
 38 33  2  0
 38 37  1  0
 39 38  1  0
 41 42  1  0
 42 45  1  0
 42 44  1  0
 43 41  2  0
 46 47  1  0
 46 21  1  0
 48 46  1  0
 49  5  1  0
 49 50  1  0
 51 62  2  0
 52 50  1  0
 52 57  1  0
 53 61  1  0
 53 63  1  0
 54 60  1  0
 54 56  1  0
 55 61  1  0
 56 55  1  0
 57 56  2  0
 58 59  1  0
 58 52  2  0
 59 54  2  0
 60 53  1  0
 61 51  1  0
 63 65  2  0
 64 63  1  0
 66 64  1  0
 67 76  2  0
 67 72  1  0
 68 64  1  0
 68 72  1  0
 69 68  1  0
 70 71  1  0
 70 69  1  0
 71 67  1  0
 72 73  2  0
 73 74  1  0
 75 74  2  0
 76 75  1  0
 77 51  1  0
 77 78  1  0
 77 87  1  0
 78 81  1  0
 79 83  1  0
 79 78  1  0
 80 79  2  0
 83 82  1  0
 85 86  1  0
 85 83  1  0
 85 84  1  0
 87 90  1  1
 87 88  1  0
 89 87  1  0
M  ISO  4  11 100  19 100  49 101  50 101
M  END
>  <TORSDO>  (61) 
F 17

>  <SCORE>  (61) 
-15.202

>  <name>  (61) 
60

>  <ligand_id>  (61) 
60

>  <original_smiles>  (61) 
[H]c1c([H])c([H])c2c(c1[H])C([H])([H])C([H])([H])C([H])([H])C2([H])N([H])C(=O)C1([H])N(C(=O)C([H])(N([H])C(=O)C([H])(N([H])C([H])([H])[H])C([H])([H])[H])C(C([H])([H])[H])(C([H])([H])[H])C([H])([H])[H])C([H])([H])c2c([H])c(OC([H])([H])c3nc4c(c([H])c3C([H])([H])[H])C([H])(N([H])C(=O)N3C([H])([H])C([H])([H])C([H])([H])C([H])(n5nc(-c6c([H])c([H])c(Oc7c([H])c([H])c(F)c([H])c7F)c([H])c6[H])c(C(=O)N([H])[H])c5N([H])[H])C3([H])[H])C([H])([H])C4([H])[H])c([H])c([H])c2C1([H])[H]

>  <smiles>  (61) 
[H]c1c([H])c([H])c2c(c1[H])C([H])([H])C([H])([H])C([H])([H])C2([H])N([H])C(=O)C1([H])N(C(=O)C([H])(N([H])C(=O)C([H])(N([H])C([H])([H])[H])C([H])([H])[H])C(C([H])([H])[H])(C([H])([H])[H])C([H])([H])[H])C([H])([H])c2c([H])c(OC([H])([H])c3nc4c(c([H])c3C([H])([H])[H])C([H])(N([H])C(=O)N3C([H])([H])C([H])([H])C([H])([H])C([H])(n5nc(-c6c([H])c([H])c(Oc7c([H])c([H])c(F)c([H])c7F)c([H])c6[H])c(C(=O)N([H])[H])c5N([H])[H])C3([H])[H])C([H])([H])C4([H])[H])c([H])c([H])c2C1([H])[H]

$$$$
61:0:0
     RDKit          3D

 86 94  0  0  1  0  0  0  0  0999 V2000
  -28.9280  -22.4220   20.4370 C   0  0  0  0  0  3  0  0  0  0  0  0
  -30.3970  -15.6130   20.0550 C   0  0  0  0  0  0  0  0  0  0  0  0
  -30.3460  -13.1130   19.2130 C   0  0  0  0  0  2  0  0  0  0  0  0
  -29.4130  -12.7660   18.0250 C   0  0  0  0  0  2  0  0  0  0  0  0
  -28.0010  -12.4430   18.5290 C   0  0  0  0  0  2  0  0  0  0  0  0
  -27.5450  -13.4400   19.6210 C   0  0  0  0  0  3  0  0  0  0  0  0
  -28.6170  -13.7290   20.6970 C   0  0  0  0  0  2  0  0  0  0  0  0
  -29.7790  -14.3040   19.9890 N   0  0  0  0  0  0  0  0  0  0  0  0
  -31.6150  -15.4720   19.8380 O   0  0  0  0  0  0  0  0  0  0  0  0
  -28.5110  -17.8360   20.4010 C   0  0  0  0  0  2  0  0  0  0  0  0
  -30.5540  -18.3250   19.5020 C   0  0  0  0  0  2  0  0  0  0  0  0
  -28.2930  -19.5360   20.7270 C   0  0  0  0  0  2  0  0  0  0  0  0
  -30.3320  -19.9820   19.8790 C   0  0  0  0  0  2  0  0  0  0  0  0
  -29.8290  -17.0540   20.0570 N   0  0  0  0  0  0  0  0  0  0  0  0
  -28.9680  -20.7400   19.9630 N   0  0  2  0  0  4  0  0  0  0  0  0
  -28.5950  -20.7230   19.0250 H   0  0  0  0  0  0  0  0  0  0  0  0
  -25.2180  -13.9680   20.4890 C   0  0  0  0  0  0  0  0  0  0  0  0
  -24.1710  -13.1820   20.8780 C   0  0  0  0  0  0  0  0  0  0  0  0
  -24.6360  -11.8320   20.8020 C   0  0  0  0  0  0  0  0  0  0  0  0
  -26.2490  -13.0990   20.1870 N   0  0  0  0  0  0  0  0  0  0  0  0
  -25.9160  -11.8060   20.4430 N   0  0  0  0  0  0  0  0  0  0  0  0
  -23.9130  -10.5670   20.9900 C   0  0  0  0  0  0  0  0  0  0  0  0
  -24.3460   -9.5980   21.9220 C   0  0  0  0  0  3  0  0  0  0  0  0
  -23.6190   -8.4010   22.1010 C   0  0  0  0  0  3  0  0  0  0  0  0
  -22.4440   -8.1650   21.3490 C   0  0  0  0  0  0  0  0  0  0  0  0
  -22.0300   -9.1220   20.4060 C   0  0  0  0  0  3  0  0  0  0  0  0
  -22.7580  -10.3100   20.2250 C   0  0  0  0  0  3  0  0  0  0  0  0
  -21.6880   -7.0210   21.4370 O   0  0  0  0  0  0  0  0  0  0  0  0
  -21.6050   -6.3010   22.6030 C   0  0  0  0  0  0  0  0  0  0  0  0
  -21.1020   -6.8690   23.7940 C   0  0  0  0  0  3  0  0  0  0  0  0
  -20.9680   -6.0750   24.9510 C   0  0  0  0  0  3  0  0  0  0  0  0
  -21.3280   -4.7150   24.9160 C   0  0  0  0  0  0  0  0  0  0  0  0
  -21.8230   -4.1460   23.7300 C   0  0  0  0  0  3  0  0  0  0  0  0
  -21.9580   -4.9380   22.5760 C   0  0  0  0  0  0  0  0  0  0  0  0
  -22.4170   -4.3790   21.4300 F   0  0  0  0  0  0  0  0  0  0  0  0
  -21.1910   -3.9490   26.0250 F   0  0  0  0  0  0  0  0  0  0  0  0
  -22.7840  -13.6550   21.2010 C   0  0  0  0  0  0  0  0  0  0  0  0
  -22.0860  -12.9480   22.0810 N   0  0  0  0  0  0  0  0  0  0  0  0
  -22.3330  -14.6880   20.7090 O   0  0  0  0  0  0  0  0  0  0  0  0
  -22.4670  -12.1120   22.4990 H   0  0  0  0  0  0  0  0  0  0  0  0
  -21.1570  -13.2480   22.3420 H   0  0  0  0  0  0  0  0  0  0  0  0
  -25.3760  -15.3420   20.3330 N   0  0  0  0  0  0  0  0  0  0  0  0
  -24.6110  -15.9920   20.4820 H   0  0  0  0  0  0  0  0  0  0  0  0
  -26.2090  -15.7840   19.9680 H   0  0  0  0  0  0  0  0  0  0  0  0
  -28.0550  -24.0330   19.9590 C   0  0  0  0  0  3  0  0  0  0  0  0
  -28.1800  -25.7260   20.2860 O   0  0  0  0  0  0  0  0  0  0  0  0
  -24.6740  -31.8880   23.2420 C   0  0  0  0  0  0  0  0  0  0  0  0
  -27.1960  -26.8980   20.2060 C   0  0  0  0  0  0  0  0  0  0  0  0
  -23.4770  -30.4990   21.6020 C   0  0  0  0  0  3  0  0  0  0  0  0
  -24.9190  -28.8760   20.1690 C   0  0  0  0  0  0  0  0  0  0  0  0
  -26.0500  -30.6680   21.4620 C   0  0  0  0  0  2  0  0  0  0  0  0
  -26.1130  -29.2480   20.7980 C   0  0  0  0  0  0  0  0  0  0  0  0
  -27.2390  -28.2830   20.7890 C   0  0  0  0  0  3  0  0  0  0  0  0
  -25.9730  -26.7190   19.5190 C   0  0  0  0  0  3  0  0  0  0  0  0
  -24.8830  -27.6370   19.5060 C   0  0  0  0  0  3  0  0  0  0  0  0
  -23.7080  -29.8150   20.2250 C   0  0  0  0  0  2  0  0  0  0  0  0
  -24.7570  -31.0490   22.1550 N   0  0  0  0  0  0  0  0  0  0  0  0
  -23.5840  -32.1810   23.7630 O   0  0  0  0  0  0  0  0  0  0  0  0
  -22.7740  -29.5100   22.5700 C   0  0  0  0  0  0  0  0  0  0  0  0
  -21.4440  -29.3430   22.4430 N   0  0  0  0  0  0  0  0  0  0  0  0
  -23.4360  -28.8900   23.4060 O   0  0  0  0  0  0  0  0  0  0  0  0
  -20.9600  -29.8950   21.7470 H   0  0  0  0  0  0  0  0  0  0  0  0
  -18.0650  -28.1090   22.9460 C   0  0  0  0  0  0  0  0  0  0  0  0
  -20.6230  -28.4010   23.2130 C   0  0  0  0  0  3  0  0  0  0  0  0
  -20.7360  -26.9690   22.6400 C   0  0  0  0  0  2  0  0  0  0  0  0
  -19.6390  -26.6360   21.6240 C   0  0  0  0  0  2  0  0  0  0  0  0
  -18.2550  -26.7640   22.2660 C   0  0  0  0  0  2  0  0  0  0  0  0
  -19.1750  -28.8860   23.3760 C   0  0  0  0  0  0  0  0  0  0  0  0
  -18.9390  -30.1400   23.9780 C   0  0  0  0  0  3  0  0  0  0  0  0
  -17.6280  -30.6220   24.1490 C   0  0  0  0  0  3  0  0  0  0  0  0
  -16.5330  -29.8460   23.7320 C   0  0  0  0  0  3  0  0  0  0  0  0
  -16.7530  -28.5910   23.1370 C   0  0  0  0  0  3  0  0  0  0  0  0
  -25.9430  -32.5330   23.8780 C   0  0  0  0  0  3  0  0  0  0  0  0
  -25.6300  -33.9390   24.1990 N   0  0  0  0  0  0  0  0  0  0  0  0
  -25.9440  -34.9920   23.4330 C   0  0  0  0  0  0  0  0  0  0  0  0
  -26.5850  -34.8830   22.3850 O   0  0  0  0  0  0  0  0  0  0  0  0
  -25.0550  -34.0960   25.0140 H   0  0  0  0  0  0  0  0  0  0  0  0
  -24.1960  -36.7850   23.1450 C   0  0  0  0  0  1  0  0  0  0  0  0
  -25.4750  -36.3870   23.9000 C   0  0  0  0  0  3  0  0  0  0  0  0
  -27.6370  -37.3000   24.6290 C   0  0  0  0  0  1  0  0  0  0  0  0
  -26.4980  -37.4430   23.7260 N   0  0  0  0  0  0  0  0  0  0  0  0
  -26.0940  -38.3640   23.8700 H   0  0  0  0  0  0  0  0  0  0  0  0
  -26.4300  -31.7820   25.1810 C   0  0  1  0  0  0  0  0  0  0  0  0
  -25.3170  -31.5720   26.2340 C   0  0  0  0  0  1  0  0  0  0  0  0
  -27.0110  -30.3920   24.8340 C   0  0  0  0  0  1  0  0  0  0  0  0
  -27.5750  -32.5810   25.8470 C   0  0  0  0  0  1  0  0  0  0  0  0
  2 14  1  0
  3  8  1  0
  4  5  1  0
  4  3  1  0
  6  5  1  0
  6 20  1  0
  6  7  1  0
  8  2  1  0
  8  7  1  0
  9  2  2  0
 10 12  1  0
 11 13  1  0
 11 14  1  0
 13 15  1  0
 14 10  1  0
 15  1  1  0
 15 12  1  0
 15 16  1  6
 17 18  2  0
 18 37  1  0
 19 18  1  0
 19 22  1  0
 20 21  1  0
 20 17  1  0
 21 19  2  0
 22 23  1  0
 23 24  2  0
 25 28  1  0
 25 24  1  0
 26 25  2  0
 27 26  1  0
 27 22  2  0
 28 29  1  0
 29 30  1  0
 30 31  2  0
 32 31  1  0
 32 36  1  0
 33 32  2  0
 34 29  2  0
 34 33  1  0
 35 34  1  0
 37 38  1  0
 38 41  1  0
 38 40  1  0
 39 37  2  0
 42 43  1  0
 42 17  1  0
 44 42  1  0
 45 46  1  0
 45  1  2  0
 47 58  2  0
 48 46  1  0
 48 53  1  0
 49 57  1  0
 49 59  1  0
 50 56  1  0
 50 52  1  0
 51 57  1  0
 52 51  1  0
 53 52  2  0
 54 48  2  0
 55 54  1  0
 55 50  2  0
 56 49  1  0
 57 47  1  0
 59 61  2  0
 60 59  1  0
 62 60  1  0
 63 72  2  0
 63 68  1  0
 64 60  1  0
 64 68  1  0
 65 64  1  0
 66 67  1  0
 66 65  1  0
 67 63  1  0
 68 69  2  0
 69 70  1  0
 71 70  2  0
 72 71  1  0
 73 47  1  0
 73 74  1  0
 73 83  1  0
 74 77  1  0
 75 79  1  0
 75 74  1  0
 76 75  2  0
 79 78  1  0
 81 82  1  0
 81 79  1  0
 81 80  1  0
 83 86  1  1
 83 84  1  0
 85 83  1  0
M  ISO  4   2 100  14 100  45 101  46 101
M  END
>  <TORSDO>  (62) 
F 17

>  <SCORE>  (62) 
-16.400

>  <name>  (62) 
61

>  <ligand_id>  (62) 
61

>  <original_smiles>  (62) 
[H]c1c([H])c([H])c2c(c1[H])C([H])([H])C([H])([H])C([H])([H])C2([H])N([H])C(=O)C1([H])N(C(=O)C([H])(N([H])C(=O)C([H])(N([H])C([H])([H])[H])C([H])([H])[H])C(C([H])([H])[H])(C([H])([H])[H])C([H])([H])[H])C([H])([H])c2c([H])c(OC([H])([H])C([H])([H])[N+]3([H])C([H])([H])C([H])([H])N(C(=O)N4C([H])([H])C([H])([H])C([H])([H])C([H])(n5nc(-c6c([H])c([H])c(Oc7c([H])c([H])c(F)c([H])c7F)c([H])c6[H])c(C(=O)N([H])[H])c5N([H])[H])C4([H])[H])C([H])([H])C3([H])[H])c([H])c([H])c2C1([H])[H]

>  <smiles>  (62) 
[H]c1c([H])c([H])c2c(c1[H])C([H])([H])C([H])([H])C([H])([H])C2([H])N([H])C(=O)C1([H])N(C(=O)C([H])(N([H])C(=O)C([H])(N([H])C([H])([H])[H])C([H])([H])[H])C(C([H])([H])[H])(C([H])([H])[H])C([H])([H])[H])C([H])([H])c2c([H])c(OC([H])([H])C([H])([H])[N+]3([H])C([H])([H])C([H])([H])N(C(=O)N4C([H])([H])C([H])([H])C([H])([H])C([H])(n5nc(-c6c([H])c([H])c(Oc7c([H])c([H])c(F)c([H])c7F)c([H])c6[H])c(C(=O)N([H])[H])c5N([H])[H])C4([H])[H])C([H])([H])C3([H])[H])c([H])c([H])c2C1([H])[H]

$$$$
62:0:0
     RDKit          3D

 97107  0  0  1  0  0  0  0  0999 V2000
  -30.8200  -14.4350   20.1280 C   0  0  0  0  0  0  0  0  0  0  0  0
  -30.6930  -12.0700   19.4510 C   0  0  0  0  0  2  0  0  0  0  0  0
  -29.7610  -11.9620   18.2260 C   0  0  0  0  0  2  0  0  0  0  0  0
  -28.2880  -11.8190   18.6650 C   0  0  0  0  0  2  0  0  0  0  0  0
  -27.8750  -12.8680   19.7330 C   0  0  0  0  0  3  0  0  0  0  0  0
  -28.9240  -12.9320   20.8650 C   0  0  0  0  0  2  0  0  0  0  0  0
  -30.2340  -13.2140   20.2540 N   0  0  0  0  0  0  0  0  0  0  0  0
  -31.9360  -14.5850   19.6160 O   0  0  0  0  0  0  0  0  0  0  0  0
  -30.0390  -22.4330   20.6230 C   0  0  0  0  0  3  0  0  0  0  0  0
  -30.4150  -21.6250   21.6990 C   0  0  0  0  0  0  0  0  0  0  0  0
  -29.5080  -21.7850   19.5080 C   0  0  0  0  0  0  0  0  0  0  0  0
  -29.7710  -19.7640   20.5420 C   0  0  0  0  0  0  0  0  0  0  0  0
  -29.0480  -17.6650   19.3710 C   0  0  0  0  0  2  0  0  0  0  0  0
  -30.0550  -17.5440   21.6500 C   0  0  0  0  0  2  0  0  0  0  0  0
  -29.8150  -16.3710   19.0560 C   0  0  0  0  0  2  0  0  0  0  0  0
  -29.6120  -16.0690   21.5270 C   0  0  0  0  0  2  0  0  0  0  0  0
  -30.2870  -20.2870   21.6460 N   0  0  0  0  0  0  0  0  0  0  0  0
  -29.3700  -20.4530   19.4750 N   0  0  0  0  0  0  0  0  0  0  0  0
  -29.6440  -18.3710   20.5080 N   0  0  0  0  0  0  0  0  0  0  0  0
  -29.9740  -15.4860   20.2240 N   0  0  0  0  0  0  0  0  0  0  0  0
  -29.0810  -22.4800   18.3730 N   0  0  0  0  0  0  0  0  0  0  0  0
  -28.7650  -21.9330   17.5800 H   0  0  0  0  0  0  0  0  0  0  0  0
  -25.5070  -13.5040   20.5170 C   0  0  0  0  0  0  0  0  0  0  0  0
  -24.4420  -12.7410   20.9180 C   0  0  0  0  0  0  0  0  0  0  0  0
  -24.8870  -11.3850   20.8680 C   0  0  0  0  0  0  0  0  0  0  0  0
  -26.5340  -12.6100   20.2500 N   0  0  0  0  0  0  0  0  0  0  0  0
  -26.1650  -11.3310   20.5160 N   0  0  0  0  0  0  0  0  0  0  0  0
  -24.1560  -10.1300   21.0770 C   0  0  0  0  0  0  0  0  0  0  0  0
  -24.5920   -9.1680   22.0160 C   0  0  0  0  0  3  0  0  0  0  0  0
  -23.8630   -7.9770   22.2130 C   0  0  0  0  0  3  0  0  0  0  0  0
  -22.6800   -7.7380   21.4720 C   0  0  0  0  0  0  0  0  0  0  0  0
  -22.2620   -8.6890   20.5240 C   0  0  0  0  0  3  0  0  0  0  0  0
  -22.9930   -9.8720   20.3250 C   0  0  0  0  0  3  0  0  0  0  0  0
  -21.9190   -6.5990   21.5780 O   0  0  0  0  0  0  0  0  0  0  0  0
  -21.8600   -5.8790   22.7440 C   0  0  0  0  0  0  0  0  0  0  0  0
  -21.3860   -6.4480   23.9470 C   0  0  0  0  0  3  0  0  0  0  0  0
  -21.2760   -5.6540   25.1050 C   0  0  0  0  0  3  0  0  0  0  0  0
  -21.6290   -4.2910   25.0620 C   0  0  0  0  0  0  0  0  0  0  0  0
  -22.0950   -3.7220   23.8640 C   0  0  0  0  0  3  0  0  0  0  0  0
  -22.2070   -4.5140   22.7080 C   0  0  0  0  0  0  0  0  0  0  0  0
  -22.6370   -3.9560   21.5510 F   0  0  0  0  0  0  0  0  0  0  0  0
  -21.5160   -3.5250   26.1730 F   0  0  0  0  0  0  0  0  0  0  0  0
  -23.0600  -13.2320   21.2410 C   0  0  0  0  0  0  0  0  0  0  0  0
  -22.3570  -12.5480   22.1360 N   0  0  0  0  0  0  0  0  0  0  0  0
  -22.6130  -14.2600   20.7320 O   0  0  0  0  0  0  0  0  0  0  0  0
  -22.7330  -11.7190   22.5710 H   0  0  0  0  0  0  0  0  0  0  0  0
  -21.4310  -12.8600   22.3900 H   0  0  0  0  0  0  0  0  0  0  0  0
  -25.6820  -14.8720   20.3370 N   0  0  0  0  0  0  0  0  0  0  0  0
  -24.9270  -15.5370   20.4740 H   0  0  0  0  0  0  0  0  0  0  0  0
  -26.5340  -15.3020   19.9990 H   0  0  0  0  0  0  0  0  0  0  0  0
  -30.1530  -22.0370   24.2610 C   0  0  0  0  0  2  0  0  0  0  0  0
  -30.2540  -23.3930   23.6060 C   0  0  0  0  0  2  0  0  0  0  0  0
  -30.9360  -22.1980   22.9780 C   0  0  0  0  0  3  0  0  0  0  0  0
  -29.5490  -23.8480   18.1550 C   0  0  0  0  0  2  0  0  0  0  0  0
  -28.8550  -24.5430   16.9720 C   0  0  0  0  0  2  0  0  0  0  0  0
  -27.5220  -25.2120   17.3340 C   0  0  0  0  0  2  0  0  0  0  0  0
  -27.7390  -26.2770   18.2620 O   0  0  0  0  0  0  0  0  0  0  0  0
  -25.0050  -30.8730   22.9580 C   0  0  0  0  0  0  0  0  0  0  0  0
  -26.6740  -27.0980   18.5710 C   0  0  0  0  0  0  0  0  0  0  0  0
  -23.4740  -30.1350   21.1610 C   0  0  0  0  0  3  0  0  0  0  0  0
  -24.5530  -28.8470   19.2470 C   0  0  0  0  0  0  0  0  0  0  0  0
  -26.0040  -30.1830   20.7810 C   0  0  0  0  0  2  0  0  0  0  0  0
  -25.8190  -29.0310   19.8150 C   0  0  0  0  0  0  0  0  0  0  0  0
  -26.8800  -28.1570   19.4830 C   0  0  0  0  0  3  0  0  0  0  0  0
  -25.3830  -26.9270   18.0120 C   0  0  0  0  0  3  0  0  0  0  0  0
  -24.3280  -27.7920   18.3500 C   0  0  0  0  0  3  0  0  0  0  0  0
  -23.4720  -29.8260   19.6410 C   0  0  0  0  0  2  0  0  0  0  0  0
  -24.8520  -30.3930   21.6900 N   0  0  0  0  0  0  0  0  0  0  0  0
  -24.0230  -31.1380   23.6640 O   0  0  0  0  0  0  0  0  0  0  0  0
  -22.7400  -28.9920   21.8980 C   0  0  0  0  0  0  0  0  0  0  0  0
  -21.3970  -29.0380   21.8840 N   0  0  0  0  0  0  0  0  0  0  0  0
  -23.3700  -28.0810   22.4420 O   0  0  0  0  0  0  0  0  0  0  0  0
  -20.9560  -29.8200   21.4240 H   0  0  0  0  0  0  0  0  0  0  0  0
  -17.9190  -28.2080   22.3960 C   0  0  0  0  0  0  0  0  0  0  0  0
  -20.4970  -28.0520   22.4820 C   0  0  0  0  0  3  0  0  0  0  0  0
  -20.3510  -26.8090   21.5750 C   0  0  0  0  0  2  0  0  0  0  0  0
  -19.1560  -26.8950   20.6200 C   0  0  0  0  0  2  0  0  0  0  0  0
  -17.8520  -27.0570   21.4050 C   0  0  0  0  0  2  0  0  0  0  0  0
  -19.1620  -28.6850   22.8880 C   0  0  0  0  0  0  0  0  0  0  0  0
  -19.1690  -29.7810   23.7790 C   0  0  0  0  0  3  0  0  0  0  0  0
  -17.9670  -30.3940   24.1780 C   0  0  0  0  0  3  0  0  0  0  0  0
  -16.7380  -29.9060   23.6990 C   0  0  0  0  0  3  0  0  0  0  0  0
  -16.7160  -28.8140   22.8140 C   0  0  0  0  0  3  0  0  0  0  0  0
  -26.4160  -31.1370   23.5680 C   0  0  0  0  0  3  0  0  0  0  0  0
  -26.9210  -29.9650   24.4960 C   0  0  1  0  0  0  0  0  0  0  0  0
  -25.9060  -29.5550   25.5880 C   0  0  0  0  0  1  0  0  0  0  0  0
  -27.2450  -28.7070   23.6570 C   0  0  0  0  0  1  0  0  0  0  0  0
  -28.2360  -30.3810   25.1980 C   0  0  0  0  0  1  0  0  0  0  0  0
  -26.3460  -32.3990   24.3150 N   0  0  0  0  0  0  0  0  0  0  0  0
  -26.8080  -33.5750   23.8670 C   0  0  0  0  0  0  0  0  0  0  0  0
  -27.4120  -33.6920   22.7960 O   0  0  0  0  0  0  0  0  0  0  0  0
  -25.8170  -32.3870   25.1740 H   0  0  0  0  0  0  0  0  0  0  0  0
  -25.3810  -35.6210   24.1840 C   0  0  0  0  0  1  0  0  0  0  0  0
  -26.5630  -34.8150   24.7460 C   0  0  0  0  0  3  0  0  0  0  0  0
  -28.8320  -35.0900   25.6440 C   0  0  0  0  0  1  0  0  0  0  0  0
  -27.7470  -35.6910   24.8720 N   0  0  0  0  0  0  0  0  0  0  0  0
  -27.4970  -36.5730   25.3120 H   0  0  0  0  0  0  0  0  0  0  0  0
  1 20  1  0
  1  7  1  0
  2  7  1  0
  3  4  1  0
  3  2  1  0
  5  4  1  0
  5 26  1  0
  5  6  1  0
  7  6  1  0
  8  1  2  0
  9 10  2  0
 10 53  1  0
 11  9  1  0
 12 17  2  0
 13 19  1  0
 15 13  1  0
 15 20  1  0
 16 14  1  0
 17 10  1  0
 18 11  2  0
 18 12  1  0
 19 12  1  0
 19 14  1  0
 20 16  1  0
 21 11  1  0
 22 21  1  0
 23 24  2  0
 24 43  1  0
 25 24  1  0
 25 28  1  0
 26 27  1  0
 26 23  1  0
 27 25  2  0
 28 29  1  0
 29 30  2  0
 31 34  1  0
 31 30  1  0
 32 31  2  0
 33 32  1  0
 33 28  2  0
 34 35  1  0
 35 36  1  0
 36 37  2  0
 38 37  1  0
 38 42  1  0
 39 38  2  0
 40 35  2  0
 40 39  1  0
 41 40  1  0
 43 44  1  0
 44 47  1  0
 44 46  1  0
 45 43  2  0
 48 49  1  0
 48 23  1  0
 50 48  1  0
 52 51  1  0
 53 52  1  0
 53 51  1  0
 54 21  1  0
 55 56  1  0
 55 54  1  0
 56 57  1  0
 57 59  1  0
 58 69  2  0
 59 64  1  0
 60 68  1  0
 60 70  1  0
 61 67  1  0
 61 63  1  0
 62 68  1  0
 63 62  1  0
 64 63  2  0
 65 66  1  0
 65 59  2  0
 66 61  2  0
 67 60  1  0
 68 58  1  0
 70 72  2  0
 71 70  1  0
 73 71  1  0
 74 83  2  0
 74 79  1  0
 75 71  1  0
 75 79  1  0
 76 75  1  0
 77 78  1  0
 77 76  1  0
 78 74  1  0
 79 80  2  0
 80 81  1  0
 82 81  2  0
 83 82  1  0
 84 58  1  0
 84 89  1  0
 84 85  1  0
 85 88  1  1
 85 86  1  0
 87 85  1  0
 89 92  1  0
 90 89  1  0
 90 94  1  0
 91 90  2  0
 94 93  1  0
 94 96  1  0
 96 97  1  0
 96 95  1  0
M  ISO  4   1 100  20 100  56 101  57 101
M  END
>  <TORSDO>  (63) 
F 19

>  <SCORE>  (63) 
-12.034

>  <name>  (63) 
62

>  <ligand_id>  (63) 
62

>  <original_smiles>  (63) 
[H]c1c(N([H])C([H])([H])C([H])([H])C([H])([H])Oc2c([H])c([H])c3c(c2[H])C([H])([H])N(C(=O)C([H])(N([H])C(=O)C([H])(N([H])C([H])([H])[H])C([H])([H])[H])C(C([H])([H])[H])(C([H])([H])[H])C([H])([H])[H])C([H])(C(=O)N([H])C2([H])c4c([H])c([H])c([H])c([H])c4C([H])([H])C([H])([H])C2([H])[H])C3([H])[H])nc(N2C([H])([H])C([H])([H])N(C(=O)N3C([H])([H])C([H])([H])C([H])([H])C([H])(n4nc(-c5c([H])c([H])c(Oc6c([H])c([H])c(F)c([H])c6F)c([H])c5[H])c(C(=O)N([H])[H])c4N([H])[H])C3([H])[H])C([H])([H])C2([H])[H])nc1C1([H])C([H])([H])C1([H])[H]

>  <smiles>  (63) 
[H]c1c(N([H])C([H])([H])C([H])([H])C([H])([H])Oc2c([H])c([H])c3c(c2[H])C([H])([H])N(C(=O)C([H])(N([H])C(=O)C([H])(N([H])C([H])([H])[H])C([H])([H])[H])C(C([H])([H])[H])(C([H])([H])[H])C([H])([H])[H])C([H])(C(=O)N([H])C2([H])c4c([H])c([H])c([H])c([H])c4C([H])([H])C([H])([H])C2([H])[H])C3([H])[H])nc(N2C([H])([H])C([H])([H])N(C(=O)N3C([H])([H])C([H])([H])C([H])([H])C([H])(n4nc(-c5c([H])c([H])c(Oc6c([H])c([H])c(F)c([H])c6F)c([H])c5[H])c(C(=O)N([H])[H])c4N([H])[H])C3([H])[H])C([H])([H])C2([H])[H])nc1C1([H])C([H])([H])C1([H])[H]

$$$$
63:0:0
     RDKit          3D

 94103  0  0  1  0  0  0  0  0999 V2000
  -28.3730  -22.3040   20.1910 C   0  0  0  0  0  0  0  0  0  0  0  0
  -28.8030  -23.6900   20.1520 C   0  0  0  0  0  0  0  0  0  0  0  0
  -29.3430  -21.2600   20.4010 C   0  0  0  0  0  0  0  0  0  0  0  0
  -30.9400  -22.9130   20.5190 C   0  0  0  0  0  0  0  0  0  0  0  0
  -32.4040  -23.2490   20.7110 C   0  0  0  0  0  1  0  0  0  0  0  0
  -30.1150  -23.9470   20.3250 N   0  0  0  0  0  0  0  0  0  0  0  0
  -30.6260  -21.6130   20.5600 N   0  0  0  0  0  0  0  0  0  0  0  0
  -29.0190  -19.8570   20.4620 N   0  0  0  0  0  0  0  0  0  0  0  0
  -28.0360  -19.6500   20.3390 H   0  0  0  0  0  0  0  0  0  0  0  0
  -26.5160  -21.6920   18.5580 C   0  0  0  0  0  1  0  0  0  0  0  0
  -26.8990  -21.9440   20.0210 C   0  0  0  0  0  2  0  0  0  0  0  0
  -27.8210  -24.9230   19.8950 C   0  0  0  0  0  2  0  0  0  0  0  0
  -28.1790  -26.3830   20.0320 O   0  0  0  0  0  0  0  0  0  0  0  0
  -24.5840  -31.8670   23.1790 C   0  0  0  0  0  0  0  0  0  0  0  0
  -27.1000  -27.3060   19.9920 C   0  0  0  0  0  0  0  0  0  0  0  0
  -23.3380  -30.4950   21.5520 C   0  0  0  0  0  3  0  0  0  0  0  0
  -24.7490  -28.9690   20.0600 C   0  0  0  0  0  0  0  0  0  0  0  0
  -25.8780  -30.8000   21.3120 C   0  0  0  0  0  2  0  0  0  0  0  0
  -25.9380  -29.4280   20.6400 C   0  0  0  0  0  0  0  0  0  0  0  0
  -27.1160  -28.6110   20.5970 C   0  0  0  0  0  3  0  0  0  0  0  0
  -25.8830  -26.9310   19.3700 C   0  0  0  0  0  3  0  0  0  0  0  0
  -24.7270  -27.7290   19.4130 C   0  0  0  0  0  3  0  0  0  0  0  0
  -23.5170  -29.8470   20.1560 C   0  0  0  0  0  2  0  0  0  0  0  0
  -24.6210  -31.0720   22.0700 N   0  0  0  0  0  0  0  0  0  0  0  0
  -23.5140  -32.1390   23.7430 O   0  0  0  0  0  0  0  0  0  0  0  0
  -22.6970  -29.4630   22.5130 C   0  0  0  0  0  0  0  0  0  0  0  0
  -21.3730  -29.2660   22.3980 N   0  0  0  0  0  0  0  0  0  0  0  0
  -23.3920  -28.8440   23.3240 O   0  0  0  0  0  0  0  0  0  0  0  0
  -20.8690  -29.8200   21.7190 H   0  0  0  0  0  0  0  0  0  0  0  0
  -18.0220  -27.9960   22.9120 C   0  0  0  0  0  0  0  0  0  0  0  0
  -20.5750  -28.3130   23.1730 C   0  0  0  0  0  3  0  0  0  0  0  0
  -20.7060  -26.8810   22.6040 C   0  0  0  0  0  2  0  0  0  0  0  0
  -19.6100  -26.5310   21.5930 C   0  0  0  0  0  2  0  0  0  0  0  0
  -18.2260  -26.6480   22.2400 C   0  0  0  0  0  2  0  0  0  0  0  0
  -19.1250  -28.7840   23.3360 C   0  0  0  0  0  0  0  0  0  0  0  0
  -18.8800  -30.0430   23.9250 C   0  0  0  0  0  3  0  0  0  0  0  0
  -17.5650  -30.5160   24.0940 C   0  0  0  0  0  3  0  0  0  0  0  0
  -16.4760  -29.7260   23.6850 C   0  0  0  0  0  3  0  0  0  0  0  0
  -16.7060  -28.4680   23.0990 C   0  0  0  0  0  3  0  0  0  0  0  0
  -25.8820  -32.4930   23.7750 C   0  0  0  0  0  3  0  0  0  0  0  0
  -26.4220  -31.7130   25.0360 C   0  0  1  0  0  0  0  0  0  0  0  0
  -25.3500  -31.4720   26.1250 C   0  0  0  0  0  1  0  0  0  0  0  0
  -26.9950  -30.3370   24.6270 C   0  0  0  0  0  1  0  0  0  0  0  0
  -27.5890  -32.5010   25.6780 C   0  0  0  0  0  1  0  0  0  0  0  0
  -25.5840  -33.8900   24.1220 N   0  0  0  0  0  0  0  0  0  0  0  0
  -25.8750  -34.9450   23.3490 C   0  0  0  0  0  0  0  0  0  0  0  0
  -26.4940  -34.8460   22.2860 O   0  0  0  0  0  0  0  0  0  0  0  0
  -25.0280  -34.0410   24.9500 H   0  0  0  0  0  0  0  0  0  0  0  0
  -24.1220  -36.7320   23.0910 C   0  0  0  0  0  1  0  0  0  0  0  0
  -25.4080  -36.3320   23.8330 C   0  0  0  0  0  3  0  0  0  0  0  0
  -27.5750  -37.2320   24.5540 C   0  0  0  0  0  1  0  0  0  0  0  0
  -26.4280  -37.3890   23.6640 N   0  0  0  0  0  0  0  0  0  0  0  0
  -26.0260  -38.3070   23.8270 H   0  0  0  0  0  0  0  0  0  0  0  0
  -29.9080  -18.6340   20.5730 C   0  0  0  0  0  2  0  0  0  0  0  0
  -30.5380  -14.8410   20.2790 C   0  0  0  0  0  0  0  0  0  0  0  0
  -30.3540  -12.5390   19.3210 C   0  0  0  0  0  2  0  0  0  0  0  0
  -29.3990  -12.5470   18.1070 C   0  0  0  0  0  2  0  0  0  0  0  0
  -27.9320  -12.3920   18.5560 C   0  0  0  0  0  2  0  0  0  0  0  0
  -27.5590  -13.3000   19.7590 C   0  0  0  0  0  3  0  0  0  0  0  0
  -28.6350  -13.2660   20.8650 C   0  0  0  0  0  2  0  0  0  0  0  0
  -29.9140  -13.6140   20.2370 N   0  0  0  0  0  0  0  0  0  0  0  0
  -31.7530  -14.9160   20.0760 O   0  0  0  0  0  0  0  0  0  0  0  0
  -28.3610  -17.1510   19.0740 C   0  0  0  0  0  2  0  0  0  0  0  0
  -29.5660  -16.3840   18.5350 C   0  0  0  0  0  2  0  0  0  0  0  0
  -29.1170  -17.2400   20.4030 C   0  0  0  0  0  3  0  0  0  0  0  0
  -29.7520  -15.9290   19.9110 N   0  0  0  0  0  0  0  0  0  0  0  0
  -25.1840  -13.8830   20.5390 C   0  0  0  0  0  0  0  0  0  0  0  0
  -24.1200  -13.1050   20.9070 C   0  0  0  0  0  0  0  0  0  0  0  0
  -24.5840  -11.7540   20.8510 C   0  0  0  0  0  0  0  0  0  0  0  0
  -26.2240  -13.0080   20.2730 N   0  0  0  0  0  0  0  0  0  0  0  0
  -25.8710  -11.7210   20.5280 N   0  0  0  0  0  0  0  0  0  0  0  0
  -23.8610  -10.4900   21.0310 C   0  0  0  0  0  0  0  0  0  0  0  0
  -24.2850   -9.5230   21.9690 C   0  0  0  0  0  3  0  0  0  0  0  0
  -23.5610   -8.3230   22.1370 C   0  0  0  0  0  3  0  0  0  0  0  0
  -22.3990   -8.0810   21.3670 C   0  0  0  0  0  0  0  0  0  0  0  0
  -21.9930   -9.0360   20.4190 C   0  0  0  0  0  3  0  0  0  0  0  0
  -22.7180  -10.2280   20.2480 C   0  0  0  0  0  3  0  0  0  0  0  0
  -21.6470   -6.9330   21.4440 O   0  0  0  0  0  0  0  0  0  0  0  0
  -21.5670   -6.2030   22.6010 C   0  0  0  0  0  0  0  0  0  0  0  0
  -21.0550   -6.7540   23.7960 C   0  0  0  0  0  3  0  0  0  0  0  0
  -20.9250   -5.9480   24.9440 C   0  0  0  0  0  3  0  0  0  0  0  0
  -21.2970   -4.5910   24.8980 C   0  0  0  0  0  0  0  0  0  0  0  0
  -21.8010   -4.0380   23.7080 C   0  0  0  0  0  3  0  0  0  0  0  0
  -21.9330   -4.8420   22.5620 C   0  0  0  0  0  0  0  0  0  0  0  0
  -22.4000   -4.2990   21.4120 F   0  0  0  0  0  0  0  0  0  0  0  0
  -21.1650   -3.8140   26.0000 F   0  0  0  0  0  0  0  0  0  0  0  0
  -22.7270  -13.5770   21.2020 C   0  0  0  0  0  0  0  0  0  0  0  0
  -22.0120  -12.8740   22.0720 N   0  0  0  0  0  0  0  0  0  0  0  0
  -22.2810  -14.6070   20.6960 O   0  0  0  0  0  0  0  0  0  0  0  0
  -22.3850  -12.0400   22.5020 H   0  0  0  0  0  0  0  0  0  0  0  0
  -21.0780  -13.1730   22.3120 H   0  0  0  0  0  0  0  0  0  0  0  0
  -25.3470  -15.2560   20.3870 N   0  0  0  0  0  0  0  0  0  0  0  0
  -24.5890  -15.9140   20.5320 H   0  0  0  0  0  0  0  0  0  0  0  0
  -26.2120  -15.6980   20.1070 H   0  0  0  0  0  0  0  0  0  0  0  0
  1  3  1  0
  2  1  2  0
  2  6  1  0
  3  8  1  0
  3  7  2  0
  4  7  1  0
  4  5  1  0
  6  4  2  0
  8 54  1  0
  9  8  1  0
 10 11  1  0
 11  1  1  0
 12 13  1  0
 12  2  1  0
 14 25  2  0
 15 13  1  0
 15 20  1  0
 16 24  1  0
 16 26  1  0
 17 23  1  0
 17 19  1  0
 18 24  1  0
 19 18  1  0
 20 19  2  0
 21 22  1  0
 21 15  2  0
 22 17  2  0
 23 16  1  0
 24 14  1  0
 26 28  2  0
 27 26  1  0
 29 27  1  0
 30 39  2  0
 30 35  1  0
 31 27  1  0
 31 35  1  0
 32 31  1  0
 33 34  1  0
 33 32  1  0
 34 30  1  0
 35 36  2  0
 36 37  1  0
 38 37  2  0
 39 38  1  0
 40 14  1  0
 40 45  1  0
 40 41  1  0
 41 44  1  1
 41 42  1  0
 43 41  1  0
 45 48  1  0
 46 50  1  0
 46 45  1  0
 47 46  2  0
 50 49  1  0
 52 53  1  0
 52 50  1  0
 52 51  1  0
 56 61  1  0
 57 58  1  0
 57 56  1  0
 59 58  1  0
 59 70  1  0
 59 60  1  0
 61 55  1  0
 61 60  1  0
 62 55  2  0
 63 65  1  0
 64 63  1  0
 64 66  1  0
 65 54  1  0
 66 55  1  0
 66 65  1  0
 67 68  2  0
 68 87  1  0
 69 68  1  0
 69 72  1  0
 70 71  1  0
 70 67  1  0
 71 69  2  0
 72 73  1  0
 73 74  2  0
 75 78  1  0
 75 74  1  0
 76 75  2  0
 77 76  1  0
 77 72  2  0
 78 79  1  0
 79 80  1  0
 80 81  2  0
 82 81  1  0
 82 86  1  0
 83 82  2  0
 84 79  2  0
 84 83  1  0
 85 84  1  0
 87 88  1  0
 88 91  1  0
 88 90  1  0
 89 87  2  0
 92 93  1  0
 92 67  1  0
 94 92  1  0
M  ISO  4  12 101  13 101  55 100  66 100
M  END
>  <TORSDO>  (64) 
F 19

>  <SCORE>  (64) 
-13.667

>  <name>  (64) 
63

>  <ligand_id>  (64) 
63

>  <original_smiles>  (64) 
[H]c1c([H])c([H])c2c(c1[H])C([H])([H])C([H])([H])C([H])([H])C2([H])N([H])C(=O)C1([H])N(C(=O)C([H])(N([H])C(=O)C([H])(N([H])C([H])([H])[H])C([H])([H])[H])C(C([H])([H])[H])(C([H])([H])[H])C([H])([H])[H])C([H])([H])c2c([H])c(OC([H])([H])c3nc(C([H])([H])[H])nc(N([H])C([H])([H])C4([H])N(C(=O)N5C([H])([H])C([H])([H])C([H])([H])C([H])(n6nc(-c7c([H])c([H])c(Oc8c([H])c([H])c(F)c([H])c8F)c([H])c7[H])c(C(=O)N([H])[H])c6N([H])[H])C5([H])[H])C([H])([H])C4([H])[H])c3C([H])([H])C([H])([H])[H])c([H])c([H])c2C1([H])[H]

>  <smiles>  (64) 
[H]c1c([H])c([H])c2c(c1[H])C([H])([H])C([H])([H])C([H])([H])C2([H])N([H])C(=O)C1([H])N(C(=O)C([H])(N([H])C(=O)C([H])(N([H])C([H])([H])[H])C([H])([H])[H])C(C([H])([H])[H])(C([H])([H])[H])C([H])([H])[H])C([H])([H])c2c([H])c(OC([H])([H])c3nc(C([H])([H])[H])nc(N([H])C([H])([H])C4([H])N(C(=O)N5C([H])([H])C([H])([H])C([H])([H])C([H])(n6nc(-c7c([H])c([H])c(Oc8c([H])c([H])c(F)c([H])c8F)c([H])c7[H])c(C(=O)N([H])[H])c6N([H])[H])C5([H])[H])C([H])([H])C4([H])[H])c3C([H])([H])C([H])([H])[H])c([H])c([H])c2C1([H])[H]

$$$$
64:0:0
     RDKit          3D

 93103  0  0  1  0  0  0  0  0999 V2000
  -30.6780  -14.8290   20.4590 C   0  0  0  0  0  0  0  0  0  0  0  0
  -30.3820  -12.5610   19.4200 C   0  0  0  0  0  2  0  0  0  0  0  0
  -29.4750  -12.6110   18.1750 C   0  0  0  0  0  2  0  0  0  0  0  0
  -28.0040  -12.4260   18.5850 C   0  0  0  0  0  2  0  0  0  0  0  0
  -27.6070  -13.3260   19.7830 C   0  0  0  0  0  3  0  0  0  0  0  0
  -28.6510  -13.2990   20.9240 C   0  0  0  0  0  2  0  0  0  0  0  0
  -29.9460  -13.6550   20.3340 N   0  0  0  0  0  0  0  0  0  0  0  0
  -31.8830  -14.7580   20.2030 O   0  0  0  0  0  0  0  0  0  0  0  0
  -28.1490  -22.7560   19.7110 C   0  0  0  0  0  3  0  0  0  0  0  0
  -28.3970  -21.3390   19.5970 C   0  0  0  0  0  0  0  0  0  0  0  0
  -28.6880  -23.5240   20.7790 C   0  0  0  0  0  0  0  0  0  0  0  0
  -29.1900  -20.6630   20.5870 C   0  0  0  0  0  0  0  0  0  0  0  0
  -30.5410  -18.6630   21.4550 C   0  0  0  0  0  3  0  0  0  0  0  0
  -28.4270  -18.1940   20.5120 C   0  0  0  0  0  3  0  0  0  0  0  0
  -31.0840  -17.2330   21.0320 C   0  0  0  0  0  3  0  0  0  0  0  0
  -28.8360  -16.6610   20.2510 C   0  0  0  0  0  3  0  0  0  0  0  0
  -29.4620  -22.8170   21.6720 N   0  0  0  0  0  0  0  0  0  0  0  0
  -29.7100  -21.4730   21.5700 N   0  0  0  0  0  0  0  0  0  0  0  0
  -29.4970  -19.2190   20.5810 N   0  0  0  0  0  0  0  0  0  0  0  0
  -30.1310  -16.1040   20.7490 N   0  0  0  0  0  0  0  0  0  0  0  0
  -25.2150  -13.9250   20.4720 C   0  0  0  0  0  0  0  0  0  0  0  0
  -24.1430  -13.1580   20.8300 C   0  0  0  0  0  0  0  0  0  0  0  0
  -24.6030  -11.8050   20.8180 C   0  0  0  0  0  0  0  0  0  0  0  0
  -26.2610  -13.0420   20.2610 N   0  0  0  0  0  0  0  0  0  0  0  0
  -25.9000  -11.7620   20.5370 N   0  0  0  0  0  0  0  0  0  0  0  0
  -23.8690  -10.5480   21.0000 C   0  0  0  0  0  0  0  0  0  0  0  0
  -24.2810   -9.5790   21.9410 C   0  0  0  0  0  3  0  0  0  0  0  0
  -23.5470   -8.3870   22.1110 C   0  0  0  0  0  3  0  0  0  0  0  0
  -22.3830   -8.1540   21.3400 C   0  0  0  0  0  0  0  0  0  0  0  0
  -21.9900   -9.1100   20.3870 C   0  0  0  0  0  3  0  0  0  0  0  0
  -22.7250  -10.2940   20.2160 C   0  0  0  0  0  3  0  0  0  0  0  0
  -21.6200   -7.0150   21.4200 O   0  0  0  0  0  0  0  0  0  0  0  0
  -21.5530   -6.2720   22.5720 C   0  0  0  0  0  0  0  0  0  0  0  0
  -21.1170   -6.8300   23.7940 C   0  0  0  0  0  3  0  0  0  0  0  0
  -20.9980   -6.0150   24.9370 C   0  0  0  0  0  3  0  0  0  0  0  0
  -21.3050   -4.6430   24.8590 C   0  0  0  0  0  0  0  0  0  0  0  0
  -21.7340   -4.0850   23.6410 C   0  0  0  0  0  3  0  0  0  0  0  0
  -21.8550   -4.8980   22.5010 C   0  0  0  0  0  0  0  0  0  0  0  0
  -22.2490   -4.3500   21.3260 F   0  0  0  0  0  0  0  0  0  0  0  0
  -21.1830   -3.8580   25.9550 F   0  0  0  0  0  0  0  0  0  0  0  0
  -22.7430  -13.6440   21.0660 C   0  0  0  0  0  0  0  0  0  0  0  0
  -21.9920  -12.9610   21.9230 N   0  0  0  0  0  0  0  0  0  0  0  0
  -22.3210  -14.6660   20.5270 O   0  0  0  0  0  0  0  0  0  0  0  0
  -22.3440  -12.1330   22.3820 H   0  0  0  0  0  0  0  0  0  0  0  0
  -21.0530  -13.2710   22.1250 H   0  0  0  0  0  0  0  0  0  0  0  0
  -25.3800  -15.2940   20.2810 N   0  0  0  0  0  0  0  0  0  0  0  0
  -24.6030  -15.9390   20.3640 H   0  0  0  0  0  0  0  0  0  0  0  0
  -26.2150  -15.7250   19.9100 H   0  0  0  0  0  0  0  0  0  0  0  0
  -28.6380  -19.8360   17.4500 C   0  0  0  0  0  2  0  0  0  0  0  0
  -28.0000  -21.1340   17.0130 C   0  0  0  0  0  2  0  0  0  0  0  0
  -27.7920  -20.6250   18.4230 C   0  0  0  0  0  3  0  0  0  0  0  0
  -28.1520  -24.9990   21.1840 C   0  0  0  0  0  2  0  0  0  0  0  0
  -28.4720  -26.3240   20.5140 O   0  0  0  0  0  0  0  0  0  0  0  0
  -24.6410  -31.8940   23.2840 C   0  0  0  0  0  0  0  0  0  0  0  0
  -27.4050  -27.2560   20.4230 C   0  0  0  0  0  0  0  0  0  0  0  0
  -23.5170  -30.4490   21.6310 C   0  0  0  0  0  3  0  0  0  0  0  0
  -25.0400  -28.8900   20.2800 C   0  0  0  0  0  0  0  0  0  0  0  0
  -26.0630  -30.7850   21.5330 C   0  0  0  0  0  2  0  0  0  0  0  0
  -26.1860  -29.3900   20.9140 C   0  0  0  0  0  0  0  0  0  0  0  0
  -27.3750  -28.5870   20.9710 C   0  0  0  0  0  3  0  0  0  0  0  0
  -26.2430  -26.8370   19.7430 C   0  0  0  0  0  3  0  0  0  0  0  0
  -25.0760  -27.6220   19.6800 C   0  0  0  0  0  3  0  0  0  0  0  0
  -23.7930  -29.7550   20.2710 C   0  0  0  0  0  2  0  0  0  0  0  0
  -24.7580  -31.0640   22.2050 N   0  0  0  0  0  0  0  0  0  0  0  0
  -23.5360  -32.1650   23.7750 O   0  0  0  0  0  0  0  0  0  0  0  0
  -22.8340  -29.4410   22.5860 C   0  0  0  0  0  0  0  0  0  0  0  0
  -21.5090  -29.2620   22.4370 N   0  0  0  0  0  0  0  0  0  0  0  0
  -23.4960  -28.8230   23.4240 O   0  0  0  0  0  0  0  0  0  0  0  0
  -21.0330  -29.8130   21.7360 H   0  0  0  0  0  0  0  0  0  0  0  0
  -18.1180  -28.0920   22.9190 C   0  0  0  0  0  0  0  0  0  0  0  0
  -20.6770  -28.3290   23.2010 C   0  0  0  0  0  3  0  0  0  0  0  0
  -20.7690  -26.8980   22.6230 C   0  0  0  0  0  2  0  0  0  0  0  0
  -19.6700  -26.5890   21.6020 C   0  0  0  0  0  2  0  0  0  0  0  0
  -18.2860  -26.7420   22.2390 C   0  0  0  0  0  2  0  0  0  0  0  0
  -19.2400  -28.8430   23.3570 C   0  0  0  0  0  0  0  0  0  0  0  0
  -19.0280  -30.1040   23.9540 C   0  0  0  0  0  3  0  0  0  0  0  0
  -17.7260  -30.6150   24.1160 C   0  0  0  0  0  3  0  0  0  0  0  0
  -16.6180  -29.8610   23.6930 C   0  0  0  0  0  3  0  0  0  0  0  0
  -16.8140  -28.6010   23.1010 C   0  0  0  0  0  3  0  0  0  0  0  0
  -25.8910  -32.5590   23.9380 C   0  0  0  0  0  3  0  0  0  0  0  0
  -25.5480  -33.9600   24.2300 N   0  0  0  0  0  0  0  0  0  0  0  0
  -25.8880  -35.0030   23.4610 C   0  0  0  0  0  0  0  0  0  0  0  0
  -26.5890  -34.8900   22.4520 O   0  0  0  0  0  0  0  0  0  0  0  0
  -24.9260  -34.1200   25.0070 H   0  0  0  0  0  0  0  0  0  0  0  0
  -24.1440  -36.7660   23.0240 C   0  0  0  0  0  1  0  0  0  0  0  0
  -25.3680  -36.3940   23.8780 C   0  0  0  0  0  3  0  0  0  0  0  0
  -27.4640  -37.3280   24.7500 C   0  0  0  0  0  1  0  0  0  0  0  0
  -26.3880  -37.4600   23.7720 N   0  0  0  0  0  0  0  0  0  0  0  0
  -25.9640  -38.3770   23.8890 H   0  0  0  0  0  0  0  0  0  0  0  0
  -26.3720  -31.8230   25.2490 C   0  0  1  0  0  0  0  0  0  0  0  0
  -25.2430  -31.5890   26.2810 C   0  0  0  0  0  1  0  0  0  0  0  0
  -26.9880  -30.4450   24.9100 C   0  0  0  0  0  1  0  0  0  0  0  0
  -27.4860  -32.6480   25.9350 C   0  0  0  0  0  1  0  0  0  0  0  0
  1 20  1  0
  2  7  1  0
  3  4  1  0
  3  2  1  0
  5  4  1  0
  5 24  1  0
  5  6  1  0
  7  1  1  0
  7  6  1  0
  8  1  2  0
  9 11  1  0
 10  9  2  0
 10 12  1  0
 11 52  1  0
 11 17  2  0
 12 18  2  0
 14 19  1  0
 15 13  2  0
 16 14  2  0
 16 20  1  0
 18 17  1  0
 19 12  1  0
 19 13  1  0
 20 15  1  0
 21 22  2  0
 22 41  1  0
 23 22  1  0
 23 26  1  0
 24 21  1  0
 24 25  1  0
 25 23  2  0
 26 27  1  0
 27 28  2  0
 29 32  1  0
 29 28  1  0
 30 29  2  0
 31 30  1  0
 31 26  2  0
 32 33  1  0
 33 34  1  0
 34 35  2  0
 36 35  1  0
 36 40  1  0
 37 36  2  0
 38 33  2  0
 38 37  1  0
 39 38  1  0
 41 42  1  0
 42 45  1  0
 42 44  1  0
 43 41  2  0
 46 47  1  0
 46 21  1  0
 48 46  1  0
 49 51  1  0
 50 49  1  0
 50 51  1  0
 51 10  1  0
 53 52  1  0
 54 65  2  0
 55 53  1  0
 55 60  1  0
 56 64  1  0
 56 66  1  0
 57 59  1  0
 58 64  1  0
 59 60  2  0
 59 58  1  0
 61 55  2  0
 62 61  1  0
 62 57  2  0
 63 57  1  0
 63 56  1  0
 64 54  1  0
 66 68  2  0
 67 66  1  0
 69 67  1  0
 70 79  2  0
 70 75  1  0
 71 67  1  0
 71 75  1  0
 72 71  1  0
 73 74  1  0
 73 72  1  0
 74 70  1  0
 75 76  2  0
 76 77  1  0
 78 77  2  0
 79 78  1  0
 80 54  1  0
 80 81  1  0
 80 90  1  0
 81 84  1  0
 82 86  1  0
 82 81  1  0
 83 82  2  0
 86 85  1  0
 88 86  1  0
 88 89  1  0
 88 87  1  0
 90 93  1  1
 90 91  1  0
 92 90  1  0
M  ISO  4   1 100  20 100  52 101  53 101
M  END
>  <TORSDO>  (65) 
F 17

>  <SCORE>  (65) 
-15.310

>  <name>  (65) 
64

>  <ligand_id>  (65) 
64

>  <original_smiles>  (65) 
[H]c1c([H])c([H])c2c(c1[H])C([H])([H])C([H])([H])C([H])([H])C2([H])N([H])C(=O)C1([H])N(C(=O)C([H])(N([H])C(=O)C([H])(N([H])C([H])([H])[H])C([H])([H])[H])C(C([H])([H])[H])(C([H])([H])[H])C([H])([H])[H])C([H])([H])c2c([H])c(OC([H])([H])c3nnc(N4C([H])([H])C([H])([H])N(C(=O)N5C([H])([H])C([H])([H])C([H])([H])C([H])(n6nc(-c7c([H])c([H])c(Oc8c([H])c([H])c(F)c([H])c8F)c([H])c7[H])c(C(=O)N([H])[H])c6N([H])[H])C5([H])[H])C([H])([H])C4([H])[H])c(C4([H])C([H])([H])C4([H])[H])c3[H])c([H])c([H])c2C1([H])[H]

>  <smiles>  (65) 
[H]c1c([H])c([H])c2c(c1[H])C([H])([H])C([H])([H])C([H])([H])C2([H])N([H])C(=O)C1([H])N(C(=O)C([H])(N([H])C(=O)C([H])(N([H])C([H])([H])[H])C([H])([H])[H])C(C([H])([H])[H])(C([H])([H])[H])C([H])([H])[H])C([H])([H])c2c([H])c(OC([H])([H])c3nnc(N4C([H])([H])C([H])([H])N(C(=O)N5C([H])([H])C([H])([H])C([H])([H])C([H])(n6nc(-c7c([H])c([H])c(Oc8c([H])c([H])c(F)c([H])c8F)c([H])c7[H])c(C(=O)N([H])[H])c6N([H])[H])C5([H])[H])C([H])([H])C4([H])[H])c(C4([H])C([H])([H])C4([H])[H])c3[H])c([H])c([H])c2C1([H])[H]

$$$$
65:0:0
     RDKit          3D

 88 97  0  0  1  0  0  0  0  0999 V2000
  -30.4620  -22.6680   20.4500 C   0  0  0  0  0  2  0  0  0  0  0  0
  -30.4060  -21.7310   19.2320 C   0  0  0  0  0  2  0  0  0  0  0  0
  -28.9390  -22.6430   20.4670 C   0  0  0  0  0  3  0  0  0  0  0  0
  -29.1750  -21.1240   19.7420 N   0  0  2  0  0  4  0  0  0  0  0  0
  -28.5220  -21.0330   18.9790 H   0  0  0  0  0  0  0  0  0  0  0  0
  -30.5550  -15.3380   19.8570 C   0  0  0  0  0  0  0  0  0  0  0  0
  -30.4160  -12.8960   18.9450 C   0  0  0  0  0  2  0  0  0  0  0  0
  -29.4200  -12.6990   17.7740 C   0  0  0  0  0  2  0  0  0  0  0  0
  -28.0050  -12.4220   18.3070 C   0  0  0  0  0  2  0  0  0  0  0  0
  -27.6370  -13.3670   19.4790 C   0  0  0  0  0  3  0  0  0  0  0  0
  -28.7620  -13.5100   20.5290 C   0  0  0  0  0  2  0  0  0  0  0  0
  -29.9380  -14.0430   19.8150 N   0  0  0  0  0  0  0  0  0  0  0  0
  -31.7400  -15.2760   19.4900 O   0  0  0  0  0  0  0  0  0  0  0  0
  -28.2880  -18.6190   20.6810 C   0  0  0  0  0  2  0  0  0  0  0  0
  -28.7560  -17.0820   20.8700 C   0  0  0  0  0  2  0  0  0  0  0  0
  -30.2480  -18.2110   19.5590 C   0  0  0  0  0  2  0  0  0  0  0  0
  -29.4770  -19.5600   20.3260 C   0  0  0  0  0  3  0  0  0  0  0  0
  -29.9010  -16.6890   20.0050 N   0  0  0  0  0  0  0  0  0  0  0  0
  -25.3330  -13.9160   20.4200 C   0  0  0  0  0  0  0  0  0  0  0  0
  -24.2920  -13.1390   20.8420 C   0  0  0  0  0  0  0  0  0  0  0  0
  -24.7380  -11.7860   20.7270 C   0  0  0  0  0  0  0  0  0  0  0  0
  -26.3450  -13.0420   20.0730 N   0  0  0  0  0  0  0  0  0  0  0  0
  -26.0030  -11.7500   20.3230 N   0  0  0  0  0  0  0  0  0  0  0  0
  -24.0050  -10.5280   20.9220 C   0  0  0  0  0  0  0  0  0  0  0  0
  -24.4500   -9.5460   21.8350 C   0  0  0  0  0  3  0  0  0  0  0  0
  -23.7150   -8.3550   22.0220 C   0  0  0  0  0  3  0  0  0  0  0  0
  -22.5210   -8.1360   21.2960 C   0  0  0  0  0  0  0  0  0  0  0  0
  -22.0940   -9.1060   20.3720 C   0  0  0  0  0  3  0  0  0  0  0  0
  -22.8290  -10.2870   20.1830 C   0  0  0  0  0  3  0  0  0  0  0  0
  -21.7550   -6.9980   21.3930 O   0  0  0  0  0  0  0  0  0  0  0  0
  -21.6850   -6.2770   22.5580 C   0  0  0  0  0  0  0  0  0  0  0  0
  -21.2270   -6.8500   23.7640 C   0  0  0  0  0  3  0  0  0  0  0  0
  -21.1050   -6.0540   24.9200 C   0  0  0  0  0  3  0  0  0  0  0  0
  -21.4290   -4.6850   24.8710 C   0  0  0  0  0  0  0  0  0  0  0  0
  -21.8780   -4.1100   23.6700 C   0  0  0  0  0  3  0  0  0  0  0  0
  -22.0030   -4.9040   22.5160 C   0  0  0  0  0  0  0  0  0  0  0  0
  -22.4180   -4.3410   21.3560 F   0  0  0  0  0  0  0  0  0  0  0  0
  -21.3030   -3.9180   25.9790 F   0  0  0  0  0  0  0  0  0  0  0  0
  -22.9260  -13.6250   21.2250 C   0  0  0  0  0  0  0  0  0  0  0  0
  -22.2490  -12.9110   22.1180 N   0  0  0  0  0  0  0  0  0  0  0  0
  -22.4720  -14.6740   20.7720 O   0  0  0  0  0  0  0  0  0  0  0  0
  -22.6320  -12.0620   22.5070 H   0  0  0  0  0  0  0  0  0  0  0  0
  -21.3330  -13.2200   22.4150 H   0  0  0  0  0  0  0  0  0  0  0  0
  -25.4890  -15.2910   20.2680 N   0  0  0  0  0  0  0  0  0  0  0  0
  -24.7220  -15.9340   20.4240 H   0  0  0  0  0  0  0  0  0  0  0  0
  -26.2880  -15.7250   19.8260 H   0  0  0  0  0  0  0  0  0  0  0  0
  -28.1380  -24.1750   19.8840 C   0  0  0  0  0  2  0  0  0  0  0  0
  -28.2490  -25.8010   20.2370 O   0  0  0  0  0  0  0  0  0  0  0  0
  -24.6520  -31.8050   23.0940 C   0  0  0  0  0  0  0  0  0  0  0  0
  -27.2350  -26.9000   20.1230 C   0  0  0  0  0  0  0  0  0  0  0  0
  -23.4670  -30.3930   21.4630 C   0  0  0  0  0  3  0  0  0  0  0  0
  -24.9250  -28.7800   20.0520 C   0  0  0  0  0  0  0  0  0  0  0  0
  -26.0320  -30.6100   21.3210 C   0  0  0  0  0  2  0  0  0  0  0  0
  -26.1100  -29.1920   20.6750 C   0  0  0  0  0  0  0  0  0  0  0  0
  -27.2550  -28.2730   20.6870 C   0  0  0  0  0  3  0  0  0  0  0  0
  -26.0210  -26.6470   19.4410 C   0  0  0  0  0  3  0  0  0  0  0  0
  -24.9090  -27.5300   19.4130 C   0  0  0  0  0  3  0  0  0  0  0  0
  -23.7020  -29.6970   20.0930 C   0  0  0  0  0  2  0  0  0  0  0  0
  -24.7380  -30.9640   22.0130 N   0  0  0  0  0  0  0  0  0  0  0  0
  -23.5610  -32.0940   23.6120 O   0  0  0  0  0  0  0  0  0  0  0  0
  -22.7730  -29.4030   22.4360 C   0  0  0  0  0  0  0  0  0  0  0  0
  -21.4380  -29.2600   22.3340 N   0  0  0  0  0  0  0  0  0  0  0  0
  -23.4430  -28.7640   23.2500 O   0  0  0  0  0  0  0  0  0  0  0  0
  -20.9520  -29.8250   21.6530 H   0  0  0  0  0  0  0  0  0  0  0  0
  -18.0450  -28.1110   22.9100 C   0  0  0  0  0  0  0  0  0  0  0  0
  -20.6160  -28.3290   23.1140 C   0  0  0  0  0  3  0  0  0  0  0  0
  -20.6760  -26.9020   22.5210 C   0  0  0  0  0  2  0  0  0  0  0  0
  -19.5450  -26.6110   21.5300 C   0  0  0  0  0  2  0  0  0  0  0  0
  -18.1820  -26.7690   22.2100 C   0  0  0  0  0  2  0  0  0  0  0  0
  -19.1860  -28.8500   23.3200 C   0  0  0  0  0  0  0  0  0  0  0  0
  -19.0010  -30.1050   23.9400 C   0  0  0  0  0  3  0  0  0  0  0  0
  -17.7080  -30.6210   24.1500 C   0  0  0  0  0  3  0  0  0  0  0  0
  -16.5820  -29.8800   23.7530 C   0  0  0  0  0  3  0  0  0  0  0  0
  -16.7510  -28.6250   23.1390 C   0  0  0  0  0  3  0  0  0  0  0  0
  -25.9190  -32.4580   23.7260 C   0  0  0  0  0  3  0  0  0  0  0  0
  -25.5850  -33.8480   24.0840 N   0  0  0  0  0  0  0  0  0  0  0  0
  -25.9030  -34.9270   23.3550 C   0  0  0  0  0  0  0  0  0  0  0  0
  -26.5700  -34.8560   22.3190 O   0  0  0  0  0  0  0  0  0  0  0  0
  -24.9870  -33.9750   24.8870 H   0  0  0  0  0  0  0  0  0  0  0  0
  -24.1590  -36.7200   23.0530 C   0  0  0  0  0  1  0  0  0  0  0  0
  -25.4060  -36.3010   23.8500 C   0  0  0  0  0  3  0  0  0  0  0  0
  -27.5290  -37.1920   24.7080 C   0  0  0  0  0  1  0  0  0  0  0  0
  -26.4300  -37.3660   23.7600 N   0  0  0  0  0  0  0  0  0  0  0  0
  -26.0150  -38.2800   23.9190 H   0  0  0  0  0  0  0  0  0  0  0  0
  -26.4450  -31.6830   24.9990 C   0  0  1  0  0  0  0  0  0  0  0  0
  -25.3540  -31.4260   26.0660 C   0  0  0  0  0  1  0  0  0  0  0  0
  -27.0430  -30.3150   24.6050 C   0  0  0  0  0  1  0  0  0  0  0  0
  -27.5870  -32.4860   25.6660 C   0  0  0  0  0  1  0  0  0  0  0  0
  1  3  1  0
  2  4  1  0
  2  1  1  0
  3 47  1  0
  4  5  1  6
  4 17  1  0
  4  3  1  0
  6 18  1  0
  7 12  1  0
  8  9  1  0
  8  7  1  0
 10  9  1  0
 10 22  1  0
 10 11  1  0
 12  6  1  0
 12 11  1  0
 13  6  2  0
 14 15  1  0
 16 18  1  0
 17 16  1  0
 17 14  1  0
 18 15  1  0
 19 20  2  0
 20 39  1  0
 21 20  1  0
 21 24  1  0
 22 23  1  0
 22 19  1  0
 23 21  2  0
 24 25  1  0
 25 26  2  0
 27 30  1  0
 27 26  1  0
 28 27  2  0
 29 28  1  0
 29 24  2  0
 30 31  1  0
 31 32  1  0
 32 33  2  0
 34 33  1  0
 34 38  1  0
 35 34  2  0
 36 31  2  0
 36 35  1  0
 37 36  1  0
 39 40  1  0
 40 43  1  0
 40 42  1  0
 41 39  2  0
 44 19  1  0
 44 45  1  0
 46 44  1  0
 47 48  1  0
 49 60  2  0
 50 48  1  0
 50 55  1  0
 51 59  1  0
 51 61  1  0
 52 58  1  0
 52 54  1  0
 53 59  1  0
 54 55  2  0
 54 53  1  0
 56 50  2  0
 57 56  1  0
 57 52  2  0
 58 51  1  0
 59 49  1  0
 61 63  2  0
 62 61  1  0
 64 62  1  0
 65 74  2  0
 65 70  1  0
 66 62  1  0
 66 70  1  0
 67 66  1  0
 68 69  1  0
 68 67  1  0
 69 65  1  0
 70 71  2  0
 71 72  1  0
 73 72  2  0
 74 73  1  0
 75 49  1  0
 75 76  1  0
 75 85  1  0
 76 79  1  0
 77 81  1  0
 77 76  1  0
 78 77  2  0
 81 80  1  0
 83 81  1  0
 83 84  1  0
 83 82  1  0
 85 88  1  1
 85 86  1  0
 87 85  1  0
M  ISO  4   6 100  18 100  47 101  48 101
M  END
>  <TORSDO>  (66) 
F 17

>  <SCORE>  (66) 
-16.282

>  <name>  (66) 
65

>  <ligand_id>  (66) 
65

>  <original_smiles>  (66) 
[H]c1c([H])c([H])c2c(c1[H])C([H])([H])C([H])([H])C([H])([H])C2([H])N([H])C(=O)C1([H])N(C(=O)C([H])(N([H])C(=O)C([H])(N([H])C([H])([H])[H])C([H])([H])[H])C(C([H])([H])[H])(C([H])([H])[H])C([H])([H])[H])C([H])([H])c2c([H])c(OC([H])([H])C3([H])C([H])([H])C([H])([H])[N+]3([H])C3([H])C([H])([H])N(C(=O)N4C([H])([H])C([H])([H])C([H])([H])C([H])(n5nc(-c6c([H])c([H])c(Oc7c([H])c([H])c(F)c([H])c7F)c([H])c6[H])c(C(=O)N([H])[H])c5N([H])[H])C4([H])[H])C([H])([H])C3([H])[H])c([H])c([H])c2C1([H])[H]

>  <smiles>  (66) 
[H]c1c([H])c([H])c2c(c1[H])C([H])([H])C([H])([H])C([H])([H])C2([H])N([H])C(=O)C1([H])N(C(=O)C([H])(N([H])C(=O)C([H])(N([H])C([H])([H])[H])C([H])([H])[H])C(C([H])([H])[H])(C([H])([H])[H])C([H])([H])[H])C([H])([H])c2c([H])c(OC([H])([H])C3([H])C([H])([H])C([H])([H])[N+]3([H])C3([H])C([H])([H])N(C(=O)N4C([H])([H])C([H])([H])C([H])([H])C([H])(n5nc(-c6c([H])c([H])c(Oc7c([H])c([H])c(F)c([H])c7F)c([H])c6[H])c(C(=O)N([H])[H])c5N([H])[H])C4([H])[H])C([H])([H])C3([H])[H])c([H])c([H])c2C1([H])[H]

$$$$
66:0:0
     RDKit          3D

 91100  0  0  1  0  0  0  0  0999 V2000
  -30.5780  -14.9060   20.2960 C   0  0  0  0  0  0  0  0  0  0  0  0
  -30.4180  -12.5220   19.4680 C   0  0  0  0  0  2  0  0  0  0  0  0
  -29.5130  -12.4300   18.2210 C   0  0  0  0  0  2  0  0  0  0  0  0
  -28.0420  -12.2450   18.6380 C   0  0  0  0  0  2  0  0  0  0  0  0
  -27.6170  -13.2270   19.7640 C   0  0  0  0  0  3  0  0  0  0  0  0
  -28.6540  -13.3090   20.9040 C   0  0  0  0  0  2  0  0  0  0  0  0
  -29.9340  -13.6710   20.2880 N   0  0  0  0  0  0  0  0  0  0  0  0
  -31.7840  -14.8980   20.0190 O   0  0  0  0  0  0  0  0  0  0  0  0
  -28.4750  -21.8940   19.6950 C   0  0  0  0  0  3  0  0  0  0  0  0
  -28.8120  -23.3220   19.8380 C   0  0  0  0  0  0  0  0  0  0  0  0
  -29.3940  -20.8280   20.0910 C   0  0  0  0  0  0  0  0  0  0  0  0
  -30.8220  -22.5600   20.6890 C   0  0  0  0  0  0  0  0  0  0  0  0
  -30.1660  -18.6240   19.1170 C   0  0  0  0  0  2  0  0  0  0  0  0
  -29.3470  -18.5560   21.2710 C   0  0  0  0  0  2  0  0  0  0  0  0
  -29.9930  -17.0320   18.9560 C   0  0  0  0  0  2  0  0  0  0  0  0
  -29.1710  -16.9410   21.2180 C   0  0  0  0  0  2  0  0  0  0  0  0
  -32.1790  -22.9270   21.2450 C   0  0  0  0  0  1  0  0  0  0  0  0
  -30.0300  -23.5820   20.3530 N   0  0  0  0  0  0  0  0  0  0  0  0
  -30.5690  -21.2490   20.5880 N   0  0  0  0  0  0  0  0  0  0  0  0
  -29.2260  -19.3520   20.0110 N   0  0  0  0  0  0  0  0  0  0  0  0
  -29.8640  -16.1340   20.1570 N   0  0  0  0  0  0  0  0  0  0  0  0
  -25.2400  -13.8330   20.4850 C   0  0  0  0  0  0  0  0  0  0  0  0
  -24.1640  -13.0710   20.8470 C   0  0  0  0  0  0  0  0  0  0  0  0
  -24.6130  -11.7160   20.8260 C   0  0  0  0  0  0  0  0  0  0  0  0
  -26.2740  -12.9430   20.2560 N   0  0  0  0  0  0  0  0  0  0  0  0
  -25.9060  -11.6630   20.5270 N   0  0  0  0  0  0  0  0  0  0  0  0
  -23.8700  -10.4620   21.0140 C   0  0  0  0  0  0  0  0  0  0  0  0
  -24.2760   -9.4960   21.9620 C   0  0  0  0  0  3  0  0  0  0  0  0
  -23.5330   -8.3090   22.1390 C   0  0  0  0  0  3  0  0  0  0  0  0
  -22.3690   -8.0790   21.3680 C   0  0  0  0  0  0  0  0  0  0  0  0
  -21.9810   -9.0330   20.4100 C   0  0  0  0  0  3  0  0  0  0  0  0
  -22.7250  -10.2110   20.2310 C   0  0  0  0  0  3  0  0  0  0  0  0
  -21.5990   -6.9440   21.4540 O   0  0  0  0  0  0  0  0  0  0  0  0
  -21.5080   -6.2220   22.6160 C   0  0  0  0  0  0  0  0  0  0  0  0
  -21.0560   -6.8020   23.8210 C   0  0  0  0  0  3  0  0  0  0  0  0
  -20.9130   -6.0060   24.9750 C   0  0  0  0  0  3  0  0  0  0  0  0
  -21.2110   -4.6320   24.9250 C   0  0  0  0  0  0  0  0  0  0  0  0
  -21.6540   -4.0510   23.7240 C   0  0  0  0  0  3  0  0  0  0  0  0
  -21.7990   -4.8430   22.5730 C   0  0  0  0  0  0  0  0  0  0  0  0
  -22.2080   -4.2740   21.4130 F   0  0  0  0  0  0  0  0  0  0  0  0
  -21.0650   -3.8650   26.0310 F   0  0  0  0  0  0  0  0  0  0  0  0
  -22.7700  -13.5660   21.1030 C   0  0  0  0  0  0  0  0  0  0  0  0
  -22.0280  -12.8870   21.9700 N   0  0  0  0  0  0  0  0  0  0  0  0
  -22.3480  -14.5910   20.5680 O   0  0  0  0  0  0  0  0  0  0  0  0
  -22.3810  -12.0600   22.4260 H   0  0  0  0  0  0  0  0  0  0  0  0
  -21.0910  -13.2020   22.1810 H   0  0  0  0  0  0  0  0  0  0  0  0
  -25.4210  -15.2010   20.3030 N   0  0  0  0  0  0  0  0  0  0  0  0
  -24.6640  -15.8660   20.4120 H   0  0  0  0  0  0  0  0  0  0  0  0
  -26.2820  -15.6270   19.9810 H   0  0  0  0  0  0  0  0  0  0  0  0
  -27.8810  -24.6170   19.4510 C   0  0  0  0  0  2  0  0  0  0  0  0
  -28.2020  -26.1220   19.6850 O   0  0  0  0  0  0  0  0  0  0  0  0
  -24.4810  -31.5570   22.9860 C   0  0  0  0  0  0  0  0  0  0  0  0
  -27.1360  -27.0910   19.6700 C   0  0  0  0  0  0  0  0  0  0  0  0
  -23.2980  -30.2240   21.2850 C   0  0  0  0  0  3  0  0  0  0  0  0
  -24.7690  -28.7740   19.7590 C   0  0  0  0  0  0  0  0  0  0  0  0
  -25.8440  -30.5640   21.1110 C   0  0  0  0  0  2  0  0  0  0  0  0
  -25.9440  -29.2140   20.3810 C   0  0  0  0  0  0  0  0  0  0  0  0
  -27.1290  -28.3900   20.3230 C   0  0  0  0  0  3  0  0  0  0  0  0
  -25.9310  -26.7590   19.0090 C   0  0  0  0  0  3  0  0  0  0  0  0
  -24.7740  -27.5610   19.0600 C   0  0  0  0  0  3  0  0  0  0  0  0
  -23.5210  -29.6340   19.8680 C   0  0  0  0  0  2  0  0  0  0  0  0
  -24.5610  -30.8000   21.8500 N   0  0  0  0  0  0  0  0  0  0  0  0
  -23.3930  -31.7850   23.5380 O   0  0  0  0  0  0  0  0  0  0  0  0
  -22.6570  -29.1450   22.1940 C   0  0  0  0  0  0  0  0  0  0  0  0
  -21.3290  -28.9630   22.0860 N   0  0  0  0  0  0  0  0  0  0  0  0
  -23.3560  -28.4800   22.9620 O   0  0  0  0  0  0  0  0  0  0  0  0
  -20.8220  -29.5560   21.4430 H   0  0  0  0  0  0  0  0  0  0  0  0
  -17.9720  -27.7010   22.5990 C   0  0  0  0  0  0  0  0  0  0  0  0
  -20.5360  -27.9700   22.8140 C   0  0  0  0  0  3  0  0  0  0  0  0
  -20.6330  -26.5800   22.1440 C   0  0  0  0  0  2  0  0  0  0  0  0
  -19.5060  -26.3120   21.1420 C   0  0  0  0  0  2  0  0  0  0  0  0
  -18.1410  -26.4010   21.8300 C   0  0  0  0  0  2  0  0  0  0  0  0
  -19.0960  -28.4450   23.0470 C   0  0  0  0  0  0  0  0  0  0  0  0
  -18.8820  -29.6620   23.7300 C   0  0  0  0  0  3  0  0  0  0  0  0
  -17.5770  -30.1360   23.9660 C   0  0  0  0  0  3  0  0  0  0  0  0
  -16.4680  -29.3880   23.5320 C   0  0  0  0  0  3  0  0  0  0  0  0
  -16.6670  -28.1720   22.8530 C   0  0  0  0  0  3  0  0  0  0  0  0
  -25.7490  -32.1890   23.6350 C   0  0  0  0  0  3  0  0  0  0  0  0
  -25.3990  -33.5530   24.0630 N   0  0  0  0  0  0  0  0  0  0  0  0
  -25.6950  -34.6670   23.3810 C   0  0  0  0  0  0  0  0  0  0  0  0
  -26.3600  -34.6570   22.3410 O   0  0  0  0  0  0  0  0  0  0  0  0
  -24.8050  -33.6310   24.8750 H   0  0  0  0  0  0  0  0  0  0  0  0
  -23.9180  -36.4380   23.1690 C   0  0  0  0  0  1  0  0  0  0  0  0
  -25.1750  -36.0070   23.9410 C   0  0  0  0  0  3  0  0  0  0  0  0
  -27.2920  -36.8880   24.8210 C   0  0  0  0  0  1  0  0  0  0  0  0
  -26.1780  -37.0940   23.8990 N   0  0  0  0  0  0  0  0  0  0  0  0
  -25.7490  -37.9890   24.1150 H   0  0  0  0  0  0  0  0  0  0  0  0
  -26.3010  -31.3550   24.8550 C   0  0  1  0  0  0  0  0  0  0  0  0
  -25.2310  -31.0290   25.9240 C   0  0  0  0  0  1  0  0  0  0  0  0
  -26.9090  -30.0160   24.3760 C   0  0  0  0  0  1  0  0  0  0  0  0
  -27.4450  -32.1340   25.5470 C   0  0  0  0  0  1  0  0  0  0  0  0
  2  7  1  0
  3  4  1  0
  3  2  1  0
  5  4  1  0
  5 25  1  0
  5  6  1  0
  7  1  1  0
  7  6  1  0
  8  1  2  0
  9 10  2  0
  9 11  1  0
 10 18  1  0
 11 19  2  0
 12 17  1  0
 13 20  1  0
 15 13  1  0
 15 21  1  0
 16 14  1  0
 18 12  2  0
 19 12  1  0
 20 11  1  0
 20 14  1  0
 21  1  1  0
 21 16  1  0
 22 23  2  0
 23 42  1  0
 24 23  1  0
 24 27  1  0
 25 22  1  0
 25 26  1  0
 26 24  2  0
 27 28  1  0
 28 29  2  0
 30 33  1  0
 30 29  1  0
 31 30  2  0
 32 31  1  0
 32 27  2  0
 33 34  1  0
 34 35  1  0
 35 36  2  0
 37 36  1  0
 37 41  1  0
 38 37  2  0
 39 34  2  0
 39 38  1  0
 40 39  1  0
 42 43  1  0
 43 46  1  0
 43 45  1  0
 44 42  2  0
 47 48  1  0
 47 22  1  0
 49 47  1  0
 50 51  1  0
 50 10  1  0
 52 63  2  0
 53 51  1  0
 53 58  1  0
 54 62  1  0
 54 64  1  0
 55 61  1  0
 55 57  1  0
 56 62  1  0
 57 56  1  0
 58 57  2  0
 59 60  1  0
 59 53  2  0
 60 55  2  0
 61 54  1  0
 62 52  1  0
 64 66  2  0
 65 64  1  0
 67 65  1  0
 68 77  2  0
 68 73  1  0
 69 65  1  0
 69 73  1  0
 70 69  1  0
 71 72  1  0
 71 70  1  0
 72 68  1  0
 73 74  2  0
 74 75  1  0
 76 75  2  0
 77 76  1  0
 78 52  1  0
 78 79  1  0
 78 88  1  0
 79 82  1  0
 80 84  1  0
 80 79  1  0
 81 80  2  0
 84 83  1  0
 86 84  1  0
 86 87  1  0
 86 85  1  0
 88 91  1  1
 88 89  1  0
 90 88  1  0
M  ISO  4   1 100  21 100  50 101  51 101
M  END
>  <TORSDO>  (67) 
F 16

>  <SCORE>  (67) 
-13.898

>  <name>  (67) 
66

>  <ligand_id>  (67) 
66

>  <original_smiles>  (67) 
[H]c1c(N2C([H])([H])C([H])([H])N(C(=O)N3C([H])([H])C([H])([H])C([H])([H])C([H])(n4nc(-c5c([H])c([H])c(Oc6c([H])c([H])c(F)c([H])c6F)c([H])c5[H])c(C(=O)N([H])[H])c4N([H])[H])C3([H])[H])C([H])([H])C2([H])[H])nc(C([H])([H])[H])nc1C([H])([H])Oc1c([H])c([H])c2c(c1[H])C([H])([H])N(C(=O)C([H])(N([H])C(=O)C([H])(N([H])C([H])([H])[H])C([H])([H])[H])C(C([H])([H])[H])(C([H])([H])[H])C([H])([H])[H])C([H])(C(=O)N([H])C1([H])c3c([H])c([H])c([H])c([H])c3C([H])([H])C([H])([H])C1([H])[H])C2([H])[H]

>  <smiles>  (67) 
[H]c1c(N2C([H])([H])C([H])([H])N(C(=O)N3C([H])([H])C([H])([H])C([H])([H])C([H])(n4nc(-c5c([H])c([H])c(Oc6c([H])c([H])c(F)c([H])c6F)c([H])c5[H])c(C(=O)N([H])[H])c4N([H])[H])C3([H])[H])C([H])([H])C2([H])[H])nc(C([H])([H])[H])nc1C([H])([H])Oc1c([H])c([H])c2c(c1[H])C([H])([H])N(C(=O)C([H])(N([H])C(=O)C([H])(N([H])C([H])([H])[H])C([H])([H])[H])C(C([H])([H])[H])(C([H])([H])[H])C([H])([H])[H])C([H])(C(=O)N([H])C1([H])c3c([H])c([H])c([H])c([H])c3C([H])([H])C([H])([H])C1([H])[H])C2([H])[H]

$$$$
67:0:0
     RDKit          3D

 90 99  0  0  1  0  0  0  0  0999 V2000
  -30.6750  -14.8670   20.4360 C   0  0  0  0  0  0  0  0  0  0  0  0
  -30.3710  -12.5750   19.4520 C   0  0  0  0  0  2  0  0  0  0  0  0
  -29.4700  -12.5730   18.2020 C   0  0  0  0  0  2  0  0  0  0  0  0
  -28.0020  -12.3850   18.6190 C   0  0  0  0  0  2  0  0  0  0  0  0
  -27.5950  -13.3220   19.7850 C   0  0  0  0  0  3  0  0  0  0  0  0
  -28.6370  -13.3490   20.9280 C   0  0  0  0  0  2  0  0  0  0  0  0
  -29.9260  -13.7020   20.3240 N   0  0  0  0  0  0  0  0  0  0  0  0
  -31.8810  -14.7550   20.1930 O   0  0  0  0  0  0  0  0  0  0  0  0
  -29.9500  -23.0120   20.5970 C   0  0  0  0  0  2  0  0  0  0  0  0
  -28.7150  -23.5510   20.1280 C   0  0  0  0  0  0  0  0  0  0  0  0
  -29.1870  -20.7880   20.4500 C   0  0  0  0  0  0  0  0  0  0  0  0
  -30.7110  -18.7520   20.9980 C   0  0  0  0  0  3  0  0  0  0  0  0
  -28.4790  -18.2490   20.2300 C   0  0  0  0  0  3  0  0  0  0  0  0
  -31.0940  -17.3580   20.3420 C   0  0  0  0  0  3  0  0  0  0  0  0
  -28.8010  -16.7630   20.7870 C   0  0  0  0  0  3  0  0  0  0  0  0
  -30.1730  -21.6550   20.7600 N   0  0  0  0  0  0  0  0  0  0  0  0
  -27.7590  -22.5960   19.8630 N   0  0  0  0  0  0  0  0  0  0  0  0
  -27.9830  -21.2500   20.0270 N   0  0  0  0  0  2  0  0  0  0  0  0
  -29.4380  -19.3450   20.5460 N   0  0  0  0  0  0  0  0  0  0  0  0
  -30.1620  -16.1910   20.5300 N   0  0  0  0  0  0  0  0  0  0  0  0
  -25.2080  -13.9240   20.4820 C   0  0  0  0  0  0  0  0  0  0  0  0
  -24.1350  -13.1560   20.8420 C   0  0  0  0  0  0  0  0  0  0  0  0
  -24.5960  -11.8040   20.8340 C   0  0  0  0  0  0  0  0  0  0  0  0
  -26.2510  -13.0390   20.2720 N   0  0  0  0  0  0  0  0  0  0  0  0
  -25.8920  -11.7600   20.5510 N   0  0  0  0  0  0  0  0  0  0  0  0
  -23.8610  -10.5460   21.0210 C   0  0  0  0  0  0  0  0  0  0  0  0
  -24.2780   -9.5800   21.9610 C   0  0  0  0  0  3  0  0  0  0  0  0
  -23.5430   -8.3870   22.1350 C   0  0  0  0  0  3  0  0  0  0  0  0
  -22.3760   -8.1540   21.3690 C   0  0  0  0  0  0  0  0  0  0  0  0
  -21.9790   -9.1100   20.4170 C   0  0  0  0  0  3  0  0  0  0  0  0
  -22.7150  -10.2940   20.2410 C   0  0  0  0  0  3  0  0  0  0  0  0
  -21.6140   -7.0150   21.4520 O   0  0  0  0  0  0  0  0  0  0  0  0
  -21.5520   -6.2730   22.6050 C   0  0  0  0  0  0  0  0  0  0  0  0
  -21.1320   -6.8350   23.8300 C   0  0  0  0  0  3  0  0  0  0  0  0
  -21.0170   -6.0210   24.9750 C   0  0  0  0  0  3  0  0  0  0  0  0
  -21.3110   -4.6460   24.8950 C   0  0  0  0  0  0  0  0  0  0  0  0
  -21.7250   -4.0840   23.6740 C   0  0  0  0  0  3  0  0  0  0  0  0
  -21.8420   -4.8960   22.5320 C   0  0  0  0  0  0  0  0  0  0  0  0
  -22.2200   -4.3460   21.3530 F   0  0  0  0  0  0  0  0  0  0  0  0
  -21.1940   -3.8620   25.9920 F   0  0  0  0  0  0  0  0  0  0  0  0
  -22.7350  -13.6420   21.0760 C   0  0  0  0  0  0  0  0  0  0  0  0
  -21.9870  -12.9610   21.9370 N   0  0  0  0  0  0  0  0  0  0  0  0
  -22.3110  -14.6600   20.5310 O   0  0  0  0  0  0  0  0  0  0  0  0
  -22.3420  -12.1380   22.4000 H   0  0  0  0  0  0  0  0  0  0  0  0
  -21.0450  -13.2690   22.1370 H   0  0  0  0  0  0  0  0  0  0  0  0
  -25.3730  -15.2910   20.2890 N   0  0  0  0  0  0  0  0  0  0  0  0
  -24.5990  -15.9400   20.3690 H   0  0  0  0  0  0  0  0  0  0  0  0
  -26.2140  -15.7200   19.9270 H   0  0  0  0  0  0  0  0  0  0  0  0
  -28.5160  -25.0520   19.5420 C   0  0  0  0  0  2  0  0  0  0  0  0
  -28.3940  -26.3510   20.3260 O   0  0  0  0  0  0  0  0  0  0  0  0
  -24.6480  -31.8850   23.2410 C   0  0  0  0  0  0  0  0  0  0  0  0
  -27.2990  -27.2590   20.2120 C   0  0  0  0  0  0  0  0  0  0  0  0
  -23.4710  -30.4780   21.5930 C   0  0  0  0  0  3  0  0  0  0  0  0
  -24.9410  -28.9310   20.1750 C   0  0  0  0  0  0  0  0  0  0  0  0
  -26.0180  -30.7870   21.4410 C   0  0  0  0  0  2  0  0  0  0  0  0
  -26.1080  -29.4020   20.7890 C   0  0  0  0  0  0  0  0  0  0  0  0
  -27.2850  -28.5780   20.7980 C   0  0  0  0  0  3  0  0  0  0  0  0
  -26.0970  -26.8640   19.5790 C   0  0  0  0  0  3  0  0  0  0  0  0
  -24.9440  -27.6720   19.5600 C   0  0  0  0  0  3  0  0  0  0  0  0
  -23.7020  -29.8080   20.2150 C   0  0  0  0  0  2  0  0  0  0  0  0
  -24.7310  -31.0700   22.1480 N   0  0  0  0  0  0  0  0  0  0  0  0
  -23.5570  -32.1580   23.7640 O   0  0  0  0  0  0  0  0  0  0  0  0
  -22.8010  -29.4600   22.5500 C   0  0  0  0  0  0  0  0  0  0  0  0
  -21.4730  -29.2880   22.4230 N   0  0  0  0  0  0  0  0  0  0  0  0
  -23.4760  -28.8280   23.3660 O   0  0  0  0  0  0  0  0  0  0  0  0
  -20.9860  -29.8480   21.7380 H   0  0  0  0  0  0  0  0  0  0  0  0
  -18.0920  -28.0970   22.9290 C   0  0  0  0  0  0  0  0  0  0  0  0
  -20.6520  -28.3480   23.1900 C   0  0  0  0  0  3  0  0  0  0  0  0
  -20.7470  -26.9190   22.6060 C   0  0  0  0  0  2  0  0  0  0  0  0
  -19.6410  -26.6070   21.5930 C   0  0  0  0  0  2  0  0  0  0  0  0
  -18.2620  -26.7520   22.2430 C   0  0  0  0  0  2  0  0  0  0  0  0
  -19.2140  -28.8530   23.3600 C   0  0  0  0  0  0  0  0  0  0  0  0
  -19.0000  -30.1110   23.9620 C   0  0  0  0  0  3  0  0  0  0  0  0
  -17.6970  -30.6140   24.1380 C   0  0  0  0  0  3  0  0  0  0  0  0
  -16.5900  -29.8550   23.7220 C   0  0  0  0  0  3  0  0  0  0  0  0
  -16.7870  -28.5980   23.1230 C   0  0  0  0  0  3  0  0  0  0  0  0
  -25.9180  -32.5300   23.8760 C   0  0  0  0  0  3  0  0  0  0  0  0
  -25.5930  -33.9260   24.2030 N   0  0  0  0  0  0  0  0  0  0  0  0
  -25.9120  -34.9830   23.4430 C   0  0  0  0  0  0  0  0  0  0  0  0
  -26.5770  -34.8850   22.4090 O   0  0  0  0  0  0  0  0  0  0  0  0
  -24.9990  -34.0750   25.0050 H   0  0  0  0  0  0  0  0  0  0  0  0
  -24.1570  -36.7550   23.1040 C   0  0  0  0  0  1  0  0  0  0  0  0
  -25.4120  -36.3670   23.9020 C   0  0  0  0  0  3  0  0  0  0  0  0
  -27.5460  -37.2810   24.7040 C   0  0  0  0  0  1  0  0  0  0  0  0
  -26.4310  -37.4330   23.7730 N   0  0  0  0  0  0  0  0  0  0  0  0
  -26.0150  -38.3480   23.9220 H   0  0  0  0  0  0  0  0  0  0  0  0
  -26.4260  -31.7650   25.1600 C   0  0  1  0  0  0  0  0  0  0  0  0
  -25.3240  -31.5260   26.2190 C   0  0  0  0  0  1  0  0  0  0  0  0
  -27.0200  -30.3890   24.7810 C   0  0  0  0  0  1  0  0  0  0  0  0
  -27.5660  -32.5680   25.8290 C   0  0  0  0  0  1  0  0  0  0  0  0
  1 20  1  0
  2  7  1  0
  3  4  1  0
  3  2  1  0
  5  4  1  0
  5 24  1  0
  5  6  1  0
  7  1  1  0
  7  6  1  0
  8  1  2  0
  9 16  1  0
 10  9  1  0
 11 19  1  0
 11 16  2  0
 13 19  1  0
 13 15  2  0
 14 20  1  0
 14 12  2  0
 17 18  1  0
 17 10  2  0
 18 11  1  0
 19 12  1  0
 20 15  1  0
 21 22  2  0
 22 41  1  0
 23 22  1  0
 23 26  1  0
 24 21  1  0
 24 25  1  0
 25 23  2  0
 26 27  1  0
 27 28  2  0
 29 32  1  0
 29 28  1  0
 30 29  2  0
 31 30  1  0
 31 26  2  0
 32 33  1  0
 33 34  1  0
 34 35  2  0
 36 35  1  0
 36 40  1  0
 37 36  2  0
 38 33  2  0
 38 37  1  0
 39 38  1  0
 41 42  1  0
 42 45  1  0
 42 44  1  0
 43 41  2  0
 46 47  1  0
 46 21  1  0
 48 46  1  0
 49 10  1  0
 49 50  1  0
 51 62  2  0
 52 50  1  0
 52 57  1  0
 53 61  1  0
 53 63  1  0
 54 60  1  0
 54 56  1  0
 55 61  1  0
 56 57  2  0
 56 55  1  0
 58 52  2  0
 59 58  1  0
 59 54  2  0
 60 53  1  0
 61 51  1  0
 63 65  2  0
 64 63  1  0
 66 64  1  0
 67 76  2  0
 67 72  1  0
 68 64  1  0
 68 72  1  0
 69 68  1  0
 70 71  1  0
 70 69  1  0
 71 67  1  0
 72 73  2  0
 73 74  1  0
 75 74  2  0
 76 75  1  0
 77 51  1  0
 77 78  1  0
 77 87  1  0
 78 81  1  0
 79 83  1  0
 79 78  1  0
 80 79  2  0
 83 82  1  0
 85 83  1  0
 85 86  1  0
 85 84  1  0
 87 90  1  1
 87 88  1  0
 89 87  1  0
M  ISO  4   1 100  20 100  49 101  50 101
M  END
>  <TORSDO>  (68) 
F 16

>  <SCORE>  (68) 
-15.744

>  <name>  (68) 
67

>  <ligand_id>  (68) 
67

>  <original_smiles>  (68) 
[H]c1nc(N2C([H])([H])C([H])([H])N(C(=O)N3C([H])([H])C([H])([H])C([H])([H])C([H])(n4nc(-c5c([H])c([H])c(Oc6c([H])c([H])c(F)c([H])c6F)c([H])c5[H])c(C(=O)N([H])[H])c4N([H])[H])C3([H])[H])C([H])([H])C2([H])[H])nnc1C([H])([H])Oc1c([H])c([H])c2c(c1[H])C([H])([H])N(C(=O)C([H])(N([H])C(=O)C([H])(N([H])C([H])([H])[H])C([H])([H])[H])C(C([H])([H])[H])(C([H])([H])[H])C([H])([H])[H])C([H])(C(=O)N([H])C1([H])c3c([H])c([H])c([H])c([H])c3C([H])([H])C([H])([H])C1([H])[H])C2([H])[H]

>  <smiles>  (68) 
[H]c1nc(N2C([H])([H])C([H])([H])N(C(=O)N3C([H])([H])C([H])([H])C([H])([H])C([H])(n4nc(-c5c([H])c([H])c(Oc6c([H])c([H])c(F)c([H])c6F)c([H])c5[H])c(C(=O)N([H])[H])c4N([H])[H])C3([H])[H])C([H])([H])C2([H])[H])nnc1C([H])([H])Oc1c([H])c([H])c2c(c1[H])C([H])([H])N(C(=O)C([H])(N([H])C(=O)C([H])(N([H])C([H])([H])[H])C([H])([H])[H])C(C([H])([H])[H])(C([H])([H])[H])C([H])([H])[H])C([H])(C(=O)N([H])C1([H])c3c([H])c([H])c([H])c([H])c3C([H])([H])C([H])([H])C1([H])[H])C2([H])[H]

$$$$
68:0:0
     RDKit          3D

 89 98  0  0  1  0  0  0  0  0999 V2000
  -28.9320  -22.0340   21.2620 C   0  0  0  0  0  3  0  0  0  0  0  0
  -28.5140  -22.8870   20.1890 C   0  0  0  0  0  0  0  0  0  0  0  0
  -28.9620  -20.6090   19.5510 C   0  0  0  0  0  3  0  0  0  0  0  0
  -29.1470  -19.1210   19.0190 C   0  0  0  0  0  2  0  0  0  0  0  0
  -29.5370  -19.2470   21.3650 C   0  0  0  0  0  2  0  0  0  0  0  0
  -29.8420  -18.1670   20.1520 C   0  0  0  0  0  3  0  0  0  0  0  0
  -29.1780  -20.6810   20.8330 N   0  0  0  0  0  0  0  0  0  0  0  0
  -28.5740  -21.8890   19.1520 N   0  0  0  0  0  0  0  0  0  0  0  0
  -28.2920  -22.0860   18.2000 H   0  0  0  0  0  0  0  0  0  0  0  0
  -30.4260  -15.2900   20.0850 C   0  0  0  0  0  0  0  0  0  0  0  0
  -30.3590  -12.8780   19.1690 C   0  0  0  0  0  2  0  0  0  0  0  0
  -29.3850  -12.7220   17.9730 C   0  0  0  0  0  2  0  0  0  0  0  0
  -27.9540  -12.4530   18.4690 C   0  0  0  0  0  2  0  0  0  0  0  0
  -27.5530  -13.3920   19.6340 C   0  0  0  0  0  3  0  0  0  0  0  0
  -28.6470  -13.5000   20.7170 C   0  0  0  0  0  2  0  0  0  0  0  0
  -29.8610  -13.9940   20.0480 N   0  0  0  0  0  0  0  0  0  0  0  0
  -31.6280  -15.3240   19.7880 O   0  0  0  0  0  0  0  0  0  0  0  0
  -29.6470  -16.5230   20.2510 N   0  0  0  0  0  0  0  0  0  0  0  0
  -28.6860  -16.2850   20.4550 H   0  0  0  0  0  0  0  0  0  0  0  0
  -25.2140  -13.9280   20.5020 C   0  0  0  0  0  0  0  0  0  0  0  0
  -24.1710  -13.1390   20.8960 C   0  0  0  0  0  0  0  0  0  0  0  0
  -24.6380  -11.7920   20.8070 C   0  0  0  0  0  0  0  0  0  0  0  0
  -26.2470  -13.0620   20.1900 N   0  0  0  0  0  0  0  0  0  0  0  0
  -25.9150  -11.7700   20.4410 N   0  0  0  0  0  0  0  0  0  0  0  0
  -23.9210  -10.5220   20.9920 C   0  0  0  0  0  0  0  0  0  0  0  0
  -24.3570   -9.5550   21.9240 C   0  0  0  0  0  3  0  0  0  0  0  0
  -23.6360   -8.3530   22.0990 C   0  0  0  0  0  3  0  0  0  0  0  0
  -22.4670   -8.1090   21.3400 C   0  0  0  0  0  0  0  0  0  0  0  0
  -22.0510   -9.0650   20.3960 C   0  0  0  0  0  3  0  0  0  0  0  0
  -22.7720  -10.2580   20.2200 C   0  0  0  0  0  3  0  0  0  0  0  0
  -21.7200   -6.9590   21.4220 O   0  0  0  0  0  0  0  0  0  0  0  0
  -21.6230   -6.2470   22.5910 C   0  0  0  0  0  0  0  0  0  0  0  0
  -21.0930   -6.8160   23.7690 C   0  0  0  0  0  3  0  0  0  0  0  0
  -20.9480   -6.0280   24.9280 C   0  0  0  0  0  3  0  0  0  0  0  0
  -21.3210   -4.6710   24.9090 C   0  0  0  0  0  0  0  0  0  0  0  0
  -21.8430   -4.1010   23.7340 C   0  0  0  0  0  3  0  0  0  0  0  0
  -21.9900   -4.8870   22.5780 C   0  0  0  0  0  0  0  0  0  0  0  0
  -22.4740   -4.3260   21.4430 F   0  0  0  0  0  0  0  0  0  0  0  0
  -21.1740   -3.9110   26.0190 F   0  0  0  0  0  0  0  0  0  0  0  0
  -22.7850  -13.6040   21.2350 C   0  0  0  0  0  0  0  0  0  0  0  0
  -22.0940  -12.8850   22.1110 N   0  0  0  0  0  0  0  0  0  0  0  0
  -22.3270  -14.6430   20.7590 O   0  0  0  0  0  0  0  0  0  0  0  0
  -22.4810  -12.0450   22.5180 H   0  0  0  0  0  0  0  0  0  0  0  0
  -21.1660  -13.1780   22.3820 H   0  0  0  0  0  0  0  0  0  0  0  0
  -25.3640  -15.3050   20.3550 N   0  0  0  0  0  0  0  0  0  0  0  0
  -24.5940  -15.9460   20.5090 H   0  0  0  0  0  0  0  0  0  0  0  0
  -26.1780  -15.7530   19.9550 H   0  0  0  0  0  0  0  0  0  0  0  0
  -27.7630  -24.4350   20.0160 C   0  0  0  0  0  2  0  0  0  0  0  0
  -28.1410  -25.9860   20.3110 O   0  0  0  0  0  0  0  0  0  0  0  0
  -24.6430  -31.9460   23.2670 C   0  0  0  0  0  0  0  0  0  0  0  0
  -27.1550  -27.0920   20.2330 C   0  0  0  0  0  0  0  0  0  0  0  0
  -23.4350  -30.5670   21.6270 C   0  0  0  0  0  3  0  0  0  0  0  0
  -24.8680  -28.9660   20.1960 C   0  0  0  0  0  0  0  0  0  0  0  0
  -26.0010  -30.7670   21.4760 C   0  0  0  0  0  2  0  0  0  0  0  0
  -26.0590  -29.3640   20.8160 C   0  0  0  0  0  0  0  0  0  0  0  0
  -27.1990  -28.4460   20.8150 C   0  0  0  0  0  3  0  0  0  0  0  0
  -25.9360  -26.8420   19.5600 C   0  0  0  0  0  3  0  0  0  0  0  0
  -24.8290  -27.7240   19.5470 C   0  0  0  0  0  3  0  0  0  0  0  0
  -23.6550  -29.8900   20.2470 C   0  0  0  0  0  2  0  0  0  0  0  0
  -24.7140  -31.1190   22.1770 N   0  0  0  0  0  0  0  0  0  0  0  0
  -23.5570  -32.2420   23.7910 O   0  0  0  0  0  0  0  0  0  0  0  0
  -22.7360  -29.5700   22.5890 C   0  0  0  0  0  0  0  0  0  0  0  0
  -21.4070  -29.4020   22.4530 N   0  0  0  0  0  0  0  0  0  0  0  0
  -23.3960  -28.9490   23.4250 O   0  0  0  0  0  0  0  0  0  0  0  0
  -20.9290  -29.9540   21.7540 H   0  0  0  0  0  0  0  0  0  0  0  0
  -18.0210  -28.1980   22.9390 C   0  0  0  0  0  0  0  0  0  0  0  0
  -20.5790  -28.4680   23.2220 C   0  0  0  0  0  3  0  0  0  0  0  0
  -20.6860  -27.0330   22.6560 C   0  0  0  0  0  2  0  0  0  0  0  0
  -19.5920  -26.7040   21.6350 C   0  0  0  0  0  2  0  0  0  0  0  0
  -18.2050  -26.8480   22.2680 C   0  0  0  0  0  2  0  0  0  0  0  0
  -19.1340  -28.9660   23.3730 C   0  0  0  0  0  0  0  0  0  0  0  0
  -18.9070  -30.2270   23.9640 C   0  0  0  0  0  3  0  0  0  0  0  0
  -17.5980  -30.7230   24.1230 C   0  0  0  0  0  3  0  0  0  0  0  0
  -16.5000  -29.9530   23.7030 C   0  0  0  0  0  3  0  0  0  0  0  0
  -16.7110  -28.6930   23.1180 C   0  0  0  0  0  3  0  0  0  0  0  0
  -25.9220  -32.5750   23.8980 C   0  0  0  0  0  3  0  0  0  0  0  0
  -25.6220  -33.9790   24.2260 N   0  0  0  0  0  0  0  0  0  0  0  0
  -25.9330  -35.0310   23.4550 C   0  0  0  0  0  0  0  0  0  0  0  0
  -26.5680  -34.9210   22.4030 O   0  0  0  0  0  0  0  0  0  0  0  0
  -25.0560  -34.1390   25.0460 H   0  0  0  0  0  0  0  0  0  0  0  0
  -24.1870  -36.8230   23.1780 C   0  0  0  0  0  1  0  0  0  0  0  0
  -25.4700  -36.4250   23.9250 C   0  0  0  0  0  3  0  0  0  0  0  0
  -27.6390  -37.3290   24.6410 C   0  0  0  0  0  1  0  0  0  0  0  0
  -26.4930  -37.4790   23.7470 N   0  0  0  0  0  0  0  0  0  0  0  0
  -26.0920  -38.4000   23.8970 H   0  0  0  0  0  0  0  0  0  0  0  0
  -26.4150  -31.8100   25.1890 C   0  0  1  0  0  0  0  0  0  0  0  0
  -25.3090  -31.5920   26.2470 C   0  0  0  0  0  1  0  0  0  0  0  0
  -26.9900  -30.4230   24.8220 C   0  0  0  0  0  1  0  0  0  0  0  0
  -27.5660  -32.5990   25.8560 C   0  0  0  0  0  1  0  0  0  0  0  0
  2  1  2  0
  3  4  1  0
  3  7  1  0
  4  6  1  0
  6 18  1  0
  6  5  1  0
  7  1  1  0
  7  5  1  0
  8  3  1  0
  8  2  1  0
  9  8  1  0
 10 18  1  0
 11 16  1  0
 12 13  1  0
 12 11  1  0
 14 13  1  0
 14 23  1  0
 14 15  1  0
 16 10  1  0
 16 15  1  0
 17 10  2  0
 18 19  1  0
 20 21  2  0
 21 40  1  0
 22 21  1  0
 22 25  1  0
 23 24  1  0
 23 20  1  0
 24 22  2  0
 25 26  1  0
 26 27  2  0
 28 31  1  0
 28 27  1  0
 29 28  2  0
 30 29  1  0
 30 25  2  0
 31 32  1  0
 32 33  1  0
 33 34  2  0
 35 34  1  0
 35 39  1  0
 36 35  2  0
 37 32  2  0
 37 36  1  0
 38 37  1  0
 40 41  1  0
 41 44  1  0
 41 43  1  0
 42 40  2  0
 45 20  1  0
 45 46  1  0
 47 45  1  0
 48  2  1  0
 48 49  1  0
 50 61  2  0
 51 49  1  0
 51 56  1  0
 52 60  1  0
 52 62  1  0
 53 59  1  0
 53 55  1  0
 54 60  1  0
 55 54  1  0
 56 55  2  0
 57 51  2  0
 58 57  1  0
 58 53  2  0
 59 52  1  0
 60 50  1  0
 62 64  2  0
 63 62  1  0
 65 63  1  0
 66 75  2  0
 66 71  1  0
 67 63  1  0
 67 71  1  0
 68 67  1  0
 69 70  1  0
 69 68  1  0
 70 66  1  0
 71 72  2  0
 72 73  1  0
 74 73  2  0
 75 74  1  0
 76 50  1  0
 76 77  1  0
 76 86  1  0
 77 80  1  0
 78 82  1  0
 78 77  1  0
 79 78  2  0
 82 81  1  0
 84 85  1  0
 84 82  1  0
 84 83  1  0
 86 89  1  1
 86 87  1  0
 88 86  1  0
M  ISO  4  10 100  18 100  48 101  49 101
M  END
>  <TORSDO>  (69) 
F 17

>  <SCORE>  (69) 
-15.375

>  <name>  (69) 
68

>  <ligand_id>  (69) 
68

>  <original_smiles>  (69) 
[H]c1c([H])c([H])c2c(c1[H])C([H])([H])C([H])([H])C([H])([H])C2([H])N([H])C(=O)C1([H])N(C(=O)C([H])(N([H])C(=O)C([H])(N([H])C([H])([H])[H])C([H])([H])[H])C(C([H])([H])[H])(C([H])([H])[H])C([H])([H])[H])C([H])([H])c2c([H])c(OC([H])([H])c3c([H])n4c([n+]3[H])C([H])([H])C([H])(N([H])C(=O)N3C([H])([H])C([H])([H])C([H])([H])C([H])(n5nc(-c6c([H])c([H])c(Oc7c([H])c([H])c(F)c([H])c7F)c([H])c6[H])c(C(=O)N([H])[H])c5N([H])[H])C3([H])[H])C4([H])[H])c([H])c([H])c2C1([H])[H]

>  <smiles>  (69) 
[H]c1c([H])c([H])c2c(c1[H])C([H])([H])C([H])([H])C([H])([H])C2([H])N([H])C(=O)C1([H])N(C(=O)C([H])(N([H])C(=O)C([H])(N([H])C([H])([H])[H])C([H])([H])[H])C(C([H])([H])[H])(C([H])([H])[H])C([H])([H])[H])C([H])([H])c2c([H])c(OC([H])([H])c3c([H])n4c([n+]3[H])C([H])([H])C([H])(N([H])C(=O)N3C([H])([H])C([H])([H])C([H])([H])C([H])(n5nc(-c6c([H])c([H])c(Oc7c([H])c([H])c(F)c([H])c7F)c([H])c6[H])c(C(=O)N([H])[H])c5N([H])[H])C3([H])[H])C4([H])[H])c([H])c([H])c2C1([H])[H]

$$$$
69:0:0
     RDKit          3D

 92102  0  0  1  0  0  0  0  0999 V2000
  -29.6620  -19.6710   18.2150 C   0  0  0  0  0  3  0  0  0  0  0  0
  -29.5030  -19.4510   19.5940 C   0  0  0  0  0  0  0  0  0  0  0  0
  -29.4630  -20.9570   17.7130 C   0  0  0  0  0  0  0  0  0  0  0  0
  -28.9420  -21.7790   19.8080 C   0  0  0  0  0  0  0  0  0  0  0  0
  -29.4370  -24.1020   20.6760 C   0  0  0  0  0  2  0  0  0  0  0  0
  -27.5600  -23.8980   19.9330 C   0  0  0  0  0  2  0  0  0  0  0  0
  -28.2030  -25.0540   20.7490 C   0  0  0  0  0  3  0  0  0  0  0  0
  -29.6590  -21.2820   16.2480 C   0  0  0  0  0  1  0  0  0  0  0  0
  -29.1400  -20.5450   20.3700 N   0  0  0  0  0  0  0  0  0  0  0  0
  -29.1100  -21.9760   18.5080 N   0  0  0  0  0  0  0  0  0  0  0  0
  -28.5100  -22.9510   20.5770 N   0  0  0  0  0  0  0  0  0  0  0  0
  -30.6330  -14.6740   20.3780 C   0  0  0  0  0  0  0  0  0  0  0  0
  -30.3600  -12.4180   19.3680 C   0  0  0  0  0  2  0  0  0  0  0  0
  -29.4250  -12.5040   18.1440 C   0  0  0  0  0  2  0  0  0  0  0  0
  -27.9550  -12.3510   18.5810 C   0  0  0  0  0  2  0  0  0  0  0  0
  -27.5910  -13.2490   19.7940 C   0  0  0  0  0  3  0  0  0  0  0  0
  -28.6540  -13.1770   20.9120 C   0  0  0  0  0  2  0  0  0  0  0  0
  -29.9460  -13.4900   20.2960 N   0  0  0  0  0  0  0  0  0  0  0  0
  -31.8460  -14.6810   20.1580 O   0  0  0  0  0  0  0  0  0  0  0  0
  -29.1010  -16.8390   20.7980 C   0  0  0  0  0  2  0  0  0  0  0  0
  -30.4440  -16.9160   19.1950 C   0  0  0  0  0  2  0  0  0  0  0  0
  -29.9220  -18.0140   20.1630 C   0  0  0  0  0  3  0  0  0  0  0  0
  -29.9410  -15.8350   20.0710 N   0  0  0  0  0  0  0  0  0  0  0  0
  -25.2070  -13.8430   20.5280 C   0  0  0  0  0  0  0  0  0  0  0  0
  -24.1410  -13.0710   20.8970 C   0  0  0  0  0  0  0  0  0  0  0  0
  -24.6020  -11.7190   20.8710 C   0  0  0  0  0  0  0  0  0  0  0  0
  -26.2490  -12.9630   20.2920 N   0  0  0  0  0  0  0  0  0  0  0  0
  -25.8930  -11.6790   20.5640 N   0  0  0  0  0  0  0  0  0  0  0  0
  -23.8740  -10.4580   21.0610 C   0  0  0  0  0  0  0  0  0  0  0  0
  -24.3120   -9.4830   21.9840 C   0  0  0  0  0  3  0  0  0  0  0  0
  -23.5830   -8.2870   22.1630 C   0  0  0  0  0  3  0  0  0  0  0  0
  -22.4010   -8.0580   21.4200 C   0  0  0  0  0  0  0  0  0  0  0  0
  -21.9810   -9.0210   20.4860 C   0  0  0  0  0  3  0  0  0  0  0  0
  -22.7110  -10.2090   20.3040 C   0  0  0  0  0  3  0  0  0  0  0  0
  -21.6430   -6.9160   21.5090 O   0  0  0  0  0  0  0  0  0  0  0  0
  -21.6130   -6.1600   22.6530 C   0  0  0  0  0  0  0  0  0  0  0  0
  -21.2200   -6.7040   23.8960 C   0  0  0  0  0  3  0  0  0  0  0  0
  -21.1350   -5.8750   25.0320 C   0  0  0  0  0  3  0  0  0  0  0  0
  -21.4360   -4.5030   24.9290 C   0  0  0  0  0  0  0  0  0  0  0  0
  -21.8220   -3.9600   23.6900 C   0  0  0  0  0  3  0  0  0  0  0  0
  -21.9070   -4.7850   22.5560 C   0  0  0  0  0  0  0  0  0  0  0  0
  -22.2600   -4.2520   21.3620 F   0  0  0  0  0  0  0  0  0  0  0  0
  -21.3470   -3.7050   26.0180 F   0  0  0  0  0  0  0  0  0  0  0  0
  -22.7430  -13.5500   21.1650 C   0  0  0  0  0  0  0  0  0  0  0  0
  -22.0140  -12.8580   22.0330 N   0  0  0  0  0  0  0  0  0  0  0  0
  -22.3070  -14.5740   20.6390 O   0  0  0  0  0  0  0  0  0  0  0  0
  -22.3810  -12.0310   22.4800 H   0  0  0  0  0  0  0  0  0  0  0  0
  -21.0770  -13.1620   22.2570 H   0  0  0  0  0  0  0  0  0  0  0  0
  -25.3720  -15.2130   20.3460 N   0  0  0  0  0  0  0  0  0  0  0  0
  -24.6060  -15.8690   20.4520 H   0  0  0  0  0  0  0  0  0  0  0  0
  -26.2210  -15.6440   20.0050 H   0  0  0  0  0  0  0  0  0  0  0  0
  -28.3460  -26.4470   20.2380 O   0  0  0  0  0  0  0  0  0  0  0  0
  -24.6200  -31.8780   23.2470 C   0  0  0  0  0  0  0  0  0  0  0  0
  -27.2230  -27.2890   20.2340 C   0  0  0  0  0  0  0  0  0  0  0  0
  -23.4140  -30.4720   21.6130 C   0  0  0  0  0  3  0  0  0  0  0  0
  -24.8630  -28.9060   20.2020 C   0  0  0  0  0  0  0  0  0  0  0  0
  -25.9550  -30.7840   21.4290 C   0  0  0  0  0  2  0  0  0  0  0  0
  -26.0340  -29.4000   20.7930 C   0  0  0  0  0  0  0  0  0  0  0  0
  -27.2200  -28.6060   20.7910 C   0  0  0  0  0  3  0  0  0  0  0  0
  -26.0340  -26.8440   19.6220 C   0  0  0  0  0  3  0  0  0  0  0  0
  -24.8660  -27.6330   19.6070 C   0  0  0  0  0  3  0  0  0  0  0  0
  -23.6290  -29.7840   20.2390 C   0  0  0  0  0  2  0  0  0  0  0  0
  -24.6820  -31.0630   22.1520 N   0  0  0  0  0  0  0  0  0  0  0  0
  -23.5370  -32.1600   23.7790 O   0  0  0  0  0  0  0  0  0  0  0  0
  -22.7470  -29.4650   22.5800 C   0  0  0  0  0  0  0  0  0  0  0  0
  -21.4210  -29.2930   22.4530 N   0  0  0  0  0  0  0  0  0  0  0  0
  -23.4230  -28.8390   23.4000 O   0  0  0  0  0  0  0  0  0  0  0  0
  -20.9360  -29.8460   21.7610 H   0  0  0  0  0  0  0  0  0  0  0  0
  -18.0370  -28.1170   22.9590 C   0  0  0  0  0  0  0  0  0  0  0  0
  -20.5970  -28.3650   23.2290 C   0  0  0  0  0  3  0  0  0  0  0  0
  -20.6930  -26.9300   22.6600 C   0  0  0  0  0  2  0  0  0  0  0  0
  -19.5880  -26.6080   21.6480 C   0  0  0  0  0  2  0  0  0  0  0  0
  -18.2070  -26.7630   22.2900 C   0  0  0  0  0  2  0  0  0  0  0  0
  -19.1590  -28.8750   23.3860 C   0  0  0  0  0  0  0  0  0  0  0  0
  -18.9460  -30.1420   23.9720 C   0  0  0  0  0  3  0  0  0  0  0  0
  -17.6440  -30.6510   24.1350 C   0  0  0  0  0  3  0  0  0  0  0  0
  -16.5360  -29.8890   23.7250 C   0  0  0  0  0  3  0  0  0  0  0  0
  -16.7330  -28.6240   23.1430 C   0  0  0  0  0  3  0  0  0  0  0  0
  -25.9040  -32.5100   23.8680 C   0  0  0  0  0  3  0  0  0  0  0  0
  -25.5950  -33.9090   24.1990 N   0  0  0  0  0  0  0  0  0  0  0  0
  -25.9190  -34.9610   23.4370 C   0  0  0  0  0  0  0  0  0  0  0  0
  -26.5800  -34.8580   22.4000 O   0  0  0  0  0  0  0  0  0  0  0  0
  -25.0070  -34.0620   25.0060 H   0  0  0  0  0  0  0  0  0  0  0  0
  -24.1810  -36.7490   23.1050 C   0  0  0  0  0  1  0  0  0  0  0  0
  -25.4360  -36.3490   23.8980 C   0  0  0  0  0  3  0  0  0  0  0  0
  -27.5810  -37.2430   24.6920 C   0  0  0  0  0  1  0  0  0  0  0  0
  -26.4650  -37.4050   23.7650 N   0  0  0  0  0  0  0  0  0  0  0  0
  -26.0580  -38.3250   23.9170 H   0  0  0  0  0  0  0  0  0  0  0  0
  -26.4210  -31.7390   25.1440 C   0  0  1  0  0  0  0  0  0  0  0  0
  -25.3290  -31.5030   26.2140 C   0  0  0  0  0  1  0  0  0  0  0  0
  -27.0030  -30.3590   24.7540 C   0  0  0  0  0  1  0  0  0  0  0  0
  -27.5730  -32.5330   25.8030 C   0  0  0  0  0  1  0  0  0  0  0  0
  1  2  2  0
  2  9  1  0
  3  1  1  0
  3 10  2  0
  4  9  2  0
  4 11  1  0
  5  7  1  0
  6 11  1  0
  6  7  1  0
  7 52  1  0
  8  3  1  0
 10  4  1  0
 11  5  1  0
 13 18  1  0
 14 15  1  0
 14 13  1  0
 16 15  1  0
 16 27  1  0
 16 17  1  0
 18 12  1  0
 18 17  1  0
 19 12  2  0
 21 23  1  0
 21 22  1  0
 22  2  1  0
 22 20  1  0
 23 12  1  0
 23 20  1  0
 24 25  2  0
 25 44  1  0
 26 25  1  0
 26 29  1  0
 27 24  1  0
 27 28  1  0
 28 26  2  0
 29 30  1  0
 30 31  2  0
 32 35  1  0
 32 31  1  0
 33 32  2  0
 34 33  1  0
 34 29  2  0
 35 36  1  0
 36 37  1  0
 37 38  2  0
 39 38  1  0
 39 43  1  0
 40 39  2  0
 41 36  2  0
 41 40  1  0
 42 41  1  0
 44 45  1  0
 45 48  1  0
 45 47  1  0
 46 44  2  0
 49 50  1  0
 49 24  1  0
 51 49  1  0
 53 64  2  0
 54 52  1  0
 54 59  1  0
 55 63  1  0
 55 65  1  0
 56 62  1  0
 56 58  1  0
 57 63  1  0
 58 57  1  0
 59 58  2  0
 60 54  2  0
 61 60  1  0
 61 56  2  0
 62 55  1  0
 63 53  1  0
 65 67  2  0
 66 65  1  0
 68 66  1  0
 69 78  2  0
 69 74  1  0
 70 66  1  0
 70 74  1  0
 71 70  1  0
 72 73  1  0
 72 71  1  0
 73 69  1  0
 74 75  2  0
 75 76  1  0
 77 76  2  0
 78 77  1  0
 79 53  1  0
 79 80  1  0
 79 89  1  0
 80 83  1  0
 81 85  1  0
 81 80  1  0
 82 81  2  0
 85 84  1  0
 87 85  1  0
 87 88  1  0
 87 86  1  0
 89 92  1  1
 89 90  1  0
 91 89  1  0
M  ISO  4   7 101  12 100  23 100  52 101
M  END
>  <TORSDO>  (70) 
F 16

>  <SCORE>  (70) 
-15.738

>  <name>  (70) 
69

>  <ligand_id>  (70) 
69

>  <original_smiles>  (70) 
[H]c1c(C([H])([H])[H])nc(N2C([H])([H])C([H])(Oc3c([H])c([H])c4c(c3[H])C([H])([H])N(C(=O)C([H])(N([H])C(=O)C([H])(N([H])C([H])([H])[H])C([H])([H])[H])C(C([H])([H])[H])(C([H])([H])[H])C([H])([H])[H])C([H])(C(=O)N([H])C3([H])c5c([H])c([H])c([H])c([H])c5C([H])([H])C([H])([H])C3([H])[H])C4([H])[H])C2([H])[H])nc1C1([H])C([H])([H])N(C(=O)N2C([H])([H])C([H])([H])C([H])([H])C([H])(n3nc(-c4c([H])c([H])c(Oc5c([H])c([H])c(F)c([H])c5F)c([H])c4[H])c(C(=O)N([H])[H])c3N([H])[H])C2([H])[H])C1([H])[H]

>  <smiles>  (70) 
[H]c1c(C([H])([H])[H])nc(N2C([H])([H])C([H])(Oc3c([H])c([H])c4c(c3[H])C([H])([H])N(C(=O)C([H])(N([H])C(=O)C([H])(N([H])C([H])([H])[H])C([H])([H])[H])C(C([H])([H])[H])(C([H])([H])[H])C([H])([H])[H])C([H])(C(=O)N([H])C3([H])c5c([H])c([H])c([H])c([H])c5C([H])([H])C([H])([H])C3([H])[H])C4([H])[H])C2([H])[H])nc1C1([H])C([H])([H])N(C(=O)N2C([H])([H])C([H])([H])C([H])([H])C([H])(n3nc(-c4c([H])c([H])c(Oc5c([H])c([H])c(F)c([H])c5F)c([H])c4[H])c(C(=O)N([H])[H])c3N([H])[H])C2([H])[H])C1([H])[H]

$$$$
70:0:0
     RDKit          3D

 91100  0  0  1  0  0  0  0  0999 V2000
  -28.5920  -22.4260   20.3320 C   0  0  0  0  0  3  0  0  0  0  0  0
  -29.2170  -23.8360   20.0950 C   0  0  0  0  0  0  0  0  0  0  0  0
  -26.9080  -23.9800   20.3840 C   0  0  0  0  0  2  0  0  0  0  0  0
  -28.0610  -24.8690   19.8050 C   0  0  0  0  0  3  0  0  0  0  0  0
  -27.3230  -22.5410   20.4350 N   0  0  0  0  0  2  0  0  0  0  0  0
  -30.4200  -24.1210   20.1320 O   0  0  0  0  0  0  0  0  0  0  0  0
  -29.8590  -20.0970   19.3920 C   0  0  0  0  0  0  0  0  0  0  0  0
  -28.8410  -19.7050   21.1280 C   0  0  0  0  0  2  0  0  0  0  0  0
  -29.4450  -21.0490   20.5710 C   0  0  0  0  0  3  0  0  0  0  0  0
  -29.6610  -18.9090   20.1370 N   0  0  0  0  0  0  0  0  0  0  0  0
  -30.3380  -20.2530   18.2840 O   0  0  0  0  0  0  0  0  0  0  0  0
  -30.3990  -17.5350   20.0320 C   0  0  0  0  0  2  0  0  0  0  0  0
  -30.6120  -14.9170   20.1640 C   0  0  0  0  0  0  0  0  0  0  0  0
  -30.3850  -12.6470   19.1250 C   0  0  0  0  0  2  0  0  0  0  0  0
  -29.3980  -12.7070   17.9390 C   0  0  0  0  0  2  0  0  0  0  0  0
  -27.9550  -12.4900   18.4280 C   0  0  0  0  0  2  0  0  0  0  0  0
  -27.6150  -13.3630   19.6660 C   0  0  0  0  0  3  0  0  0  0  0  0
  -28.7120  -13.2910   20.7490 C   0  0  0  0  0  2  0  0  0  0  0  0
  -29.9730  -13.6890   20.1040 N   0  0  0  0  0  0  0  0  0  0  0  0
  -31.7940  -14.9730   19.8110 O   0  0  0  0  0  0  0  0  0  0  0  0
  -29.8950  -16.1070   20.3710 N   0  0  0  0  0  0  0  0  0  0  0  0
  -28.9340  -16.0160   20.6620 H   0  0  0  0  0  0  0  0  0  0  0  0
  -25.2520  -13.9260   20.4800 C   0  0  0  0  0  0  0  0  0  0  0  0
  -24.2020  -13.1420   20.8690 C   0  0  0  0  0  0  0  0  0  0  0  0
  -24.6690  -11.7940   20.8010 C   0  0  0  0  0  0  0  0  0  0  0  0
  -26.2920  -13.0560   20.1960 N   0  0  0  0  0  0  0  0  0  0  0  0
  -25.9510  -11.7660   20.4510 N   0  0  0  0  0  0  0  0  0  0  0  0
  -23.9530  -10.5280   20.9960 C   0  0  0  0  0  0  0  0  0  0  0  0
  -24.4000   -9.5620   21.9240 C   0  0  0  0  0  3  0  0  0  0  0  0
  -23.6840   -8.3580   22.1040 C   0  0  0  0  0  3  0  0  0  0  0  0
  -22.5070   -8.1130   21.3560 C   0  0  0  0  0  0  0  0  0  0  0  0
  -22.0810   -9.0690   20.4170 C   0  0  0  0  0  3  0  0  0  0  0  0
  -22.7960  -10.2640   20.2350 C   0  0  0  0  0  3  0  0  0  0  0  0
  -21.7580   -6.9640   21.4480 O   0  0  0  0  0  0  0  0  0  0  0  0
  -21.6980   -6.2360   22.6080 C   0  0  0  0  0  0  0  0  0  0  0  0
  -21.2300   -6.7970   23.8160 C   0  0  0  0  0  3  0  0  0  0  0  0
  -21.1190   -5.9940   24.9690 C   0  0  0  0  0  3  0  0  0  0  0  0
  -21.4610   -4.6290   24.9140 C   0  0  0  0  0  0  0  0  0  0  0  0
  -21.9210   -4.0680   23.7090 C   0  0  0  0  0  3  0  0  0  0  0  0
  -22.0350   -4.8690   22.5590 C   0  0  0  0  0  0  0  0  0  0  0  0
  -22.4580   -4.3170   21.3970 F   0  0  0  0  0  0  0  0  0  0  0  0
  -21.3450   -3.8560   26.0180 F   0  0  0  0  0  0  0  0  0  0  0  0
  -22.8130  -13.6130   21.1870 C   0  0  0  0  0  0  0  0  0  0  0  0
  -22.1150  -12.9020   22.0670 N   0  0  0  0  0  0  0  0  0  0  0  0
  -22.3580  -14.6440   20.6930 O   0  0  0  0  0  0  0  0  0  0  0  0
  -22.5020  -12.0750   22.4960 H   0  0  0  0  0  0  0  0  0  0  0  0
  -21.1770  -13.1890   22.3150 H   0  0  0  0  0  0  0  0  0  0  0  0
  -25.4050  -15.3010   20.3190 N   0  0  0  0  0  0  0  0  0  0  0  0
  -24.6270  -15.9380   20.4360 H   0  0  0  0  0  0  0  0  0  0  0  0
  -26.2350  -15.7520   19.9620 H   0  0  0  0  0  0  0  0  0  0  0  0
  -28.2390  -26.3320   20.2250 O   0  0  0  0  0  0  0  0  0  0  0  0
  -24.6440  -31.9100   23.2730 C   0  0  0  0  0  0  0  0  0  0  0  0
  -27.1780  -27.2780   20.1440 C   0  0  0  0  0  0  0  0  0  0  0  0
  -23.4430  -30.5340   21.6410 C   0  0  0  0  0  3  0  0  0  0  0  0
  -24.8520  -28.9840   20.1630 C   0  0  0  0  0  0  0  0  0  0  0  0
  -25.9770  -30.8040   21.4430 C   0  0  0  0  0  2  0  0  0  0  0  0
  -26.0320  -29.4260   20.7760 C   0  0  0  0  0  0  0  0  0  0  0  0
  -27.1920  -28.5790   20.7670 C   0  0  0  0  0  3  0  0  0  0  0  0
  -25.9910  -26.9420   19.4580 C   0  0  0  0  0  3  0  0  0  0  0  0
  -24.8410  -27.7550   19.4880 C   0  0  0  0  0  3  0  0  0  0  0  0
  -23.6250  -29.8710   20.2480 C   0  0  0  0  0  2  0  0  0  0  0  0
  -24.7120  -31.1020   22.1750 N   0  0  0  0  0  0  0  0  0  0  0  0
  -23.5620  -32.1910   23.8100 O   0  0  0  0  0  0  0  0  0  0  0  0
  -22.7790  -29.5240   22.6020 C   0  0  0  0  0  0  0  0  0  0  0  0
  -21.4620  -29.4440   22.4540 N   0  0  0  0  0  0  0  0  0  0  0  0
  -23.4290  -28.8410   23.3950 O   0  0  0  0  0  0  0  0  0  0  0  0
  -21.0720  -30.1380   21.8300 H   0  0  0  0  0  0  0  0  0  0  0  0
  -18.0380  -27.9910   22.8700 C   0  0  0  0  0  0  0  0  0  0  0  0
  -20.5090  -28.4290   22.8340 C   0  0  0  0  0  3  0  0  0  0  0  0
  -20.7870  -26.9340   22.6400 C   0  0  0  0  0  2  0  0  0  0  0  0
  -19.6990  -26.3570   21.7090 C   0  0  0  0  0  2  0  0  0  0  0  0
  -18.2740  -26.6110   22.2460 C   0  0  0  0  0  2  0  0  0  0  0  0
  -19.1160  -28.8230   23.2580 C   0  0  0  0  0  0  0  0  0  0  0  0
  -18.8670  -30.0810   23.8430 C   0  0  0  0  0  3  0  0  0  0  0  0
  -17.5420  -30.5340   23.9980 C   0  0  0  0  0  3  0  0  0  0  0  0
  -16.4700  -29.7240   23.5820 C   0  0  0  0  0  3  0  0  0  0  0  0
  -16.7170  -28.4510   23.0330 C   0  0  0  0  0  3  0  0  0  0  0  0
  -25.9250  -32.5350   23.8930 C   0  0  0  0  0  3  0  0  0  0  0  0
  -25.6180  -33.9320   24.2330 N   0  0  0  0  0  0  0  0  0  0  0  0
  -25.9180  -34.9860   23.4600 C   0  0  0  0  0  0  0  0  0  0  0  0
  -26.5490  -34.8870   22.4050 O   0  0  0  0  0  0  0  0  0  0  0  0
  -25.0510  -34.0860   25.0530 H   0  0  0  0  0  0  0  0  0  0  0  0
  -24.1590  -36.7670   23.1850 C   0  0  0  0  0  1  0  0  0  0  0  0
  -25.4410  -36.3740   23.9350 C   0  0  0  0  0  3  0  0  0  0  0  0
  -27.6060  -37.2820   24.6580 C   0  0  0  0  0  1  0  0  0  0  0  0
  -26.4600  -37.4330   23.7650 N   0  0  0  0  0  0  0  0  0  0  0  0
  -26.0540  -38.3520   23.9200 H   0  0  0  0  0  0  0  0  0  0  0  0
  -26.4350  -31.7540   25.1650 C   0  0  1  0  0  0  0  0  0  0  0  0
  -25.3400  -31.5160   26.2310 C   0  0  0  0  0  1  0  0  0  0  0  0
  -27.0110  -30.3750   24.7680 C   0  0  0  0  0  1  0  0  0  0  0  0
  -27.5870  -32.5420   25.8320 C   0  0  0  0  0  1  0  0  0  0  0  0
  1  2  1  0
  1  5  1  0
  1  9  1  0
  2  6  2  0
  3  5  1  0
  4  2  1  0
  4 51  1  0
  4  3  1  0
  7 10  1  0
  7  9  1  0
  9  8  1  0
 10  8  1  0
 11  7  2  0
 12 10  1  0
 12 21  1  0
 13 21  1  0
 14 19  1  0
 15 16  1  0
 15 14  1  0
 17 16  1  0
 17 26  1  0
 17 18  1  0
 19 13  1  0
 19 18  1  0
 20 13  2  0
 21 22  1  0
 23 24  2  0
 24 43  1  0
 25 24  1  0
 25 28  1  0
 26 27  1  0
 26 23  1  0
 27 25  2  0
 28 29  1  0
 29 30  2  0
 31 34  1  0
 31 30  1  0
 32 31  2  0
 33 32  1  0
 33 28  2  0
 34 35  1  0
 35 36  1  0
 36 37  2  0
 38 37  1  0
 38 42  1  0
 39 38  2  0
 40 35  2  0
 40 39  1  0
 41 40  1  0
 43 44  1  0
 44 47  1  0
 44 46  1  0
 45 43  2  0
 48 49  1  0
 48 23  1  0
 50 48  1  0
 52 63  2  0
 53 51  1  0
 53 58  1  0
 54 62  1  0
 54 64  1  0
 55 61  1  0
 55 57  1  0
 56 62  1  0
 57 56  1  0
 58 57  2  0
 59 60  1  0
 59 53  2  0
 60 55  2  0
 61 54  1  0
 62 52  1  0
 64 66  2  0
 65 64  1  0
 67 65  1  0
 68 77  2  0
 68 73  1  0
 69 65  1  0
 69 73  1  0
 70 69  1  0
 71 72  1  0
 71 70  1  0
 72 68  1  0
 73 74  2  0
 74 75  1  0
 76 75  2  0
 77 76  1  0
 78 52  1  0
 78 79  1  0
 78 88  1  0
 79 82  1  0
 80 84  1  0
 80 79  1  0
 81 80  2  0
 84 83  1  0
 86 87  1  0
 86 84  1  0
 86 85  1  0
 88 91  1  1
 88 89  1  0
 90 88  1  0
M  ISO  4   4 101  13 100  21 100  51 101
M  END
>  <TORSDO>  (71) 
F 18

>  <SCORE>  (71) 
-14.406

>  <name>  (71) 
70

>  <ligand_id>  (71) 
70

>  <original_smiles>  (71) 
[H]c1c([H])c([H])c2c(c1[H])C([H])([H])C([H])([H])C([H])([H])C2([H])N([H])C(=O)C1([H])N(C(=O)C([H])(N([H])C(=O)C([H])(N([H])C([H])([H])[H])C([H])([H])[H])C(C([H])([H])[H])(C([H])([H])[H])C([H])([H])[H])C([H])([H])c2c([H])c(OC3([H])C(=O)C(C4([H])C(=O)N(C([H])([H])N([H])C(=O)N5C([H])([H])C([H])([H])C([H])([H])C([H])(n6nc(-c7c([H])c([H])c(Oc8c([H])c([H])c(F)c([H])c8F)c([H])c7[H])c(C(=O)N([H])[H])c6N([H])[H])C5([H])[H])C4([H])[H])=NC3([H])[H])c([H])c([H])c2C1([H])[H]

>  <smiles>  (71) 
[H]c1c([H])c([H])c2c(c1[H])C([H])([H])C([H])([H])C([H])([H])C2([H])N([H])C(=O)C1([H])N(C(=O)C([H])(N([H])C(=O)C([H])(N([H])C([H])([H])[H])C([H])([H])[H])C(C([H])([H])[H])(C([H])([H])[H])C([H])([H])[H])C([H])([H])c2c([H])c(OC3([H])C(=O)C(C4([H])C(=O)N(C([H])([H])N([H])C(=O)N5C([H])([H])C([H])([H])C([H])([H])C([H])(n6nc(-c7c([H])c([H])c(Oc8c([H])c([H])c(F)c([H])c8F)c([H])c7[H])c(C(=O)N([H])[H])c6N([H])[H])C5([H])[H])C4([H])[H])=NC3([H])[H])c([H])c([H])c2C1([H])[H]

$$$$
71:0:0
     RDKit          3D

 98108  0  0  1  0  0  0  0  0999 V2000
  -30.8510  -22.4830   20.4550 C   0  0  0  0  0  3  0  0  0  0  0  0
  -30.3340  -23.7580   20.3590 C   0  0  0  0  0  0  0  0  0  0  0  0
  -29.7590  -21.5700   20.4230 C   0  0  0  0  0  0  0  0  0  0  0  0
  -28.6130  -22.3070   20.3390 N   0  0  0  0  0  0  0  0  0  0  0  0
  -28.9490  -23.6880   20.3100 N   0  0  0  0  0  0  0  0  0  0  0  0
  -30.0710  -20.1390   20.4270 N   0  0  0  0  0  0  0  0  0  0  0  0
  -31.0660  -20.0160   20.5960 H   0  0  0  0  0  0  0  0  0  0  0  0
  -28.1090  -18.7770   19.5870 C   0  0  0  0  0  2  0  0  0  0  0  0
  -28.4080  -18.1870   18.1920 C   0  0  0  0  0  2  0  0  0  0  0  0
  -30.7310  -17.5230   18.6820 C   0  0  0  0  0  2  0  0  0  0  0  0
  -29.3460  -18.7920   20.5130 C   0  0  0  0  0  3  0  0  0  0  0  0
  -30.2780  -17.4600   20.1780 C   0  0  0  0  0  3  0  0  0  0  0  0
  -29.8360  -18.3580   17.8490 N   0  0  0  0  0  4  0  0  0  0  0  0
  -30.0680  -19.3250   18.0090 H   0  0  0  0  0  0  0  0  0  0  0  0
  -29.9920  -18.1500   16.8750 H   0  0  0  0  0  0  0  0  0  0  0  0
  -30.5810  -14.8220   20.3600 C   0  0  0  0  0  0  0  0  0  0  0  0
  -30.3640  -12.5280   19.3710 C   0  0  0  0  0  2  0  0  0  0  0  0
  -29.4250  -12.5740   18.1470 C   0  0  0  0  0  2  0  0  0  0  0  0
  -27.9570  -12.3950   18.5810 C   0  0  0  0  0  2  0  0  0  0  0  0
  -27.5830  -13.2830   19.7980 C   0  0  0  0  0  3  0  0  0  0  0  0
  -28.6520  -13.2360   20.9140 C   0  0  0  0  0  2  0  0  0  0  0  0
  -29.9360  -13.6000   20.3030 N   0  0  0  0  0  0  0  0  0  0  0  0
  -31.7680  -14.8810   20.0360 O   0  0  0  0  0  0  0  0  0  0  0  0
  -29.8490  -16.0050   20.5140 N   0  0  0  0  0  0  0  0  0  0  0  0
  -28.8850  -15.8820   20.7850 H   0  0  0  0  0  0  0  0  0  0  0  0
  -25.2020  -13.8500   20.5590 C   0  0  0  0  0  0  0  0  0  0  0  0
  -24.1420  -13.0710   20.9300 C   0  0  0  0  0  0  0  0  0  0  0  0
  -24.6100  -11.7210   20.8850 C   0  0  0  0  0  0  0  0  0  0  0  0
  -26.2470  -12.9790   20.3040 N   0  0  0  0  0  0  0  0  0  0  0  0
  -25.8980  -11.6920   20.5640 N   0  0  0  0  0  0  0  0  0  0  0  0
  -23.8890  -10.4570   21.0720 C   0  0  0  0  0  0  0  0  0  0  0  0
  -24.3330   -9.4820   21.9920 C   0  0  0  0  0  3  0  0  0  0  0  0
  -23.6110   -8.2820   22.1690 C   0  0  0  0  0  3  0  0  0  0  0  0
  -22.4290   -8.0500   21.4280 C   0  0  0  0  0  0  0  0  0  0  0  0
  -22.0030   -9.0150   20.4970 C   0  0  0  0  0  3  0  0  0  0  0  0
  -22.7270  -10.2050   20.3170 C   0  0  0  0  0  3  0  0  0  0  0  0
  -21.6750   -6.9050   21.5160 O   0  0  0  0  0  0  0  0  0  0  0  0
  -21.6480   -6.1470   22.6590 C   0  0  0  0  0  0  0  0  0  0  0  0
  -21.2340   -6.6840   23.8990 C   0  0  0  0  0  3  0  0  0  0  0  0
  -21.1490   -5.8520   25.0330 C   0  0  0  0  0  3  0  0  0  0  0  0
  -21.4710   -4.4850   24.9310 C   0  0  0  0  0  0  0  0  0  0  0  0
  -21.8760   -3.9480   23.6960 C   0  0  0  0  0  3  0  0  0  0  0  0
  -21.9610   -4.7750   22.5640 C   0  0  0  0  0  0  0  0  0  0  0  0
  -22.3290   -4.2460   21.3720 F   0  0  0  0  0  0  0  0  0  0  0  0
  -21.3860   -3.6850   26.0190 F   0  0  0  0  0  0  0  0  0  0  0  0
  -22.7450  -13.5410   21.2130 C   0  0  0  0  0  0  0  0  0  0  0  0
  -22.0240  -12.8420   22.0800 N   0  0  0  0  0  0  0  0  0  0  0  0
  -22.3000  -14.5680   20.6980 O   0  0  0  0  0  0  0  0  0  0  0  0
  -22.3980  -12.0150   22.5210 H   0  0  0  0  0  0  0  0  0  0  0  0
  -21.0890  -13.1450   22.3120 H   0  0  0  0  0  0  0  0  0  0  0  0
  -25.3620  -15.2230   20.3940 N   0  0  0  0  0  0  0  0  0  0  0  0
  -24.5960  -15.8750   20.5200 H   0  0  0  0  0  0  0  0  0  0  0  0
  -26.2120  -15.6700   20.0810 H   0  0  0  0  0  0  0  0  0  0  0  0
  -31.2870  -25.7680   18.9810 C   0  0  0  0  0  2  0  0  0  0  0  0
  -32.4590  -25.1250   19.6900 C   0  0  0  0  0  2  0  0  0  0  0  0
  -31.0740  -25.0550   20.2930 C   0  0  0  0  0  3  0  0  0  0  0  0
  -27.8920  -24.8060   20.1360 C   0  0  0  0  0  2  0  0  0  0  0  0
  -28.2540  -26.2610   20.2650 O   0  0  0  0  0  0  0  0  0  0  0  0
  -24.6350  -31.8970   23.2510 C   0  0  0  0  0  0  0  0  0  0  0  0
  -27.1900  -27.2220   20.2020 C   0  0  0  0  0  0  0  0  0  0  0  0
  -23.4220  -30.5100   21.6140 C   0  0  0  0  0  3  0  0  0  0  0  0
  -24.8600  -28.9420   20.1840 C   0  0  0  0  0  0  0  0  0  0  0  0
  -25.9750  -30.7780   21.4370 C   0  0  0  0  0  2  0  0  0  0  0  0
  -26.0420  -29.3930   20.7840 C   0  0  0  0  0  0  0  0  0  0  0  0
  -27.2110  -28.5490   20.7760 C   0  0  0  0  0  3  0  0  0  0  0  0
  -25.9760  -26.8640   19.5650 C   0  0  0  0  0  3  0  0  0  0  0  0
  -24.8370  -27.6890   19.5600 C   0  0  0  0  0  3  0  0  0  0  0  0
  -23.6340  -29.8360   20.2330 C   0  0  0  0  0  2  0  0  0  0  0  0
  -24.6990  -31.0810   22.1570 N   0  0  0  0  0  0  0  0  0  0  0  0
  -23.5530  -32.1860   23.7820 O   0  0  0  0  0  0  0  0  0  0  0  0
  -22.7430  -29.5030   22.5740 C   0  0  0  0  0  0  0  0  0  0  0  0
  -21.4150  -29.3380   22.4500 N   0  0  0  0  0  0  0  0  0  0  0  0
  -23.4120  -28.8700   23.3950 O   0  0  0  0  0  0  0  0  0  0  0  0
  -20.9310  -29.8990   21.7630 H   0  0  0  0  0  0  0  0  0  0  0  0
  -18.0260  -28.1640   22.9570 C   0  0  0  0  0  0  0  0  0  0  0  0
  -20.5880  -28.4080   23.2220 C   0  0  0  0  0  3  0  0  0  0  0  0
  -20.6780  -26.9750   22.6500 C   0  0  0  0  0  2  0  0  0  0  0  0
  -19.5730  -26.6570   21.6360 C   0  0  0  0  0  2  0  0  0  0  0  0
  -18.1920  -26.8130   22.2820 C   0  0  0  0  0  2  0  0  0  0  0  0
  -19.1500  -28.9190   23.3840 C   0  0  0  0  0  0  0  0  0  0  0  0
  -18.9400  -30.1830   23.9760 C   0  0  0  0  0  3  0  0  0  0  0  0
  -17.6380  -30.6920   24.1450 C   0  0  0  0  0  3  0  0  0  0  0  0
  -16.5280  -29.9340   23.7320 C   0  0  0  0  0  3  0  0  0  0  0  0
  -16.7230  -28.6720   23.1440 C   0  0  0  0  0  3  0  0  0  0  0  0
  -25.9210  -32.5220   23.8730 C   0  0  0  0  0  3  0  0  0  0  0  0
  -26.4310  -31.7460   25.1500 C   0  0  1  0  0  0  0  0  0  0  0  0
  -25.3370  -31.5150   26.2170 C   0  0  0  0  0  1  0  0  0  0  0  0
  -27.0060  -30.3640   24.7610 C   0  0  0  0  0  1  0  0  0  0  0  0
  -27.5880  -32.5320   25.8120 C   0  0  0  0  0  1  0  0  0  0  0  0
  -25.6180  -33.9210   24.2100 N   0  0  0  0  0  0  0  0  0  0  0  0
  -25.9280  -34.9760   23.4440 C   0  0  0  0  0  0  0  0  0  0  0  0
  -26.5700  -34.8730   22.3950 O   0  0  0  0  0  0  0  0  0  0  0  0
  -25.0470  -34.0740   25.0280 H   0  0  0  0  0  0  0  0  0  0  0  0
  -24.1810  -36.7640   23.1570 C   0  0  0  0  0  1  0  0  0  0  0  0
  -25.4550  -36.3640   23.9180 C   0  0  0  0  0  3  0  0  0  0  0  0
  -27.6180  -37.2620   24.6580 C   0  0  0  0  0  1  0  0  0  0  0  0
  -26.4780  -37.4210   23.7600 N   0  0  0  0  0  0  0  0  0  0  0  0
  -26.0740  -38.3410   23.9190 H   0  0  0  0  0  0  0  0  0  0  0  0
  2  1  2  0
  3  6  1  0
  3  1  1  0
  4  3  2  0
  5  4  1  0
  5  2  1  0
  6  7  1  0
  8 11  1  0
  9  8  1  0
 10 12  1  0
 11  6  1  0
 12 11  1  0
 12 24  1  0
 13 14  1  0
 13  9  1  0
 13 10  1  0
 15 13  1  0
 16 24  1  0
 17 22  1  0
 18 19  1  0
 18 17  1  0
 20 19  1  0
 20 29  1  0
 20 21  1  0
 22 16  1  0
 22 21  1  0
 23 16  2  0
 24 25  1  0
 26 27  2  0
 27 46  1  0
 28 27  1  0
 28 31  1  0
 29 26  1  0
 29 30  1  0
 30 28  2  0
 31 32  1  0
 32 33  2  0
 34 37  1  0
 34 33  1  0
 35 34  2  0
 36 35  1  0
 36 31  2  0
 37 38  1  0
 38 39  1  0
 39 40  2  0
 41 40  1  0
 41 45  1  0
 42 41  2  0
 43 38  2  0
 43 42  1  0
 44 43  1  0
 46 47  1  0
 47 50  1  0
 47 49  1  0
 48 46  2  0
 51 52  1  0
 51 26  1  0
 53 51  1  0
 54 55  1  0
 54 56  1  0
 55 56  1  0
 56  2  1  0
 57 58  1  0
 57  5  1  0
 59 70  2  0
 60 58  1  0
 60 65  1  0
 61 69  1  0
 61 71  1  0
 62 68  1  0
 62 64  1  0
 63 69  1  0
 64 63  1  0
 65 64  2  0
 66 60  2  0
 67 66  1  0
 67 62  2  0
 68 61  1  0
 69 59  1  0
 71 73  2  0
 72 71  1  0
 74 72  1  0
 75 84  2  0
 75 80  1  0
 76 72  1  0
 76 80  1  0
 77 76  1  0
 78 79  1  0
 78 77  1  0
 79 75  1  0
 80 81  2  0
 81 82  1  0
 83 82  2  0
 84 83  1  0
 85 59  1  0
 85 90  1  0
 85 86  1  0
 86 89  1  1
 86 87  1  0
 88 86  1  0
 90 93  1  0
 91 95  1  0
 91 90  1  0
 92 91  2  0
 95 94  1  0
 97 95  1  0
 97 98  1  0
 97 96  1  0
M  ISO  4  16 100  24 100  57 101  58 101
M  END
>  <TORSDO>  (72) 
F 19

>  <SCORE>  (72) 
-14.657

>  <name>  (72) 
71

>  <ligand_id>  (72) 
71

>  <original_smiles>  (72) 
[H]c1c([H])c([H])c2c(c1[H])C([H])([H])C([H])([H])C([H])([H])C2([H])N([H])C(=O)C1([H])N(C(=O)C([H])(N([H])C(=O)C([H])(N([H])C([H])([H])[H])C([H])([H])[H])C(C([H])([H])[H])(C([H])([H])[H])C([H])([H])[H])C([H])([H])c2c([H])c(OC([H])([H])n3nc(N([H])C4([H])C([H])([H])C([H])([H])[N+]([H])([H])C([H])([H])C4([H])N([H])C(=O)N4C([H])([H])C([H])([H])C([H])([H])C([H])(n5nc(-c6c([H])c([H])c(Oc7c([H])c([H])c(F)c([H])c7F)c([H])c6[H])c(C(=O)N([H])[H])c5N([H])[H])C4([H])[H])c([H])c3C3([H])C([H])([H])C3([H])[H])c([H])c([H])c2C1([H])[H]

>  <smiles>  (72) 
[H]c1c([H])c([H])c2c(c1[H])C([H])([H])C([H])([H])C([H])([H])C2([H])N([H])C(=O)C1([H])N(C(=O)C([H])(N([H])C(=O)C([H])(N([H])C([H])([H])[H])C([H])([H])[H])C(C([H])([H])[H])(C([H])([H])[H])C([H])([H])[H])C([H])([H])c2c([H])c(OC([H])([H])n3nc(N([H])C4([H])C([H])([H])C([H])([H])[N+]([H])([H])C([H])([H])C4([H])N([H])C(=O)N4C([H])([H])C([H])([H])C([H])([H])C([H])(n5nc(-c6c([H])c([H])c(Oc7c([H])c([H])c(F)c([H])c7F)c([H])c6[H])c(C(=O)N([H])[H])c5N([H])[H])C4([H])[H])c([H])c3C3([H])C([H])([H])C3([H])[H])c([H])c([H])c2C1([H])[H]

$$$$
72:0:0
     RDKit          3D

 88 98  0  0  1  0  0  0  0  0999 V2000
  -28.5380  -21.7570   21.0680 C   0  0  0  0  0  3  0  0  0  0  0  0
  -29.1190  -21.9670   19.2060 C   0  0  0  0  0  3  0  0  0  0  0  0
  -28.9000  -23.1330   20.3020 C   0  0  0  0  0  3  0  0  0  0  0  0
  -29.4290  -20.8590   20.2100 N   0  0  2  0  0  4  0  0  0  0  0  0
  -30.3880  -20.9590   20.5080 H   0  0  0  0  0  0  0  0  0  0  0  0
  -27.9340  -24.5620   20.1450 C   0  0  0  0  0  2  0  0  0  0  0  0
  -28.2110  -26.1100   20.3960 O   0  0  0  0  0  0  0  0  0  0  0  0
  -24.6170  -31.9350   23.3110 C   0  0  0  0  0  0  0  0  0  0  0  0
  -27.1790  -27.1410   20.3160 C   0  0  0  0  0  0  0  0  0  0  0  0
  -23.4200  -30.5370   21.6730 C   0  0  0  0  0  3  0  0  0  0  0  0
  -24.8690  -28.9430   20.2610 C   0  0  0  0  0  0  0  0  0  0  0  0
  -25.9810  -30.7730   21.5250 C   0  0  0  0  0  2  0  0  0  0  0  0
  -26.0510  -29.3720   20.8770 C   0  0  0  0  0  0  0  0  0  0  0  0
  -27.2050  -28.4900   20.8840 C   0  0  0  0  0  3  0  0  0  0  0  0
  -25.9690  -26.8320   19.6580 C   0  0  0  0  0  3  0  0  0  0  0  0
  -24.8450  -27.6880   19.6340 C   0  0  0  0  0  3  0  0  0  0  0  0
  -23.6470  -29.8520   20.2990 C   0  0  0  0  0  2  0  0  0  0  0  0
  -24.6930  -31.1060   22.2240 N   0  0  0  0  0  0  0  0  0  0  0  0
  -23.5280  -32.2280   23.8300 O   0  0  0  0  0  0  0  0  0  0  0  0
  -22.7270  -29.5410   22.6370 C   0  0  0  0  0  0  0  0  0  0  0  0
  -21.4010  -29.3670   22.4960 N   0  0  0  0  0  0  0  0  0  0  0  0
  -23.3880  -28.9260   23.4770 O   0  0  0  0  0  0  0  0  0  0  0  0
  -20.9220  -29.9150   21.7940 H   0  0  0  0  0  0  0  0  0  0  0  0
  -18.0190  -28.1470   22.9590 C   0  0  0  0  0  0  0  0  0  0  0  0
  -20.5710  -28.4360   23.2670 C   0  0  0  0  0  3  0  0  0  0  0  0
  -20.6930  -26.9950   22.7160 C   0  0  0  0  0  2  0  0  0  0  0  0
  -19.6110  -26.6490   21.6870 C   0  0  0  0  0  2  0  0  0  0  0  0
  -18.2180  -26.7910   22.3050 C   0  0  0  0  0  2  0  0  0  0  0  0
  -19.1240  -28.9270   23.3970 C   0  0  0  0  0  0  0  0  0  0  0  0
  -18.8820  -30.1930   23.9710 C   0  0  0  0  0  3  0  0  0  0  0  0
  -17.5700  -30.6840   24.1110 C   0  0  0  0  0  3  0  0  0  0  0  0
  -16.4800  -29.9030   23.6880 C   0  0  0  0  0  3  0  0  0  0  0  0
  -16.7050  -28.6360   23.1190 C   0  0  0  0  0  3  0  0  0  0  0  0
  -25.8910  -32.5710   23.9440 C   0  0  0  0  0  3  0  0  0  0  0  0
  -25.5870  -33.9780   24.2520 N   0  0  0  0  0  0  0  0  0  0  0  0
  -25.9190  -35.0200   23.4790 C   0  0  0  0  0  0  0  0  0  0  0  0
  -26.5780  -34.8990   22.4440 O   0  0  0  0  0  0  0  0  0  0  0  0
  -24.9990  -34.1450   25.0560 H   0  0  0  0  0  0  0  0  0  0  0  0
  -24.1860  -36.8150   23.1380 C   0  0  0  0  0  1  0  0  0  0  0  0
  -25.4470  -36.4190   23.9250 C   0  0  0  0  0  3  0  0  0  0  0  0
  -27.6020  -37.3180   24.6880 C   0  0  0  0  0  1  0  0  0  0  0  0
  -26.4780  -37.4680   23.7670 N   0  0  0  0  0  0  0  0  0  0  0  0
  -26.0760  -38.3920   23.9060 H   0  0  0  0  0  0  0  0  0  0  0  0
  -26.3790  -31.8180   25.2430 C   0  0  1  0  0  0  0  0  0  0  0  0
  -25.2660  -31.6110   26.2990 C   0  0  0  0  0  1  0  0  0  0  0  0
  -26.9550  -30.4280   24.8930 C   0  0  0  0  0  1  0  0  0  0  0  0
  -27.5270  -32.6140   25.9090 C   0  0  0  0  0  1  0  0  0  0  0  0
  -29.1320  -19.2880   19.9280 C   0  0  0  0  0  2  0  0  0  0  0  0
  -30.6160  -15.1620   19.9370 C   0  0  0  0  0  0  0  0  0  0  0  0
  -30.4690  -12.8020   18.9490 C   0  0  0  0  0  2  0  0  0  0  0  0
  -29.4550  -12.7140   17.7830 C   0  0  0  0  0  2  0  0  0  0  0  0
  -28.0310  -12.4630   18.3130 C   0  0  0  0  0  2  0  0  0  0  0  0
  -27.6880  -13.3700   19.5210 C   0  0  0  0  0  3  0  0  0  0  0  0
  -28.8160  -13.4010   20.5690 C   0  0  0  0  0  2  0  0  0  0  0  0
  -30.0210  -13.8880   19.8790 N   0  0  0  0  0  0  0  0  0  0  0  0
  -31.7800  -15.2190   19.5190 O   0  0  0  0  0  0  0  0  0  0  0  0
  -30.4480  -17.7180   21.7400 C   0  0  0  0  0  2  0  0  0  0  0  0
  -29.4470  -16.5640   21.6320 C   0  0  0  0  0  2  0  0  0  0  0  0
  -30.2050  -17.9770   20.2630 C   0  0  0  0  0  3  0  0  0  0  0  0
  -29.8820  -16.3820   20.2390 N   0  0  0  0  0  0  0  0  0  0  0  0
  -25.3750  -13.9090   20.4640 C   0  0  0  0  0  0  0  0  0  0  0  0
  -24.3400  -13.1180   20.8800 C   0  0  0  0  0  0  0  0  0  0  0  0
  -24.8010  -11.7710   20.7610 C   0  0  0  0  0  0  0  0  0  0  0  0
  -26.3950  -13.0440   20.1090 N   0  0  0  0  0  0  0  0  0  0  0  0
  -26.0650  -11.7490   20.3540 N   0  0  0  0  0  0  0  0  0  0  0  0
  -24.0880  -10.5010   20.9530 C   0  0  0  0  0  0  0  0  0  0  0  0
  -24.5410   -9.5310   21.8750 C   0  0  0  0  0  3  0  0  0  0  0  0
  -23.8260   -8.3260   22.0570 C   0  0  0  0  0  3  0  0  0  0  0  0
  -22.6440   -8.0840   21.3180 C   0  0  0  0  0  0  0  0  0  0  0  0
  -22.2100   -9.0440   20.3860 C   0  0  0  0  0  3  0  0  0  0  0  0
  -22.9250  -10.2380   20.2020 C   0  0  0  0  0  3  0  0  0  0  0  0
  -21.8990   -6.9330   21.4100 O   0  0  0  0  0  0  0  0  0  0  0  0
  -21.8100   -6.2260   22.5820 C   0  0  0  0  0  0  0  0  0  0  0  0
  -21.3280   -6.8130   23.7730 C   0  0  0  0  0  3  0  0  0  0  0  0
  -21.1860   -6.0310   24.9370 C   0  0  0  0  0  3  0  0  0  0  0  0
  -21.5170   -4.6630   24.9100 C   0  0  0  0  0  0  0  0  0  0  0  0
  -21.9920   -4.0760   23.7250 C   0  0  0  0  0  3  0  0  0  0  0  0
  -22.1340   -4.8550   22.5630 C   0  0  0  0  0  0  0  0  0  0  0  0
  -22.5730   -4.2780   21.4180 F   0  0  0  0  0  0  0  0  0  0  0  0
  -21.3750   -3.9100   26.0260 F   0  0  0  0  0  0  0  0  0  0  0  0
  -22.9670  -13.5820   21.2680 C   0  0  0  0  0  0  0  0  0  0  0  0
  -22.3090  -12.8610   22.1690 N   0  0  0  0  0  0  0  0  0  0  0  0
  -22.4890  -14.6200   20.8100 O   0  0  0  0  0  0  0  0  0  0  0  0
  -22.7110  -12.0230   22.5610 H   0  0  0  0  0  0  0  0  0  0  0  0
  -21.3900  -13.1540   22.4730 H   0  0  0  0  0  0  0  0  0  0  0  0
  -25.5290  -15.2860   20.3310 N   0  0  0  0  0  0  0  0  0  0  0  0
  -24.7770  -15.9390   20.5300 H   0  0  0  0  0  0  0  0  0  0  0  0
  -26.3600  -15.7370   19.9680 H   0  0  0  0  0  0  0  0  0  0  0  0
  1  4  1  0
  2  4  1  0
  2  3  1  0
  2  1  1  0
  3  6  1  0
  3  1  1  0
  4  5  1  1
  6  7  1  0
  8 19  2  0
  9  7  1  0
  9 14  1  0
 10 18  1  0
 10 20  1  0
 11 17  1  0
 11 13  1  0
 12 18  1  0
 13 14  2  0
 13 12  1  0
 15  9  2  0
 16 15  1  0
 16 11  2  0
 17 10  1  0
 18  8  1  0
 20 22  2  0
 21 20  1  0
 23 21  1  0
 24 33  2  0
 24 29  1  0
 25 21  1  0
 25 29  1  0
 26 25  1  0
 27 28  1  0
 27 26  1  0
 28 24  1  0
 29 30  2  0
 30 31  1  0
 32 31  2  0
 33 32  1  0
 34  8  1  0
 34 35  1  0
 34 44  1  0
 35 38  1  0
 36 40  1  0
 36 35  1  0
 37 36  2  0
 40 39  1  0
 42 43  1  0
 42 40  1  0
 42 41  1  0
 44 47  1  1
 44 45  1  0
 46 44  1  0
 48  4  1  0
 49 60  1  0
 50 55  1  0
 51 52  1  0
 51 50  1  0
 53 52  1  0
 53 64  1  0
 53 54  1  0
 55 49  1  0
 55 54  1  0
 56 49  2  0
 58 57  1  0
 59 48  1  0
 59 57  1  0
 60 59  1  0
 60 58  1  0
 61 62  2  0
 62 81  1  0
 63 62  1  0
 63 66  1  0
 64 65  1  0
 64 61  1  0
 65 63  2  0
 66 67  1  0
 67 68  2  0
 69 72  1  0
 69 68  1  0
 70 69  2  0
 71 70  1  0
 71 66  2  0
 72 73  1  0
 73 74  1  0
 74 75  2  0
 76 75  1  0
 76 80  1  0
 77 76  2  0
 78 73  2  0
 78 77  1  0
 79 78  1  0
 81 82  1  0
 82 85  1  0
 82 84  1  0
 83 81  2  0
 86 61  1  0
 86 87  1  0
 88 86  1  0
M  ISO  4   6 101   7 101  49 100  60 100
M  END
>  <TORSDO>  (73) 
F 18

>  <SCORE>  (73) 
-15.464

>  <name>  (73) 
72

>  <ligand_id>  (73) 
72

>  <original_smiles>  (73) 
[H]c1c([H])c([H])c2c(c1[H])C([H])([H])C([H])([H])C([H])([H])C2([H])N([H])C(=O)C1([H])N(C(=O)C([H])(N([H])C(=O)C([H])(N([H])C([H])([H])[H])C([H])([H])[H])C(C([H])([H])[H])(C([H])([H])[H])C([H])([H])[H])C([H])([H])c2c([H])c(OC([H])([H])C3([H])C([H])([H])[N+]([H])(C([H])([H])C4([H])N(C(=O)N5C([H])([H])C([H])([H])C([H])([H])C([H])(n6nc(-c7c([H])c([H])c(Oc8c([H])c([H])c(F)c([H])c8F)c([H])c7[H])c(C(=O)N([H])[H])c6N([H])[H])C5([H])[H])C([H])([H])C4([H])[H])C3([H])[H])c([H])c([H])c2C1([H])[H]

>  <smiles>  (73) 
[H]c1c([H])c([H])c2c(c1[H])C([H])([H])C([H])([H])C([H])([H])C2([H])N([H])C(=O)C1([H])N(C(=O)C([H])(N([H])C(=O)C([H])(N([H])C([H])([H])[H])C([H])([H])[H])C(C([H])([H])[H])(C([H])([H])[H])C([H])([H])[H])C([H])([H])c2c([H])c(OC([H])([H])C3([H])C([H])([H])[N+]([H])(C([H])([H])C4([H])N(C(=O)N5C([H])([H])C([H])([H])C([H])([H])C([H])(n6nc(-c7c([H])c([H])c(Oc8c([H])c([H])c(F)c([H])c8F)c([H])c7[H])c(C(=O)N([H])[H])c6N([H])[H])C5([H])[H])C([H])([H])C4([H])[H])C3([H])[H])c([H])c([H])c2C1([H])[H]

$$$$
73:0:0
     RDKit          3D

 92101  0  0  1  0  0  0  0  0999 V2000
  -28.1160  -22.3070   18.2920 C   0  0  0  0  0  0  0  0  0  0  0  0
  -28.8260  -23.5700   20.0000 C   0  0  0  0  0  0  0  0  0  0  0  0
  -29.3430  -21.2910   19.8510 C   0  0  0  0  0  0  0  0  0  0  0  0
  -27.3330  -22.2030   17.0000 C   0  0  0  0  0  1  0  0  0  0  0  0
  -28.1560  -23.5140   18.8540 N   0  0  0  0  0  4  0  0  0  0  0  0
  -28.6640  -21.1730   18.7270 N   0  0  0  0  0  0  0  0  0  0  0  0
  -29.4600  -22.4660   20.5380 N   0  0  0  0  0  2  0  0  0  0  0  0
  -29.9900  -20.0770   20.2970 N   0  0  0  0  0  0  0  0  0  0  0  0
  -30.5540  -20.2230   21.1250 H   0  0  0  0  0  0  0  0  0  0  0  0
  -30.9840  -14.8470   19.9630 C   0  0  0  0  0  0  0  0  0  0  0  0
  -30.7040  -12.5540   18.9510 C   0  0  0  0  0  2  0  0  0  0  0  0
  -29.7030  -12.5830   17.7730 C   0  0  0  0  0  2  0  0  0  0  0  0
  -28.2570  -12.4030   18.2780 C   0  0  0  0  0  2  0  0  0  0  0  0
  -27.9450  -13.2990   19.5050 C   0  0  0  0  0  3  0  0  0  0  0  0
  -29.0650  -13.2140   20.5660 C   0  0  0  0  0  2  0  0  0  0  0  0
  -30.3120  -13.6290   19.9060 N   0  0  0  0  0  0  0  0  0  0  0  0
  -32.1480  -14.8680   19.5460 O   0  0  0  0  0  0  0  0  0  0  0  0
  -28.9600  -17.9020   21.1750 C   0  0  0  0  0  2  0  0  0  0  0  0
  -29.1440  -16.3640   21.0030 C   0  0  0  0  0  2  0  0  0  0  0  0
  -30.8110  -17.4840   19.7890 C   0  0  0  0  0  2  0  0  0  0  0  0
  -29.6710  -18.6000   20.0110 C   0  0  0  0  0  3  0  0  0  0  0  0
  -30.3250  -16.0850   20.1720 N   0  0  0  0  0  0  0  0  0  0  0  0
  -25.6180  -13.9150   20.3920 C   0  0  0  0  0  0  0  0  0  0  0  0
  -24.5620  -13.1520   20.8060 C   0  0  0  0  0  0  0  0  0  0  0  0
  -24.9930  -11.7940   20.7050 C   0  0  0  0  0  0  0  0  0  0  0  0
  -26.6280  -13.0230   20.0680 N   0  0  0  0  0  0  0  0  0  0  0  0
  -26.2630  -11.7400   20.3180 N   0  0  0  0  0  0  0  0  0  0  0  0
  -24.2500  -10.5430   20.8950 C   0  0  0  0  0  0  0  0  0  0  0  0
  -24.6550   -9.5810   21.8470 C   0  0  0  0  0  3  0  0  0  0  0  0
  -23.9110   -8.3940   22.0240 C   0  0  0  0  0  3  0  0  0  0  0  0
  -22.7490   -8.1630   21.2510 C   0  0  0  0  0  0  0  0  0  0  0  0
  -22.3630   -9.1140   20.2890 C   0  0  0  0  0  3  0  0  0  0  0  0
  -23.1090  -10.2910   20.1090 C   0  0  0  0  0  3  0  0  0  0  0  0
  -21.9780   -7.0280   21.3370 O   0  0  0  0  0  0  0  0  0  0  0  0
  -21.8130   -6.3600   22.5240 C   0  0  0  0  0  0  0  0  0  0  0  0
  -21.2410   -6.9820   23.6550 C   0  0  0  0  0  3  0  0  0  0  0  0
  -21.0250   -6.2380   24.8330 C   0  0  0  0  0  3  0  0  0  0  0  0
  -21.3710   -4.8740   24.8790 C   0  0  0  0  0  0  0  0  0  0  0  0
  -21.9360   -4.2530   23.7510 C   0  0  0  0  0  3  0  0  0  0  0  0
  -22.1530   -4.9940   22.5760 C   0  0  0  0  0  0  0  0  0  0  0  0
  -22.6780   -4.3850   21.4850 F   0  0  0  0  0  0  0  0  0  0  0  0
  -21.1570   -4.1580   26.0070 F   0  0  0  0  0  0  0  0  0  0  0  0
  -23.1950  -13.6500   21.1730 C   0  0  0  0  0  0  0  0  0  0  0  0
  -22.5020  -12.9450   22.0590 N   0  0  0  0  0  0  0  0  0  0  0  0
  -22.7520  -14.7020   20.7110 O   0  0  0  0  0  0  0  0  0  0  0  0
  -22.8750  -12.0950   22.4570 H   0  0  0  0  0  0  0  0  0  0  0  0
  -21.5870  -13.2610   22.3490 H   0  0  0  0  0  0  0  0  0  0  0  0
  -25.7850  -15.2870   20.2360 N   0  0  0  0  0  0  0  0  0  0  0  0
  -25.0270  -15.9400   20.4060 H   0  0  0  0  0  0  0  0  0  0  0  0
  -26.6000  -15.7230   19.8270 H   0  0  0  0  0  0  0  0  0  0  0  0
  -28.6700  -24.9610   20.8120 C   0  0  0  0  0  2  0  0  0  0  0  0
  -28.7700  -26.3490   20.1980 O   0  0  0  0  0  0  0  0  0  0  0  0
  -24.6630  -31.6580   23.1090 C   0  0  0  0  0  0  0  0  0  0  0  0
  -27.6330  -27.1980   20.1670 C   0  0  0  0  0  0  0  0  0  0  0  0
  -23.6120  -30.2210   21.4010 C   0  0  0  0  0  3  0  0  0  0  0  0
  -25.2050  -28.7430   20.0390 C   0  0  0  0  0  0  0  0  0  0  0  0
  -26.1440  -30.6470   21.3470 C   0  0  0  0  0  2  0  0  0  0  0  0
  -26.3250  -29.2730   20.6970 C   0  0  0  0  0  0  0  0  0  0  0  0
  -27.5440  -28.5160   20.7410 C   0  0  0  0  0  3  0  0  0  0  0  0
  -26.4890  -26.7360   19.4860 C   0  0  0  0  0  3  0  0  0  0  0  0
  -25.2950  -27.4860   19.4210 C   0  0  0  0  0  3  0  0  0  0  0  0
  -23.9290  -29.5650   20.0290 C   0  0  0  0  0  2  0  0  0  0  0  0
  -24.8230  -30.8620   22.0090 N   0  0  0  0  0  0  0  0  0  0  0  0
  -23.5430  -31.8780   23.5920 O   0  0  0  0  0  0  0  0  0  0  0  0
  -22.9490  -29.1680   22.3210 C   0  0  0  0  0  0  0  0  0  0  0  0
  -21.6250  -28.9780   22.1750 N   0  0  0  0  0  0  0  0  0  0  0  0
  -23.6250  -28.5240   23.1270 O   0  0  0  0  0  0  0  0  0  0  0  0
  -21.1370  -29.5500   21.5000 H   0  0  0  0  0  0  0  0  0  0  0  0
  -18.2490  -27.7660   22.6590 C   0  0  0  0  0  0  0  0  0  0  0  0
  -20.8130  -28.0040   22.9060 C   0  0  0  0  0  3  0  0  0  0  0  0
  -20.9000  -26.6040   22.2530 C   0  0  0  0  0  2  0  0  0  0  0  0
  -19.7840  -26.3410   21.2380 C   0  0  0  0  0  2  0  0  0  0  0  0
  -18.4110  -26.4550   21.9080 C   0  0  0  0  0  2  0  0  0  0  0  0
  -19.3760  -28.5010   23.1140 C   0  0  0  0  0  0  0  0  0  0  0  0
  -19.1690  -29.7300   23.7770 C   0  0  0  0  0  3  0  0  0  0  0  0
  -17.8690  -30.2240   23.9880 C   0  0  0  0  0  3  0  0  0  0  0  0
  -16.7560  -29.4850   23.5480 C   0  0  0  0  0  3  0  0  0  0  0  0
  -16.9480  -28.2580   22.8890 C   0  0  0  0  0  3  0  0  0  0  0  0
  -25.8790  -32.3470   23.7990 C   0  0  0  0  0  3  0  0  0  0  0  0
  -25.4820  -33.7240   24.1340 N   0  0  0  0  0  0  0  0  0  0  0  0
  -25.7780  -34.8040   23.3980 C   0  0  0  0  0  0  0  0  0  0  0  0
  -26.4840  -34.7500   22.3870 O   0  0  0  0  0  0  0  0  0  0  0  0
  -24.8560  -33.8350   24.9180 H   0  0  0  0  0  0  0  0  0  0  0  0
  -23.9600  -36.5020   23.0200 C   0  0  0  0  0  1  0  0  0  0  0  0
  -25.2030  -36.1590   23.8560 C   0  0  0  0  0  3  0  0  0  0  0  0
  -27.2580  -37.1610   24.7530 C   0  0  0  0  0  1  0  0  0  0  0  0
  -26.1770  -37.2690   23.7760 N   0  0  0  0  0  0  0  0  0  0  0  0
  -25.7140  -38.1640   23.9130 H   0  0  0  0  0  0  0  0  0  0  0  0
  -26.3730  -31.5860   25.0910 C   0  0  1  0  0  0  0  0  0  0  0  0
  -25.2440  -31.2800   26.1020 C   0  0  0  0  0  1  0  0  0  0  0  0
  -27.0430  -30.2440   24.7150 C   0  0  0  0  0  1  0  0  0  0  0  0
  -27.4490  -32.4270   25.8180 C   0  0  0  0  0  1  0  0  0  0  0  0
  1  6  1  0
  1  5  2  0
  2  7  1  0
  2 51  1  0
  3  8  1  0
  3  7  1  0
  4  1  1  0
  5  2  2  0
  6  3  2  0
  8  9  1  0
 10 22  1  0
 11 16  1  0
 12 13  1  0
 12 11  1  0
 14 13  1  0
 14 26  1  0
 14 15  1  0
 16 10  1  0
 16 15  1  0
 17 10  2  0
 19 18  1  0
 20 21  1  0
 20 22  1  0
 21  8  1  0
 21 18  1  0
 22 19  1  0
 23 24  2  0
 24 43  1  0
 25 24  1  0
 25 28  1  0
 26 27  1  0
 26 23  1  0
 27 25  2  0
 28 29  1  0
 29 30  2  0
 31 34  1  0
 31 30  1  0
 32 31  2  0
 33 32  1  0
 33 28  2  0
 34 35  1  0
 35 40  2  0
 35 36  1  0
 36 37  2  0
 37 38  1  0
 38 42  1  0
 39 38  2  0
 40 39  1  0
 41 40  1  0
 43 44  1  0
 44 47  1  0
 44 46  1  0
 45 43  2  0
 48 23  1  0
 48 49  1  0
 50 48  1  0
 52 51  1  0
 53 64  2  0
 54 52  1  0
 54 59  1  0
 55 63  1  0
 55 65  1  0
 56 58  1  0
 57 63  1  0
 58 59  2  0
 58 57  1  0
 60 54  2  0
 61 60  1  0
 61 56  2  0
 62 56  1  0
 62 55  1  0
 63 53  1  0
 65 67  2  0
 66 65  1  0
 68 66  1  0
 69 78  2  0
 69 74  1  0
 70 66  1  0
 70 74  1  0
 71 70  1  0
 72 73  1  0
 72 71  1  0
 73 69  1  0
 74 75  2  0
 75 76  1  0
 77 76  2  0
 78 77  1  0
 79 53  1  0
 79 80  1  0
 79 89  1  0
 80 83  1  0
 81 85  1  0
 81 80  1  0
 82 81  2  0
 85 84  1  0
 87 85  1  0
 87 88  1  0
 87 86  1  0
 89 92  1  1
 89 90  1  0
 91 89  1  0
M  ISO  4  10 100  22 100  51 101  52 101
M  END
>  <TORSDO>  (74) 
F 17

>  <SCORE>  (74) 
-13.416

>  <name>  (74) 
73

>  <ligand_id>  (74) 
73

>  <original_smiles>  (74) 
[H]c1c([H])c([H])c2c(c1[H])C([H])([H])C([H])([H])C([H])([H])C2([H])N([H])C(=O)C1([H])N(C(=O)C([H])(N([H])C(=O)C([H])(N([H])C([H])([H])[H])C([H])([H])[H])C(C([H])([H])[H])(C([H])([H])[H])C([H])([H])[H])C([H])([H])c2c([H])c(OC([H])([H])c3nc(N([H])C4([H])C([H])([H])N(C(=O)N5C([H])([H])C([H])([H])C([H])([H])C([H])(n6nc(-c7c([H])c([H])c(Oc8c([H])c([H])c(F)c([H])c8F)c([H])c7[H])c(C(=O)N([H])[H])c6N([H])[H])C5([H])[H])C([H])([H])C4([H])[H])nc(C([H])([H])[H])n3)c([H])c([H])c2C1([H])[H]

>  <smiles>  (74) 
[H]c1c([H])c([H])c2c(c1[H])C([H])([H])C([H])([H])C([H])([H])C2([H])N([H])C(=O)C1([H])N(C(=O)C([H])(N([H])C(=O)C([H])(N([H])C([H])([H])[H])C([H])([H])[H])C(C([H])([H])[H])(C([H])([H])[H])C([H])([H])[H])C([H])([H])c2c([H])c(OC([H])([H])c3nc(N([H])C4([H])C([H])([H])N(C(=O)N5C([H])([H])C([H])([H])C([H])([H])C([H])(n6nc(-c7c([H])c([H])c(Oc8c([H])c([H])c(F)c([H])c8F)c([H])c7[H])c(C(=O)N([H])[H])c6N([H])[H])C5([H])[H])C([H])([H])C4([H])[H])nc(C([H])([H])[H])n3)c([H])c([H])c2C1([H])[H]

$$$$
74:0:0
     RDKit          3D

 88 97  0  0  1  0  0  0  0  0999 V2000
  -28.6210  -22.3050   22.1210 C   0  0  0  0  0  1  0  0  0  0  0  0
  -28.8760  -22.2730   20.6040 C   0  0  0  0  0  3  0  0  0  0  0  0
  -30.3770  -15.5140   20.3360 C   0  0  0  0  0  0  0  0  0  0  0  0
  -30.4250  -12.9950   19.5200 C   0  0  0  0  0  2  0  0  0  0  0  0
  -29.5390  -12.6150   18.3040 C   0  0  0  0  0  2  0  0  0  0  0  0
  -28.1110  -12.2800   18.7600 C   0  0  0  0  0  2  0  0  0  0  0  0
  -27.5990  -13.2950   19.8080 C   0  0  0  0  0  3  0  0  0  0  0  0
  -28.6230  -13.6030   20.9240 C   0  0  0  0  0  2  0  0  0  0  0  0
  -29.8100  -14.1810   20.2610 N   0  0  0  0  0  0  0  0  0  0  0  0
  -31.6100  -15.4240   20.1770 O   0  0  0  0  0  0  0  0  0  0  0  0
  -30.5140  -19.0420   21.2900 C   0  0  0  0  0  2  0  0  0  0  0  0
  -30.0350  -18.0920   19.2780 C   0  0  0  0  0  2  0  0  0  0  0  0
  -28.2570  -19.3730   20.9030 C   0  0  0  0  0  2  0  0  0  0  0  0
  -29.3260  -18.0780   21.2440 C   0  0  0  0  0  3  0  0  0  0  0  0
  -30.1630  -19.6570   19.9380 C   0  0  0  0  0  3  0  0  0  0  0  0
  -29.6870  -16.8950   20.2360 N   0  0  0  0  0  0  0  0  0  0  0  0
  -28.8870  -20.5870   20.1220 N   0  0  2  0  0  4  0  0  0  0  0  0
  -28.4600  -20.5990   19.2060 H   0  0  0  0  0  0  0  0  0  0  0  0
  -25.2370  -13.8280   20.5790 C   0  0  0  0  0  0  0  0  0  0  0  0
  -24.1740  -13.0450   20.9280 C   0  0  0  0  0  0  0  0  0  0  0  0
  -24.6420  -11.6950   20.8770 C   0  0  0  0  0  0  0  0  0  0  0  0
  -26.2790  -12.9570   20.3230 N   0  0  0  0  0  0  0  0  0  0  0  0
  -25.9360  -11.6660   20.5710 N   0  0  0  0  0  0  0  0  0  0  0  0
  -23.9120  -10.4300   21.0410 C   0  0  0  0  0  0  0  0  0  0  0  0
  -24.3650   -9.4210   21.9190 C   0  0  0  0  0  3  0  0  0  0  0  0
  -23.6310   -8.2250   22.0750 C   0  0  0  0  0  3  0  0  0  0  0  0
  -22.4290   -8.0300   21.3550 C   0  0  0  0  0  0  0  0  0  0  0  0
  -21.9950   -9.0270   20.4640 C   0  0  0  0  0  3  0  0  0  0  0  0
  -22.7290  -10.2140   20.3050 C   0  0  0  0  0  3  0  0  0  0  0  0
  -21.6640   -6.8900   21.4250 O   0  0  0  0  0  0  0  0  0  0  0  0
  -21.6860   -6.0750   22.5280 C   0  0  0  0  0  0  0  0  0  0  0  0
  -21.4010   -6.5650   23.8220 C   0  0  0  0  0  3  0  0  0  0  0  0
  -21.3650   -5.6800   24.9180 C   0  0  0  0  0  3  0  0  0  0  0  0
  -21.6040   -4.3060   24.7220 C   0  0  0  0  0  0  0  0  0  0  0  0
  -21.8820   -3.8160   23.4340 C   0  0  0  0  0  3  0  0  0  0  0  0
  -21.9190   -4.6980   22.3400 C   0  0  0  0  0  0  0  0  0  0  0  0
  -22.1660   -4.2160   21.0980 F   0  0  0  0  0  0  0  0  0  0  0  0
  -21.5620   -3.4540   25.7730 F   0  0  0  0  0  0  0  0  0  0  0  0
  -22.7750  -13.5190   21.1910 C   0  0  0  0  0  0  0  0  0  0  0  0
  -22.0400  -12.8180   22.0450 N   0  0  0  0  0  0  0  0  0  0  0  0
  -22.3430  -14.5500   20.6740 O   0  0  0  0  0  0  0  0  0  0  0  0
  -22.4010  -11.9840   22.4840 H   0  0  0  0  0  0  0  0  0  0  0  0
  -21.1010  -13.1180   22.2630 H   0  0  0  0  0  0  0  0  0  0  0  0
  -25.4030  -15.2020   20.4250 N   0  0  0  0  0  0  0  0  0  0  0  0
  -24.6380  -15.8570   20.5430 H   0  0  0  0  0  0  0  0  0  0  0  0
  -26.2590  -15.6430   20.1140 H   0  0  0  0  0  0  0  0  0  0  0  0
  -28.0680  -23.8870   20.0120 C   0  0  0  0  0  2  0  0  0  0  0  0
  -28.1960  -25.5910   20.2980 O   0  0  0  0  0  0  0  0  0  0  0  0
  -24.6770  -31.8060   23.1560 C   0  0  0  0  0  0  0  0  0  0  0  0
  -27.2210  -26.7710   20.1950 C   0  0  0  0  0  0  0  0  0  0  0  0
  -23.5000  -30.4110   21.5070 C   0  0  0  0  0  3  0  0  0  0  0  0
  -24.9540  -28.7650   20.1120 C   0  0  0  0  0  0  0  0  0  0  0  0
  -26.0760  -30.5620   21.4060 C   0  0  0  0  0  2  0  0  0  0  0  0
  -26.1430  -29.1340   20.7550 C   0  0  0  0  0  0  0  0  0  0  0  0
  -27.2620  -28.1610   20.7690 C   0  0  0  0  0  3  0  0  0  0  0  0
  -26.0040  -26.5960   19.4910 C   0  0  0  0  0  3  0  0  0  0  0  0
  -24.9190  -27.5200   19.4600 C   0  0  0  0  0  3  0  0  0  0  0  0
  -23.7490  -29.7130   20.1400 C   0  0  0  0  0  2  0  0  0  0  0  0
  -24.7740  -30.9570   22.0770 N   0  0  0  0  0  0  0  0  0  0  0  0
  -23.5800  -32.1100   23.6560 O   0  0  0  0  0  0  0  0  0  0  0  0
  -22.7730  -29.4340   22.4700 C   0  0  0  0  0  0  0  0  0  0  0  0
  -21.4380  -29.3030   22.3470 N   0  0  0  0  0  0  0  0  0  0  0  0
  -23.4210  -28.7920   23.3000 O   0  0  0  0  0  0  0  0  0  0  0  0
  -20.9650  -29.8750   21.6620 H   0  0  0  0  0  0  0  0  0  0  0  0
  -18.0330  -28.1420   22.8450 C   0  0  0  0  0  0  0  0  0  0  0  0
  -20.5970  -28.3770   23.1150 C   0  0  0  0  0  3  0  0  0  0  0  0
  -20.6800  -26.9440   22.5390 C   0  0  0  0  0  2  0  0  0  0  0  0
  -19.5780  -26.6380   21.5200 C   0  0  0  0  0  2  0  0  0  0  0  0
  -18.1960  -26.7950   22.1610 C   0  0  0  0  0  2  0  0  0  0  0  0
  -19.1600  -28.8920   23.2780 C   0  0  0  0  0  0  0  0  0  0  0  0
  -18.9510  -30.1500   23.8840 C   0  0  0  0  0  3  0  0  0  0  0  0
  -17.6510  -30.6600   24.0550 C   0  0  0  0  0  3  0  0  0  0  0  0
  -16.5390  -29.9080   23.6360 C   0  0  0  0  0  3  0  0  0  0  0  0
  -16.7320  -28.6500   23.0370 C   0  0  0  0  0  3  0  0  0  0  0  0
  -25.9380  -32.4500   23.8080 C   0  0  0  0  0  3  0  0  0  0  0  0
  -25.5990  -33.8320   24.1980 N   0  0  0  0  0  0  0  0  0  0  0  0
  -25.9110  -34.9310   23.4960 C   0  0  0  0  0  0  0  0  0  0  0  0
  -26.5740  -34.8880   22.4570 O   0  0  0  0  0  0  0  0  0  0  0  0
  -25.0100  -33.9380   25.0120 H   0  0  0  0  0  0  0  0  0  0  0  0
  -24.1480  -36.7170   23.2650 C   0  0  0  0  0  1  0  0  0  0  0  0
  -25.4130  -36.2920   24.0290 C   0  0  0  0  0  3  0  0  0  0  0  0
  -27.5550  -37.1730   24.8470 C   0  0  0  0  0  1  0  0  0  0  0  0
  -26.4260  -37.3660   23.9420 N   0  0  0  0  0  0  0  0  0  0  0  0
  -26.0090  -38.2710   24.1450 H   0  0  0  0  0  0  0  0  0  0  0  0
  -26.4590  -31.6510   25.0670 C   0  0  1  0  0  0  0  0  0  0  0  0
  -25.3660  -31.3810   26.1290 C   0  0  0  0  0  1  0  0  0  0  0  0
  -27.0500  -30.2870   24.6500 C   0  0  0  0  0  1  0  0  0  0  0  0
  -27.6050  -32.4360   25.7480 C   0  0  0  0  0  1  0  0  0  0  0  0
  2  1  1  0
  4  9  1  0
  5  6  1  0
  5  4  1  0
  7  6  1  0
  7 22  1  0
  7  8  1  0
  9  3  1  0
  9  8  1  0
 10  3  2  0
 12 16  1  0
 14 13  1  0
 14 11  1  0
 15 12  1  0
 15 17  1  0
 15 11  1  0
 16  3  1  0
 16 14  1  0
 17  2  1  0
 17 13  1  0
 17 18  1  6
 19 20  2  0
 20 39  1  0
 21 20  1  0
 21 24  1  0
 22 23  1  0
 22 19  1  0
 23 21  2  0
 24 25  1  0
 25 26  2  0
 27 30  1  0
 27 26  1  0
 28 27  2  0
 29 28  1  0
 29 24  2  0
 30 31  1  0
 31 32  1  0
 32 33  2  0
 34 33  1  0
 34 38  1  0
 35 34  2  0
 36 31  2  0
 36 35  1  0
 37 36  1  0
 39 40  1  0
 40 43  1  0
 40 42  1  0
 41 39  2  0
 44 45  1  0
 44 19  1  0
 46 44  1  0
 47 48  1  0
 47  2  1  0
 49 60  2  0
 50 48  1  0
 50 55  1  0
 51 59  1  0
 51 61  1  0
 52 58  1  0
 52 54  1  0
 53 59  1  0
 54 55  2  0
 54 53  1  0
 56 50  2  0
 57 56  1  0
 57 52  2  0
 58 51  1  0
 59 49  1  0
 61 63  2  0
 62 61  1  0
 64 62  1  0
 65 74  2  0
 65 70  1  0
 66 62  1  0
 66 70  1  0
 67 66  1  0
 68 69  1  0
 68 67  1  0
 69 65  1  0
 70 71  2  0
 71 72  1  0
 73 72  2  0
 74 73  1  0
 75 49  1  0
 75 76  1  0
 75 85  1  0
 76 79  1  0
 77 81  1  0
 77 76  1  0
 78 77  2  0
 81 80  1  0
 83 81  1  0
 83 84  1  0
 83 82  1  0
 85 88  1  1
 85 86  1  0
 87 85  1  0
M  ISO  4   3 100  16 100  47 101  48 101
M  END
>  <TORSDO>  (75) 
F 17

>  <SCORE>  (75) 
-15.759

>  <name>  (75) 
74

>  <ligand_id>  (75) 
74

>  <original_smiles>  (75) 
[H]c1c([H])c([H])c2c(c1[H])C([H])([H])C([H])([H])C([H])([H])C2([H])N([H])C(=O)C1([H])N(C(=O)C([H])(N([H])C(=O)C([H])(N([H])C([H])([H])[H])C([H])([H])[H])C(C([H])([H])[H])(C([H])([H])[H])C([H])([H])[H])C([H])([H])c2c([H])c(OC([H])([H])C([H])(C([H])([H])[H])[N+]3([H])C([H])([H])C4([H])N(C(=O)N5C([H])([H])C([H])([H])C([H])([H])C([H])(n6nc(-c7c([H])c([H])c(Oc8c([H])c([H])c(F)c([H])c8F)c([H])c7[H])c(C(=O)N([H])[H])c6N([H])[H])C5([H])[H])C([H])([H])C3([H])C4([H])[H])c([H])c([H])c2C1([H])[H]

>  <smiles>  (75) 
[H]c1c([H])c([H])c2c(c1[H])C([H])([H])C([H])([H])C([H])([H])C2([H])N([H])C(=O)C1([H])N(C(=O)C([H])(N([H])C(=O)C([H])(N([H])C([H])([H])[H])C([H])([H])[H])C(C([H])([H])[H])(C([H])([H])[H])C([H])([H])[H])C([H])([H])c2c([H])c(OC([H])([H])C([H])(C([H])([H])[H])[N+]3([H])C([H])([H])C4([H])N(C(=O)N5C([H])([H])C([H])([H])C([H])([H])C([H])(n6nc(-c7c([H])c([H])c(Oc8c([H])c([H])c(F)c([H])c8F)c([H])c7[H])c(C(=O)N([H])[H])c6N([H])[H])C5([H])[H])C([H])([H])C3([H])C4([H])[H])c([H])c([H])c2C1([H])[H]

$$$$
75:0:0
     RDKit          3D

 92101  0  0  1  0  0  0  0  0999 V2000
  -29.4090  -23.3680   19.7020 C   0  0  0  0  0  2  0  0  0  0  0  0
  -27.3600  -23.8110   20.7920 C   0  0  0  0  0  2  0  0  0  0  0  0
  -28.7750  -21.8050   19.8070 C   0  0  0  0  0  3  0  0  0  0  0  0
  -27.7520  -22.2450   20.9070 C   0  0  0  0  0  3  0  0  0  0  0  0
  -28.2820  -24.6290   19.8230 C   0  0  0  0  0  3  0  0  0  0  0  0
  -30.8480  -15.5260   20.0370 C   0  0  0  0  0  0  0  0  0  0  0  0
  -30.7410  -13.0950   19.1920 C   0  0  0  0  0  2  0  0  0  0  0  0
  -29.7950  -12.8730   17.9900 C   0  0  0  0  0  2  0  0  0  0  0  0
  -28.3620  -12.6070   18.4790 C   0  0  0  0  0  2  0  0  0  0  0  0
  -27.9350  -13.5910   19.5980 C   0  0  0  0  0  3  0  0  0  0  0  0
  -29.0110  -13.7840   20.6850 C   0  0  0  0  0  2  0  0  0  0  0  0
  -30.2190  -14.2580   19.9940 N   0  0  0  0  0  0  0  0  0  0  0  0
  -32.0730  -15.4530   19.8560 O   0  0  0  0  0  0  0  0  0  0  0  0
  -28.9650  -17.4970   19.6040 C   0  0  0  0  0  3  0  0  0  0  0  0
  -30.9770  -18.1450   20.5690 C   0  0  0  0  0  3  0  0  0  0  0  0
  -28.8790  -19.1000   19.1040 C   0  0  0  0  0  3  0  0  0  0  0  0
  -30.1960  -19.5690   20.9330 C   0  0  0  0  0  3  0  0  0  0  0  0
  -30.2300  -16.8640   20.1730 N   0  0  0  0  0  0  0  0  0  0  0  0
  -29.4410  -20.3060   19.8560 N   0  0  0  0  0  0  0  0  0  0  0  0
  -25.6030  -14.1370   20.4660 C   0  0  0  0  0  0  0  0  0  0  0  0
  -24.5500  -13.3530   20.8470 C   0  0  0  0  0  0  0  0  0  0  0  0
  -25.0080  -12.0030   20.7570 C   0  0  0  0  0  0  0  0  0  0  0  0
  -26.6290  -13.2660   20.1550 N   0  0  0  0  0  0  0  0  0  0  0  0
  -26.2880  -11.9740   20.4000 N   0  0  0  0  0  0  0  0  0  0  0  0
  -24.2820  -10.7390   20.9310 C   0  0  0  0  0  0  0  0  0  0  0  0
  -24.6780   -9.7840   21.8930 C   0  0  0  0  0  3  0  0  0  0  0  0
  -23.9490   -8.5870   22.0560 C   0  0  0  0  0  3  0  0  0  0  0  0
  -22.8100   -8.3340   21.2550 C   0  0  0  0  0  0  0  0  0  0  0  0
  -22.4330   -9.2780   20.2820 C   0  0  0  0  0  3  0  0  0  0  0  0
  -23.1630  -10.4660   20.1180 C   0  0  0  0  0  3  0  0  0  0  0  0
  -22.0550   -7.1890   21.3260 O   0  0  0  0  0  0  0  0  0  0  0  0
  -21.8780   -6.5140   22.5080 C   0  0  0  0  0  0  0  0  0  0  0  0
  -21.2620   -7.1190   23.6250 C   0  0  0  0  0  3  0  0  0  0  0  0
  -21.0380   -6.3670   24.7960 C   0  0  0  0  0  3  0  0  0  0  0  0
  -21.4200   -5.0140   24.8500 C   0  0  0  0  0  0  0  0  0  0  0  0
  -22.0290   -4.4090   23.7360 C   0  0  0  0  0  3  0  0  0  0  0  0
  -22.2550   -5.1570   22.5670 C   0  0  0  0  0  0  0  0  0  0  0  0
  -22.8230   -4.5650   21.4900 F   0  0  0  0  0  0  0  0  0  0  0  0
  -21.1990   -4.2900   25.9720 F   0  0  0  0  0  0  0  0  0  0  0  0
  -23.1670  -13.8280   21.1790 C   0  0  0  0  0  0  0  0  0  0  0  0
  -22.4690  -13.1150   22.0560 N   0  0  0  0  0  0  0  0  0  0  0  0
  -22.7140  -14.8660   20.6960 O   0  0  0  0  0  0  0  0  0  0  0  0
  -22.8500  -12.2760   22.4670 H   0  0  0  0  0  0  0  0  0  0  0  0
  -21.5410  -13.4150   22.3220 H   0  0  0  0  0  0  0  0  0  0  0  0
  -25.7660  -15.5120   20.3260 N   0  0  0  0  0  0  0  0  0  0  0  0
  -25.0080  -16.1660   20.4870 H   0  0  0  0  0  0  0  0  0  0  0  0
  -26.6030  -15.9550   19.9690 H   0  0  0  0  0  0  0  0  0  0  0  0
  -26.5730  -21.3640   20.9100 N   0  0  0  0  0  4  0  0  0  0  0  0
  -26.8820  -20.4140   21.0110 H   0  0  0  0  0  0  0  0  0  0  0  0
  -26.0540  -21.4380   20.0520 H   0  0  0  0  0  0  0  0  0  0  0  0
  -25.9650  -21.5800   21.6790 H   0  0  0  0  0  0  0  0  0  0  0  0
  -28.4480  -26.2350   20.0660 O   0  0  0  0  0  0  0  0  0  0  0  0
  -24.7740  -31.9470   23.2580 C   0  0  0  0  0  0  0  0  0  0  0  0
  -27.4030  -27.2800   20.0420 C   0  0  0  0  0  0  0  0  0  0  0  0
  -23.6020  -30.6070   21.5570 C   0  0  0  0  0  3  0  0  0  0  0  0
  -25.0740  -29.0930   20.0700 C   0  0  0  0  0  0  0  0  0  0  0  0
  -26.1610  -30.8740   21.4240 C   0  0  0  0  0  2  0  0  0  0  0  0
  -26.2520  -29.4990   20.7080 C   0  0  0  0  0  0  0  0  0  0  0  0
  -27.4130  -28.6140   20.6700 C   0  0  0  0  0  3  0  0  0  0  0  0
  -26.1930  -27.0130   19.3650 C   0  0  0  0  0  3  0  0  0  0  0  0
  -25.0660  -27.8710   19.3810 C   0  0  0  0  0  3  0  0  0  0  0  0
  -23.8410  -29.9890   20.1540 C   0  0  0  0  0  2  0  0  0  0  0  0
  -24.8670  -31.1670   22.1340 N   0  0  0  0  0  0  0  0  0  0  0  0
  -23.6810  -32.1970   23.7900 O   0  0  0  0  0  0  0  0  0  0  0  0
  -22.9240  -29.5580   22.4770 C   0  0  0  0  0  0  0  0  0  0  0  0
  -21.6050  -29.3460   22.3080 N   0  0  0  0  0  0  0  0  0  0  0  0
  -23.5910  -28.9380   23.3090 O   0  0  0  0  0  0  0  0  0  0  0  0
  -21.1200  -29.9010   21.6170 H   0  0  0  0  0  0  0  0  0  0  0  0
  -18.2630  -27.9890   22.6750 C   0  0  0  0  0  0  0  0  0  0  0  0
  -20.7980  -28.3590   23.0320 C   0  0  0  0  0  3  0  0  0  0  0  0
  -20.9810  -26.9440   22.4340 C   0  0  0  0  0  2  0  0  0  0  0  0
  -19.9280  -26.5960   21.3770 C   0  0  0  0  0  2  0  0  0  0  0  0
  -18.5210  -26.6650   21.9760 C   0  0  0  0  0  2  0  0  0  0  0  0
  -19.3310  -28.7910   23.1560 C   0  0  0  0  0  0  0  0  0  0  0  0
  -19.0340  -30.0270   23.7720 C   0  0  0  0  0  3  0  0  0  0  0  0
  -17.7030  -30.4640   23.9070 C   0  0  0  0  0  3  0  0  0  0  0  0
  -16.6490  -29.6600   23.4400 C   0  0  0  0  0  3  0  0  0  0  0  0
  -16.9290  -28.4230   22.8300 C   0  0  0  0  0  3  0  0  0  0  0  0
  -26.0370  -32.5780   23.9200 C   0  0  0  0  0  3  0  0  0  0  0  0
  -26.5100  -31.8040   25.2120 C   0  0  1  0  0  0  0  0  0  0  0  0
  -25.3840  -31.5710   26.2470 C   0  0  0  0  0  1  0  0  0  0  0  0
  -27.1000  -30.4240   24.8450 C   0  0  0  0  0  1  0  0  0  0  0  0
  -27.6440  -32.5930   25.9100 C   0  0  0  0  0  1  0  0  0  0  0  0
  -25.7200  -33.9780   24.2540 N   0  0  0  0  0  0  0  0  0  0  0  0
  -26.0200  -35.0360   23.4900 C   0  0  0  0  0  0  0  0  0  0  0  0
  -26.6560  -34.9380   22.4380 O   0  0  0  0  0  0  0  0  0  0  0  0
  -25.1480  -34.1260   25.0730 H   0  0  0  0  0  0  0  0  0  0  0  0
  -24.2410  -36.8010   23.2390 C   0  0  0  0  0  1  0  0  0  0  0  0
  -25.5420  -36.4230   23.9660 C   0  0  0  0  0  3  0  0  0  0  0  0
  -27.7050  -37.3670   24.6520 C   0  0  0  0  0  1  0  0  0  0  0  0
  -26.5460  -37.4920   23.7710 N   0  0  0  0  0  0  0  0  0  0  0  0
  -26.1320  -38.4090   23.9210 H   0  0  0  0  0  0  0  0  0  0  0  0
  1  5  1  0
  2  4  1  0
  3  1  1  0
  3 19  1  0
  3  4  1  0
  4 48  1  0
  5 52  1  0
  5  2  1  0
  6 18  1  0
  7 12  1  0
  8  9  1  0
  8  7  1  0
 10  9  1  0
 10 23  1  0
 10 11  1  0
 12  6  1  0
 12 11  1  0
 13  6  2  0
 14 18  1  0
 15 17  2  0
 16 14  2  0
 16 19  1  0
 18 15  1  0
 19 17  1  0
 20 21  2  0
 21 40  1  0
 22 21  1  0
 22 25  1  0
 23 24  1  0
 23 20  1  0
 24 22  2  0
 25 26  1  0
 26 27  2  0
 28 31  1  0
 28 27  1  0
 29 28  2  0
 30 29  1  0
 30 25  2  0
 31 32  1  0
 32 37  2  0
 32 33  1  0
 33 34  2  0
 34 35  1  0
 35 39  1  0
 36 35  2  0
 37 36  1  0
 38 37  1  0
 40 41  1  0
 41 44  1  0
 41 43  1  0
 42 40  2  0
 45 20  1  0
 45 46  1  0
 47 45  1  0
 48 49  1  0
 48 51  1  0
 50 48  1  0
 53 64  2  0
 54 52  1  0
 54 59  1  0
 55 63  1  0
 55 65  1  0
 56 62  1  0
 56 58  1  0
 57 63  1  0
 58 57  1  0
 59 58  2  0
 60 61  1  0
 60 54  2  0
 61 56  2  0
 62 55  1  0
 63 53  1  0
 65 67  2  0
 66 65  1  0
 68 66  1  0
 69 78  2  0
 69 74  1  0
 70 66  1  0
 70 74  1  0
 71 70  1  0
 72 73  1  0
 72 71  1  0
 73 69  1  0
 74 75  2  0
 75 76  1  0
 77 76  2  0
 78 77  1  0
 79 53  1  0
 79 84  1  0
 79 80  1  0
 80 83  1  1
 80 81  1  0
 82 80  1  0
 84 87  1  0
 85 89  1  0
 85 84  1  0
 86 85  2  0
 89 88  1  0
 91 92  1  0
 91 89  1  0
 91 90  1  0
M  ISO  4   5 101   6 100  18 100  52 101
M  END
>  <TORSDO>  (76) 
F 17

>  <SCORE>  (76) 
-13.726

>  <name>  (76) 
75

>  <ligand_id>  (76) 
75

>  <original_smiles>  (76) 
[H]c1c([H])c([H])c2c(c1[H])C([H])([H])C([H])([H])C([H])([H])C2([H])N([H])C(=O)C1([H])N(C(=O)C([H])(N([H])C(=O)C([H])(N([H])C([H])([H])[H])C([H])([H])[H])C(C([H])([H])[H])(C([H])([H])[H])C([H])([H])[H])C([H])([H])c2c([H])c(OC3([H])C([H])([H])C([H])(N4C([H])([H])C([H])([H])N(C(=O)N5C([H])([H])C([H])([H])C([H])([H])C([H])(n6nc(-c7c([H])c([H])c(Oc8c([H])c([H])c(F)c([H])c8F)c([H])c7[H])c(C(=O)N([H])[H])c6N([H])[H])C5([H])[H])C([H])([H])C4([H])[H])C([H])([N+]([H])([H])[H])C3([H])[H])c([H])c([H])c2C1([H])[H]

>  <smiles>  (76) 
[H]c1c([H])c([H])c2c(c1[H])C([H])([H])C([H])([H])C([H])([H])C2([H])N([H])C(=O)C1([H])N(C(=O)C([H])(N([H])C(=O)C([H])(N([H])C([H])([H])[H])C([H])([H])[H])C(C([H])([H])[H])(C([H])([H])[H])C([H])([H])[H])C([H])([H])c2c([H])c(OC3([H])C([H])([H])C([H])(N4C([H])([H])C([H])([H])N(C(=O)N5C([H])([H])C([H])([H])C([H])([H])C([H])(n6nc(-c7c([H])c([H])c(Oc8c([H])c([H])c(F)c([H])c8F)c([H])c7[H])c(C(=O)N([H])[H])c6N([H])[H])C5([H])[H])C([H])([H])C4([H])[H])C([H])([N+]([H])([H])[H])C3([H])[H])c([H])c([H])c2C1([H])[H]

$$$$
76:0:0
     RDKit          3D

 88 98  0  0  1  0  0  0  0  0999 V2000
  -28.8080  -22.3200   21.4970 C   0  0  0  0  0  2  0  0  0  0  0  0
  -28.8640  -23.1620   20.2400 C   0  0  0  0  0  3  0  0  0  0  0  0
  -28.5140  -21.4800   20.2700 C   0  0  0  0  0  3  0  0  0  0  0  0
  -29.4430  -19.0420   21.2220 C   0  0  0  0  0  3  0  0  0  0  0  0
  -29.1950  -18.9800   19.2730 C   0  0  0  0  0  3  0  0  0  0  0  0
  -30.0160  -17.9490   20.1930 C   0  0  0  0  0  3  0  0  0  0  0  0
  -29.4820  -20.1790   20.1910 N   0  0  1  0  0  4  0  0  0  0  0  0
  -30.4370  -20.4690   20.0530 H   0  0  0  0  0  0  0  0  0  0  0  0
  -30.5020  -15.1520   20.1230 C   0  0  0  0  0  0  0  0  0  0  0  0
  -30.4070  -12.7750   19.1910 C   0  0  0  0  0  2  0  0  0  0  0  0
  -29.4430  -12.6810   17.9840 C   0  0  0  0  0  2  0  0  0  0  0  0
  -27.9990  -12.4350   18.4580 C   0  0  0  0  0  2  0  0  0  0  0  0
  -27.6040  -13.3550   19.6430 C   0  0  0  0  0  3  0  0  0  0  0  0
  -28.6910  -13.4130   20.7370 C   0  0  0  0  0  2  0  0  0  0  0  0
  -29.9250  -13.8740   20.0850 N   0  0  0  0  0  0  0  0  0  0  0  0
  -31.7010  -15.2080   19.8230 O   0  0  0  0  0  0  0  0  0  0  0  0
  -29.7230  -16.3580   20.2880 N   0  0  0  0  0  0  0  0  0  0  0  0
  -28.7580  -16.1460   20.4880 H   0  0  0  0  0  0  0  0  0  0  0  0
  -25.2460  -13.8920   20.4710 C   0  0  0  0  0  0  0  0  0  0  0  0
  -24.2030  -13.1000   20.8610 C   0  0  0  0  0  0  0  0  0  0  0  0
  -24.6790  -11.7540   20.7920 C   0  0  0  0  0  0  0  0  0  0  0  0
  -26.2890  -13.0280   20.1810 N   0  0  0  0  0  0  0  0  0  0  0  0
  -25.9600  -11.7370   20.4410 N   0  0  0  0  0  0  0  0  0  0  0  0
  -23.9690  -10.4820   20.9810 C   0  0  0  0  0  0  0  0  0  0  0  0
  -24.4090   -9.5210   21.9180 C   0  0  0  0  0  3  0  0  0  0  0  0
  -23.6960   -8.3160   22.0950 C   0  0  0  0  0  3  0  0  0  0  0  0
  -22.5290   -8.0620   21.3350 C   0  0  0  0  0  0  0  0  0  0  0  0
  -22.1080   -9.0120   20.3880 C   0  0  0  0  0  3  0  0  0  0  0  0
  -22.8220  -10.2090   20.2090 C   0  0  0  0  0  3  0  0  0  0  0  0
  -21.7890   -6.9080   21.4230 O   0  0  0  0  0  0  0  0  0  0  0  0
  -21.7050   -6.1930   22.5910 C   0  0  0  0  0  0  0  0  0  0  0  0
  -21.2010   -6.7630   23.7800 C   0  0  0  0  0  3  0  0  0  0  0  0
  -21.0670   -5.9730   24.9390 C   0  0  0  0  0  3  0  0  0  0  0  0
  -21.4280   -4.6120   24.9090 C   0  0  0  0  0  0  0  0  0  0  0  0
  -21.9240   -4.0410   23.7230 C   0  0  0  0  0  3  0  0  0  0  0  0
  -22.0590   -4.8290   22.5670 C   0  0  0  0  0  0  0  0  0  0  0  0
  -22.5190   -4.2680   21.4230 F   0  0  0  0  0  0  0  0  0  0  0  0
  -21.2920   -3.8500   26.0200 F   0  0  0  0  0  0  0  0  0  0  0  0
  -22.8100  -13.5590   21.1790 C   0  0  0  0  0  0  0  0  0  0  0  0
  -22.1130  -12.8430   22.0530 N   0  0  0  0  0  0  0  0  0  0  0  0
  -22.3500  -14.5900   20.6880 O   0  0  0  0  0  0  0  0  0  0  0  0
  -22.4990  -12.0090   22.4720 H   0  0  0  0  0  0  0  0  0  0  0  0
  -21.1790  -13.1320   22.3090 H   0  0  0  0  0  0  0  0  0  0  0  0
  -25.3880  -15.2670   20.3090 N   0  0  0  0  0  0  0  0  0  0  0  0
  -24.6090  -15.9030   20.4440 H   0  0  0  0  0  0  0  0  0  0  0  0
  -26.1990  -15.7160   19.9050 H   0  0  0  0  0  0  0  0  0  0  0  0
  -27.8940  -24.5700   20.1340 C   0  0  0  0  0  2  0  0  0  0  0  0
  -28.1900  -26.1230   20.3160 O   0  0  0  0  0  0  0  0  0  0  0  0
  -24.6330  -31.9420   23.2890 C   0  0  0  0  0  0  0  0  0  0  0  0
  -27.1590  -27.1560   20.2530 C   0  0  0  0  0  0  0  0  0  0  0  0
  -23.4200  -30.5570   21.6530 C   0  0  0  0  0  3  0  0  0  0  0  0
  -24.8520  -28.9650   20.2240 C   0  0  0  0  0  0  0  0  0  0  0  0
  -25.9800  -30.7860   21.4870 C   0  0  0  0  0  2  0  0  0  0  0  0
  -26.0400  -29.3880   20.8320 C   0  0  0  0  0  0  0  0  0  0  0  0
  -27.1930  -28.5020   20.8260 C   0  0  0  0  0  3  0  0  0  0  0  0
  -25.9410  -26.8520   19.6040 C   0  0  0  0  0  3  0  0  0  0  0  0
  -24.8200  -27.7130   19.5920 C   0  0  0  0  0  3  0  0  0  0  0  0
  -23.6350  -29.8780   20.2750 C   0  0  0  0  0  2  0  0  0  0  0  0
  -24.6980  -31.1180   22.1980 N   0  0  0  0  0  0  0  0  0  0  0  0
  -23.5490  -32.2360   23.8190 O   0  0  0  0  0  0  0  0  0  0  0  0
  -22.7310  -29.5570   22.6180 C   0  0  0  0  0  0  0  0  0  0  0  0
  -21.4040  -29.3870   22.4850 N   0  0  0  0  0  0  0  0  0  0  0  0
  -23.3960  -28.9370   23.4520 O   0  0  0  0  0  0  0  0  0  0  0  0
  -20.9220  -29.9380   21.7890 H   0  0  0  0  0  0  0  0  0  0  0  0
  -18.0220  -28.1740   22.9680 C   0  0  0  0  0  0  0  0  0  0  0  0
  -20.5780  -28.4530   23.2570 C   0  0  0  0  0  3  0  0  0  0  0  0
  -20.6910  -27.0160   22.6990 C   0  0  0  0  0  2  0  0  0  0  0  0
  -19.6020  -26.6770   21.6760 C   0  0  0  0  0  2  0  0  0  0  0  0
  -18.2130  -26.8190   22.3050 C   0  0  0  0  0  2  0  0  0  0  0  0
  -19.1320  -28.9470   23.4000 C   0  0  0  0  0  0  0  0  0  0  0  0
  -18.8980  -30.2120   23.9820 C   0  0  0  0  0  3  0  0  0  0  0  0
  -17.5890  -30.7040   24.1340 C   0  0  0  0  0  3  0  0  0  0  0  0
  -16.4930  -29.9290   23.7150 C   0  0  0  0  0  3  0  0  0  0  0  0
  -16.7110  -28.6650   23.1380 C   0  0  0  0  0  3  0  0  0  0  0  0
  -25.9150  -32.5710   23.9150 C   0  0  0  0  0  3  0  0  0  0  0  0
  -25.6120  -33.9730   24.2480 N   0  0  0  0  0  0  0  0  0  0  0  0
  -25.9200  -35.0260   23.4810 C   0  0  0  0  0  0  0  0  0  0  0  0
  -26.5550  -34.9200   22.4270 O   0  0  0  0  0  0  0  0  0  0  0  0
  -25.0430  -34.1280   25.0670 H   0  0  0  0  0  0  0  0  0  0  0  0
  -24.1670  -36.8130   23.2090 C   0  0  0  0  0  1  0  0  0  0  0  0
  -25.4540  -36.4170   23.9530 C   0  0  0  0  0  3  0  0  0  0  0  0
  -27.6220  -37.3250   24.6640 C   0  0  0  0  0  1  0  0  0  0  0  0
  -26.4740  -37.4740   23.7730 N   0  0  0  0  0  0  0  0  0  0  0  0
  -26.0710  -38.3950   23.9280 H   0  0  0  0  0  0  0  0  0  0  0  0
  -26.4180  -31.8010   25.1980 C   0  0  1  0  0  0  0  0  0  0  0  0
  -25.3180  -31.5750   26.2620 C   0  0  0  0  0  1  0  0  0  0  0  0
  -26.9950  -30.4170   24.8200 C   0  0  0  0  0  1  0  0  0  0  0  0
  -27.5720  -32.5900   25.8620 C   0  0  0  0  0  1  0  0  0  0  0  0
  2 47  1  0
  2  3  1  0
  2  1  1  0
  3  1  1  0
  5  7  1  0
  5  6  1  0
  5  4  1  0
  6 17  1  0
  6  4  1  0
  7  3  1  0
  7  4  1  0
  7  8  1  6
  9 17  1  0
 10 15  1  0
 11 12  1  0
 11 10  1  0
 12 13  1  0
 13 22  1  0
 13 14  1  0
 15  9  1  0
 15 14  1  0
 16  9  2  0
 17 18  1  0
 19 20  2  0
 20 39  1  0
 21 20  1  0
 21 24  1  0
 22 23  1  0
 22 19  1  0
 23 21  2  0
 24 25  1  0
 25 26  2  0
 27 30  1  0
 27 26  1  0
 28 27  2  0
 29 28  1  0
 29 24  2  0
 30 31  1  0
 31 32  1  0
 32 33  2  0
 34 33  1  0
 34 38  1  0
 35 34  2  0
 36 31  2  0
 36 35  1  0
 37 36  1  0
 39 40  1  0
 40 43  1  0
 40 42  1  0
 41 39  2  0
 44 45  1  0
 44 19  1  0
 46 44  1  0
 47 48  1  0
 49 60  2  0
 49 75  1  0
 50 48  1  0
 50 55  1  0
 51 59  1  0
 51 61  1  0
 52 58  1  0
 52 54  1  0
 53 59  1  0
 54 53  1  0
 55 54  2  0
 56 50  2  0
 57 56  1  0
 57 52  2  0
 58 51  1  0
 59 49  1  0
 61 63  2  0
 62 61  1  0
 62 66  1  0
 64 62  1  0
 65 74  2  0
 65 70  1  0
 66 70  1  0
 67 66  1  0
 68 69  1  0
 68 67  1  0
 69 65  1  0
 70 71  2  0
 71 72  1  0
 73 72  2  0
 74 73  1  0
 75 76  1  0
 75 85  1  0
 76 79  1  0
 77 81  1  0
 77 76  1  0
 78 77  2  0
 80 81  1  0
 83 84  1  0
 83 81  1  0
 83 82  1  0
 85 88  1  1
 85 86  1  0
 87 85  1  0
M  ISO  4   9 100  17 100  47 101  48 101
M  END
>  <TORSDO>  (77) 
F 18

>  <SCORE>  (77) 
-14.872

>  <name>  (77) 
76

>  <ligand_id>  (77) 
76

>  <original_smiles>  (77) 
[H]c1c([H])c([H])c2c(c1[H])C([H])([H])C([H])([H])C([H])([H])C2([H])N([H])C(=O)C1([H])N(C(=O)C([H])(N([H])C(=O)C([H])(N([H])C([H])([H])[H])C([H])([H])[H])C(C([H])([H])[H])(C([H])([H])[H])C([H])([H])[H])C([H])([H])c2c([H])c(OC([H])([H])C3([H])C([H])([H])C3([H])[N+]3([H])C([H])([H])C([H])(N([H])C(=O)N4C([H])([H])C([H])([H])C([H])([H])C([H])(n5nc(-c6c([H])c([H])c(Oc7c([H])c([H])c(F)c([H])c7F)c([H])c6[H])c(C(=O)N([H])[H])c5N([H])[H])C4([H])[H])C3([H])[H])c([H])c([H])c2C1([H])[H]

>  <smiles>  (77) 
[H]c1c([H])c([H])c2c(c1[H])C([H])([H])C([H])([H])C([H])([H])C2([H])N([H])C(=O)C1([H])N(C(=O)C([H])(N([H])C(=O)C([H])(N([H])C([H])([H])[H])C([H])([H])[H])C(C([H])([H])[H])(C([H])([H])[H])C([H])([H])[H])C([H])([H])c2c([H])c(OC([H])([H])C3([H])C([H])([H])C3([H])[N+]3([H])C([H])([H])C([H])(N([H])C(=O)N4C([H])([H])C([H])([H])C([H])([H])C([H])(n5nc(-c6c([H])c([H])c(Oc7c([H])c([H])c(F)c([H])c7F)c([H])c6[H])c(C(=O)N([H])[H])c5N([H])[H])C4([H])[H])C3([H])[H])c([H])c([H])c2C1([H])[H]

$$$$
77:0:0
     RDKit          3D

100109  0  0  1  0  0  0  0  0999 V2000
  -29.0060  -20.9960   19.8290 C   0  0  0  0  0  3  0  0  0  0  0  0
  -28.2510  -21.7820   17.2970 C   0  0  0  0  0  3  0  0  0  0  0  0
  -29.7520  -20.4080   18.7020 C   0  0  0  0  0  0  0  0  0  0  0  0
  -27.8890  -21.9600   19.7090 C   0  0  0  0  0  0  0  0  0  0  0  0
  -29.2520  -20.7940   17.4190 C   0  0  0  0  0  0  0  0  0  0  0  0
  -27.6080  -22.3940   18.3880 C   0  0  0  0  0  0  0  0  0  0  0  0
  -33.8680  -17.2990   19.2300 C   0  0  0  0  0  0  0  0  0  0  0  0
  -36.3440  -17.1140   19.6060 C   0  0  0  0  0  2  0  0  0  0  0  0
  -36.8590  -18.3160   20.4270 C   0  0  0  0  0  2  0  0  0  0  0  0
  -37.2180  -19.4890   19.4940 C   0  0  0  0  0  2  0  0  0  0  0  0
  -36.1200  -19.7610   18.4320 C   0  0  0  0  0  3  0  0  0  0  0  0
  -35.6230  -18.4660   17.7560 C   0  0  0  0  0  2  0  0  0  0  0  0
  -35.1630  -17.5820   18.8300 N   0  0  0  0  0  0  0  0  0  0  0  0
  -33.6840  -16.2910   19.9180 O   0  0  0  0  0  0  0  0  0  0  0  0
  -32.5110  -19.5510   18.5420 C   0  0  0  0  0  2  0  0  0  0  0  0
  -31.4590  -18.2760   19.7960 C   0  0  0  0  0  2  0  0  0  0  0  0
  -30.9540  -19.3020   18.7280 C   0  0  0  0  0  3  0  0  0  0  0  0
  -32.8030  -18.2170   19.1170 N   0  0  0  0  0  0  0  0  0  0  0  0
  -36.2610  -22.1190   17.4440 C   0  0  0  0  0  0  0  0  0  0  0  0
  -36.9480  -22.6340   16.3800 C   0  0  0  0  0  0  0  0  0  0  0  0
  -37.6390  -21.5300   15.7890 C   0  0  0  0  0  0  0  0  0  0  0  0
  -36.5360  -20.7620   17.4570 N   0  0  0  0  0  0  0  0  0  0  0  0
  -37.3230  -20.4000   16.4130 N   0  0  0  0  0  0  0  0  0  0  0  0
  -38.6260  -21.4950   14.7020 C   0  0  0  0  0  0  0  0  0  0  0  0
  -38.4000  -20.7470   13.5260 C   0  0  0  0  0  3  0  0  0  0  0  0
  -39.3530  -20.7480   12.4840 C   0  0  0  0  0  3  0  0  0  0  0  0
  -40.5420  -21.5040   12.6100 C   0  0  0  0  0  0  0  0  0  0  0  0
  -40.7730  -22.2270   13.7940 C   0  0  0  0  0  3  0  0  0  0  0  0
  -39.8270  -22.2200   14.8320 C   0  0  0  0  0  3  0  0  0  0  0  0
  -41.5330  -21.5450   11.6580 O   0  0  0  0  0  0  0  0  0  0  0  0
  -41.2540  -21.4370   10.3190 C   0  0  0  0  0  0  0  0  0  0  0  0
  -40.4080  -22.3540    9.6590 C   0  0  0  0  0  3  0  0  0  0  0  0
  -40.1990  -22.2460    8.2690 C   0  0  0  0  0  3  0  0  0  0  0  0
  -40.8420  -21.2290    7.5370 C   0  0  0  0  0  0  0  0  0  0  0  0
  -41.6890  -20.3180    8.1930 C   0  0  0  0  0  3  0  0  0  0  0  0
  -41.8950  -20.4230    9.5790 C   0  0  0  0  0  0  0  0  0  0  0  0
  -42.7270  -19.5520   10.2030 F   0  0  0  0  0  0  0  0  0  0  0  0
  -40.6490  -21.1290    6.2030 F   0  0  0  0  0  0  0  0  0  0  0  0
  -37.0500  -24.0820   16.0000 C   0  0  0  0  0  0  0  0  0  0  0  0
  -37.1590  -24.3710   14.7090 N   0  0  0  0  0  0  0  0  0  0  0  0
  -36.9810  -24.9680   16.8540 O   0  0  0  0  0  0  0  0  0  0  0  0
  -37.1650  -23.6440   14.0060 H   0  0  0  0  0  0  0  0  0  0  0  0
  -37.2410  -25.3330   14.4130 H   0  0  0  0  0  0  0  0  0  0  0  0
  -35.4720  -22.6980   18.4340 N   0  0  0  0  0  0  0  0  0  0  0  0
  -35.9270  -23.5840   18.6340 H   0  0  0  0  0  0  0  0  0  0  0  0
  -35.4940  -22.1050   19.2550 H   0  0  0  0  0  0  0  0  0  0  0  0
  -26.8840  -24.3030   17.1060 C   0  0  0  0  0  1  0  0  0  0  0  0
  -26.6690  -23.3710   18.1620 O   0  0  0  0  0  0  0  0  0  0  0  0
  -27.0240  -22.5990   20.9300 C   0  0  0  0  0  3  0  0  0  0  0  0
  -25.4860  -23.1830   20.7580 C   0  0  0  0  0  3  0  0  0  0  0  0
  -24.7210  -24.1030   21.6960 O   0  0  0  0  0  0  0  0  0  0  0  0
  -17.7260  -25.8070   20.5700 C   0  0  0  0  0  0  0  0  0  0  0  0
  -23.7410  -24.9590   21.1290 C   0  0  0  0  0  0  0  0  0  0  0  0
  -19.3820  -26.7170   18.9840 C   0  0  0  0  0  3  0  0  0  0  0  0
  -21.8320  -26.5790   19.7160 C   0  0  0  0  0  0  0  0  0  0  0  0
  -20.0440  -26.2550   21.4220 C   0  0  0  0  0  2  0  0  0  0  0  0
  -21.4730  -26.0020   20.9430 C   0  0  0  0  0  0  0  0  0  0  0  0
  -22.4260  -25.2040   21.6600 C   0  0  0  0  0  3  0  0  0  0  0  0
  -24.0650  -25.6290   19.9310 C   0  0  0  0  0  3  0  0  0  0  0  0
  -23.1300  -26.4070   19.2190 C   0  0  0  0  0  3  0  0  0  0  0  0
  -20.7830  -27.3830   18.9720 C   0  0  0  0  0  2  0  0  0  0  0  0
  -19.0080  -26.2220   20.3480 N   0  0  0  0  0  0  0  0  0  0  0  0
  -16.8680  -25.8540   19.6760 O   0  0  0  0  0  0  0  0  0  0  0  0
  -19.3340  -25.6160   17.8970 C   0  0  0  0  0  0  0  0  0  0  0  0
  -18.8880  -25.9760   16.6810 N   0  0  0  0  0  0  0  0  0  0  0  0
  -19.7170  -24.4700   18.1490 O   0  0  0  0  0  0  0  0  0  0  0  0
  -18.5780  -26.9290   16.5510 H   0  0  0  0  0  0  0  0  0  0  0  0
  -17.7280  -25.8010   13.2590 C   0  0  0  0  0  0  0  0  0  0  0  0
  -18.8040  -25.1070   15.5050 C   0  0  0  0  0  3  0  0  0  0  0  0
  -20.1450  -25.0770   14.7350 C   0  0  0  0  0  2  0  0  0  0  0  0
  -20.2150  -26.1120   13.6080 C   0  0  0  0  0  2  0  0  0  0  0  0
  -19.0920  -25.8790   12.5930 C   0  0  0  0  0  2  0  0  0  0  0  0
  -17.5940  -25.4540   14.6290 C   0  0  0  0  0  0  0  0  0  0  0  0
  -16.3050  -25.4290   15.2050 C   0  0  0  0  0  3  0  0  0  0  0  0
  -15.1670  -25.7390   14.4390 C   0  0  0  0  0  3  0  0  0  0  0  0
  -15.3040  -26.0680   13.0800 C   0  0  0  0  0  3  0  0  0  0  0  0
  -16.5820  -26.0940   12.4910 C   0  0  0  0  0  3  0  0  0  0  0  0
  -17.2740  -25.2730   21.9630 C   0  0  0  0  0  3  0  0  0  0  0  0
  -16.3040  -26.2310   22.5130 N   0  0  0  0  0  0  0  0  0  0  0  0
  -16.6050  -27.2190   23.3670 C   0  0  0  0  0  0  0  0  0  0  0  0
  -17.7350  -27.3770   23.8340 O   0  0  0  0  0  0  0  0  0  0  0  0
  -15.3680  -26.1840   22.1400 H   0  0  0  0  0  0  0  0  0  0  0  0
  -15.6620  -29.5290   23.0560 C   0  0  0  0  0  1  0  0  0  0  0  0
  -15.4710  -28.1810   23.7690 C   0  0  0  0  0  3  0  0  0  0  0  0
  -14.9270  -27.2240   25.9640 C   0  0  0  0  0  1  0  0  0  0  0  0
  -15.3730  -28.4050   25.2290 N   0  0  0  0  0  0  0  0  0  0  0  0
  -14.7310  -29.1680   25.4320 H   0  0  0  0  0  0  0  0  0  0  0  0
  -16.6470  -23.8250   21.8990 C   0  0  1  0  0  0  0  0  0  0  0  0
  -15.4710  -23.7010   20.9060 C   0  0  0  0  0  1  0  0  0  0  0  0
  -17.7130  -22.7810   21.4960 C   0  0  0  0  0  1  0  0  0  0  0  0
  -16.1300  -23.4170   23.2980 C   0  0  0  0  0  1  0  0  0  0  0  0
  -29.6570  -20.1130   16.1060 C   0  0  0  0  0  3  0  0  0  0  0  0
  -28.4810  -19.4900   15.5320 N   0  0  0  0  0  0  0  0  0  0  0  0
  -28.2500  -19.9480   14.6580 H   0  0  0  0  0  0  0  0  0  0  0  0
  -27.6970  -19.6950   16.1420 H   0  0  0  0  0  0  0  0  0  0  0  0
  -30.2640  -21.0780   15.0570 C   0  0  0  0  0  2  0  0  0  0  0  0
  -31.0130  -23.4140   15.4220 C   0  0  0  0  0  1  0  0  0  0  0  0
  -31.2660  -21.9790   15.6550 N   0  0  0  0  0  4  0  0  0  0  0  0
  -31.2770  -21.8220   16.6510 H   0  0  0  0  0  0  0  0  0  0  0  0
  -32.1830  -21.7210   15.2920 H   0  0  0  0  0  0  0  0  0  0  0  0
  2  5  2  0
  2  6  1  0
  3  1  2  0
  4  1  1  0
  4 49  1  0
  5  3  1  0
  6  4  2  0
  7 14  2  0
  8  9  1  0
 10  9  1  0
 11 22  1  0
 11 10  1  0
 12 11  1  0
 12 13  1  0
 13  7  1  0
 13  8  1  0
 15 17  1  0
 15 18  1  0
 17  3  1  0
 17 16  1  0
 18  7  1  0
 18 16  1  0
 19 22  1  0
 19 44  1  0
 20 19  2  0
 21 20  1  0
 21 23  2  0
 23 22  1  0
 24 29  1  0
 24 21  1  0
 25 24  2  0
 26 27  2  0
 26 25  1  0
 27 28  1  0
 28 29  2  0
 30 27  1  0
 31 30  1  0
 32 31  1  0
 33 32  2  0
 34 35  2  0
 34 33  1  0
 35 36  1  0
 36 37  1  0
 36 31  2  0
 38 34  1  0
 39 20  1  0
 39 41  2  0
 40 39  1  0
 42 40  1  0
 43 40  1  0
 44 45  1  0
 44 46  1  0
 47 48  1  0
 48  6  1  0
 50 49  2  0
 50 51  1  0
 53 58  1  0
 53 51  1  0
 54 64  1  0
 54 62  1  0
 55 57  1  0
 57 56  1  0
 57 58  2  0
 59 53  2  0
 60 55  2  0
 60 59  1  0
 61 54  1  0
 61 55  1  0
 62 52  1  0
 62 56  1  0
 63 52  2  0
 64 66  2  0
 65 64  1  0
 67 65  1  0
 68 73  1  0
 69 65  1  0
 70 69  1  0
 71 70  1  0
 72 68  1  0
 72 71  1  0
 73 74  2  0
 73 69  1  0
 75 74  1  0
 76 75  2  0
 77 76  1  0
 77 68  2  0
 78 52  1  0
 78 79  1  0
 79 80  1  0
 80 84  1  0
 80 81  2  0
 82 79  1  0
 84 83  1  0
 84 86  1  0
 86 87  1  0
 86 85  1  0
 88 78  1  0
 88 91  1  1
 89 88  1  0
 90 88  1  0
 92 96  1  0
 92  5  1  0
 93 92  1  0
 93 95  1  0
 94 93  1  0
 96 98  1  0
 97 98  1  0
 98 99  1  0
100 98  1  0
M  ISO  4   7 100  18 100  50 101  51 101
M  END
>  <TORSDO>  (78) 
F 23

>  <SCORE>  (78) 
-4.615

>  <name>  (78) 
77

>  <ligand_id>  (78) 
77

>  <original_smiles>  (78) 
[H]c1c([H])c([H])c2c(c1[H])C([H])([H])C([H])([H])C([H])([H])C2([H])N([H])C(=O)C1([H])N(C(=O)C([H])(N([H])C(=O)C([H])(N([H])C([H])([H])[H])C([H])([H])[H])C(C([H])([H])[H])(C([H])([H])[H])C([H])([H])[H])C([H])([H])c2c([H])c(OC([H])([H])C([H])([H])c3c([H])c(C4([H])C([H])([H])N(C(=O)N5C([H])([H])C([H])([H])C([H])([H])C([H])(n6nc(-c7c([H])c([H])c(Oc8c([H])c([H])c(F)c([H])c8F)c([H])c7[H])c(C(=O)N([H])[H])c6N([H])[H])C5([H])[H])C4([H])[H])c(C([H])(N([H])[H])C([H])([H])[N+]([H])([H])C([H])([H])[H])c([H])c3OC([H])([H])[H])c([H])c([H])c2C1([H])[H]

>  <smiles>  (78) 
[H]c1c([H])c([H])c2c(c1[H])C([H])([H])C([H])([H])C([H])([H])C2([H])N([H])C(=O)C1([H])N(C(=O)C([H])(N([H])C(=O)C([H])(N([H])C([H])([H])[H])C([H])([H])[H])C(C([H])([H])[H])(C([H])([H])[H])C([H])([H])[H])C([H])([H])c2c([H])c(OC([H])([H])C([H])([H])c3c([H])c(C4([H])C([H])([H])N(C(=O)N5C([H])([H])C([H])([H])C([H])([H])C([H])(n6nc(-c7c([H])c([H])c(Oc8c([H])c([H])c(F)c([H])c8F)c([H])c7[H])c(C(=O)N([H])[H])c6N([H])[H])C5([H])[H])C4([H])[H])c(C([H])(N([H])[H])C([H])([H])[N+]([H])([H])C([H])([H])[H])c([H])c3OC([H])([H])[H])c([H])c([H])c2C1([H])[H]

$$$$
78:0:0
     RDKit          3D

 95105  0  0  1  0  0  0  0  0999 V2000
  -28.6870  -23.6500   18.5350 C   0  0  0  0  0  3  0  0  0  0  0  0
  -28.8570  -22.4550   17.8200 C   0  0  0  0  0  0  0  0  0  0  0  0
  -28.8010  -23.6140   19.9290 C   0  0  0  0  0  0  0  0  0  0  0  0
  -29.2610  -21.2480   19.7390 C   0  0  0  0  0  0  0  0  0  0  0  0
  -30.2040  -18.0910   21.7550 C   0  0  0  0  0  2  0  0  0  0  0  0
  -30.0870  -19.6430   21.5950 C   0  0  0  0  0  2  0  0  0  0  0  0
  -29.5830  -18.5950   19.5350 C   0  0  0  0  0  2  0  0  0  0  0  0
  -30.4040  -17.4810   20.3510 C   0  0  0  0  0  3  0  0  0  0  0  0
  -29.1340  -21.2810   18.4240 N   0  0  0  0  0  0  0  0  0  0  0  0
  -29.1040  -22.3740   20.5150 N   0  0  0  0  0  0  0  0  0  0  0  0
  -29.5700  -19.9250   20.2610 N   0  0  0  0  0  0  0  0  0  0  0  0
  -30.8170  -14.8370   20.0290 C   0  0  0  0  0  0  0  0  0  0  0  0
  -30.5950  -12.5470   19.0230 C   0  0  0  0  0  2  0  0  0  0  0  0
  -29.5920  -12.5920   17.8480 C   0  0  0  0  0  2  0  0  0  0  0  0
  -28.1490  -12.4060   18.3560 C   0  0  0  0  0  2  0  0  0  0  0  0
  -27.8290  -13.2950   19.5870 C   0  0  0  0  0  3  0  0  0  0  0  0
  -28.9450  -13.2250   20.6510 C   0  0  0  0  0  2  0  0  0  0  0  0
  -30.1990  -13.6030   19.9870 N   0  0  0  0  0  0  0  0  0  0  0  0
  -31.9960  -14.9320   19.6740 O   0  0  0  0  0  0  0  0  0  0  0  0
  -30.0440  -15.9760   20.2760 N   0  0  0  0  0  0  0  0  0  0  0  0
  -29.0790  -15.7680   20.4770 H   0  0  0  0  0  0  0  0  0  0  0  0
  -25.4970  -13.8810   20.4710 C   0  0  0  0  0  0  0  0  0  0  0  0
  -24.4460  -13.1060   20.8780 C   0  0  0  0  0  0  0  0  0  0  0  0
  -24.8920  -11.7520   20.7790 C   0  0  0  0  0  0  0  0  0  0  0  0
  -26.5160  -13.0010   20.1480 N   0  0  0  0  0  0  0  0  0  0  0  0
  -26.1630  -11.7140   20.3970 N   0  0  0  0  0  0  0  0  0  0  0  0
  -24.1640  -10.4920   20.9710 C   0  0  0  0  0  0  0  0  0  0  0  0
  -24.6040   -9.5170   21.8930 C   0  0  0  0  0  3  0  0  0  0  0  0
  -23.8750   -8.3210   22.0720 C   0  0  0  0  0  3  0  0  0  0  0  0
  -22.6910   -8.0930   21.3300 C   0  0  0  0  0  0  0  0  0  0  0  0
  -22.2690   -9.0570   20.3970 C   0  0  0  0  0  3  0  0  0  0  0  0
  -22.9990  -10.2440   20.2160 C   0  0  0  0  0  3  0  0  0  0  0  0
  -21.9320   -6.9510   21.4210 O   0  0  0  0  0  0  0  0  0  0  0  0
  -21.8430   -6.2370   22.5880 C   0  0  0  0  0  0  0  0  0  0  0  0
  -21.3530   -6.8130   23.7800 C   0  0  0  0  0  3  0  0  0  0  0  0
  -21.2140   -6.0230   24.9380 C   0  0  0  0  0  3  0  0  0  0  0  0
  -21.5560   -4.6580   24.9060 C   0  0  0  0  0  0  0  0  0  0  0  0
  -22.0390   -4.0810   23.7180 C   0  0  0  0  0  3  0  0  0  0  0  0
  -22.1790   -4.8670   22.5620 C   0  0  0  0  0  0  0  0  0  0  0  0
  -22.6250   -4.3020   21.4150 F   0  0  0  0  0  0  0  0  0  0  0  0
  -21.4140   -3.8970   26.0170 F   0  0  0  0  0  0  0  0  0  0  0  0
  -23.0710  -13.5870   21.2400 C   0  0  0  0  0  0  0  0  0  0  0  0
  -22.3850  -12.8740   22.1260 N   0  0  0  0  0  0  0  0  0  0  0  0
  -22.6160  -14.6310   20.7720 O   0  0  0  0  0  0  0  0  0  0  0  0
  -22.7680  -12.0300   22.5250 H   0  0  0  0  0  0  0  0  0  0  0  0
  -21.4650  -13.1770   22.4100 H   0  0  0  0  0  0  0  0  0  0  0  0
  -25.6630  -15.2560   20.3250 N   0  0  0  0  0  0  0  0  0  0  0  0
  -24.9040  -15.9080   20.4920 H   0  0  0  0  0  0  0  0  0  0  0  0
  -26.4780  -15.6970   19.9170 H   0  0  0  0  0  0  0  0  0  0  0  0
  -28.7390  -22.4320   16.3080 C   0  0  0  0  0  2  0  0  0  0  0  0
  -30.8290  -21.2890   15.1600 C   0  0  0  0  0  2  0  0  0  0  0  0
  -30.2160  -22.2220   14.1470 C   0  0  0  0  0  2  0  0  0  0  0  0
  -30.0920  -22.5260   15.6260 C   0  0  0  0  0  3  0  0  0  0  0  0
  -28.4450  -24.9440   20.7660 C   0  0  0  0  0  2  0  0  0  0  0  0
  -28.6080  -26.3550   20.2190 O   0  0  0  0  0  0  0  0  0  0  0  0
  -24.6590  -31.7550   23.1660 C   0  0  0  0  0  0  0  0  0  0  0  0
  -27.4920  -27.2300   20.1890 C   0  0  0  0  0  0  0  0  0  0  0  0
  -23.5510  -30.3280   21.4840 C   0  0  0  0  0  3  0  0  0  0  0  0
  -25.0930  -28.8190   20.0980 C   0  0  0  0  0  0  0  0  0  0  0  0
  -26.0900  -30.7100   21.3840 C   0  0  0  0  0  2  0  0  0  0  0  0
  -26.2320  -29.3290   20.7340 C   0  0  0  0  0  0  0  0  0  0  0  0
  -27.4390  -28.5500   20.7610 C   0  0  0  0  0  3  0  0  0  0  0  0
  -26.3290  -26.7900   19.5260 C   0  0  0  0  0  3  0  0  0  0  0  0
  -25.1470  -27.5600   19.4820 C   0  0  0  0  0  3  0  0  0  0  0  0
  -23.8310  -29.6650   20.1100 C   0  0  0  0  0  2  0  0  0  0  0  0
  -24.7840  -30.9510   22.0690 N   0  0  0  0  0  0  0  0  0  0  0  0
  -23.5500  -31.9960   23.6680 O   0  0  0  0  0  0  0  0  0  0  0  0
  -22.8860  -29.2910   22.4210 C   0  0  0  0  0  0  0  0  0  0  0  0
  -21.5660  -29.0880   22.2660 N   0  0  0  0  0  0  0  0  0  0  0  0
  -23.5590  -28.6700   23.2480 O   0  0  0  0  0  0  0  0  0  0  0  0
  -21.0800  -29.6420   21.5740 H   0  0  0  0  0  0  0  0  0  0  0  0
  -18.2020  -27.8230   22.7020 C   0  0  0  0  0  0  0  0  0  0  0  0
  -20.7520  -28.1240   23.0100 C   0  0  0  0  0  3  0  0  0  0  0  0
  -20.8870  -26.7040   22.4120 C   0  0  0  0  0  2  0  0  0  0  0  0
  -19.8050  -26.3800   21.3770 C   0  0  0  0  0  2  0  0  0  0  0  0
  -18.4120  -26.4890   22.0050 C   0  0  0  0  0  2  0  0  0  0  0  0
  -19.3020  -28.5980   23.1600 C   0  0  0  0  0  0  0  0  0  0  0  0
  -19.0520  -29.8450   23.7710 C   0  0  0  0  0  3  0  0  0  0  0  0
  -17.7360  -30.3190   23.9290 C   0  0  0  0  0  3  0  0  0  0  0  0
  -16.6510  -29.5430   23.4860 C   0  0  0  0  0  3  0  0  0  0  0  0
  -16.8850  -28.2950   22.8790 C   0  0  0  0  0  3  0  0  0  0  0  0
  -25.8990  -32.4260   23.8330 C   0  0  0  0  0  3  0  0  0  0  0  0
  -26.3940  -31.6700   25.1260 C   0  0  1  0  0  0  0  0  0  0  0  0
  -25.2730  -31.3990   26.1570 C   0  0  0  0  0  1  0  0  0  0  0  0
  -27.0300  -30.3090   24.7560 C   0  0  0  0  0  1  0  0  0  0  0  0
  -27.4970  -32.4960   25.8260 C   0  0  0  0  0  1  0  0  0  0  0  0
  -25.5360  -33.8140   24.1560 N   0  0  0  0  0  0  0  0  0  0  0  0
  -25.8500  -34.8790   23.4060 C   0  0  0  0  0  0  0  0  0  0  0  0
  -26.5440  -34.7990   22.3900 O   0  0  0  0  0  0  0  0  0  0  0  0
  -24.9190  -33.9480   24.9440 H   0  0  0  0  0  0  0  0  0  0  0  0
  -24.0720  -36.6170   23.0230 C   0  0  0  0  0  1  0  0  0  0  0  0
  -25.3110  -36.2510   23.8560 C   0  0  0  0  0  3  0  0  0  0  0  0
  -27.3960  -37.2080   24.7310 C   0  0  0  0  0  1  0  0  0  0  0  0
  -26.3110  -37.3370   23.7620 N   0  0  0  0  0  0  0  0  0  0  0  0
  -25.8710  -38.2440   23.8970 H   0  0  0  0  0  0  0  0  0  0  0  0
  1  3  1  0
  2  9  1  0
  2  1  2  0
  3 10  2  0
  3 54  1  0
  4 11  1  0
  4 10  1  0
  6  5  1  0
  7 11  1  0
  7  8  1  0
  8 20  1  0
  8  5  1  0
  9  4  2  0
 11  6  1  0
 12 20  1  0
 13 18  1  0
 14 15  1  0
 14 13  1  0
 16 15  1  0
 16 25  1  0
 16 17  1  0
 18 12  1  0
 18 17  1  0
 19 12  2  0
 20 21  1  0
 22 23  2  0
 23 42  1  0
 24 23  1  0
 24 27  1  0
 25 26  1  0
 25 22  1  0
 26 24  2  0
 27 28  1  0
 28 29  2  0
 30 33  1  0
 30 29  1  0
 31 30  2  0
 32 31  1  0
 32 27  2  0
 33 34  1  0
 34 35  1  0
 35 36  2  0
 37 36  1  0
 37 41  1  0
 38 37  2  0
 39 34  2  0
 39 38  1  0
 40 39  1  0
 42 43  1  0
 43 46  1  0
 43 45  1  0
 44 42  2  0
 47 22  1  0
 47 48  1  0
 49 47  1  0
 50  2  1  0
 51 53  1  0
 52 51  1  0
 52 53  1  0
 53 50  1  0
 55 54  1  0
 56 67  2  0
 57 55  1  0
 57 62  1  0
 58 66  1  0
 58 68  1  0
 59 65  1  0
 59 61  1  0
 60 66  1  0
 61 62  2  0
 61 60  1  0
 63 57  2  0
 64 63  1  0
 64 59  2  0
 65 58  1  0
 66 56  1  0
 68 70  2  0
 69 68  1  0
 71 69  1  0
 72 81  2  0
 72 77  1  0
 73 69  1  0
 73 77  1  0
 74 73  1  0
 75 76  1  0
 75 74  1  0
 76 72  1  0
 77 78  2  0
 78 79  1  0
 80 79  2  0
 81 80  1  0
 82 56  1  0
 82 87  1  0
 82 83  1  0
 83 86  1  1
 83 84  1  0
 85 83  1  0
 87 90  1  0
 88 92  1  0
 88 87  1  0
 89 88  2  0
 92 91  1  0
 94 92  1  0
 94 95  1  0
 94 93  1  0
M  ISO  4  12 100  20 100  54 101  55 101
M  END
>  <TORSDO>  (79) 
F 19

>  <SCORE>  (79) 
-13.175

>  <name>  (79) 
78

>  <ligand_id>  (79) 
78

>  <original_smiles>  (79) 
[H]c1c(C([H])([H])Oc2c([H])c([H])c3c(c2[H])C([H])([H])N(C(=O)C([H])(N([H])C(=O)C([H])(N([H])C([H])([H])[H])C([H])([H])[H])C(C([H])([H])[H])(C([H])([H])[H])C([H])([H])[H])C([H])(C(=O)N([H])C2([H])c4c([H])c([H])c([H])c([H])c4C([H])([H])C([H])([H])C2([H])[H])C3([H])[H])nc(N2C([H])([H])C([H])([H])C([H])(N([H])C(=O)N3C([H])([H])C([H])([H])C([H])([H])C([H])(n4nc(-c5c([H])c([H])c(Oc6c([H])c([H])c(F)c([H])c6F)c([H])c5[H])c(C(=O)N([H])[H])c4N([H])[H])C3([H])[H])C2([H])[H])nc1C([H])([H])C1([H])C([H])([H])C1([H])[H]

>  <smiles>  (79) 
[H]c1c(C([H])([H])Oc2c([H])c([H])c3c(c2[H])C([H])([H])N(C(=O)C([H])(N([H])C(=O)C([H])(N([H])C([H])([H])[H])C([H])([H])[H])C(C([H])([H])[H])(C([H])([H])[H])C([H])([H])[H])C([H])(C(=O)N([H])C2([H])c4c([H])c([H])c([H])c([H])c4C([H])([H])C([H])([H])C2([H])[H])C3([H])[H])nc(N2C([H])([H])C([H])([H])C([H])(N([H])C(=O)N3C([H])([H])C([H])([H])C([H])([H])C([H])(n4nc(-c5c([H])c([H])c(Oc6c([H])c([H])c(F)c([H])c6F)c([H])c5[H])c(C(=O)N([H])[H])c4N([H])[H])C3([H])[H])C2([H])[H])nc1C([H])([H])C1([H])C([H])([H])C1([H])[H]

$$$$
79:0:0
     RDKit          3D

 93102  0  0  1  0  0  0  0  0999 V2000
  -29.1410  -22.8560   20.4250 N   0  0  0  0  0  4  0  0  0  0  0  0
  -29.0770  -22.9120   19.4200 H   0  0  0  0  0  0  0  0  0  0  0  0
  -30.0880  -23.1220   20.6490 H   0  0  0  0  0  0  0  0  0  0  0  0
  -26.7360  -23.6540   20.7070 C   0  0  0  0  0  1  0  0  0  0  0  0
  -28.2090  -23.8750   21.0880 C   0  0  0  0  0  3  0  0  0  0  0  0
  -28.6380  -25.4290   21.1760 C   0  0  0  0  0  2  0  0  0  0  0  0
  -28.3720  -26.4660   20.1630 O   0  0  0  0  0  0  0  0  0  0  0  0
  -24.5760  -31.8650   23.2100 C   0  0  0  0  0  0  0  0  0  0  0  0
  -27.2480  -27.2950   20.2430 C   0  0  0  0  0  0  0  0  0  0  0  0
  -23.4030  -30.4600   21.5530 C   0  0  0  0  0  3  0  0  0  0  0  0
  -24.8840  -28.8980   20.1740 C   0  0  0  0  0  0  0  0  0  0  0  0
  -25.9450  -30.7790   21.4190 C   0  0  0  0  0  2  0  0  0  0  0  0
  -26.0390  -29.3900   20.7970 C   0  0  0  0  0  0  0  0  0  0  0  0
  -27.2270  -28.5980   20.8320 C   0  0  0  0  0  3  0  0  0  0  0  0
  -26.0790  -26.8570   19.5920 C   0  0  0  0  0  3  0  0  0  0  0  0
  -24.9030  -27.6320   19.5690 C   0  0  0  0  0  3  0  0  0  0  0  0
  -23.6470  -29.7740   20.1850 C   0  0  0  0  0  2  0  0  0  0  0  0
  -24.6590  -31.0530   22.1180 N   0  0  0  0  0  0  0  0  0  0  0  0
  -23.4820  -32.1460   23.7240 O   0  0  0  0  0  0  0  0  0  0  0  0
  -22.7240  -29.4470   22.5060 C   0  0  0  0  0  0  0  0  0  0  0  0
  -21.3970  -29.2890   22.3670 N   0  0  0  0  0  0  0  0  0  0  0  0
  -23.3890  -28.8090   23.3240 O   0  0  0  0  0  0  0  0  0  0  0  0
  -20.9200  -29.8560   21.6810 H   0  0  0  0  0  0  0  0  0  0  0  0
  -17.9920  -28.1670   22.8690 C   0  0  0  0  0  0  0  0  0  0  0  0
  -20.5580  -28.3580   23.1270 C   0  0  0  0  0  3  0  0  0  0  0  0
  -20.6210  -26.9350   22.5270 C   0  0  0  0  0  2  0  0  0  0  0  0
  -19.5050  -26.6560   21.5150 C   0  0  0  0  0  2  0  0  0  0  0  0
  -18.1320  -26.8240   22.1690 C   0  0  0  0  0  2  0  0  0  0  0  0
  -19.1330  -28.8950   23.3030 C   0  0  0  0  0  0  0  0  0  0  0  0
  -18.9480  -30.1530   23.9180 C   0  0  0  0  0  3  0  0  0  0  0  0
  -17.6570  -30.6840   24.1000 C   0  0  0  0  0  3  0  0  0  0  0  0
  -16.5320  -29.9520   23.6830 C   0  0  0  0  0  3  0  0  0  0  0  0
  -16.7000  -28.6950   23.0730 C   0  0  0  0  0  3  0  0  0  0  0  0
  -25.8460  -32.4990   23.8550 C   0  0  0  0  0  3  0  0  0  0  0  0
  -26.3300  -31.7400   25.1510 C   0  0  1  0  0  0  0  0  0  0  0  0
  -25.2080  -31.5140   26.1930 C   0  0  0  0  0  1  0  0  0  0  0  0
  -26.9200  -30.3580   24.7890 C   0  0  0  0  0  1  0  0  0  0  0  0
  -27.4700  -32.5380   25.8310 C   0  0  0  0  0  1  0  0  0  0  0  0
  -25.5380  -33.9020   24.1620 N   0  0  0  0  0  0  0  0  0  0  0  0
  -25.9000  -34.9440   23.4000 C   0  0  0  0  0  0  0  0  0  0  0  0
  -26.5990  -34.8250   22.3910 O   0  0  0  0  0  0  0  0  0  0  0  0
  -24.9180  -34.0700   24.9410 H   0  0  0  0  0  0  0  0  0  0  0  0
  -24.2050  -36.7530   22.9720 C   0  0  0  0  0  1  0  0  0  0  0  0
  -25.4110  -36.3400   23.8290 C   0  0  0  0  0  3  0  0  0  0  0  0
  -27.5180  -37.2160   24.7370 C   0  0  0  0  0  1  0  0  0  0  0  0
  -26.4580  -37.3820   23.7460 N   0  0  0  0  0  0  0  0  0  0  0  0
  -26.0540  -38.3060   23.8720 H   0  0  0  0  0  0  0  0  0  0  0  0
  -29.0360  -21.3900   20.8490 C   0  0  0  0  0  2  0  0  0  0  0  0
  -28.5380  -20.7300   18.3150 C   0  0  0  0  0  2  0  0  0  0  0  0
  -27.5160  -20.0420   19.1600 C   0  0  0  0  0  2  0  0  0  0  0  0
  -28.9120  -20.2710   19.7320 C   0  0  2  0  0  0  0  0  0  0  0  0
  -30.9670  -14.7120   20.0160 C   0  0  0  0  0  0  0  0  0  0  0  0
  -30.6300  -12.4430   19.0650 C   0  0  0  0  0  2  0  0  0  0  0  0
  -29.6750  -12.5270   17.8580 C   0  0  0  0  0  2  0  0  0  0  0  0
  -28.2150  -12.3940   18.3280 C   0  0  0  0  0  2  0  0  0  0  0  0
  -27.8840  -13.3100   19.5380 C   0  0  0  0  0  3  0  0  0  0  0  0
  -28.9720  -13.2470   20.6310 C   0  0  0  0  0  2  0  0  0  0  0  0
  -30.2550  -13.5400   19.9820 N   0  0  0  0  0  0  0  0  0  0  0  0
  -32.1650  -14.6940   19.7140 O   0  0  0  0  0  0  0  0  0  0  0  0
  -29.9840  -16.7150   21.1500 C   0  0  0  0  0  2  0  0  0  0  0  0
  -30.8140  -16.9090   18.9460 C   0  0  0  0  0  2  0  0  0  0  0  0
  -29.1470  -18.0340   20.9080 C   0  0  0  0  0  2  0  0  0  0  0  0
  -29.9550  -18.1950   18.7310 C   0  0  0  0  0  2  0  0  0  0  0  0
  -30.2940  -15.9230   19.9340 N   0  0  0  0  0  0  0  0  0  0  0  0
  -29.7390  -19.0000   19.9480 N   0  0  0  0  0  0  0  0  0  0  0  0
  -25.5280  -13.9290   20.3380 C   0  0  0  0  0  0  0  0  0  0  0  0
  -24.4610  -13.1690   20.7290 C   0  0  0  0  0  0  0  0  0  0  0  0
  -24.9040  -11.8110   20.6820 C   0  0  0  0  0  0  0  0  0  0  0  0
  -26.5520  -13.0370   20.0690 N   0  0  0  0  0  0  0  0  0  0  0  0
  -26.1850  -11.7590   20.3410 N   0  0  0  0  0  0  0  0  0  0  0  0
  -24.1620  -10.5600   20.8820 C   0  0  0  0  0  0  0  0  0  0  0  0
  -24.5520   -9.6200   21.8620 C   0  0  0  0  0  3  0  0  0  0  0  0
  -23.8100   -8.4340   22.0510 C   0  0  0  0  0  3  0  0  0  0  0  0
  -22.6650   -8.1770   21.2590 C   0  0  0  0  0  0  0  0  0  0  0  0
  -22.2960   -9.1050   20.2690 C   0  0  0  0  0  3  0  0  0  0  0  0
  -23.0380  -10.2830   20.0790 C   0  0  0  0  0  3  0  0  0  0  0  0
  -21.9000   -7.0390   21.3550 O   0  0  0  0  0  0  0  0  0  0  0  0
  -21.7390   -6.3780   22.5450 C   0  0  0  0  0  0  0  0  0  0  0  0
  -21.1740   -7.0080   23.6760 C   0  0  0  0  0  3  0  0  0  0  0  0
  -20.9620   -6.2720   24.8590 C   0  0  0  0  0  3  0  0  0  0  0  0
  -21.3060   -4.9080   24.9110 C   0  0  0  0  0  0  0  0  0  0  0  0
  -21.8650   -4.2780   23.7860 C   0  0  0  0  0  3  0  0  0  0  0  0
  -22.0780   -5.0120   22.6050 C   0  0  0  0  0  0  0  0  0  0  0  0
  -22.5970   -4.3960   21.5160 F   0  0  0  0  0  0  0  0  0  0  0  0
  -21.0960   -4.1990   26.0450 F   0  0  0  0  0  0  0  0  0  0  0  0
  -23.0780  -13.6640   21.0390 C   0  0  0  0  0  0  0  0  0  0  0  0
  -22.3640  -12.9750   21.9200 N   0  0  0  0  0  0  0  0  0  0  0  0
  -22.6450  -14.7000   20.5340 O   0  0  0  0  0  0  0  0  0  0  0  0
  -22.7310  -12.1380   22.3470 H   0  0  0  0  0  0  0  0  0  0  0  0
  -21.4360  -13.2880   22.1710 H   0  0  0  0  0  0  0  0  0  0  0  0
  -25.7070  -15.2990   20.1640 N   0  0  0  0  0  0  0  0  0  0  0  0
  -24.9500  -15.9600   20.2980 H   0  0  0  0  0  0  0  0  0  0  0  0
  -26.5560  -15.7280   19.8200 H   0  0  0  0  0  0  0  0  0  0  0  0
  1  3  1  0
  1 48  1  0
  1  5  1  0
  2  1  1  0
  5  4  1  0
  5  6  1  0
  7  9  1  0
  7  6  1  0
  8 19  2  0
  9 14  1  0
 10 18  1  0
 10 20  1  0
 11 17  1  0
 11 13  1  0
 12 18  1  0
 13 14  2  0
 13 12  1  0
 15  9  2  0
 16 15  1  0
 16 11  2  0
 17 10  1  0
 18  8  1  0
 20 22  2  0
 21 20  1  0
 23 21  1  0
 24 33  2  0
 24 29  1  0
 25 21  1  0
 25 29  1  0
 26 25  1  0
 27 28  1  0
 27 26  1  0
 28 24  1  0
 29 30  2  0
 30 31  1  0
 32 31  2  0
 33 32  1  0
 34  8  1  0
 34 39  1  0
 34 35  1  0
 35 38  1  1
 35 36  1  0
 37 35  1  0
 39 42  1  0
 40 44  1  0
 40 39  1  0
 41 40  2  0
 44 43  1  0
 46 44  1  0
 46 47  1  0
 46 45  1  0
 49 50  1  0
 49 51  1  0
 50 51  1  0
 51 65  1  0
 51 48  1  1
 53 58  1  0
 54 55  1  0
 54 53  1  0
 56 55  1  0
 56 69  1  0
 56 57  1  0
 58 52  1  0
 58 57  1  0
 59 52  2  0
 61 64  1  0
 62 60  1  0
 63 61  1  0
 64 52  1  0
 64 60  1  0
 65 63  1  0
 65 62  1  0
 66 67  2  0
 67 86  1  0
 68 67  1  0
 68 71  1  0
 69 66  1  0
 69 70  1  0
 70 68  2  0
 71 72  1  0
 72 73  2  0
 74 77  1  0
 74 73  1  0
 75 74  2  0
 76 75  1  0
 76 71  2  0
 77 78  1  0
 78 83  2  0
 78 79  1  0
 79 80  2  0
 80 81  1  0
 81 85  1  0
 82 81  2  0
 83 82  1  0
 84 83  1  0
 86 87  1  0
 87 90  1  0
 87 89  1  0
 88 86  2  0
 91 92  1  0
 91 66  1  0
 93 91  1  0
M  ISO  4   6 101   7 101  52 100  64 100
M  END
>  <TORSDO>  (80) 
F 20

>  <SCORE>  (80) 
-13.873

>  <name>  (80) 
79

>  <ligand_id>  (80) 
79

>  <original_smiles>  (80) 
[H]c1c([H])c([H])c2c(c1[H])C([H])([H])C([H])([H])C([H])([H])C2([H])N([H])C(=O)C1([H])N(C(=O)C([H])(N([H])C(=O)C([H])(N([H])C([H])([H])[H])C([H])([H])[H])C(C([H])([H])[H])(C([H])([H])[H])C([H])([H])[H])C([H])([H])c2c([H])c(OC([H])([H])C([H])(C([H])([H])[H])[N+]([H])([H])C([H])([H])C3(N4C([H])([H])C([H])([H])N(C(=O)N5C([H])([H])C([H])([H])C([H])([H])C([H])(n6nc(-c7c([H])c([H])c(Oc8c([H])c([H])c(F)c([H])c8F)c([H])c7[H])c(C(=O)N([H])[H])c6N([H])[H])C5([H])[H])C([H])([H])C4([H])[H])C([H])([H])C3([H])[H])c([H])c([H])c2C1([H])[H]

>  <smiles>  (80) 
[H]c1c([H])c([H])c2c(c1[H])C([H])([H])C([H])([H])C([H])([H])C2([H])N([H])C(=O)C1([H])N(C(=O)C([H])(N([H])C(=O)C([H])(N([H])C([H])([H])[H])C([H])([H])[H])C(C([H])([H])[H])(C([H])([H])[H])C([H])([H])[H])C([H])([H])c2c([H])c(OC([H])([H])C([H])(C([H])([H])[H])[N+]([H])([H])C([H])([H])C3(N4C([H])([H])C([H])([H])N(C(=O)N5C([H])([H])C([H])([H])C([H])([H])C([H])(n6nc(-c7c([H])c([H])c(Oc8c([H])c([H])c(F)c([H])c8F)c([H])c7[H])c(C(=O)N([H])[H])c6N([H])[H])C5([H])[H])C([H])([H])C4([H])[H])C([H])([H])C3([H])[H])c([H])c([H])c2C1([H])[H]

$$$$
80:0:0
     RDKit          3D

 92101  0  0  1  0  0  0  0  0999 V2000
  -30.0110  -23.3530   20.8240 C   0  0  0  0  0  3  0  0  0  0  0  0
  -28.7010  -23.7650   20.4960 C   0  0  0  0  0  0  0  0  0  0  0  0
  -27.9040  -22.6850   20.0160 C   0  0  0  0  0  0  0  0  0  0  0  0
  -29.5980  -21.1170   20.3130 C   0  0  0  0  0  0  0  0  0  0  0  0
  -26.4600  -22.8890   19.6010 C   0  0  0  0  0  1  0  0  0  0  0  0
  -30.4430  -22.0590   20.7220 N   0  0  0  0  0  0  0  0  0  0  0  0
  -28.3520  -21.3890   19.9360 N   0  0  0  0  0  0  0  0  0  0  0  0
  -30.1160  -19.7940   20.2820 N   0  0  0  0  0  0  0  0  0  0  0  0
  -31.0940  -19.7670   20.5370 H   0  0  0  0  0  0  0  0  0  0  0  0
  -30.7080  -14.7510   20.0230 C   0  0  0  0  0  0  0  0  0  0  0  0
  -30.3940  -12.5330   18.9250 C   0  0  0  0  0  2  0  0  0  0  0  0
  -29.3820  -12.6640   17.7670 C   0  0  0  0  0  2  0  0  0  0  0  0
  -27.9380  -12.4870   18.2810 C   0  0  0  0  0  2  0  0  0  0  0  0
  -27.6540  -13.3150   19.5610 C   0  0  0  0  0  3  0  0  0  0  0  0
  -28.7830  -13.1510   20.6020 C   0  0  0  0  0  2  0  0  0  0  0  0
  -30.0350  -13.5490   19.9430 N   0  0  0  0  0  0  0  0  0  0  0  0
  -31.8580  -14.8200   19.5780 O   0  0  0  0  0  0  0  0  0  0  0  0
  -29.1070  -17.8130   21.5260 C   0  0  0  0  0  2  0  0  0  0  0  0
  -29.1040  -16.2710   21.3280 C   0  0  0  0  0  2  0  0  0  0  0  0
  -30.4010  -17.2670   19.6260 C   0  0  0  0  0  2  0  0  0  0  0  0
  -29.4870  -18.4320   20.1790 C   0  0  0  0  0  3  0  0  0  0  0  0
  -30.0050  -15.9400   20.2140 N   0  0  0  0  0  0  0  0  0  0  0  0
  -25.3100  -13.8800   20.4380 C   0  0  0  0  0  0  0  0  0  0  0  0
  -24.2690  -13.0930   20.8500 C   0  0  0  0  0  0  0  0  0  0  0  0
  -24.7320  -11.7450   20.7540 C   0  0  0  0  0  0  0  0  0  0  0  0
  -26.3410  -13.0110   20.1210 N   0  0  0  0  0  0  0  0  0  0  0  0
  -26.0030  -11.7190   20.3700 N   0  0  0  0  0  0  0  0  0  0  0  0
  -24.0180  -10.4760   20.9470 C   0  0  0  0  0  0  0  0  0  0  0  0
  -24.4610   -9.5150   21.8830 C   0  0  0  0  0  3  0  0  0  0  0  0
  -23.7460   -8.3120   22.0650 C   0  0  0  0  0  3  0  0  0  0  0  0
  -22.5750   -8.0600   21.3120 C   0  0  0  0  0  0  0  0  0  0  0  0
  -22.1530   -9.0090   20.3640 C   0  0  0  0  0  3  0  0  0  0  0  0
  -22.8680  -10.2050   20.1800 C   0  0  0  0  0  3  0  0  0  0  0  0
  -21.8310   -6.9090   21.4040 O   0  0  0  0  0  0  0  0  0  0  0  0
  -21.7240   -6.2140   22.5830 C   0  0  0  0  0  0  0  0  0  0  0  0
  -21.2150   -6.8130   23.7560 C   0  0  0  0  0  3  0  0  0  0  0  0
  -21.0560   -6.0430   24.9260 C   0  0  0  0  0  3  0  0  0  0  0  0
  -21.3950   -4.6770   24.9230 C   0  0  0  0  0  0  0  0  0  0  0  0
  -21.8970   -4.0780   23.7540 C   0  0  0  0  0  3  0  0  0  0  0  0
  -22.0580   -4.8450   22.5860 C   0  0  0  0  0  0  0  0  0  0  0  0
  -22.5220   -4.2590   21.4570 F   0  0  0  0  0  0  0  0  0  0  0  0
  -21.2360   -3.9360   26.0440 F   0  0  0  0  0  0  0  0  0  0  0  0
  -22.8900  -13.5580   21.2170 C   0  0  0  0  0  0  0  0  0  0  0  0
  -22.2200  -12.8420   22.1130 N   0  0  0  0  0  0  0  0  0  0  0  0
  -22.4180  -14.5930   20.7480 O   0  0  0  0  0  0  0  0  0  0  0  0
  -22.6160  -12.0040   22.5120 H   0  0  0  0  0  0  0  0  0  0  0  0
  -21.2980  -13.1350   22.4030 H   0  0  0  0  0  0  0  0  0  0  0  0
  -25.4550  -15.2550   20.2820 N   0  0  0  0  0  0  0  0  0  0  0  0
  -24.6810  -15.8940   20.4280 H   0  0  0  0  0  0  0  0  0  0  0  0
  -26.2710  -15.7040   19.8880 H   0  0  0  0  0  0  0  0  0  0  0  0
  -28.1190  -25.1790   20.9290 C   0  0  0  0  0  2  0  0  0  0  0  0
  -28.4160  -26.4620   20.2380 O   0  0  0  0  0  0  0  0  0  0  0  0
  -24.6260  -31.8750   23.2200 C   0  0  0  0  0  0  0  0  0  0  0  0
  -27.3310  -27.3530   20.1890 C   0  0  0  0  0  0  0  0  0  0  0  0
  -23.4600  -30.4620   21.5650 C   0  0  0  0  0  3  0  0  0  0  0  0
  -24.9500  -28.9360   20.1500 C   0  0  0  0  0  0  0  0  0  0  0  0
  -25.9990  -30.8140   21.4120 C   0  0  0  0  0  2  0  0  0  0  0  0
  -26.1070  -29.4380   20.7640 C   0  0  0  0  0  0  0  0  0  0  0  0
  -27.3050  -28.6580   20.7740 C   0  0  0  0  0  3  0  0  0  0  0  0
  -26.1590  -26.9130   19.5400 C   0  0  0  0  0  3  0  0  0  0  0  0
  -24.9790  -27.6800   19.5280 C   0  0  0  0  0  3  0  0  0  0  0  0
  -23.7010  -29.7930   20.1860 C   0  0  0  0  0  2  0  0  0  0  0  0
  -24.7130  -31.0690   22.1220 N   0  0  0  0  0  0  0  0  0  0  0  0
  -23.5330  -32.1380   23.7420 O   0  0  0  0  0  0  0  0  0  0  0  0
  -22.8010  -29.4350   22.5160 C   0  0  0  0  0  0  0  0  0  0  0  0
  -21.4770  -29.2480   22.3810 N   0  0  0  0  0  0  0  0  0  0  0  0
  -23.4800  -28.8110   23.3360 O   0  0  0  0  0  0  0  0  0  0  0  0
  -20.9870  -29.8030   21.6940 H   0  0  0  0  0  0  0  0  0  0  0  0
  -18.1060  -28.0240   22.8610 C   0  0  0  0  0  0  0  0  0  0  0  0
  -20.6610  -28.3000   23.1440 C   0  0  0  0  0  3  0  0  0  0  0  0
  -20.7750  -26.8710   22.5630 C   0  0  0  0  0  2  0  0  0  0  0  0
  -19.6820  -26.5460   21.5410 C   0  0  0  0  0  2  0  0  0  0  0  0
  -18.2960  -26.6790   22.1770 C   0  0  0  0  0  2  0  0  0  0  0  0
  -19.2170  -28.7910   23.3000 C   0  0  0  0  0  0  0  0  0  0  0  0
  -18.9860  -30.0490   23.8970 C   0  0  0  0  0  3  0  0  0  0  0  0
  -17.6770  -30.5400   24.0590 C   0  0  0  0  0  3  0  0  0  0  0  0
  -16.5800  -29.7690   23.6380 C   0  0  0  0  0  3  0  0  0  0  0  0
  -16.7950  -28.5120   23.0440 C   0  0  0  0  0  3  0  0  0  0  0  0
  -25.8930  -32.5260   23.8560 C   0  0  0  0  0  3  0  0  0  0  0  0
  -25.5620  -33.9210   24.1810 N   0  0  0  0  0  0  0  0  0  0  0  0
  -25.8980  -34.9780   23.4300 C   0  0  0  0  0  0  0  0  0  0  0  0
  -26.5910  -34.8830   22.4120 O   0  0  0  0  0  0  0  0  0  0  0  0
  -24.9520  -34.0680   24.9730 H   0  0  0  0  0  0  0  0  0  0  0  0
  -24.1700  -36.7600   23.0280 C   0  0  0  0  0  1  0  0  0  0  0  0
  -25.3870  -36.3600   23.8790 C   0  0  0  0  0  3  0  0  0  0  0  0
  -27.4860  -37.2570   24.7850 C   0  0  0  0  0  1  0  0  0  0  0  0
  -26.4160  -37.4220   23.8050 N   0  0  0  0  0  0  0  0  0  0  0  0
  -25.9980  -38.3380   23.9420 H   0  0  0  0  0  0  0  0  0  0  0  0
  -26.4030  -31.7630   25.1410 C   0  0  1  0  0  0  0  0  0  0  0  0
  -25.2990  -31.5100   26.1940 C   0  0  0  0  0  1  0  0  0  0  0  0
  -27.0100  -30.3930   24.7610 C   0  0  0  0  0  1  0  0  0  0  0  0
  -27.5330  -32.5740   25.8180 C   0  0  0  0  0  1  0  0  0  0  0  0
  2  1  2  0
  2 51  1  0
  3  2  1  0
  4  6  2  0
  5  3  1  0
  6  1  1  0
  7  3  2  0
  7  4  1  0
  8  4  1  0
  8  9  1  0
 10 22  1  0
 11 16  1  0
 12 13  1  0
 12 11  1  0
 14 13  1  0
 14 26  1  0
 14 15  1  0
 16 10  1  0
 16 15  1  0
 17 10  2  0
 19 18  1  0
 20 21  1  0
 20 22  1  0
 21  8  1  0
 21 18  1  0
 22 19  1  0
 23 24  2  0
 24 43  1  0
 25 24  1  0
 25 28  1  0
 26 27  1  0
 26 23  1  0
 27 25  2  0
 28 29  1  0
 29 30  2  0
 31 34  1  0
 31 30  1  0
 32 31  2  0
 33 32  1  0
 33 28  2  0
 34 35  1  0
 35 40  2  0
 35 36  1  0
 36 37  2  0
 38 37  1  0
 38 42  1  0
 39 38  2  0
 40 39  1  0
 41 40  1  0
 43 44  1  0
 44 47  1  0
 44 46  1  0
 45 43  2  0
 48 49  1  0
 48 23  1  0
 50 48  1  0
 52 51  1  0
 53 64  2  0
 54 52  1  0
 54 59  1  0
 55 63  1  0
 55 65  1  0
 56 62  1  0
 56 58  1  0
 57 63  1  0
 58 59  2  0
 58 57  1  0
 60 54  2  0
 61 60  1  0
 61 56  2  0
 62 55  1  0
 63 53  1  0
 65 67  2  0
 66 65  1  0
 68 66  1  0
 69 78  2  0
 69 74  1  0
 70 66  1  0
 70 74  1  0
 71 70  1  0
 72 73  1  0
 72 71  1  0
 73 69  1  0
 74 75  2  0
 75 76  1  0
 77 76  2  0
 78 77  1  0
 79 53  1  0
 79 80  1  0
 79 89  1  0
 80 83  1  0
 81 85  1  0
 81 80  1  0
 82 81  2  0
 85 84  1  0
 87 85  1  0
 87 88  1  0
 87 86  1  0
 89 92  1  1
 89 90  1  0
 91 89  1  0
M  ISO  4  10 100  22 100  51 101  52 101
M  END
>  <TORSDO>  (81) 
F 17

>  <SCORE>  (81) 
-14.309

>  <name>  (81) 
80

>  <ligand_id>  (81) 
80

>  <original_smiles>  (81) 
[H]c1nc(N([H])C2([H])C([H])([H])N(C(=O)N3C([H])([H])C([H])([H])C([H])([H])C([H])(n4nc(-c5c([H])c([H])c(Oc6c([H])c([H])c(F)c([H])c6F)c([H])c5[H])c(C(=O)N([H])[H])c4N([H])[H])C3([H])[H])C([H])([H])C2([H])[H])nc(C([H])([H])[H])c1C([H])([H])Oc1c([H])c([H])c2c(c1[H])C([H])([H])N(C(=O)C([H])(N([H])C(=O)C([H])(N([H])C([H])([H])[H])C([H])([H])[H])C(C([H])([H])[H])(C([H])([H])[H])C([H])([H])[H])C([H])(C(=O)N([H])C1([H])c3c([H])c([H])c([H])c([H])c3C([H])([H])C([H])([H])C1([H])[H])C2([H])[H]

>  <smiles>  (81) 
[H]c1nc(N([H])C2([H])C([H])([H])N(C(=O)N3C([H])([H])C([H])([H])C([H])([H])C([H])(n4nc(-c5c([H])c([H])c(Oc6c([H])c([H])c(F)c([H])c6F)c([H])c5[H])c(C(=O)N([H])[H])c4N([H])[H])C3([H])[H])C([H])([H])C2([H])[H])nc(C([H])([H])[H])c1C([H])([H])Oc1c([H])c([H])c2c(c1[H])C([H])([H])N(C(=O)C([H])(N([H])C(=O)C([H])(N([H])C([H])([H])[H])C([H])([H])[H])C(C([H])([H])[H])(C([H])([H])[H])C([H])([H])[H])C([H])(C(=O)N([H])C1([H])c3c([H])c([H])c([H])c([H])c3C([H])([H])C([H])([H])C1([H])[H])C2([H])[H]

$$$$
81:0:0
     RDKit          3D

 93102  0  0  1  0  0  0  0  0999 V2000
  -28.3000  -23.0410   19.1830 C   0  0  0  0  0  3  0  0  0  0  0  0
  -28.5980  -22.3160   20.3650 C   0  0  0  0  0  0  0  0  0  0  0  0
  -28.8060  -23.1770   21.4770 C   0  0  0  0  0  3  0  0  0  0  0  0
  -28.3730  -25.1140   20.2400 C   0  0  0  0  0  0  0  0  0  0  0  0
  -29.1050  -22.6220   22.8560 C   0  0  0  0  0  1  0  0  0  0  0  0
  -28.2070  -24.4030   19.1200 N   0  0  0  0  0  0  0  0  0  0  0  0
  -28.7120  -24.5400   21.4000 N   0  0  0  0  0  0  0  0  0  0  0  0
  -28.4390  -26.5020   20.1500 O   0  0  0  0  0  0  0  0  0  0  0  0
  -24.6540  -31.8470   23.2330 C   0  0  0  0  0  0  0  0  0  0  0  0
  -27.2840  -27.3060   20.1540 C   0  0  0  0  0  0  0  0  0  0  0  0
  -23.4590  -30.4650   21.5710 C   0  0  0  0  0  3  0  0  0  0  0  0
  -24.9170  -28.9210   20.1420 C   0  0  0  0  0  0  0  0  0  0  0  0
  -25.9980  -30.7820   21.4070 C   0  0  0  0  0  2  0  0  0  0  0  0
  -26.0800  -29.4050   20.7530 C   0  0  0  0  0  0  0  0  0  0  0  0
  -27.2630  -28.6090   20.7510 C   0  0  0  0  0  3  0  0  0  0  0  0
  -26.0990  -26.8770   19.5170 C   0  0  0  0  0  3  0  0  0  0  0  0
  -24.9280  -27.6620   19.5180 C   0  0  0  0  0  3  0  0  0  0  0  0
  -23.6820  -29.7990   20.1870 C   0  0  0  0  0  2  0  0  0  0  0  0
  -24.7220  -31.0490   22.1280 N   0  0  0  0  0  0  0  0  0  0  0  0
  -23.5680  -32.1210   23.7650 O   0  0  0  0  0  0  0  0  0  0  0  0
  -22.7900  -29.4410   22.5180 C   0  0  0  0  0  0  0  0  0  0  0  0
  -21.4630  -29.2700   22.3840 N   0  0  0  0  0  0  0  0  0  0  0  0
  -23.4630  -28.8030   23.3310 O   0  0  0  0  0  0  0  0  0  0  0  0
  -20.9800  -29.8370   21.7030 H   0  0  0  0  0  0  0  0  0  0  0  0
  -18.0770  -28.0970   22.8720 C   0  0  0  0  0  0  0  0  0  0  0  0
  -20.6380  -28.3280   23.1410 C   0  0  0  0  0  3  0  0  0  0  0  0
  -20.7250  -26.9060   22.5400 C   0  0  0  0  0  2  0  0  0  0  0  0
  -19.6180  -26.6110   21.5230 C   0  0  0  0  0  2  0  0  0  0  0  0
  -18.2400  -26.7580   22.1720 C   0  0  0  0  0  2  0  0  0  0  0  0
  -19.2040  -28.8420   23.3130 C   0  0  0  0  0  0  0  0  0  0  0  0
  -18.9970  -30.0940   23.9280 C   0  0  0  0  0  3  0  0  0  0  0  0
  -17.6970  -30.6050   24.1060 C   0  0  0  0  0  3  0  0  0  0  0  0
  -16.5850  -29.8580   23.6810 C   0  0  0  0  0  3  0  0  0  0  0  0
  -16.7770  -28.6050   23.0700 C   0  0  0  0  0  3  0  0  0  0  0  0
  -25.9340  -32.4720   23.8710 C   0  0  0  0  0  3  0  0  0  0  0  0
  -25.6220  -33.8650   24.2220 N   0  0  0  0  0  0  0  0  0  0  0  0
  -25.9160  -34.9250   23.4600 C   0  0  0  0  0  0  0  0  0  0  0  0
  -26.5490  -34.8360   22.4030 O   0  0  0  0  0  0  0  0  0  0  0  0
  -25.0550  -34.0070   25.0440 H   0  0  0  0  0  0  0  0  0  0  0  0
  -24.1390  -36.6890   23.2070 C   0  0  0  0  0  1  0  0  0  0  0  0
  -25.4330  -36.3060   23.9440 C   0  0  0  0  0  3  0  0  0  0  0  0
  -27.5950  -37.2330   24.6500 C   0  0  0  0  0  1  0  0  0  0  0  0
  -26.4390  -37.3770   23.7690 N   0  0  0  0  0  0  0  0  0  0  0  0
  -26.0250  -38.2900   23.9360 H   0  0  0  0  0  0  0  0  0  0  0  0
  -26.4450  -31.6820   25.1390 C   0  0  1  0  0  0  0  0  0  0  0  0
  -25.3480  -31.4310   26.2000 C   0  0  0  0  0  1  0  0  0  0  0  0
  -27.0290  -30.3090   24.7310 C   0  0  0  0  0  1  0  0  0  0  0  0
  -27.5940  -32.4660   25.8160 C   0  0  0  0  0  1  0  0  0  0  0  0
  -28.4060  -20.7310   20.4590 C   0  0  0  0  0  2  0  0  0  0  0  0
  -30.4910  -17.8920   19.0630 C   0  0  0  0  0  2  0  0  0  0  0  0
  -30.2340  -19.4320   19.1940 C   0  0  0  0  0  2  0  0  0  0  0  0
  -29.1620  -18.3040   20.9630 C   0  0  0  0  0  2  0  0  0  0  0  0
  -30.2430  -17.2770   20.4520 C   0  0  0  0  0  3  0  0  0  0  0  0
  -29.5340  -19.6910   20.4800 N   0  0  2  0  0  4  0  0  0  0  0  0
  -30.2390  -20.0120   21.1270 H   0  0  0  0  0  0  0  0  0  0  0  0
  -30.6930  -14.6930   20.2120 C   0  0  0  0  0  0  0  0  0  0  0  0
  -30.4710  -12.4270   19.2010 C   0  0  0  0  0  2  0  0  0  0  0  0
  -29.4960  -12.5100   18.0060 C   0  0  0  0  0  2  0  0  0  0  0  0
  -28.0380  -12.3390   18.4790 C   0  0  0  0  0  2  0  0  0  0  0  0
  -27.7010  -13.2290   19.7040 C   0  0  0  0  0  3  0  0  0  0  0  0
  -28.7880  -13.1280   20.7960 C   0  0  0  0  0  2  0  0  0  0  0  0
  -30.0720  -13.4700   20.1710 N   0  0  0  0  0  0  0  0  0  0  0  0
  -31.8550  -14.8250   19.8210 O   0  0  0  0  0  0  0  0  0  0  0  0
  -29.9110  -15.7910   20.4990 N   0  0  0  0  0  0  0  0  0  0  0  0
  -28.9690  -15.5620   20.7830 H   0  0  0  0  0  0  0  0  0  0  0  0
  -25.3440  -13.8300   20.5260 C   0  0  0  0  0  0  0  0  0  0  0  0
  -24.2830  -13.0580   20.9140 C   0  0  0  0  0  0  0  0  0  0  0  0
  -24.7310  -11.7030   20.8340 C   0  0  0  0  0  0  0  0  0  0  0  0
  -26.3700  -12.9460   20.2310 N   0  0  0  0  0  0  0  0  0  0  0  0
  -26.0080  -11.6600   20.4780 N   0  0  0  0  0  0  0  0  0  0  0  0
  -23.9990  -10.4430   21.0180 C   0  0  0  0  0  0  0  0  0  0  0  0
  -24.4270   -9.4690   21.9460 C   0  0  0  0  0  3  0  0  0  0  0  0
  -23.6960   -8.2750   22.1190 C   0  0  0  0  0  3  0  0  0  0  0  0
  -22.5220   -8.0450   21.3630 C   0  0  0  0  0  0  0  0  0  0  0  0
  -22.1110   -9.0080   20.4240 C   0  0  0  0  0  3  0  0  0  0  0  0
  -22.8430  -10.1950   20.2500 C   0  0  0  0  0  3  0  0  0  0  0  0
  -21.7630   -6.9030   21.4450 O   0  0  0  0  0  0  0  0  0  0  0  0
  -21.6720   -6.1820   22.6080 C   0  0  0  0  0  0  0  0  0  0  0  0
  -21.1840   -6.7540   23.8040 C   0  0  0  0  0  3  0  0  0  0  0  0
  -21.0400   -5.9590   24.9580 C   0  0  0  0  0  3  0  0  0  0  0  0
  -21.3740   -4.5910   24.9180 C   0  0  0  0  0  0  0  0  0  0  0  0
  -21.8550   -4.0190   23.7270 C   0  0  0  0  0  3  0  0  0  0  0  0
  -22.0000   -4.8120   22.5750 C   0  0  0  0  0  0  0  0  0  0  0  0
  -22.4430   -4.2500   21.4250 F   0  0  0  0  0  0  0  0  0  0  0  0
  -21.2300   -3.8240   26.0240 F   0  0  0  0  0  0  0  0  0  0  0  0
  -22.9010  -13.5410   21.2450 C   0  0  0  0  0  0  0  0  0  0  0  0
  -22.1990  -12.8360   22.1250 N   0  0  0  0  0  0  0  0  0  0  0  0
  -22.4550  -14.5800   20.7600 O   0  0  0  0  0  0  0  0  0  0  0  0
  -22.5740  -11.9960   22.5410 H   0  0  0  0  0  0  0  0  0  0  0  0
  -21.2730  -13.1420   22.3890 H   0  0  0  0  0  0  0  0  0  0  0  0
  -25.5180  -15.2030   20.3750 N   0  0  0  0  0  0  0  0  0  0  0  0
  -24.7560  -15.8580   20.5180 H   0  0  0  0  0  0  0  0  0  0  0  0
  -26.3390  -15.6340   19.9740 H   0  0  0  0  0  0  0  0  0  0  0  0
  1  2  2  0
  2 49  1  0
  2  3  1  0
  3  5  1  0
  4  7  2  0
  6  1  1  0
  6  4  2  0
  7  3  1  0
  8 10  1  0
  8  4  1  0
  9 20  2  0
 10 15  1  0
 11 19  1  0
 11 21  1  0
 12 18  1  0
 12 14  1  0
 13 19  1  0
 14 13  1  0
 15 14  2  0
 16 17  1  0
 16 10  2  0
 17 12  2  0
 18 11  1  0
 19  9  1  0
 21 23  2  0
 22 21  1  0
 24 22  1  0
 25 34  2  0
 25 30  1  0
 26 22  1  0
 26 30  1  0
 27 26  1  0
 28 29  1  0
 28 27  1  0
 29 25  1  0
 30 31  2  0
 31 32  1  0
 33 32  2  0
 34 33  1  0
 35  9  1  0
 35 36  1  0
 35 45  1  0
 36 39  1  0
 37 41  1  0
 37 36  1  0
 38 37  2  0
 41 40  1  0
 43 44  1  0
 43 41  1  0
 43 42  1  0
 45 48  1  1
 45 46  1  0
 47 45  1  0
 49 54  1  0
 50 51  1  0
 50 53  1  0
 51 54  1  0
 53 64  1  0
 53 52  1  0
 54 52  1  0
 54 55  1  1
 56 64  1  0
 57 62  1  0
 58 59  1  0
 58 57  1  0
 60 59  1  0
 60 69  1  0
 60 61  1  0
 62 56  1  0
 62 61  1  0
 63 56  2  0
 64 65  1  0
 66 67  2  0
 67 86  1  0
 68 67  1  0
 68 71  1  0
 69 70  1  0
 69 66  1  0
 70 68  2  0
 71 72  1  0
 72 73  2  0
 74 77  1  0
 74 73  1  0
 75 74  2  0
 76 75  1  0
 76 71  2  0
 77 78  1  0
 78 79  1  0
 79 80  2  0
 81 80  1  0
 81 85  1  0
 82 81  2  0
 83 78  2  0
 83 82  1  0
 84 83  1  0
 86 87  1  0
 87 90  1  0
 87 89  1  0
 88 86  2  0
 91 92  1  0
 91 66  1  0
 93 91  1  0
M  ISO  4   4 101   8 101  56 100  64 100
M  END
>  <TORSDO>  (82) 
F 18

>  <SCORE>  (82) 
-14.515

>  <name>  (82) 
81

>  <ligand_id>  (82) 
81

>  <original_smiles>  (82) 
[H]c1nc(Oc2c([H])c([H])c3c(c2[H])C([H])([H])N(C(=O)C([H])(N([H])C(=O)C([H])(N([H])C([H])([H])[H])C([H])([H])[H])C(C([H])([H])[H])(C([H])([H])[H])C([H])([H])[H])C([H])(C(=O)N([H])C2([H])c4c([H])c([H])c([H])c([H])c4C([H])([H])C([H])([H])C2([H])[H])C3([H])[H])nc(C([H])([H])[H])c1C([H])([H])[N+]1([H])C([H])([H])C([H])([H])C([H])(N([H])C(=O)N2C([H])([H])C([H])([H])C([H])([H])C([H])(n3nc(-c4c([H])c([H])c(Oc5c([H])c([H])c(F)c([H])c5F)c([H])c4[H])c(C(=O)N([H])[H])c3N([H])[H])C2([H])[H])C1([H])[H]

>  <smiles>  (82) 
[H]c1nc(Oc2c([H])c([H])c3c(c2[H])C([H])([H])N(C(=O)C([H])(N([H])C(=O)C([H])(N([H])C([H])([H])[H])C([H])([H])[H])C(C([H])([H])[H])(C([H])([H])[H])C([H])([H])[H])C([H])(C(=O)N([H])C2([H])c4c([H])c([H])c([H])c([H])c4C([H])([H])C([H])([H])C2([H])[H])C3([H])[H])nc(C([H])([H])[H])c1C([H])([H])[N+]1([H])C([H])([H])C([H])([H])C([H])(N([H])C(=O)N2C([H])([H])C([H])([H])C([H])([H])C([H])(n3nc(-c4c([H])c([H])c(Oc5c([H])c([H])c(F)c([H])c5F)c([H])c4[H])c(C(=O)N([H])[H])c3N([H])[H])C2([H])[H])C1([H])[H]

$$$$
82:0:0
     RDKit          3D

 91 99  0  0  1  0  0  0  0  0999 V2000
  -28.9710  -23.3160   20.3670 C   0  0  0  0  0  3  0  0  0  0  0  0
  -30.6210  -22.7710   22.1840 C   0  0  0  0  0  1  0  0  0  0  0  0
  -29.3960  -23.4890   21.7790 N   0  0  0  0  0  4  0  0  0  0  0  0
  -29.5780  -24.4730   21.9100 H   0  0  0  0  0  0  0  0  0  0  0  0
  -28.6470  -23.2430   22.4070 H   0  0  0  0  0  0  0  0  0  0  0  0
  -28.5840  -21.6670   20.1040 C   0  0  0  0  0  2  0  0  0  0  0  0
  -29.6030  -20.4680   20.0430 N   0  0  0  0  0  0  0  0  0  0  0  0
  -30.2710  -20.6950   19.3080 H   0  0  0  0  0  0  0  0  0  0  0  0
  -30.6450  -15.0650   19.9060 C   0  0  0  0  0  0  0  0  0  0  0  0
  -30.4390  -12.7100   18.9580 C   0  0  0  0  0  2  0  0  0  0  0  0
  -29.4350  -12.6250   17.7850 C   0  0  0  0  0  2  0  0  0  0  0  0
  -28.0100  -12.3780   18.3110 C   0  0  0  0  0  2  0  0  0  0  0  0
  -27.6590  -13.3110   19.4990 C   0  0  0  0  0  3  0  0  0  0  0  0
  -28.7840  -13.3650   20.5560 C   0  0  0  0  0  2  0  0  0  0  0  0
  -30.0020  -13.8170   19.8660 N   0  0  0  0  0  0  0  0  0  0  0  0
  -31.8180  -15.0680   19.5090 O   0  0  0  0  0  0  0  0  0  0  0  0
  -28.5740  -18.2110   21.0430 C   0  0  0  0  0  2  0  0  0  0  0  0
  -28.7740  -16.6490   20.8750 C   0  0  0  0  0  2  0  0  0  0  0  0
  -30.4450  -17.7660   19.7180 C   0  0  0  0  0  2  0  0  0  0  0  0
  -29.2990  -18.9300   19.8940 C   0  0  0  0  0  3  0  0  0  0  0  0
  -29.9780  -16.3330   20.0830 N   0  0  0  0  0  0  0  0  0  0  0  0
  -25.3360  -13.8610   20.4230 C   0  0  0  0  0  0  0  0  0  0  0  0
  -24.3040  -13.0760   20.8500 C   0  0  0  0  0  0  0  0  0  0  0  0
  -24.7670  -11.7280   20.7510 C   0  0  0  0  0  0  0  0  0  0  0  0
  -26.3630  -12.9940   20.0880 N   0  0  0  0  0  0  0  0  0  0  0  0
  -26.0340  -11.7040   20.3520 N   0  0  0  0  0  0  0  0  0  0  0  0
  -24.0550  -10.4590   20.9570 C   0  0  0  0  0  0  0  0  0  0  0  0
  -24.5120   -9.4970   21.8840 C   0  0  0  0  0  3  0  0  0  0  0  0
  -23.7990   -8.2940   22.0770 C   0  0  0  0  0  3  0  0  0  0  0  0
  -22.6140   -8.0470   21.3460 C   0  0  0  0  0  0  0  0  0  0  0  0
  -22.1740   -8.9990   20.4100 C   0  0  0  0  0  3  0  0  0  0  0  0
  -22.8880  -10.1930   20.2140 C   0  0  0  0  0  3  0  0  0  0  0  0
  -21.8700   -6.8960   21.4500 O   0  0  0  0  0  0  0  0  0  0  0  0
  -21.8010   -6.1880   22.6230 C   0  0  0  0  0  0  0  0  0  0  0  0
  -21.3390   -6.7730   23.8220 C   0  0  0  0  0  3  0  0  0  0  0  0
  -21.2170   -5.9900   24.9870 C   0  0  0  0  0  3  0  0  0  0  0  0
  -21.5480   -4.6210   24.9550 C   0  0  0  0  0  0  0  0  0  0  0  0
  -22.0030   -4.0360   23.7600 C   0  0  0  0  0  3  0  0  0  0  0  0
  -22.1260   -4.8170   22.5980 C   0  0  0  0  0  0  0  0  0  0  0  0
  -22.5460   -4.2410   21.4450 F   0  0  0  0  0  0  0  0  0  0  0  0
  -21.4240   -3.8680   26.0710 F   0  0  0  0  0  0  0  0  0  0  0  0
  -22.9280  -13.5470   21.2230 C   0  0  0  0  0  0  0  0  0  0  0  0
  -22.2580  -12.8420   22.1260 N   0  0  0  0  0  0  0  0  0  0  0  0
  -22.4570  -14.5800   20.7470 O   0  0  0  0  0  0  0  0  0  0  0  0
  -22.6490  -12.0080   22.5390 H   0  0  0  0  0  0  0  0  0  0  0  0
  -21.3360  -13.1460   22.4080 H   0  0  0  0  0  0  0  0  0  0  0  0
  -25.4760  -15.2350   20.2580 N   0  0  0  0  0  0  0  0  0  0  0  0
  -24.7060  -15.8780   20.4110 H   0  0  0  0  0  0  0  0  0  0  0  0
  -26.2740  -15.6730   19.8180 H   0  0  0  0  0  0  0  0  0  0  0  0
  -27.9490  -24.6390   20.0480 C   0  0  0  0  0  2  0  0  0  0  0  0
  -28.2300  -26.1660   20.2870 O   0  0  0  0  0  0  0  0  0  0  0  0
  -24.6170  -31.8550   23.3030 C   0  0  0  0  0  0  0  0  0  0  0  0
  -27.1910  -27.1690   20.2160 C   0  0  0  0  0  0  0  0  0  0  0  0
  -23.4260  -30.4990   21.6250 C   0  0  0  0  0  3  0  0  0  0  0  0
  -24.8770  -28.9400   20.1860 C   0  0  0  0  0  0  0  0  0  0  0  0
  -25.9830  -30.7490   21.4890 C   0  0  0  0  0  2  0  0  0  0  0  0
  -26.0560  -29.3660   20.8140 C   0  0  0  0  0  0  0  0  0  0  0  0
  -27.2140  -28.4990   20.8080 C   0  0  0  0  0  3  0  0  0  0  0  0
  -25.9880  -26.8520   19.5460 C   0  0  0  0  0  3  0  0  0  0  0  0
  -24.8580  -27.6980   19.5350 C   0  0  0  0  0  3  0  0  0  0  0  0
  -23.6560  -29.8440   20.2370 C   0  0  0  0  0  2  0  0  0  0  0  0
  -24.6940  -31.0550   22.1950 N   0  0  0  0  0  0  0  0  0  0  0  0
  -23.5270  -32.1380   23.8240 O   0  0  0  0  0  0  0  0  0  0  0  0
  -22.7330  -29.4780   22.5630 C   0  0  0  0  0  0  0  0  0  0  0  0
  -21.4030  -29.3200   22.4240 N   0  0  0  0  0  0  0  0  0  0  0  0
  -23.3920  -28.8300   23.3790 O   0  0  0  0  0  0  0  0  0  0  0  0
  -20.9230  -29.9020   21.7520 H   0  0  0  0  0  0  0  0  0  0  0  0
  -18.0060  -28.1470   22.8900 C   0  0  0  0  0  0  0  0  0  0  0  0
  -20.5670  -28.3720   23.1670 C   0  0  0  0  0  3  0  0  0  0  0  0
  -20.6520  -26.9520   22.5590 C   0  0  0  0  0  2  0  0  0  0  0  0
  -19.5480  -26.6680   21.5340 C   0  0  0  0  0  2  0  0  0  0  0  0
  -18.1680  -26.8130   22.1800 C   0  0  0  0  0  2  0  0  0  0  0  0
  -19.1320  -28.8860   23.3400 C   0  0  0  0  0  0  0  0  0  0  0  0
  -18.9250  -30.1350   23.9650 C   0  0  0  0  0  3  0  0  0  0  0  0
  -17.6270  -30.6470   24.1400 C   0  0  0  0  0  3  0  0  0  0  0  0
  -16.5140  -29.9040   23.7070 C   0  0  0  0  0  3  0  0  0  0  0  0
  -16.7040  -28.6550   23.0900 C   0  0  0  0  0  3  0  0  0  0  0  0
  -25.8920  -32.4730   23.9540 C   0  0  0  0  0  3  0  0  0  0  0  0
  -26.3510  -31.7140   25.2600 C   0  0  1  0  0  0  0  0  0  0  0  0
  -25.2230  -31.5210   26.3010 C   0  0  0  0  0  1  0  0  0  0  0  0
  -26.9140  -30.3180   24.9160 C   0  0  0  0  0  1  0  0  0  0  0  0
  -27.5000  -32.4960   25.9440 C   0  0  0  0  0  1  0  0  0  0  0  0
  -25.6060  -33.8840   24.2550 N   0  0  0  0  0  0  0  0  0  0  0  0
  -25.9600  -34.9190   23.4820 C   0  0  0  0  0  0  0  0  0  0  0  0
  -26.6300  -34.7850   22.4550 O   0  0  0  0  0  0  0  0  0  0  0  0
  -25.0150  -34.0620   25.0540 H   0  0  0  0  0  0  0  0  0  0  0  0
  -24.2560  -36.7360   23.1110 C   0  0  0  0  0  1  0  0  0  0  0  0
  -25.5000  -36.3260   23.9170 C   0  0  0  0  0  3  0  0  0  0  0  0
  -27.6550  -37.2010   24.7080 C   0  0  0  0  0  1  0  0  0  0  0  0
  -26.5470  -37.3610   23.7690 N   0  0  0  0  0  0  0  0  0  0  0  0
  -26.1570  -38.2900   23.8970 H   0  0  0  0  0  0  0  0  0  0  0  0
  1 50  1  0
  1  3  1  0
  3  4  1  0
  3  2  1  0
  3  5  1  0
  6  1  1  0
  7  6  1  0
  8  7  1  0
  9 21  1  0
 10 15  1  0
 11 12  1  0
 11 10  1  0
 13 12  1  0
 13 25  1  0
 13 14  1  0
 15  9  1  0
 15 14  1  0
 16  9  2  0
 18 17  1  0
 19 20  1  0
 19 21  1  0
 20  7  1  0
 20 17  1  0
 21 18  1  0
 22 23  2  0
 23 42  1  0
 24 23  1  0
 24 27  1  0
 25 26  1  0
 25 22  1  0
 26 24  2  0
 27 28  1  0
 28 29  2  0
 30 33  1  0
 30 29  1  0
 31 30  2  0
 32 31  1  0
 32 27  2  0
 33 34  1  0
 34 35  1  0
 35 36  2  0
 37 36  1  0
 37 41  1  0
 38 37  2  0
 39 34  2  0
 39 38  1  0
 40 39  1  0
 42 43  1  0
 43 46  1  0
 43 45  1  0
 44 42  2  0
 47 48  1  0
 47 22  1  0
 49 47  1  0
 50 51  1  0
 52 63  2  0
 53 51  1  0
 53 58  1  0
 54 62  1  0
 54 64  1  0
 55 61  1  0
 55 57  1  0
 56 62  1  0
 57 56  1  0
 58 57  2  0
 59 53  2  0
 60 59  1  0
 60 55  2  0
 61 54  1  0
 62 52  1  0
 64 66  2  0
 65 64  1  0
 67 65  1  0
 68 77  2  0
 68 73  1  0
 69 65  1  0
 69 73  1  0
 70 69  1  0
 71 72  1  0
 71 70  1  0
 72 68  1  0
 73 74  2  0
 74 75  1  0
 76 75  2  0
 77 76  1  0
 78 52  1  0
 78 83  1  0
 78 79  1  0
 79 82  1  1
 79 80  1  0
 81 79  1  0
 83 86  1  0
 84 88  1  0
 84 83  1  0
 85 84  2  0
 88 87  1  0
 90 91  1  0
 90 88  1  0
 90 89  1  0
M  ISO  4   9 100  21 100  50 101  51 101
M  END
>  <TORSDO>  (83) 
F 20

>  <SCORE>  (83) 
-14.558

>  <name>  (83) 
82

>  <ligand_id>  (83) 
82

>  <original_smiles>  (83) 
[H]c1c([H])c([H])c2c(c1[H])C([H])([H])C([H])([H])C([H])([H])C2([H])N([H])C(=O)C1([H])N(C(=O)C([H])(N([H])C(=O)C([H])(N([H])C([H])([H])[H])C([H])([H])[H])C(C([H])([H])[H])(C([H])([H])[H])C([H])([H])[H])C([H])([H])c2c([H])c(OC([H])([H])C([H])(C([H])([H])N([H])C3([H])C([H])([H])N(C(=O)N4C([H])([H])C([H])([H])C([H])([H])C([H])(n5nc(-c6c([H])c([H])c(Oc7c([H])c([H])c(F)c([H])c7F)c([H])c6[H])c(C(=O)N([H])[H])c5N([H])[H])C4([H])[H])C([H])([H])C3([H])[H])[N+]([H])([H])C([H])([H])[H])c([H])c([H])c2C1([H])[H]

>  <smiles>  (83) 
[H]c1c([H])c([H])c2c(c1[H])C([H])([H])C([H])([H])C([H])([H])C2([H])N([H])C(=O)C1([H])N(C(=O)C([H])(N([H])C(=O)C([H])(N([H])C([H])([H])[H])C([H])([H])[H])C(C([H])([H])[H])(C([H])([H])[H])C([H])([H])[H])C([H])([H])c2c([H])c(OC([H])([H])C([H])(C([H])([H])N([H])C3([H])C([H])([H])N(C(=O)N4C([H])([H])C([H])([H])C([H])([H])C([H])(n5nc(-c6c([H])c([H])c(Oc7c([H])c([H])c(F)c([H])c7F)c([H])c6[H])c(C(=O)N([H])[H])c5N([H])[H])C4([H])[H])C([H])([H])C3([H])[H])[N+]([H])([H])C([H])([H])[H])c([H])c([H])c2C1([H])[H]

$$$$
83:0:0
     RDKit          3D

 93102  0  0  1  0  0  0  0  0999 V2000
  -28.6590  -21.2840   19.0620 C   0  0  0  0  0  3  0  0  0  0  0  0
  -29.1450  -22.7950   21.2480 C   0  0  0  0  0  0  0  0  0  0  0  0
  -28.6020  -23.4440   20.0840 C   0  0  0  0  0  0  0  0  0  0  0  0
  -29.1440  -20.6120   20.2220 C   0  0  0  0  0  0  0  0  0  0  0  0
  -28.4050  -22.6350   18.9930 N   0  0  0  0  0  0  0  0  0  0  0  0
  -29.4160  -21.4250   21.2950 N   0  0  0  0  0  0  0  0  0  0  0  0
  -30.6010  -14.8290   20.2770 C   0  0  0  0  0  0  0  0  0  0  0  0
  -30.3610  -12.5330   19.3100 C   0  0  0  0  0  2  0  0  0  0  0  0
  -29.4090  -12.5320   18.0950 C   0  0  0  0  0  2  0  0  0  0  0  0
  -27.9570  -12.3320   18.5650 C   0  0  0  0  0  2  0  0  0  0  0  0
  -27.5750  -13.2640   19.7430 C   0  0  0  0  0  3  0  0  0  0  0  0
  -28.6510  -13.2760   20.8490 C   0  0  0  0  0  2  0  0  0  0  0  0
  -29.9240  -13.6280   20.2120 N   0  0  0  0  0  0  0  0  0  0  0  0
  -31.8130  -14.8230   20.0410 O   0  0  0  0  0  0  0  0  0  0  0  0
  -29.8560  -18.4830   21.5050 C   0  0  0  0  0  2  0  0  0  0  0  0
  -28.8320  -18.1870   19.2990 C   0  0  0  0  0  2  0  0  0  0  0  0
  -30.6800  -17.1710   21.1960 C   0  0  0  0  0  2  0  0  0  0  0  0
  -28.8150  -16.6290   19.7300 C   0  0  0  0  0  2  0  0  0  0  0  0
  -29.3450  -19.1620   20.3050 N   0  0  0  0  0  0  0  0  0  0  0  0
  -29.9530  -16.0550   20.5230 N   0  0  0  0  0  0  0  0  0  0  0  0
  -25.2150  -13.8480   20.5450 C   0  0  0  0  0  0  0  0  0  0  0  0
  -24.1560  -13.0660   20.9160 C   0  0  0  0  0  0  0  0  0  0  0  0
  -24.6200  -11.7170   20.8600 C   0  0  0  0  0  0  0  0  0  0  0  0
  -26.2500  -12.9690   20.2700 N   0  0  0  0  0  0  0  0  0  0  0  0
  -25.9040  -11.6830   20.5300 N   0  0  0  0  0  0  0  0  0  0  0  0
  -23.8960  -10.4530   21.0390 C   0  0  0  0  0  0  0  0  0  0  0  0
  -24.3270   -9.4830   21.9700 C   0  0  0  0  0  3  0  0  0  0  0  0
  -23.6020   -8.2830   22.1400 C   0  0  0  0  0  3  0  0  0  0  0  0
  -22.4340   -8.0470   21.3780 C   0  0  0  0  0  0  0  0  0  0  0  0
  -22.0240   -9.0070   20.4360 C   0  0  0  0  0  3  0  0  0  0  0  0
  -22.7500  -10.1960   20.2630 C   0  0  0  0  0  3  0  0  0  0  0  0
  -21.6770   -6.9030   21.4610 O   0  0  0  0  0  0  0  0  0  0  0  0
  -21.5960   -6.1780   22.6220 C   0  0  0  0  0  0  0  0  0  0  0  0
  -21.1130   -6.7410   23.8230 C   0  0  0  0  0  3  0  0  0  0  0  0
  -20.9800   -5.9380   24.9740 C   0  0  0  0  0  3  0  0  0  0  0  0
  -21.3200   -4.5720   24.9240 C   0  0  0  0  0  0  0  0  0  0  0  0
  -21.8010   -4.0090   23.7290 C   0  0  0  0  0  3  0  0  0  0  0  0
  -21.9330   -4.8090   22.5800 C   0  0  0  0  0  0  0  0  0  0  0  0
  -22.3730   -4.2550   21.4240 F   0  0  0  0  0  0  0  0  0  0  0  0
  -21.1890   -3.7990   26.0280 F   0  0  0  0  0  0  0  0  0  0  0  0
  -22.7640  -13.5370   21.2150 C   0  0  0  0  0  0  0  0  0  0  0  0
  -22.0580  -12.8310   22.0930 N   0  0  0  0  0  0  0  0  0  0  0  0
  -22.3120  -14.5640   20.7080 O   0  0  0  0  0  0  0  0  0  0  0  0
  -22.4410  -12.0000   22.5200 H   0  0  0  0  0  0  0  0  0  0  0  0
  -21.1210  -13.1170   22.3370 H   0  0  0  0  0  0  0  0  0  0  0  0
  -25.3720  -15.2230   20.3970 N   0  0  0  0  0  0  0  0  0  0  0  0
  -24.6160  -15.8710   20.5920 H   0  0  0  0  0  0  0  0  0  0  0  0
  -26.2310  -15.6870   20.1370 H   0  0  0  0  0  0  0  0  0  0  0  0
  -29.4020  -23.5650   22.4870 C   0  0  0  0  0  2  0  0  0  0  0  0
  -29.8210  -23.0480   23.5650 N   0  0  0  0  0  2  0  0  0  0  0  0
  -29.9320  -22.0490   23.4110 H   0  0  0  0  0  0  0  0  0  0  0  0
  -27.7930  -24.8410   20.0250 C   0  0  0  0  0  2  0  0  0  0  0  0
  -28.2350  -26.2800   20.2410 O   0  0  0  0  0  0  0  0  0  0  0  0
  -24.6360  -31.8960   23.2700 C   0  0  0  0  0  0  0  0  0  0  0  0
  -27.1880  -27.2560   20.1770 C   0  0  0  0  0  0  0  0  0  0  0  0
  -23.4250  -30.5210   21.6280 C   0  0  0  0  0  3  0  0  0  0  0  0
  -24.8600  -28.9780   20.1840 C   0  0  0  0  0  0  0  0  0  0  0  0
  -25.9790  -30.7880   21.4590 C   0  0  0  0  0  2  0  0  0  0  0  0
  -26.0440  -29.4120   20.7930 C   0  0  0  0  0  0  0  0  0  0  0  0
  -27.2070  -28.5650   20.7840 C   0  0  0  0  0  3  0  0  0  0  0  0
  -25.9720  -26.9230   19.5180 C   0  0  0  0  0  3  0  0  0  0  0  0
  -24.8350  -27.7410   19.5340 C   0  0  0  0  0  3  0  0  0  0  0  0
  -23.6390  -29.8710   20.2400 C   0  0  0  0  0  2  0  0  0  0  0  0
  -24.7000  -31.0860   22.1730 N   0  0  0  0  0  0  0  0  0  0  0  0
  -23.5540  -32.1820   23.8030 O   0  0  0  0  0  0  0  0  0  0  0  0
  -22.7520  -29.4970   22.5760 C   0  0  0  0  0  0  0  0  0  0  0  0
  -21.4220  -29.3330   22.4510 N   0  0  0  0  0  0  0  0  0  0  0  0
  -23.4220  -28.8580   23.3900 O   0  0  0  0  0  0  0  0  0  0  0  0
  -20.9380  -29.9020   21.7720 H   0  0  0  0  0  0  0  0  0  0  0  0
  -18.0300  -28.1640   22.9490 C   0  0  0  0  0  0  0  0  0  0  0  0
  -20.5920  -28.3980   23.2150 C   0  0  0  0  0  3  0  0  0  0  0  0
  -20.6790  -26.9690   22.6330 C   0  0  0  0  0  2  0  0  0  0  0  0
  -19.5720  -26.6610   21.6190 C   0  0  0  0  0  2  0  0  0  0  0  0
  -18.1940  -26.8140   22.2710 C   0  0  0  0  0  2  0  0  0  0  0  0
  -19.1580  -28.9150   23.3800 C   0  0  0  0  0  0  0  0  0  0  0  0
  -18.9510  -30.1770   23.9750 C   0  0  0  0  0  3  0  0  0  0  0  0
  -17.6520  -30.6890   24.1470 C   0  0  0  0  0  3  0  0  0  0  0  0
  -16.5390  -29.9350   23.7320 C   0  0  0  0  0  3  0  0  0  0  0  0
  -16.7290  -28.6750   23.1390 C   0  0  0  0  0  3  0  0  0  0  0  0
  -25.9220  -32.5170   23.8940 C   0  0  0  0  0  3  0  0  0  0  0  0
  -25.6240  -33.9180   24.2300 N   0  0  0  0  0  0  0  0  0  0  0  0
  -25.9350  -34.9690   23.4610 C   0  0  0  0  0  0  0  0  0  0  0  0
  -26.5720  -34.8620   22.4100 O   0  0  0  0  0  0  0  0  0  0  0  0
  -25.0560  -34.0740   25.0500 H   0  0  0  0  0  0  0  0  0  0  0  0
  -24.1860  -36.7540   23.1780 C   0  0  0  0  0  1  0  0  0  0  0  0
  -25.4660  -36.3590   23.9330 C   0  0  0  0  0  3  0  0  0  0  0  0
  -27.6300  -37.2580   24.6640 C   0  0  0  0  0  1  0  0  0  0  0  0
  -26.4870  -37.4160   23.7690 N   0  0  0  0  0  0  0  0  0  0  0  0
  -26.0830  -38.3360   23.9330 H   0  0  0  0  0  0  0  0  0  0  0  0
  -26.4320  -31.7410   25.1700 C   0  0  1  0  0  0  0  0  0  0  0  0
  -25.3410  -31.5080   26.2420 C   0  0  0  0  0  1  0  0  0  0  0  0
  -27.0080  -30.3600   24.7810 C   0  0  0  0  0  1  0  0  0  0  0  0
  -27.5850  -32.5290   25.8330 C   0  0  0  0  0  1  0  0  0  0  0  0
  1  4  1  0
  2  6  1  0
  2 49  1  0
  3  2  2  0
  4 19  1  0
  4  6  2  0
  5  1  2  0
  5  3  1  0
  7 20  1  0
  8 13  1  0
  9 10  1  0
  9  8  1  0
 11 10  1  0
 11 24  1  0
 11 12  1  0
 13  7  1  0
 13 12  1  0
 14  7  2  0
 16 18  1  0
 16 19  1  0
 17 15  1  0
 18 20  1  0
 19 15  1  0
 20 17  1  0
 21 22  2  0
 22 41  1  0
 23 22  1  0
 23 26  1  0
 24 25  1  0
 24 21  1  0
 25 23  2  0
 26 27  1  0
 27 28  2  0
 29 32  1  0
 29 28  1  0
 30 29  2  0
 31 30  1  0
 31 26  2  0
 32 33  1  0
 33 34  1  0
 34 35  2  0
 36 35  1  0
 36 40  1  0
 37 36  2  0
 38 33  2  0
 38 37  1  0
 39 38  1  0
 41 42  1  0
 42 45  1  0
 42 44  1  0
 43 41  2  0
 46 21  1  0
 46 47  1  0
 48 46  1  0
 49 50  1  0
 51 50  1  0
 52  3  1  0
 52 53  1  0
 54 65  2  0
 55 53  1  0
 55 60  1  0
 56 64  1  0
 56 66  1  0
 57 63  1  0
 57 59  1  0
 58 64  1  0
 59 58  1  0
 60 59  2  0
 61 62  1  0
 61 55  2  0
 62 57  2  0
 63 56  1  0
 64 54  1  0
 66 68  2  0
 67 66  1  0
 69 67  1  0
 70 79  2  0
 70 75  1  0
 71 67  1  0
 71 75  1  0
 72 71  1  0
 73 74  1  0
 73 72  1  0
 74 70  1  0
 75 76  2  0
 76 77  1  0
 78 77  2  0
 79 78  1  0
 80 54  1  0
 80 81  1  0
 80 90  1  0
 81 84  1  0
 82 86  1  0
 82 81  1  0
 83 82  2  0
 86 85  1  0
 88 86  1  0
 88 89  1  0
 88 87  1  0
 90 93  1  1
 90 91  1  0
 92 90  1  0
M  ISO  4   7 100  20 100  52 101  53 101
M  END
>  <TORSDO>  (84) 
F 18

>  <SCORE>  (84) 
-14.990

>  <name>  (84) 
83

>  <ligand_id>  (84) 
83

>  <original_smiles>  (84) 
[H]N=C([H])c1nc(N2C([H])([H])C([H])([H])N(C(=O)N3C([H])([H])C([H])([H])C([H])([H])C([H])(n4nc(-c5c([H])c([H])c(Oc6c([H])c([H])c(F)c([H])c6F)c([H])c5[H])c(C(=O)N([H])[H])c4N([H])[H])C3([H])[H])C([H])([H])C2([H])[H])c([H])nc1C([H])([H])Oc1c([H])c([H])c2c(c1[H])C([H])([H])N(C(=O)C([H])(N([H])C(=O)C([H])(N([H])C([H])([H])[H])C([H])([H])[H])C(C([H])([H])[H])(C([H])([H])[H])C([H])([H])[H])C([H])(C(=O)N([H])C1([H])c3c([H])c([H])c([H])c([H])c3C([H])([H])C([H])([H])C1([H])[H])C2([H])[H]

>  <smiles>  (84) 
[H]N=C([H])c1nc(N2C([H])([H])C([H])([H])N(C(=O)N3C([H])([H])C([H])([H])C([H])([H])C([H])(n4nc(-c5c([H])c([H])c(Oc6c([H])c([H])c(F)c([H])c6F)c([H])c5[H])c(C(=O)N([H])[H])c4N([H])[H])C3([H])[H])C([H])([H])C2([H])[H])c([H])nc1C([H])([H])Oc1c([H])c([H])c2c(c1[H])C([H])([H])N(C(=O)C([H])(N([H])C(=O)C([H])(N([H])C([H])([H])[H])C([H])([H])[H])C(C([H])([H])[H])(C([H])([H])[H])C([H])([H])[H])C([H])(C(=O)N([H])C1([H])c3c([H])c([H])c([H])c([H])c3C([H])([H])C([H])([H])C1([H])[H])C2([H])[H]

$$$$
84:0:0
     RDKit          3D

 96104  0  0  1  0  0  0  0  0999 V2000
  -30.9620  -18.9600   19.1840 C   0  0  0  0  0  2  0  0  0  0  0  0
  -30.8520  -20.0740   18.1430 C   0  0  0  0  0  2  0  0  0  0  0  0
  -28.4250  -20.3060   18.6270 C   0  0  0  0  0  2  0  0  0  0  0  0
  -28.8910  -20.3770   20.1160 C   0  0  0  0  0  3  0  0  0  0  0  0
  -30.0400  -19.1530   20.4110 C   0  0  2  0  0  0  0  0  0  0  0  0
  -29.3000  -20.8290   16.4050 C   0  0  0  0  0  1  0  0  0  0  0  0
  -29.4820  -20.0560   17.6300 N   0  0  0  0  0  0  0  0  0  0  0  0
  -30.8570  -19.8430   21.4060 N   0  0  0  0  0  0  0  0  0  0  0  0
  -30.4980  -19.5990   22.3240 H   0  0  0  0  0  0  0  0  0  0  0  0
  -31.7780  -19.4170   21.3930 H   0  0  0  0  0  0  0  0  0  0  0  0
  -29.1150  -21.8840   20.6190 N   0  0  0  0  0  4  0  0  0  0  0  0
  -30.0880  -21.8660   20.9090 H   0  0  0  0  0  0  0  0  0  0  0  0
  -28.6160  -21.8860   21.4930 H   0  0  0  0  0  0  0  0  0  0  0  0
  -29.9420  -23.7300   19.0290 C   0  0  0  0  0  1  0  0  0  0  0  0
  -28.7540  -23.2810   19.8970 C   0  0  0  0  0  3  0  0  0  0  0  0
  -28.2110  -24.6750   20.7110 C   0  0  0  0  0  2  0  0  0  0  0  0
  -28.3450  -26.1820   20.2910 O   0  0  0  0  0  0  0  0  0  0  0  0
  -24.6190  -31.8650   23.2290 C   0  0  0  0  0  0  0  0  0  0  0  0
  -27.2570  -27.1320   20.2830 C   0  0  0  0  0  0  0  0  0  0  0  0
  -23.4440  -30.4520   21.5850 C   0  0  0  0  0  3  0  0  0  0  0  0
  -24.9150  -28.8630   20.2000 C   0  0  0  0  0  0  0  0  0  0  0  0
  -25.9980  -30.7280   21.4480 C   0  0  0  0  0  2  0  0  0  0  0  0
  -26.0870  -29.3270   20.8130 C   0  0  0  0  0  0  0  0  0  0  0  0
  -27.2610  -28.4820   20.8300 C   0  0  0  0  0  3  0  0  0  0  0  0
  -26.0550  -26.7580   19.6490 C   0  0  0  0  0  3  0  0  0  0  0  0
  -24.9120  -27.5890   19.6070 C   0  0  0  0  0  3  0  0  0  0  0  0
  -23.6850  -29.7590   20.2170 C   0  0  0  0  0  2  0  0  0  0  0  0
  -24.7060  -31.0380   22.1420 N   0  0  0  0  0  0  0  0  0  0  0  0
  -23.5250  -32.1490   23.7420 O   0  0  0  0  0  0  0  0  0  0  0  0
  -22.7580  -29.4510   22.5490 C   0  0  0  0  0  0  0  0  0  0  0  0
  -21.4300  -29.2780   22.4120 N   0  0  0  0  0  0  0  0  0  0  0  0
  -23.4220  -28.8340   23.3850 O   0  0  0  0  0  0  0  0  0  0  0  0
  -20.9500  -29.8300   21.7150 H   0  0  0  0  0  0  0  0  0  0  0  0
  -18.0470  -28.0770   22.8940 C   0  0  0  0  0  0  0  0  0  0  0  0
  -20.6040  -28.3430   23.1800 C   0  0  0  0  0  3  0  0  0  0  0  0
  -20.7120  -26.9090   22.6130 C   0  0  0  0  0  2  0  0  0  0  0  0
  -19.6170  -26.5790   21.5920 C   0  0  0  0  0  2  0  0  0  0  0  0
  -18.2300  -26.7250   22.2240 C   0  0  0  0  0  2  0  0  0  0  0  0
  -19.1610  -28.8420   23.3270 C   0  0  0  0  0  0  0  0  0  0  0  0
  -18.9350  -30.1070   23.9150 C   0  0  0  0  0  3  0  0  0  0  0  0
  -17.6270  -30.6060   24.0720 C   0  0  0  0  0  3  0  0  0  0  0  0
  -16.5280  -29.8370   23.6530 C   0  0  0  0  0  3  0  0  0  0  0  0
  -16.7380  -28.5740   23.0700 C   0  0  0  0  0  3  0  0  0  0  0  0
  -25.8870  -32.5130   23.8670 C   0  0  0  0  0  3  0  0  0  0  0  0
  -25.5620  -33.9130   24.1840 N   0  0  0  0  0  0  0  0  0  0  0  0
  -25.8960  -34.9670   23.4270 C   0  0  0  0  0  0  0  0  0  0  0  0
  -26.5740  -34.8640   22.4020 O   0  0  0  0  0  0  0  0  0  0  0  0
  -24.9620  -34.0670   24.9800 H   0  0  0  0  0  0  0  0  0  0  0  0
  -24.1620  -36.7550   23.0590 C   0  0  0  0  0  1  0  0  0  0  0  0
  -25.4000  -36.3550   23.8790 C   0  0  0  0  0  3  0  0  0  0  0  0
  -27.5260  -37.2530   24.7220 C   0  0  0  0  0  1  0  0  0  0  0  0
  -26.4280  -37.4130   23.7720 N   0  0  0  0  0  0  0  0  0  0  0  0
  -26.0140  -38.3310   23.9150 H   0  0  0  0  0  0  0  0  0  0  0  0
  -26.3810  -31.7600   25.1630 C   0  0  1  0  0  0  0  0  0  0  0  0
  -25.2710  -31.5350   26.2160 C   0  0  0  0  0  1  0  0  0  0  0  0
  -26.9740  -30.3780   24.8030 C   0  0  0  0  0  1  0  0  0  0  0  0
  -27.5160  -32.5670   25.8350 C   0  0  0  0  0  1  0  0  0  0  0  0
  -29.8390  -17.6040   21.1030 C   0  0  0  0  0  2  0  0  0  0  0  0
  -30.4700  -14.9720   20.3600 C   0  0  0  0  0  0  0  0  0  0  0  0
  -30.3400  -12.6410   19.3470 C   0  0  0  0  0  2  0  0  0  0  0  0
  -29.3910  -12.6190   18.1280 C   0  0  0  0  0  2  0  0  0  0  0  0
  -27.9300  -12.4080   18.5740 C   0  0  0  0  0  2  0  0  0  0  0  0
  -27.5410  -13.3020   19.7810 C   0  0  0  0  0  3  0  0  0  0  0  0
  -28.6150  -13.2820   20.8860 C   0  0  0  0  0  2  0  0  0  0  0  0
  -29.8700  -13.7200   20.2580 N   0  0  0  0  0  0  0  0  0  0  0  0
  -31.6850  -15.0380   20.1530 O   0  0  0  0  0  0  0  0  0  0  0  0
  -29.6730  -16.1470   20.4950 N   0  0  0  0  0  0  0  0  0  0  0  0
  -28.6980  -15.9030   20.4160 H   0  0  0  0  0  0  0  0  0  0  0  0
  -25.1690  -13.8700   20.5500 C   0  0  0  0  0  0  0  0  0  0  0  0
  -24.1110  -13.0900   20.9280 C   0  0  0  0  0  0  0  0  0  0  0  0
  -24.5760  -11.7410   20.8820 C   0  0  0  0  0  0  0  0  0  0  0  0
  -26.2110  -12.9950   20.2920 N   0  0  0  0  0  0  0  0  0  0  0  0
  -25.8660  -11.7080   20.5580 N   0  0  0  0  0  0  0  0  0  0  0  0
  -23.8530  -10.4770   21.0720 C   0  0  0  0  0  0  0  0  0  0  0  0
  -24.2930   -9.5020   21.9920 C   0  0  0  0  0  3  0  0  0  0  0  0
  -23.5670   -8.3040   22.1700 C   0  0  0  0  0  3  0  0  0  0  0  0
  -22.3830   -8.0750   21.4290 C   0  0  0  0  0  0  0  0  0  0  0  0
  -21.9620   -9.0380   20.4950 C   0  0  0  0  0  3  0  0  0  0  0  0
  -22.6900  -10.2270   20.3160 C   0  0  0  0  0  3  0  0  0  0  0  0
  -21.6310   -6.9290   21.5140 O   0  0  0  0  0  0  0  0  0  0  0  0
  -21.5970   -6.1720   22.6590 C   0  0  0  0  0  0  0  0  0  0  0  0
  -21.1890   -6.7150   23.8980 C   0  0  0  0  0  3  0  0  0  0  0  0
  -21.1020   -5.8870   25.0340 C   0  0  0  0  0  3  0  0  0  0  0  0
  -21.4130   -4.5180   24.9340 C   0  0  0  0  0  0  0  0  0  0  0  0
  -21.8130   -3.9750   23.7000 C   0  0  0  0  0  3  0  0  0  0  0  0
  -21.9010   -4.7990   22.5650 C   0  0  0  0  0  0  0  0  0  0  0  0
  -22.2660   -4.2680   21.3740 F   0  0  0  0  0  0  0  0  0  0  0  0
  -21.3220   -3.7200   26.0240 F   0  0  0  0  0  0  0  0  0  0  0  0
  -22.7140  -13.5630   21.2160 C   0  0  0  0  0  0  0  0  0  0  0  0
  -21.9960  -12.8600   22.0830 N   0  0  0  0  0  0  0  0  0  0  0  0
  -22.2730  -14.5910   20.7060 O   0  0  0  0  0  0  0  0  0  0  0  0
  -22.3670  -12.0290   22.5200 H   0  0  0  0  0  0  0  0  0  0  0  0
  -21.0590  -13.1580   22.3150 H   0  0  0  0  0  0  0  0  0  0  0  0
  -25.3260  -15.2430   20.3680 N   0  0  0  0  0  0  0  0  0  0  0  0
  -24.5480  -15.8850   20.4640 H   0  0  0  0  0  0  0  0  0  0  0  0
  -26.1400  -15.6780   19.9590 H   0  0  0  0  0  0  0  0  0  0  0  0
  1  5  1  0
  2  1  1  0
  3  4  1  0
  4  5  1  0
  4 11  1  0
  5 58  1  1
  5  8  1  0
  6  7  1  0
  7  2  1  0
  7  3  1  0
  8  9  1  0
 10  8  1  0
 11 12  1  0
 11 13  1  0
 15 14  1  0
 15 11  1  0
 15 16  1  0
 17 16  1  0
 18 29  2  0
 19 17  1  0
 19 24  1  0
 20 28  1  0
 20 30  1  0
 21 27  1  0
 21 23  1  0
 22 28  1  0
 23 24  2  0
 23 22  1  0
 25 19  2  0
 26 25  1  0
 26 21  2  0
 27 20  1  0
 28 18  1  0
 30 32  2  0
 31 30  1  0
 33 31  1  0
 34 43  2  0
 34 39  1  0
 35 31  1  0
 35 39  1  0
 36 35  1  0
 37 38  1  0
 37 36  1  0
 38 34  1  0
 39 40  2  0
 40 41  1  0
 42 41  2  0
 43 42  1  0
 44 18  1  0
 44 45  1  0
 44 54  1  0
 45 48  1  0
 46 50  1  0
 46 45  1  0
 47 46  2  0
 50 49  1  0
 52 50  1  0
 52 53  1  0
 52 51  1  0
 54 57  1  1
 54 55  1  0
 56 54  1  0
 59 67  1  0
 60 65  1  0
 61 62  1  0
 61 60  1  0
 63 62  1  0
 63 72  1  0
 63 64  1  0
 65 59  1  0
 65 64  1  0
 66 59  2  0
 67 58  1  0
 68 67  1  0
 69 70  2  0
 70 89  1  0
 71 70  1  0
 71 74  1  0
 72 69  1  0
 72 73  1  0
 73 71  2  0
 74 75  1  0
 75 76  2  0
 77 80  1  0
 77 76  1  0
 78 77  2  0
 79 78  1  0
 79 74  2  0
 80 81  1  0
 81 82  1  0
 82 83  2  0
 84 83  1  0
 84 88  1  0
 85 84  2  0
 86 81  2  0
 86 85  1  0
 87 86  1  0
 89 90  1  0
 90 93  1  0
 90 92  1  0
 91 89  2  0
 94 95  1  0
 94 69  1  0
 96 94  1  0
M  ISO  4  16 101  17 101  59 100  67 100
M  END
>  <TORSDO>  (85) 
F 21

>  <SCORE>  (85) 
-15.001

>  <name>  (85) 
84

>  <ligand_id>  (85) 
84

>  <original_smiles>  (85) 
[H]c1c([H])c([H])c2c(c1[H])C([H])([H])C([H])([H])C([H])([H])C2([H])N([H])C(=O)C1([H])N(C(=O)C([H])(N([H])C(=O)C([H])(N([H])C([H])([H])[H])C([H])([H])[H])C(C([H])([H])[H])(C([H])([H])[H])C([H])([H])[H])C([H])([H])c2c([H])c(OC([H])([H])C([H])(C([H])([H])[H])[N+]([H])([H])C3([H])C([H])([H])N(C([H])([H])[H])C([H])([H])C([H])([H])C3(N([H])[H])C([H])([H])N([H])C(=O)N3C([H])([H])C([H])([H])C([H])([H])C([H])(n4nc(-c5c([H])c([H])c(Oc6c([H])c([H])c(F)c([H])c6F)c([H])c5[H])c(C(=O)N([H])[H])c4N([H])[H])C3([H])[H])c([H])c([H])c2C1([H])[H]

>  <smiles>  (85) 
[H]c1c([H])c([H])c2c(c1[H])C([H])([H])C([H])([H])C([H])([H])C2([H])N([H])C(=O)C1([H])N(C(=O)C([H])(N([H])C(=O)C([H])(N([H])C([H])([H])[H])C([H])([H])[H])C(C([H])([H])[H])(C([H])([H])[H])C([H])([H])[H])C([H])([H])c2c([H])c(OC([H])([H])C([H])(C([H])([H])[H])[N+]([H])([H])C3([H])C([H])([H])N(C([H])([H])[H])C([H])([H])C([H])([H])C3(N([H])[H])C([H])([H])N([H])C(=O)N3C([H])([H])C([H])([H])C([H])([H])C([H])(n4nc(-c5c([H])c([H])c(Oc6c([H])c([H])c(F)c([H])c6F)c([H])c5[H])c(C(=O)N([H])[H])c4N([H])[H])C3([H])[H])c([H])c([H])c2C1([H])[H]

$$$$
85:0:0
     RDKit          3D

 87 96  0  0  1  0  0  0  0  0999 V2000
  -30.4030  -15.5000   20.3190 C   0  0  0  0  0  0  0  0  0  0  0  0
  -30.3980  -12.9860   19.5290 C   0  0  0  0  0  2  0  0  0  0  0  0
  -29.5300  -12.6250   18.2970 C   0  0  0  0  0  2  0  0  0  0  0  0
  -28.0870  -12.3260   18.7270 C   0  0  0  0  0  2  0  0  0  0  0  0
  -27.5770  -13.3490   19.7710 C   0  0  0  0  0  3  0  0  0  0  0  0
  -28.5880  -13.6430   20.9020 C   0  0  0  0  0  2  0  0  0  0  0  0
  -29.7950  -14.1890   20.2510 N   0  0  0  0  0  0  0  0  0  0  0  0
  -31.6300  -15.3790   20.1620 O   0  0  0  0  0  0  0  0  0  0  0  0
  -30.0200  -18.9480   18.4480 C   0  0  0  0  0  2  0  0  0  0  0  0
  -28.5550  -17.7800   20.6140 C   0  0  0  0  0  2  0  0  0  0  0  0
  -29.5780  -20.4730   18.6290 C   0  0  0  0  0  2  0  0  0  0  0  0
  -30.3300  -18.3730   19.8420 C   0  0  0  0  0  3  0  0  0  0  0  0
  -29.3160  -19.2660   20.6820 C   0  0  0  0  0  3  0  0  0  0  0  0
  -29.8040  -16.9160   20.2490 N   0  0  0  0  0  0  0  0  0  0  0  0
  -28.8610  -20.7110   19.9290 N   0  0  1  0  0  4  0  0  0  0  0  0
  -27.8820  -20.5620   19.7350 H   0  0  0  0  0  0  0  0  0  0  0  0
  -25.2010  -13.9030   20.4810 C   0  0  0  0  0  0  0  0  0  0  0  0
  -24.1320  -13.1280   20.8310 C   0  0  0  0  0  0  0  0  0  0  0  0
  -24.6010  -11.7780   20.8260 C   0  0  0  0  0  0  0  0  0  0  0  0
  -26.2480  -13.0260   20.2680 N   0  0  0  0  0  0  0  0  0  0  0  0
  -25.9000  -11.7420   20.5460 N   0  0  0  0  0  0  0  0  0  0  0  0
  -23.8670  -10.5170   21.0130 C   0  0  0  0  0  0  0  0  0  0  0  0
  -24.2830   -9.5520   21.9560 C   0  0  0  0  0  3  0  0  0  0  0  0
  -23.5460   -8.3600   22.1320 C   0  0  0  0  0  3  0  0  0  0  0  0
  -22.3790   -8.1270   21.3660 C   0  0  0  0  0  0  0  0  0  0  0  0
  -21.9820   -9.0830   20.4140 C   0  0  0  0  0  3  0  0  0  0  0  0
  -22.7200  -10.2650   20.2350 C   0  0  0  0  0  3  0  0  0  0  0  0
  -21.6140   -6.9880   21.4530 O   0  0  0  0  0  0  0  0  0  0  0  0
  -21.5580   -6.2450   22.6040 C   0  0  0  0  0  0  0  0  0  0  0  0
  -21.1520   -6.8050   23.8350 C   0  0  0  0  0  3  0  0  0  0  0  0
  -21.0410   -5.9890   24.9780 C   0  0  0  0  0  3  0  0  0  0  0  0
  -21.3260   -4.6130   24.8930 C   0  0  0  0  0  0  0  0  0  0  0  0
  -21.7260   -4.0520   23.6670 C   0  0  0  0  0  3  0  0  0  0  0  0
  -21.8380   -4.8650   22.5250 C   0  0  0  0  0  0  0  0  0  0  0  0
  -22.2030   -4.3140   21.3420 F   0  0  0  0  0  0  0  0  0  0  0  0
  -21.2130   -3.8270   25.9890 F   0  0  0  0  0  0  0  0  0  0  0  0
  -22.7290  -13.6090   21.0540 C   0  0  0  0  0  0  0  0  0  0  0  0
  -21.9780  -12.9320   21.9140 N   0  0  0  0  0  0  0  0  0  0  0  0
  -22.3080  -14.6240   20.5010 O   0  0  0  0  0  0  0  0  0  0  0  0
  -22.3320  -12.1120   22.3860 H   0  0  0  0  0  0  0  0  0  0  0  0
  -21.0350  -13.2390   22.1080 H   0  0  0  0  0  0  0  0  0  0  0  0
  -25.3660  -15.2720   20.2900 N   0  0  0  0  0  0  0  0  0  0  0  0
  -24.5940  -15.9250   20.3830 H   0  0  0  0  0  0  0  0  0  0  0  0
  -26.2190  -15.7090   19.9680 H   0  0  0  0  0  0  0  0  0  0  0  0
  -28.9020  -22.3690   20.4370 C   0  0  0  0  0  3  0  0  0  0  0  0
  -28.0880  -23.9780   19.8860 C   0  0  0  0  0  3  0  0  0  0  0  0
  -28.2110  -25.6670   20.1860 O   0  0  0  0  0  0  0  0  0  0  0  0
  -24.6730  -31.8180   23.0870 C   0  0  0  0  0  0  0  0  0  0  0  0
  -27.2210  -26.8270   20.0940 C   0  0  0  0  0  0  0  0  0  0  0  0
  -23.4830  -30.4090   21.4600 C   0  0  0  0  0  3  0  0  0  0  0  0
  -24.9330  -28.7820   20.0410 C   0  0  0  0  0  0  0  0  0  0  0  0
  -26.0550  -30.5920   21.3180 C   0  0  0  0  0  2  0  0  0  0  0  0
  -26.1240  -29.1670   20.6670 C   0  0  0  0  0  0  0  0  0  0  0  0
  -27.2550  -28.2120   20.6660 C   0  0  0  0  0  3  0  0  0  0  0  0
  -25.9990  -26.6280   19.4090 C   0  0  0  0  0  3  0  0  0  0  0  0
  -24.9020  -27.5370   19.3890 C   0  0  0  0  0  3  0  0  0  0  0  0
  -23.7170  -29.7150   20.0880 C   0  0  0  0  0  2  0  0  0  0  0  0
  -24.7600  -30.9710   22.0080 N   0  0  0  0  0  0  0  0  0  0  0  0
  -23.5810  -32.1100   23.6050 O   0  0  0  0  0  0  0  0  0  0  0  0
  -22.7850  -29.4240   22.4360 C   0  0  0  0  0  0  0  0  0  0  0  0
  -21.4510  -29.2780   22.3350 N   0  0  0  0  0  0  0  0  0  0  0  0
  -23.4540  -28.7890   23.2550 O   0  0  0  0  0  0  0  0  0  0  0  0
  -20.9610  -29.8420   21.6530 H   0  0  0  0  0  0  0  0  0  0  0  0
  -18.0620  -28.1020   22.9080 C   0  0  0  0  0  0  0  0  0  0  0  0
  -20.6300  -28.3450   23.1170 C   0  0  0  0  0  3  0  0  0  0  0  0
  -20.7040  -26.9150   22.5310 C   0  0  0  0  0  2  0  0  0  0  0  0
  -19.5780  -26.6110   21.5380 C   0  0  0  0  0  2  0  0  0  0  0  0
  -18.2120  -26.7590   22.2140 C   0  0  0  0  0  2  0  0  0  0  0  0
  -19.1960  -28.8530   23.3180 C   0  0  0  0  0  0  0  0  0  0  0  0
  -18.9980  -30.1080   23.9350 C   0  0  0  0  0  3  0  0  0  0  0  0
  -17.6990  -30.6130   24.1410 C   0  0  0  0  0  3  0  0  0  0  0  0
  -16.5810  -29.8600   23.7440 C   0  0  0  0  0  3  0  0  0  0  0  0
  -16.7630  -28.6060   23.1340 C   0  0  0  0  0  3  0  0  0  0  0  0
  -25.9380  -32.4750   23.7180 C   0  0  0  0  0  3  0  0  0  0  0  0
  -25.6010  -33.8650   24.0780 N   0  0  0  0  0  0  0  0  0  0  0  0
  -25.9120  -34.9470   23.3510 C   0  0  0  0  0  0  0  0  0  0  0  0
  -26.5710  -34.8800   22.3110 O   0  0  0  0  0  0  0  0  0  0  0  0
  -25.0120  -33.9880   24.8880 H   0  0  0  0  0  0  0  0  0  0  0  0
  -24.1560  -36.7340   23.0790 C   0  0  0  0  0  1  0  0  0  0  0  0
  -25.4170  -36.3200   23.8540 C   0  0  0  0  0  3  0  0  0  0  0  0
  -27.5570  -37.2170   24.6640 C   0  0  0  0  0  1  0  0  0  0  0  0
  -26.4340  -37.3910   23.7470 N   0  0  0  0  0  0  0  0  0  0  0  0
  -26.0180  -38.3010   23.9240 H   0  0  0  0  0  0  0  0  0  0  0  0
  -26.4660  -31.7030   24.9910 C   0  0  1  0  0  0  0  0  0  0  0  0
  -25.3800  -31.4530   26.0650 C   0  0  0  0  0  1  0  0  0  0  0  0
  -27.0580  -30.3310   24.6020 C   0  0  0  0  0  1  0  0  0  0  0  0
  -27.6140  -32.5040   25.6500 C   0  0  0  0  0  1  0  0  0  0  0  0
  2  7  1  0
  3  4  1  0
  3  2  1  0
  5  4  1  0
  5 20  1  0
  5  6  1  0
  7  1  1  0
  7  6  1  0
  8  1  2  0
  9 11  1  0
 11 15  1  0
 12  9  1  0
 12 14  1  0
 12 13  1  0
 13 10  1  0
 14  1  1  0
 14 10  1  0
 15 45  1  0
 15 13  1  0
 15 16  1  6
 17 18  2  0
 18 37  1  0
 19 18  1  0
 19 22  1  0
 20 17  1  0
 20 21  1  0
 21 19  2  0
 22 23  1  0
 23 24  2  0
 25 28  1  0
 25 24  1  0
 26 25  2  0
 27 26  1  0
 27 22  2  0
 28 29  1  0
 29 30  1  0
 30 31  2  0
 32 31  1  0
 32 36  1  0
 33 32  2  0
 34 29  2  0
 34 33  1  0
 35 34  1  0
 37 38  1  0
 38 41  1  0
 38 40  1  0
 39 37  2  0
 42 43  1  0
 42 17  1  0
 44 42  1  0
 46 47  1  0
 46 45  2  0
 48 59  2  0
 49 47  1  0
 49 54  1  0
 50 58  1  0
 50 60  1  0
 51 57  1  0
 51 53  1  0
 52 58  1  0
 53 52  1  0
 54 53  2  0
 55 49  2  0
 56 55  1  0
 56 51  2  0
 57 50  1  0
 58 48  1  0
 60 62  2  0
 61 60  1  0
 63 61  1  0
 64 73  2  0
 64 69  1  0
 65 61  1  0
 65 69  1  0
 66 65  1  0
 67 68  1  0
 67 66  1  0
 68 64  1  0
 69 70  2  0
 70 71  1  0
 72 71  2  0
 73 72  1  0
 74 48  1  0
 74 75  1  0
 74 84  1  0
 75 78  1  0
 76 80  1  0
 76 75  1  0
 77 76  2  0
 80 79  1  0
 82 80  1  0
 82 83  1  0
 82 81  1  0
 84 87  1  1
 84 85  1  0
 86 84  1  0
M  ISO  4   1 100  14 100  46 101  47 101
M  END
>  <TORSDO>  (86) 
F 17

>  <SCORE>  (86) 
-16.434

>  <name>  (86) 
85

>  <ligand_id>  (86) 
85

>  <original_smiles>  (86) 
[H]c1c([H])c([H])c2c(c1[H])C([H])([H])C([H])([H])C([H])([H])C2([H])N([H])C(=O)C1([H])N(C(=O)C([H])(N([H])C(=O)C([H])(N([H])C([H])([H])[H])C([H])([H])[H])C(C([H])([H])[H])(C([H])([H])[H])C([H])([H])[H])C([H])([H])c2c([H])c(OC([H])([H])C([H])([H])[N+]3([H])C([H])([H])C([H])([H])C4([H])N(C(=O)N5C([H])([H])C([H])([H])C([H])([H])C([H])(n6nc(-c7c([H])c([H])c(Oc8c([H])c([H])c(F)c([H])c8F)c([H])c7[H])c(C(=O)N([H])[H])c6N([H])[H])C5([H])[H])C([H])([H])C43[H])c([H])c([H])c2C1([H])[H]

>  <smiles>  (86) 
[H]c1c([H])c([H])c2c(c1[H])C([H])([H])C([H])([H])C([H])([H])C2([H])N([H])C(=O)C1([H])N(C(=O)C([H])(N([H])C(=O)C([H])(N([H])C([H])([H])[H])C([H])([H])[H])C(C([H])([H])[H])(C([H])([H])[H])C([H])([H])[H])C([H])([H])c2c([H])c(OC([H])([H])C([H])([H])[N+]3([H])C([H])([H])C([H])([H])C4([H])N(C(=O)N5C([H])([H])C([H])([H])C([H])([H])C([H])(n6nc(-c7c([H])c([H])c(Oc8c([H])c([H])c(F)c([H])c8F)c([H])c7[H])c(C(=O)N([H])[H])c6N([H])[H])C5([H])[H])C([H])([H])C43[H])c([H])c([H])c2C1([H])[H]

$$$$
86:0:0
     RDKit          3D

 95104  0  0  1  0  0  0  0  0999 V2000
  -27.0650  -21.3660   18.8980 C   0  0  0  0  0  2  0  0  0  0  0  0
  -28.0840  -20.2290   19.0660 C   0  0  0  0  0  2  0  0  0  0  0  0
  -27.7500  -22.7410   18.9510 C   0  0  0  0  0  2  0  0  0  0  0  0
  -29.5040  -21.8270   20.4360 C   0  0  0  0  0  2  0  0  0  0  0  0
  -28.8650  -20.4000   20.3810 C   0  0  0  0  0  3  0  0  0  0  0  0
  -28.5280  -22.9370   20.2070 N   0  0  1  0  0  4  0  0  0  0  0  0
  -27.8750  -22.8860   20.9760 H   0  0  0  0  0  0  0  0  0  0  0  0
  -30.7300  -14.4650   20.4400 C   0  0  0  0  0  0  0  0  0  0  0  0
  -30.3700  -12.3060   19.3150 C   0  0  0  0  0  2  0  0  0  0  0  0
  -29.4470  -12.5250   18.0990 C   0  0  0  0  0  2  0  0  0  0  0  0
  -27.9710  -12.3970   18.5220 C   0  0  0  0  0  2  0  0  0  0  0  0
  -27.6310  -13.2410   19.7800 C   0  0  0  0  0  3  0  0  0  0  0  0
  -28.6820  -13.0430   20.8980 C   0  0  0  0  0  2  0  0  0  0  0  0
  -30.0110  -13.3130   20.3290 N   0  0  0  0  0  0  0  0  0  0  0  0
  -31.8720  -14.5430   19.9830 O   0  0  0  0  0  0  0  0  0  0  0  0
  -29.4760  -17.9200   20.7980 C   0  0  0  0  0  3  0  0  0  0  0  0
  -29.8760  -19.2570   20.5730 C   0  0  0  0  0  0  0  0  0  0  0  0
  -30.4700  -16.9170   20.8130 C   0  0  0  0  0  0  0  0  0  0  0  0
  -32.0520  -18.5740   20.4740 C   0  0  0  0  0  0  0  0  0  0  0  0
  -33.5080  -18.9270   20.2650 C   0  0  0  0  0  1  0  0  0  0  0  0
  -31.1720  -19.5560   20.3770 N   0  0  0  0  0  0  0  0  0  0  0  0
  -31.7610  -17.3010   20.6970 N   0  0  0  0  0  0  0  0  0  0  0  0
  -30.0700  -15.5450   20.9200 N   0  0  0  0  0  0  0  0  0  0  0  0
  -29.1260  -15.3770   21.2240 H   0  0  0  0  0  0  0  0  0  0  0  0
  -25.2290  -13.8440   20.4700 C   0  0  0  0  0  0  0  0  0  0  0  0
  -24.1600  -13.0700   20.8370 C   0  0  0  0  0  0  0  0  0  0  0  0
  -24.6250  -11.7200   20.8210 C   0  0  0  0  0  0  0  0  0  0  0  0
  -26.2780  -12.9640   20.2540 N   0  0  0  0  0  0  0  0  0  0  0  0
  -25.9180  -11.6820   20.5230 N   0  0  0  0  0  0  0  0  0  0  0  0
  -23.8990  -10.4570   21.0130 C   0  0  0  0  0  0  0  0  0  0  0  0
  -24.3240   -9.4990   21.9600 C   0  0  0  0  0  3  0  0  0  0  0  0
  -23.5980   -8.3010   22.1410 C   0  0  0  0  0  3  0  0  0  0  0  0
  -22.4350   -8.0530   21.3720 C   0  0  0  0  0  0  0  0  0  0  0  0
  -22.0320   -9.0000   20.4140 C   0  0  0  0  0  3  0  0  0  0  0  0
  -22.7580  -10.1880   20.2320 C   0  0  0  0  0  3  0  0  0  0  0  0
  -21.6820   -6.9070   21.4610 O   0  0  0  0  0  0  0  0  0  0  0  0
  -21.6170   -6.1760   22.6200 C   0  0  0  0  0  0  0  0  0  0  0  0
  -21.1540   -6.7390   23.8310 C   0  0  0  0  0  3  0  0  0  0  0  0
  -21.0380   -5.9340   24.9810 C   0  0  0  0  0  3  0  0  0  0  0  0
  -21.3740   -4.5680   24.9230 C   0  0  0  0  0  0  0  0  0  0  0  0
  -21.8300   -4.0050   23.7180 C   0  0  0  0  0  3  0  0  0  0  0  0
  -21.9480   -4.8070   22.5690 C   0  0  0  0  0  0  0  0  0  0  0  0
  -22.3680   -4.2560   21.4050 F   0  0  0  0  0  0  0  0  0  0  0  0
  -21.2560   -3.7920   26.0260 F   0  0  0  0  0  0  0  0  0  0  0  0
  -22.7600  -13.5470   21.0960 C   0  0  0  0  0  0  0  0  0  0  0  0
  -22.0270  -12.8560   21.9620 N   0  0  0  0  0  0  0  0  0  0  0  0
  -22.3230  -14.5670   20.5640 O   0  0  0  0  0  0  0  0  0  0  0  0
  -22.3930  -12.0300   22.4140 H   0  0  0  0  0  0  0  0  0  0  0  0
  -21.0880  -13.1570   22.1790 H   0  0  0  0  0  0  0  0  0  0  0  0
  -25.3920  -15.2130   20.2780 N   0  0  0  0  0  0  0  0  0  0  0  0
  -24.6160  -15.8610   20.3620 H   0  0  0  0  0  0  0  0  0  0  0  0
  -26.2290  -15.6440   19.9110 H   0  0  0  0  0  0  0  0  0  0  0  0
  -29.1560  -24.2980   20.2570 C   0  0  0  0  0  2  0  0  0  0  0  0
  -28.2120  -25.3800   20.8330 C   0  0  0  0  0  2  0  0  0  0  0  0
  -28.3930  -26.6730   20.2200 O   0  0  0  0  0  0  0  0  0  0  0  0
  -24.5870  -31.8740   23.2450 C   0  0  0  0  0  0  0  0  0  0  0  0
  -27.2470  -27.4390   20.1820 C   0  0  0  0  0  0  0  0  0  0  0  0
  -23.3910  -30.4730   21.5960 C   0  0  0  0  0  3  0  0  0  0  0  0
  -24.8550  -28.9440   20.1710 C   0  0  0  0  0  0  0  0  0  0  0  0
  -25.9170  -30.8380   21.4100 C   0  0  0  0  0  2  0  0  0  0  0  0
  -26.0100  -29.4680   20.7670 C   0  0  0  0  0  0  0  0  0  0  0  0
  -27.2120  -28.7240   20.7680 C   0  0  0  0  0  3  0  0  0  0  0  0
  -26.0820  -26.9410   19.5560 C   0  0  0  0  0  3  0  0  0  0  0  0
  -24.8860  -27.6800   19.5590 C   0  0  0  0  0  3  0  0  0  0  0  0
  -23.6080  -29.8000   20.2150 C   0  0  0  0  0  2  0  0  0  0  0  0
  -24.6500  -31.0760   22.1420 N   0  0  0  0  0  0  0  0  0  0  0  0
  -23.5030  -32.1440   23.7800 O   0  0  0  0  0  0  0  0  0  0  0  0
  -22.7400  -29.4470   22.5520 C   0  0  0  0  0  0  0  0  0  0  0  0
  -21.4150  -29.2700   22.4250 N   0  0  0  0  0  0  0  0  0  0  0  0
  -23.4220  -28.8150   23.3610 O   0  0  0  0  0  0  0  0  0  0  0  0
  -20.9260  -29.8330   21.7410 H   0  0  0  0  0  0  0  0  0  0  0  0
  -18.0330  -28.1000   22.9310 C   0  0  0  0  0  0  0  0  0  0  0  0
  -20.5950  -28.3300   23.1890 C   0  0  0  0  0  3  0  0  0  0  0  0
  -20.6800  -26.9050   22.5960 C   0  0  0  0  0  2  0  0  0  0  0  0
  -19.5670  -26.6050   21.5860 C   0  0  0  0  0  2  0  0  0  0  0  0
  -18.1910  -26.7560   22.2410 C   0  0  0  0  0  2  0  0  0  0  0  0
  -19.1620  -28.8460   23.3620 C   0  0  0  0  0  0  0  0  0  0  0  0
  -18.9590  -30.1050   23.9670 C   0  0  0  0  0  3  0  0  0  0  0  0
  -17.6620  -30.6190   24.1460 C   0  0  0  0  0  3  0  0  0  0  0  0
  -16.5470  -29.8690   23.7320 C   0  0  0  0  0  3  0  0  0  0  0  0
  -16.7340  -28.6120   23.1310 C   0  0  0  0  0  3  0  0  0  0  0  0
  -25.8700  -32.5070   23.8700 C   0  0  0  0  0  3  0  0  0  0  0  0
  -25.5610  -33.9050   24.1930 N   0  0  0  0  0  0  0  0  0  0  0  0
  -25.8970  -34.9540   23.4290 C   0  0  0  0  0  0  0  0  0  0  0  0
  -26.5730  -34.8450   22.4030 O   0  0  0  0  0  0  0  0  0  0  0  0
  -24.9610  -34.0640   24.9890 H   0  0  0  0  0  0  0  0  0  0  0  0
  -24.1770  -36.7470   23.0480 C   0  0  0  0  0  1  0  0  0  0  0  0
  -25.4060  -36.3450   23.8760 C   0  0  0  0  0  3  0  0  0  0  0  0
  -27.5300  -37.2300   24.7350 C   0  0  0  0  0  1  0  0  0  0  0  0
  -26.4430  -37.3950   23.7730 N   0  0  0  0  0  0  0  0  0  0  0  0
  -26.0370  -38.3160   23.9090 H   0  0  0  0  0  0  0  0  0  0  0  0
  -26.3800  -31.7380   25.1510 C   0  0  1  0  0  0  0  0  0  0  0  0
  -25.2820  -31.5020   26.2130 C   0  0  0  0  0  1  0  0  0  0  0  0
  -26.9650  -30.3600   24.7610 C   0  0  0  0  0  1  0  0  0  0  0  0
  -27.5280  -32.5330   25.8170 C   0  0  0  0  0  1  0  0  0  0  0  0
  1  3  1  0
  1  2  1  0
  2  5  1  0
  3  6  1  0
  5  4  1  0
  5 17  1  0
  6 53  1  0
  6  4  1  0
  6  7  1  1
  8 23  1  0
  9 14  1  0
 10 11  1  0
 10  9  1  0
 12 11  1  0
 12 28  1  0
 12 13  1  0
 14  8  1  0
 14 13  1  0
 15  8  2  0
 16 18  1  0
 17 16  2  0
 18 23  1  0
 19 22  1  0
 20 19  1  0
 21 19  2  0
 21 17  1  0
 22 18  2  0
 23 24  1  0
 25 26  2  0
 26 45  1  0
 27 26  1  0
 27 30  1  0
 28 25  1  0
 28 29  1  0
 29 27  2  0
 30 31  1  0
 31 32  2  0
 33 36  1  0
 33 32  1  0
 34 33  2  0
 35 34  1  0
 35 30  2  0
 36 37  1  0
 37 38  1  0
 38 39  2  0
 40 39  1  0
 40 44  1  0
 41 40  2  0
 42 37  2  0
 42 41  1  0
 43 42  1  0
 45 46  1  0
 46 49  1  0
 46 48  1  0
 47 45  2  0
 50 51  1  0
 50 25  1  0
 52 50  1  0
 53 54  1  0
 55 54  1  0
 56 67  2  0
 57 55  1  0
 57 62  1  0
 58 66  1  0
 58 68  1  0
 59 65  1  0
 59 61  1  0
 60 66  1  0
 61 62  2  0
 61 60  1  0
 63 64  1  0
 63 57  2  0
 64 59  2  0
 65 58  1  0
 66 56  1  0
 68 70  2  0
 69 68  1  0
 71 69  1  0
 72 81  2  0
 72 77  1  0
 73 69  1  0
 73 77  1  0
 74 73  1  0
 75 76  1  0
 75 74  1  0
 76 72  1  0
 77 78  2  0
 78 79  1  0
 80 79  2  0
 81 80  1  0
 82 56  1  0
 82 83  1  0
 82 92  1  0
 83 86  1  0
 84 88  1  0
 84 83  1  0
 85 84  2  0
 88 87  1  0
 90 88  1  0
 90 91  1  0
 90 89  1  0
 92 95  1  1
 92 93  1  0
 94 92  1  0
M  ISO  4   8 100  23 100  54 101  55 101
M  END
>  <TORSDO>  (87) 
F 18

>  <SCORE>  (87) 
-15.082

>  <name>  (87) 
86

>  <ligand_id>  (87) 
86

>  <original_smiles>  (87) 
[H]c1c(N([H])C(=O)N2C([H])([H])C([H])([H])C([H])([H])C([H])(n3nc(-c4c([H])c([H])c(Oc5c([H])c([H])c(F)c([H])c5F)c([H])c4[H])c(C(=O)N([H])[H])c3N([H])[H])C2([H])[H])nc(C([H])([H])[H])nc1C1([H])C([H])([H])C([H])([H])C([H])([H])[N+]([H])(C([H])([H])C([H])([H])Oc2c([H])c([H])c3c(c2[H])C([H])([H])N(C(=O)C([H])(N([H])C(=O)C([H])(N([H])C([H])([H])[H])C([H])([H])[H])C(C([H])([H])[H])(C([H])([H])[H])C([H])([H])[H])C([H])(C(=O)N([H])C2([H])c4c([H])c([H])c([H])c([H])c4C([H])([H])C([H])([H])C2([H])[H])C3([H])[H])C1([H])[H]

>  <smiles>  (87) 
[H]c1c(N([H])C(=O)N2C([H])([H])C([H])([H])C([H])([H])C([H])(n3nc(-c4c([H])c([H])c(Oc5c([H])c([H])c(F)c([H])c5F)c([H])c4[H])c(C(=O)N([H])[H])c3N([H])[H])C2([H])[H])nc(C([H])([H])[H])nc1C1([H])C([H])([H])C([H])([H])C([H])([H])[N+]([H])(C([H])([H])C([H])([H])Oc2c([H])c([H])c3c(c2[H])C([H])([H])N(C(=O)C([H])(N([H])C(=O)C([H])(N([H])C([H])([H])[H])C([H])([H])[H])C(C([H])([H])[H])(C([H])([H])[H])C([H])([H])[H])C([H])(C(=O)N([H])C2([H])c4c([H])c([H])c([H])c([H])c4C([H])([H])C([H])([H])C2([H])[H])C3([H])[H])C1([H])[H]

$$$$
87:0:0
     RDKit          3D

 88 97  0  0  1  0  0  0  0  0999 V2000
  -29.1550  -23.6160   21.5680 C   0  0  0  0  0  2  0  0  0  0  0  0
  -29.2050  -22.0130   21.6940 C   0  0  0  0  0  2  0  0  0  0  0  0
  -28.2620  -22.5890   19.6810 C   0  0  0  0  0  2  0  0  0  0  0  0
  -28.0990  -24.1280   20.5340 C   0  0  0  0  0  3  0  0  0  0  0  0
  -29.0860  -21.3420   20.3610 N   0  0  2  0  0  4  0  0  0  0  0  0
  -30.0010  -21.4440   19.9470 H   0  0  0  0  0  0  0  0  0  0  0  0
  -30.3430  -15.4470   20.2200 C   0  0  0  0  0  0  0  0  0  0  0  0
  -30.3410  -12.9750   19.3560 C   0  0  0  0  0  2  0  0  0  0  0  0
  -29.4190  -12.6690   18.1480 C   0  0  0  0  0  2  0  0  0  0  0  0
  -27.9880  -12.3630   18.6180 C   0  0  0  0  0  2  0  0  0  0  0  0
  -27.5170  -13.3500   19.7140 C   0  0  0  0  0  3  0  0  0  0  0  0
  -28.5710  -13.5860   20.8150 C   0  0  0  0  0  2  0  0  0  0  0  0
  -29.7610  -14.1360   20.1390 N   0  0  0  0  0  0  0  0  0  0  0  0
  -31.5800  -15.3780   20.1220 O   0  0  0  0  0  0  0  0  0  0  0  0
  -28.3180  -18.8090   19.1950 C   0  0  0  0  0  2  0  0  0  0  0  0
  -28.4290  -17.2120   19.4980 C   0  0  0  0  0  2  0  0  0  0  0  0
  -30.0390  -18.3430   20.6280 C   0  0  0  0  0  2  0  0  0  0  0  0
  -28.8950  -19.6370   20.3780 C   0  0  0  0  0  3  0  0  0  0  0  0
  -29.6460  -16.7990   20.2690 N   0  0  0  0  0  0  0  0  0  0  0  0
  -25.1590  -13.8820   20.5090 C   0  0  0  0  0  0  0  0  0  0  0  0
  -24.1060  -13.0960   20.8810 C   0  0  0  0  0  0  0  0  0  0  0  0
  -24.5810  -11.7500   20.8370 C   0  0  0  0  0  0  0  0  0  0  0  0
  -26.2040  -13.0170   20.2470 N   0  0  0  0  0  0  0  0  0  0  0  0
  -25.8710  -11.7270   20.5150 N   0  0  0  0  0  0  0  0  0  0  0  0
  -23.8630  -10.4820   21.0230 C   0  0  0  0  0  0  0  0  0  0  0  0
  -24.2930   -9.5170   21.9600 C   0  0  0  0  0  3  0  0  0  0  0  0
  -23.5700   -8.3180   22.1340 C   0  0  0  0  0  3  0  0  0  0  0  0
  -22.4020   -8.0750   21.3740 C   0  0  0  0  0  0  0  0  0  0  0  0
  -21.9900   -9.0290   20.4260 C   0  0  0  0  0  3  0  0  0  0  0  0
  -22.7150  -10.2200   20.2490 C   0  0  0  0  0  3  0  0  0  0  0  0
  -21.6510   -6.9260   21.4580 O   0  0  0  0  0  0  0  0  0  0  0  0
  -21.5840   -6.1940   22.6150 C   0  0  0  0  0  0  0  0  0  0  0  0
  -21.1270   -6.7560   23.8280 C   0  0  0  0  0  3  0  0  0  0  0  0
  -21.0070   -5.9500   24.9770 C   0  0  0  0  0  3  0  0  0  0  0  0
  -21.3350   -4.5830   24.9160 C   0  0  0  0  0  0  0  0  0  0  0  0
  -21.7860   -4.0200   23.7100 C   0  0  0  0  0  3  0  0  0  0  0  0
  -21.9080   -4.8240   22.5620 C   0  0  0  0  0  0  0  0  0  0  0  0
  -22.3220   -4.2720   21.3960 F   0  0  0  0  0  0  0  0  0  0  0  0
  -21.2130   -3.8060   26.0170 F   0  0  0  0  0  0  0  0  0  0  0  0
  -22.7090  -13.5660   21.1600 C   0  0  0  0  0  0  0  0  0  0  0  0
  -21.9880  -12.8630   22.0250 N   0  0  0  0  0  0  0  0  0  0  0  0
  -22.2670  -14.5930   20.6470 O   0  0  0  0  0  0  0  0  0  0  0  0
  -22.3600  -12.0340   22.4630 H   0  0  0  0  0  0  0  0  0  0  0  0
  -21.0510  -13.1610   22.2560 H   0  0  0  0  0  0  0  0  0  0  0  0
  -25.3080  -15.2550   20.3380 N   0  0  0  0  0  0  0  0  0  0  0  0
  -24.5340  -15.8990   20.4580 H   0  0  0  0  0  0  0  0  0  0  0  0
  -26.1430  -15.6980   19.9810 H   0  0  0  0  0  0  0  0  0  0  0  0
  -28.1870  -25.7970   20.2450 O   0  0  0  0  0  0  0  0  0  0  0  0
  -24.6270  -31.8850   23.2000 C   0  0  0  0  0  0  0  0  0  0  0  0
  -27.1610  -26.9060   20.2530 C   0  0  0  0  0  0  0  0  0  0  0  0
  -23.4320  -30.4750   21.5760 C   0  0  0  0  0  3  0  0  0  0  0  0
  -24.8740  -28.8350   20.1810 C   0  0  0  0  0  0  0  0  0  0  0  0
  -26.0030  -30.6590   21.4350 C   0  0  0  0  0  2  0  0  0  0  0  0
  -26.0680  -29.2340   20.7970 C   0  0  0  0  0  0  0  0  0  0  0  0
  -27.2050  -28.2940   20.7970 C   0  0  0  0  0  3  0  0  0  0  0  0
  -25.9330  -26.6720   19.5940 C   0  0  0  0  0  3  0  0  0  0  0  0
  -24.8370  -27.5770   19.5560 C   0  0  0  0  0  3  0  0  0  0  0  0
  -23.6640  -29.7710   20.2100 C   0  0  0  0  0  2  0  0  0  0  0  0
  -24.7100  -31.0360   22.1230 N   0  0  0  0  0  0  0  0  0  0  0  0
  -23.5360  -32.1860   23.7140 O   0  0  0  0  0  0  0  0  0  0  0  0
  -22.7280  -29.4970   22.5540 C   0  0  0  0  0  0  0  0  0  0  0  0
  -21.3970  -29.3420   22.4330 N   0  0  0  0  0  0  0  0  0  0  0  0
  -23.3900  -28.8760   23.3880 O   0  0  0  0  0  0  0  0  0  0  0  0
  -20.9150  -29.8920   21.7350 H   0  0  0  0  0  0  0  0  0  0  0  0
  -18.0080  -28.1510   22.9600 C   0  0  0  0  0  0  0  0  0  0  0  0
  -20.5690  -28.4140   23.2140 C   0  0  0  0  0  3  0  0  0  0  0  0
  -20.6650  -26.9770   22.6520 C   0  0  0  0  0  2  0  0  0  0  0  0
  -19.5590  -26.6490   21.6430 C   0  0  0  0  0  2  0  0  0  0  0  0
  -18.1810  -26.7980   22.2900 C   0  0  0  0  0  2  0  0  0  0  0  0
  -19.1290  -28.9170   23.3800 C   0  0  0  0  0  0  0  0  0  0  0  0
  -18.9110  -30.1810   23.9700 C   0  0  0  0  0  3  0  0  0  0  0  0
  -17.6060  -30.6800   24.1420 C   0  0  0  0  0  3  0  0  0  0  0  0
  -16.5000  -29.9140   23.7370 C   0  0  0  0  0  3  0  0  0  0  0  0
  -16.7020  -28.6510   23.1520 C   0  0  0  0  0  3  0  0  0  0  0  0
  -25.8950  -32.5350   23.8300 C   0  0  0  0  0  3  0  0  0  0  0  0
  -25.5690  -33.9320   24.1740 N   0  0  0  0  0  0  0  0  0  0  0  0
  -25.8800  -35.0000   23.4280 C   0  0  0  0  0  0  0  0  0  0  0  0
  -26.5310  -34.9130   22.3830 O   0  0  0  0  0  0  0  0  0  0  0  0
  -24.9860  -34.0700   24.9860 H   0  0  0  0  0  0  0  0  0  0  0  0
  -24.1270  -36.7870   23.1490 C   0  0  0  0  0  1  0  0  0  0  0  0
  -25.3970  -36.3830   23.9140 C   0  0  0  0  0  3  0  0  0  0  0  0
  -27.5440  -37.2910   24.6890 C   0  0  0  0  0  1  0  0  0  0  0  0
  -26.4180  -37.4450   23.7710 N   0  0  0  0  0  0  0  0  0  0  0  0
  -26.0090  -38.3630   23.9180 H   0  0  0  0  0  0  0  0  0  0  0  0
  -26.4080  -31.7690   25.1140 C   0  0  1  0  0  0  0  0  0  0  0  0
  -25.3130  -31.5340   26.1800 C   0  0  0  0  0  1  0  0  0  0  0  0
  -26.9970  -30.3910   24.7380 C   0  0  0  0  0  1  0  0  0  0  0  0
  -27.5550  -32.5690   25.7760 C   0  0  0  0  0  1  0  0  0  0  0  0
  1  2  1  0
  3  5  1  0
  3  4  1  0
  4 48  1  0
  4  1  1  0
  5  6  1  6
  5 18  1  0
  5  2  1  0
  7 19  1  0
  8 13  1  0
  9 10  1  0
  9  8  1  0
 11 10  1  0
 11 23  1  0
 11 12  1  0
 13  7  1  0
 13 12  1  0
 14  7  2  0
 15 16  1  0
 16 19  1  0
 18 15  1  0
 18 17  1  0
 19 17  1  0
 20 21  2  0
 21 40  1  0
 22 21  1  0
 22 25  1  0
 23 20  1  0
 23 24  1  0
 24 22  2  0
 25 26  1  0
 26 27  2  0
 28 31  1  0
 28 27  1  0
 29 28  2  0
 30 29  1  0
 30 25  2  0
 31 32  1  0
 32 33  1  0
 33 34  2  0
 35 34  1  0
 35 39  1  0
 36 35  2  0
 37 32  2  0
 37 36  1  0
 38 37  1  0
 40 41  1  0
 41 44  1  0
 41 43  1  0
 42 40  2  0
 45 46  1  0
 45 20  1  0
 47 45  1  0
 48 50  1  0
 49 60  2  0
 50 55  1  0
 51 59  1  0
 51 61  1  0
 52 58  1  0
 52 54  1  0
 53 59  1  0
 54 53  1  0
 55 54  2  0
 56 50  2  0
 57 56  1  0
 57 52  2  0
 58 51  1  0
 59 49  1  0
 61 63  2  0
 62 61  1  0
 64 62  1  0
 65 74  2  0
 65 70  1  0
 66 62  1  0
 66 70  1  0
 67 66  1  0
 68 69  1  0
 68 67  1  0
 69 65  1  0
 70 71  2  0
 71 72  1  0
 73 72  2  0
 74 73  1  0
 75 49  1  0
 75 76  1  0
 75 85  1  0
 76 79  1  0
 77 81  1  0
 77 76  1  0
 78 77  2  0
 81 80  1  0
 83 81  1  0
 83 84  1  0
 83 82  1  0
 85 88  1  1
 85 86  1  0
 87 85  1  0
M  ISO  4   4 101   7 100  19 100  48 101
M  END
>  <TORSDO>  (88) 
F 16

>  <SCORE>  (88) 
-16.885

>  <name>  (88) 
87

>  <ligand_id>  (88) 
87

>  <original_smiles>  (88) 
[H]c1c([H])c([H])c2c(c1[H])C([H])([H])C([H])([H])C([H])([H])C2([H])N([H])C(=O)C1([H])N(C(=O)C([H])(N([H])C(=O)C([H])(N([H])C([H])([H])[H])C([H])([H])[H])C(C([H])([H])[H])(C([H])([H])[H])C([H])([H])[H])C([H])([H])c2c([H])c(OC3([H])C([H])([H])C([H])([H])[N+]([H])(C4([H])C([H])([H])N(C(=O)N5C([H])([H])C([H])([H])C([H])([H])C([H])(n6nc(-c7c([H])c([H])c(Oc8c([H])c([H])c(F)c([H])c8F)c([H])c7[H])c(C(=O)N([H])[H])c6N([H])[H])C5([H])[H])C([H])([H])C4([H])[H])C3([H])[H])c([H])c([H])c2C1([H])[H]

>  <smiles>  (88) 
[H]c1c([H])c([H])c2c(c1[H])C([H])([H])C([H])([H])C([H])([H])C2([H])N([H])C(=O)C1([H])N(C(=O)C([H])(N([H])C(=O)C([H])(N([H])C([H])([H])[H])C([H])([H])[H])C(C([H])([H])[H])(C([H])([H])[H])C([H])([H])[H])C([H])([H])c2c([H])c(OC3([H])C([H])([H])C([H])([H])[N+]([H])(C4([H])C([H])([H])N(C(=O)N5C([H])([H])C([H])([H])C([H])([H])C([H])(n6nc(-c7c([H])c([H])c(Oc8c([H])c([H])c(F)c([H])c8F)c([H])c7[H])c(C(=O)N([H])[H])c6N([H])[H])C5([H])[H])C([H])([H])C4([H])[H])C3([H])[H])c([H])c([H])c2C1([H])[H]

$$$$
88:0:0
     RDKit          3D

 92100  0  0  1  0  0  0  0  0999 V2000
  -29.5720  -22.0430   22.6760 C   0  0  0  0  0  1  0  0  0  0  0  0
  -29.7070  -21.9280   21.1440 C   0  0  0  0  0  3  0  0  0  0  0  0
  -28.8680  -22.9490   20.5040 N   0  0  0  0  0  0  0  0  0  0  0  0
  -27.9170  -22.8660   20.8560 H   0  0  0  0  0  0  0  0  0  0  0  0
  -29.2940  -24.3530   20.6320 C   0  0  0  0  0  2  0  0  0  0  0  0
  -28.1860  -25.2520   20.0320 C   0  0  0  0  0  2  0  0  0  0  0  0
  -28.3560  -26.6730   20.2200 O   0  0  0  0  0  0  0  0  0  0  0  0
  -24.5800  -31.8980   23.2680 C   0  0  0  0  0  0  0  0  0  0  0  0
  -27.2000  -27.4380   20.1740 C   0  0  0  0  0  0  0  0  0  0  0  0
  -23.3670  -30.5050   21.6260 C   0  0  0  0  0  3  0  0  0  0  0  0
  -24.8130  -28.9740   20.1880 C   0  0  0  0  0  0  0  0  0  0  0  0
  -25.8970  -30.8510   21.4280 C   0  0  0  0  0  2  0  0  0  0  0  0
  -25.9770  -29.4820   20.7790 C   0  0  0  0  0  0  0  0  0  0  0  0
  -27.1720  -28.7220   20.7710 C   0  0  0  0  0  3  0  0  0  0  0  0
  -26.0170  -26.9630   19.5570 C   0  0  0  0  0  3  0  0  0  0  0  0
  -24.8300  -27.7140   19.5730 C   0  0  0  0  0  3  0  0  0  0  0  0
  -23.5730  -29.8360   20.2420 C   0  0  0  0  0  2  0  0  0  0  0  0
  -24.6340  -31.0990   22.1650 N   0  0  0  0  0  0  0  0  0  0  0  0
  -23.5000  -32.1710   23.8110 O   0  0  0  0  0  0  0  0  0  0  0  0
  -22.7150  -29.4800   22.5820 C   0  0  0  0  0  0  0  0  0  0  0  0
  -21.3910  -29.2950   22.4520 N   0  0  0  0  0  0  0  0  0  0  0  0
  -23.3990  -28.8560   23.3980 O   0  0  0  0  0  0  0  0  0  0  0  0
  -20.9010  -29.8520   21.7660 H   0  0  0  0  0  0  0  0  0  0  0  0
  -18.0190  -28.0930   22.9390 C   0  0  0  0  0  0  0  0  0  0  0  0
  -20.5750  -28.3560   23.2220 C   0  0  0  0  0  3  0  0  0  0  0  0
  -20.6830  -26.9240   22.6490 C   0  0  0  0  0  2  0  0  0  0  0  0
  -19.5870  -26.5980   21.6300 C   0  0  0  0  0  2  0  0  0  0  0  0
  -18.2010  -26.7420   22.2670 C   0  0  0  0  0  2  0  0  0  0  0  0
  -19.1340  -28.8570   23.3730 C   0  0  0  0  0  0  0  0  0  0  0  0
  -18.9110  -30.1220   23.9590 C   0  0  0  0  0  3  0  0  0  0  0  0
  -17.6040  -30.6220   24.1160 C   0  0  0  0  0  3  0  0  0  0  0  0
  -16.5030  -29.8540   23.7010 C   0  0  0  0  0  3  0  0  0  0  0  0
  -16.7120  -28.5920   23.1170 C   0  0  0  0  0  3  0  0  0  0  0  0
  -25.8690  -32.5250   23.8850 C   0  0  0  0  0  3  0  0  0  0  0  0
  -25.5680  -33.9260   24.2100 N   0  0  0  0  0  0  0  0  0  0  0  0
  -25.9030  -34.9720   23.4440 C   0  0  0  0  0  0  0  0  0  0  0  0
  -26.5690  -34.8590   22.4110 O   0  0  0  0  0  0  0  0  0  0  0  0
  -24.9770  -34.0880   25.0130 H   0  0  0  0  0  0  0  0  0  0  0  0
  -24.1810  -36.7690   23.0800 C   0  0  0  0  0  1  0  0  0  0  0  0
  -25.4210  -36.3650   23.8930 C   0  0  0  0  0  3  0  0  0  0  0  0
  -27.5590  -37.2440   24.7190 C   0  0  0  0  0  1  0  0  0  0  0  0
  -26.4580  -37.4130   23.7740 N   0  0  0  0  0  0  0  0  0  0  0  0
  -26.0560  -38.3350   23.9200 H   0  0  0  0  0  0  0  0  0  0  0  0
  -26.3850  -31.7550   25.1620 C   0  0  1  0  0  0  0  0  0  0  0  0
  -25.2930  -31.5250   26.2330 C   0  0  0  0  0  1  0  0  0  0  0  0
  -26.9630  -30.3740   24.7720 C   0  0  0  0  0  1  0  0  0  0  0  0
  -27.5410  -32.5450   25.8200 C   0  0  0  0  0  1  0  0  0  0  0  0
  -29.2420  -20.5300   20.6270 C   0  0  0  0  0  2  0  0  0  0  0  0
  -30.0410  -19.3800   21.1330 N   0  0  0  0  0  4  0  0  0  0  0  0
  -31.0000  -19.5000   20.8490 H   0  0  0  0  0  0  0  0  0  0  0  0
  -30.0130  -19.4060   22.1390 H   0  0  0  0  0  0  0  0  0  0  0  0
  -30.6680  -14.5390   20.4990 C   0  0  0  0  0  0  0  0  0  0  0  0
  -30.3840  -12.3330   19.4610 C   0  0  0  0  0  2  0  0  0  0  0  0
  -29.4600  -12.5030   18.2380 C   0  0  0  0  0  2  0  0  0  0  0  0
  -27.9800  -12.3700   18.6510 C   0  0  0  0  0  2  0  0  0  0  0  0
  -27.6170  -13.2260   19.8930 C   0  0  0  0  0  3  0  0  0  0  0  0
  -28.6710  -13.0850   21.0160 C   0  0  0  0  0  2  0  0  0  0  0  0
  -29.9920  -13.3590   20.4350 N   0  0  0  0  0  0  0  0  0  0  0  0
  -31.8700  -14.6380   20.2390 O   0  0  0  0  0  0  0  0  0  0  0  0
  -29.7690  -17.7380   19.2220 C   0  0  0  0  0  2  0  0  0  0  0  0
  -29.5540  -16.2250   19.1670 C   0  0  0  0  0  2  0  0  0  0  0  0
  -30.2030  -16.8150   21.3590 C   0  0  0  0  0  2  0  0  0  0  0  0
  -29.5470  -18.0440   20.6910 C   0  0  0  0  0  3  0  0  0  0  0  0
  -29.8950  -15.6560   20.4920 N   0  0  0  0  0  0  0  0  0  0  0  0
  -25.2180  -13.8460   20.5750 C   0  0  0  0  0  0  0  0  0  0  0  0
  -24.1440  -13.0780   20.9290 C   0  0  0  0  0  0  0  0  0  0  0  0
  -24.6030  -11.7260   20.9110 C   0  0  0  0  0  0  0  0  0  0  0  0
  -26.2630  -12.9580   20.3650 N   0  0  0  0  0  0  0  0  0  0  0  0
  -25.8970  -11.6790   20.6250 N   0  0  0  0  0  0  0  0  0  0  0  0
  -23.8720  -10.4660   21.0940 C   0  0  0  0  0  0  0  0  0  0  0  0
  -24.3050   -9.4900   22.0190 C   0  0  0  0  0  3  0  0  0  0  0  0
  -23.5770   -8.2940   22.1890 C   0  0  0  0  0  3  0  0  0  0  0  0
  -22.4010   -8.0650   21.4360 C   0  0  0  0  0  0  0  0  0  0  0  0
  -21.9880   -9.0290   20.4990 C   0  0  0  0  0  3  0  0  0  0  0  0
  -22.7170  -10.2170   20.3260 C   0  0  0  0  0  3  0  0  0  0  0  0
  -21.6450   -6.9210   21.5180 O   0  0  0  0  0  0  0  0  0  0  0  0
  -21.6110   -6.1610   22.6590 C   0  0  0  0  0  0  0  0  0  0  0  0
  -21.2110   -6.7010   23.9010 C   0  0  0  0  0  3  0  0  0  0  0  0
  -21.1230   -5.8690   25.0340 C   0  0  0  0  0  3  0  0  0  0  0  0
  -21.4240   -4.4970   24.9270 C   0  0  0  0  0  0  0  0  0  0  0  0
  -21.8170   -3.9570   23.6900 C   0  0  0  0  0  3  0  0  0  0  0  0
  -21.9070   -4.7870   22.5590 C   0  0  0  0  0  0  0  0  0  0  0  0
  -22.2670   -4.2580   21.3640 F   0  0  0  0  0  0  0  0  0  0  0  0
  -21.3320   -3.6960   26.0130 F   0  0  0  0  0  0  0  0  0  0  0  0
  -22.7430  -13.5590   21.1770 C   0  0  0  0  0  0  0  0  0  0  0  0
  -22.0000  -12.8680   22.0350 N   0  0  0  0  0  0  0  0  0  0  0  0
  -22.3150  -14.5820   20.6450 O   0  0  0  0  0  0  0  0  0  0  0  0
  -22.3580  -12.0400   22.4890 H   0  0  0  0  0  0  0  0  0  0  0  0
  -21.0590  -13.1690   22.2400 H   0  0  0  0  0  0  0  0  0  0  0  0
  -25.3890  -15.2160   20.3940 N   0  0  0  0  0  0  0  0  0  0  0  0
  -24.6250  -15.8750   20.4960 H   0  0  0  0  0  0  0  0  0  0  0  0
  -26.2530  -15.6530   20.1000 H   0  0  0  0  0  0  0  0  0  0  0  0
  2  1  1  0
  3  5  1  0
  3  4  1  0
  3  2  1  0
  6  7  1  0
  6  5  1  0
  8 19  2  0
  9  7  1  0
  9 14  1  0
 10 18  1  0
 10 20  1  0
 11 17  1  0
 11 13  1  0
 12 18  1  0
 13 12  1  0
 14 13  2  0
 15 16  1  0
 15  9  2  0
 16 11  2  0
 17 10  1  0
 18  8  1  0
 20 22  2  0
 21 20  1  0
 23 21  1  0
 24 33  2  0
 24 29  1  0
 25 21  1  0
 25 29  1  0
 26 25  1  0
 27 28  1  0
 27 26  1  0
 28 24  1  0
 29 30  2  0
 30 31  1  0
 32 31  2  0
 33 32  1  0
 34  8  1  0
 34 35  1  0
 34 44  1  0
 35 38  1  0
 36 40  1  0
 36 35  1  0
 37 36  2  0
 40 39  1  0
 42 40  1  0
 42 43  1  0
 42 41  1  0
 44 47  1  1
 44 45  1  0
 46 44  1  0
 48 49  1  0
 48  2  1  0
 49 51  1  0
 50 49  1  0
 53 58  1  0
 54 55  1  0
 54 53  1  0
 56 55  1  0
 56 68  1  0
 56 57  1  0
 58 52  1  0
 58 57  1  0
 59 52  2  0
 60 63  1  0
 61 60  1  0
 61 64  1  0
 63 49  1  0
 63 62  1  0
 64 52  1  0
 64 62  1  0
 65 66  2  0
 66 85  1  0
 67 66  1  0
 67 70  1  0
 68 65  1  0
 68 69  1  0
 69 67  2  0
 70 71  1  0
 71 72  2  0
 73 76  1  0
 73 72  1  0
 74 73  2  0
 75 74  1  0
 75 70  2  0
 76 77  1  0
 77 78  1  0
 78 79  2  0
 80 79  1  0
 80 84  1  0
 81 80  2  0
 82 77  2  0
 82 81  1  0
 83 82  1  0
 85 86  1  0
 86 89  1  0
 86 88  1  0
 87 85  2  0
 90 91  1  0
 90 65  1  0
 92 90  1  0
M  ISO  4   6 101   7 101  52 100  64 100
M  END
>  <TORSDO>  (89) 
F 21

>  <SCORE>  (89) 
-13.724

>  <name>  (89) 
88

>  <ligand_id>  (89) 
88

>  <original_smiles>  (89) 
[H]c1c([H])c([H])c2c(c1[H])C([H])([H])C([H])([H])C([H])([H])C2([H])N([H])C(=O)C1([H])N(C(=O)C([H])(N([H])C(=O)C([H])(N([H])C([H])([H])[H])C([H])([H])[H])C(C([H])([H])[H])(C([H])([H])[H])C([H])([H])[H])C([H])([H])c2c([H])c(OC([H])([H])C([H])([H])N([H])C([H])(C([H])([H])[H])C([H])([H])[N+]([H])([H])C3([H])C([H])([H])N(C(=O)N4C([H])([H])C([H])([H])C([H])([H])C([H])(n5nc(-c6c([H])c([H])c(Oc7c([H])c([H])c(F)c([H])c7F)c([H])c6[H])c(C(=O)N([H])[H])c5N([H])[H])C4([H])[H])C([H])([H])C3([H])[H])c([H])c([H])c2C1([H])[H]

>  <smiles>  (89) 
[H]c1c([H])c([H])c2c(c1[H])C([H])([H])C([H])([H])C([H])([H])C2([H])N([H])C(=O)C1([H])N(C(=O)C([H])(N([H])C(=O)C([H])(N([H])C([H])([H])[H])C([H])([H])[H])C(C([H])([H])[H])(C([H])([H])[H])C([H])([H])[H])C([H])([H])c2c([H])c(OC([H])([H])C([H])([H])N([H])C([H])(C([H])([H])[H])C([H])([H])[N+]([H])([H])C3([H])C([H])([H])N(C(=O)N4C([H])([H])C([H])([H])C([H])([H])C([H])(n5nc(-c6c([H])c([H])c(Oc7c([H])c([H])c(F)c([H])c7F)c([H])c6[H])c(C(=O)N([H])[H])c5N([H])[H])C4([H])[H])C([H])([H])C3([H])[H])c([H])c([H])c2C1([H])[H]

$$$$
89:0:0
     RDKit          3D

 90 99  0  0  1  0  0  0  0  0999 V2000
  -30.1860  -22.4460   18.6820 C   0  0  0  0  0  2  0  0  0  0  0  0
  -28.7650  -23.3990   20.1240 C   0  0  0  0  0  0  0  0  0  0  0  0
  -29.2040  -21.0650   20.1270 C   0  0  0  0  0  0  0  0  0  0  0  0
  -29.6070  -23.5690   19.1090 N   0  0  0  0  0  0  0  0  0  0  0  0
  -30.0410  -21.1920   19.1170 N   0  0  0  0  0  0  0  0  0  0  0  0
  -28.5370  -22.1400   20.6720 N   0  0  0  0  0  2  0  0  0  0  0  0
  -29.0540  -19.6970   20.6270 N   0  0  0  0  0  0  0  0  0  0  0  0
  -28.4120  -19.6430   21.4070 H   0  0  0  0  0  0  0  0  0  0  0  0
  -30.6050  -14.9130   20.3820 C   0  0  0  0  0  0  0  0  0  0  0  0
  -30.3590  -12.5910   19.4370 C   0  0  0  0  0  2  0  0  0  0  0  0
  -29.4400  -12.5470   18.1990 C   0  0  0  0  0  2  0  0  0  0  0  0
  -27.9790  -12.3420   18.6390 C   0  0  0  0  0  2  0  0  0  0  0  0
  -27.5720  -13.2930   19.7960 C   0  0  0  0  0  3  0  0  0  0  0  0
  -28.6260  -13.3450   20.9220 C   0  0  0  0  0  2  0  0  0  0  0  0
  -29.9000  -13.7170   20.2990 N   0  0  0  0  0  0  0  0  0  0  0  0
  -31.8160  -14.8500   20.1620 O   0  0  0  0  0  0  0  0  0  0  0  0
  -30.7320  -17.5480   20.7020 C   0  0  0  0  0  2  0  0  0  0  0  0
  -28.7460  -16.9660   20.4660 C   0  0  0  0  0  2  0  0  0  0  0  0
  -29.5100  -18.3120   20.0770 C   0  0  0  0  0  3  0  0  0  0  0  0
  -30.0440  -16.2130   20.5480 N   0  0  0  0  0  0  0  0  0  0  0  0
  -25.1930  -13.8720   20.5340 C   0  0  0  0  0  0  0  0  0  0  0  0
  -24.1250  -13.0980   20.8990 C   0  0  0  0  0  0  0  0  0  0  0  0
  -24.5890  -11.7480   20.8760 C   0  0  0  0  0  0  0  0  0  0  0  0
  -26.2370  -12.9930   20.3010 N   0  0  0  0  0  0  0  0  0  0  0  0
  -25.8820  -11.7100   20.5740 N   0  0  0  0  0  0  0  0  0  0  0  0
  -23.8600  -10.4860   21.0630 C   0  0  0  0  0  0  0  0  0  0  0  0
  -24.3000   -9.5070   21.9830 C   0  0  0  0  0  3  0  0  0  0  0  0
  -23.5690   -8.3120   22.1600 C   0  0  0  0  0  3  0  0  0  0  0  0
  -22.3850   -8.0870   21.4170 C   0  0  0  0  0  0  0  0  0  0  0  0
  -21.9660   -9.0550   20.4860 C   0  0  0  0  0  3  0  0  0  0  0  0
  -22.6980  -10.2400   20.3070 C   0  0  0  0  0  3  0  0  0  0  0  0
  -21.6250   -6.9460   21.5050 O   0  0  0  0  0  0  0  0  0  0  0  0
  -21.6020   -6.1820   22.6440 C   0  0  0  0  0  0  0  0  0  0  0  0
  -21.2270   -6.7190   23.8940 C   0  0  0  0  0  3  0  0  0  0  0  0
  -21.1490   -5.8830   25.0250 C   0  0  0  0  0  3  0  0  0  0  0  0
  -21.4380   -4.5100   24.9090 C   0  0  0  0  0  0  0  0  0  0  0  0
  -21.8080   -3.9710   23.6640 C   0  0  0  0  0  3  0  0  0  0  0  0
  -21.8870   -4.8050   22.5340 C   0  0  0  0  0  0  0  0  0  0  0  0
  -22.2220   -4.2780   21.3320 F   0  0  0  0  0  0  0  0  0  0  0  0
  -21.3580   -3.7050   25.9930 F   0  0  0  0  0  0  0  0  0  0  0  0
  -22.7240  -13.5770   21.1540 C   0  0  0  0  0  0  0  0  0  0  0  0
  -21.9890  -12.8900   22.0210 N   0  0  0  0  0  0  0  0  0  0  0  0
  -22.2940  -14.5980   20.6210 O   0  0  0  0  0  0  0  0  0  0  0  0
  -22.3520  -12.0670   22.4790 H   0  0  0  0  0  0  0  0  0  0  0  0
  -21.0500  -13.1940   22.2330 H   0  0  0  0  0  0  0  0  0  0  0  0
  -25.3560  -15.2410   20.3530 N   0  0  0  0  0  0  0  0  0  0  0  0
  -24.5890  -15.8970   20.4630 H   0  0  0  0  0  0  0  0  0  0  0  0
  -26.2110  -15.6790   20.0360 H   0  0  0  0  0  0  0  0  0  0  0  0
  -27.9690  -24.7430   20.6200 C   0  0  0  0  0  2  0  0  0  0  0  0
  -28.2740  -26.2090   20.2180 O   0  0  0  0  0  0  0  0  0  0  0  0
  -24.6470  -31.8770   23.2240 C   0  0  0  0  0  0  0  0  0  0  0  0
  -27.2150  -27.1790   20.2020 C   0  0  0  0  0  0  0  0  0  0  0  0
  -23.4390  -30.4710   21.5990 C   0  0  0  0  0  3  0  0  0  0  0  0
  -24.8820  -28.9000   20.1750 C   0  0  0  0  0  0  0  0  0  0  0  0
  -25.9890  -30.7490   21.4160 C   0  0  0  0  0  2  0  0  0  0  0  0
  -26.0640  -29.3560   20.7740 C   0  0  0  0  0  0  0  0  0  0  0  0
  -27.2350  -28.5110   20.7710 C   0  0  0  0  0  3  0  0  0  0  0  0
  -26.0120  -26.8220   19.5550 C   0  0  0  0  0  3  0  0  0  0  0  0
  -24.8670  -27.6440   19.5490 C   0  0  0  0  0  3  0  0  0  0  0  0
  -23.6520  -29.7910   20.2220 C   0  0  0  0  0  2  0  0  0  0  0  0
  -24.7130  -31.0530   22.1350 N   0  0  0  0  0  0  0  0  0  0  0  0
  -23.5640  -32.1620   23.7570 O   0  0  0  0  0  0  0  0  0  0  0  0
  -22.7710  -29.4650   22.5680 C   0  0  0  0  0  0  0  0  0  0  0  0
  -21.4430  -29.2900   22.4480 N   0  0  0  0  0  0  0  0  0  0  0  0
  -23.4500  -28.8430   23.3900 O   0  0  0  0  0  0  0  0  0  0  0  0
  -20.9540  -29.8450   21.7600 H   0  0  0  0  0  0  0  0  0  0  0  0
  -18.0670  -28.0850   22.9660 C   0  0  0  0  0  0  0  0  0  0  0  0
  -20.6260  -28.3560   23.2290 C   0  0  0  0  0  3  0  0  0  0  0  0
  -20.7310  -26.9210   22.6640 C   0  0  0  0  0  2  0  0  0  0  0  0
  -19.6280  -26.5860   21.6550 C   0  0  0  0  0  2  0  0  0  0  0  0
  -18.2480  -26.7310   22.3000 C   0  0  0  0  0  2  0  0  0  0  0  0
  -19.1840  -28.8540   23.3870 C   0  0  0  0  0  0  0  0  0  0  0  0
  -18.9620  -30.1210   23.9710 C   0  0  0  0  0  3  0  0  0  0  0  0
  -17.6550  -30.6170   24.1390 C   0  0  0  0  0  3  0  0  0  0  0  0
  -16.5530  -29.8450   23.7330 C   0  0  0  0  0  3  0  0  0  0  0  0
  -16.7610  -28.5810   23.1510 C   0  0  0  0  0  3  0  0  0  0  0  0
  -25.9280  -32.5160   23.8400 C   0  0  0  0  0  3  0  0  0  0  0  0
  -25.6110  -33.9110   24.1830 N   0  0  0  0  0  0  0  0  0  0  0  0
  -25.9220  -34.9730   23.4280 C   0  0  0  0  0  0  0  0  0  0  0  0
  -26.5740  -34.8830   22.3840 O   0  0  0  0  0  0  0  0  0  0  0  0
  -25.0280  -34.0530   24.9940 H   0  0  0  0  0  0  0  0  0  0  0  0
  -24.1700  -36.7560   23.1270 C   0  0  0  0  0  1  0  0  0  0  0  0
  -25.4330  -36.3560   23.9050 C   0  0  0  0  0  3  0  0  0  0  0  0
  -27.5800  -37.2550   24.6880 C   0  0  0  0  0  1  0  0  0  0  0  0
  -26.4540  -37.4190   23.7740 N   0  0  0  0  0  0  0  0  0  0  0  0
  -26.0430  -38.3350   23.9370 H   0  0  0  0  0  0  0  0  0  0  0  0
  -26.4570  -31.7440   25.1120 C   0  0  1  0  0  0  0  0  0  0  0  0
  -25.3720  -31.5020   26.1870 C   0  0  0  0  0  1  0  0  0  0  0  0
  -27.0410  -30.3680   24.7150 C   0  0  0  0  0  1  0  0  0  0  0  0
  -27.6100  -32.5390   25.7660 C   0  0  0  0  0  1  0  0  0  0  0  0
  1  4  1  0
  1  5  1  0
  2 49  1  0
  2  6  1  0
  3  7  1  0
  3  6  1  0
  4  2  2  0
  5  3  2  0
  7  8  1  0
  9 20  1  0
 10 15  1  0
 11 12  1  0
 11 10  1  0
 13 12  1  0
 13 24  1  0
 13 14  1  0
 15  9  1  0
 15 14  1  0
 16  9  2  0
 18 20  1  0
 19 18  1  0
 19  7  1  0
 19 17  1  0
 20 17  1  0
 21 22  2  0
 22 41  1  0
 23 22  1  0
 23 26  1  0
 24 21  1  0
 24 25  1  0
 25 23  2  0
 26 27  1  0
 27 28  2  0
 29 32  1  0
 29 28  1  0
 30 29  2  0
 31 30  1  0
 31 26  2  0
 32 33  1  0
 33 34  1  0
 34 35  2  0
 36 35  1  0
 36 40  1  0
 37 36  2  0
 38 33  2  0
 38 37  1  0
 39 38  1  0
 41 42  1  0
 42 45  1  0
 42 44  1  0
 43 41  2  0
 46 47  1  0
 46 21  1  0
 48 46  1  0
 50 49  1  0
 51 62  2  0
 52 50  1  0
 52 57  1  0
 53 61  1  0
 53 63  1  0
 54 60  1  0
 54 56  1  0
 55 61  1  0
 56 55  1  0
 57 56  2  0
 58 52  2  0
 59 58  1  0
 59 54  2  0
 60 53  1  0
 61 51  1  0
 63 65  2  0
 64 63  1  0
 66 64  1  0
 67 76  2  0
 67 72  1  0
 68 64  1  0
 68 72  1  0
 69 68  1  0
 70 71  1  0
 70 69  1  0
 71 67  1  0
 72 73  2  0
 73 74  1  0
 75 74  2  0
 76 75  1  0
 77 51  1  0
 77 78  1  0
 77 87  1  0
 78 81  1  0
 79 83  1  0
 79 78  1  0
 80 79  2  0
 83 82  1  0
 85 83  1  0
 85 86  1  0
 85 84  1  0
 87 90  1  1
 87 88  1  0
 89 87  1  0
M  ISO  4   9 100  20 100  49 101  50 101
M  END
>  <TORSDO>  (90) 
F 17

>  <SCORE>  (90) 
-15.139

>  <name>  (90) 
89

>  <ligand_id>  (90) 
89

>  <original_smiles>  (90) 
[H]c1nc(N([H])C2([H])C([H])([H])N(C(=O)N3C([H])([H])C([H])([H])C([H])([H])C([H])(n4nc(-c5c([H])c([H])c(Oc6c([H])c([H])c(F)c([H])c6F)c([H])c5[H])c(C(=O)N([H])[H])c4N([H])[H])C3([H])[H])C2([H])[H])nc(C([H])([H])Oc2c([H])c([H])c3c(c2[H])C([H])([H])N(C(=O)C([H])(N([H])C(=O)C([H])(N([H])C([H])([H])[H])C([H])([H])[H])C(C([H])([H])[H])(C([H])([H])[H])C([H])([H])[H])C([H])(C(=O)N([H])C2([H])c4c([H])c([H])c([H])c([H])c4C([H])([H])C([H])([H])C2([H])[H])C3([H])[H])n1

>  <smiles>  (90) 
[H]c1nc(N([H])C2([H])C([H])([H])N(C(=O)N3C([H])([H])C([H])([H])C([H])([H])C([H])(n4nc(-c5c([H])c([H])c(Oc6c([H])c([H])c(F)c([H])c6F)c([H])c5[H])c(C(=O)N([H])[H])c4N([H])[H])C3([H])[H])C2([H])[H])nc(C([H])([H])Oc2c([H])c([H])c3c(c2[H])C([H])([H])N(C(=O)C([H])(N([H])C(=O)C([H])(N([H])C([H])([H])[H])C([H])([H])[H])C(C([H])([H])[H])(C([H])([H])[H])C([H])([H])[H])C([H])(C(=O)N([H])C2([H])c4c([H])c([H])c([H])c([H])c4C([H])([H])C([H])([H])C2([H])[H])C3([H])[H])n1

$$$$
90:0:0
     RDKit          3D

 94104  0  0  1  0  0  0  0  0999 V2000
  -27.9230  -23.2290   21.1650 C   0  0  0  0  0  3  0  0  0  0  0  0
  -28.8480  -22.4630   20.4120 C   0  0  0  0  0  0  0  0  0  0  0  0
  -29.5310  -23.2390   19.4480 C   0  0  0  0  0  3  0  0  0  0  0  0
  -28.4530  -25.2060   20.1000 C   0  0  0  0  0  0  0  0  0  0  0  0
  -27.7330  -24.5700   21.0200 N   0  0  0  0  0  0  0  0  0  0  0  0
  -29.3300  -24.5800   19.3050 N   0  0  0  0  0  0  0  0  0  0  0  0
  -31.9470  -22.4180   19.1670 C   0  0  0  0  0  2  0  0  0  0  0  0
  -31.7730  -23.3450   17.9960 C   0  0  0  0  0  2  0  0  0  0  0  0
  -30.5720  -22.6210   18.5650 C   0  0  0  0  0  3  0  0  0  0  0  0
  -28.4560  -26.5960   20.0680 O   0  0  0  0  0  0  0  0  0  0  0  0
  -24.5170  -31.8530   23.1490 C   0  0  0  0  0  0  0  0  0  0  0  0
  -27.2780  -27.3600   20.1210 C   0  0  0  0  0  0  0  0  0  0  0  0
  -23.3660  -30.4330   21.4850 C   0  0  0  0  0  3  0  0  0  0  0  0
  -24.8720  -28.9080   20.0910 C   0  0  0  0  0  0  0  0  0  0  0  0
  -25.9010  -30.8010   21.3480 C   0  0  0  0  0  2  0  0  0  0  0  0
  -26.0190  -29.4240   20.7070 C   0  0  0  0  0  0  0  0  0  0  0  0
  -27.2220  -28.6600   20.7170 C   0  0  0  0  0  3  0  0  0  0  0  0
  -26.1070  -26.8940   19.4820 C   0  0  0  0  0  3  0  0  0  0  0  0
  -24.9150  -27.6450   19.4750 C   0  0  0  0  0  3  0  0  0  0  0  0
  -23.6210  -29.7610   20.1090 C   0  0  0  0  0  2  0  0  0  0  0  0
  -24.6110  -31.0460   22.0510 N   0  0  0  0  0  0  0  0  0  0  0  0
  -23.4220  -32.1070   23.6680 O   0  0  0  0  0  0  0  0  0  0  0  0
  -22.7030  -29.4040   22.4320 C   0  0  0  0  0  0  0  0  0  0  0  0
  -21.3810  -29.2130   22.2870 N   0  0  0  0  0  0  0  0  0  0  0  0
  -23.3790  -28.7780   23.2530 O   0  0  0  0  0  0  0  0  0  0  0  0
  -20.8970  -29.7670   21.5960 H   0  0  0  0  0  0  0  0  0  0  0  0
  -18.0100  -27.9840   22.7420 C   0  0  0  0  0  0  0  0  0  0  0  0
  -20.5620  -28.2650   23.0440 C   0  0  0  0  0  3  0  0  0  0  0  0
  -20.6860  -26.8370   22.4610 C   0  0  0  0  0  2  0  0  0  0  0  0
  -19.5980  -26.5110   21.4320 C   0  0  0  0  0  2  0  0  0  0  0  0
  -18.2070  -26.6410   22.0570 C   0  0  0  0  0  2  0  0  0  0  0  0
  -19.1170  -28.7530   23.1870 C   0  0  0  0  0  0  0  0  0  0  0  0
  -18.8790  -30.0140   23.7790 C   0  0  0  0  0  3  0  0  0  0  0  0
  -17.5680  -30.5020   23.9350 C   0  0  0  0  0  3  0  0  0  0  0  0
  -16.4750  -29.7280   23.5100 C   0  0  0  0  0  3  0  0  0  0  0  0
  -16.6990  -28.4720   22.9180 C   0  0  0  0  0  3  0  0  0  0  0  0
  -25.7780  -32.5070   23.7910 C   0  0  0  0  0  3  0  0  0  0  0  0
  -26.2960  -31.7380   25.0680 C   0  0  1  0  0  0  0  0  0  0  0  0
  -25.1930  -31.4650   26.1170 C   0  0  0  0  0  1  0  0  0  0  0  0
  -26.9230  -30.3800   24.6750 C   0  0  0  0  0  1  0  0  0  0  0  0
  -27.4220  -32.5530   25.7490 C   0  0  0  0  0  1  0  0  0  0  0  0
  -25.4370  -33.8960   24.1300 N   0  0  0  0  0  0  0  0  0  0  0  0
  -25.7570  -34.9610   23.3840 C   0  0  0  0  0  0  0  0  0  0  0  0
  -26.4420  -34.8820   22.3610 O   0  0  0  0  0  0  0  0  0  0  0  0
  -24.8450  -34.0340   24.9350 H   0  0  0  0  0  0  0  0  0  0  0  0
  -24.0030  -36.7240   23.0150 C   0  0  0  0  0  1  0  0  0  0  0  0
  -25.2350  -36.3350   23.8480 C   0  0  0  0  0  3  0  0  0  0  0  0
  -27.3320  -37.2480   24.7340 C   0  0  0  0  0  1  0  0  0  0  0  0
  -26.2480  -37.4090   23.7680 N   0  0  0  0  0  0  0  0  0  0  0  0
  -25.8230  -38.3170   23.9240 H   0  0  0  0  0  0  0  0  0  0  0  0
  -29.1790  -20.9610   20.8240 C   0  0  0  0  0  3  0  0  0  0  0  0
  -29.4500  -19.7380   19.8160 C   0  0  0  0  0  3  0  0  0  0  0  0
  -30.7960  -14.7550   20.0120 C   0  0  0  0  0  0  0  0  0  0  0  0
  -30.5270  -12.5220   18.9250 C   0  0  0  0  0  2  0  0  0  0  0  0
  -29.5100  -12.6380   17.7660 C   0  0  0  0  0  2  0  0  0  0  0  0
  -28.0710  -12.4590   18.2880 C   0  0  0  0  0  2  0  0  0  0  0  0
  -27.7850  -13.3220   19.5470 C   0  0  0  0  0  3  0  0  0  0  0  0
  -28.9070  -13.1280   20.5920 C   0  0  0  0  0  2  0  0  0  0  0  0
  -30.1570  -13.5370   19.9410 N   0  0  0  0  0  0  0  0  0  0  0  0
  -31.9400  -14.8570   19.5540 O   0  0  0  0  0  0  0  0  0  0  0  0
  -29.1660  -16.2350   21.3560 C   0  0  0  0  0  2  0  0  0  0  0  0
  -28.8750  -17.7690   21.3540 C   0  0  0  0  0  2  0  0  0  0  0  0
  -30.3190  -17.2580   19.6140 C   0  0  0  0  0  2  0  0  0  0  0  0
  -30.0420  -15.9110   20.2130 N   0  0  0  0  0  0  0  0  0  0  0  0
  -29.8610  -18.4110   20.4670 N   0  0  1  0  0  4  0  0  0  0  0  0
  -30.6580  -18.6260   21.0490 H   0  0  0  0  0  0  0  0  0  0  0  0
  -25.4510  -13.9370   20.4240 C   0  0  0  0  0  0  0  0  0  0  0  0
  -24.3960  -13.1680   20.8310 C   0  0  0  0  0  0  0  0  0  0  0  0
  -24.8350  -11.8110   20.7330 C   0  0  0  0  0  0  0  0  0  0  0  0
  -26.4650  -13.0480   20.1030 N   0  0  0  0  0  0  0  0  0  0  0  0
  -26.1040  -11.7640   20.3500 N   0  0  0  0  0  0  0  0  0  0  0  0
  -24.1040  -10.5530   20.9260 C   0  0  0  0  0  0  0  0  0  0  0  0
  -24.5240   -9.5900   21.8710 C   0  0  0  0  0  3  0  0  0  0  0  0
  -23.7920   -8.3980   22.0510 C   0  0  0  0  0  3  0  0  0  0  0  0
  -22.6270   -8.1590   21.2860 C   0  0  0  0  0  0  0  0  0  0  0  0
  -22.2260   -9.1090   20.3310 C   0  0  0  0  0  3  0  0  0  0  0  0
  -22.9580  -10.2930   20.1490 C   0  0  0  0  0  3  0  0  0  0  0  0
  -21.8670   -7.0170   21.3750 O   0  0  0  0  0  0  0  0  0  0  0  0
  -21.7350   -6.3330   22.5550 C   0  0  0  0  0  0  0  0  0  0  0  0
  -21.2200   -6.9450   23.7200 C   0  0  0  0  0  3  0  0  0  0  0  0
  -21.0350   -6.1850   24.8920 C   0  0  0  0  0  3  0  0  0  0  0  0
  -21.3550   -4.8150   24.9000 C   0  0  0  0  0  0  0  0  0  0  0  0
  -21.8630   -4.2020   23.7420 C   0  0  0  0  0  3  0  0  0  0  0  0
  -22.0490   -4.9590   22.5710 C   0  0  0  0  0  0  0  0  0  0  0  0
  -22.5190   -4.3580   21.4510 F   0  0  0  0  0  0  0  0  0  0  0  0
  -21.1700   -4.0820   26.0250 F   0  0  0  0  0  0  0  0  0  0  0  0
  -23.0240  -13.6560   21.1990 C   0  0  0  0  0  0  0  0  0  0  0  0
  -22.3400  -12.9410   22.0850 N   0  0  0  0  0  0  0  0  0  0  0  0
  -22.5710  -14.7020   20.7380 O   0  0  0  0  0  0  0  0  0  0  0  0
  -22.7220  -12.0910   22.4750 H   0  0  0  0  0  0  0  0  0  0  0  0
  -21.4230  -13.2460   22.3780 H   0  0  0  0  0  0  0  0  0  0  0  0
  -25.6270  -15.3100   20.2740 N   0  0  0  0  0  0  0  0  0  0  0  0
  -24.8740  -15.9690   20.4340 H   0  0  0  0  0  0  0  0  0  0  0  0
  -26.4500  -15.7350   19.8700 H   0  0  0  0  0  0  0  0  0  0  0  0
  2 51  1  0
  2  1  2  0
  3  9  1  0
  3  2  1  0
  4  5  2  0
  5  1  1  0
  6  3  1  0
  6  4  2  0
  8  9  1  0
  8  7  1  0
  9  7  1  0
 10  4  1  0
 10 12  1  0
 11 22  2  0
 12 17  1  0
 13 21  1  0
 13 23  1  0
 14 20  1  0
 14 16  1  0
 15 21  1  0
 16 17  2  0
 16 15  1  0
 18 12  2  0
 19 18  1  0
 19 14  2  0
 20 13  1  0
 21 11  1  0
 23 25  2  0
 24 23  1  0
 26 24  1  0
 27 36  2  0
 27 32  1  0
 28 24  1  0
 28 32  1  0
 29 28  1  0
 30 31  1  0
 30 29  1  0
 31 27  1  0
 32 33  2  0
 33 34  1  0
 35 34  2  0
 36 35  1  0
 37 11  1  0
 37 42  1  0
 37 38  1  0
 38 41  1  1
 38 39  1  0
 40 38  1  0
 42 45  1  0
 43 47  1  0
 43 42  1  0
 44 43  2  0
 47 46  1  0
 49 47  1  0
 49 50  1  0
 49 48  1  0
 52 65  1  0
 52 51  2  0
 53 64  1  0
 54 59  1  0
 55 56  1  0
 55 54  1  0
 57 56  1  0
 57 70  1  0
 57 58  1  0
 59 53  1  0
 59 58  1  0
 60 53  2  0
 62 61  1  0
 63 64  1  0
 63 65  1  0
 64 61  1  0
 65 66  1  1
 65 62  1  0
 67 68  2  0
 68 87  1  0
 69 68  1  0
 69 72  1  0
 70 71  1  0
 70 67  1  0
 71 69  2  0
 72 73  1  0
 73 74  2  0
 75 78  1  0
 75 74  1  0
 76 75  2  0
 77 76  1  0
 77 72  2  0
 78 79  1  0
 79 84  2  0
 79 80  1  0
 80 81  2  0
 81 82  1  0
 82 86  1  0
 83 82  2  0
 84 83  1  0
 85 84  1  0
 87 88  1  0
 88 91  1  0
 88 90  1  0
 89 87  2  0
 92 67  1  0
 92 93  1  0
 94 92  1  0
M  ISO  4   4 101  10 101  53 100  64 100
M  END
>  <TORSDO>  (91) 
F 19

>  <SCORE>  (91) 
-13.440

>  <name>  (91) 
90

>  <ligand_id>  (91) 
90

>  <original_smiles>  (91) 
[H]c1nc(Oc2c([H])c([H])c3c(c2[H])C([H])([H])N(C(=O)C([H])(N([H])C(=O)C([H])(N([H])C([H])([H])[H])C([H])([H])[H])C(C([H])([H])[H])(C([H])([H])[H])C([H])([H])[H])C([H])(C(=O)N([H])C2([H])c4c([H])c([H])c([H])c([H])c4C([H])([H])C([H])([H])C2([H])[H])C3([H])[H])nc(C2([H])C([H])([H])C2([H])[H])c1C([H])([H])C([H])([H])[N+]1([H])C([H])([H])N(C(=O)N2C([H])([H])C([H])([H])C([H])([H])C([H])(n3nc(-c4c([H])c([H])c(Oc5c([H])c([H])c(F)c([H])c5F)c([H])c4[H])c(C(=O)N([H])[H])c3N([H])[H])C2([H])[H])C([H])([H])C1([H])[H]

>  <smiles>  (91) 
[H]c1nc(Oc2c([H])c([H])c3c(c2[H])C([H])([H])N(C(=O)C([H])(N([H])C(=O)C([H])(N([H])C([H])([H])[H])C([H])([H])[H])C(C([H])([H])[H])(C([H])([H])[H])C([H])([H])[H])C([H])(C(=O)N([H])C2([H])c4c([H])c([H])c([H])c([H])c4C([H])([H])C([H])([H])C2([H])[H])C3([H])[H])nc(C2([H])C([H])([H])C2([H])[H])c1C([H])([H])C([H])([H])[N+]1([H])C([H])([H])N(C(=O)N2C([H])([H])C([H])([H])C([H])([H])C([H])(n3nc(-c4c([H])c([H])c(Oc5c([H])c([H])c(F)c([H])c5F)c([H])c4[H])c(C(=O)N([H])[H])c3N([H])[H])C2([H])[H])C([H])([H])C1([H])[H]

$$$$
91:0:0
     RDKit          3D

106109  0  0  1  0  0  0  0  0999 V2000
  -25.8050  -25.9320   21.2590 C   0  0  0  0  0  3  0  0  0  0  0  0
  -24.2800  -26.4830   20.2130 C   0  0  0  0  0  3  0  0  0  0  0  0
  -26.1400  -24.2510   21.0100 C   0  0  0  0  0  0  0  0  0  0  0  0
  -24.0570  -24.2430   19.7270 C   0  0  0  0  0  0  0  0  0  0  0  0
  -27.3260  -27.4480   22.1590 C   0  0  0  0  0 15  0  0  0  0  0  0
  -24.2230  -28.9110   18.9740 C   0  0  0  0  0 15  0  0  0  0  0  0
  -26.5390  -30.1920   19.4560 C   0  0  0  0  0 15  0  0  0  0  0  0
  -23.2610  -23.2990   18.8430 C   0  0  0  0  0  1  0  0  0  0  0  0
  -23.5750  -25.4840   19.6700 N   0  0  0  0  0  0  0  0  0  0  0  0
  -25.1500  -23.6750   20.2720 N   0  0  0  0  0  0  0  0  0  0  0  0
  -27.1680  -22.8920   21.2130 N   0  0  0  0  0  0  0  0  0  0  0  0
  -27.9390  -29.4080   21.2210 N   0  0  0  0  0  2  0  0  0  0  0  0
  -27.9230  -23.1700   21.8310 H   0  0  0  0  0  0  0  0  0  0  0  0
  -27.8660  -28.6950   20.5090 H   0  0  0  0  0  0  0  0  0  0  0  0
  -26.2060  -19.6680   22.6550 C   0  0  0  0  0  2  0  0  0  0  0  0
  -26.0280  -17.8840   20.8920 C   0  0  0  0  0  2  0  0  0  0  0  0
  -25.3690  -20.6110   21.7650 C   0  0  0  0  0  2  0  0  0  0  0  0
  -25.8300  -19.8310   19.3830 C   0  0  0  0  0  2  0  0  0  0  0  0
  -27.0130  -18.6550   21.8280 C   0  0  0  0  0  3  0  0  0  0  0  0
  -28.3070  -19.2010   21.1130 C   0  0  0  0  0  1  0  0  0  0  0  0
  -27.4680  -21.1350   20.6540 C   0  0  0  0  0  2  0  0  0  0  0  0
  -25.2090  -18.6240   19.9260 N   0  0  0  0  0  0  0  0  0  0  0  0
  -26.0450  -20.8350   20.4460 N   0  0  2  0  0  4  0  0  0  0  0  0
  -24.9190  -18.0170   19.1590 H   0  0  0  0  0  0  0  0  0  0  0  0
  -25.6780  -21.7080   20.0830 H   0  0  0  0  0  0  0  0  0  0  0  0
  -29.8430  -16.0510   20.4940 C   0  0  0  0  0  0  0  0  0  0  0  0
  -30.3390  -13.4510   19.5940 C   0  0  0  0  0  2  0  0  0  0  0  0
  -29.5640  -12.7870   18.4030 C   0  0  0  0  0  2  0  0  0  0  0  0
  -28.1770  -12.2920   18.8310 C   0  0  0  0  0  2  0  0  0  0  0  0
  -27.5500  -13.2990   19.8140 C   0  0  0  0  0  3  0  0  0  0  0  0
  -28.4840  -13.7570   20.9470 C   0  0  0  0  0  2  0  0  0  0  0  0
  -29.5250  -14.5880   20.2970 N   0  0  0  0  0  0  0  0  0  0  0  0
  -31.1050  -16.0290   20.4560 O   0  0  0  0  0  0  0  0  0  0  0  0
  -28.8840  -17.4190   20.5320 N   0  0  0  0  0  2  0  0  0  0  0  0
  -28.0270  -17.0160   20.1880 H   0  0  0  0  0  0  0  0  0  0  0  0
  -25.1950  -13.7780   20.5570 C   0  0  0  0  0  0  0  0  0  0  0  0
  -24.1460  -13.0080   20.9370 C   0  0  0  0  0  0  0  0  0  0  0  0
  -24.6280  -11.6660   20.8850 C   0  0  0  0  0  0  0  0  0  0  0  0
  -26.2440  -12.9250   20.3080 N   0  0  0  0  0  0  0  0  0  0  0  0
  -25.9200  -11.6370   20.5650 N   0  0  0  0  0  0  0  0  0  0  0  0
  -23.9040  -10.4070   21.0450 C   0  0  0  0  0  0  0  0  0  0  0  0
  -24.3590   -9.4030   21.9250 C   0  0  0  0  0  3  0  0  0  0  0  0
  -23.6230   -8.2110   22.0820 C   0  0  0  0  0  3  0  0  0  0  0  0
  -22.4260   -8.0170   21.3540 C   0  0  0  0  0  0  0  0  0  0  0  0
  -21.9870   -9.0160   20.4670 C   0  0  0  0  0  3  0  0  0  0  0  0
  -22.7220  -10.1990   20.3060 C   0  0  0  0  0  3  0  0  0  0  0  0
  -21.6580   -6.8820   21.4260 O   0  0  0  0  0  0  0  0  0  0  0  0
  -21.6820   -6.0690   22.5300 C   0  0  0  0  0  0  0  0  0  0  0  0
  -21.4000   -6.5610   23.8230 C   0  0  0  0  0  3  0  0  0  0  0  0
  -21.3640   -5.6780   24.9190 C   0  0  0  0  0  3  0  0  0  0  0  0
  -21.6030   -4.3040   24.7230 C   0  0  0  0  0  0  0  0  0  0  0  0
  -21.8820   -3.8130   23.4350 C   0  0  0  0  0  3  0  0  0  0  0  0
  -21.9180   -4.6930   22.3410 C   0  0  0  0  0  0  0  0  0  0  0  0
  -22.1670   -4.2110   21.0990 F   0  0  0  0  0  0  0  0  0  0  0  0
  -21.5600   -3.4540   25.7760 F   0  0  0  0  0  0  0  0  0  0  0  0
  -22.7510  -13.4910   21.2000 C   0  0  0  0  0  0  0  0  0  0  0  0
  -22.0170  -12.7970   22.0610 N   0  0  0  0  0  0  0  0  0  0  0  0
  -22.3250  -14.5250   20.6830 O   0  0  0  0  0  0  0  0  0  0  0  0
  -22.3660  -11.9610   22.5080 H   0  0  0  0  0  0  0  0  0  0  0  0
  -21.0820  -13.1120   22.2750 H   0  0  0  0  0  0  0  0  0  0  0  0
  -25.3260  -15.1270   20.3300 N   0  0  0  0  0  0  0  0  0  0  0  0
  -24.4680  -15.6640   20.2700 H   0  0  0  0  0  0  0  0  0  0  0  0
  -26.0200  -15.4160   19.6570 H   0  0  0  0  0  0  0  0  0  0  0  0
  -29.3900  -29.2280   20.8840 C   0  0  0  0  0  2  0  0  0  0  0  0
  -29.7880  -27.6830   20.6100 C   0  0  0  0  0  2  0  0  0  0  0  0
  -29.0520  -26.6910   19.7740 O   0  0  0  0  0  0  0  0  0  0  0  0
  -24.5260  -31.8270   23.2940 C   0  0  0  0  0  0  0  0  0  0  0  0
  -27.7050  -26.7680   19.5620 C   0  0  0  0  0  3  0  0  0  0  0  0
  -23.6050  -30.0030   21.7370 C   0  0  0  0  0  3  0  0  0  0  0  0
  -25.8840  -28.0130   20.0240 C   0  0  0  0  0  3  0  0  0  0  0  0
  -25.7380  -30.4340   21.7280 C   0  0  0  0  0  1  0  0  0  0  0  0
  -25.7490  -28.7270   21.0470 C   0  0  0  0  0  2  0  0  0  0  0  0
  -26.9420  -27.9360   19.9510 C   0  0  0  0  0  2  0  0  0  0  0  0
  -26.8400  -26.3310   18.5400 C   0  0  0  0  0  2  0  0  0  0  0  0
  -25.6890  -27.1400   18.4340 C   0  0  0  0  0  2  0  0  0  0  0  0
  -24.3570  -28.5830   21.2700 C   0  0  0  0  0  2  0  0  0  0  0  0
  -24.5910  -30.8200   22.3700 N   0  0  0  0  0  0  0  0  0  0  0  0
  -23.4440  -32.2120   23.7380 O   0  0  0  0  0  0  0  0  0  0  0  0
  -22.6380  -29.4750   22.7730 C   0  0  0  0  0  0  0  0  0  0  0  0
  -21.3610  -29.3000   22.4340 N   0  0  0  0  0  0  0  0  0  0  0  0
  -23.1350  -28.9860   23.7840 O   0  0  0  0  0  0  0  0  0  0  0  0
  -21.0000  -29.6790   21.5690 H   0  0  0  0  0  0  0  0  0  0  0  0
  -17.9900  -28.1370   22.8610 C   0  0  0  0  0  0  0  0  0  0  0  0
  -20.5190  -28.3680   23.1600 C   0  0  0  0  0  3  0  0  0  0  0  0
  -20.6510  -26.9410   22.5740 C   0  0  0  0  0  2  0  0  0  0  0  0
  -19.5550  -26.6120   21.5550 C   0  0  0  0  0  2  0  0  0  0  0  0
  -18.1700  -26.7810   22.1900 C   0  0  0  0  0  2  0  0  0  0  0  0
  -19.1060  -28.8910   23.2920 C   0  0  0  0  0  0  0  0  0  0  0  0
  -18.9180  -30.1600   23.8800 C   0  0  0  0  0  3  0  0  0  0  0  0
  -17.6210  -30.6790   24.0410 C   0  0  0  0  0  3  0  0  0  0  0  0
  -16.5100  -29.9220   23.6250 C   0  0  0  0  0  3  0  0  0  0  0  0
  -16.6950  -28.6540   23.0410 C   0  0  0  0  0  3  0  0  0  0  0  0
  -25.8410  -32.4710   23.8680 C   0  0  0  0  0  3  0  0  0  0  0  0
  -26.4340  -31.6680   25.1030 C   0  0  1  0  0  0  0  0  0  0  0  0
  -25.3770  -31.3700   26.1890 C   0  0  0  0  0  1  0  0  0  0  0  0
  -27.0520  -30.3050   24.7040 C   0  0  0  0  0  1  0  0  0  0  0  0
  -27.5940  -32.4590   25.7510 C   0  0  0  0  0  1  0  0  0  0  0  0
  -25.5490  -33.8620   24.2420 N   0  0  0  0  0  0  0  0  0  0  0  0
  -25.8910  -34.9410   23.5230 C   0  0  0  0  0  0  0  0  0  0  0  0
  -26.5560  -34.8790   22.4840 O   0  0  0  0  0  0  0  0  0  0  0  0
  -24.9620  -34.0000   25.0520 H   0  0  0  0  0  0  0  0  0  0  0  0
  -24.1470  -36.7410   23.2630 C   0  0  0  0  0  1  0  0  0  0  0  0
  -25.4070  -36.3150   24.0370 C   0  0  0  0  0  3  0  0  0  0  0  0
  -27.5580  -37.1820   24.8460 C   0  0  0  0  0  1  0  0  0  0  0  0
  -26.4300  -37.3790   23.9390 N   0  0  0  0  0  0  0  0  0  0  0  0
  -26.0250  -38.2920   24.1280 H   0  0  0  0  0  0  0  0  0  0  0  0
  2  1  2  0
  3 11  1  0
  3  1  1  0
  4 10  1  0
  8  4  1  0
  9  4  2  0
  9  2  1  0
 10  3  2  0
 11 13  1  0
 14 12  1  0
 16 19  1  0
 17 15  1  0
 18 22  1  0
 18 23  1  0
 19 20  1  0
 19 15  1  0
 21 11  1  0
 22 16  1  0
 23 21  1  0
 23 17  1  0
 24 22  1  0
 23 25  1  6
 26 34  1  0
 27 32  1  0
 28 29  1  0
 28 27  1  0
 30 29  1  0
 30 39  1  0
 30 31  1  0
 32 26  1  0
 32 31  1  0
 33 26  2  0
 35 34  1  0
 36 37  2  0
 37 56  1  0
 38 37  1  0
 38 41  1  0
 39 36  1  0
 39 40  1  0
 40 38  2  0
 41 42  1  0
 42 43  2  0
 44 47  1  0
 44 43  1  0
 45 44  2  0
 46 45  1  0
 46 41  2  0
 47 48  1  0
 48 49  1  0
 49 50  2  0
 51 50  1  0
 51 55  1  0
 52 51  2  0
 53 48  2  0
 53 52  1  0
 54 53  1  0
 56 57  1  0
 57 60  1  0
 57 59  1  0
 58 56  2  0
 61 36  1  0
 62 61  1  0
 63 61  1  0
 64 12  1  0
 65 64  1  0
 66 65  1  0
 67 78  2  0
 68 66  1  0
 68 73  1  0
 69 76  1  0
 69 77  1  0
 69 79  1  0
 70 72  1  0
 71 77  1  0
 72 76  1  0
 73 70  1  0
 74 68  1  0
 75 74  1  0
 75 70  1  0
 77 67  1  0
 79 81  2  0
 80 79  1  0
 82 80  1  0
 83 92  2  0
 83 88  1  0
 84 80  1  0
 84 88  1  0
 85 84  1  0
 86 87  1  0
 86 85  1  0
 87 83  1  0
 88 89  2  0
 89 90  1  0
 91 90  2  0
 92 91  1  0
 93 67  1  0
 93 98  1  0
 93 94  1  0
 94 97  1  1
 94 95  1  0
 96 94  1  0
 98101  1  0
 99103  1  0
 99 98  1  0
100 99  2  0
103102  1  0
105103  1  0
105106  1  0
105104  1  0
M  ISO  4  26 100  34 100  65 101  66 101
M  END
>  <TORSDO>  (92) 
F 19

>  <SCORE>  (92) 
19.537

>  <name>  (92) 
91

>  <ligand_id>  (92) 
91

>  <original_smiles>  (92) 
[H]c1c([H])c([H])c2c(c1[H])C([H])([H])C([H])([H])C([H])([H])C2([H])N([H])C(=O)C1([H])N(C(=O)C([H])(N([H])C(=O)C([H])(N([H])C([H])([H])[H])C([H])([H])[H])C(C([H])([H])[H])(C([H])([H])[H])C([H])([H])[H])C([H])([H])c2c([H])c(OC([H])([H])C([H])([H])[N+]3([H])C([H])([H])c4c(N([H])C5([H])C([H])(N([H])C(=O)N6C([H])([H])C([H])([H])C([H])([H])C([H])(n7nc(-c8c([H])c([H])c(Oc9c([H])c([H])c(F)c([H])c9F)c([H])c8[H])c(C(=O)N([H])[H])c7N([H])[H])C6([H])[H])C6([H])C([H])([H])N([H])C([H])([H])[N+]5([H])C([H])([H])C6([H])[H])nc(C([H])([H])[H])nc4C([H])([H])C3([H])[H])c([H])c([H])c2C1([H])[H]

>  <smiles>  (92) 
[H]c1c([H])c([H])c2c(c1[H])C([H])([H])C([H])([H])C([H])([H])C2([H])N([H])C(=O)C1([H])N(C(=O)C([H])(N([H])C(=O)C([H])(N([H])C([H])([H])[H])C([H])([H])[H])C(C([H])([H])[H])(C([H])([H])[H])C([H])([H])[H])C([H])([H])c2c([H])c(OC([H])([H])C([H])([H])[N+]3([H])C([H])([H])c4c(N([H])C5([H])C([H])(N([H])C(=O)N6C([H])([H])C([H])([H])C([H])([H])C([H])(n7nc(-c8c([H])c([H])c(Oc9c([H])c([H])c(F)c([H])c9F)c([H])c8[H])c(C(=O)N([H])[H])c7N([H])[H])C6([H])[H])C6([H])C([H])([H])N([H])C([H])([H])[N+]5([H])C([H])([H])C6([H])[H])nc(C([H])([H])[H])nc4C([H])([H])C3([H])[H])c([H])c([H])c2C1([H])[H]

$$$$
92:0:0
     RDKit          3D

 92101  0  0  1  0  0  0  0  0999 V2000
  -27.7460  -21.0160   19.8210 C   0  0  0  0  0  2  0  0  0  0  0  0
  -28.5840  -23.0270   19.6940 C   0  0  0  0  0  0  0  0  0  0  0  0
  -27.3960  -22.3320   19.8240 N   0  0  0  0  0  0  0  0  0  0  0  0
  -29.6110  -22.0570   19.6590 N   0  0  0  0  0  2  0  0  0  0  0  0
  -29.0540  -20.7050   19.7620 N   0  0  0  0  0  0  0  0  0  0  0  0
  -30.5930  -15.1680   19.4040 C   0  0  0  0  0  0  0  0  0  0  0  0
  -30.3480  -12.7820   18.4790 C   0  0  0  0  0  2  0  0  0  0  0  0
  -29.2400  -12.6620   17.4040 C   0  0  0  0  0  2  0  0  0  0  0  0
  -27.8680  -12.4170   18.0570 C   0  0  0  0  0  2  0  0  0  0  0  0
  -27.6270  -13.3450   19.2740 C   0  0  0  0  0  3  0  0  0  0  0  0
  -28.8430  -13.4130   20.2260 C   0  0  0  0  0  2  0  0  0  0  0  0
  -29.9800  -13.8930   19.4250 N   0  0  0  0  0  0  0  0  0  0  0  0
  -31.7190  -15.1700   18.8870 O   0  0  0  0  0  0  0  0  0  0  0  0
  -29.9110  -17.8790   18.9610 C   0  0  0  0  0  2  0  0  0  0  0  0
  -29.2750  -16.8520   20.9130 C   0  0  0  0  0  2  0  0  0  0  0  0
  -29.8080  -19.2420   19.9500 C   0  0  0  0  0  3  0  0  0  0  0  0
  -29.5350  -18.3910   21.2410 C   0  0  0  0  0  3  0  0  0  0  0  0
  -29.9030  -16.4410   19.6430 N   0  0  0  0  0  0  0  0  0  0  0  0
  -25.4500  -13.9060   20.4810 C   0  0  0  0  0  0  0  0  0  0  0  0
  -24.4270  -13.1300   20.9510 C   0  0  0  0  0  0  0  0  0  0  0  0
  -24.8080  -11.7760   20.6980 C   0  0  0  0  0  0  0  0  0  0  0  0
  -26.3890  -13.0270   19.9740 N   0  0  0  0  0  0  0  0  0  0  0  0
  -26.0260  -11.7310   20.1670 N   0  0  0  0  0  0  0  0  0  0  0  0
  -24.0580  -10.5250   20.8770 C   0  0  0  0  0  0  0  0  0  0  0  0
  -24.5480   -9.4760   21.6860 C   0  0  0  0  0  3  0  0  0  0  0  0
  -23.7970   -8.2930   21.8600 C   0  0  0  0  0  3  0  0  0  0  0  0
  -22.5400   -8.1510   21.2260 C   0  0  0  0  0  0  0  0  0  0  0  0
  -22.0670   -9.1870   20.4030 C   0  0  0  0  0  3  0  0  0  0  0  0
  -22.8180  -10.3610   20.2260 C   0  0  0  0  0  3  0  0  0  0  0  0
  -21.7530   -7.0280   21.3170 O   0  0  0  0  0  0  0  0  0  0  0  0
  -21.7390   -6.2490   22.4450 C   0  0  0  0  0  0  0  0  0  0  0  0
  -21.4030   -6.7760   23.7120 C   0  0  0  0  0  3  0  0  0  0  0  0
  -21.3320   -5.9250   24.8330 C   0  0  0  0  0  3  0  0  0  0  0  0
  -21.5900   -4.5480   24.6900 C   0  0  0  0  0  0  0  0  0  0  0  0
  -21.9190   -4.0210   23.4290 C   0  0  0  0  0  3  0  0  0  0  0  0
  -21.9910   -4.8690   22.3090 C   0  0  0  0  0  0  0  0  0  0  0  0
  -22.2890   -4.3510   21.0930 F   0  0  0  0  0  0  0  0  0  0  0  0
  -21.5150   -3.7290   25.7650 F   0  0  0  0  0  0  0  0  0  0  0  0
  -23.1240  -13.6200   21.5090 C   0  0  0  0  0  0  0  0  0  0  0  0
  -22.5270  -12.8660   22.4260 N   0  0  0  0  0  0  0  0  0  0  0  0
  -22.6500  -14.7030   21.1680 O   0  0  0  0  0  0  0  0  0  0  0  0
  -22.9220  -11.9840   22.7160 H   0  0  0  0  0  0  0  0  0  0  0  0
  -21.6580  -13.1740   22.8380 H   0  0  0  0  0  0  0  0  0  0  0  0
  -25.6510  -15.2810   20.4080 N   0  0  0  0  0  0  0  0  0  0  0  0
  -24.9130  -15.9400   20.6360 H   0  0  0  0  0  0  0  0  0  0  0  0
  -26.4100  -15.6990   19.8860 H   0  0  0  0  0  0  0  0  0  0  0  0
  -28.5530  -18.9440   22.1930 N   0  0  0  0  0  4  0  0  0  0  0  0
  -28.8160  -19.8700   22.4830 H   0  0  0  0  0  0  0  0  0  0  0  0
  -28.5210  -18.3690   23.0160 H   0  0  0  0  0  0  0  0  0  0  0  0
  -27.6270  -18.9690   21.8070 H   0  0  0  0  0  0  0  0  0  0  0  0
  -28.5490  -24.6510   19.1690 C   0  0  0  0  0  2  0  0  0  0  0  0
  -28.3110  -26.0090   19.9850 O   0  0  0  0  0  0  0  0  0  0  0  0
  -24.5600  -31.6740   23.0320 C   0  0  0  0  0  0  0  0  0  0  0  0
  -27.2600  -27.0300   19.8560 C   0  0  0  0  0  0  0  0  0  0  0  0
  -23.3940  -30.2780   21.3680 C   0  0  0  0  0  3  0  0  0  0  0  0
  -24.8830  -28.7700   19.8860 C   0  0  0  0  0  0  0  0  0  0  0  0
  -25.9420  -30.5990   21.2010 C   0  0  0  0  0  2  0  0  0  0  0  0
  -26.0530  -29.2160   20.5090 C   0  0  0  0  0  0  0  0  0  0  0  0
  -27.2300  -28.3580   20.4850 C   0  0  0  0  0  3  0  0  0  0  0  0
  -26.0620  -26.7190   19.1790 C   0  0  0  0  0  3  0  0  0  0  0  0
  -24.9050  -27.5420   19.2020 C   0  0  0  0  0  3  0  0  0  0  0  0
  -23.6280  -29.6340   19.9710 C   0  0  0  0  0  2  0  0  0  0  0  0
  -24.6530  -30.8770   21.9200 N   0  0  0  0  0  0  0  0  0  0  0  0
  -23.4690  -31.9120   23.5730 O   0  0  0  0  0  0  0  0  0  0  0  0
  -22.7500  -29.2350   22.3170 C   0  0  0  0  0  0  0  0  0  0  0  0
  -21.4250  -29.0330   22.2060 N   0  0  0  0  0  0  0  0  0  0  0  0
  -23.4480  -28.6110   23.1200 O   0  0  0  0  0  0  0  0  0  0  0  0
  -20.9170  -29.5960   21.5390 H   0  0  0  0  0  0  0  0  0  0  0  0
  -18.0880  -27.6980   22.7100 C   0  0  0  0  0  0  0  0  0  0  0  0
  -20.6390  -28.0500   22.9590 C   0  0  0  0  0  3  0  0  0  0  0  0
  -20.7840  -26.6360   22.3500 C   0  0  0  0  0  2  0  0  0  0  0  0
  -19.6820  -26.2940   21.3420 C   0  0  0  0  0  2  0  0  0  0  0  0
  -18.3060  -26.3690   22.0060 C   0  0  0  0  0  2  0  0  0  0  0  0
  -19.1820  -28.4930   23.1450 C   0  0  0  0  0  0  0  0  0  0  0  0
  -18.9210  -29.7320   23.7680 C   0  0  0  0  0  3  0  0  0  0  0  0
  -17.5990  -30.1790   23.9590 C   0  0  0  0  0  3  0  0  0  0  0  0
  -16.5210  -29.3830   23.5370 C   0  0  0  0  0  3  0  0  0  0  0  0
  -16.7650  -28.1430   22.9180 C   0  0  0  0  0  3  0  0  0  0  0  0
  -25.8180  -32.3370   23.6690 C   0  0  0  0  0  3  0  0  0  0  0  0
  -26.3670  -31.5540   24.9260 C   0  0  1  0  0  0  0  0  0  0  0  0
  -25.2890  -31.2620   25.9970 C   0  0  0  0  0  1  0  0  0  0  0  0
  -26.9870  -30.2020   24.5060 C   0  0  0  0  0  1  0  0  0  0  0  0
  -27.4970  -32.3690   25.5960 C   0  0  0  0  0  1  0  0  0  0  0  0
  -25.4580  -33.7160   24.0450 N   0  0  0  0  0  0  0  0  0  0  0  0
  -25.7410  -34.8070   23.3210 C   0  0  0  0  0  0  0  0  0  0  0  0
  -26.3960  -34.7610   22.2760 O   0  0  0  0  0  0  0  0  0  0  0  0
  -24.8650  -33.8210   24.8560 H   0  0  0  0  0  0  0  0  0  0  0  0
  -23.9420  -36.5540   23.0710 C   0  0  0  0  0  1  0  0  0  0  0  0
  -25.2180  -36.1640   23.8360 C   0  0  0  0  0  3  0  0  0  0  0  0
  -27.3410  -37.1040   24.6400 C   0  0  0  0  0  1  0  0  0  0  0  0
  -26.2100  -37.2560   23.7290 N   0  0  0  0  0  0  0  0  0  0  0  0
  -25.7750  -38.1570   23.9110 H   0  0  0  0  0  0  0  0  0  0  0  0
  1  3  1  0
  2  3  2  0
  4  2  1  0
  4  5  1  0
  5  1  1  0
  5 16  1  0
  6 12  1  0
  6 18  1  0
  7 12  1  0
  8  9  1  0
  8  7  1  0
 10  9  1  0
 10 22  1  0
 10 11  1  0
 12 11  1  0
 13  6  2  0
 14 18  1  0
 15 17  1  0
 16 14  1  0
 16 17  1  0
 17 47  1  0
 18 15  1  0
 19 20  2  0
 20 39  1  0
 21 24  1  0
 21 20  1  0
 22 23  1  0
 22 19  1  0
 23 21  2  0
 24 25  1  0
 25 26  2  0
 27 30  1  0
 27 26  1  0
 28 27  2  0
 29 28  1  0
 29 24  2  0
 30 31  1  0
 31 32  1  0
 32 33  2  0
 34 33  1  0
 34 38  1  0
 35 34  2  0
 36 31  2  0
 36 35  1  0
 37 36  1  0
 39 40  1  0
 40 42  1  0
 40 43  1  0
 41 39  2  0
 44 19  1  0
 44 45  1  0
 46 44  1  0
 47 48  1  0
 47 49  1  0
 50 47  1  0
 51  2  1  0
 51 52  1  0
 53 64  2  0
 54 52  1  0
 54 59  1  0
 55 63  1  0
 55 65  1  0
 56 62  1  0
 56 58  1  0
 57 63  1  0
 58 57  1  0
 59 58  2  0
 60 61  1  0
 60 54  2  0
 61 56  2  0
 62 55  1  0
 63 53  1  0
 65 67  2  0
 66 65  1  0
 68 66  1  0
 69 78  2  0
 69 74  1  0
 70 66  1  0
 70 74  1  0
 71 70  1  0
 72 73  1  0
 72 71  1  0
 73 69  1  0
 74 75  2  0
 75 76  1  0
 77 76  2  0
 78 77  1  0
 79 53  1  0
 79 84  1  0
 79 80  1  0
 80 83  1  1
 80 81  1  0
 82 80  1  0
 84 87  1  0
 85 89  1  0
 85 84  1  0
 86 85  2  0
 89 88  1  0
 91 89  1  0
 91 92  1  0
 91 90  1  0
M  ISO  4   6 100  18 100  51 101  52 101
M  END
>  <TORSDO>  (93) 
F 18

>  <SCORE>  (93) 
-11.046

>  <name>  (93) 
92

>  <ligand_id>  (93) 
92

>  <original_smiles>  (93) 
[H]c1c([H])c([H])c2c(c1[H])C([H])([H])C([H])([H])C([H])([H])C2([H])N([H])C(=O)C1([H])N(C(=O)C([H])(N([H])C(=O)C([H])(N([H])C([H])([H])[H])C([H])([H])[H])C(C([H])([H])[H])(C([H])([H])[H])C([H])([H])[H])C([H])([H])c2c([H])c(OC([H])([H])c3nc([H])n(C4([H])C([H])([H])N(C(=O)N5C([H])([H])C([H])([H])C([H])([H])C([H])(n6nc(-c7c([H])c([H])c(Oc8c([H])c([H])c(F)c([H])c8F)c([H])c7[H])c(C(=O)N([H])[H])c6N([H])[H])C5([H])[H])C([H])([H])C4([H])[N+]([H])([H])[H])n3)c([H])c([H])c2C1([H])[H]

>  <smiles>  (93) 
[H]c1c([H])c([H])c2c(c1[H])C([H])([H])C([H])([H])C([H])([H])C2([H])N([H])C(=O)C1([H])N(C(=O)C([H])(N([H])C(=O)C([H])(N([H])C([H])([H])[H])C([H])([H])[H])C(C([H])([H])[H])(C([H])([H])[H])C([H])([H])[H])C([H])([H])c2c([H])c(OC([H])([H])c3nc([H])n(C4([H])C([H])([H])N(C(=O)N5C([H])([H])C([H])([H])C([H])([H])C([H])(n6nc(-c7c([H])c([H])c(Oc8c([H])c([H])c(F)c([H])c8F)c([H])c7[H])c(C(=O)N([H])[H])c6N([H])[H])C5([H])[H])C([H])([H])C4([H])[N+]([H])([H])[H])n3)c([H])c([H])c2C1([H])[H]

$$$$
93:0:0
     RDKit          3D

 91100  0  0  1  0  0  0  0  0999 V2000
  -29.3950  -20.9320   22.3250 C   0  0  0  0  0  3  0  0  0  0  0  0
  -29.2660  -23.0650   22.3170 C   0  0  0  0  0  3  0  0  0  0  0  0
  -29.5690  -21.3140   21.0080 C   0  0  0  0  0  0  0  0  0  0  0  0
  -29.2280  -22.0340   23.1460 N   0  0  0  0  0  0  0  0  0  0  0  0
  -29.4000  -22.7780   21.0050 N   0  0  0  0  0  0  0  0  0  0  0  0
  -29.8920  -20.3630   19.9600 N   0  0  0  0  0  0  0  0  0  0  0  0
  -30.1120  -20.7100   19.0290 H   0  0  0  0  0  0  0  0  0  0  0  0
  -29.5460  -18.8680   20.0120 C   0  0  0  0  0  2  0  0  0  0  0  0
  -30.9280  -15.0520   19.9660 C   0  0  0  0  0  0  0  0  0  0  0  0
  -30.6650  -12.7560   18.9620 C   0  0  0  0  0  2  0  0  0  0  0  0
  -29.6860  -12.7810   17.7690 C   0  0  0  0  0  2  0  0  0  0  0  0
  -28.2280  -12.6270   18.2430 C   0  0  0  0  0  2  0  0  0  0  0  0
  -27.9040  -13.5330   19.4630 C   0  0  0  0  0  3  0  0  0  0  0  0
  -28.9990  -13.4650   20.5480 C   0  0  0  0  0  2  0  0  0  0  0  0
  -30.2670  -13.8360   19.9050 N   0  0  0  0  0  0  0  0  0  0  0  0
  -32.0600  -15.1350   19.4800 O   0  0  0  0  0  0  0  0  0  0  0  0
  -31.1470  -17.5280   21.7150 C   0  0  0  0  0  2  0  0  0  0  0  0
  -30.0550  -16.4620   21.8180 C   0  0  0  0  0  2  0  0  0  0  0  0
  -30.6750  -17.7170   20.2810 C   0  0  0  0  0  3  0  0  0  0  0  0
  -30.2530  -16.2200   20.3790 N   0  0  0  0  0  0  0  0  0  0  0  0
  -25.5650  -14.1530   20.3090 C   0  0  0  0  0  0  0  0  0  0  0  0
  -24.5000  -13.3940   20.7080 C   0  0  0  0  0  0  0  0  0  0  0  0
  -24.9280  -12.0330   20.6250 C   0  0  0  0  0  0  0  0  0  0  0  0
  -26.5770  -13.2580   20.0060 N   0  0  0  0  0  0  0  0  0  0  0  0
  -26.2060  -11.9740   20.2600 N   0  0  0  0  0  0  0  0  0  0  0  0
  -24.1810  -10.7830   20.8240 C   0  0  0  0  0  0  0  0  0  0  0  0
  -24.5490   -9.8550   21.8240 C   0  0  0  0  0  3  0  0  0  0  0  0
  -23.8020   -8.6710   22.0060 C   0  0  0  0  0  3  0  0  0  0  0  0
  -22.6750   -8.4100   21.1890 C   0  0  0  0  0  0  0  0  0  0  0  0
  -22.3320   -9.3260   20.1800 C   0  0  0  0  0  3  0  0  0  0  0  0
  -23.0780  -10.5000   19.9960 C   0  0  0  0  0  3  0  0  0  0  0  0
  -21.9080   -7.2710   21.2790 O   0  0  0  0  0  0  0  0  0  0  0  0
  -21.6660   -6.6590   22.4830 C   0  0  0  0  0  0  0  0  0  0  0  0
  -21.0240   -7.3290   23.5470 C   0  0  0  0  0  3  0  0  0  0  0  0
  -20.7310   -6.6380   24.7400 C   0  0  0  0  0  3  0  0  0  0  0  0
  -21.0700   -5.2770   24.8680 C   0  0  0  0  0  0  0  0  0  0  0  0
  -21.7020   -4.6060   23.8060 C   0  0  0  0  0  3  0  0  0  0  0  0
  -21.9950   -5.2940   22.6150 C   0  0  0  0  0  0  0  0  0  0  0  0
  -22.5860   -4.6360   21.5880 F   0  0  0  0  0  0  0  0  0  0  0  0
  -20.7830   -4.6120   26.0110 F   0  0  0  0  0  0  0  0  0  0  0  0
  -23.1280  -13.8950   21.0530 C   0  0  0  0  0  0  0  0  0  0  0  0
  -22.4360  -13.2170   21.9610 N   0  0  0  0  0  0  0  0  0  0  0  0
  -22.6810  -14.9250   20.5490 O   0  0  0  0  0  0  0  0  0  0  0  0
  -22.8140  -12.3900   22.4000 H   0  0  0  0  0  0  0  0  0  0  0  0
  -21.5140  -13.5360   22.2220 H   0  0  0  0  0  0  0  0  0  0  0  0
  -25.7540  -15.5220   20.1560 N   0  0  0  0  0  0  0  0  0  0  0  0
  -25.0190  -16.1960   20.3430 H   0  0  0  0  0  0  0  0  0  0  0  0
  -26.6060  -15.9530   19.8190 H   0  0  0  0  0  0  0  0  0  0  0  0
  -29.4380  -23.9480   20.0130 C   0  0  0  0  0  2  0  0  0  0  0  0
  -28.3310  -25.1490   20.1740 C   0  0  0  0  0  2  0  0  0  0  0  0
  -28.5150  -26.5810   19.7250 O   0  0  0  0  0  0  0  0  0  0  0  0
  -24.6700  -31.7490   23.0980 C   0  0  0  0  0  0  0  0  0  0  0  0
  -27.3880  -27.4380   19.7490 C   0  0  0  0  0  0  0  0  0  0  0  0
  -23.4810  -30.3880   21.4110 C   0  0  0  0  0  3  0  0  0  0  0  0
  -24.9610  -28.9810   19.8620 C   0  0  0  0  0  0  0  0  0  0  0  0
  -26.0010  -30.8190   21.1820 C   0  0  0  0  0  2  0  0  0  0  0  0
  -26.1250  -29.4770   20.4650 C   0  0  0  0  0  0  0  0  0  0  0  0
  -27.3390  -28.7190   20.3980 C   0  0  0  0  0  3  0  0  0  0  0  0
  -26.2030  -27.0260   19.0970 C   0  0  0  0  0  3  0  0  0  0  0  0
  -25.0050  -27.7650   19.1620 C   0  0  0  0  0  3  0  0  0  0  0  0
  -23.6900  -29.7930   19.9930 C   0  0  0  0  0  2  0  0  0  0  0  0
  -24.7370  -31.0030   21.9540 N   0  0  0  0  0  0  0  0  0  0  0  0
  -23.5900  -31.9470   23.6770 O   0  0  0  0  0  0  0  0  0  0  0  0
  -22.8840  -29.2970   22.3320 C   0  0  0  0  0  0  0  0  0  0  0  0
  -21.5680  -29.0520   22.2110 N   0  0  0  0  0  0  0  0  0  0  0  0
  -23.6040  -28.6730   23.1150 O   0  0  0  0  0  0  0  0  0  0  0  0
  -21.0400  -29.6160   21.5610 H   0  0  0  0  0  0  0  0  0  0  0  0
  -18.2740  -27.6210   22.6700 C   0  0  0  0  0  0  0  0  0  0  0  0
  -20.8130  -28.0320   22.9420 C   0  0  0  0  0  3  0  0  0  0  0  0
  -21.0000  -26.6340   22.3070 C   0  0  0  0  0  2  0  0  0  0  0  0
  -19.9150  -26.2830   21.2840 C   0  0  0  0  0  2  0  0  0  0  0  0
  -18.5310  -26.3150   21.9360 C   0  0  0  0  0  2  0  0  0  0  0  0
  -19.3440  -28.4340   23.1270 C   0  0  0  0  0  0  0  0  0  0  0  0
  -19.0490  -29.6560   23.7730 C   0  0  0  0  0  3  0  0  0  0  0  0
  -17.7150  -30.0650   23.9640 C   0  0  0  0  0  3  0  0  0  0  0  0
  -16.6600  -29.2500   23.5220 C   0  0  0  0  0  3  0  0  0  0  0  0
  -16.9390  -28.0270   22.8840 C   0  0  0  0  0  3  0  0  0  0  0  0
  -25.9400  -32.4010   23.7250 C   0  0  0  0  0  3  0  0  0  0  0  0
  -26.4850  -31.6170   24.9830 C   0  0  1  0  0  0  0  0  0  0  0  0
  -25.4030  -31.3100   26.0450 C   0  0  0  0  0  1  0  0  0  0  0  0
  -27.1180  -30.2740   24.5540 C   0  0  0  0  0  1  0  0  0  0  0  0
  -27.6100  -32.4320   25.6600 C   0  0  0  0  0  1  0  0  0  0  0  0
  -25.6020  -33.7850   24.0870 N   0  0  0  0  0  0  0  0  0  0  0  0
  -25.9140  -34.8620   23.3520 C   0  0  0  0  0  0  0  0  0  0  0  0
  -26.5800  -34.7910   22.3150 O   0  0  0  0  0  0  0  0  0  0  0  0
  -25.0160  -33.9120   24.8980 H   0  0  0  0  0  0  0  0  0  0  0  0
  -24.1600  -36.6360   23.0270 C   0  0  0  0  0  1  0  0  0  0  0  0
  -25.4020  -36.2320   23.8380 C   0  0  0  0  0  3  0  0  0  0  0  0
  -27.5140  -37.1320   24.7080 C   0  0  0  0  0  1  0  0  0  0  0  0
  -26.4190  -37.3020   23.7570 N   0  0  0  0  0  0  0  0  0  0  0  0
  -25.9990  -38.2140   23.9180 H   0  0  0  0  0  0  0  0  0  0  0  0
  1  4  1  0
  2  4  2  0
  3  1  2  0
  5  3  1  0
  5  2  1  0
  6  8  1  0
  6  3  1  0
  7  6  1  0
  9 20  1  0
 10 15  1  0
 11 12  1  0
 11 10  1  0
 13 12  1  0
 13 24  1  0
 13 14  1  0
 15  9  1  0
 15 14  1  0
 16  9  2  0
 17 18  1  0
 19  8  1  0
 19 20  1  0
 19 17  1  0
 20 18  1  0
 21 22  2  0
 22 41  1  0
 23 22  1  0
 23 26  1  0
 24 25  1  0
 24 21  1  0
 25 23  2  0
 26 27  1  0
 27 28  2  0
 29 32  1  0
 29 28  1  0
 30 29  2  0
 31 30  1  0
 31 26  2  0
 32 33  1  0
 33 38  2  0
 33 34  1  0
 34 35  2  0
 35 36  1  0
 36 40  1  0
 37 36  2  0
 38 37  1  0
 39 38  1  0
 41 42  1  0
 42 45  1  0
 42 44  1  0
 43 41  2  0
 46 21  1  0
 46 47  1  0
 48 46  1  0
 49 50  1  0
 49  5  1  0
 51 53  1  0
 51 50  1  0
 52 63  2  0
 53 58  1  0
 54 62  1  0
 54 64  1  0
 55 61  1  0
 55 57  1  0
 56 62  1  0
 57 56  1  0
 58 57  2  0
 59 60  1  0
 59 53  2  0
 60 55  2  0
 61 54  1  0
 62 52  1  0
 64 66  2  0
 65 64  1  0
 67 65  1  0
 68 77  2  0
 68 73  1  0
 69 65  1  0
 69 73  1  0
 70 69  1  0
 71 72  1  0
 71 70  1  0
 72 68  1  0
 73 74  2  0
 74 75  1  0
 76 75  2  0
 77 76  1  0
 78 52  1  0
 78 83  1  0
 78 79  1  0
 79 82  1  1
 79 80  1  0
 81 79  1  0
 83 86  1  0
 84 88  1  0
 84 83  1  0
 85 84  2  0
 88 87  1  0
 90 88  1  0
 90 91  1  0
 90 89  1  0
M  ISO  4   9 100  20 100  50 101  51 101
M  END
>  <TORSDO>  (94) 
F 20

>  <SCORE>  (94) 
-12.569

>  <name>  (94) 
93

>  <ligand_id>  (94) 
93

>  <original_smiles>  (94) 
[H]c1nc([H])n(C([H])([H])C([H])([H])Oc2c([H])c([H])c3c(c2[H])C([H])([H])N(C(=O)C([H])(N([H])C(=O)C([H])(N([H])C([H])([H])[H])C([H])([H])[H])C(C([H])([H])[H])(C([H])([H])[H])C([H])([H])[H])C([H])(C(=O)N([H])C2([H])c4c([H])c([H])c([H])c([H])c4C([H])([H])C([H])([H])C2([H])[H])C3([H])[H])c1N([H])C([H])([H])C1([H])N(C(=O)N2C([H])([H])C([H])([H])C([H])([H])C([H])(n3nc(-c4c([H])c([H])c(Oc5c([H])c([H])c(F)c([H])c5F)c([H])c4[H])c(C(=O)N([H])[H])c3N([H])[H])C2([H])[H])C([H])([H])C1([H])[H]

>  <smiles>  (94) 
[H]c1nc([H])n(C([H])([H])C([H])([H])Oc2c([H])c([H])c3c(c2[H])C([H])([H])N(C(=O)C([H])(N([H])C(=O)C([H])(N([H])C([H])([H])[H])C([H])([H])[H])C(C([H])([H])[H])(C([H])([H])[H])C([H])([H])[H])C([H])(C(=O)N([H])C2([H])c4c([H])c([H])c([H])c([H])c4C([H])([H])C([H])([H])C2([H])[H])C3([H])[H])c1N([H])C([H])([H])C1([H])N(C(=O)N2C([H])([H])C([H])([H])C([H])([H])C([H])(n3nc(-c4c([H])c([H])c(Oc5c([H])c([H])c(F)c([H])c5F)c([H])c4[H])c(C(=O)N([H])[H])c3N([H])[H])C2([H])[H])C([H])([H])C1([H])[H]

$$$$
94:0:0
     RDKit          3D

 92101  0  0  1  0  0  0  0  0999 V2000
  -29.6740  -21.1640   22.0820 C   0  0  0  0  0  1  0  0  0  0  0  0
  -29.4380  -21.1440   20.5640 C   0  0  0  0  0  3  0  0  0  0  0  0
  -30.6120  -14.8070   20.3310 C   0  0  0  0  0  0  0  0  0  0  0  0
  -30.3910  -12.5250   19.3530 C   0  0  0  0  0  2  0  0  0  0  0  0
  -29.4420  -12.5870   18.1370 C   0  0  0  0  0  2  0  0  0  0  0  0
  -27.9760  -12.4210   18.5830 C   0  0  0  0  0  2  0  0  0  0  0  0
  -27.6080  -13.3120   19.8000 C   0  0  0  0  0  3  0  0  0  0  0  0
  -28.6830  -13.2540   20.9070 C   0  0  0  0  0  2  0  0  0  0  0  0
  -29.9690  -13.5910   20.2850 N   0  0  0  0  0  0  0  0  0  0  0  0
  -31.8210  -14.8780   20.0980 O   0  0  0  0  0  0  0  0  0  0  0  0
  -30.0770  -17.2360   21.1100 C   0  0  0  0  0  2  0  0  0  0  0  0
  -29.4100  -16.5140   19.0220 C   0  0  0  0  0  2  0  0  0  0  0  0
  -28.9140  -18.2390   20.7470 C   0  0  0  0  0  3  0  0  0  0  0  0
  -28.6350  -17.8070   19.3260 C   0  0  0  0  0  3  0  0  0  0  0  0
  -28.8020  -19.7260   20.1340 C   0  0  0  0  0  3  0  0  0  0  0  0
  -28.6720  -19.5970   17.6900 C   0  0  0  0  0  1  0  0  0  0  0  0
  -29.8350  -15.9600   20.3290 N   0  0  0  0  0  0  0  0  0  0  0  0
  -29.2750  -19.0740   18.9110 N   0  0  0  0  0  0  0  0  0  0  0  0
  -25.2330  -13.9040   20.5610 C   0  0  0  0  0  0  0  0  0  0  0  0
  -24.1680  -13.1290   20.9320 C   0  0  0  0  0  0  0  0  0  0  0  0
  -24.6290  -11.7770   20.8870 C   0  0  0  0  0  0  0  0  0  0  0  0
  -26.2720  -13.0230   20.3080 N   0  0  0  0  0  0  0  0  0  0  0  0
  -25.9180  -11.7390   20.5680 N   0  0  0  0  0  0  0  0  0  0  0  0
  -23.9030  -10.5150   21.0720 C   0  0  0  0  0  0  0  0  0  0  0  0
  -24.3340   -9.5460   22.0050 C   0  0  0  0  0  3  0  0  0  0  0  0
  -23.6080   -8.3480   22.1780 C   0  0  0  0  0  3  0  0  0  0  0  0
  -22.4370   -8.1110   21.4200 C   0  0  0  0  0  0  0  0  0  0  0  0
  -22.0250   -9.0690   20.4770 C   0  0  0  0  0  3  0  0  0  0  0  0
  -22.7530  -10.2590   20.2990 C   0  0  0  0  0  3  0  0  0  0  0  0
  -21.6830   -6.9660   21.5040 O   0  0  0  0  0  0  0  0  0  0  0  0
  -21.6150   -6.2330   22.6610 C   0  0  0  0  0  0  0  0  0  0  0  0
  -21.1320   -6.7870   23.8670 C   0  0  0  0  0  3  0  0  0  0  0  0
  -21.0120   -5.9790   25.0140 C   0  0  0  0  0  3  0  0  0  0  0  0
  -21.3640   -4.6170   24.9580 C   0  0  0  0  0  0  0  0  0  0  0  0
  -21.8400   -4.0620   23.7570 C   0  0  0  0  0  3  0  0  0  0  0  0
  -21.9610   -4.8680   22.6100 C   0  0  0  0  0  0  0  0  0  0  0  0
  -22.3990   -4.3230   21.4500 F   0  0  0  0  0  0  0  0  0  0  0  0
  -21.2430   -3.8370   26.0580 F   0  0  0  0  0  0  0  0  0  0  0  0
  -22.7740  -13.6070   21.2170 C   0  0  0  0  0  0  0  0  0  0  0  0
  -22.0480  -12.9010   22.0770 N   0  0  0  0  0  0  0  0  0  0  0  0
  -22.3360  -14.6400   20.7110 O   0  0  0  0  0  0  0  0  0  0  0  0
  -22.4170  -12.0670   22.5090 H   0  0  0  0  0  0  0  0  0  0  0  0
  -21.1120  -13.2010   22.3080 H   0  0  0  0  0  0  0  0  0  0  0  0
  -25.3990  -15.2750   20.3950 N   0  0  0  0  0  0  0  0  0  0  0  0
  -24.6400  -15.9340   20.5290 H   0  0  0  0  0  0  0  0  0  0  0  0
  -26.2630  -15.7170   20.1060 H   0  0  0  0  0  0  0  0  0  0  0  0
  -28.6170  -22.3730   20.1260 N   0  0  0  0  0  4  0  0  0  0  0  0
  -28.5340  -22.3130   19.1230 H   0  0  0  0  0  0  0  0  0  0  0  0
  -27.6860  -22.2440   20.4910 H   0  0  0  0  0  0  0  0  0  0  0  0
  -29.0430  -23.8200   20.4530 C   0  0  0  0  0  3  0  0  0  0  0  0
  -28.0330  -24.9970   20.0000 C   0  0  0  0  0  3  0  0  0  0  0  0
  -28.2780  -26.4570   20.2610 O   0  0  0  0  0  0  0  0  0  0  0  0
  -24.5920  -31.9420   23.2540 C   0  0  0  0  0  0  0  0  0  0  0  0
  -27.1810  -27.3470   20.1910 C   0  0  0  0  0  0  0  0  0  0  0  0
  -23.3830  -30.5440   21.6200 C   0  0  0  0  0  3  0  0  0  0  0  0
  -24.8260  -28.9940   20.1850 C   0  0  0  0  0  0  0  0  0  0  0  0
  -25.9250  -30.8500   21.4320 C   0  0  0  0  0  2  0  0  0  0  0  0
  -26.0000  -29.4700   20.7810 C   0  0  0  0  0  0  0  0  0  0  0  0
  -27.1800  -28.6600   20.7740 C   0  0  0  0  0  3  0  0  0  0  0  0
  -25.9820  -26.9450   19.5550 C   0  0  0  0  0  3  0  0  0  0  0  0
  -24.8210  -27.7400   19.5610 C   0  0  0  0  0  3  0  0  0  0  0  0
  -23.5910  -29.8720   20.2380 C   0  0  0  0  0  2  0  0  0  0  0  0
  -24.6530  -31.1300   22.1570 N   0  0  0  0  0  0  0  0  0  0  0  0
  -23.5110  -32.2220   23.7910 O   0  0  0  0  0  0  0  0  0  0  0  0
  -22.7220  -29.5290   22.5830 C   0  0  0  0  0  0  0  0  0  0  0  0
  -21.3970  -29.3440   22.4530 N   0  0  0  0  0  0  0  0  0  0  0  0
  -23.4010  -28.9090   23.4050 O   0  0  0  0  0  0  0  0  0  0  0  0
  -20.9070  -29.8960   21.7630 H   0  0  0  0  0  0  0  0  0  0  0  0
  -18.0200  -28.1440   22.9620 C   0  0  0  0  0  0  0  0  0  0  0  0
  -20.5800  -28.4070   23.2270 C   0  0  0  0  0  3  0  0  0  0  0  0
  -20.6820  -26.9740   22.6550 C   0  0  0  0  0  2  0  0  0  0  0  0
  -19.5790  -26.6480   21.6430 C   0  0  0  0  0  2  0  0  0  0  0  0
  -18.1980  -26.7930   22.2890 C   0  0  0  0  0  2  0  0  0  0  0  0
  -19.1390  -28.9080   23.3890 C   0  0  0  0  0  0  0  0  0  0  0  0
  -18.9200  -30.1710   23.9790 C   0  0  0  0  0  3  0  0  0  0  0  0
  -17.6130  -30.6710   24.1470 C   0  0  0  0  0  3  0  0  0  0  0  0
  -16.5100  -29.9030   23.7360 C   0  0  0  0  0  3  0  0  0  0  0  0
  -16.7140  -28.6410   23.1500 C   0  0  0  0  0  3  0  0  0  0  0  0
  -25.8770  -32.5740   23.8700 C   0  0  0  0  0  3  0  0  0  0  0  0
  -26.3920  -31.8090   25.1510 C   0  0  1  0  0  0  0  0  0  0  0  0
  -25.2970  -31.5740   26.2180 C   0  0  0  0  0  1  0  0  0  0  0  0
  -26.9790  -30.4310   24.7670 C   0  0  0  0  0  1  0  0  0  0  0  0
  -27.5400  -32.6080   25.8110 C   0  0  0  0  0  1  0  0  0  0  0  0
  -25.5710  -33.9750   24.1950 N   0  0  0  0  0  0  0  0  0  0  0  0
  -25.9000  -35.0240   23.4290 C   0  0  0  0  0  0  0  0  0  0  0  0
  -26.5620  -34.9160   22.3940 O   0  0  0  0  0  0  0  0  0  0  0  0
  -24.9820  -34.1350   24.9990 H   0  0  0  0  0  0  0  0  0  0  0  0
  -24.1790  -36.8250   23.0700 C   0  0  0  0  0  1  0  0  0  0  0  0
  -25.4180  -36.4170   23.8840 C   0  0  0  0  0  3  0  0  0  0  0  0
  -27.5500  -37.2990   24.7220 C   0  0  0  0  0  1  0  0  0  0  0  0
  -26.4540  -37.4650   23.7700 N   0  0  0  0  0  0  0  0  0  0  0  0
  -26.0510  -38.3880   23.9060 H   0  0  0  0  0  0  0  0  0  0  0  0
  2  1  1  0
  4  9  1  0
  5  6  1  0
  5  4  1  0
  7  6  1  0
  7 22  1  0
  7  8  1  0
  9  3  1  0
  9  8  1  0
 10  3  2  0
 12 17  1  0
 13 11  1  0
 14 12  1  0
 14 13  1  0
 15  2  1  0
 15 13  1  0
 16 18  1  0
 17  3  1  0
 17 11  1  0
 18 14  1  0
 18 15  1  0
 19 20  2  0
 20 39  1  0
 21 20  1  0
 21 24  1  0
 22 19  1  0
 22 23  1  0
 23 21  2  0
 24 25  1  0
 25 26  2  0
 27 30  1  0
 27 26  1  0
 28 27  2  0
 29 28  1  0
 29 24  2  0
 30 31  1  0
 31 32  1  0
 32 33  2  0
 34 33  1  0
 34 38  1  0
 35 34  2  0
 36 31  2  0
 36 35  1  0
 37 36  1  0
 39 40  1  0
 40 43  1  0
 40 42  1  0
 41 39  2  0
 44 45  1  0
 44 19  1  0
 46 44  1  0
 47 50  1  0
 47 49  1  0
 47  2  1  0
 48 47  1  0
 51 52  1  0
 51 50  2  0
 53 64  2  0
 54 52  1  0
 54 59  1  0
 55 63  1  0
 55 65  1  0
 56 62  1  0
 56 58  1  0
 57 63  1  0
 58 57  1  0
 59 58  2  0
 60 61  1  0
 60 54  2  0
 61 56  2  0
 62 55  1  0
 63 53  1  0
 65 67  2  0
 66 65  1  0
 68 66  1  0
 69 78  2  0
 69 74  1  0
 70 66  1  0
 70 74  1  0
 71 70  1  0
 72 73  1  0
 72 71  1  0
 73 69  1  0
 74 75  2  0
 75 76  1  0
 77 76  2  0
 78 77  1  0
 79 53  1  0
 79 84  1  0
 79 80  1  0
 80 83  1  1
 80 81  1  0
 82 80  1  0
 84 87  1  0
 85 89  1  0
 85 84  1  0
 86 85  2  0
 89 88  1  0
 91 89  1  0
 91 92  1  0
 91 90  1  0
M  ISO  4   3 100  17 100  51 101  52 101
M  END
>  <TORSDO>  (95) 
F 19

>  <SCORE>  (95) 
-14.292

>  <name>  (95) 
94

>  <ligand_id>  (95) 
94

>  <original_smiles>  (95) 
[H]c1c([H])c([H])c2c(c1[H])C([H])([H])C([H])([H])C([H])([H])C2([H])N([H])C(=O)C1([H])N(C(=O)C([H])(N([H])C(=O)C([H])(N([H])C([H])([H])[H])C([H])([H])[H])C(C([H])([H])[H])(C([H])([H])[H])C([H])([H])[H])C([H])([H])c2c([H])c(OC([H])([H])C([H])([H])[N+]([H])([H])C([H])(C([H])([H])[H])C3([H])N(C([H])([H])[H])C4([H])C([H])([H])N(C(=O)N5C([H])([H])C([H])([H])C([H])([H])C([H])(n6nc(-c7c([H])c([H])c(Oc8c([H])c([H])c(F)c([H])c8F)c([H])c7[H])c(C(=O)N([H])[H])c6N([H])[H])C5([H])[H])C([H])([H])C43[H])c([H])c([H])c2C1([H])[H]

>  <smiles>  (95) 
[H]c1c([H])c([H])c2c(c1[H])C([H])([H])C([H])([H])C([H])([H])C2([H])N([H])C(=O)C1([H])N(C(=O)C([H])(N([H])C(=O)C([H])(N([H])C([H])([H])[H])C([H])([H])[H])C(C([H])([H])[H])(C([H])([H])[H])C([H])([H])[H])C([H])([H])c2c([H])c(OC([H])([H])C([H])([H])[N+]([H])([H])C([H])(C([H])([H])[H])C3([H])N(C([H])([H])[H])C4([H])C([H])([H])N(C(=O)N5C([H])([H])C([H])([H])C([H])([H])C([H])(n6nc(-c7c([H])c([H])c(Oc8c([H])c([H])c(F)c([H])c8F)c([H])c7[H])c(C(=O)N([H])[H])c6N([H])[H])C5([H])[H])C([H])([H])C43[H])c([H])c([H])c2C1([H])[H]

$$$$
95:0:0
     RDKit          3D

 90 98  0  0  1  0  0  0  0  0999 V2000
  -30.4900  -15.1490   20.3980 C   0  0  0  0  0  0  0  0  0  0  0  0
  -30.3870  -12.7470   19.5100 C   0  0  0  0  0  2  0  0  0  0  0  0
  -29.4900  -12.6500   18.2540 C   0  0  0  0  0  2  0  0  0  0  0  0
  -28.0180  -12.4260   18.6530 C   0  0  0  0  0  2  0  0  0  0  0  0
  -27.5750  -13.3530   19.8170 C   0  0  0  0  0  3  0  0  0  0  0  0
  -28.6130  -13.4410   20.9560 C   0  0  0  0  0  2  0  0  0  0  0  0
  -29.8770  -13.8810   20.3490 N   0  0  0  0  0  0  0  0  0  0  0  0
  -31.7050  -15.1230   20.1640 O   0  0  0  0  0  0  0  0  0  0  0  0
  -31.7950  -19.4320   20.4530 C   0  0  0  0  0  3  0  0  0  0  0  0
  -30.9590  -20.5680   20.4420 C   0  0  0  0  0  0  0  0  0  0  0  0
  -29.5670  -20.3740   20.4320 C   0  0  0  0  0  0  0  0  0  0  0  0
  -30.0660  -17.8790   20.4650 C   0  0  0  0  0  0  0  0  0  0  0  0
  -31.3650  -18.1470   20.4650 N   0  0  0  0  0  0  0  0  0  0  0  0
  -29.1610  -18.9850   20.4520 N   0  0  0  0  0  0  0  0  0  0  0  0
  -28.6810  -21.6010   20.4030 N   0  0  0  0  0  0  0  0  0  0  0  0
  -29.7490  -16.3990   20.4980 N   0  0  0  0  0  0  0  0  0  0  0  0
  -31.5150  -21.8060   20.4460 F   0  0  0  0  0  0  0  0  0  0  0  0
  -27.6940  -21.3900   20.4880 H   0  0  0  0  0  0  0  0  0  0  0  0
  -28.7640  -16.2330   20.6130 H   0  0  0  0  0  0  0  0  0  0  0  0
  -25.1900  -13.8980   20.5530 C   0  0  0  0  0  0  0  0  0  0  0  0
  -24.1310  -13.1130   20.9120 C   0  0  0  0  0  0  0  0  0  0  0  0
  -24.6050  -11.7650   20.8780 C   0  0  0  0  0  0  0  0  0  0  0  0
  -26.2420  -13.0300   20.3100 N   0  0  0  0  0  0  0  0  0  0  0  0
  -25.9000  -11.7410   20.5760 N   0  0  0  0  0  0  0  0  0  0  0  0
  -23.8840  -10.4980   21.0560 C   0  0  0  0  0  0  0  0  0  0  0  0
  -24.3030   -9.5320   21.9970 C   0  0  0  0  0  3  0  0  0  0  0  0
  -23.5780   -8.3320   22.1650 C   0  0  0  0  0  3  0  0  0  0  0  0
  -22.4170   -8.0910   21.3930 C   0  0  0  0  0  0  0  0  0  0  0  0
  -22.0160   -9.0450   20.4410 C   0  0  0  0  0  3  0  0  0  0  0  0
  -22.7430  -10.2340   20.2720 C   0  0  0  0  0  3  0  0  0  0  0  0
  -21.6650   -6.9420   21.4680 O   0  0  0  0  0  0  0  0  0  0  0  0
  -21.5830   -6.2100   22.6250 C   0  0  0  0  0  0  0  0  0  0  0  0
  -21.1070   -6.7710   23.8300 C   0  0  0  0  0  3  0  0  0  0  0  0
  -20.9750   -5.9660   24.9780 C   0  0  0  0  0  3  0  0  0  0  0  0
  -21.3070   -4.5990   24.9220 C   0  0  0  0  0  0  0  0  0  0  0  0
  -21.7770   -4.0370   23.7220 C   0  0  0  0  0  3  0  0  0  0  0  0
  -21.9120   -4.8400   22.5770 C   0  0  0  0  0  0  0  0  0  0  0  0
  -22.3450   -4.2890   21.4160 F   0  0  0  0  0  0  0  0  0  0  0  0
  -21.1720   -3.8220   26.0220 F   0  0  0  0  0  0  0  0  0  0  0  0
  -22.7280  -13.5820   21.1690 C   0  0  0  0  0  0  0  0  0  0  0  0
  -21.9970  -12.8820   22.0300 N   0  0  0  0  0  0  0  0  0  0  0  0
  -22.2910  -14.6040   20.6430 O   0  0  0  0  0  0  0  0  0  0  0  0
  -22.3630  -12.0590   22.4820 H   0  0  0  0  0  0  0  0  0  0  0  0
  -21.0550  -13.1790   22.2440 H   0  0  0  0  0  0  0  0  0  0  0  0
  -25.3440  -15.2700   20.3810 N   0  0  0  0  0  0  0  0  0  0  0  0
  -24.5620  -15.9110   20.4760 H   0  0  0  0  0  0  0  0  0  0  0  0
  -26.1750  -15.7140   20.0120 H   0  0  0  0  0  0  0  0  0  0  0  0
  -29.0280  -23.1670   20.4530 C   0  0  0  0  0  3  0  0  0  0  0  0
  -27.9590  -24.5180   20.2220 C   0  0  0  0  0  3  0  0  0  0  0  0
  -28.2210  -26.0900   20.3390 O   0  0  0  0  0  0  0  0  0  0  0  0
  -24.6340  -31.9320   23.2480 C   0  0  0  0  0  0  0  0  0  0  0  0
  -27.1840  -27.1210   20.2640 C   0  0  0  0  0  0  0  0  0  0  0  0
  -23.4330  -30.5390   21.6080 C   0  0  0  0  0  3  0  0  0  0  0  0
  -24.8790  -28.9350   20.2000 C   0  0  0  0  0  0  0  0  0  0  0  0
  -25.9940  -30.7670   21.4580 C   0  0  0  0  0  2  0  0  0  0  0  0
  -26.0620  -29.3620   20.8160 C   0  0  0  0  0  0  0  0  0  0  0  0
  -27.2130  -28.4740   20.8260 C   0  0  0  0  0  3  0  0  0  0  0  0
  -25.9730  -26.8130   19.6070 C   0  0  0  0  0  3  0  0  0  0  0  0
  -24.8520  -27.6770   19.5780 C   0  0  0  0  0  3  0  0  0  0  0  0
  -23.6600  -29.8500   20.2360 C   0  0  0  0  0  2  0  0  0  0  0  0
  -24.7080  -31.1040   22.1590 N   0  0  0  0  0  0  0  0  0  0  0  0
  -23.5480  -32.2250   23.7690 O   0  0  0  0  0  0  0  0  0  0  0  0
  -22.7370  -29.5460   22.5740 C   0  0  0  0  0  0  0  0  0  0  0  0
  -21.4080  -29.3880   22.4460 N   0  0  0  0  0  0  0  0  0  0  0  0
  -23.3990  -28.9160   23.4050 O   0  0  0  0  0  0  0  0  0  0  0  0
  -20.9280  -29.9450   21.7520 H   0  0  0  0  0  0  0  0  0  0  0  0
  -18.0140  -28.2190   22.9530 C   0  0  0  0  0  0  0  0  0  0  0  0
  -20.5770  -28.4610   23.2200 C   0  0  0  0  0  3  0  0  0  0  0  0
  -20.6650  -27.0260   22.6510 C   0  0  0  0  0  2  0  0  0  0  0  0
  -19.5610  -26.7090   21.6370 C   0  0  0  0  0  2  0  0  0  0  0  0
  -18.1790  -26.8680   22.2790 C   0  0  0  0  0  2  0  0  0  0  0  0
  -19.1390  -28.9730   23.3820 C   0  0  0  0  0  0  0  0  0  0  0  0
  -18.9280  -30.2350   23.9770 C   0  0  0  0  0  3  0  0  0  0  0  0
  -17.6270  -30.7460   24.1450 C   0  0  0  0  0  3  0  0  0  0  0  0
  -16.5170  -29.9900   23.7310 C   0  0  0  0  0  3  0  0  0  0  0  0
  -16.7120  -28.7280   23.1410 C   0  0  0  0  0  3  0  0  0  0  0  0
  -25.9110  -32.5660   23.8800 C   0  0  0  0  0  3  0  0  0  0  0  0
  -25.6010  -33.9670   24.2140 N   0  0  0  0  0  0  0  0  0  0  0  0
  -25.9190  -35.0230   23.4530 C   0  0  0  0  0  0  0  0  0  0  0  0
  -26.5660  -34.9210   22.4090 O   0  0  0  0  0  0  0  0  0  0  0  0
  -25.0220  -34.1180   25.0280 H   0  0  0  0  0  0  0  0  0  0  0  0
  -24.1760  -36.8160   23.1550 C   0  0  0  0  0  1  0  0  0  0  0  0
  -25.4440  -36.4120   23.9240 C   0  0  0  0  0  3  0  0  0  0  0  0
  -27.6010  -37.3110   24.6830 C   0  0  0  0  0  1  0  0  0  0  0  0
  -26.4700  -37.4690   23.7730 N   0  0  0  0  0  0  0  0  0  0  0  0
  -26.0640  -38.3890   23.9260 H   0  0  0  0  0  0  0  0  0  0  0  0
  -26.4130  -31.7950   25.1630 C   0  0  1  0  0  0  0  0  0  0  0  0
  -25.3100  -31.5670   26.2250 C   0  0  0  0  0  1  0  0  0  0  0  0
  -26.9900  -30.4110   24.7850 C   0  0  0  0  0  1  0  0  0  0  0  0
  -27.5630  -32.5850   25.8320 C   0  0  0  0  0  1  0  0  0  0  0  0
  1 16  1  0
  2  7  1  0
  3  4  1  0
  3  2  1  0
  5  4  1  0
  5 23  1  0
  5  6  1  0
  7  1  1  0
  7  6  1  0
  8  1  2  0
  9 13  1  0
 10 17  1  0
 10  9  2  0
 11 10  1  0
 11 14  2  0
 12 16  1  0
 13 12  2  0
 14 12  1  0
 15 11  1  0
 15 48  1  0
 15 18  1  0
 16 19  1  0
 20 21  2  0
 21 40  1  0
 22 21  1  0
 22 25  1  0
 23 20  1  0
 23 24  1  0
 24 22  2  0
 25 26  1  0
 26 27  2  0
 28 31  1  0
 28 27  1  0
 29 28  2  0
 30 29  1  0
 30 25  2  0
 31 32  1  0
 32 33  1  0
 33 34  2  0
 35 34  1  0
 35 39  1  0
 36 35  2  0
 37 32  2  0
 37 36  1  0
 38 37  1  0
 40 41  1  0
 41 44  1  0
 41 43  1  0
 42 40  2  0
 45 46  1  0
 45 20  1  0
 47 45  1  0
 49 50  1  0
 49 48  2  0
 51 62  2  0
 52 50  1  0
 52 57  1  0
 53 61  1  0
 53 63  1  0
 54 60  1  0
 54 56  1  0
 55 61  1  0
 56 57  2  0
 56 55  1  0
 58 52  2  0
 59 58  1  0
 59 54  2  0
 60 53  1  0
 61 51  1  0
 63 65  2  0
 64 63  1  0
 66 64  1  0
 67 76  2  0
 67 72  1  0
 68 64  1  0
 68 72  1  0
 69 68  1  0
 70 71  1  0
 70 69  1  0
 71 67  1  0
 72 73  2  0
 73 74  1  0
 75 74  2  0
 76 75  1  0
 77 51  1  0
 77 78  1  0
 77 87  1  0
 78 81  1  0
 79 83  1  0
 79 78  1  0
 80 79  2  0
 83 82  1  0
 85 83  1  0
 85 86  1  0
 85 84  1  0
 87 90  1  1
 87 88  1  0
 89 87  1  0
M  ISO  4   1 100  16 100  49 101  50 101
M  END
>  <TORSDO>  (96) 
F 17

>  <SCORE>  (96) 
-16.007

>  <name>  (96) 
95

>  <ligand_id>  (96) 
95

>  <original_smiles>  (96) 
[H]c1nc(N([H])C(=O)N2C([H])([H])C([H])([H])C([H])([H])C([H])(n3nc(-c4c([H])c([H])c(Oc5c([H])c([H])c(F)c([H])c5F)c([H])c4[H])c(C(=O)N([H])[H])c3N([H])[H])C2([H])[H])nc(N([H])C([H])([H])C([H])([H])Oc2c([H])c([H])c3c(c2[H])C([H])([H])N(C(=O)C([H])(N([H])C(=O)C([H])(N([H])C([H])([H])[H])C([H])([H])[H])C(C([H])([H])[H])(C([H])([H])[H])C([H])([H])[H])C([H])(C(=O)N([H])C2([H])c4c([H])c([H])c([H])c([H])c4C([H])([H])C([H])([H])C2([H])[H])C3([H])[H])c1F

>  <smiles>  (96) 
[H]c1nc(N([H])C(=O)N2C([H])([H])C([H])([H])C([H])([H])C([H])(n3nc(-c4c([H])c([H])c(Oc5c([H])c([H])c(F)c([H])c5F)c([H])c4[H])c(C(=O)N([H])[H])c3N([H])[H])C2([H])[H])nc(N([H])C([H])([H])C([H])([H])Oc2c([H])c([H])c3c(c2[H])C([H])([H])N(C(=O)C([H])(N([H])C(=O)C([H])(N([H])C([H])([H])[H])C([H])([H])[H])C(C([H])([H])[H])(C([H])([H])[H])C([H])([H])[H])C([H])(C(=O)N([H])C2([H])c4c([H])c([H])c([H])c([H])c4C([H])([H])C([H])([H])C2([H])[H])C3([H])[H])c1F

$$$$
96:0:0
     RDKit          3D

 96106  0  0  1  0  0  0  0  0999 V2000
  -28.9370  -22.2090   20.9900 C   0  0  0  0  0  3  0  0  0  0  0  0
  -29.4480  -21.1730   20.0720 C   0  0  0  0  0  0  0  0  0  0  0  0
  -29.6120  -21.9360   18.9260 C   0  0  0  0  0  0  0  0  0  0  0  0
  -28.7850  -23.5030   20.4250 C   0  0  0  0  0  0  0  0  0  0  0  0
  -29.1360  -24.2790   18.0530 C   0  0  0  0  0  2  0  0  0  0  0  0
  -29.7830  -23.8150   16.7330 C   0  0  0  0  0  2  0  0  0  0  0  0
  -30.1260  -21.5120   17.5650 C   0  0  0  0  0  3  0  0  0  0  0  0
  -31.6660  -21.4500   17.5100 C   0  0  0  0  0  1  0  0  0  0  0  0
  -29.2030  -23.2790   19.1180 N   0  0  0  0  0  0  0  0  0  0  0  0
  -29.5790  -22.3710   16.4930 N   0  0  0  0  0  4  0  0  0  0  0  0
  -29.9900  -22.1110   15.6110 H   0  0  0  0  0  0  0  0  0  0  0  0
  -28.5920  -22.1930   16.4290 H   0  0  0  0  0  0  0  0  0  0  0  0
  -30.8500  -15.0160   20.3900 C   0  0  0  0  0  0  0  0  0  0  0  0
  -30.6250  -12.7030   19.4010 C   0  0  0  0  0  2  0  0  0  0  0  0
  -29.6990  -12.6720   18.1660 C   0  0  0  0  0  2  0  0  0  0  0  0
  -28.2390  -12.4600   18.6030 C   0  0  0  0  0  2  0  0  0  0  0  0
  -27.8320  -13.3920   19.7710 C   0  0  0  0  0  3  0  0  0  0  0  0
  -28.8860  -13.4310   20.9000 C   0  0  0  0  0  2  0  0  0  0  0  0
  -30.1610  -13.8110   20.2850 N   0  0  0  0  0  0  0  0  0  0  0  0
  -32.0660  -14.9690   20.1760 O   0  0  0  0  0  0  0  0  0  0  0  0
  -30.4420  -18.8890   21.4440 C   0  0  0  0  0  2  0  0  0  0  0  0
  -28.7820  -18.4610   19.8020 C   0  0  0  0  0  2  0  0  0  0  0  0
  -31.0470  -17.4090   21.2310 C   0  0  0  0  0  2  0  0  0  0  0  0
  -29.2740  -16.9300   19.6370 C   0  0  0  0  0  2  0  0  0  0  0  0
  -29.8350  -19.5630   20.1740 C   0  0  0  0  0  3  0  0  0  0  0  0
  -30.2320  -16.2890   20.6110 N   0  0  0  0  0  0  0  0  0  0  0  0
  -25.4570  -13.9920   20.5020 C   0  0  0  0  0  0  0  0  0  0  0  0
  -24.3850  -13.2230   20.8620 C   0  0  0  0  0  0  0  0  0  0  0  0
  -24.8450  -11.8710   20.8390 C   0  0  0  0  0  0  0  0  0  0  0  0
  -26.4950  -13.1070   20.2710 N   0  0  0  0  0  0  0  0  0  0  0  0
  -26.1380  -11.8270   20.5430 N   0  0  0  0  0  0  0  0  0  0  0  0
  -24.1140  -10.6110   21.0200 C   0  0  0  0  0  0  0  0  0  0  0  0
  -24.5180   -9.6540   21.9780 C   0  0  0  0  0  3  0  0  0  0  0  0
  -23.7860   -8.4590   22.1450 C   0  0  0  0  0  3  0  0  0  0  0  0
  -22.6370   -8.2130   21.3570 C   0  0  0  0  0  0  0  0  0  0  0  0
  -22.2540   -9.1580   20.3900 C   0  0  0  0  0  3  0  0  0  0  0  0
  -22.9860  -10.3440   20.2180 C   0  0  0  0  0  3  0  0  0  0  0  0
  -21.8810   -7.0690   21.4360 O   0  0  0  0  0  0  0  0  0  0  0  0
  -21.7780   -6.3530   22.6010 C   0  0  0  0  0  0  0  0  0  0  0  0
  -21.2670   -6.9270   23.7870 C   0  0  0  0  0  3  0  0  0  0  0  0
  -21.1150   -6.1360   24.9430 C   0  0  0  0  0  3  0  0  0  0  0  0
  -21.4620   -4.7710   24.9140 C   0  0  0  0  0  0  0  0  0  0  0  0
  -21.9660   -4.1980   23.7330 C   0  0  0  0  0  3  0  0  0  0  0  0
  -22.1200   -4.9860   22.5790 C   0  0  0  0  0  0  0  0  0  0  0  0
  -22.5870   -4.4230   21.4390 F   0  0  0  0  0  0  0  0  0  0  0  0
  -21.3080   -4.0090   26.0220 F   0  0  0  0  0  0  0  0  0  0  0  0
  -22.9880  -13.7060   21.1150 C   0  0  0  0  0  0  0  0  0  0  0  0
  -22.2500  -13.0190   21.9800 N   0  0  0  0  0  0  0  0  0  0  0  0
  -22.5570  -14.7270   20.5800 O   0  0  0  0  0  0  0  0  0  0  0  0
  -22.6100  -12.1920   22.4340 H   0  0  0  0  0  0  0  0  0  0  0  0
  -21.3110  -13.3240   22.1930 H   0  0  0  0  0  0  0  0  0  0  0  0
  -25.6270  -15.3630   20.3240 N   0  0  0  0  0  0  0  0  0  0  0  0
  -24.8630  -16.0210   20.4250 H   0  0  0  0  0  0  0  0  0  0  0  0
  -26.4890  -15.7960   20.0200 H   0  0  0  0  0  0  0  0  0  0  0  0
  -28.1030  -24.8810   20.9690 C   0  0  0  0  0  2  0  0  0  0  0  0
  -28.4120  -26.2870   20.4250 O   0  0  0  0  0  0  0  0  0  0  0  0
  -24.6300  -31.9290   23.2840 C   0  0  0  0  0  0  0  0  0  0  0  0
  -27.3510  -27.2480   20.3820 C   0  0  0  0  0  0  0  0  0  0  0  0
  -23.4920  -30.4960   21.6320 C   0  0  0  0  0  3  0  0  0  0  0  0
  -24.9980  -28.9300   20.2660 C   0  0  0  0  0  0  0  0  0  0  0  0
  -26.0430  -30.8080   21.5230 C   0  0  0  0  0  2  0  0  0  0  0  0
  -26.1540  -29.4110   20.8950 C   0  0  0  0  0  0  0  0  0  0  0  0
  -27.3380  -28.5860   20.9340 C   0  0  0  0  0  3  0  0  0  0  0  0
  -26.1710  -26.8570   19.7200 C   0  0  0  0  0  3  0  0  0  0  0  0
  -25.0170  -27.6650   19.6640 C   0  0  0  0  0  3  0  0  0  0  0  0
  -23.7560  -29.8040   20.2690 C   0  0  0  0  0  2  0  0  0  0  0  0
  -24.7400  -31.0980   22.2020 N   0  0  0  0  0  0  0  0  0  0  0  0
  -23.5280  -32.2020   23.7820 O   0  0  0  0  0  0  0  0  0  0  0  0
  -22.8040  -29.4890   22.5890 C   0  0  0  0  0  0  0  0  0  0  0  0
  -21.4810  -29.3050   22.4390 N   0  0  0  0  0  0  0  0  0  0  0  0
  -23.4660  -28.8720   23.4300 O   0  0  0  0  0  0  0  0  0  0  0  0
  -21.0030  -29.8490   21.7320 H   0  0  0  0  0  0  0  0  0  0  0  0
  -18.0930  -28.1170   22.9210 C   0  0  0  0  0  0  0  0  0  0  0  0
  -20.6520  -28.3700   23.2040 C   0  0  0  0  0  3  0  0  0  0  0  0
  -20.7530  -26.9400   22.6270 C   0  0  0  0  0  2  0  0  0  0  0  0
  -19.6570  -26.6220   21.6060 C   0  0  0  0  0  2  0  0  0  0  0  0
  -18.2700  -26.7700   22.2400 C   0  0  0  0  0  2  0  0  0  0  0  0
  -19.2120  -28.8740   23.3580 C   0  0  0  0  0  0  0  0  0  0  0  0
  -18.9930  -30.1360   23.9540 C   0  0  0  0  0  3  0  0  0  0  0  0
  -17.6880  -30.6400   24.1140 C   0  0  0  0  0  3  0  0  0  0  0  0
  -16.5850  -29.8800   23.6910 C   0  0  0  0  0  3  0  0  0  0  0  0
  -16.7870  -28.6190   23.1020 C   0  0  0  0  0  3  0  0  0  0  0  0
  -25.8840  -32.5900   23.9330 C   0  0  0  0  0  3  0  0  0  0  0  0
  -25.5490  -33.9920   24.2280 N   0  0  0  0  0  0  0  0  0  0  0  0
  -25.8790  -35.0360   23.4530 C   0  0  0  0  0  0  0  0  0  0  0  0
  -26.5660  -34.9190   22.4360 O   0  0  0  0  0  0  0  0  0  0  0  0
  -24.9410  -34.1570   25.0180 H   0  0  0  0  0  0  0  0  0  0  0  0
  -24.1330  -36.7990   23.0420 C   0  0  0  0  0  1  0  0  0  0  0  0
  -25.3690  -36.4280   23.8760 C   0  0  0  0  0  3  0  0  0  0  0  0
  -27.4770  -37.3610   24.7170 C   0  0  0  0  0  1  0  0  0  0  0  0
  -26.3880  -37.4930   23.7530 N   0  0  0  0  0  0  0  0  0  0  0  0
  -25.9670  -38.4100   23.8730 H   0  0  0  0  0  0  0  0  0  0  0  0
  -26.3650  -31.8540   25.2440 C   0  0  1  0  0  0  0  0  0  0  0  0
  -25.2360  -31.6170   26.2750 C   0  0  0  0  0  1  0  0  0  0  0  0
  -26.9850  -30.4790   24.9060 C   0  0  0  0  0  1  0  0  0  0  0  0
  -27.4820  -32.6780   25.9270 C   0  0  0  0  0  1  0  0  0  0  0  0
  2  1  1  0
  3  9  1  0
  3  2  2  0
  4 55  1  0
  4  1  2  0
  5  9  1  0
  6  5  1  0
  7  8  1  0
  7  3  1  0
  9  4  1  0
 10  6  1  0
 10  7  1  0
 11 10  1  0
 12 10  1  0
 13 26  1  0
 14 19  1  0
 15 16  1  0
 15 14  1  0
 17 16  1  0
 17 30  1  0
 17 18  1  0
 19 13  1  0
 19 18  1  0
 20 13  2  0
 22 25  1  0
 23 21  1  0
 24 22  1  0
 24 26  1  0
 25  2  1  0
 25 21  1  0
 26 23  1  0
 27 28  2  0
 28 47  1  0
 29 28  1  0
 29 32  1  0
 30 27  1  0
 30 31  1  0
 31 29  2  0
 32 33  1  0
 33 34  2  0
 35 38  1  0
 35 34  1  0
 36 35  2  0
 37 36  1  0
 37 32  2  0
 38 39  1  0
 39 40  1  0
 40 41  2  0
 42 41  1  0
 42 46  1  0
 43 42  2  0
 44 39  2  0
 44 43  1  0
 45 44  1  0
 47 48  1  0
 48 51  1  0
 48 50  1  0
 49 47  2  0
 52 53  1  0
 52 27  1  0
 54 52  1  0
 56 55  1  0
 57 68  2  0
 58 56  1  0
 58 63  1  0
 59 67  1  0
 59 69  1  0
 60 66  1  0
 60 62  1  0
 61 67  1  0
 62 63  2  0
 62 61  1  0
 64 58  2  0
 65 64  1  0
 65 60  2  0
 66 59  1  0
 67 57  1  0
 69 71  2  0
 70 69  1  0
 72 70  1  0
 73 82  2  0
 73 78  1  0
 74 70  1  0
 74 78  1  0
 75 74  1  0
 76 77  1  0
 76 75  1  0
 77 73  1  0
 78 79  2  0
 79 80  1  0
 81 80  2  0
 82 81  1  0
 83 57  1  0
 83 84  1  0
 83 93  1  0
 84 87  1  0
 85 89  1  0
 85 84  1  0
 86 85  2  0
 89 88  1  0
 91 92  1  0
 91 89  1  0
 91 90  1  0
 93 96  1  1
 93 94  1  0
 95 93  1  0
M  ISO  4  13 100  26 100  55 101  56 101
M  END
>  <TORSDO>  (97) 
F 17

>  <SCORE>  (97) 
-15.239

>  <name>  (97) 
96

>  <ligand_id>  (97) 
96

>  <original_smiles>  (97) 
[H]c1c([H])c([H])c2c(c1[H])C([H])([H])C([H])([H])C([H])([H])C2([H])N([H])C(=O)C1([H])N(C(=O)C([H])(N([H])C(=O)C([H])(N([H])C([H])([H])[H])C([H])([H])[H])C(C([H])([H])[H])(C([H])([H])[H])C([H])([H])[H])C([H])([H])c2c([H])c(OC([H])([H])c3c([H])c(C4([H])C([H])([H])C([H])([H])N(C(=O)N5C([H])([H])C([H])([H])C([H])([H])C([H])(n6nc(-c7c([H])c([H])c(Oc8c([H])c([H])c(F)c([H])c8F)c([H])c7[H])c(C(=O)N([H])[H])c6N([H])[H])C5([H])[H])C([H])([H])C4([H])[H])c4n3C([H])([H])C([H])([H])[N+]([H])([H])C4([H])C([H])([H])[H])c([H])c([H])c2C1([H])[H]

>  <smiles>  (97) 
[H]c1c([H])c([H])c2c(c1[H])C([H])([H])C([H])([H])C([H])([H])C2([H])N([H])C(=O)C1([H])N(C(=O)C([H])(N([H])C(=O)C([H])(N([H])C([H])([H])[H])C([H])([H])[H])C(C([H])([H])[H])(C([H])([H])[H])C([H])([H])[H])C([H])([H])c2c([H])c(OC([H])([H])c3c([H])c(C4([H])C([H])([H])C([H])([H])N(C(=O)N5C([H])([H])C([H])([H])C([H])([H])C([H])(n6nc(-c7c([H])c([H])c(Oc8c([H])c([H])c(F)c([H])c8F)c([H])c7[H])c(C(=O)N([H])[H])c6N([H])[H])C5([H])[H])C([H])([H])C4([H])[H])c4n3C([H])([H])C([H])([H])[N+]([H])([H])C4([H])C([H])([H])[H])c([H])c([H])c2C1([H])[H]

$$$$
