=
 OpenBabel04082316253D

 80 86  0  0  1  0  0  0  0  0999 V2000
   10.4950   11.9430  -16.1250 C   0  0  0  0  0  0  0  0  0  0  0  0
    9.7590   13.0690  -16.5110 N   0  0  0  0  0  0  0  0  0  0  0  0
   11.1930   11.2940  -16.9210 O   0  0  0  0  0  0  0  0  0  0  0  0
    9.2260   13.5360  -15.8260 H   0  0  0  0  0  0  0  0  0  0  0  0
   11.3320   11.9850  -13.8030 C   0  0  0  0  0  3  0  0  0  0  0  0
   11.2320   11.5970  -12.4680 C   0  0  0  0  0  3  0  0  0  0  0  0
    9.3520   10.7000  -14.3230 C   0  0  0  0  0  3  0  0  0  0  0  0
    9.2530   10.3130  -12.9870 C   0  0  0  0  0  0  0  0  0  0  0  0
   10.3910   11.5360  -14.7320 C   0  0  0  0  0  0  0  0  0  0  0  0
   10.1930   10.7610  -12.0600 C   0  0  0  0  0  0  0  0  0  0  0  0
   10.1120   10.3960  -10.7710 F   0  0  0  0  0  0  0  0  0  0  0  0
    7.4340    9.7550  -11.4260 C   0  0  0  0  0  3  0  0  0  0  0  0
    6.3930    8.9190  -11.0210 C   0  0  0  0  0  3  0  0  0  0  0  0
    7.8730    8.2990  -13.3040 C   0  0  0  0  0  3  0  0  0  0  0  0
    8.1740    9.4450  -12.5670 C   0  0  0  0  0  0  0  0  0  0  0  0
    6.0930    7.7730  -11.7570 C   0  0  0  0  0  0  0  0  0  0  0  0
    6.8330    7.4630  -12.8980 C   0  0  0  0  0  0  0  0  0  0  0  0
    5.2820    5.9600  -10.2840 C   0  0  0  0  0  2  0  0  0  0  0  0
    3.6900    7.4890  -11.4000 C   0  0  0  0  0  2  0  0  0  0  0  0
    4.2770    4.8070  -10.3780 C   0  0  1  0  0  3  0  0  0  0  0  0
    2.6570    6.3650  -11.5270 C   0  0  2  0  0  3  0  0  0  0  0  0
    4.4950    3.8590   -9.1960 C   0  0  0  0  0  1  0  0  0  0  0  0
    1.2530    6.9700  -11.4970 C   0  0  0  0  0  1  0  0  0  0  0  0
    1.8080    4.2660  -10.4010 C   0  0  0  0  0  1  0  0  0  0  0  0
    5.0450    6.9480  -11.3320 N   0  0  0  0  0  0  0  0  0  0  0  0
    2.8500    5.3660  -10.3810 N   0  0  0  0  0  4  0  0  0  0  0  0
    2.7160    5.8720   -9.5060 H   0  0  0  0  0  0  0  0  0  0  0  0
    6.0420    6.2540  -14.9500 C   0  0  0  0  0  0  0  0  0  0  0  0
    6.5490    6.3200  -13.6510 N   0  0  0  0  0  0  0  0  0  0  0  0
    5.7420    7.1790  -15.6940 O   0  0  0  0  0  0  0  0  0  0  0  0
    6.7290    5.4560  -13.2120 H   0  0  0  0  0  0  0  0  0  0  0  0
    6.6550    2.8560  -16.5220 C   0  0  0  0  0  3  0  0  0  0  0  0
    4.6940    4.2860  -15.1480 C   0  0  0  0  0  3  0  0  0  0  0  0
    5.8730    4.8630  -15.4180 C   0  0  0  0  0  0  0  0  0  0  0  0
    6.9000    4.1220  -16.1350 C   0  0  0  0  0  0  0  0  0  0  0  0
    5.3440    2.2100  -16.2230 C   0  0  0  0  0  0  0  0  0  0  0  0
    4.4360    2.9960  -15.5390 N   0  0  0  0  0  0  0  0  0  0  0  0
    5.1270    1.0550  -16.5780 O   0  0  0  0  0  0  0  0  0  0  0  0
    3.5570    2.6110  -15.3210 H   0  0  0  0  0  0  0  0  0  0  0  0
    8.2160    4.7780  -16.4320 C   0  0  0  0  0  0  0  0  0  0  0  0
    8.0410    5.8910  -17.1720 F   0  0  0  0  0  0  0  0  0  0  0  0
    8.8470    5.1290  -15.2940 F   0  0  0  0  0  0  0  0  0  0  0  0
    9.0270    3.9470  -17.1170 F   0  0  0  0  0  0  0  0  0  0  0  0
    9.7380   13.5850  -17.8620 C   0  0  0  0  0  2  0  0  0  0  0  0
    8.9250   12.6630  -18.7450 C   0  0  0  0  0  0  0  0  0  0  0  0
    8.2490   11.7100  -17.9970 N   0  0  0  0  0  0  0  0  0  0  0  0
    8.9110   12.7430  -19.9700 O   0  0  0  0  0  0  0  0  0  0  0  0
    8.3300   11.7390  -17.0160 H   0  0  0  0  0  0  0  0  0  0  0  0
    7.4300   10.6760  -18.5890 C   0  0  2  0  0  3  0  0  0  0  0  0
    6.1030   10.7180  -17.8740 C   0  0  0  0  0  0  0  0  0  0  0  0
    3.1310   12.6800  -18.7850 C   0  0  0  0  0  2  0  0  0  0  0  0
    5.2010   12.0750  -19.8200 C   0  0  0  0  0  2  0  0  0  0  0  0
    3.7700   11.5830  -17.9440 C   0  0  2  0  0  3  0  0  0  0  0  0
    3.7800   12.5020  -20.1580 C   0  0  2  0  0  3  0  0  0  0  0  0
    5.0930   11.4010  -18.5290 N   0  0  0  0  0  0  0  0  0  0  0  0
    5.9660   10.1610  -16.7840 O   0  0  0  0  0  0  0  0  0  0  0  0
    2.9150   10.3340  -18.0470 C   0  0  0  0  0  0  0  0  0  0  0  0
    3.2970    9.4740  -19.0600 N   0  0  0  0  0  0  0  0  0  0  0  0
    1.9870   10.1700  -17.2650 O   0  0  0  0  0  0  0  0  0  0  0  0
    4.0650    9.7230  -19.6220 H   0  0  0  0  0  0  0  0  0  0  0  0
    1.6220    8.3940  -20.4760 C   0  0  0  0  0  1  0  0  0  0  0  0
    2.6210    8.2250  -19.3330 C   0  0  1  0  0  3  0  0  0  0  0  0
    5.0560    5.8990  -21.0980 C   0  0  0  0  0  3  0  0  0  0  0  0
    4.9040    5.2350  -18.7800 C   0  0  0  0  0  3  0  0  0  0  0  0
    4.1430    6.9280  -20.8640 C   0  0  0  0  0  3  0  0  0  0  0  0
    3.9910    6.2630  -18.5450 C   0  0  0  0  0  3  0  0  0  0  0  0
    5.4370    5.0530  -20.0560 C   0  0  0  0  0  0  0  0  0  0  0  0
    3.6110    7.1090  -19.5880 C   0  0  0  0  0  0  0  0  0  0  0  0
    7.4400    1.8570  -20.6620 C   0  0  0  0  0  3  0  0  0  0  0  0
    6.3800    3.9890  -20.3000 C   0  0  0  0  0  0  0  0  0  0  0  0
    7.7430    4.0230  -20.5030 C   0  0  0  0  0  0  0  0  0  0  0  0
    8.5950    5.2310  -20.5160 C   0  0  0  0  0  1  0  0  0  0  0  0
    8.3530    2.8010  -20.7110 N   0  0  0  0  0  0  0  0  0  0  0  0
    5.8280    2.3670  -20.3710 S   0  0  0  0  0  0  0  0  0  0  0  0
    3.7730   13.7110  -20.8900 O   0  0  0  0  0  0  0  0  0  0  0  0
    4.6500   13.8610  -21.2750 H   0  0  0  0  0  0  0  0  0  0  0  0
    9.3300    9.1640  -19.4680 C   0  0  0  0  0  1  0  0  0  0  0  0
    7.0610    8.2040  -19.0210 C   0  0  0  0  0  1  0  0  0  0  0  0
    8.5090    8.9170  -17.1190 C   0  0  0  0  0  1  0  0  0  0  0  0
    8.0860    9.2640  -18.5630 C   0  0  0  0  0  0  0  0  0  0  0  0
  1  9  1  0  0  0  0
  2  1  1  0  0  0  0
  2  4  1  0  0  0  0
  3  1  2  0  0  0  0
  5  6  1  0  0  0  0
  6 10  2  0  0  0  0
  7  8  2  0  0  0  0
  8 15  1  0  0  0  0
  8 10  1  0  0  0  0
  9  7  1  0  0  0  0
  9  5  2  0  0  0  0
 10 11  1  0  0  0  0
 12 13  1  0  0  0  0
 14 17  2  0  0  0  0
 14 15  1  0  0  0  0
 15 12  2  0  0  0  0
 16 25  1  0  0  0  0
 16 13  2  0  0  0  0
 17 16  1  0  0  0  0
 19 25  1  0  0  0  0
 20 18  1  0  0  0  0
 20 22  1  1  0  0  0
 21 23  1  1  0  0  0
 21 19  1  0  0  0  0
 21 26  1  0  0  0  0
 24 26  1  0  0  0  0
 25 18  1  0  0  0  0
 26 20  1  0  0  0  0
 26 27  1  0  0  0  0
 28 29  1  0  0  0  0
 29 31  1  0  0  0  0
 29 17  1  0  0  0  0
 30 28  2  0  0  0  0
 32 36  1  0  0  0  0
 32 35  2  0  0  0  0
 34 33  2  0  0  0  0
 34 28  1  0  0  0  0
 35 34  1  0  0  0  0
 36 37  1  0  0  0  0
 37 39  1  0  0  0  0
 37 33  1  0  0  0  0
 38 36  2  0  0  0  0
 40 35  1  0  0  0  0
 40 42  1  0  0  0  0
 41 40  1  0  0  0  0
 43 40  1  0  0  0  0
 44  2  1  0  0  0  0
 45 46  1  0  0  0  0
 45 44  1  0  0  0  0
 46 48  1  0  0  0  0
 47 45  2  0  0  0  0
 49 80  1  0  0  0  0
 49 46  1  0  0  0  0
 49 50  1  1  0  0  0
 50 56  2  0  0  0  0
 51 53  1  0  0  0  0
 52 55  1  0  0  0  0
 53 57  1  6  0  0  0
 54 75  1  1  0  0  0
 54 52  1  0  0  0  0
 54 51  1  0  0  0  0
 55 53  1  0  0  0  0
 55 50  1  0  0  0  0
 57 59  2  0  0  0  0
 58 57  1  0  0  0  0
 60 58  1  0  0  0  0
 62 61  1  6  0  0  0
 62 58  1  0  0  0  0
 63 65  2  0  0  0  0
 63 67  1  0  0  0  0
 64 66  1  0  0  0  0
 65 68  1  0  0  0  0
 67 64  2  0  0  0  0
 68 62  1  0  0  0  0
 68 66  2  0  0  0  0
 69 74  1  0  0  0  0
 70 67  1  0  0  0  0
 71 70  2  0  0  0  0
 72 71  1  0  0  0  0
 73 69  2  0  0  0  0
 73 71  1  0  0  0  0
 74 70  1  0  0  0  0
 76 75  1  0  0  0  0
 77 80  1  0  0  0  0
 78 80  1  0  0  0  0
 80 79  1  0  0  0  0
M  END
>  <MODEL>
1

>  <REMARK>
 VINA RESULT:   -11.365      0.000      0.000
 INTER + INTRA:         -26.734
 INTER:                 -20.305
 INTRA:                  -6.429
 UNBOUND:                -5.070
  Name = 
  24 active torsions:
  status: ('A' for Active; 'I' for Inactive)
    1  A    between atoms: C_12  and  C_20
    2  A    between atoms: C_13  and  C_14
    3  A    between atoms: C_15  and  C_27
    4  A    between atoms: C_16  and  C_49
    5  A    between atoms: C_17  and  N_55
    6  A    between atoms: C_18  and  N_57
    7  A    between atoms: C_21  and  C_40
    8  A    between atoms: C_24  and  C_28
    9  A    between atoms: C_25  and  C_51
   10  A    between atoms: C_29  and  C_36
   11  A    between atoms: C_30  and  C_50
   12  A    between atoms: C_31  and  C_48
   13  A    between atoms: C_37  and  O_68
   14  A    between atoms: C_38  and  C_41
   15  A    between atoms: C_39  and  C_42
   16  A    between atoms: C_43  and  C_49
   17  A    between atoms: C_44  and  C_52
   18  A    between atoms: C_45  and  C_52
   19  A    between atoms: C_46  and  C_52
   20  A    between atoms: C_47  and  N_61
   21  A    between atoms: C_48  and  N_58
   22  A    between atoms: C_49  and  N_59
   23  A    between atoms: C_50  and  C_52
   24  A    between atoms: C_50  and  N_60
                            x       y       z     vdW  Elec       q    Type
                         _______ _______ _______ _____ _____    ______ ____

>  <TORSDO>
F 16

$$$$
=
 OpenBabel04082316253D

 80 86  0  0  1  0  0  0  0  0999 V2000
    5.2890    7.7080  -10.8020 C   0  0  0  0  0  0  0  0  0  0  0  0
    5.1660    6.3320  -11.0270 N   0  0  0  0  0  0  0  0  0  0  0  0
    4.4050    8.5200  -11.1220 O   0  0  0  0  0  0  0  0  0  0  0  0
    5.9070    5.7460  -10.7470 H   0  0  0  0  0  0  0  0  0  0  0  0
    6.8930    7.6990   -8.9260 C   0  0  0  0  0  3  0  0  0  0  0  0
    8.0800    8.1360   -8.3400 C   0  0  0  0  0  3  0  0  0  0  0  0
    7.3470    9.0700  -10.8640 C   0  0  0  0  0  3  0  0  0  0  0  0
    8.5350    9.5070  -10.2760 C   0  0  0  0  0  0  0  0  0  0  0  0
    6.5270    8.1670  -10.1890 C   0  0  0  0  0  0  0  0  0  0  0  0
    8.9010    9.0410   -9.0140 C   0  0  0  0  0  0  0  0  0  0  0  0
   10.0380    9.4520   -8.4350 F   0  0  0  0  0  0  0  0  0  0  0  0
   10.3920   11.1210  -10.2930 C   0  0  0  0  0  3  0  0  0  0  0  0
   11.2110   12.0260  -10.9690 C   0  0  0  0  0  3  0  0  0  0  0  0
    9.1910   10.6760  -12.3410 C   0  0  0  0  0  3  0  0  0  0  0  0
    9.3820   10.4460  -10.9790 C   0  0  0  0  0  0  0  0  0  0  0  0
   11.0190   12.2560  -12.3300 C   0  0  0  0  0  0  0  0  0  0  0  0
   10.0090   11.5810  -13.0170 C   0  0  0  0  0  0  0  0  0  0  0  0
   11.2660   14.1770  -13.8670 C   0  0  0  0  0  2  0  0  0  0  0  0
   13.0940   13.5500  -12.3240 C   0  0  0  0  0  2  0  0  0  0  0  0
   12.2800   14.6490  -14.9150 C   0  0  1  0  0  3  0  0  0  0  0  0
   14.1460   13.9990  -13.3440 C   0  0  2  0  0  3  0  0  0  0  0  0
   11.6580   15.7800  -15.7360 C   0  0  0  0  0  1  0  0  0  0  0  0
   15.3920   14.4790  -12.5990 C   0  0  0  0  0  1  0  0  0  0  0  0
   14.5800   15.6600  -15.1990 C   0  0  0  0  0  1  0  0  0  0  0  0
   11.8510   13.1690  -12.9890 N   0  0  0  0  0  0  0  0  0  0  0  0
   13.5620   15.1150  -14.2170 N   0  0  0  0  0  4  0  0  0  0  0  0
   13.3150   15.8890  -13.6020 H   0  0  0  0  0  0  0  0  0  0  0  0
    9.6590   10.8390  -15.3880 C   0  0  0  0  0  0  0  0  0  0  0  0
    9.7980   11.7970  -14.3820 N   0  0  0  0  0  0  0  0  0  0  0  0
    9.6910    9.6200  -15.2830 O   0  0  0  0  0  0  0  0  0  0  0  0
    9.7420   12.7380  -14.6690 H   0  0  0  0  0  0  0  0  0  0  0  0
    8.1040   12.6100  -18.3620 C   0  0  0  0  0  3  0  0  0  0  0  0
   10.4830   11.3920  -17.5660 C   0  0  0  0  0  3  0  0  0  0  0  0
    9.4470   11.4470  -16.7180 C   0  0  0  0  0  0  0  0  0  0  0  0
    8.2030   12.0810  -17.1280 C   0  0  0  0  0  0  0  0  0  0  0  0
    9.2550   12.5510  -19.3080 C   0  0  0  0  0  0  0  0  0  0  0  0
   10.3910   11.9280  -18.8260 N   0  0  0  0  0  0  0  0  0  0  0  0
    9.1590   13.0350  -20.4330 O   0  0  0  0  0  0  0  0  0  0  0  0
   11.1760   11.8660  -19.4170 H   0  0  0  0  0  0  0  0  0  0  0  0
    7.0490   12.1360  -16.1710 C   0  0  0  0  0  0  0  0  0  0  0  0
    5.9180   12.5050  -16.8030 F   0  0  0  0  0  0  0  0  0  0  0  0
    6.8360   10.9310  -15.6040 F   0  0  0  0  0  0  0  0  0  0  0  0
    7.2810   13.0230  -15.1830 F   0  0  0  0  0  0  0  0  0  0  0  0
    4.0110    5.7240  -11.6460 C   0  0  0  0  0  2  0  0  0  0  0  0
    4.3870    5.1910  -13.0120 C   0  0  0  0  0  0  0  0  0  0  0  0
    3.8940    6.0010  -14.0260 N   0  0  0  0  0  0  0  0  0  0  0  0
    5.0180    4.1510  -13.1800 O   0  0  0  0  0  0  0  0  0  0  0  0
    3.4010    6.8160  -13.7780 H   0  0  0  0  0  0  0  0  0  0  0  0
    4.0710    5.7040  -15.4300 C   0  0  2  0  0  3  0  0  0  0  0  0
    5.4600    6.1640  -15.7940 C   0  0  0  0  0  0  0  0  0  0  0  0
    8.2060    4.1310  -17.1500 C   0  0  0  0  0  2  0  0  0  0  0  0
    5.8520    3.8730  -16.8130 C   0  0  0  0  0  2  0  0  0  0  0  0
    7.6290    5.5010  -16.8210 C   0  0  2  0  0  3  0  0  0  0  0  0
    6.9980    3.3490  -17.6660 C   0  0  2  0  0  3  0  0  0  0  0  0
    6.2430    5.2330  -16.4540 N   0  0  0  0  0  0  0  0  0  0  0  0
    5.8320    7.3040  -15.5120 O   0  0  0  0  0  0  0  0  0  0  0  0
    7.7400    6.3830  -18.0510 C   0  0  0  0  0  0  0  0  0  0  0  0
    8.1280    7.6810  -17.7780 N   0  0  0  0  0  0  0  0  0  0  0  0
    7.4930    5.9140  -19.1550 O   0  0  0  0  0  0  0  0  0  0  0  0
    8.2970    7.9330  -16.8420 H   0  0  0  0  0  0  0  0  0  0  0  0
    9.0250    8.1040  -20.0120 C   0  0  0  0  0  1  0  0  0  0  0  0
    8.2970    8.6870  -18.8030 C   0  0  1  0  0  3  0  0  0  0  0  0
    5.5830   10.4760  -20.7740 C   0  0  0  0  0  3  0  0  0  0  0  0
    4.7070    9.9220  -18.5910 C   0  0  0  0  0  3  0  0  0  0  0  0
    6.8030    9.8920  -20.4330 C   0  0  0  0  0  3  0  0  0  0  0  0
    5.9270    9.3370  -18.2500 C   0  0  0  0  0  3  0  0  0  0  0  0
    4.5350   10.4910  -19.8530 C   0  0  0  0  0  0  0  0  0  0  0  0
    6.9740    9.3220  -19.1720 C   0  0  0  0  0  0  0  0  0  0  0  0
    1.0810   11.5610  -21.0860 C   0  0  0  0  0  3  0  0  0  0  0  0
    3.2740   11.0970  -20.2050 C   0  0  0  0  0  0  0  0  0  0  0  0
    2.7530   12.3360  -19.8970 C   0  0  0  0  0  0  0  0  0  0  0  0
    3.4110   13.3860  -19.0910 C   0  0  0  0  0  1  0  0  0  0  0  0
    1.4960   12.6040  -20.4020 N   0  0  0  0  0  0  0  0  0  0  0  0
    2.1520   10.2220  -21.1630 S   0  0  0  0  0  0  0  0  0  0  0  0
    7.1710    1.9570  -17.4860 O   0  0  0  0  0  0  0  0  0  0  0  0
    6.4010    1.4870  -17.8410 H   0  0  0  0  0  0  0  0  0  0  0  0
    3.4410    6.5150  -17.7990 C   0  0  0  0  0  1  0  0  0  0  0  0
    2.5380    7.6930  -15.7830 C   0  0  0  0  0  1  0  0  0  0  0  0
    1.7300    5.4020  -16.3540 C   0  0  0  0  0  1  0  0  0  0  0  0
    2.9710    6.3210  -16.3440 C   0  0  0  0  0  0  0  0  0  0  0  0
  1  9  1  0  0  0  0
  2  1  1  0  0  0  0
  2  4  1  0  0  0  0
  3  1  2  0  0  0  0
  5  6  1  0  0  0  0
  7  8  2  0  0  0  0
  7  9  1  0  0  0  0
  8 10  1  0  0  0  0
  9  5  2  0  0  0  0
 10 11  1  0  0  0  0
 10  6  2  0  0  0  0
 13 12  1  0  0  0  0
 14 15  1  0  0  0  0
 15 12  2  0  0  0  0
 15  8  1  0  0  0  0
 16 13  2  0  0  0  0
 17 14  2  0  0  0  0
 17 16  1  0  0  0  0
 18 25  1  0  0  0  0
 20 22  1  1  0  0  0
 20 26  1  0  0  0  0
 20 18  1  0  0  0  0
 21 23  1  1  0  0  0
 21 19  1  0  0  0  0
 24 26  1  0  0  0  0
 25 16  1  0  0  0  0
 25 19  1  0  0  0  0
 26 27  1  0  0  0  0
 26 21  1  0  0  0  0
 28 30  2  0  0  0  0
 28 29  1  0  0  0  0
 29 17  1  0  0  0  0
 31 29  1  0  0  0  0
 32 35  2  0  0  0  0
 33 34  2  0  0  0  0
 34 28  1  0  0  0  0
 35 34  1  0  0  0  0
 35 40  1  0  0  0  0
 36 37  1  0  0  0  0
 36 32  1  0  0  0  0
 37 33  1  0  0  0  0
 38 36  2  0  0  0  0
 39 37  1  0  0  0  0
 40 42  1  0  0  0  0
 40 43  1  0  0  0  0
 41 40  1  0  0  0  0
 44  2  1  0  0  0  0
 45 44  1  0  0  0  0
 46 48  1  0  0  0  0
 46 45  1  0  0  0  0
 47 45  2  0  0  0  0
 49 50  1  6  0  0  0
 49 46  1  0  0  0  0
 50 56  2  0  0  0  0
 51 53  1  0  0  0  0
 52 55  1  0  0  0  0
 53 57  1  6  0  0  0
 53 55  1  0  0  0  0
 54 75  1  1  0  0  0
 54 51  1  0  0  0  0
 54 52  1  0  0  0  0
 55 50  1  0  0  0  0
 57 58  1  0  0  0  0
 58 60  1  0  0  0  0
 59 57  2  0  0  0  0
 62 61  1  6  0  0  0
 62 58  1  0  0  0  0
 63 65  2  0  0  0  0
 63 67  1  0  0  0  0
 64 66  1  0  0  0  0
 65 68  1  0  0  0  0
 67 64  2  0  0  0  0
 68 62  1  0  0  0  0
 68 66  2  0  0  0  0
 69 73  2  0  0  0  0
 70 71  2  0  0  0  0
 70 67  1  0  0  0  0
 71 72  1  0  0  0  0
 73 71  1  0  0  0  0
 74 69  1  0  0  0  0
 74 70  1  0  0  0  0
 76 75  1  0  0  0  0
 77 80  1  0  0  0  0
 79 80  1  0  0  0  0
 80 78  1  0  0  0  0
 80 49  1  0  0  0  0
M  END
>  <MODEL>
2

>  <REMARK>
 VINA RESULT:   -11.334      2.874      8.730
 INTER + INTRA:         -26.674
 INTER:                 -21.604
 INTRA:                  -5.070
 UNBOUND:                -5.070
  Name = 
  24 active torsions:
  status: ('A' for Active; 'I' for Inactive)
    1  A    between atoms: C_12  and  C_20
    2  A    between atoms: C_13  and  C_14
    3  A    between atoms: C_15  and  C_27
    4  A    between atoms: C_16  and  C_49
    5  A    between atoms: C_17  and  N_55
    6  A    between atoms: C_18  and  N_57
    7  A    between atoms: C_21  and  C_40
    8  A    between atoms: C_24  and  C_28
    9  A    between atoms: C_25  and  C_51
   10  A    between atoms: C_29  and  C_36
   11  A    between atoms: C_30  and  C_50
   12  A    between atoms: C_31  and  C_48
   13  A    between atoms: C_37  and  O_68
   14  A    between atoms: C_38  and  C_41
   15  A    between atoms: C_39  and  C_42
   16  A    between atoms: C_43  and  C_49
   17  A    between atoms: C_44  and  C_52
   18  A    between atoms: C_45  and  C_52
   19  A    between atoms: C_46  and  C_52
   20  A    between atoms: C_47  and  N_61
   21  A    between atoms: C_48  and  N_58
   22  A    between atoms: C_49  and  N_59
   23  A    between atoms: C_50  and  C_52
   24  A    between atoms: C_50  and  N_60
                            x       y       z     vdW  Elec       q    Type
                         _______ _______ _______ _____ _____    ______ ____

>  <TORSDO>
F 16

$$$$
