MODEL 1
REMARK VINA RESULT:   -11.365      0.000      0.000
REMARK INTER + INTRA:         -26.734
REMARK INTER:                 -20.305
REMARK INTRA:                  -6.429
REMARK UNBOUND:                -5.070
REMARK  Name = 
REMARK  24 active torsions:
REMARK  status: ('A' for Active; 'I' for Inactive)
REMARK    1  A    between atoms: C_12  and  C_20
REMARK    2  A    between atoms: C_13  and  C_14
REMARK    3  A    between atoms: C_15  and  C_27
REMARK    4  A    between atoms: C_16  and  C_49
REMARK    5  A    between atoms: C_17  and  N_55
REMARK    6  A    between atoms: C_18  and  N_57
REMARK    7  A    between atoms: C_21  and  C_40
REMARK    8  A    between atoms: C_24  and  C_28
REMARK    9  A    between atoms: C_25  and  C_51
REMARK   10  A    between atoms: C_29  and  C_36
REMARK   11  A    between atoms: C_30  and  C_50
REMARK   12  A    between atoms: C_31  and  C_48
REMARK   13  A    between atoms: C_37  and  O_68
REMARK   14  A    between atoms: C_38  and  C_41
REMARK   15  A    between atoms: C_39  and  C_42
REMARK   16  A    between atoms: C_43  and  C_49
REMARK   17  A    between atoms: C_44  and  C_52
REMARK   18  A    between atoms: C_45  and  C_52
REMARK   19  A    between atoms: C_46  and  C_52
REMARK   20  A    between atoms: C_47  and  N_61
REMARK   21  A    between atoms: C_48  and  N_58
REMARK   22  A    between atoms: C_49  and  N_59
REMARK   23  A    between atoms: C_50  and  C_52
REMARK   24  A    between atoms: C_50  and  N_60
REMARK                            x       y       z     vdW  Elec       q    Type
REMARK                         _______ _______ _______ _____ _____    ______ ____
ROOT
ATOM      1  C   UNL     1      10.495  11.943 -16.125  0.00  0.00    +0.000 C 
ATOM      2  N   UNL     1       9.759  13.069 -16.511  0.00  0.00    +0.000 N 
ATOM      3  O   UNL     1      11.193  11.294 -16.921  0.00  0.00    +0.000 OA
ATOM      4  H   UNL     1       9.226  13.536 -15.826  0.00  0.00    +0.000 HD
ENDROOT
BRANCH   1   9
ATOM      5  C   UNL     1      11.332  11.985 -13.803  0.00  0.00    +0.000 A 
ATOM      6  C   UNL     1      11.232  11.597 -12.468  0.00  0.00    +0.000 A 
ATOM      7  C   UNL     1       9.352  10.700 -14.323  0.00  0.00    +0.000 A 
ATOM      8  C   UNL     1       9.253  10.313 -12.987  0.00  0.00    +0.000 A 
ATOM      9  C   UNL     1      10.391  11.536 -14.732  0.00  0.00    +0.000 A 
ATOM     10  C   UNL     1      10.193  10.761 -12.060  0.00  0.00    +0.000 A 
ATOM     11  F   UNL     1      10.112  10.396 -10.771  0.00  0.00    +0.000 F 
BRANCH   8  15
ATOM     12  C   UNL     1       7.434   9.755 -11.426  0.00  0.00    +0.000 A 
ATOM     13  C   UNL     1       6.393   8.919 -11.021  0.00  0.00    +0.000 A 
ATOM     14  C   UNL     1       7.873   8.299 -13.304  0.00  0.00    +0.000 A 
ATOM     15  C   UNL     1       8.174   9.445 -12.567  0.00  0.00    +0.000 A 
ATOM     16  C   UNL     1       6.093   7.773 -11.757  0.00  0.00    +0.000 A 
ATOM     17  C   UNL     1       6.833   7.463 -12.898  0.00  0.00    +0.000 A 
BRANCH  16  25
ATOM     18  C   UNL     1       5.282   5.960 -10.284  0.00  0.00    +0.000 C 
ATOM     19  C   UNL     1       3.690   7.489 -11.400  0.00  0.00    +0.000 C 
ATOM     20  C   UNL     1       4.277   4.807 -10.378  0.00  0.00    +0.000 C 
ATOM     21  C   UNL     1       2.657   6.365 -11.527  0.00  0.00    +0.000 C 
ATOM     22  C   UNL     1       4.495   3.859  -9.196  0.00  0.00    +0.000 C 
ATOM     23  C   UNL     1       1.253   6.970 -11.497  0.00  0.00    +0.000 C 
ATOM     24  C   UNL     1       1.808   4.266 -10.401  0.00  0.00    +0.000 C 
ATOM     25  N   UNL     1       5.045   6.948 -11.332  0.00  0.00    +0.000 N 
ATOM     26  N   UNL     1       2.850   5.366 -10.381  0.00  0.00    +0.000 N 
ATOM     27  H   UNL     1       2.716   5.872  -9.506  0.00  0.00    +0.000 HD
ENDBRANCH  16  25
BRANCH  17  29
ATOM     28  C   UNL     1       6.042   6.254 -14.950  0.00  0.00    +0.000 C 
ATOM     29  N   UNL     1       6.549   6.320 -13.651  0.00  0.00    +0.000 N 
ATOM     30  O   UNL     1       5.742   7.179 -15.694  0.00  0.00    +0.000 OA
ATOM     31  H   UNL     1       6.729   5.456 -13.212  0.00  0.00    +0.000 HD
BRANCH  28  34
ATOM     32  C   UNL     1       6.655   2.856 -16.522  0.00  0.00    +0.000 A 
ATOM     33  C   UNL     1       4.694   4.286 -15.148  0.00  0.00    +0.000 A 
ATOM     34  C   UNL     1       5.873   4.863 -15.418  0.00  0.00    +0.000 A 
ATOM     35  C   UNL     1       6.900   4.122 -16.135  0.00  0.00    +0.000 A 
ATOM     36  C   UNL     1       5.344   2.210 -16.223  0.00  0.00    +0.000 A 
ATOM     37  N   UNL     1       4.436   2.996 -15.539  0.00  0.00    +0.000 N 
ATOM     38  O   UNL     1       5.127   1.055 -16.578  0.00  0.00    +0.000 OA
ATOM     39  H   UNL     1       3.557   2.611 -15.321  0.00  0.00    +0.000 HD
BRANCH  35  40
ATOM     40  C   UNL     1       8.216   4.778 -16.432  0.00  0.00    +0.000 C 
ATOM     41  F   UNL     1       8.041   5.891 -17.172  0.00  0.00    +0.000 F 
ATOM     42  F   UNL     1       8.847   5.129 -15.294  0.00  0.00    +0.000 F 
ATOM     43  F   UNL     1       9.027   3.947 -17.117  0.00  0.00    +0.000 F 
ENDBRANCH  35  40
ENDBRANCH  28  34
ENDBRANCH  17  29
ENDBRANCH   8  15
ENDBRANCH   1   9
BRANCH   2  44
ATOM     44  C   UNL     1       9.738  13.585 -17.862  0.00  0.00    +0.000 C 
BRANCH  44  45
ATOM     45  C   UNL     1       8.925  12.663 -18.745  0.00  0.00    +0.000 C 
ATOM     46  N   UNL     1       8.249  11.710 -17.997  0.00  0.00    +0.000 N 
ATOM     47  O   UNL     1       8.911  12.743 -19.970  0.00  0.00    +0.000 OA
ATOM     48  H   UNL     1       8.330  11.739 -17.016  0.00  0.00    +0.000 HD
BRANCH  46  49
ATOM     49  C   UNL     1       7.430  10.676 -18.589  0.00  0.00    +0.000 C 
BRANCH  49  50
ATOM     50  C   UNL     1       6.103  10.718 -17.874  0.00  0.00    +0.000 C 
ATOM     51  C   UNL     1       3.131  12.680 -18.785  0.00  0.00    +0.000 C 
ATOM     52  C   UNL     1       5.201  12.075 -19.820  0.00  0.00    +0.000 C 
ATOM     53  C   UNL     1       3.770  11.583 -17.944  0.00  0.00    +0.000 C 
ATOM     54  C   UNL     1       3.780  12.502 -20.158  0.00  0.00    +0.000 C 
ATOM     55  N   UNL     1       5.093  11.401 -18.529  0.00  0.00    +0.000 N 
ATOM     56  O   UNL     1       5.966  10.161 -16.784  0.00  0.00    +0.000 OA
BRANCH  53  57
ATOM     57  C   UNL     1       2.915  10.334 -18.047  0.00  0.00    +0.000 C 
ATOM     58  N   UNL     1       3.297   9.474 -19.060  0.00  0.00    +0.000 N 
ATOM     59  O   UNL     1       1.987  10.170 -17.265  0.00  0.00    +0.000 OA
ATOM     60  H   UNL     1       4.065   9.723 -19.622  0.00  0.00    +0.000 HD
BRANCH  58  62
ATOM     61  C   UNL     1       1.622   8.394 -20.476  0.00  0.00    +0.000 C 
ATOM     62  C   UNL     1       2.621   8.225 -19.333  0.00  0.00    +0.000 C 
BRANCH  62  68
ATOM     63  C   UNL     1       5.056   5.899 -21.098  0.00  0.00    +0.000 A 
ATOM     64  C   UNL     1       4.904   5.235 -18.780  0.00  0.00    +0.000 A 
ATOM     65  C   UNL     1       4.143   6.928 -20.864  0.00  0.00    +0.000 A 
ATOM     66  C   UNL     1       3.991   6.263 -18.545  0.00  0.00    +0.000 A 
ATOM     67  C   UNL     1       5.437   5.053 -20.056  0.00  0.00    +0.000 A 
ATOM     68  C   UNL     1       3.611   7.109 -19.588  0.00  0.00    +0.000 A 
BRANCH  67  70
ATOM     69  C   UNL     1       7.440   1.857 -20.662  0.00  0.00    +0.000 A 
ATOM     70  C   UNL     1       6.380   3.989 -20.300  0.00  0.00    +0.000 A 
ATOM     71  C   UNL     1       7.743   4.023 -20.503  0.00  0.00    +0.000 A 
ATOM     72  C   UNL     1       8.595   5.231 -20.516  0.00  0.00    +0.000 C 
ATOM     73  N   UNL     1       8.353   2.801 -20.711  0.00  0.00    +0.000 NA
ATOM     74  S   UNL     1       5.828   2.367 -20.371  0.00  0.00    +0.000 S 
ENDBRANCH  67  70
ENDBRANCH  62  68
ENDBRANCH  58  62
ENDBRANCH  53  57
BRANCH  54  75
ATOM     75  O   UNL     1       3.773  13.711 -20.890  0.00  0.00    +0.000 OA
ATOM     76  H   UNL     1       4.650  13.861 -21.275  0.00  0.00    +0.000 HD
ENDBRANCH  54  75
ENDBRANCH  49  50
BRANCH  49  80
ATOM     77  C   UNL     1       9.330   9.164 -19.468  0.00  0.00    +0.000 C 
ATOM     78  C   UNL     1       7.061   8.204 -19.021  0.00  0.00    +0.000 C 
ATOM     79  C   UNL     1       8.509   8.917 -17.119  0.00  0.00    +0.000 C 
ATOM     80  C   UNL     1       8.086   9.264 -18.563  0.00  0.00    +0.000 C 
ENDBRANCH  49  80
ENDBRANCH  46  49
ENDBRANCH  44  45
ENDBRANCH   2  44
TORSDOF 16
ENDMDL
MODEL 2
REMARK VINA RESULT:   -11.334      2.874      8.730
REMARK INTER + INTRA:         -26.674
REMARK INTER:                 -21.604
REMARK INTRA:                  -5.070
REMARK UNBOUND:                -5.070
REMARK  Name = 
REMARK  24 active torsions:
REMARK  status: ('A' for Active; 'I' for Inactive)
REMARK    1  A    between atoms: C_12  and  C_20
REMARK    2  A    between atoms: C_13  and  C_14
REMARK    3  A    between atoms: C_15  and  C_27
REMARK    4  A    between atoms: C_16  and  C_49
REMARK    5  A    between atoms: C_17  and  N_55
REMARK    6  A    between atoms: C_18  and  N_57
REMARK    7  A    between atoms: C_21  and  C_40
REMARK    8  A    between atoms: C_24  and  C_28
REMARK    9  A    between atoms: C_25  and  C_51
REMARK   10  A    between atoms: C_29  and  C_36
REMARK   11  A    between atoms: C_30  and  C_50
REMARK   12  A    between atoms: C_31  and  C_48
REMARK   13  A    between atoms: C_37  and  O_68
REMARK   14  A    between atoms: C_38  and  C_41
REMARK   15  A    between atoms: C_39  and  C_42
REMARK   16  A    between atoms: C_43  and  C_49
REMARK   17  A    between atoms: C_44  and  C_52
REMARK   18  A    between atoms: C_45  and  C_52
REMARK   19  A    between atoms: C_46  and  C_52
REMARK   20  A    between atoms: C_47  and  N_61
REMARK   21  A    between atoms: C_48  and  N_58
REMARK   22  A    between atoms: C_49  and  N_59
REMARK   23  A    between atoms: C_50  and  C_52
REMARK   24  A    between atoms: C_50  and  N_60
REMARK                            x       y       z     vdW  Elec       q    Type
REMARK                         _______ _______ _______ _____ _____    ______ ____
ROOT
ATOM      1  C   UNL     1       5.289   7.708 -10.802  0.00  0.00    +0.000 C 
ATOM      2  N   UNL     1       5.166   6.332 -11.027  0.00  0.00    +0.000 N 
ATOM      3  O   UNL     1       4.405   8.520 -11.122  0.00  0.00    +0.000 OA
ATOM      4  H   UNL     1       5.907   5.746 -10.747  0.00  0.00    +0.000 HD
ENDROOT
BRANCH   1   9
ATOM      5  C   UNL     1       6.893   7.699  -8.926  0.00  0.00    +0.000 A 
ATOM      6  C   UNL     1       8.080   8.136  -8.340  0.00  0.00    +0.000 A 
ATOM      7  C   UNL     1       7.347   9.070 -10.864  0.00  0.00    +0.000 A 
ATOM      8  C   UNL     1       8.535   9.507 -10.276  0.00  0.00    +0.000 A 
ATOM      9  C   UNL     1       6.527   8.167 -10.189  0.00  0.00    +0.000 A 
ATOM     10  C   UNL     1       8.901   9.041  -9.014  0.00  0.00    +0.000 A 
ATOM     11  F   UNL     1      10.038   9.452  -8.435  0.00  0.00    +0.000 F 
BRANCH   8  15
ATOM     12  C   UNL     1      10.392  11.121 -10.293  0.00  0.00    +0.000 A 
ATOM     13  C   UNL     1      11.211  12.026 -10.969  0.00  0.00    +0.000 A 
ATOM     14  C   UNL     1       9.191  10.676 -12.341  0.00  0.00    +0.000 A 
ATOM     15  C   UNL     1       9.382  10.446 -10.979  0.00  0.00    +0.000 A 
ATOM     16  C   UNL     1      11.019  12.256 -12.330  0.00  0.00    +0.000 A 
ATOM     17  C   UNL     1      10.009  11.581 -13.017  0.00  0.00    +0.000 A 
BRANCH  16  25
ATOM     18  C   UNL     1      11.266  14.177 -13.867  0.00  0.00    +0.000 C 
ATOM     19  C   UNL     1      13.094  13.550 -12.324  0.00  0.00    +0.000 C 
ATOM     20  C   UNL     1      12.280  14.649 -14.915  0.00  0.00    +0.000 C 
ATOM     21  C   UNL     1      14.146  13.999 -13.344  0.00  0.00    +0.000 C 
ATOM     22  C   UNL     1      11.658  15.780 -15.736  0.00  0.00    +0.000 C 
ATOM     23  C   UNL     1      15.392  14.479 -12.599  0.00  0.00    +0.000 C 
ATOM     24  C   UNL     1      14.580  15.660 -15.199  0.00  0.00    +0.000 C 
ATOM     25  N   UNL     1      11.851  13.169 -12.989  0.00  0.00    +0.000 N 
ATOM     26  N   UNL     1      13.562  15.115 -14.217  0.00  0.00    +0.000 N 
ATOM     27  H   UNL     1      13.315  15.889 -13.602  0.00  0.00    +0.000 HD
ENDBRANCH  16  25
BRANCH  17  29
ATOM     28  C   UNL     1       9.659  10.839 -15.388  0.00  0.00    +0.000 C 
ATOM     29  N   UNL     1       9.798  11.797 -14.382  0.00  0.00    +0.000 N 
ATOM     30  O   UNL     1       9.691   9.620 -15.283  0.00  0.00    +0.000 OA
ATOM     31  H   UNL     1       9.742  12.738 -14.669  0.00  0.00    +0.000 HD
BRANCH  28  34
ATOM     32  C   UNL     1       8.104  12.610 -18.362  0.00  0.00    +0.000 A 
ATOM     33  C   UNL     1      10.483  11.392 -17.566  0.00  0.00    +0.000 A 
ATOM     34  C   UNL     1       9.447  11.447 -16.718  0.00  0.00    +0.000 A 
ATOM     35  C   UNL     1       8.203  12.081 -17.128  0.00  0.00    +0.000 A 
ATOM     36  C   UNL     1       9.255  12.551 -19.308  0.00  0.00    +0.000 A 
ATOM     37  N   UNL     1      10.391  11.928 -18.826  0.00  0.00    +0.000 N 
ATOM     38  O   UNL     1       9.159  13.035 -20.433  0.00  0.00    +0.000 OA
ATOM     39  H   UNL     1      11.176  11.866 -19.417  0.00  0.00    +0.000 HD
BRANCH  35  40
ATOM     40  C   UNL     1       7.049  12.136 -16.171  0.00  0.00    +0.000 C 
ATOM     41  F   UNL     1       5.918  12.505 -16.803  0.00  0.00    +0.000 F 
ATOM     42  F   UNL     1       6.836  10.931 -15.604  0.00  0.00    +0.000 F 
ATOM     43  F   UNL     1       7.281  13.023 -15.183  0.00  0.00    +0.000 F 
ENDBRANCH  35  40
ENDBRANCH  28  34
ENDBRANCH  17  29
ENDBRANCH   8  15
ENDBRANCH   1   9
BRANCH   2  44
ATOM     44  C   UNL     1       4.011   5.724 -11.646  0.00  0.00    +0.000 C 
BRANCH  44  45
ATOM     45  C   UNL     1       4.387   5.191 -13.012  0.00  0.00    +0.000 C 
ATOM     46  N   UNL     1       3.894   6.001 -14.026  0.00  0.00    +0.000 N 
ATOM     47  O   UNL     1       5.018   4.151 -13.180  0.00  0.00    +0.000 OA
ATOM     48  H   UNL     1       3.401   6.816 -13.778  0.00  0.00    +0.000 HD
BRANCH  46  49
ATOM     49  C   UNL     1       4.071   5.704 -15.430  0.00  0.00    +0.000 C 
BRANCH  49  50
ATOM     50  C   UNL     1       5.460   6.164 -15.794  0.00  0.00    +0.000 C 
ATOM     51  C   UNL     1       8.206   4.131 -17.150  0.00  0.00    +0.000 C 
ATOM     52  C   UNL     1       5.852   3.873 -16.813  0.00  0.00    +0.000 C 
ATOM     53  C   UNL     1       7.629   5.501 -16.821  0.00  0.00    +0.000 C 
ATOM     54  C   UNL     1       6.998   3.349 -17.666  0.00  0.00    +0.000 C 
ATOM     55  N   UNL     1       6.243   5.233 -16.454  0.00  0.00    +0.000 N 
ATOM     56  O   UNL     1       5.832   7.304 -15.512  0.00  0.00    +0.000 OA
BRANCH  53  57
ATOM     57  C   UNL     1       7.740   6.383 -18.051  0.00  0.00    +0.000 C 
ATOM     58  N   UNL     1       8.128   7.681 -17.778  0.00  0.00    +0.000 N 
ATOM     59  O   UNL     1       7.493   5.914 -19.155  0.00  0.00    +0.000 OA
ATOM     60  H   UNL     1       8.297   7.933 -16.842  0.00  0.00    +0.000 HD
BRANCH  58  62
ATOM     61  C   UNL     1       9.025   8.104 -20.012  0.00  0.00    +0.000 C 
ATOM     62  C   UNL     1       8.297   8.687 -18.803  0.00  0.00    +0.000 C 
BRANCH  62  68
ATOM     63  C   UNL     1       5.583  10.476 -20.774  0.00  0.00    +0.000 A 
ATOM     64  C   UNL     1       4.707   9.922 -18.591  0.00  0.00    +0.000 A 
ATOM     65  C   UNL     1       6.803   9.892 -20.433  0.00  0.00    +0.000 A 
ATOM     66  C   UNL     1       5.927   9.337 -18.250  0.00  0.00    +0.000 A 
ATOM     67  C   UNL     1       4.535  10.491 -19.853  0.00  0.00    +0.000 A 
ATOM     68  C   UNL     1       6.974   9.322 -19.172  0.00  0.00    +0.000 A 
BRANCH  67  70
ATOM     69  C   UNL     1       1.081  11.561 -21.086  0.00  0.00    +0.000 A 
ATOM     70  C   UNL     1       3.274  11.097 -20.205  0.00  0.00    +0.000 A 
ATOM     71  C   UNL     1       2.753  12.336 -19.897  0.00  0.00    +0.000 A 
ATOM     72  C   UNL     1       3.411  13.386 -19.091  0.00  0.00    +0.000 C 
ATOM     73  N   UNL     1       1.496  12.604 -20.402  0.00  0.00    +0.000 NA
ATOM     74  S   UNL     1       2.152  10.222 -21.163  0.00  0.00    +0.000 S 
ENDBRANCH  67  70
ENDBRANCH  62  68
ENDBRANCH  58  62
ENDBRANCH  53  57
BRANCH  54  75
ATOM     75  O   UNL     1       7.171   1.957 -17.486  0.00  0.00    +0.000 OA
ATOM     76  H   UNL     1       6.401   1.487 -17.841  0.00  0.00    +0.000 HD
ENDBRANCH  54  75
ENDBRANCH  49  50
BRANCH  49  80
ATOM     77  C   UNL     1       3.441   6.515 -17.799  0.00  0.00    +0.000 C 
ATOM     78  C   UNL     1       2.538   7.693 -15.783  0.00  0.00    +0.000 C 
ATOM     79  C   UNL     1       1.730   5.402 -16.354  0.00  0.00    +0.000 C 
ATOM     80  C   UNL     1       2.971   6.321 -16.344  0.00  0.00    +0.000 C 
ENDBRANCH  49  80
ENDBRANCH  46  49
ENDBRANCH  44  45
ENDBRANCH   2  44
TORSDOF 16
ENDMDL
