REMARK  Name = 
REMARK  24 active torsions:
REMARK  status: ('A' for Active; 'I' for Inactive)
REMARK    1  A    between atoms: C_12  and  C_20
REMARK    2  A    between atoms: C_13  and  C_14
REMARK    3  A    between atoms: C_15  and  C_27
REMARK    4  A    between atoms: C_16  and  C_49
REMARK    5  A    between atoms: C_17  and  N_55
REMARK    6  A    between atoms: C_18  and  N_57
REMARK    7  A    between atoms: C_21  and  C_40
REMARK    8  A    between atoms: C_24  and  C_28
REMARK    9  A    between atoms: C_25  and  C_51
REMARK   10  A    between atoms: C_29  and  C_36
REMARK   11  A    between atoms: C_30  and  C_50
REMARK   12  A    between atoms: C_31  and  C_48
REMARK   13  A    between atoms: C_37  and  O_68
REMARK   14  A    between atoms: C_38  and  C_41
REMARK   15  A    between atoms: C_39  and  C_42
REMARK   16  A    between atoms: C_43  and  C_49
REMARK   17  A    between atoms: C_44  and  C_52
REMARK   18  A    between atoms: C_45  and  C_52
REMARK   19  A    between atoms: C_46  and  C_52
REMARK   20  A    between atoms: C_47  and  N_61
REMARK   21  A    between atoms: C_48  and  N_58
REMARK   22  A    between atoms: C_49  and  N_59
REMARK   23  A    between atoms: C_50  and  C_52
REMARK   24  A    between atoms: C_50  and  N_60
REMARK                            x       y       z     vdW  Elec       q    Type
REMARK                         _______ _______ _______ _____ _____    ______ ____
ROOT
ATOM      1  C   UNL     1       7.536   7.580  -8.894  0.00  0.00    +0.000 C 
ATOM      2  N   UNL     1       7.799   6.765 -10.001  0.00  0.00    +0.000 N 
ATOM      3  O   UNL     1       7.055   7.138  -7.837  0.00  0.00    +0.000 OA
ATOM      4  H   UNL     1       8.181   7.183 -10.807  0.00  0.00    +0.000 HD
ENDROOT
BRANCH   1   9
ATOM      5  C   UNL     1       7.124   9.934  -8.278  0.00  0.00    +0.000 A 
ATOM      6  C   UNL     1       7.406  11.293  -8.411  0.00  0.00    +0.000 A 
ATOM      7  C   UNL     1       8.815   9.422  -9.926  0.00  0.00    +0.000 A 
ATOM      8  C   UNL     1       9.097  10.782 -10.059  0.00  0.00    +0.000 A 
ATOM      9  C   UNL     1       7.829   8.998  -9.036  0.00  0.00    +0.000 A 
ATOM     10  C   UNL     1       8.392  11.717  -9.302  0.00  0.00    +0.000 A 
ATOM     11  F   UNL     1       8.650  13.028  -9.419  0.00  0.00    +0.000 F 
BRANCH   8  15
ATOM     12  C   UNL     1      11.226  11.928 -10.517  0.00  0.00    +0.000 A 
ATOM     13  C   UNL     1      12.213  12.348 -11.408  0.00  0.00    +0.000 A 
ATOM     14  C   UNL     1      10.001  10.928 -12.344  0.00  0.00    +0.000 A 
ATOM     15  C   UNL     1      10.120  11.218 -10.985  0.00  0.00    +0.000 A 
ATOM     16  C   UNL     1      12.094  12.059 -12.767  0.00  0.00    +0.000 A 
ATOM     17  C   UNL     1      10.988  11.349 -13.235  0.00  0.00    +0.000 A 
BRANCH  16  25
ATOM     18  C   UNL     1      13.386  13.916 -13.764  0.00  0.00    +0.000 C 
ATOM     19  C   UNL     1      14.223  11.591 -13.877  0.00  0.00    +0.000 C 
ATOM     20  C   UNL     1      14.021  14.236 -15.122  0.00  0.00    +0.000 C 
ATOM     21  C   UNL     1      14.865  11.860 -15.242  0.00  0.00    +0.000 C 
ATOM     22  C   UNL     1      14.408  15.716 -15.155  0.00  0.00    +0.000 C 
ATOM     23  C   UNL     1      16.095  10.965 -15.401  0.00  0.00    +0.000 C 
ATOM     24  C   UNL     1      15.959  13.660 -16.640  0.00  0.00    +0.000 C 
ATOM     25  N   UNL     1      13.096  12.491 -13.644  0.00  0.00    +0.000 N 
ATOM     26  N   UNL     1      15.246  13.341 -15.341  0.00  0.00    +0.000 N 
ATOM     27  H   UNL     1      15.910  13.539 -14.594  0.00  0.00    +0.000 HD
ENDBRANCH  16  25
BRANCH  17  29
ATOM     28  C   UNL     1       9.809  10.352 -15.213  0.00  0.00    +0.000 C 
ATOM     29  N   UNL     1      10.848  11.048 -14.593  0.00  0.00    +0.000 N 
ATOM     30  O   UNL     1       8.811   9.864 -14.698  0.00  0.00    +0.000 OA
ATOM     31  H   UNL     1      11.570  11.365 -15.184  0.00  0.00    +0.000 HD
BRANCH  28  34
ATOM     32  C   UNL     1       9.747  11.005 -18.950  0.00  0.00    +0.000 A 
ATOM     33  C   UNL     1      10.677   9.147 -17.090  0.00  0.00    +0.000 A 
ATOM     34  C   UNL     1      10.006  10.229 -16.672  0.00  0.00    +0.000 A 
ATOM     35  C   UNL     1       9.518  11.202 -17.638  0.00  0.00    +0.000 A 
ATOM     36  C   UNL     1      10.494   9.802 -19.419  0.00  0.00    +0.000 A 
ATOM     37  N   UNL     1      10.915   8.938 -18.425  0.00  0.00    +0.000 N 
ATOM     38  O   UNL     1      10.700   9.628 -20.617  0.00  0.00    +0.000 OA
ATOM     39  H   UNL     1      11.411   8.130 -18.689  0.00  0.00    +0.000 HD
BRANCH  35  40
ATOM     40  C   UNL     1       8.767  12.409 -17.159  0.00  0.00    +0.000 C 
ATOM     41  F   UNL     1       8.399  13.188 -18.195  0.00  0.00    +0.000 F 
ATOM     42  F   UNL     1       7.652  12.049 -16.492  0.00  0.00    +0.000 F 
ATOM     43  F   UNL     1       9.525  13.152 -16.329  0.00  0.00    +0.000 F 
ENDBRANCH  35  40
ENDBRANCH  28  34
ENDBRANCH  17  29
ENDBRANCH   8  15
ENDBRANCH   1   9
BRANCH   2  44
ATOM     44  C   UNL     1       7.541   5.343 -10.025  0.00  0.00    +0.000 C 
BRANCH  44  45
ATOM     45  C   UNL     1       6.136   5.090 -10.528  0.00  0.00    +0.000 C 
ATOM     46  N   UNL     1       5.594   3.943  -9.964  0.00  0.00    +0.000 N 
ATOM     47  O   UNL     1       5.579   5.801 -11.360  0.00  0.00    +0.000 OA
ATOM     48  H   UNL     1       6.130   3.447  -9.304  0.00  0.00    +0.000 HD
BRANCH  46  49
ATOM     49  C   UNL     1       4.280   3.443 -10.300  0.00  0.00    +0.000 C 
BRANCH  49  50
ATOM     50  C   UNL     1       3.442   3.568  -9.053  0.00  0.00    +0.000 C 
ATOM     51  C   UNL     1       0.757   5.991  -8.396  0.00  0.00    +0.000 C 
ATOM     52  C   UNL     1       2.009   5.254 -10.296  0.00  0.00    +0.000 C 
ATOM     53  C   UNL     1       1.508   4.728  -7.998  0.00  0.00    +0.000 C 
ATOM     54  C   UNL     1       0.682   5.898  -9.920  0.00  0.00    +0.000 C 
ATOM     55  N   UNL     1       2.377   4.449  -9.135  0.00  0.00    +0.000 N 
ATOM     56  O   UNL     1       3.715   2.907  -8.050  0.00  0.00    +0.000 OA
BRANCH  53  57
ATOM     57  C   UNL     1       0.500   3.620  -7.756  0.00  0.00    +0.000 C 
ATOM     58  N   UNL     1       0.092   3.509  -6.440  0.00  0.00    +0.000 N 
ATOM     59  O   UNL     1       0.127   2.927  -8.695  0.00  0.00    +0.000 OA
ATOM     60  H   UNL     1       0.470   4.131  -5.778  0.00  0.00    +0.000 HD
BRANCH  58  62
ATOM     61  C   UNL     1      -0.170   1.191  -5.709  0.00  0.00    +0.000 C 
ATOM     62  C   UNL     1      -0.864   2.522  -5.990  0.00  0.00    +0.000 C 
BRANCH  62  68
ATOM     63  C   UNL     1      -3.760   3.684  -3.818  0.00  0.00    +0.000 A 
ATOM     64  C   UNL     1      -1.735   3.760  -2.502  0.00  0.00    +0.000 A 
ATOM     65  C   UNL     1      -3.031   3.220  -4.913  0.00  0.00    +0.000 A 
ATOM     66  C   UNL     1      -1.006   3.296  -3.597  0.00  0.00    +0.000 A 
ATOM     67  C   UNL     1      -3.112   3.954  -2.612  0.00  0.00    +0.000 A 
ATOM     68  C   UNL     1      -1.655   3.026  -4.802  0.00  0.00    +0.000 A 
BRANCH  67  70
ATOM     69  C   UNL     1      -4.905   4.713   0.675  0.00  0.00    +0.000 A 
ATOM     70  C   UNL     1      -3.866   4.435  -1.480  0.00  0.00    +0.000 A 
ATOM     71  C   UNL     1      -4.632   5.571  -1.325  0.00  0.00    +0.000 A 
ATOM     72  C   UNL     1      -4.868   6.612  -2.347  0.00  0.00    +0.000 C 
ATOM     73  N   UNL     1      -5.229   5.732  -0.090  0.00  0.00    +0.000 NA
ATOM     74  S   UNL     1      -3.885   3.525  -0.026  0.00  0.00    +0.000 S 
ENDBRANCH  67  70
ENDBRANCH  62  68
ENDBRANCH  58  62
ENDBRANCH  53  57
BRANCH  54  75
ATOM     75  O   UNL     1       0.553   7.177 -10.508  0.00  0.00    +0.000 OA
ATOM     76  H   UNL     1       1.298   7.735 -10.236  0.00  0.00    +0.000 HD
ENDBRANCH  54  75
ENDBRANCH  49  50
BRANCH  49  80
ATOM     77  C   UNL     1       5.110   1.877 -12.178  0.00  0.00    +0.000 C 
ATOM     78  C   UNL     1       2.842   1.544 -11.171  0.00  0.00    +0.000 C 
ATOM     79  C   UNL     1       4.886   1.026  -9.837  0.00  0.00    +0.000 C 
ATOM     80  C   UNL     1       4.289   1.997 -10.879  0.00  0.00    +0.000 C 
ENDBRANCH  49  80
ENDBRANCH  46  49
ENDBRANCH  44  45
ENDBRANCH   2  44
TORSDOF 16
