=
                    3D
 Structure written by MMmdl.
 79 85  0  0  1  0            999 V2000
   10.4950   11.9430  -16.1250 C   0  0  0  0  0  0
    9.7590   13.0690  -16.5110 N   0  0  0  0  0  0
   11.1930   11.2940  -16.9210 O   0  0  0  0  0  0
    9.2260   13.5360  -15.8260 H   0  0  0  0  0  0
   11.3320   11.9850  -13.8030 C   0  0  0  0  0  0
   11.2320   11.5970  -12.4680 C   0  0  0  0  0  0
    9.3520   10.7000  -14.3230 C   0  0  0  0  0  0
    9.2530   10.3130  -12.9870 C   0  0  0  0  0  0
   10.3910   11.5360  -14.7320 C   0  0  0  0  0  0
   10.1930   10.7610  -12.0600 C   0  0  0  0  0  0
   10.1120   10.3960  -10.7710 F   0  0  0  0  0  0
    7.4340    9.7550  -11.4260 C   0  0  0  0  0  0
    6.3930    8.9190  -11.0210 C   0  0  0  0  0  0
    7.8730    8.2990  -13.3040 C   0  0  0  0  0  0
    8.1740    9.4450  -12.5670 C   0  0  0  0  0  0
    6.0930    7.7730  -11.7570 C   0  0  0  0  0  0
    6.8330    7.4630  -12.8980 C   0  0  0  0  0  0
    5.2820    5.9600  -10.2840 C   0  0  0  0  0  0
    3.6900    7.4890  -11.4000 C   0  0  0  0  0  0
    4.2770    4.8070  -10.3780 C   0  0  1  0  0  0
    2.6570    6.3650  -11.5270 C   0  0  2  0  0  0
    4.4950    3.8590   -9.1960 C   0  0  0  0  0  0
    1.2530    6.9700  -11.4970 C   0  0  0  0  0  0
    1.8080    4.2660  -10.4010 C   0  0  0  0  0  0
    5.0450    6.9480  -11.3320 N   0  0  0  0  0  0
    2.8500    5.3660  -10.3810 N   0  0  1  0  0  0
    6.0420    6.2540  -14.9500 C   0  0  0  0  0  0
    6.5490    6.3200  -13.6510 N   0  0  0  0  0  0
    5.7420    7.1790  -15.6940 O   0  0  0  0  0  0
    6.7290    5.4560  -13.2120 H   0  0  0  0  0  0
    6.6550    2.8560  -16.5220 C   0  0  0  0  0  0
    4.6940    4.2860  -15.1480 C   0  0  0  0  0  0
    5.8730    4.8630  -15.4180 C   0  0  0  0  0  0
    6.9000    4.1220  -16.1350 C   0  0  0  0  0  0
    5.3440    2.2100  -16.2230 C   0  0  0  0  0  0
    4.4360    2.9960  -15.5390 N   0  0  0  0  0  0
    5.1270    1.0550  -16.5780 O   0  0  0  0  0  0
    3.5570    2.6110  -15.3210 H   0  0  0  0  0  0
    8.2160    4.7780  -16.4320 C   0  0  0  0  0  0
    8.0410    5.8910  -17.1720 F   0  0  0  0  0  0
    8.8470    5.1290  -15.2940 F   0  0  0  0  0  0
    9.0270    3.9470  -17.1170 F   0  0  0  0  0  0
    9.7380   13.5850  -17.8620 C   0  0  0  0  0  0
    8.9250   12.6630  -18.7450 C   0  0  0  0  0  0
    8.2490   11.7100  -17.9970 N   0  0  0  0  0  0
    8.9110   12.7430  -19.9700 O   0  0  0  0  0  0
    8.3300   11.7390  -17.0160 H   0  0  0  0  0  0
    7.4300   10.6760  -18.5890 C   0  0  2  0  0  0
    6.1030   10.7180  -17.8740 C   0  0  0  0  0  0
    3.1310   12.6800  -18.7850 C   0  0  0  0  0  0
    5.2010   12.0750  -19.8200 C   0  0  0  0  0  0
    3.7700   11.5830  -17.9440 C   0  0  2  0  0  0
    3.7800   12.5020  -20.1580 C   0  0  2  0  0  0
    5.0930   11.4010  -18.5290 N   0  0  2  0  0  0
    5.9660   10.1610  -16.7840 O   0  0  0  0  0  0
    2.9150   10.3340  -18.0470 C   0  0  0  0  0  0
    3.2970    9.4740  -19.0600 N   0  0  0  0  0  0
    1.9870   10.1700  -17.2650 O   0  0  0  0  0  0
    4.0650    9.7230  -19.6220 H   0  0  0  0  0  0
    1.6220    8.3940  -20.4760 C   0  0  0  0  0  0
    2.6210    8.2250  -19.3330 C   0  0  1  0  0  0
    5.0560    5.8990  -21.0980 C   0  0  1  0  0  0
    4.9040    5.2350  -18.7800 C   0  0  0  0  0  0
    4.1430    6.9280  -20.8640 C   0  0  0  0  0  0
    3.9910    6.2630  -18.5450 C   0  0  0  0  0  0
    5.4370    5.0530  -20.0560 C   0  0  0  0  0  0
    3.6110    7.1090  -19.5880 C   0  0  0  0  0  0
    7.4400    1.8570  -20.6620 C   0  0  0  0  0  0
    6.3800    3.9890  -20.3000 C   0  0  0  0  0  0
    7.7430    4.0230  -20.5030 C   0  0  0  0  0  0
    8.5950    5.2310  -20.5160 C   0  0  0  0  0  0
    8.3530    2.8010  -20.7110 N   0  0  0  0  0  0
    5.8280    2.3670  -20.3710 S   0  0  0  0  0  0
    3.7730   13.7110  -20.8900 O   0  0  0  0  0  0
    4.6500   13.8610  -21.2750 H   0  0  0  0  0  0
    9.3300    9.1640  -19.4680 C   0  0  0  0  0  0
    7.0610    8.2040  -19.0210 C   0  0  0  0  0  0
    8.5090    8.9170  -17.1190 C   0  0  0  0  0  0
    8.0860    9.2640  -18.5630 C   0  0  0  0  0  0
  1  9  1  0  0  0
  1  2  1  0  0  0
  1  3  2  0  0  0
  2  4  1  0  0  0
  2 43  1  0  0  0
  5  6  1  0  0  0
  5  9  2  0  0  0
  6 10  2  0  0  0
  7  8  2  0  0  0
  7  9  1  0  0  0
  8 15  1  0  0  0
  8 10  1  0  0  0
 10 11  1  0  0  0
 12 13  1  0  0  0
 12 15  2  0  0  0
 13 16  2  0  0  0
 14 17  2  0  0  0
 14 15  1  0  0  0
 16 25  1  0  0  0
 16 17  1  0  0  0
 17 28  1  0  0  0
 18 20  1  0  0  0
 18 25  1  0  0  0
 19 25  1  0  0  0
 19 21  1  0  0  0
 20 22  1  0  0  0
 20 26  1  0  0  0
 21 23  1  0  0  0
 21 26  1  0  0  0
 24 26  1  0  0  0
 27 28  1  0  0  0
 27 29  2  0  0  0
 27 33  1  0  0  0
 28 30  1  0  0  0
 31 35  1  0  0  0
 31 34  2  0  0  0
 32 33  2  0  0  0
 32 36  1  0  0  0
 33 34  1  0  0  0
 34 39  1  0  0  0
 35 36  1  0  0  0
 35 37  2  0  0  0
 36 38  1  0  0  0
 39 41  1  0  0  0
 39 40  1  0  0  0
 39 42  1  0  0  0
 43 44  1  0  0  0
 44 45  1  0  0  0
 44 46  2  0  0  0
 45 47  1  0  0  0
 45 48  1  0  0  0
 48 79  1  0  0  0
 48 49  1  0  0  0
 49 55  2  0  0  0
 49 54  1  0  0  0
 50 52  1  0  0  0
 50 53  1  0  0  0
 51 54  1  0  0  0
 51 53  1  0  0  0
 52 56  1  0  0  0
 52 54  1  0  0  0
 53 74  1  0  0  0
 56 58  2  0  0  0
 56 57  1  0  0  0
 57 59  1  0  0  0
 57 61  1  0  0  0
 60 61  1  0  0  0
 61 67  1  0  0  0
 62 64  2  0  0  0
 62 66  1  0  0  0
 63 65  1  0  0  0
 63 66  2  0  0  0
 64 67  1  0  0  0
 65 67  2  0  0  0
 66 69  1  0  0  0
 68 73  1  0  0  0
 68 72  2  0  0  0
 69 70  2  0  0  0
 69 73  1  0  0  0
 70 71  1  0  0  0
 70 72  1  0  0  0
 74 75  1  0  0  0
 76 79  1  0  0  0
 77 79  1  0  0  0
 78 79  1  0  0  0
M  END
> <s_m_entry_id>
9

> <s_m_entry_name>
0000_ADV_out_mae.1

> <MODEL>
1

> <REMARK>
 VINA RESULT:   -11.365      0.000      0.000
 INTER + INTRA:         -26.734
 INTER:                 -20.305
 INTRA:                  -6.429
 UNBOUND:                -5.070
  Name = 
  24 active torsions:
  status: ('A' for Active; 'I' for Inactive)
    1  A    between atoms: C_12  and  C_20
    2  A    between atoms: C_13  and  C_14
    3  A    between atoms: C_15  and  C_27
    4  A    between atoms: C_16  and  C_49
    5  A    between atoms: C_17  and  N_55
    6  A    between atoms: C_18  and  N_57
    7  A    between atoms: C_21  and  C_40
    8  A    between atoms: C_24  and  C_28
    9  A    between atoms: C_25  and  C_51
   10  A    between atoms: C_29  and  C_36
   11  A    between atoms: C_30  and  C_50
   12  A    between atoms: C_31  and  C_48
   13  A    between atoms: C_37  and  O_68
   14  A    between atoms: C_38  and  C_41
   15  A    between atoms: C_39  and  C_42
   16  A    between atoms: C_43  and  C_49
   17  A    between atoms: C_44  and  C_52
   18  A    between atoms: C_45  and  C_52
   19  A    between atoms: C_46  and  C_52
   20  A    between atoms: C_47  and  N_61
   21  A    between atoms: C_48  and  N_58
   22  A    between atoms: C_49  and  N_59
   23  A    between atoms: C_50  and  C_52
   24  A    between atoms: C_50  and  N_60
                            x       y       z     vdW  Elec       q    Type
                         _______ _______ _______ _____ _____    ______ ____

> <TORSDO>
F 16

> <chiral flag>
1

> <version>
0

> <chiral flag>
1

> <s_m_Source_Path>
/data/baiqing/PycharmProjects/DockStream-master/result/7JTP

> <s_m_Source_File>
0000_ADV_out_mae.sdf

> <i_m_Source_File_Index>
1

> <s_m_subgroup_title>
0000_ADV_out_mae

> <s_m_subgroupid>
0000_ADV_out_mae-imp4

> <b_m_subgroup_collapsed>
0

$$$$
