0000
                    3D
 Structure written by MMmdl.
133139  0  0  1  0            999 V2000
    8.4904   -0.2963   -5.4079 C   0  0  0  0  0  0
    9.2862   -0.3994   -3.1280 C   0  0  0  0  0  0
    5.5305    3.9268  -14.7034 C   0  0  0  0  0  0
    4.0863    1.7887  -10.2267 C   0  0  0  0  0  0
    9.2412   -1.4201   -5.7227 C   0  0  0  0  0  0
   10.0389   -1.5264   -3.4479 C   0  0  0  0  0  0
    6.0684    4.6861  -15.7320 C   0  0  0  0  0  0
    4.2083    3.1536   -9.9997 C   0  0  0  0  0  0
    4.9182    2.0839  -12.4757 C   0  0  0  0  0  0
    6.2628    5.5565  -13.0865 C   0  0  0  0  0  0
    6.2358    3.3685   -3.8875 C   0  0  0  0  0  0
    8.5032    0.2257   -4.1064 C   0  0  0  0  0  0
    5.6213    4.3411  -13.3696 C   0  0  0  0  0  0
    5.0658    3.4668  -12.2628 C   0  0  0  0  0  0
    4.4474    1.2452  -11.4643 C   0  0  0  0  0  0
   10.0184   -2.0428   -4.7446 C   0  0  0  0  0  0
    6.7344    5.8939  -15.4721 C   0  0  0  0  0  0
    6.8168    6.3453  -14.1248 C   0  0  0  0  0  0
    4.6946    3.9949  -10.9975 C   0  0  0  0  0  0
    7.6733    1.4561   -3.7775 C   0  0  0  0  0  0
    7.4839    2.1716   -2.5553 C   0  0  0  0  0  0
    9.7660   11.0934  -11.4997 C   0  0  0  0  0  0
    8.9474    9.9032  -13.7739 C   0  0  0  0  0  0
    8.4739    9.3911  -12.6286 C   0  0  0  0  0  0
    8.9105   10.0298  -11.3842 C   0  0  0  0  0  0
   10.2763   11.6383  -12.7889 C   0  0  0  0  0  0
    4.3342   -0.2466  -11.7224 C   0  0  0  0  0  0
    7.5723    8.2148  -12.6359 C   0  0  0  0  0  0
   10.2203   -4.1594   -7.3334 C   0  0  0  0  0  0
    8.1145   -3.4736   -9.5534 C   0  0  0  0  0  0
    5.1565   -3.2544  -10.9055 C   0  0  0  0  0  0
   10.1456   -6.4152   -8.5018 C   0  0  0  0  0  0
    8.8289   -5.7283  -10.3803 C   0  0  0  0  0  0
    8.6851    7.1635  -16.4503 C   0  0  0  0  0  0
    7.1357    6.1492  -17.9350 C   0  0  0  0  0  0
    9.3420   -5.1767   -8.0970 C   0  0  2  0  0  0
    9.2974   -6.9792   -9.6295 C   0  0  2  0  0  0
    8.9294    8.3667  -17.3935 C   0  0  1  0  0  0
    7.3467    7.2120  -19.0339 C   0  0  2  0  0  0
    8.0558    1.9124   -1.1744 C   0  0  0  0  0  0
   10.3545    8.9460  -17.2259 C   0  0  0  0  0  0
    7.2584    6.5743  -20.4369 C   0  0  0  0  0  0
   12.3166   -2.9707   -5.3934 C   0  0  0  0  0  0
    8.4851   -0.5910  -11.0364 C   0  0  0  0  0  0
   10.0641   -2.4695  -11.7193 C   0  0  0  0  0  0
    8.1345   -1.8358  -13.1656 C   0  0  0  0  0  0
    8.9860    8.9944  -19.9014 C   0  0  0  0  0  0
    3.8458   -2.4624  -10.7667 C   0  0  0  0  0  0
   10.8373   -3.3011   -5.0828 C   0  0  2  0  0  0
    7.6554   -3.0552  -10.9796 C   0  0  2  0  0  0
    8.4649    9.5340   -9.9886 C   0  0  0  0  0  0
    8.5859   -1.9993  -11.6892 C   0  0  0  0  0  0
    6.6731    3.2120   -2.6762 N   0  0  0  0  0  0
    9.7943   10.9621  -13.8912 N   0  0  0  0  0  0
    7.3052    6.6299  -16.5454 N   0  0  0  0  0  0
    8.7512   -4.6635   -9.3642 N   0  0  0  0  0  0
    7.4908    7.5950  -13.8536 N   0  0  0  0  0  0
    4.0379   -1.0118  -10.6475 N   0  0  0  0  0  0
   10.1741   -4.2666   -5.9883 N   0  0  0  0  0  0
    6.2922   -2.5493  -10.8663 N   0  0  0  0  0  0
    8.7337    7.8767  -18.8533 N   0  3  1  0  0  0
   11.0469   12.5876  -12.8728 O   0  0  0  0  0  0
    4.5154   -0.7070  -12.8515 O   0  0  0  0  0  0
    6.9745    7.8390  -11.6355 O   0  0  0  0  0  0
   10.9020   -3.3537   -7.9695 O   0  0  0  0  0  0
    7.8972   -2.6749   -8.6391 O   0  0  0  0  0  0
    5.1328   -4.4757  -11.0476 O   0  0  0  0  0  0
    8.2071   -7.7379   -9.1364 O   0  0  0  0  0  0
    4.7879    5.3215  -10.7478 F   0  0  0  0  0  0
    8.7311    8.2403   -9.8079 F   0  0  0  0  0  0
    9.1527   10.1668   -9.0474 F   0  0  0  0  0  0
    7.1702    9.7757   -9.7908 F   0  0  0  0  0  0
    6.7332    2.2277   -5.0474 S   0  0  0  0  0  0
    7.8939    0.1667   -6.1752 H   0  0  0  0  0  0
    9.3113   -0.0166   -2.1286 H   0  0  0  0  0  0
    5.0377    2.9991  -14.9472 H   0  0  0  0  0  0
    3.7013    1.1565   -9.4475 H   0  0  0  0  0  0
    9.2193   -1.8076   -6.7260 H   0  0  0  0  0  0
   10.6364   -2.0030   -2.6858 H   0  0  0  0  0  0
    5.9836    4.3177  -16.7394 H   0  0  0  0  0  0
    3.9212    3.5673   -9.0431 H   0  0  0  0  0  0
    5.1969    1.6550  -13.4250 H   0  0  0  0  0  0
    6.3607    5.8526  -12.0763 H   0  0  0  0  0  0
    5.5617    4.1681   -4.1614 H   0  0  0  0  0  0
   10.1123   11.5819  -10.6007 H   0  0  0  0  0  0
    8.7015    9.5188  -14.7481 H   0  0  0  0  0  0
   10.2793   -7.1043   -7.6669 H   0  0  0  0  0  0
   11.1314   -6.1167   -8.8701 H   0  0  0  0  0  0
    7.8774   -5.9163  -10.8794 H   0  0  0  0  0  0
    9.5554   -5.4440  -11.1418 H   0  0  0  0  0  0
    9.0484    7.4212  -15.4675 H   0  0  0  0  0  0
    9.3674    6.3432  -16.6710 H   0  0  0  0  0  0
    7.7959    5.2945  -18.1062 H   0  0  0  0  0  0
    6.1079    5.8126  -18.0768 H   0  0  0  0  0  0
    8.5390   -5.4948   -7.4299 H   0  0  0  0  0  0
    9.8977   -7.6178  -10.2826 H   0  0  0  0  0  0
    8.1829    9.1464  -17.2206 H   0  0  0  0  0  0
    6.6062    8.0080  -18.9281 H   0  0  0  0  0  0
    9.1320    1.7570   -1.1755 H   0  0  0  0  0  0
    7.5813    1.0582   -0.6868 H   0  0  0  0  0  0
    7.9085    2.7750   -0.5160 H   0  0  0  0  0  0
   10.4634    9.9279  -17.6882 H   0  0  0  0  0  0
   11.1146    8.2888  -17.6521 H   0  0  0  0  0  0
   10.6158    9.0681  -16.1746 H   0  0  0  0  0  0
    7.1609    7.3185  -21.2259 H   0  0  0  0  0  0
    6.3823    5.9311  -20.5164 H   0  0  0  0  0  0
    8.1311    5.9560  -20.6570 H   0  0  0  0  0  0
   12.8889   -3.8722   -5.6127 H   0  0  0  0  0  0
   12.7975   -2.4835   -4.5456 H   0  0  0  0  0  0
   12.4152   -2.2961   -6.2434 H   0  0  0  0  0  0
    9.1332    0.1335  -11.5287 H   0  0  0  0  0  0
    8.7339   -0.5977   -9.9775 H   0  0  0  0  0  0
    7.4798   -0.1792  -11.1142 H   0  0  0  0  0  0
   10.7057   -1.7349  -12.2115 H   0  0  0  0  0  0
   10.1718   -3.4055  -12.2665 H   0  0  0  0  0  0
   10.4744   -2.6338  -10.7244 H   0  0  0  0  0  0
    8.7689   -1.1315  -13.7073 H   0  0  0  0  0  0
    7.1122   -1.4617  -13.2462 H   0  0  0  0  0  0
    8.1704   -2.7832  -13.7067 H   0  0  0  0  0  0
    8.9194    8.5627  -20.9005 H   0  0  0  0  0  0
    9.9992    9.3754  -19.7699 H   0  0  0  0  0  0
    8.2388    9.7782  -19.7483 H   0  0  0  0  0  0
    3.2125   -2.6344  -11.6344 H   0  0  0  0  0  0
    3.3060   -2.8218   -9.8953 H   0  0  0  0  0  0
   10.8732   -3.8738   -4.1515 H   0  0  0  0  0  0
    7.6106   -3.9281  -11.6292 H   0  0  0  0  0  0
   10.1055   11.2848  -14.7960 H   0  0  0  0  0  0
    7.9384    8.0322  -14.6433 H   0  0  0  0  0  0
    3.9306   -0.5997   -9.7247 H   0  0  0  0  0  0
    9.6189   -4.9930   -5.5629 H   0  0  0  0  0  0
    6.2194   -1.5572  -10.7101 H   0  0  0  0  0  0
    9.4395    7.1434  -18.9616 H   0  0  0  0  0  0
    7.6357   -7.1579   -8.6243 H   0  0  0  0  0  0
  1  5  2  0  0  0
  1 12  1  0  0  0
  1 74  1  0  0  0
  2  6  1  0  0  0
  2 12  2  0  0  0
  2 75  1  0  0  0
  3  7  2  0  0  0
  3 13  1  0  0  0
  3 76  1  0  0  0
  4  8  2  0  0  0
  4 15  1  0  0  0
  4 77  1  0  0  0
  5 16  1  0  0  0
  5 78  1  0  0  0
  6 16  2  0  0  0
  6 79  1  0  0  0
  7 17  1  0  0  0
  7 80  1  0  0  0
  8 19  1  0  0  0
  8 81  1  0  0  0
  9 14  1  0  0  0
  9 15  2  0  0  0
  9 82  1  0  0  0
 10 13  2  0  0  0
 10 18  1  0  0  0
 10 83  1  0  0  0
 11 53  2  0  0  0
 11 73  1  0  0  0
 11 84  1  0  0  0
 12 20  1  0  0  0
 13 14  1  0  0  0
 14 19  2  0  0  0
 15 27  1  0  0  0
 16 49  1  0  0  0
 17 18  2  0  0  0
 17 55  1  0  0  0
 18 57  1  0  0  0
 19 69  1  0  0  0
 20 21  2  0  0  0
 20 73  1  0  0  0
 21 40  1  0  0  0
 21 53  1  0  0  0
 22 25  2  0  0  0
 22 26  1  0  0  0
 22 85  1  0  0  0
 23 24  2  0  0  0
 23 54  1  0  0  0
 23 86  1  0  0  0
 24 25  1  0  0  0
 24 28  1  0  0  0
 25 51  1  0  0  0
 26 54  1  0  0  0
 26 62  2  0  0  0
 27 58  1  0  0  0
 27 63  2  0  0  0
 28 57  1  0  0  0
 28 64  2  0  0  0
 29 36  1  0  0  0
 29 59  1  0  0  0
 29 65  2  0  0  0
 30 50  1  0  0  0
 30 56  1  0  0  0
 30 66  2  0  0  0
 31 48  1  0  0  0
 31 60  1  0  0  0
 31 67  2  0  0  0
 32 36  1  0  0  0
 32 37  1  0  0  0
 32 87  1  0  0  0
 32 88  1  0  0  0
 33 37  1  0  0  0
 33 56  1  0  0  0
 33 89  1  0  0  0
 33 90  1  0  0  0
 34 38  1  0  0  0
 34 55  1  0  0  0
 34 91  1  0  0  0
 34 92  1  0  0  0
 35 39  1  0  0  0
 35 55  1  0  0  0
 35 93  1  0  0  0
 35 94  1  0  0  0
 36 56  1  0  0  0
 36 95  1  0  0  0
 37 68  1  0  0  0
 37 96  1  0  0  0
 38 41  1  0  0  0
 38 61  1  0  0  0
 38 97  1  0  0  0
 39 42  1  0  0  0
 39 61  1  0  0  0
 39 98  1  0  0  0
 40 99  1  0  0  0
 40100  1  0  0  0
 40101  1  0  0  0
 41102  1  0  0  0
 41103  1  0  0  0
 41104  1  0  0  0
 42105  1  0  0  0
 42106  1  0  0  0
 42107  1  0  0  0
 43 49  1  0  0  0
 43108  1  0  0  0
 43109  1  0  0  0
 43110  1  0  0  0
 44 52  1  0  0  0
 44111  1  0  0  0
 44112  1  0  0  0
 44113  1  0  0  0
 45 52  1  0  0  0
 45114  1  0  0  0
 45115  1  0  0  0
 45116  1  0  0  0
 46 52  1  0  0  0
 46117  1  0  0  0
 46118  1  0  0  0
 46119  1  0  0  0
 47 61  1  0  0  0
 47120  1  0  0  0
 47121  1  0  0  0
 47122  1  0  0  0
 48 58  1  0  0  0
 48123  1  0  0  0
 48124  1  0  0  0
 49 59  1  0  0  0
 49125  1  0  0  0
 50 52  1  0  0  0
 50 60  1  0  0  0
 50126  1  0  0  0
 51 70  1  0  0  0
 51 71  1  0  0  0
 51 72  1  0  0  0
 54127  1  0  0  0
 57128  1  0  0  0
 58129  1  0  0  0
 59130  1  0  0  0
 60131  1  0  0  0
 61132  1  0  0  0
 68133  1  0  0  0
M  CHG  1  61   1
M  END
> <s_m_entry_id>
22

> <s_m_entry_name>
0000.1

> <s_m_Source_Path>
/mnt/home/boqing/Schrodinger_Projects/7JTP

> <s_m_Source_File>
0000.sdf

> <i_m_Source_File_Index>
1

> <s_m_job_name>
glide-dock_SP_0000_h

> <s_i_glide_gridfile>
glide-grid_crystal_ligand

> <i_i_glide_lignum>
1

> <i_i_glide_rotatable_bonds>
21

> <r_i_docking_score>
-9.38278235322496

> <r_i_glide_ligand_efficiency>
-0.128531265112671

> <r_i_glide_ligand_efficiency_sa>
-0.537175753477609

> <r_i_glide_ligand_efficiency_ln>
-1.77352883196629

> <r_i_glide_gscore>
-9.38278235322496

> <r_i_glide_evdw>
-62.6486892700195

> <r_i_glide_ecoul>
-12.0080547332764

> <r_i_glide_energy>
-74.6567440032959

> <r_i_glide_einternal>
9.64742565155029

> <r_i_glide_emodel>
-119.442852143181

> <r_i_glide_intrahb_reward>
0

> <i_i_glide_confnum>
582

> <i_i_glide_posenum>
233

> <r_i_glide_eff_state_penalty>
0

> <Batch ID>
0

> <Smiles>
Cc1ncsc1-c1ccc([C@H](C)NC(=O)[C@@H]2C[C@@H](O)CN2C(=O)[C@@H](N[101C](=O)[100CH2]N[101C](=O)[100c]2ccc(F)c(-c3ccc(N4C[C@@H](C)N(C)[C@@H](C)C4)c(NC(=O)c4c[nH]c(=O)cc4C(F)(F)F)c3)c2)C(C)(C)C)cc1

> <Shape>
0.291

> <Color>
0.13

> <Negative vol penalty>
0

> <chiral flag>
1

> <version>
0

> <r_i_glide_lipo>
-1.46131746491392

> <r_i_glide_hbond>
-0.808

> <r_i_glide_metal>
0

> <r_i_glide_rewards>
-2.1628177560828

> <r_i_glide_erotb>
0.154955420136551

> <r_i_glide_esite>
-0.17195987887236

> <s_m_subgroup_title>
glide-dock_SP_0000_h_pv1

> <s_m_subgroupid>
glide-dock_SP_0000_h_pv1

> <b_m_subgroup_collapsed>
0

$$$$
