ligand
 OpenBabel01032309583D

 79 85  0  0  1  0  0  0  0  0999 V2000
    4.4390    7.5310  -11.6780 C   0  0  0  0  0  0  0  0  0  0  0  0
    3.7160    6.5100  -11.1760 N   0  0  0  0  0  0  0  0  0  0  0  0
    4.1460    8.1200  -12.7190 O   0  0  0  0  0  0  0  0  0  0  0  0
    3.9970    6.1110  -10.2930 H   0  0  0  0  0  0  0  0  0  0  0  0
    7.8090    9.1140  -10.8030 C   0  0  0  0  0  0  0  0  0  0  0  0
    6.6160    8.7890  -11.4640 C   0  0  0  0  0  3  0  0  0  0  0  0
    5.7050    7.8680  -10.9260 C   0  0  0  0  0  0  0  0  0  0  0  0
    6.0030    7.2700   -9.6940 C   0  0  0  0  0  3  0  0  0  0  0  0
    7.1880    7.5720   -9.0300 C   0  0  0  0  0  3  0  0  0  0  0  0
    8.0880    8.4820   -9.5800 C   0  0  0  0  0  0  0  0  0  0  0  0
    9.2400    8.7340   -8.9140 F   0  0  0  0  0  0  0  0  0  0  0  0
    8.7120   10.4180  -12.7610 C   0  0  0  0  0  3  0  0  0  0  0  0
    8.7460   10.1140  -11.3950 C   0  0  0  0  0  0  0  0  0  0  0  0
    9.6790   10.7770  -10.5920 C   0  0  0  0  0  3  0  0  0  0  0  0
   10.5690   11.6950  -11.1370 C   0  0  0  0  0  3  0  0  0  0  0  0
   10.5530   11.9980  -12.5060 C   0  0  0  0  0  0  0  0  0  0  0  0
    9.5910   11.3630  -13.3240 C   0  0  0  0  0  0  0  0  0  0  0  0
   13.3560   15.0080  -13.8370 N   0  0  0  0  0  0  0  0  0  0  0  0
   14.4560   15.4550  -14.6990 C   0  0  0  0  0  1  0  0  0  0  0  0
   12.1600   14.6900  -14.6500 C   0  0  2  0  0  3  0  0  0  0  0  0
   11.5830   15.8650  -15.4710 C   0  0  0  0  0  1  0  0  0  0  0  0
   11.0360   14.1260  -13.7400 C   0  0  0  0  0  2  0  0  0  0  0  0
   13.7780   13.8490  -13.0200 C   0  0  1  0  0  3  0  0  0  0  0  0
   14.9760   14.0940  -12.0750 C   0  0  0  0  0  1  0  0  0  0  0  0
   12.5780   13.3390  -12.1790 C   0  0  0  0  0  2  0  0  0  0  0  0
   11.4660   12.9110  -13.0380 N   0  0  0  0  0  0  0  0  0  0  0  0
   10.1540   11.0500  -15.7420 C   0  0  0  0  0  0  0  0  0  0  0  0
    9.5670   11.6810  -14.6990 N   0  0  0  0  0  0  0  0  0  0  0  0
   10.8650   10.0500  -15.6330 O   0  0  0  0  0  0  0  0  0  0  0  0
    8.9080   12.4070  -14.9390 H   0  0  0  0  0  0  0  0  0  0  0  0
    8.9380   13.6790  -20.4920 O   0  0  0  0  0  0  0  0  0  0  0  0
    9.8770   11.6700  -17.0310 C   0  0  0  0  0  0  0  0  0  0  0  0
    9.6190   13.0010  -17.1100 C   0  0  0  0  0  3  0  0  0  0  0  0
    9.2220   13.0630  -19.4670 C   0  0  0  0  0  0  0  0  0  0  0  0
    9.4900   11.6260  -19.4310 C   0  0  0  0  0  3  0  0  0  0  0  0
    9.8100   10.9140  -18.3100 C   0  0  0  0  0  0  0  0  0  0  0  0
    9.3130   13.6750  -18.2570 N   0  0  0  0  0  0  0  0  0  0  0  0
    9.1300   14.6680  -18.2410 H   0  0  0  0  0  0  0  0  0  0  0  0
   10.0900    9.4060  -18.4180 C   0  0  0  0  0  0  0  0  0  0  0  0
    9.7290    8.9190  -19.6070 F   0  0  0  0  0  0  0  0  0  0  0  0
   11.3920    9.1560  -18.2660 F   0  0  0  0  0  0  0  0  0  0  0  0
    9.3990    8.7600  -17.4790 F   0  0  0  0  0  0  0  0  0  0  0  0
    2.5480    5.8950  -11.8180 C   0  0  0  0  0  2  0  0  0  0  0  0
    2.9380    5.0670  -13.0580 C   0  0  0  0  0  0  0  0  0  0  0  0
    2.8610    5.6610  -14.2620 N   0  0  0  0  0  0  0  0  0  0  0  0
    3.3100    3.9040  -12.9100 O   0  0  0  0  0  0  0  0  0  0  0  0
    2.5460    6.6180  -14.3080 H   0  0  0  0  0  0  0  0  0  0  0  0
    3.2130    5.0690  -15.5550 C   0  0  2  0  0  3  0  0  0  0  0  0
    4.7510    4.8380  -15.5920 C   0  0  0  0  0  0  0  0  0  0  0  0
    6.6900    3.3790  -16.3690 C   0  0  2  0  0  3  0  0  0  0  0  0
    6.6950    2.1370  -17.2690 C   0  0  0  0  0  2  0  0  0  0  0  0
    5.4510    1.4070  -16.7860 C   0  0  2  0  0  3  0  0  0  0  0  0
    4.4490    2.5410  -16.5540 C   0  0  0  0  0  2  0  0  0  0  0  0
    5.2570    3.7090  -16.1650 N   0  0  0  0  0  0  0  0  0  0  0  0
    5.4650    5.7200  -15.1090 O   0  0  0  0  0  0  0  0  0  0  0  0
    7.5170    4.5280  -16.9830 C   0  0  0  0  0  0  0  0  0  0  0  0
    7.1090    4.9590  -18.1880 N   0  0  0  0  0  0  0  0  0  0  0  0
    8.4670    4.9990  -16.3570 O   0  0  0  0  0  0  0  0  0  0  0  0
    6.3220    4.5050  -18.6270 H   0  0  0  0  0  0  0  0  0  0  0  0
    7.7310    6.0570  -18.9370 C   0  0  1  0  0  3  0  0  0  0  0  0
    8.0700    5.6040  -20.3670 C   0  0  0  0  0  1  0  0  0  0  0  0
    6.9210    7.3600  -18.9530 C   0  0  0  0  0  0  0  0  0  0  0  0
    6.4250    7.8770  -17.7520 C   0  0  0  0  0  3  0  0  0  0  0  0
    5.6760    9.0510  -17.7520 C   0  0  0  0  0  3  0  0  0  0  0  0
    5.4140    9.7170  -18.9510 C   0  0  0  0  0  0  0  0  0  0  0  0
    5.9070    9.2010  -20.1520 C   0  0  0  0  0  3  0  0  0  0  0  0
    6.6540    8.0270  -20.1540 C   0  0  0  0  0  3  0  0  0  0  0  0
    4.6210   10.9790  -18.9590 C   0  0  0  0  0  0  0  0  0  0  0  0
    4.8280   12.2080  -18.3140 C   0  0  0  0  0  0  0  0  0  0  0  0
    5.9390   12.6000  -17.3620 C   0  0  0  0  0  1  0  0  0  0  0  0
    3.0010   12.7290  -19.3810 C   0  0  0  0  0  3  0  0  0  0  0  0
    3.9320   13.1460  -18.5640 N   0  0  0  0  0  0  0  0  0  0  0  0
    3.1680   11.0970  -19.9210 S   0  0  0  0  0  0  0  0  0  0  0  0
    5.7000    0.6690  -15.6040 O   0  0  0  0  0  0  0  0  0  0  0  0
    6.5330    0.2040  -15.7010 H   0  0  0  0  0  0  0  0  0  0  0  0
    2.6590    5.9250  -16.7600 C   0  0  0  0  0  0  0  0  0  0  0  0
    2.6090    7.4200  -16.3460 C   0  0  0  0  0  1  0  0  0  0  0  0
    1.2170    5.4950  -17.1340 C   0  0  0  0  0  1  0  0  0  0  0  0
    3.5540    5.8250  -18.0260 C   0  0  0  0  0  1  0  0  0  0  0  0
  1  2  1  0  0  0  0
  1  7  1  0  0  0  0
  2  4  1  0  0  0  0
  3  1  2  0  0  0  0
  5 10  1  0  0  0  0
  6  7  1  0  0  0  0
  6  5  2  0  0  0  0
  7  8  2  0  0  0  0
  8  9  1  0  0  0  0
 10  9  2  0  0  0  0
 10 11  1  0  0  0  0
 12 13  1  0  0  0  0
 13  5  1  0  0  0  0
 13 14  2  0  0  0  0
 15 14  1  0  0  0  0
 16 15  2  0  0  0  0
 17 12  2  0  0  0  0
 17 16  1  0  0  0  0
 18 23  1  0  0  0  0
 19 18  1  0  0  0  0
 20 21  1  1  0  0  0
 20 18  1  0  0  0  0
 20 22  1  0  0  0  0
 22 26  1  0  0  0  0
 23 25  1  0  0  0  0
 23 24  1  1  0  0  0
 26 16  1  0  0  0  0
 26 25  1  0  0  0  0
 27 29  2  0  0  0  0
 27 28  1  0  0  0  0
 28 17  1  0  0  0  0
 30 28  1  0  0  0  0
 31 34  2  0  0  0  0
 32 27  1  0  0  0  0
 33 32  2  0  0  0  0
 34 35  1  0  0  0  0
 34 37  1  0  0  0  0
 35 36  2  0  0  0  0
 36 32  1  0  0  0  0
 37 38  1  0  0  0  0
 37 33  1  0  0  0  0
 39 36  1  0  0  0  0
 39 41  1  0  0  0  0
 39 42  1  0  0  0  0
 40 39  1  0  0  0  0
 43  2  1  0  0  0  0
 44 46  2  0  0  0  0
 44 43  1  0  0  0  0
 45 44  1  0  0  0  0
 47 45  1  0  0  0  0
 48 49  1  6  0  0  0
 48 45  1  0  0  0  0
 49 55  2  0  0  0  0
 50 56  1  6  0  0  0
 50 54  1  0  0  0  0
 51 52  1  0  0  0  0
 51 50  1  0  0  0  0
 52 53  1  0  0  0  0
 52 74  1  1  0  0  0
 53 54  1  0  0  0  0
 54 49  1  0  0  0  0
 56 58  2  0  0  0  0
 57 56  1  0  0  0  0
 59 57  1  0  0  0  0
 60 61  1  6  0  0  0
 60 57  1  0  0  0  0
 62 60  1  0  0  0  0
 62 63  1  0  0  0  0
 64 63  2  0  0  0  0
 65 64  1  0  0  0  0
 66 65  2  0  0  0  0
 67 66  1  0  0  0  0
 67 62  2  0  0  0  0
 68 65  1  0  0  0  0
 68 69  2  0  0  0  0
 69 70  1  0  0  0  0
 71 72  2  0  0  0  0
 72 69  1  0  0  0  0
 73 71  1  0  0  0  0
 73 68  1  0  0  0  0
 75 74  1  0  0  0  0
 76 77  1  0  0  0  0
 76 48  1  0  0  0  0
 78 76  1  0  0  0  0
 79 76  1  0  0  0  0
M  END
>  <MODEL>
1

>  <REMARK>
 VINA RESULT:   -11.073      0.000      0.000
 INTER + INTRA:         -26.849
 INTER:                 -21.107
 INTRA:                  -5.743
 UNBOUND:                -5.743
  Name = ligand
  24 active torsions:
  status: ('A' for Active; 'I' for Inactive)
    1  A    between atoms: N_1  and  C_2
    2  A    between atoms: C_4  and  C_15
    3  A    between atoms: C_5  and  C_54
    4  A    between atoms: C_9  and  C_10
    5  A    between atoms: C_12  and  C_13
    6  A    between atoms: C_16  and  C_17
    7  A    between atoms: C_18  and  C_19
    8  A    between atoms: C_18  and  N_62
    9  A    between atoms: C_20  and  C_21
   10  A    between atoms: C_20  and  C_25
   11  A    between atoms: C_20  and  N_63
   12  A    between atoms: C_21  and  C_22
   13  A    between atoms: C_21  and  C_23
   14  A    between atoms: C_21  and  C_24
   15  A    between atoms: C_27  and  C_28
   16  A    between atoms: C_29  and  C_30
   17  A    between atoms: C_29  and  C_31
   18  A    between atoms: C_29  and  N_65
   19  A    between atoms: C_34  and  C_35
   20  A    between atoms: C_36  and  C_38
   21  A    between atoms: C_37  and  C_48
   22  A    between atoms: C_43  and  O_69
   23  A    between atoms: C_52  and  N_59
   24  A    between atoms: C_53  and  N_60
                            x       y       z     vdW  Elec       q    Type
                         _______ _______ _______ _____ _____    ______ ____

>  <TORSDO>
F 16

$$$$
ligand
 OpenBabel01032309583D

 79 85  0  0  1  0  0  0  0  0999 V2000
    4.4180    7.1530  -11.3840 C   0  0  0  0  0  0  0  0  0  0  0  0
    4.0020    5.9020  -11.1050 N   0  0  0  0  0  0  0  0  0  0  0  0
    3.8800    7.8730  -12.2260 O   0  0  0  0  0  0  0  0  0  0  0  0
    4.4680    5.3940  -10.3680 H   0  0  0  0  0  0  0  0  0  0  0  0
    7.7120    8.9450  -10.6270 C   0  0  0  0  0  0  0  0  0  0  0  0
    6.5400    8.5140  -11.2660 C   0  0  0  0  0  3  0  0  0  0  0  0
    5.6600    7.6070  -10.6550 C   0  0  0  0  0  0  0  0  0  0  0  0
    5.9680    7.1340   -9.3720 C   0  0  0  0  0  3  0  0  0  0  0  0
    7.1310    7.5430   -8.7290 C   0  0  0  0  0  3  0  0  0  0  0  0
    8.0010    8.4370   -9.3500 C   0  0  0  0  0  0  0  0  0  0  0  0
    9.1340    8.7930   -8.7010 F   0  0  0  0  0  0  0  0  0  0  0  0
    8.6460   10.0440  -12.6930 C   0  0  0  0  0  3  0  0  0  0  0  0
    8.6140    9.9260  -11.2990 C   0  0  0  0  0  0  0  0  0  0  0  0
    9.4480   10.7570  -10.5450 C   0  0  0  0  0  3  0  0  0  0  0  0
   10.3070   11.6600  -11.1620 C   0  0  0  0  0  3  0  0  0  0  0  0
   10.3560   11.7780  -12.5580 C   0  0  0  0  0  0  0  0  0  0  0  0
    9.4930   10.9700  -13.3310 C   0  0  0  0  0  0  0  0  0  0  0  0
   13.0330   14.7860  -14.1310 N   0  0  0  0  0  0  0  0  0  0  0  0
   14.1460   15.1980  -14.9930 C   0  0  0  0  0  1  0  0  0  0  0  0
   11.9030   14.2920  -14.9490 C   0  0  2  0  0  3  0  0  0  0  0  0
   11.2980   15.3160  -15.9340 C   0  0  0  0  0  1  0  0  0  0  0  0
   10.7700   13.7680  -14.0250 C   0  0  0  0  0  2  0  0  0  0  0  0
   13.4830   13.7660  -13.1590 C   0  0  1  0  0  3  0  0  0  0  0  0
   14.6140   14.2040  -12.2000 C   0  0  0  0  0  1  0  0  0  0  0  0
   12.2760   13.2820  -12.3130 C   0  0  0  0  0  2  0  0  0  0  0  0
   11.2370   12.6790  -13.1590 N   0  0  0  0  0  0  0  0  0  0  0  0
    9.8700   10.1910  -15.6800 C   0  0  0  0  0  0  0  0  0  0  0  0
    9.5340   11.1010  -14.7360 N   0  0  0  0  0  0  0  0  0  0  0  0
   10.2380    9.0420  -15.4320 O   0  0  0  0  0  0  0  0  0  0  0  0
    9.1270   11.9600  -15.0780 H   0  0  0  0  0  0  0  0  0  0  0  0
    9.8260   12.0810  -20.9130 O   0  0  0  0  0  0  0  0  0  0  0  0
    9.7670   10.6970  -17.0420 C   0  0  0  0  0  0  0  0  0  0  0  0
   10.7390   10.4220  -17.9500 C   0  0  0  0  0  3  0  0  0  0  0  0
    9.7920   11.6740  -19.7530 C   0  0  0  0  0  0  0  0  0  0  0  0
    8.7230   11.9990  -18.8100 C   0  0  0  0  0  3  0  0  0  0  0  0
    8.6540   11.5620  -17.5180 C   0  0  0  0  0  0  0  0  0  0  0  0
   10.7610   10.8730  -19.2380 N   0  0  0  0  0  0  0  0  0  0  0  0
   11.5200   10.6300  -19.8590 H   0  0  0  0  0  0  0  0  0  0  0  0
    7.4590   11.9620  -16.6380 C   0  0  0  0  0  0  0  0  0  0  0  0
    6.9680   10.9190  -15.9650 F   0  0  0  0  0  0  0  0  0  0  0  0
    7.8230   12.8790  -15.7390 F   0  0  0  0  0  0  0  0  0  0  0  0
    6.4880   12.4540  -17.4080 F   0  0  0  0  0  0  0  0  0  0  0  0
    2.9280    5.1840  -11.8020 C   0  0  0  0  0  2  0  0  0  0  0  0
    3.3740    4.6820  -13.1890 C   0  0  0  0  0  0  0  0  0  0  0  0
    3.2700    5.5280  -14.2300 N   0  0  0  0  0  0  0  0  0  0  0  0
    3.8130    3.5380  -13.3010 O   0  0  0  0  0  0  0  0  0  0  0  0
    2.8990    6.4510  -14.0640 H   0  0  0  0  0  0  0  0  0  0  0  0
    3.6640    5.2650  -15.6160 C   0  0  2  0  0  3  0  0  0  0  0  0
    5.2070    5.4280  -15.7320 C   0  0  0  0  0  0  0  0  0  0  0  0
    7.3660    4.7160  -16.8800 C   0  0  2  0  0  3  0  0  0  0  0  0
    7.5910    3.7680  -18.0650 C   0  0  0  0  0  2  0  0  0  0  0  0
    6.5880    2.6640  -17.7650 C   0  0  2  0  0  3  0  0  0  0  0  0
    5.3710    3.4310  -17.2390 C   0  0  0  0  0  2  0  0  0  0  0  0
    5.9150    4.6300  -16.5790 N   0  0  0  0  0  0  0  0  0  0  0  0
    5.7310    6.3130  -15.0510 O   0  0  0  0  0  0  0  0  0  0  0  0
    7.8580    6.1440  -17.1950 C   0  0  0  0  0  0  0  0  0  0  0  0
    7.6140    6.5820  -18.4410 N   0  0  0  0  0  0  0  0  0  0  0  0
    8.4130    6.8070  -16.3180 O   0  0  0  0  0  0  0  0  0  0  0  0
    7.1590    5.9620  -19.0950 H   0  0  0  0  0  0  0  0  0  0  0  0
    7.9680    7.9140  -18.9430 C   0  0  1  0  0  3  0  0  0  0  0  0
    8.8240    7.7970  -20.2150 C   0  0  0  0  0  1  0  0  0  0  0  0
    6.7740    8.8500  -19.1710 C   0  0  0  0  0  0  0  0  0  0  0  0
    6.6900    9.5810  -20.3600 C   0  0  0  0  0  3  0  0  0  0  0  0
    5.6200   10.4460  -20.5750 C   0  0  0  0  0  3  0  0  0  0  0  0
    4.6260   10.5900  -19.6040 C   0  0  0  0  0  0  0  0  0  0  0  0
    4.7100    9.8620  -18.4150 C   0  0  0  0  0  3  0  0  0  0  0  0
    5.7790    8.9990  -18.1970 C   0  0  0  0  0  3  0  0  0  0  0  0
    3.4730   11.5060  -19.8310 C   0  0  0  0  0  0  0  0  0  0  0  0
    2.3670   11.4100  -20.6890 C   0  0  0  0  0  0  0  0  0  0  0  0
    2.0430   10.3240  -21.6950 C   0  0  0  0  0  1  0  0  0  0  0  0
    1.8520   13.3030  -19.7420 C   0  0  0  0  0  3  0  0  0  0  0  0
    1.4970   12.4020  -20.6190 N   0  0  0  0  0  0  0  0  0  0  0  0
    3.3320   12.9850  -18.9110 S   0  0  0  0  0  0  0  0  0  0  0  0
    7.0870    1.7440  -16.8120 O   0  0  0  0  0  0  0  0  0  0  0  0
    7.4660    0.9950  -17.2770 H   0  0  0  0  0  0  0  0  0  0  0  0
    2.8420    6.1460  -16.6340 C   0  0  0  0  0  0  0  0  0  0  0  0
    1.4640    5.4800  -16.8930 C   0  0  0  0  0  1  0  0  0  0  0  0
    3.5730    6.2520  -17.9980 C   0  0  0  0  0  1  0  0  0  0  0  0
    2.5700    7.5800  -16.1010 C   0  0  0  0  0  1  0  0  0  0  0  0
  1  2  1  0  0  0  0
  1  7  1  0  0  0  0
  2  4  1  0  0  0  0
  3  1  2  0  0  0  0
  5 10  1  0  0  0  0
  6  7  1  0  0  0  0
  6  5  2  0  0  0  0
  7  8  2  0  0  0  0
  8  9  1  0  0  0  0
 10  9  2  0  0  0  0
 10 11  1  0  0  0  0
 12 13  1  0  0  0  0
 13  5  1  0  0  0  0
 13 14  2  0  0  0  0
 15 14  1  0  0  0  0
 16 15  2  0  0  0  0
 17 12  2  0  0  0  0
 17 16  1  0  0  0  0
 18 23  1  0  0  0  0
 19 18  1  0  0  0  0
 20 21  1  1  0  0  0
 20 18  1  0  0  0  0
 20 22  1  0  0  0  0
 22 26  1  0  0  0  0
 23 25  1  0  0  0  0
 23 24  1  1  0  0  0
 26 16  1  0  0  0  0
 26 25  1  0  0  0  0
 27 29  2  0  0  0  0
 27 28  1  0  0  0  0
 28 17  1  0  0  0  0
 30 28  1  0  0  0  0
 31 34  2  0  0  0  0
 32 27  1  0  0  0  0
 33 32  2  0  0  0  0
 34 37  1  0  0  0  0
 34 35  1  0  0  0  0
 35 36  2  0  0  0  0
 36 32  1  0  0  0  0
 36 39  1  0  0  0  0
 37 33  1  0  0  0  0
 38 37  1  0  0  0  0
 39 40  1  0  0  0  0
 39 41  1  0  0  0  0
 42 39  1  0  0  0  0
 43  2  1  0  0  0  0
 44 43  1  0  0  0  0
 45 47  1  0  0  0  0
 45 44  1  0  0  0  0
 46 44  2  0  0  0  0
 48 49  1  1  0  0  0
 48 45  1  0  0  0  0
 49 55  2  0  0  0  0
 50 56  1  6  0  0  0
 50 54  1  0  0  0  0
 51 52  1  0  0  0  0
 51 50  1  0  0  0  0
 52 53  1  0  0  0  0
 52 74  1  1  0  0  0
 53 54  1  0  0  0  0
 54 49  1  0  0  0  0
 56 58  2  0  0  0  0
 57 56  1  0  0  0  0
 59 57  1  0  0  0  0
 60 61  1  6  0  0  0
 60 57  1  0  0  0  0
 62 60  1  0  0  0  0
 62 67  1  0  0  0  0
 63 62  2  0  0  0  0
 64 63  1  0  0  0  0
 64 65  2  0  0  0  0
 65 66  1  0  0  0  0
 66 67  2  0  0  0  0
 68 65  1  0  0  0  0
 68 73  1  0  0  0  0
 69 72  1  0  0  0  0
 69 68  2  0  0  0  0
 70 69  1  0  0  0  0
 71 73  1  0  0  0  0
 72 71  2  0  0  0  0
 75 74  1  0  0  0  0
 76 79  1  0  0  0  0
 76 48  1  0  0  0  0
 77 76  1  0  0  0  0
 78 76  1  0  0  0  0
M  END
>  <MODEL>
2

>  <REMARK>
 VINA RESULT:   -11.033      1.487      2.021
 INTER + INTRA:         -26.773
 INTER:                 -21.007
 INTRA:                  -5.765
 UNBOUND:                -5.743
  Name = ligand
  24 active torsions:
  status: ('A' for Active; 'I' for Inactive)
    1  A    between atoms: N_1  and  C_2
    2  A    between atoms: C_4  and  C_15
    3  A    between atoms: C_5  and  C_54
    4  A    between atoms: C_9  and  C_10
    5  A    between atoms: C_12  and  C_13
    6  A    between atoms: C_16  and  C_17
    7  A    between atoms: C_18  and  C_19
    8  A    between atoms: C_18  and  N_62
    9  A    between atoms: C_20  and  C_21
   10  A    between atoms: C_20  and  C_25
   11  A    between atoms: C_20  and  N_63
   12  A    between atoms: C_21  and  C_22
   13  A    between atoms: C_21  and  C_23
   14  A    between atoms: C_21  and  C_24
   15  A    between atoms: C_27  and  C_28
   16  A    between atoms: C_29  and  C_30
   17  A    between atoms: C_29  and  C_31
   18  A    between atoms: C_29  and  N_65
   19  A    between atoms: C_34  and  C_35
   20  A    between atoms: C_36  and  C_38
   21  A    between atoms: C_37  and  C_48
   22  A    between atoms: C_43  and  O_69
   23  A    between atoms: C_52  and  N_59
   24  A    between atoms: C_53  and  N_60
                            x       y       z     vdW  Elec       q    Type
                         _______ _______ _______ _____ _____    ______ ____

>  <TORSDO>
F 16

$$$$
