REMARK  Name = ligand
REMARK  24 active torsions:
REMARK  status: ('A' for Active; 'I' for Inactive)
REMARK    1  A    between atoms: N_1  and  C_2
REMARK    2  A    between atoms: C_4  and  C_15
REMARK    3  A    between atoms: C_5  and  C_54
REMARK    4  A    between atoms: C_9  and  C_10
REMARK    5  A    between atoms: C_12  and  C_13
REMARK    6  A    between atoms: C_16  and  C_17
REMARK    7  A    between atoms: C_18  and  C_19
REMARK    8  A    between atoms: C_18  and  N_62
REMARK    9  A    between atoms: C_20  and  C_21
REMARK   10  A    between atoms: C_20  and  C_25
REMARK   11  A    between atoms: C_20  and  N_63
REMARK   12  A    between atoms: C_21  and  C_22
REMARK   13  A    between atoms: C_21  and  C_23
REMARK   14  A    between atoms: C_21  and  C_24
REMARK   15  A    between atoms: C_27  and  C_28
REMARK   16  A    between atoms: C_29  and  C_30
REMARK   17  A    between atoms: C_29  and  C_31
REMARK   18  A    between atoms: C_29  and  N_65
REMARK   19  A    between atoms: C_34  and  C_35
REMARK   20  A    between atoms: C_36  and  C_38
REMARK   21  A    between atoms: C_37  and  C_48
REMARK   22  A    between atoms: C_43  and  O_69
REMARK   23  A    between atoms: C_52  and  N_59
REMARK   24  A    between atoms: C_53  and  N_60
REMARK                            x       y       z     vdW  Elec       q    Type
REMARK                         _______ _______ _______ _____ _____    ______ ____
ROOT
ATOM      1  C   UNL     1      -1.597   1.905   0.082  0.00  0.00    +0.000 C 
ATOM      2  N   UNL     1      -0.774   1.421   1.033  0.00  0.00    +0.000 N 
ATOM      3  O   UNL     1      -1.933   1.261  -0.913  0.00  0.00    +0.000 OA
ATOM      4  H   UNL     1      -0.584   1.995   1.841  0.00  0.00    +0.000 HD
ENDROOT
BRANCH   1   7
ATOM      5  C   UNL     1      -2.692   5.476  -0.741  0.00  0.00    +0.000 A 
ATOM      6  C   UNL     1      -2.305   4.134  -0.865  0.00  0.00    +0.000 A 
ATOM      7  C   UNL     1      -2.029   3.341   0.259  0.00  0.00    +0.000 A 
ATOM      8  C   UNL     1      -2.154   3.914   1.532  0.00  0.00    +0.000 A 
ATOM      9  C   UNL     1      -2.526   5.247   1.673  0.00  0.00    +0.000 A 
ATOM     10  C   UNL     1      -2.788   6.026   0.548  0.00  0.00    +0.000 A 
ATOM     11  F   UNL     1      -3.126   7.325   0.726  0.00  0.00    +0.000 F 
BRANCH   5  13
ATOM     12  C   UNL     1      -2.155   6.257  -3.076  0.00  0.00    +0.000 A 
ATOM     13  C   UNL     1      -2.997   6.284  -1.958  0.00  0.00    +0.000 A 
ATOM     14  C   UNL     1      -4.141   7.086  -2.011  0.00  0.00    +0.000 A 
ATOM     15  C   UNL     1      -4.424   7.858  -3.132  0.00  0.00    +0.000 A 
ATOM     16  C   UNL     1      -3.581   7.848  -4.252  0.00  0.00    +0.000 A 
ATOM     17  C   UNL     1      -2.440   7.014  -4.227  0.00  0.00    +0.000 A 
BRANCH  16  26
ATOM     18  N   UNL     1      -4.460  10.600  -7.468  0.00  0.00    +0.000 NA
ATOM     19  C   UNL     1      -4.510  10.945  -8.893  0.00  0.00    +0.000 C 
ATOM     20  C   UNL     1      -5.377   9.475  -7.177  0.00  0.00    +0.000 C 
ATOM     21  C   UNL     1      -6.869   9.738  -7.481  0.00  0.00    +0.000 C 
ATOM     22  C   UNL     1      -5.244   9.055  -5.688  0.00  0.00    +0.000 C 
ATOM     23  C   UNL     1      -3.073  10.286  -7.061  0.00  0.00    +0.000 C 
ATOM     24  C   UNL     1      -2.043  11.422  -7.252  0.00  0.00    +0.000 C 
ATOM     25  C   UNL     1      -3.053   9.843  -5.574  0.00  0.00    +0.000 C 
ATOM     26  N   UNL     1      -3.873   8.643  -5.362  0.00  0.00    +0.000 N 
ENDBRANCH  16  26
BRANCH  17  28
ATOM     27  C   UNL     1      -0.819   6.001  -5.842  0.00  0.00    +0.000 C 
ATOM     28  N   UNL     1      -1.601   6.995  -5.362  0.00  0.00    +0.000 N 
ATOM     29  O   UNL     1      -0.697   4.898  -5.307  0.00  0.00    +0.000 OA
ATOM     30  H   UNL     1      -1.711   7.798  -5.965  0.00  0.00    +0.000 HD
BRANCH  27  32
ATOM     31  O   UNL     1       1.576   7.369 -10.674  0.00  0.00    +0.000 OA
ATOM     32  C   UNL     1      -0.110   6.353  -7.065  0.00  0.00    +0.000 A 
ATOM     33  C   UNL     1      -0.751   7.016  -8.062  0.00  0.00    +0.000 A 
ATOM     34  C   UNL     1       1.088   7.059  -9.589  0.00  0.00    +0.000 A 
ATOM     35  C   UNL     1       1.819   6.342  -8.546  0.00  0.00    +0.000 A 
ATOM     36  C   UNL     1       1.307   5.986  -7.330  0.00  0.00    +0.000 A 
ATOM     37  N   UNL     1      -0.195   7.362  -9.260  0.00  0.00    +0.000 N 
ATOM     38  H   UNL     1      -0.734   7.854  -9.958  0.00  0.00    +0.000 HD
BRANCH  36  39
ATOM     39  C   UNL     1       2.195   5.251  -6.313  0.00  0.00    +0.000 C 
ATOM     40  F   UNL     1       3.488   5.334  -6.634  0.00  0.00    +0.000 F 
ATOM     41  F   UNL     1       2.054   5.780  -5.096  0.00  0.00    +0.000 F 
ATOM     42  F   UNL     1       1.858   3.962  -6.281  0.00  0.00    +0.000 F 
ENDBRANCH  36  39
ENDBRANCH  27  32
ENDBRANCH  17  28
ENDBRANCH   5  13
ENDBRANCH   1   7
BRANCH   2  43
ATOM     43  C   UNL     1      -0.093   0.121   0.993  0.00  0.00    +0.000 C 
BRANCH  43  44
ATOM     44  C   UNL     1       1.198   0.170   0.153  0.00  0.00    +0.000 C 
ATOM     45  N   UNL     1       1.480   1.309  -0.505  0.00  0.00    +0.000 N 
ATOM     46  O   UNL     1       1.927  -0.820   0.115  0.00  0.00    +0.000 OA
ATOM     47  H   UNL     1       0.835   2.081  -0.429  0.00  0.00    +0.000 HD
BRANCH  45  48
ATOM     48  C   UNL     1       2.662   1.576  -1.328  0.00  0.00    +0.000 C 
BRANCH  48  49
ATOM     49  C   UNL     1       3.855   1.911  -0.387  0.00  0.00    +0.000 C 
ATOM     50  C   UNL     1       6.330   1.615   0.139  0.00  0.00    +0.000 C 
ATOM     51  C   UNL     1       7.431   0.898  -0.653  0.00  0.00    +0.000 C 
ATOM     52  C   UNL     1       6.693  -0.335  -1.151  0.00  0.00    +0.000 C 
ATOM     53  C   UNL     1       5.310   0.210  -1.518  0.00  0.00    +0.000 C 
ATOM     54  N   UNL     1       5.072   1.335  -0.598  0.00  0.00    +0.000 N 
ATOM     55  O   UNL     1       3.647   2.723   0.518  0.00  0.00    +0.000 OA
BRANCH  50  56
ATOM     56  C   UNL     1       6.638   3.117   0.306  0.00  0.00    +0.000 C 
ATOM     57  N   UNL     1       7.049   3.495   1.528  0.00  0.00    +0.000 N 
ATOM     58  O   UNL     1       6.520   3.876  -0.657  0.00  0.00    +0.000 OA
ATOM     59  H   UNL     1       7.108   2.801   2.258  0.00  0.00    +0.000 HD
BRANCH  57  60
ATOM     60  C   UNL     1       7.422   4.865   1.897  0.00  0.00    +0.000 C 
ATOM     61  C   UNL     1       7.571   4.986   3.423  0.00  0.00    +0.000 C 
BRANCH  60  62
ATOM     62  C   UNL     1       8.668   5.404   1.181  0.00  0.00    +0.000 A 
ATOM     63  C   UNL     1       8.696   6.736   0.758  0.00  0.00    +0.000 A 
ATOM     64  C   UNL     1       9.813   7.236   0.094  0.00  0.00    +0.000 A 
ATOM     65  C   UNL     1      10.911   6.409  -0.155  0.00  0.00    +0.000 A 
ATOM     66  C   UNL     1      10.883   5.077   0.265  0.00  0.00    +0.000 A 
ATOM     67  C   UNL     1       9.767   4.575   0.927  0.00  0.00    +0.000 A 
BRANCH  65  68
ATOM     68  C   UNL     1      12.114   6.938  -0.857  0.00  0.00    +0.000 A 
ATOM     69  C   UNL     1      13.484   6.782  -0.594  0.00  0.00    +0.000 A 
ATOM     70  C   UNL     1      14.149   6.036   0.544  0.00  0.00    +0.000 C 
ATOM     71  C   UNL     1      13.657   8.004  -2.390  0.00  0.00    +0.000 A 
ATOM     72  N   UNL     1      14.303   7.371  -1.447  0.00  0.00    +0.000 NA
ATOM     73  S   UNL     1      11.935   7.916  -2.293  0.00  0.00    +0.000 S 
ENDBRANCH  65  68
ENDBRANCH  60  62
ENDBRANCH  57  60
ENDBRANCH  50  56
BRANCH  52  74
ATOM     74  O   UNL     1       6.620  -1.342  -0.158  0.00  0.00    +0.000 OA
ATOM     75  H   UNL     1       6.093  -2.069  -0.496  0.00  0.00    +0.000 HD
ENDBRANCH  52  74
ENDBRANCH  48  49
BRANCH  48  76
ATOM     76  C   UNL     1       2.375   2.674  -2.424  0.00  0.00    +0.000 C 
ATOM     77  C   UNL     1       1.213   2.196  -3.336  0.00  0.00    +0.000 C 
ATOM     78  C   UNL     1       3.615   2.900  -3.327  0.00  0.00    +0.000 C 
ATOM     79  C   UNL     1       1.950   4.036  -1.810  0.00  0.00    +0.000 C 
ENDBRANCH  48  76
ENDBRANCH  45  48
ENDBRANCH  43  44
ENDBRANCH   2  43
TORSDOF 16
