MODEL 1
REMARK VINA RESULT:   -11.073      0.000      0.000
REMARK INTER + INTRA:         -26.849
REMARK INTER:                 -21.107
REMARK INTRA:                  -5.743
REMARK UNBOUND:                -5.743
REMARK  Name = ligand
REMARK  24 active torsions:
REMARK  status: ('A' for Active; 'I' for Inactive)
REMARK    1  A    between atoms: N_1  and  C_2
REMARK    2  A    between atoms: C_4  and  C_15
REMARK    3  A    between atoms: C_5  and  C_54
REMARK    4  A    between atoms: C_9  and  C_10
REMARK    5  A    between atoms: C_12  and  C_13
REMARK    6  A    between atoms: C_16  and  C_17
REMARK    7  A    between atoms: C_18  and  C_19
REMARK    8  A    between atoms: C_18  and  N_62
REMARK    9  A    between atoms: C_20  and  C_21
REMARK   10  A    between atoms: C_20  and  C_25
REMARK   11  A    between atoms: C_20  and  N_63
REMARK   12  A    between atoms: C_21  and  C_22
REMARK   13  A    between atoms: C_21  and  C_23
REMARK   14  A    between atoms: C_21  and  C_24
REMARK   15  A    between atoms: C_27  and  C_28
REMARK   16  A    between atoms: C_29  and  C_30
REMARK   17  A    between atoms: C_29  and  C_31
REMARK   18  A    between atoms: C_29  and  N_65
REMARK   19  A    between atoms: C_34  and  C_35
REMARK   20  A    between atoms: C_36  and  C_38
REMARK   21  A    between atoms: C_37  and  C_48
REMARK   22  A    between atoms: C_43  and  O_69
REMARK   23  A    between atoms: C_52  and  N_59
REMARK   24  A    between atoms: C_53  and  N_60
REMARK                            x       y       z     vdW  Elec       q    Type
REMARK                         _______ _______ _______ _____ _____    ______ ____
ROOT
ATOM      1  C   UNL     1       4.439   7.531 -11.678  0.00  0.00    +0.000 C 
ATOM      2  N   UNL     1       3.716   6.510 -11.176  0.00  0.00    +0.000 N 
ATOM      3  O   UNL     1       4.146   8.120 -12.719  0.00  0.00    +0.000 OA
ATOM      4  H   UNL     1       3.997   6.111 -10.293  0.00  0.00    +0.000 HD
ENDROOT
BRANCH   1   7
ATOM      5  C   UNL     1       7.809   9.114 -10.803  0.00  0.00    +0.000 A 
ATOM      6  C   UNL     1       6.616   8.789 -11.464  0.00  0.00    +0.000 A 
ATOM      7  C   UNL     1       5.705   7.868 -10.926  0.00  0.00    +0.000 A 
ATOM      8  C   UNL     1       6.003   7.270  -9.694  0.00  0.00    +0.000 A 
ATOM      9  C   UNL     1       7.188   7.572  -9.030  0.00  0.00    +0.000 A 
ATOM     10  C   UNL     1       8.088   8.482  -9.580  0.00  0.00    +0.000 A 
ATOM     11  F   UNL     1       9.240   8.734  -8.914  0.00  0.00    +0.000 F 
BRANCH   5  13
ATOM     12  C   UNL     1       8.712  10.418 -12.761  0.00  0.00    +0.000 A 
ATOM     13  C   UNL     1       8.746  10.114 -11.395  0.00  0.00    +0.000 A 
ATOM     14  C   UNL     1       9.679  10.777 -10.592  0.00  0.00    +0.000 A 
ATOM     15  C   UNL     1      10.569  11.695 -11.137  0.00  0.00    +0.000 A 
ATOM     16  C   UNL     1      10.553  11.998 -12.506  0.00  0.00    +0.000 A 
ATOM     17  C   UNL     1       9.591  11.363 -13.324  0.00  0.00    +0.000 A 
BRANCH  16  26
ATOM     18  N   UNL     1      13.356  15.008 -13.837  0.00  0.00    +0.000 NA
ATOM     19  C   UNL     1      14.456  15.455 -14.699  0.00  0.00    +0.000 C 
ATOM     20  C   UNL     1      12.160  14.690 -14.650  0.00  0.00    +0.000 C 
ATOM     21  C   UNL     1      11.583  15.865 -15.471  0.00  0.00    +0.000 C 
ATOM     22  C   UNL     1      11.036  14.126 -13.740  0.00  0.00    +0.000 C 
ATOM     23  C   UNL     1      13.778  13.849 -13.020  0.00  0.00    +0.000 C 
ATOM     24  C   UNL     1      14.976  14.094 -12.075  0.00  0.00    +0.000 C 
ATOM     25  C   UNL     1      12.578  13.339 -12.179  0.00  0.00    +0.000 C 
ATOM     26  N   UNL     1      11.466  12.911 -13.038  0.00  0.00    +0.000 N 
ENDBRANCH  16  26
BRANCH  17  28
ATOM     27  C   UNL     1      10.154  11.050 -15.742  0.00  0.00    +0.000 C 
ATOM     28  N   UNL     1       9.567  11.681 -14.699  0.00  0.00    +0.000 N 
ATOM     29  O   UNL     1      10.865  10.050 -15.633  0.00  0.00    +0.000 OA
ATOM     30  H   UNL     1       8.908  12.407 -14.939  0.00  0.00    +0.000 HD
BRANCH  27  32
ATOM     31  O   UNL     1       8.938  13.679 -20.492  0.00  0.00    +0.000 OA
ATOM     32  C   UNL     1       9.877  11.670 -17.031  0.00  0.00    +0.000 A 
ATOM     33  C   UNL     1       9.619  13.001 -17.110  0.00  0.00    +0.000 A 
ATOM     34  C   UNL     1       9.222  13.063 -19.467  0.00  0.00    +0.000 A 
ATOM     35  C   UNL     1       9.490  11.626 -19.431  0.00  0.00    +0.000 A 
ATOM     36  C   UNL     1       9.810  10.914 -18.310  0.00  0.00    +0.000 A 
ATOM     37  N   UNL     1       9.313  13.675 -18.257  0.00  0.00    +0.000 N 
ATOM     38  H   UNL     1       9.130  14.668 -18.241  0.00  0.00    +0.000 HD
BRANCH  36  39
ATOM     39  C   UNL     1      10.090   9.406 -18.418  0.00  0.00    +0.000 C 
ATOM     40  F   UNL     1       9.729   8.919 -19.607  0.00  0.00    +0.000 F 
ATOM     41  F   UNL     1      11.392   9.156 -18.266  0.00  0.00    +0.000 F 
ATOM     42  F   UNL     1       9.399   8.760 -17.479  0.00  0.00    +0.000 F 
ENDBRANCH  36  39
ENDBRANCH  27  32
ENDBRANCH  17  28
ENDBRANCH   5  13
ENDBRANCH   1   7
BRANCH   2  43
ATOM     43  C   UNL     1       2.548   5.895 -11.818  0.00  0.00    +0.000 C 
BRANCH  43  44
ATOM     44  C   UNL     1       2.938   5.067 -13.058  0.00  0.00    +0.000 C 
ATOM     45  N   UNL     1       2.861   5.661 -14.262  0.00  0.00    +0.000 N 
ATOM     46  O   UNL     1       3.310   3.904 -12.910  0.00  0.00    +0.000 OA
ATOM     47  H   UNL     1       2.546   6.618 -14.308  0.00  0.00    +0.000 HD
BRANCH  45  48
ATOM     48  C   UNL     1       3.213   5.069 -15.555  0.00  0.00    +0.000 C 
BRANCH  48  49
ATOM     49  C   UNL     1       4.751   4.838 -15.592  0.00  0.00    +0.000 C 
ATOM     50  C   UNL     1       6.690   3.379 -16.369  0.00  0.00    +0.000 C 
ATOM     51  C   UNL     1       6.695   2.137 -17.269  0.00  0.00    +0.000 C 
ATOM     52  C   UNL     1       5.451   1.407 -16.786  0.00  0.00    +0.000 C 
ATOM     53  C   UNL     1       4.449   2.541 -16.554  0.00  0.00    +0.000 C 
ATOM     54  N   UNL     1       5.257   3.709 -16.165  0.00  0.00    +0.000 N 
ATOM     55  O   UNL     1       5.465   5.720 -15.109  0.00  0.00    +0.000 OA
BRANCH  50  56
ATOM     56  C   UNL     1       7.517   4.528 -16.983  0.00  0.00    +0.000 C 
ATOM     57  N   UNL     1       7.109   4.959 -18.188  0.00  0.00    +0.000 N 
ATOM     58  O   UNL     1       8.467   4.999 -16.357  0.00  0.00    +0.000 OA
ATOM     59  H   UNL     1       6.322   4.505 -18.627  0.00  0.00    +0.000 HD
BRANCH  57  60
ATOM     60  C   UNL     1       7.731   6.057 -18.937  0.00  0.00    +0.000 C 
ATOM     61  C   UNL     1       8.070   5.604 -20.367  0.00  0.00    +0.000 C 
BRANCH  60  62
ATOM     62  C   UNL     1       6.921   7.360 -18.953  0.00  0.00    +0.000 A 
ATOM     63  C   UNL     1       6.425   7.877 -17.752  0.00  0.00    +0.000 A 
ATOM     64  C   UNL     1       5.676   9.051 -17.752  0.00  0.00    +0.000 A 
ATOM     65  C   UNL     1       5.414   9.717 -18.951  0.00  0.00    +0.000 A 
ATOM     66  C   UNL     1       5.907   9.201 -20.152  0.00  0.00    +0.000 A 
ATOM     67  C   UNL     1       6.654   8.027 -20.154  0.00  0.00    +0.000 A 
BRANCH  65  68
ATOM     68  C   UNL     1       4.621  10.979 -18.959  0.00  0.00    +0.000 A 
ATOM     69  C   UNL     1       4.828  12.208 -18.314  0.00  0.00    +0.000 A 
ATOM     70  C   UNL     1       5.939  12.600 -17.362  0.00  0.00    +0.000 C 
ATOM     71  C   UNL     1       3.001  12.729 -19.381  0.00  0.00    +0.000 A 
ATOM     72  N   UNL     1       3.932  13.146 -18.564  0.00  0.00    +0.000 NA
ATOM     73  S   UNL     1       3.168  11.097 -19.921  0.00  0.00    +0.000 S 
ENDBRANCH  65  68
ENDBRANCH  60  62
ENDBRANCH  57  60
ENDBRANCH  50  56
BRANCH  52  74
ATOM     74  O   UNL     1       5.700   0.669 -15.604  0.00  0.00    +0.000 OA
ATOM     75  H   UNL     1       6.533   0.204 -15.701  0.00  0.00    +0.000 HD
ENDBRANCH  52  74
ENDBRANCH  48  49
BRANCH  48  76
ATOM     76  C   UNL     1       2.659   5.925 -16.760  0.00  0.00    +0.000 C 
ATOM     77  C   UNL     1       2.609   7.420 -16.346  0.00  0.00    +0.000 C 
ATOM     78  C   UNL     1       1.217   5.495 -17.134  0.00  0.00    +0.000 C 
ATOM     79  C   UNL     1       3.554   5.825 -18.026  0.00  0.00    +0.000 C 
ENDBRANCH  48  76
ENDBRANCH  45  48
ENDBRANCH  43  44
ENDBRANCH   2  43
TORSDOF 16
ENDMDL
MODEL 2
REMARK VINA RESULT:   -11.033      1.487      2.021
REMARK INTER + INTRA:         -26.773
REMARK INTER:                 -21.007
REMARK INTRA:                  -5.765
REMARK UNBOUND:                -5.743
REMARK  Name = ligand
REMARK  24 active torsions:
REMARK  status: ('A' for Active; 'I' for Inactive)
REMARK    1  A    between atoms: N_1  and  C_2
REMARK    2  A    between atoms: C_4  and  C_15
REMARK    3  A    between atoms: C_5  and  C_54
REMARK    4  A    between atoms: C_9  and  C_10
REMARK    5  A    between atoms: C_12  and  C_13
REMARK    6  A    between atoms: C_16  and  C_17
REMARK    7  A    between atoms: C_18  and  C_19
REMARK    8  A    between atoms: C_18  and  N_62
REMARK    9  A    between atoms: C_20  and  C_21
REMARK   10  A    between atoms: C_20  and  C_25
REMARK   11  A    between atoms: C_20  and  N_63
REMARK   12  A    between atoms: C_21  and  C_22
REMARK   13  A    between atoms: C_21  and  C_23
REMARK   14  A    between atoms: C_21  and  C_24
REMARK   15  A    between atoms: C_27  and  C_28
REMARK   16  A    between atoms: C_29  and  C_30
REMARK   17  A    between atoms: C_29  and  C_31
REMARK   18  A    between atoms: C_29  and  N_65
REMARK   19  A    between atoms: C_34  and  C_35
REMARK   20  A    between atoms: C_36  and  C_38
REMARK   21  A    between atoms: C_37  and  C_48
REMARK   22  A    between atoms: C_43  and  O_69
REMARK   23  A    between atoms: C_52  and  N_59
REMARK   24  A    between atoms: C_53  and  N_60
REMARK                            x       y       z     vdW  Elec       q    Type
REMARK                         _______ _______ _______ _____ _____    ______ ____
ROOT
ATOM      1  C   UNL     1       4.418   7.153 -11.384  0.00  0.00    +0.000 C 
ATOM      2  N   UNL     1       4.002   5.902 -11.105  0.00  0.00    +0.000 N 
ATOM      3  O   UNL     1       3.880   7.873 -12.226  0.00  0.00    +0.000 OA
ATOM      4  H   UNL     1       4.468   5.394 -10.368  0.00  0.00    +0.000 HD
ENDROOT
BRANCH   1   7
ATOM      5  C   UNL     1       7.712   8.945 -10.627  0.00  0.00    +0.000 A 
ATOM      6  C   UNL     1       6.540   8.514 -11.266  0.00  0.00    +0.000 A 
ATOM      7  C   UNL     1       5.660   7.607 -10.655  0.00  0.00    +0.000 A 
ATOM      8  C   UNL     1       5.968   7.134  -9.372  0.00  0.00    +0.000 A 
ATOM      9  C   UNL     1       7.131   7.543  -8.729  0.00  0.00    +0.000 A 
ATOM     10  C   UNL     1       8.001   8.437  -9.350  0.00  0.00    +0.000 A 
ATOM     11  F   UNL     1       9.134   8.793  -8.701  0.00  0.00    +0.000 F 
BRANCH   5  13
ATOM     12  C   UNL     1       8.646  10.044 -12.693  0.00  0.00    +0.000 A 
ATOM     13  C   UNL     1       8.614   9.926 -11.299  0.00  0.00    +0.000 A 
ATOM     14  C   UNL     1       9.448  10.757 -10.545  0.00  0.00    +0.000 A 
ATOM     15  C   UNL     1      10.307  11.660 -11.162  0.00  0.00    +0.000 A 
ATOM     16  C   UNL     1      10.356  11.778 -12.558  0.00  0.00    +0.000 A 
ATOM     17  C   UNL     1       9.493  10.970 -13.331  0.00  0.00    +0.000 A 
BRANCH  16  26
ATOM     18  N   UNL     1      13.033  14.786 -14.131  0.00  0.00    +0.000 NA
ATOM     19  C   UNL     1      14.146  15.198 -14.993  0.00  0.00    +0.000 C 
ATOM     20  C   UNL     1      11.903  14.292 -14.949  0.00  0.00    +0.000 C 
ATOM     21  C   UNL     1      11.298  15.316 -15.934  0.00  0.00    +0.000 C 
ATOM     22  C   UNL     1      10.770  13.768 -14.025  0.00  0.00    +0.000 C 
ATOM     23  C   UNL     1      13.483  13.766 -13.159  0.00  0.00    +0.000 C 
ATOM     24  C   UNL     1      14.614  14.204 -12.200  0.00  0.00    +0.000 C 
ATOM     25  C   UNL     1      12.276  13.282 -12.313  0.00  0.00    +0.000 C 
ATOM     26  N   UNL     1      11.237  12.679 -13.159  0.00  0.00    +0.000 N 
ENDBRANCH  16  26
BRANCH  17  28
ATOM     27  C   UNL     1       9.870  10.191 -15.680  0.00  0.00    +0.000 C 
ATOM     28  N   UNL     1       9.534  11.101 -14.736  0.00  0.00    +0.000 N 
ATOM     29  O   UNL     1      10.238   9.042 -15.432  0.00  0.00    +0.000 OA
ATOM     30  H   UNL     1       9.127  11.960 -15.078  0.00  0.00    +0.000 HD
BRANCH  27  32
ATOM     31  O   UNL     1       9.826  12.081 -20.913  0.00  0.00    +0.000 OA
ATOM     32  C   UNL     1       9.767  10.697 -17.042  0.00  0.00    +0.000 A 
ATOM     33  C   UNL     1      10.739  10.422 -17.950  0.00  0.00    +0.000 A 
ATOM     34  C   UNL     1       9.792  11.674 -19.753  0.00  0.00    +0.000 A 
ATOM     35  C   UNL     1       8.723  11.999 -18.810  0.00  0.00    +0.000 A 
ATOM     36  C   UNL     1       8.654  11.562 -17.518  0.00  0.00    +0.000 A 
ATOM     37  N   UNL     1      10.761  10.873 -19.238  0.00  0.00    +0.000 N 
ATOM     38  H   UNL     1      11.520  10.630 -19.859  0.00  0.00    +0.000 HD
BRANCH  36  39
ATOM     39  C   UNL     1       7.459  11.962 -16.638  0.00  0.00    +0.000 C 
ATOM     40  F   UNL     1       6.968  10.919 -15.965  0.00  0.00    +0.000 F 
ATOM     41  F   UNL     1       7.823  12.879 -15.739  0.00  0.00    +0.000 F 
ATOM     42  F   UNL     1       6.488  12.454 -17.408  0.00  0.00    +0.000 F 
ENDBRANCH  36  39
ENDBRANCH  27  32
ENDBRANCH  17  28
ENDBRANCH   5  13
ENDBRANCH   1   7
BRANCH   2  43
ATOM     43  C   UNL     1       2.928   5.184 -11.802  0.00  0.00    +0.000 C 
BRANCH  43  44
ATOM     44  C   UNL     1       3.374   4.682 -13.189  0.00  0.00    +0.000 C 
ATOM     45  N   UNL     1       3.270   5.528 -14.230  0.00  0.00    +0.000 N 
ATOM     46  O   UNL     1       3.813   3.538 -13.301  0.00  0.00    +0.000 OA
ATOM     47  H   UNL     1       2.899   6.451 -14.064  0.00  0.00    +0.000 HD
BRANCH  45  48
ATOM     48  C   UNL     1       3.664   5.265 -15.616  0.00  0.00    +0.000 C 
BRANCH  48  49
ATOM     49  C   UNL     1       5.207   5.428 -15.732  0.00  0.00    +0.000 C 
ATOM     50  C   UNL     1       7.366   4.716 -16.880  0.00  0.00    +0.000 C 
ATOM     51  C   UNL     1       7.591   3.768 -18.065  0.00  0.00    +0.000 C 
ATOM     52  C   UNL     1       6.588   2.664 -17.765  0.00  0.00    +0.000 C 
ATOM     53  C   UNL     1       5.371   3.431 -17.239  0.00  0.00    +0.000 C 
ATOM     54  N   UNL     1       5.915   4.630 -16.579  0.00  0.00    +0.000 N 
ATOM     55  O   UNL     1       5.731   6.313 -15.051  0.00  0.00    +0.000 OA
BRANCH  50  56
ATOM     56  C   UNL     1       7.858   6.144 -17.195  0.00  0.00    +0.000 C 
ATOM     57  N   UNL     1       7.614   6.582 -18.441  0.00  0.00    +0.000 N 
ATOM     58  O   UNL     1       8.413   6.807 -16.318  0.00  0.00    +0.000 OA
ATOM     59  H   UNL     1       7.159   5.962 -19.095  0.00  0.00    +0.000 HD
BRANCH  57  60
ATOM     60  C   UNL     1       7.968   7.914 -18.943  0.00  0.00    +0.000 C 
ATOM     61  C   UNL     1       8.824   7.797 -20.215  0.00  0.00    +0.000 C 
BRANCH  60  62
ATOM     62  C   UNL     1       6.774   8.850 -19.171  0.00  0.00    +0.000 A 
ATOM     63  C   UNL     1       6.690   9.581 -20.360  0.00  0.00    +0.000 A 
ATOM     64  C   UNL     1       5.620  10.446 -20.575  0.00  0.00    +0.000 A 
ATOM     65  C   UNL     1       4.626  10.590 -19.604  0.00  0.00    +0.000 A 
ATOM     66  C   UNL     1       4.710   9.862 -18.415  0.00  0.00    +0.000 A 
ATOM     67  C   UNL     1       5.779   8.999 -18.197  0.00  0.00    +0.000 A 
BRANCH  65  68
ATOM     68  C   UNL     1       3.473  11.506 -19.831  0.00  0.00    +0.000 A 
ATOM     69  C   UNL     1       2.367  11.410 -20.689  0.00  0.00    +0.000 A 
ATOM     70  C   UNL     1       2.043  10.324 -21.695  0.00  0.00    +0.000 C 
ATOM     71  C   UNL     1       1.852  13.303 -19.742  0.00  0.00    +0.000 A 
ATOM     72  N   UNL     1       1.497  12.402 -20.619  0.00  0.00    +0.000 NA
ATOM     73  S   UNL     1       3.332  12.985 -18.911  0.00  0.00    +0.000 S 
ENDBRANCH  65  68
ENDBRANCH  60  62
ENDBRANCH  57  60
ENDBRANCH  50  56
BRANCH  52  74
ATOM     74  O   UNL     1       7.087   1.744 -16.812  0.00  0.00    +0.000 OA
ATOM     75  H   UNL     1       7.466   0.995 -17.277  0.00  0.00    +0.000 HD
ENDBRANCH  52  74
ENDBRANCH  48  49
BRANCH  48  76
ATOM     76  C   UNL     1       2.842   6.146 -16.634  0.00  0.00    +0.000 C 
ATOM     77  C   UNL     1       1.464   5.480 -16.893  0.00  0.00    +0.000 C 
ATOM     78  C   UNL     1       3.573   6.252 -17.998  0.00  0.00    +0.000 C 
ATOM     79  C   UNL     1       2.570   7.580 -16.101  0.00  0.00    +0.000 C 
ENDBRANCH  48  76
ENDBRANCH  45  48
ENDBRANCH  43  44
ENDBRANCH   2  43
TORSDOF 16
ENDMDL
