=
                    3D
 Structure written by MMmdl.
 92 99  0  0  1  0            999 V2000
   -3.3880    1.7450   14.9620 C   0  0  0  0  0  0
   -4.7010    1.3290   15.0980 N   0  0  0  0  0  0
   -2.5960    1.9220   15.8860 O   0  0  0  0  0  0
   -5.2470    1.2210   14.2860 H   0  0  0  0  0  0
   -2.9870    1.9740   13.5180 C   0  0  0  0  0  0
   -3.7080    3.1670   12.8910 C   0  0  0  0  0  0
   -4.1240    2.9030   11.4410 C   0  0  0  0  0  0
   -4.0130    4.1720   10.5930 C   0  0  0  0  0  0
   -5.2490    5.0590   10.7600 C   0  0  0  0  0  0
   -6.4630    4.5690    9.9670 C   0  0  0  0  0  0
   -7.5220    5.6280    9.6420 C   0  0  0  0  0  0
   -8.8690    5.0370    9.2250 C   0  0  0  0  0  0
   -9.6120    4.4520   10.4240 C   0  0  0  0  0  0
  -10.1540    3.0590   10.1490 C   0  0  0  0  0  0
   -9.2650    2.3070    9.3950 N   0  0  0  0  0  0
  -11.2460    2.6710   10.5530 O   0  0  0  0  0  0
   -8.4130    2.7190    9.1230 H   0  0  0  0  0  0
   -9.5310    0.9470    8.9910 C   0  0  2  0  0  0
   -8.3370    0.1650    9.4780 C   0  0  0  0  0  0
   -9.6520   -2.9360   11.0040 C   0  0  0  0  0  0
   -7.5580   -1.8140   10.7520 C   0  0  0  0  0  0
   -9.9390   -1.5150   10.5340 C   0  0  2  0  0  0
   -8.2640   -2.8320   11.6340 C   0  0  2  0  0  0
   -8.6180   -0.9670   10.2240 N   0  0  0  0  0  0
   -7.1960    0.5410    9.2050 O   0  0  0  0  0  0
  -10.6240   -0.7820   11.6720 C   0  0  0  0  0  0
   -9.8250    0.1530   12.3010 N   0  0  0  0  0  0
  -11.7880   -1.0480   11.9480 O   0  0  0  0  0  0
   -8.9020    0.2720   11.9800 H   0  0  0  0  0  0
  -10.2790    0.9650   13.4080 C   0  0  0  0  0  0
   -7.4160    3.4450   13.2490 C   0  0  0  0  0  0
   -9.3490    4.5600   14.1750 C   0  0  0  0  0  0
   -8.1520    2.2670   13.1310 C   0  0  0  0  0  0
  -10.0850    3.3810   14.0570 C   0  0  0  0  0  0
   -8.0150    4.5920   13.7710 C   0  0  0  0  0  0
   -9.4870    2.2340   13.5350 C   0  0  0  0  0  0
   -5.6120    7.4840   14.4510 C   0  0  0  0  0  0
   -7.2530    5.8120   13.8930 C   0  0  0  0  0  0
   -7.4680    7.0640   13.3610 C   0  0  0  0  0  0
   -8.5970    7.4640   12.4940 C   0  0  0  0  0  0
   -6.5280    8.0250   13.6790 N   0  0  0  0  0  0
   -5.8180    5.8230   14.8330 S   0  0  0  0  0  0
   -7.6150   -4.0870   11.6110 O   0  0  0  0  0  0
   -7.8040   -4.5650   12.4350 H   0  0  0  0  0  0
   -9.7350    2.1660    6.7840 C   0  0  0  0  0  0
   -8.7940   -0.1550    6.7890 C   0  0  0  0  0  0
  -11.2230    0.2210    7.2590 C   0  0  0  0  0  0
   -9.8040    0.7880    7.4720 C   0  0  0  0  0  0
   -5.3040    1.0470   16.3800 C   0  0  0  0  0  0
   -6.7710    0.6720   16.2270 C   0  0  0  0  0  0
   -7.3760    2.9100   16.8820 C   0  0  0  0  0  0
   -9.0160    1.1350   16.9690 C   0  0  0  0  0  0
   -8.1990    3.7660   17.8400 C   0  0  0  0  0  0
   -9.8880    1.9380   17.9280 C   0  0  0  0  0  0
   -7.5970    1.4780   17.1240 N   0  0  0  0  0  0
   -9.6570    3.4100   17.6930 N   0  0  0  0  0  0
  -10.5360    4.2630   18.5640 C   0  0  0  0  0  0
  -13.1550    4.9660   15.9180 C   0  0  0  0  0  0
  -13.7260    6.1440   16.4000 C   0  0  0  0  0  0
  -12.1180    4.3540   16.6210 C   0  0  0  0  0  0
  -12.2230    6.0990   18.2900 C   0  0  0  0  0  0
  -13.2600    6.7100   17.5860 C   0  0  0  0  0  0
  -11.6510    4.9210   17.8070 C   0  0  0  0  0  0
  -14.8940    8.5380   17.3870 C   0  0  0  0  0  0
  -15.4660    9.7160   17.8670 C   0  0  0  0  0  0
  -13.3810    8.5030   19.2690 C   0  0  0  0  0  0
  -13.8520    7.9320   18.0870 C   0  0  0  0  0  0
  -14.9950   10.2880   19.0490 C   0  0  0  0  0  0
  -13.9520    9.6810   19.7500 C   0  0  0  0  0  0
  -16.9670   11.7460   19.1120 C   0  0  0  0  0  0
  -14.7410   12.6440   19.7700 C   0  0  0  0  0  0
  -17.6380   12.6850   20.1060 C   0  0  0  0  0  0
  -15.4170   13.5860   20.7580 C   0  0  0  0  0  0
  -17.4680   14.9540   21.1290 C   0  0  0  0  0  0
  -15.5820   11.4700   19.5140 N   0  0  0  0  0  0
  -16.7980   13.9280   20.2600 N   0  0  0  0  0  0
  -12.1320   10.4390   21.3020 C   0  0  0  0  0  0
  -13.4640   10.2350   20.9370 N   0  0  0  0  0  0
  -11.1210   10.1740   20.6620 O   0  0  0  0  0  0
  -14.1410   10.5180   21.5940 H   0  0  0  0  0  0
  -12.0680   10.9770   25.0560 C   0  0  0  0  0  0
  -11.6730   12.3530   22.6630 C   0  0  0  0  0  0
  -12.0030   11.0540   22.6390 C   0  0  0  0  0  0
  -12.2100   10.3320   23.8840 C   0  0  0  0  0  0
  -11.7010   12.4240   25.0890 C   0  0  0  0  0  0
  -11.5260   13.0200   23.8530 N   0  0  0  0  0  0
  -11.5720   13.0080   26.1610 O   0  0  0  0  0  0
  -11.2840   13.9740   23.8260 H   0  0  0  0  0  0
  -12.5790    8.8780   23.8450 C   0  0  0  0  0  0
  -13.8870    8.7230   23.5620 F   0  0  0  0  0  0
  -11.8700    8.2260   22.9030 F   0  0  0  0  0  0
  -12.3370    8.2850   25.0310 F   0  0  0  0  0  0
  1  2  1  0  0  0
  1  3  2  0  0  0
  1  5  1  0  0  0
  2 49  1  0  0  0
  2  4  1  0  0  0
  5  6  1  0  0  0
  6  7  1  0  0  0
  7  8  1  0  0  0
  8  9  1  0  0  0
  9 10  1  0  0  0
 10 11  1  0  0  0
 11 12  1  0  0  0
 12 13  1  0  0  0
 13 14  1  0  0  0
 14 16  2  0  0  0
 14 15  1  0  0  0
 15 17  1  0  0  0
 15 18  1  0  0  0
 18 19  1  0  0  0
 18 48  1  0  0  0
 19 24  1  0  0  0
 19 25  2  0  0  0
 20 23  1  0  0  0
 20 22  1  0  0  0
 21 23  1  0  0  0
 21 24  1  0  0  0
 22 26  1  0  0  0
 22 24  1  0  0  0
 23 43  1  0  0  0
 26 28  2  0  0  0
 26 27  1  0  0  0
 27 30  1  0  0  0
 27 29  1  0  0  0
 30 36  1  0  0  0
 31 35  1  0  0  0
 31 33  2  0  0  0
 32 34  1  0  0  0
 32 35  2  0  0  0
 33 36  1  0  0  0
 34 36  2  0  0  0
 35 38  1  0  0  0
 37 42  1  0  0  0
 37 41  2  0  0  0
 38 42  1  0  0  0
 38 39  2  0  0  0
 39 41  1  0  0  0
 39 40  1  0  0  0
 43 44  1  0  0  0
 45 48  1  0  0  0
 46 48  1  0  0  0
 47 48  1  0  0  0
 49 50  1  0  0  0
 50 55  1  0  0  0
 51 55  1  0  0  0
 51 53  1  0  0  0
 52 55  1  0  0  0
 52 54  1  0  0  0
 53 56  1  0  0  0
 54 56  1  0  0  0
 56 57  1  0  0  0
 57 63  1  0  0  0
 58 59  2  0  0  0
 58 60  1  0  0  0
 59 62  1  0  0  0
 60 63  2  0  0  0
 61 62  2  0  0  0
 61 63  1  0  0  0
 62 67  1  0  0  0
 64 65  2  0  0  0
 64 67  1  0  0  0
 65 68  1  0  0  0
 66 69  1  0  0  0
 66 67  2  0  0  0
 68 75  1  0  0  0
 68 69  2  0  0  0
 69 78  1  0  0  0
 70 75  1  0  0  0
 70 72  1  0  0  0
 71 73  1  0  0  0
 71 75  1  0  0  0
 72 76  1  0  0  0
 73 76  1  0  0  0
 74 76  1  0  0  0
 77 83  1  0  0  0
 77 78  1  0  0  0
 77 79  2  0  0  0
 78 80  1  0  0  0
 81 85  1  0  0  0
 81 84  2  0  0  0
 82 86  1  0  0  0
 82 83  2  0  0  0
 83 84  1  0  0  0
 84 89  1  0  0  0
 85 87  2  0  0  0
 85 86  1  0  0  0
 86 88  1  0  0  0
 89 92  1  0  0  0
 89 90  1  0  0  0
 89 91  1  0  0  0
M  END
> <s_m_entry_id>
3

> <s_m_entry_name>
0000_ADV_out_mae.1

> <MODEL>
1

> <REMARK>
 VINA RESULT:   -10.252      0.000      0.000
 INTER + INTRA:         -33.107
 INTER:                 -25.393
 INTRA:                  -7.715
 UNBOUND:                -6.373
  Name = 
  33 active torsions:
  status: ('A' for Active; 'I' for Inactive)
    1  A    between atoms: C_13  and  C_20
    2  A    between atoms: C_14  and  C_15
    3  A    between atoms: C_16  and  C_49
    4  A    between atoms: C_17  and  C_50
    5  A    between atoms: C_18  and  N_67
    6  A    between atoms: C_19  and  N_70
    7  A    between atoms: C_21  and  C_44
    8  A    between atoms: C_24  and  C_27
    9  A    between atoms: C_25  and  C_63
   10  A    between atoms: C_28  and  C_42
   11  A    between atoms: C_29  and  C_62
   12  A    between atoms: C_30  and  C_51
   13  A    between atoms: C_31  and  C_52
   14  A    between atoms: C_43  and  O_82
   15  A    between atoms: C_45  and  C_64
   16  A    between atoms: C_46  and  C_64
   17  A    between atoms: C_47  and  C_64
   18  A    between atoms: C_48  and  N_74
   19  A    between atoms: C_49  and  N_71
   20  A    between atoms: C_50  and  N_75
   21  A    between atoms: C_51  and  C_53
   22  A    between atoms: C_52  and  C_54
   23  A    between atoms: C_53  and  C_55
   24  A    between atoms: C_54  and  C_56
   25  A    between atoms: C_55  and  C_57
   26  A    between atoms: C_56  and  C_58
   27  A    between atoms: C_57  and  C_59
   28  A    between atoms: C_58  and  C_59
   29  A    between atoms: C_60  and  C_61
   30  A    between atoms: C_60  and  N_69
   31  A    between atoms: C_61  and  N_72
   32  A    between atoms: C_62  and  C_64
   33  A    between atoms: C_62  and  N_73
                            x       y       z     vdW  Elec       q    Type
                         _______ _______ _______ _____ _____    ______ ____

> <TORSDO>
F 28

> <chiral flag>
1

> <version>
0

> <chiral flag>
1

> <s_m_Source_Path>
/data/baiqing/PycharmProjects/DockStream-master/result/7JTO

> <s_m_Source_File>
0000_ADV_out_mae.sdf

> <i_m_Source_File_Index>
1

> <s_m_subgroup_title>
0000_ADV_out_mae

> <s_m_subgroupid>
0000_ADV_out_mae-imp3

> <b_m_subgroup_collapsed>
0

$$$$
