REMARK  Name = 
REMARK  33 active torsions:
REMARK  status: ('A' for Active; 'I' for Inactive)
REMARK    1  A    between atoms: C_13  and  C_20
REMARK    2  A    between atoms: C_14  and  C_15
REMARK    3  A    between atoms: C_16  and  C_49
REMARK    4  A    between atoms: C_17  and  C_50
REMARK    5  A    between atoms: C_18  and  N_67
REMARK    6  A    between atoms: C_19  and  N_70
REMARK    7  A    between atoms: C_21  and  C_44
REMARK    8  A    between atoms: C_24  and  C_27
REMARK    9  A    between atoms: C_25  and  C_63
REMARK   10  A    between atoms: C_28  and  C_42
REMARK   11  A    between atoms: C_29  and  C_62
REMARK   12  A    between atoms: C_30  and  C_51
REMARK   13  A    between atoms: C_31  and  C_52
REMARK   14  A    between atoms: C_43  and  O_82
REMARK   15  A    between atoms: C_45  and  C_64
REMARK   16  A    between atoms: C_46  and  C_64
REMARK   17  A    between atoms: C_47  and  C_64
REMARK   18  A    between atoms: C_48  and  N_74
REMARK   19  A    between atoms: C_49  and  N_71
REMARK   20  A    between atoms: C_50  and  N_75
REMARK   21  A    between atoms: C_51  and  C_53
REMARK   22  A    between atoms: C_52  and  C_54
REMARK   23  A    between atoms: C_53  and  C_55
REMARK   24  A    between atoms: C_54  and  C_56
REMARK   25  A    between atoms: C_55  and  C_57
REMARK   26  A    between atoms: C_56  and  C_58
REMARK   27  A    between atoms: C_57  and  C_59
REMARK   28  A    between atoms: C_58  and  C_59
REMARK   29  A    between atoms: C_60  and  C_61
REMARK   30  A    between atoms: C_60  and  N_69
REMARK   31  A    between atoms: C_61  and  N_72
REMARK   32  A    between atoms: C_62  and  C_64
REMARK   33  A    between atoms: C_62  and  N_73
REMARK                            x       y       z     vdW  Elec       q    Type
REMARK                         _______ _______ _______ _____ _____    ______ ____
ROOT
ATOM      1  C   UNL     1      -4.574   6.463  12.297  0.00  0.00    +0.000 C 
ATOM      2  N   UNL     1      -4.622   5.624  13.397  0.00  0.00    +0.000 N 
ATOM      3  O   UNL     1      -5.533   7.061  11.813  0.00  0.00    +0.000 OA
ATOM      4  H   UNL     1      -3.789   5.195  13.699  0.00  0.00    +0.000 HD
ENDROOT
BRANCH   1   5
ATOM      5  C   UNL     1      -3.181   6.592  11.713  0.00  0.00    +0.000 C 
BRANCH   5   6
ATOM      6  C   UNL     1      -3.110   6.130  10.258  0.00  0.00    +0.000 C 
BRANCH   6   7
ATOM      7  C   UNL     1      -3.526   4.666  10.088  0.00  0.00    +0.000 C 
BRANCH   7   8
ATOM      8  C   UNL     1      -3.417   4.225   8.626  0.00  0.00    +0.000 C 
BRANCH   8   9
ATOM      9  C   UNL     1      -3.798   2.752   8.462  0.00  0.00    +0.000 C 
BRANCH   9  10
ATOM     10  C   UNL     1      -3.623   2.232   7.033  0.00  0.00    +0.000 C 
BRANCH  10  11
ATOM     11  C   UNL     1      -3.907   0.741   6.824  0.00  0.00    +0.000 C 
BRANCH  11  12
ATOM     12  C   UNL     1      -3.770   0.291   5.369  0.00  0.00    +0.000 C 
BRANCH  12  13
ATOM     13  C   UNL     1      -4.055  -1.202   5.222  0.00  0.00    +0.000 C 
BRANCH  13  14
ATOM     14  C   UNL     1      -5.471  -1.566   5.635  0.00  0.00    +0.000 C 
ATOM     15  N   UNL     1      -5.539  -2.858   6.136  0.00  0.00    +0.000 N 
ATOM     16  O   UNL     1      -6.421  -0.796   5.528  0.00  0.00    +0.000 OA
ATOM     17  H   UNL     1      -4.712  -3.391   6.177  0.00  0.00    +0.000 HD
BRANCH  15  18
ATOM     18  C   UNL     1      -6.768  -3.457   6.601  0.00  0.00    +0.000 C 
BRANCH  18  19
ATOM     19  C   UNL     1      -6.357  -4.299   7.782  0.00  0.00    +0.000 C 
ATOM     20  C   UNL     1      -8.236  -3.020  10.699  0.00  0.00    +0.000 C 
ATOM     21  C   UNL     1      -6.513  -4.610  10.237  0.00  0.00    +0.000 C 
ATOM     22  C   UNL     1      -7.734  -2.765   9.283  0.00  0.00    +0.000 C 
ATOM     23  C   UNL     1      -7.074  -3.756  11.364  0.00  0.00    +0.000 C 
ATOM     24  N   UNL     1      -6.832  -3.885   9.015  0.00  0.00    +0.000 N 
ATOM     25  O   UNL     1      -5.643  -5.290   7.620  0.00  0.00    +0.000 OA
BRANCH  22  26
ATOM     26  C   UNL     1      -7.021  -1.426   9.280  0.00  0.00    +0.000 C 
ATOM     27  N   UNL     1      -7.831  -0.358   8.948  0.00  0.00    +0.000 N 
ATOM     28  O   UNL     1      -5.829  -1.376   9.561  0.00  0.00    +0.000 OA
ATOM     29  H   UNL     1      -8.778  -0.534   8.743  0.00  0.00    +0.000 HD
BRANCH  27  30
ATOM     30  C   UNL     1      -7.356   1.006   8.887  0.00  0.00    +0.000 C 
BRANCH  30  36
ATOM     31  C   UNL     1      -8.152   3.141  11.918  0.00  0.00    +0.000 A 
ATOM     32  C   UNL     1     -10.069   3.147  10.448  0.00  0.00    +0.000 A 
ATOM     33  C   UNL     1      -7.471   2.312  11.027  0.00  0.00    +0.000 A 
ATOM     34  C   UNL     1      -9.388   2.317   9.557  0.00  0.00    +0.000 A 
ATOM     35  C   UNL     1      -9.451   3.559  11.628  0.00  0.00    +0.000 A 
ATOM     36  C   UNL     1      -8.089   1.899   9.846  0.00  0.00    +0.000 A 
BRANCH  35  38
ATOM     37  C   UNL     1     -11.343   6.233  13.594  0.00  0.00    +0.000 A 
ATOM     38  C   UNL     1     -10.155   4.417  12.550  0.00  0.00    +0.000 A 
ATOM     39  C   UNL     1     -10.508   4.224  13.868  0.00  0.00    +0.000 A 
ATOM     40  C   UNL     1     -10.226   3.022  14.682  0.00  0.00    +0.000 C 
ATOM     41  N   UNL     1     -11.190   5.264  14.469  0.00  0.00    +0.000 NA
ATOM     42  S   UNL     1     -10.693   5.960  12.029  0.00  0.00    +0.000 S 
ENDBRANCH  35  38
ENDBRANCH  30  36
ENDBRANCH  27  30
ENDBRANCH  22  26
BRANCH  23  43
ATOM     43  O   UNL     1      -7.538  -4.545  12.441  0.00  0.00    +0.000 OA
ATOM     44  H   UNL     1      -8.214  -5.164  12.122  0.00  0.00    +0.000 HD
ENDBRANCH  23  43
ENDBRANCH  18  19
BRANCH  18  48
ATOM     45  C   UNL     1      -7.893  -3.308   4.340  0.00  0.00    +0.000 C 
ATOM     46  C   UNL     1      -6.706  -5.427   4.951  0.00  0.00    +0.000 C 
ATOM     47  C   UNL     1      -8.844  -4.806   6.093  0.00  0.00    +0.000 C 
ATOM     48  C   UNL     1      -7.530  -4.249   5.506  0.00  0.00    +0.000 C 
ENDBRANCH  18  48
ENDBRANCH  15  18
ENDBRANCH  13  14
ENDBRANCH  12  13
ENDBRANCH  11  12
ENDBRANCH  10  11
ENDBRANCH   9  10
ENDBRANCH   8   9
ENDBRANCH   7   8
ENDBRANCH   6   7
ENDBRANCH   5   6
ENDBRANCH   1   5
BRANCH   2  49
ATOM     49  C   UNL     1      -5.843   5.350  14.120  0.00  0.00    +0.000 C 
BRANCH  49  50
ATOM     50  C   UNL     1      -6.050   6.349  15.249  0.00  0.00    +0.000 C 
BRANCH  50  55
ATOM     51  C   UNL     1      -7.094   4.978  16.932  0.00  0.00    +0.000 C 
ATOM     52  C   UNL     1      -7.804   7.269  16.620  0.00  0.00    +0.000 C 
ATOM     53  C   UNL     1      -8.394   4.636  17.653  0.00  0.00    +0.000 C 
ATOM     54  C   UNL     1      -9.124   6.995  17.332  0.00  0.00    +0.000 C 
ATOM     55  N   UNL     1      -7.294   6.061  15.960  0.00  0.00    +0.000 NA
ATOM     56  N   UNL     1      -8.929   5.876  18.324  0.00  0.00    +0.000 N 
ATOM     57  H   UNL     1      -8.226   6.184  18.995  0.00  0.00    +0.000 HD
BRANCH  56  58
ATOM     58  C   UNL     1     -10.179   5.596  19.110  0.00  0.00    +0.000 C 
BRANCH  58  64
ATOM     59  C   UNL     1      -9.902   7.506  22.371  0.00  0.00    +0.000 A 
ATOM     60  C   UNL     1     -10.895   8.473  22.210  0.00  0.00    +0.000 A 
ATOM     61  C   UNL     1      -9.669   6.571  21.363  0.00  0.00    +0.000 A 
ATOM     62  C   UNL     1     -11.422   7.569  20.033  0.00  0.00    +0.000 A 
ATOM     63  C   UNL     1     -11.655   8.504  21.041  0.00  0.00    +0.000 A 
ATOM     64  C   UNL     1     -10.429   6.602  20.194  0.00  0.00    +0.000 A 
BRANCH  63  68
ATOM     65  C   UNL     1     -13.355  10.009  21.989  0.00  0.00    +0.000 A 
ATOM     66  C   UNL     1     -14.348  10.975  21.830  0.00  0.00    +0.000 A 
ATOM     67  C   UNL     1     -13.007   9.971  19.599  0.00  0.00    +0.000 A 
ATOM     68  C   UNL     1     -12.685   9.507  20.874  0.00  0.00    +0.000 A 
ATOM     69  C   UNL     1     -14.671  11.439  20.555  0.00  0.00    +0.000 A 
ATOM     70  C   UNL     1     -14.000  10.937  19.439  0.00  0.00    +0.000 A 
BRANCH  69  76
ATOM     71  C   UNL     1     -15.263  13.819  20.466  0.00  0.00    +0.000 C 
ATOM     72  C   UNL     1     -17.031  12.117  20.881  0.00  0.00    +0.000 C 
ATOM     73  C   UNL     1     -16.279  14.697  19.748  0.00  0.00    +0.000 C 
ATOM     74  C   UNL     1     -18.045  13.002  20.167  0.00  0.00    +0.000 C 
ATOM     75  C   UNL     1     -18.679  15.377  19.751  0.00  0.00    +0.000 C 
ATOM     76  N   UNL     1     -15.671  12.409  20.417  0.00  0.00    +0.000 N 
ATOM     77  N   UNL     1     -17.649  14.447  20.327  0.00  0.00    +0.000 N 
ATOM     78  H   UNL     1     -17.603  14.646  21.326  0.00  0.00    +0.000 HD
ENDBRANCH  69  76
BRANCH  70  80
ATOM     79  C   UNL     1     -13.732  10.986  16.945  0.00  0.00    +0.000 C 
ATOM     80  N   UNL     1     -14.307  11.387  18.152  0.00  0.00    +0.000 N 
ATOM     81  O   UNL     1     -12.844  10.161  16.765  0.00  0.00    +0.000 OA
ATOM     82  H   UNL     1     -15.015  12.069  18.089  0.00  0.00    +0.000 HD
BRANCH  79  85
ATOM     83  C   UNL     1     -14.407  13.501  14.187  0.00  0.00    +0.000 A 
ATOM     84  C   UNL     1     -15.379  11.097  15.212  0.00  0.00    +0.000 A 
ATOM     85  C   UNL     1     -14.318  11.685  15.783  0.00  0.00    +0.000 A 
ATOM     86  C   UNL     1     -13.807  12.939  15.252  0.00  0.00    +0.000 A 
ATOM     87  C   UNL     1     -15.588  12.851  13.547  0.00  0.00    +0.000 A 
ATOM     88  N   UNL     1     -15.997  11.662  14.125  0.00  0.00    +0.000 N 
ATOM     89  O   UNL     1     -16.131  13.368  12.575  0.00  0.00    +0.000 OA
ATOM     90  H   UNL     1     -16.773  11.198  13.736  0.00  0.00    +0.000 HD
BRANCH  86  91
ATOM     91  C   UNL     1     -12.620  13.589  15.900  0.00  0.00    +0.000 C 
ATOM     92  F   UNL     1     -12.298  14.736  15.271  0.00  0.00    +0.000 F 
ATOM     93  F   UNL     1     -12.876  13.880  17.191  0.00  0.00    +0.000 F 
ATOM     94  F   UNL     1     -11.544  12.778  15.863  0.00  0.00    +0.000 F 
ENDBRANCH  86  91
ENDBRANCH  79  85
ENDBRANCH  70  80
ENDBRANCH  63  68
ENDBRANCH  58  64
ENDBRANCH  56  58
ENDBRANCH  50  55
ENDBRANCH  49  50
ENDBRANCH   2  49
TORSDOF 28
