MODEL 1
REMARK VINA RESULT:   -10.252      0.000      0.000
REMARK INTER + INTRA:         -33.107
REMARK INTER:                 -25.393
REMARK INTRA:                  -7.715
REMARK UNBOUND:                -6.373
REMARK  Name = 
REMARK  33 active torsions:
REMARK  status: ('A' for Active; 'I' for Inactive)
REMARK    1  A    between atoms: C_13  and  C_20
REMARK    2  A    between atoms: C_14  and  C_15
REMARK    3  A    between atoms: C_16  and  C_49
REMARK    4  A    between atoms: C_17  and  C_50
REMARK    5  A    between atoms: C_18  and  N_67
REMARK    6  A    between atoms: C_19  and  N_70
REMARK    7  A    between atoms: C_21  and  C_44
REMARK    8  A    between atoms: C_24  and  C_27
REMARK    9  A    between atoms: C_25  and  C_63
REMARK   10  A    between atoms: C_28  and  C_42
REMARK   11  A    between atoms: C_29  and  C_62
REMARK   12  A    between atoms: C_30  and  C_51
REMARK   13  A    between atoms: C_31  and  C_52
REMARK   14  A    between atoms: C_43  and  O_82
REMARK   15  A    between atoms: C_45  and  C_64
REMARK   16  A    between atoms: C_46  and  C_64
REMARK   17  A    between atoms: C_47  and  C_64
REMARK   18  A    between atoms: C_48  and  N_74
REMARK   19  A    between atoms: C_49  and  N_71
REMARK   20  A    between atoms: C_50  and  N_75
REMARK   21  A    between atoms: C_51  and  C_53
REMARK   22  A    between atoms: C_52  and  C_54
REMARK   23  A    between atoms: C_53  and  C_55
REMARK   24  A    between atoms: C_54  and  C_56
REMARK   25  A    between atoms: C_55  and  C_57
REMARK   26  A    between atoms: C_56  and  C_58
REMARK   27  A    between atoms: C_57  and  C_59
REMARK   28  A    between atoms: C_58  and  C_59
REMARK   29  A    between atoms: C_60  and  C_61
REMARK   30  A    between atoms: C_60  and  N_69
REMARK   31  A    between atoms: C_61  and  N_72
REMARK   32  A    between atoms: C_62  and  C_64
REMARK   33  A    between atoms: C_62  and  N_73
REMARK                            x       y       z     vdW  Elec       q    Type
REMARK                         _______ _______ _______ _____ _____    ______ ____
ROOT
ATOM      1  C   UNL     1      -3.388   1.745  14.962  0.00  0.00    +0.000 C 
ATOM      2  N   UNL     1      -4.701   1.329  15.098  0.00  0.00    +0.000 N 
ATOM      3  O   UNL     1      -2.596   1.922  15.886  0.00  0.00    +0.000 OA
ATOM      4  H   UNL     1      -5.247   1.221  14.286  0.00  0.00    +0.000 HD
ENDROOT
BRANCH   1   5
ATOM      5  C   UNL     1      -2.987   1.974  13.518  0.00  0.00    +0.000 C 
BRANCH   5   6
ATOM      6  C   UNL     1      -3.708   3.167  12.891  0.00  0.00    +0.000 C 
BRANCH   6   7
ATOM      7  C   UNL     1      -4.124   2.903  11.441  0.00  0.00    +0.000 C 
BRANCH   7   8
ATOM      8  C   UNL     1      -4.013   4.172  10.593  0.00  0.00    +0.000 C 
BRANCH   8   9
ATOM      9  C   UNL     1      -5.249   5.059  10.760  0.00  0.00    +0.000 C 
BRANCH   9  10
ATOM     10  C   UNL     1      -6.463   4.569   9.967  0.00  0.00    +0.000 C 
BRANCH  10  11
ATOM     11  C   UNL     1      -7.522   5.628   9.642  0.00  0.00    +0.000 C 
BRANCH  11  12
ATOM     12  C   UNL     1      -8.869   5.037   9.225  0.00  0.00    +0.000 C 
BRANCH  12  13
ATOM     13  C   UNL     1      -9.612   4.452  10.424  0.00  0.00    +0.000 C 
BRANCH  13  14
ATOM     14  C   UNL     1     -10.154   3.059  10.149  0.00  0.00    +0.000 C 
ATOM     15  N   UNL     1      -9.265   2.307   9.395  0.00  0.00    +0.000 N 
ATOM     16  O   UNL     1     -11.246   2.671  10.553  0.00  0.00    +0.000 OA
ATOM     17  H   UNL     1      -8.413   2.719   9.123  0.00  0.00    +0.000 HD
BRANCH  15  18
ATOM     18  C   UNL     1      -9.531   0.947   8.991  0.00  0.00    +0.000 C 
BRANCH  18  19
ATOM     19  C   UNL     1      -8.337   0.165   9.478  0.00  0.00    +0.000 C 
ATOM     20  C   UNL     1      -9.652  -2.936  11.004  0.00  0.00    +0.000 C 
ATOM     21  C   UNL     1      -7.558  -1.814  10.752  0.00  0.00    +0.000 C 
ATOM     22  C   UNL     1      -9.939  -1.515  10.534  0.00  0.00    +0.000 C 
ATOM     23  C   UNL     1      -8.264  -2.832  11.634  0.00  0.00    +0.000 C 
ATOM     24  N   UNL     1      -8.618  -0.967  10.224  0.00  0.00    +0.000 N 
ATOM     25  O   UNL     1      -7.196   0.541   9.205  0.00  0.00    +0.000 OA
BRANCH  22  26
ATOM     26  C   UNL     1     -10.624  -0.782  11.672  0.00  0.00    +0.000 C 
ATOM     27  N   UNL     1      -9.825   0.153  12.301  0.00  0.00    +0.000 N 
ATOM     28  O   UNL     1     -11.788  -1.048  11.948  0.00  0.00    +0.000 OA
ATOM     29  H   UNL     1      -8.902   0.272  11.980  0.00  0.00    +0.000 HD
BRANCH  27  30
ATOM     30  C   UNL     1     -10.279   0.965  13.408  0.00  0.00    +0.000 C 
BRANCH  30  36
ATOM     31  C   UNL     1      -7.416   3.445  13.249  0.00  0.00    +0.000 A 
ATOM     32  C   UNL     1      -9.349   4.560  14.175  0.00  0.00    +0.000 A 
ATOM     33  C   UNL     1      -8.152   2.267  13.131  0.00  0.00    +0.000 A 
ATOM     34  C   UNL     1     -10.085   3.381  14.057  0.00  0.00    +0.000 A 
ATOM     35  C   UNL     1      -8.015   4.592  13.771  0.00  0.00    +0.000 A 
ATOM     36  C   UNL     1      -9.487   2.234  13.535  0.00  0.00    +0.000 A 
BRANCH  35  38
ATOM     37  C   UNL     1      -5.612   7.484  14.451  0.00  0.00    +0.000 A 
ATOM     38  C   UNL     1      -7.253   5.812  13.893  0.00  0.00    +0.000 A 
ATOM     39  C   UNL     1      -7.468   7.064  13.361  0.00  0.00    +0.000 A 
ATOM     40  C   UNL     1      -8.597   7.464  12.494  0.00  0.00    +0.000 C 
ATOM     41  N   UNL     1      -6.528   8.025  13.679  0.00  0.00    +0.000 NA
ATOM     42  S   UNL     1      -5.818   5.823  14.833  0.00  0.00    +0.000 S 
ENDBRANCH  35  38
ENDBRANCH  30  36
ENDBRANCH  27  30
ENDBRANCH  22  26
BRANCH  23  43
ATOM     43  O   UNL     1      -7.615  -4.087  11.611  0.00  0.00    +0.000 OA
ATOM     44  H   UNL     1      -7.804  -4.565  12.435  0.00  0.00    +0.000 HD
ENDBRANCH  23  43
ENDBRANCH  18  19
BRANCH  18  48
ATOM     45  C   UNL     1      -9.735   2.166   6.784  0.00  0.00    +0.000 C 
ATOM     46  C   UNL     1      -8.794  -0.155   6.789  0.00  0.00    +0.000 C 
ATOM     47  C   UNL     1     -11.223   0.221   7.259  0.00  0.00    +0.000 C 
ATOM     48  C   UNL     1      -9.804   0.788   7.472  0.00  0.00    +0.000 C 
ENDBRANCH  18  48
ENDBRANCH  15  18
ENDBRANCH  13  14
ENDBRANCH  12  13
ENDBRANCH  11  12
ENDBRANCH  10  11
ENDBRANCH   9  10
ENDBRANCH   8   9
ENDBRANCH   7   8
ENDBRANCH   6   7
ENDBRANCH   5   6
ENDBRANCH   1   5
BRANCH   2  49
ATOM     49  C   UNL     1      -5.304   1.047  16.380  0.00  0.00    +0.000 C 
BRANCH  49  50
ATOM     50  C   UNL     1      -6.771   0.672  16.227  0.00  0.00    +0.000 C 
BRANCH  50  55
ATOM     51  C   UNL     1      -7.376   2.910  16.882  0.00  0.00    +0.000 C 
ATOM     52  C   UNL     1      -9.016   1.135  16.969  0.00  0.00    +0.000 C 
ATOM     53  C   UNL     1      -8.199   3.766  17.840  0.00  0.00    +0.000 C 
ATOM     54  C   UNL     1      -9.888   1.938  17.928  0.00  0.00    +0.000 C 
ATOM     55  N   UNL     1      -7.597   1.478  17.124  0.00  0.00    +0.000 NA
ATOM     56  N   UNL     1      -9.657   3.410  17.693  0.00  0.00    +0.000 N 
ATOM     57  H   UNL     1      -9.921   3.608  16.729  0.00  0.00    +0.000 HD
BRANCH  56  58
ATOM     58  C   UNL     1     -10.536   4.263  18.564  0.00  0.00    +0.000 C 
BRANCH  58  64
ATOM     59  C   UNL     1     -13.155   4.966  15.918  0.00  0.00    +0.000 A 
ATOM     60  C   UNL     1     -13.726   6.144  16.400  0.00  0.00    +0.000 A 
ATOM     61  C   UNL     1     -12.118   4.354  16.621  0.00  0.00    +0.000 A 
ATOM     62  C   UNL     1     -12.223   6.099  18.290  0.00  0.00    +0.000 A 
ATOM     63  C   UNL     1     -13.260   6.710  17.586  0.00  0.00    +0.000 A 
ATOM     64  C   UNL     1     -11.651   4.921  17.807  0.00  0.00    +0.000 A 
BRANCH  63  68
ATOM     65  C   UNL     1     -14.894   8.538  17.387  0.00  0.00    +0.000 A 
ATOM     66  C   UNL     1     -15.466   9.716  17.867  0.00  0.00    +0.000 A 
ATOM     67  C   UNL     1     -13.381   8.503  19.269  0.00  0.00    +0.000 A 
ATOM     68  C   UNL     1     -13.852   7.932  18.087  0.00  0.00    +0.000 A 
ATOM     69  C   UNL     1     -14.995  10.288  19.049  0.00  0.00    +0.000 A 
ATOM     70  C   UNL     1     -13.952   9.681  19.750  0.00  0.00    +0.000 A 
BRANCH  69  76
ATOM     71  C   UNL     1     -16.967  11.746  19.112  0.00  0.00    +0.000 C 
ATOM     72  C   UNL     1     -14.741  12.644  19.770  0.00  0.00    +0.000 C 
ATOM     73  C   UNL     1     -17.638  12.685  20.106  0.00  0.00    +0.000 C 
ATOM     74  C   UNL     1     -15.417  13.586  20.758  0.00  0.00    +0.000 C 
ATOM     75  C   UNL     1     -17.468  14.954  21.129  0.00  0.00    +0.000 C 
ATOM     76  N   UNL     1     -15.582  11.470  19.514  0.00  0.00    +0.000 N 
ATOM     77  N   UNL     1     -16.798  13.928  20.260  0.00  0.00    +0.000 N 
ATOM     78  H   UNL     1     -16.697  14.349  19.336  0.00  0.00    +0.000 HD
ENDBRANCH  69  76
BRANCH  70  80
ATOM     79  C   UNL     1     -12.132  10.439  21.302  0.00  0.00    +0.000 C 
ATOM     80  N   UNL     1     -13.464  10.235  20.937  0.00  0.00    +0.000 N 
ATOM     81  O   UNL     1     -11.121  10.174  20.662  0.00  0.00    +0.000 OA
ATOM     82  H   UNL     1     -14.141  10.518  21.594  0.00  0.00    +0.000 HD
BRANCH  79  85
ATOM     83  C   UNL     1     -12.068  10.977  25.056  0.00  0.00    +0.000 A 
ATOM     84  C   UNL     1     -11.673  12.353  22.663  0.00  0.00    +0.000 A 
ATOM     85  C   UNL     1     -12.003  11.054  22.639  0.00  0.00    +0.000 A 
ATOM     86  C   UNL     1     -12.210  10.332  23.884  0.00  0.00    +0.000 A 
ATOM     87  C   UNL     1     -11.701  12.424  25.089  0.00  0.00    +0.000 A 
ATOM     88  N   UNL     1     -11.526  13.020  23.853  0.00  0.00    +0.000 N 
ATOM     89  O   UNL     1     -11.572  13.008  26.161  0.00  0.00    +0.000 OA
ATOM     90  H   UNL     1     -11.284  13.974  23.826  0.00  0.00    +0.000 HD
BRANCH  86  91
ATOM     91  C   UNL     1     -12.579   8.878  23.845  0.00  0.00    +0.000 C 
ATOM     92  F   UNL     1     -13.887   8.723  23.562  0.00  0.00    +0.000 F 
ATOM     93  F   UNL     1     -11.870   8.226  22.903  0.00  0.00    +0.000 F 
ATOM     94  F   UNL     1     -12.337   8.285  25.031  0.00  0.00    +0.000 F 
ENDBRANCH  86  91
ENDBRANCH  79  85
ENDBRANCH  70  80
ENDBRANCH  63  68
ENDBRANCH  58  64
ENDBRANCH  56  58
ENDBRANCH  50  55
ENDBRANCH  49  50
ENDBRANCH   2  49
TORSDOF 28
ENDMDL
MODEL 2
REMARK VINA RESULT:    -9.949      2.647      4.383
REMARK INTER + INTRA:         -32.317
REMARK INTER:                 -25.944
REMARK INTRA:                  -6.373
REMARK UNBOUND:                -6.373
REMARK  Name = 
REMARK  33 active torsions:
REMARK  status: ('A' for Active; 'I' for Inactive)
REMARK    1  A    between atoms: C_13  and  C_20
REMARK    2  A    between atoms: C_14  and  C_15
REMARK    3  A    between atoms: C_16  and  C_49
REMARK    4  A    between atoms: C_17  and  C_50
REMARK    5  A    between atoms: C_18  and  N_67
REMARK    6  A    between atoms: C_19  and  N_70
REMARK    7  A    between atoms: C_21  and  C_44
REMARK    8  A    between atoms: C_24  and  C_27
REMARK    9  A    between atoms: C_25  and  C_63
REMARK   10  A    between atoms: C_28  and  C_42
REMARK   11  A    between atoms: C_29  and  C_62
REMARK   12  A    between atoms: C_30  and  C_51
REMARK   13  A    between atoms: C_31  and  C_52
REMARK   14  A    between atoms: C_43  and  O_82
REMARK   15  A    between atoms: C_45  and  C_64
REMARK   16  A    between atoms: C_46  and  C_64
REMARK   17  A    between atoms: C_47  and  C_64
REMARK   18  A    between atoms: C_48  and  N_74
REMARK   19  A    between atoms: C_49  and  N_71
REMARK   20  A    between atoms: C_50  and  N_75
REMARK   21  A    between atoms: C_51  and  C_53
REMARK   22  A    between atoms: C_52  and  C_54
REMARK   23  A    between atoms: C_53  and  C_55
REMARK   24  A    between atoms: C_54  and  C_56
REMARK   25  A    between atoms: C_55  and  C_57
REMARK   26  A    between atoms: C_56  and  C_58
REMARK   27  A    between atoms: C_57  and  C_59
REMARK   28  A    between atoms: C_58  and  C_59
REMARK   29  A    between atoms: C_60  and  C_61
REMARK   30  A    between atoms: C_60  and  N_69
REMARK   31  A    between atoms: C_61  and  N_72
REMARK   32  A    between atoms: C_62  and  C_64
REMARK   33  A    between atoms: C_62  and  N_73
REMARK                            x       y       z     vdW  Elec       q    Type
REMARK                         _______ _______ _______ _____ _____    ______ ____
ROOT
ATOM      1  C   UNL     1      -3.709   3.043  12.771  0.00  0.00    +0.000 C 
ATOM      2  N   UNL     1      -4.888   3.171  13.486  0.00  0.00    +0.000 N 
ATOM      3  O   UNL     1      -2.630   2.678  13.233  0.00  0.00    +0.000 OA
ATOM      4  H   UNL     1      -5.696   3.474  13.012  0.00  0.00    +0.000 HD
ENDROOT
BRANCH   1   5
ATOM      5  C   UNL     1      -3.865   3.405  11.307  0.00  0.00    +0.000 C 
BRANCH   5   6
ATOM      6  C   UNL     1      -3.017   4.613  10.908  0.00  0.00    +0.000 C 
BRANCH   6   7
ATOM      7  C   UNL     1      -3.244   5.816  11.828  0.00  0.00    +0.000 C 
BRANCH   7   8
ATOM      8  C   UNL     1      -4.595   6.480  11.550  0.00  0.00    +0.000 C 
BRANCH   8   9
ATOM      9  C   UNL     1      -5.344   6.778  12.850  0.00  0.00    +0.000 C 
BRANCH   9  10
ATOM     10  C   UNL     1      -6.590   7.645  12.652  0.00  0.00    +0.000 C 
BRANCH  10  11
ATOM     11  C   UNL     1      -7.799   7.288  13.523  0.00  0.00    +0.000 C 
BRANCH  11  12
ATOM     12  C   UNL     1      -8.777   6.327  12.846  0.00  0.00    +0.000 C 
BRANCH  12  13
ATOM     13  C   UNL     1      -9.204   5.211  13.797  0.00  0.00    +0.000 C 
BRANCH  13  14
ATOM     14  C   UNL     1      -9.052   3.832  13.179  0.00  0.00    +0.000 C 
ATOM     15  N   UNL     1     -10.252   3.372  12.657  0.00  0.00    +0.000 N 
ATOM     16  O   UNL     1      -7.988   3.220  13.157  0.00  0.00    +0.000 OA
ATOM     17  H   UNL     1     -11.048   3.948  12.729  0.00  0.00    +0.000 HD
BRANCH  15  18
ATOM     18  C   UNL     1     -10.388   2.088  12.011  0.00  0.00    +0.000 C 
BRANCH  18  19
ATOM     19  C   UNL     1     -10.998   2.400  10.669  0.00  0.00    +0.000 C 
ATOM     20  C   UNL     1      -8.752   0.939   8.119  0.00  0.00    +0.000 C 
ATOM     21  C   UNL     1     -10.702   2.318   8.208  0.00  0.00    +0.000 C 
ATOM     22  C   UNL     1      -8.929   1.404   9.560  0.00  0.00    +0.000 C 
ATOM     23  C   UNL     1      -9.522   1.981   7.309  0.00  0.00    +0.000 C 
ATOM     24  N   UNL     1     -10.230   2.073   9.564  0.00  0.00    +0.000 N 
ATOM     25  O   UNL     1     -12.116   2.913  10.599  0.00  0.00    +0.000 OA
BRANCH  22  26
ATOM     26  C   UNL     1      -7.786   2.348   9.884  0.00  0.00    +0.000 C 
ATOM     27  N   UNL     1      -8.136   3.683   9.866  0.00  0.00    +0.000 N 
ATOM     28  O   UNL     1      -6.676   1.889  10.131  0.00  0.00    +0.000 OA
ATOM     29  H   UNL     1      -9.067   3.921   9.652  0.00  0.00    +0.000 HD
BRANCH  27  30
ATOM     30  C   UNL     1      -7.201   4.750  10.148  0.00  0.00    +0.000 C 
BRANCH  30  36
ATOM     31  C   UNL     1      -6.231   6.888   7.171  0.00  0.00    +0.000 A 
ATOM     32  C   UNL     1      -8.316   7.717   8.066  0.00  0.00    +0.000 A 
ATOM     33  C   UNL     1      -6.203   5.897   8.152  0.00  0.00    +0.000 A 
ATOM     34  C   UNL     1      -8.288   6.726   9.048  0.00  0.00    +0.000 A 
ATOM     35  C   UNL     1      -7.288   7.797   7.127  0.00  0.00    +0.000 A 
ATOM     36  C   UNL     1      -7.232   5.816   9.091  0.00  0.00    +0.000 A 
BRANCH  35  38
ATOM     37  C   UNL     1      -7.832  10.182   4.193  0.00  0.00    +0.000 A 
ATOM     38  C   UNL     1      -7.316   8.822   6.112  0.00  0.00    +0.000 A 
ATOM     39  C   UNL     1      -6.546   9.954   5.954  0.00  0.00    +0.000 A 
ATOM     40  C   UNL     1      -5.452  10.398   6.844  0.00  0.00    +0.000 C 
ATOM     41  N   UNL     1      -6.840  10.736   4.854  0.00  0.00    +0.000 NA
ATOM     42  S   UNL     1      -8.459   8.720   4.837  0.00  0.00    +0.000 S 
ENDBRANCH  35  38
ENDBRANCH  30  36
ENDBRANCH  27  30
ENDBRANCH  22  26
BRANCH  23  43
ATOM     43  O   UNL     1      -9.940   1.439   6.073  0.00  0.00    +0.000 OA
ATOM     44  H   UNL     1      -9.369   0.690   5.837  0.00  0.00    +0.000 HD
ENDBRANCH  23  43
ENDBRANCH  18  19
BRANCH  18  48
ATOM     45  C   UNL     1     -10.254   0.297  13.794  0.00  0.00    +0.000 C 
ATOM     46  C   UNL     1     -12.315   1.714  13.670  0.00  0.00    +0.000 C 
ATOM     47  C   UNL     1     -11.840   0.023  11.889  0.00  0.00    +0.000 C 
ATOM     48  C   UNL     1     -11.198   1.055  12.839  0.00  0.00    +0.000 C 
ENDBRANCH  18  48
ENDBRANCH  15  18
ENDBRANCH  13  14
ENDBRANCH  12  13
ENDBRANCH  11  12
ENDBRANCH  10  11
ENDBRANCH   9  10
ENDBRANCH   8   9
ENDBRANCH   7   8
ENDBRANCH   6   7
ENDBRANCH   5   6
ENDBRANCH   1   5
BRANCH   2  49
ATOM     49  C   UNL     1      -4.982   2.879  14.898  0.00  0.00    +0.000 C 
BRANCH  49  50
ATOM     50  C   UNL     1      -4.948   4.155  15.727  0.00  0.00    +0.000 C 
BRANCH  50  55
ATOM     51  C   UNL     1      -6.814   5.441  16.544  0.00  0.00    +0.000 C 
ATOM     52  C   UNL     1      -6.951   3.028  16.449  0.00  0.00    +0.000 C 
ATOM     53  C   UNL     1      -7.962   5.501  17.547  0.00  0.00    +0.000 C 
ATOM     54  C   UNL     1      -8.102   3.017  17.448  0.00  0.00    +0.000 C 
ATOM     55  N   UNL     1      -6.068   4.181  16.665  0.00  0.00    +0.000 NA
ATOM     56  N   UNL     1      -8.866   4.313  17.337  0.00  0.00    +0.000 N 
ATOM     57  H   UNL     1      -9.228   4.372  16.386  0.00  0.00    +0.000 HD
BRANCH  56  58
ATOM     58  C   UNL     1     -10.058   4.344  18.252  0.00  0.00    +0.000 C 
BRANCH  58  64
ATOM     59  C   UNL     1     -12.989   4.703  15.877  0.00  0.00    +0.000 A 
ATOM     60  C   UNL     1     -13.591   5.867  16.356  0.00  0.00    +0.000 A 
ATOM     61  C   UNL     1     -11.841   4.208  16.494  0.00  0.00    +0.000 A 
ATOM     62  C   UNL     1     -11.896   6.040  18.067  0.00  0.00    +0.000 A 
ATOM     63  C   UNL     1     -13.044   6.536  17.450  0.00  0.00    +0.000 A 
ATOM     64  C   UNL     1     -11.294   4.876  17.589  0.00  0.00    +0.000 A 
BRANCH  63  68
ATOM     65  C   UNL     1     -14.755   8.294  17.268  0.00  0.00    +0.000 A 
ATOM     66  C   UNL     1     -15.358   9.458  17.745  0.00  0.00    +0.000 A 
ATOM     67  C   UNL     1     -13.185   8.355  19.103  0.00  0.00    +0.000 A 
ATOM     68  C   UNL     1     -13.669   7.743  17.947  0.00  0.00    +0.000 A 
ATOM     69  C   UNL     1     -14.874  10.071  18.900  0.00  0.00    +0.000 A 
ATOM     70  C   UNL     1     -13.787   9.519  19.580  0.00  0.00    +0.000 A 
BRANCH  69  76
ATOM     71  C   UNL     1     -16.848  11.530  18.873  0.00  0.00    +0.000 C 
ATOM     72  C   UNL     1     -14.673  12.402  19.713  0.00  0.00    +0.000 C 
ATOM     73  C   UNL     1     -17.586  12.437  19.848  0.00  0.00    +0.000 C 
ATOM     74  C   UNL     1     -15.417  13.312  20.682  0.00  0.00    +0.000 C 
ATOM     75  C   UNL     1     -17.490  14.671  20.953  0.00  0.00    +0.000 C 
ATOM     76  N   UNL     1     -15.493  11.239  19.362  0.00  0.00    +0.000 N 
ATOM     77  N   UNL     1     -16.759  13.673  20.100  0.00  0.00    +0.000 N 
ATOM     78  H   UNL     1     -16.595  14.124  19.201  0.00  0.00    +0.000 HD
ENDBRANCH  69  76
BRANCH  70  80
ATOM     79  C   UNL     1     -12.425   9.557  21.686  0.00  0.00    +0.000 C 
ATOM     80  N   UNL     1     -13.285  10.116  20.739  0.00  0.00    +0.000 N 
ATOM     81  O   UNL     1     -11.935   8.434  21.697  0.00  0.00    +0.000 OA
ATOM     82  H   UNL     1     -13.572  11.043  20.909  0.00  0.00    +0.000 HD
BRANCH  79  85
ATOM     83  C   UNL     1     -10.775  12.234  23.807  0.00  0.00    +0.000 A 
ATOM     84  C   UNL     1     -12.934  10.470  23.839  0.00  0.00    +0.000 A 
ATOM     85  C   UNL     1     -12.109  10.495  22.783  0.00  0.00    +0.000 A 
ATOM     86  C   UNL     1     -10.982  11.414  22.761  0.00  0.00    +0.000 A 
ATOM     87  C   UNL     1     -11.690  12.210  24.986  0.00  0.00    +0.000 A 
ATOM     88  N   UNL     1     -12.732  11.303  24.911  0.00  0.00    +0.000 N 
ATOM     89  O   UNL     1     -11.497  12.961  25.938  0.00  0.00    +0.000 OA
ATOM     90  H   UNL     1     -13.360  11.252  25.667  0.00  0.00    +0.000 HD
BRANCH  86  91
ATOM     91  C   UNL     1     -10.064  11.433  21.574  0.00  0.00    +0.000 C 
ATOM     92  F   UNL     1      -9.499  10.225  21.385  0.00  0.00    +0.000 F 
ATOM     93  F   UNL     1     -10.737  11.758  20.452  0.00  0.00    +0.000 F 
ATOM     94  F   UNL     1      -9.076  12.334  21.741  0.00  0.00    +0.000 F 
ENDBRANCH  86  91
ENDBRANCH  79  85
ENDBRANCH  70  80
ENDBRANCH  63  68
ENDBRANCH  58  64
ENDBRANCH  56  58
ENDBRANCH  50  55
ENDBRANCH  49  50
ENDBRANCH   2  49
TORSDOF 28
ENDMDL
