ligand
 OpenBabel01032309583D

 92 99  0  0  1  0  0  0  0  0999 V2000
   -6.1730    8.0280   24.0180 C   0  0  0  0  0  0  0  0  0  0  0  0
   -6.2220    6.7100   23.7500 N   0  0  0  0  0  0  0  0  0  0  0  0
   -6.7780    8.5510   24.9550 O   0  0  0  0  0  0  0  0  0  0  0  0
   -5.6950    6.3510   22.9680 H   0  0  0  0  0  0  0  0  0  0  0  0
   -7.0320    5.7440   24.4920 C   0  0  0  0  0  2  0  0  0  0  0  0
   -8.5390    5.8540   24.1650 C   0  0  0  0  0  2  0  0  0  0  0  0
   -8.9430    5.0070   23.0380 N   0  0  0  0  0  0  0  0  0  0  0  0
   -8.2390    5.4350   21.8180 C   0  0  0  0  0  2  0  0  0  0  0  0
   -8.6500    4.5600   20.6100 C   0  0  0  0  0  2  0  0  0  0  0  0
  -10.0960    4.6760   20.3710 N   0  0  0  0  0  0  0  0  0  0  0  0
  -10.7990    4.2240   21.5770 C   0  0  0  0  0  2  0  0  0  0  0  0
  -10.3930    5.0910   22.7930 C   0  0  0  0  0  2  0  0  0  0  0  0
  -10.5290    3.8900   19.2110 C   0  0  0  0  0  2  0  0  0  0  0  0
  -11.4840    4.6490   18.2940 C   0  0  0  0  0  0  0  0  0  0  0  0
  -12.0620    5.8460   18.7280 C   0  0  0  0  0  3  0  0  0  0  0  0
  -12.9350    6.5740   17.9050 C   0  0  0  0  0  0  0  0  0  0  0  0
  -13.2180    6.0680   16.6280 C   0  0  0  0  0  3  0  0  0  0  0  0
  -12.6410    4.8810   16.1820 C   0  0  0  0  0  3  0  0  0  0  0  0
  -11.7700    4.1760   17.0110 C   0  0  0  0  0  3  0  0  0  0  0  0
  -13.5370    7.8560   18.3730 C   0  0  0  0  0  0  0  0  0  0  0  0
  -13.1410    8.4340   19.5840 C   0  0  0  0  0  3  0  0  0  0  0  0
  -13.7000    9.6370   20.0430 C   0  0  0  0  0  0  0  0  0  0  0  0
  -14.7170   10.2680   19.2940 C   0  0  0  0  0  0  0  0  0  0  0  0
  -15.1020    9.6880   18.0760 C   0  0  0  0  0  3  0  0  0  0  0  0
  -14.5200    8.5080   17.6230 C   0  0  0  0  0  3  0  0  0  0  0  0
  -15.3300   11.4370   19.7490 N   0  0  0  0  0  0  0  0  0  0  0  0
  -16.6050   11.8150   19.1160 C   0  0  0  0  0  2  0  0  0  0  0  0
  -17.4050   12.7800   20.0240 C   0  0  0  0  0  2  0  0  0  0  0  0
  -16.6390   14.0100   20.2430 N   0  0  0  0  0  0  0  0  0  0  0  0
  -15.3390   13.6760   20.8340 C   0  0  0  0  0  2  0  0  0  0  0  0
  -14.5760   12.6930   19.9140 C   0  0  0  0  0  2  0  0  0  0  0  0
  -17.3750   14.9250   21.1080 C   0  0  0  0  0  1  0  0  0  0  0  0
  -13.2890   10.2110   21.2650 N   0  0  0  0  0  0  0  0  0  0  0  0
  -12.8110    9.5770   22.3620 C   0  0  0  0  0  0  0  0  0  0  0  0
  -12.6660    8.3560   22.4390 O   0  0  0  0  0  0  0  0  0  0  0  0
  -13.1970   11.2160   21.2500 H   0  0  0  0  0  0  0  0  0  0  0  0
  -12.4960   10.4610   23.4740 C   0  0  0  0  0  0  0  0  0  0  0  0
  -13.3050   10.5100   24.5630 C   0  0  0  0  0  3  0  0  0  0  0  0
  -13.1300   11.3400   25.6330 N   0  0  0  0  0  0  0  0  0  0  0  0
  -12.1090   12.2340   25.7100 C   0  0  0  0  0  0  0  0  0  0  0  0
  -11.2070   12.2130   24.5610 C   0  0  0  0  0  3  0  0  0  0  0  0
  -11.3350   11.3910   23.4760 C   0  0  0  0  0  0  0  0  0  0  0  0
  -11.9700   12.9870   26.6710 O   0  0  0  0  0  0  0  0  0  0  0  0
  -13.7750   11.3270   26.4090 H   0  0  0  0  0  0  0  0  0  0  0  0
  -10.2890   11.4380   22.3480 C   0  0  0  0  0  0  0  0  0  0  0  0
  -10.7850   11.9930   21.2380 F   0  0  0  0  0  0  0  0  0  0  0  0
   -9.2340   12.1660   22.7170 F   0  0  0  0  0  0  0  0  0  0  0  0
   -9.8920   10.2020   22.0490 F   0  0  0  0  0  0  0  0  0  0  0  0
   -5.3110    8.8930   23.0870 C   0  0  0  0  0  2  0  0  0  0  0  0
   -5.6400    8.6960   21.5890 C   0  0  0  0  0  2  0  0  0  0  0  0
   -7.1250    8.9410   21.2340 C   0  0  0  0  0  2  0  0  0  0  0  0
   -7.5320    8.4110   19.8470 C   0  0  0  0  0  2  0  0  0  0  0  0
   -9.0580    8.2500   19.6770 C   0  0  0  0  0  2  0  0  0  0  0  0
   -9.7050    9.2720   18.7220 C   0  0  0  0  0  2  0  0  0  0  0  0
  -10.0060    8.7160   17.3180 C   0  0  0  0  0  2  0  0  0  0  0  0
   -9.1750    7.4650   16.9800 C   0  0  0  0  0  2  0  0  0  0  0  0
   -9.5430    6.8550   15.6120 C   0  0  0  0  0  2  0  0  0  0  0  0
   -8.5270    6.1130   13.5100 N   0  0  0  0  0  0  0  0  0  0  0  0
   -8.3310    6.7480   14.6790 C   0  0  0  0  0  0  0  0  0  0  0  0
   -7.2490    7.2300   15.0160 O   0  0  0  0  0  0  0  0  0  0  0  0
   -9.4430    5.7480   13.2980 H   0  0  0  0  0  0  0  0  0  0  0  0
   -7.5130    5.9070   12.4670 C   0  0  2  0  0  3  0  0  0  0  0  0
   -7.7320    7.3940    8.8310 C   0  0  1  0  0  3  0  0  0  0  0  0
   -7.3180    7.0060   10.1990 N   0  0  0  0  0  0  0  0  0  0  0  0
   -5.9960    7.5790   10.4810 C   0  0  0  0  0  2  0  0  0  0  0  0
   -5.4080    7.8790    9.1030 C   0  0  1  0  0  3  0  0  0  0  0  0
   -6.6140    8.2840    8.2700 C   0  0  0  0  0  2  0  0  0  0  0  0
   -8.0970    6.3330   11.0900 C   0  0  0  0  0  0  0  0  0  0  0  0
   -9.2620    6.0080   10.8450 O   0  0  0  0  0  0  0  0  0  0  0  0
   -8.0210    6.1470    7.9710 C   0  0  0  0  0  0  0  0  0  0  0  0
   -9.3170    5.8500    7.7850 N   0  0  0  0  0  0  0  0  0  0  0  0
   -7.0830    5.4790    7.5370 O   0  0  0  0  0  0  0  0  0  0  0  0
  -10.0170    6.4550    8.1900 H   0  0  0  0  0  0  0  0  0  0  0  0
   -9.7930    4.5860    7.2260 C   0  0  0  0  0  2  0  0  0  0  0  0
  -11.0800    1.8250   10.2880 C   0  0  0  0  0  0  0  0  0  0  0  0
  -11.9780    2.7550    9.7550 C   0  0  0  0  0  3  0  0  0  0  0  0
   -9.3520    2.6610    8.8160 C   0  0  0  0  0  3  0  0  0  0  0  0
  -11.5640    3.6390    8.7640 C   0  0  0  0  0  3  0  0  0  0  0  0
  -10.2460    3.6030    8.3010 C   0  0  0  0  0  0  0  0  0  0  0  0
   -9.7670    1.7800    9.8100 C   0  0  0  0  0  3  0  0  0  0  0  0
  -11.5120    0.8900   11.3650 C   0  0  0  0  0  0  0  0  0  0  0  0
  -12.0100    1.1250   12.6560 C   0  0  0  0  0  0  0  0  0  0  0  0
  -12.1100   -1.0530   12.6870 C   0  0  0  0  0  3  0  0  0  0  0  0
  -11.4720   -0.8370   11.0960 S   0  0  0  0  0  0  0  0  0  0  0  0
  -12.3310    0.0480   13.3520 N   0  0  0  0  0  0  0  0  0  0  0  0
  -12.2200    2.4470   13.3640 C   0  0  0  0  0  1  0  0  0  0  0  0
   -4.4080    8.8750    9.1370 O   0  0  0  0  0  0  0  0  0  0  0  0
   -4.1200    9.0500    8.2370 H   0  0  0  0  0  0  0  0  0  0  0  0
   -6.9290    4.4400   12.4880 C   0  0  0  0  0  0  0  0  0  0  0  0
   -8.0260    3.4560   12.9700 C   0  0  0  0  0  1  0  0  0  0  0  0
   -5.7320    4.3100   13.4660 C   0  0  0  0  0  1  0  0  0  0  0  0
   -6.4640    3.9730   11.0820 C   0  0  0  0  0  1  0  0  0  0  0  0
  1  3  2  0  0  0  0
  2  1  1  0  0  0  0
  2  5  1  0  0  0  0
  4  2  1  0  0  0  0
  6  5  1  0  0  0  0
  7  6  1  0  0  0  0
  8  7  1  0  0  0  0
  9  8  1  0  0  0  0
 10  9  1  0  0  0  0
 10 11  1  0  0  0  0
 11 12  1  0  0  0  0
 12  7  1  0  0  0  0
 13 10  1  0  0  0  0
 14 15  1  0  0  0  0
 14 13  1  0  0  0  0
 16 20  1  0  0  0  0
 16 15  2  0  0  0  0
 17 16  1  0  0  0  0
 18 17  2  0  0  0  0
 18 19  1  0  0  0  0
 19 14  2  0  0  0  0
 20 21  1  0  0  0  0
 21 22  2  0  0  0  0
 22 33  1  0  0  0  0
 23 26  1  0  0  0  0
 23 22  1  0  0  0  0
 24 23  2  0  0  0  0
 25 24  1  0  0  0  0
 25 20  2  0  0  0  0
 26 31  1  0  0  0  0
 27 26  1  0  0  0  0
 27 28  1  0  0  0  0
 28 29  1  0  0  0  0
 29 30  1  0  0  0  0
 29 32  1  0  0  0  0
 31 30  1  0  0  0  0
 33 34  1  0  0  0  0
 34 35  2  0  0  0  0
 34 37  1  0  0  0  0
 36 33  1  0  0  0  0
 37 42  1  0  0  0  0
 37 38  2  0  0  0  0
 38 39  1  0  0  0  0
 39 40  1  0  0  0  0
 39 44  1  0  0  0  0
 40 43  2  0  0  0  0
 41 40  1  0  0  0  0
 42 41  2  0  0  0  0
 45 47  1  0  0  0  0
 45 42  1  0  0  0  0
 46 45  1  0  0  0  0
 48 45  1  0  0  0  0
 49  1  1  0  0  0  0
 50 49  1  0  0  0  0
 51 50  1  0  0  0  0
 52 51  1  0  0  0  0
 53 52  1  0  0  0  0
 54 53  1  0  0  0  0
 55 54  1  0  0  0  0
 56 55  1  0  0  0  0
 57 56  1  0  0  0  0
 58 59  1  0  0  0  0
 59 60  2  0  0  0  0
 59 57  1  0  0  0  0
 61 58  1  0  0  0  0
 62 68  1  6  0  0  0
 62 89  1  0  0  0  0
 62 58  1  0  0  0  0
 63 70  1  6  0  0  0
 63 64  1  0  0  0  0
 64 65  1  0  0  0  0
 64 68  1  0  0  0  0
 66 87  1  1  0  0  0
 66 65  1  0  0  0  0
 67 63  1  0  0  0  0
 67 66  1  0  0  0  0
 69 68  2  0  0  0  0
 71 70  1  0  0  0  0
 71 73  1  0  0  0  0
 72 70  2  0  0  0  0
 74 71  1  0  0  0  0
 74 79  1  0  0  0  0
 75 81  1  0  0  0  0
 76 75  2  0  0  0  0
 77 80  2  0  0  0  0
 78 76  1  0  0  0  0
 79 78  2  0  0  0  0
 79 77  1  0  0  0  0
 80 75  1  0  0  0  0
 81 82  2  0  0  0  0
 82 85  1  0  0  0  0
 82 86  1  0  0  0  0
 83 85  2  0  0  0  0
 84 81  1  0  0  0  0
 84 83  1  0  0  0  0
 88 87  1  0  0  0  0
 89 90  1  0  0  0  0
 89 91  1  0  0  0  0
 92 89  1  0  0  0  0
M  END
>  <MODEL>
1

>  <REMARK>
 VINA RESULT:   -10.108      0.000      0.000
 INTER + INTRA:         -32.451
 INTER:                 -24.692
 INTRA:                  -7.759
 UNBOUND:                -6.092
  Name = ligand
  33 active torsions:
  status: ('A' for Active; 'I' for Inactive)
    1  A    between atoms: C_1  and  C_4
    2  A    between atoms: C_2  and  C_83
    3  A    between atoms: C_8  and  C_9
    4  A    between atoms: C_9  and  N_15
    5  A    between atoms: C_10  and  C_11
    6  A    between atoms: C_19  and  O_22
    7  A    between atoms: C_21  and  C_24
    8  A    between atoms: C_24  and  C_25
    9  A    between atoms: C_24  and  N_26
   10  A    between atoms: C_25  and  C_27
   11  A    between atoms: C_25  and  C_28
   12  A    between atoms: C_25  and  C_29
   13  A    between atoms: C_30  and  C_31
   14  A    between atoms: C_31  and  C_32
   15  A    between atoms: C_32  and  C_34
   16  A    between atoms: C_34  and  C_35
   17  A    between atoms: C_35  and  C_36
   18  A    between atoms: C_36  and  C_37
   19  A    between atoms: C_37  and  C_38
   20  A    between atoms: C_38  and  C_39
   21  A    between atoms: C_39  and  C_40
   22  A    between atoms: C_40  and  C_41
   23  A    between atoms: N_42  and  C_44
   24  A    between atoms: C_44  and  C_45
   25  A    between atoms: C_45  and  N_46
   26  A    between atoms: N_49  and  C_52
   27  A    between atoms: C_52  and  C_53
   28  A    between atoms: C_55  and  C_59
   29  A    between atoms: C_61  and  N_72
   30  A    between atoms: C_62  and  N_65
   31  A    between atoms: N_68  and  C_71
   32  A    between atoms: C_73  and  C_74
   33  A    between atoms: C_79  and  C_80
                            x       y       z     vdW  Elec       q    Type
                         _______ _______ _______ _____ _____    ______ ____

>  <TORSDO>
F 28

$$$$
ligand
 OpenBabel01032309583D

 92 99  0  0  1  0  0  0  0  0999 V2000
   -2.8490    4.5680   11.5770 C   0  0  0  0  0  0  0  0  0  0  0  0
   -3.1560    5.7390   12.1640 N   0  0  0  0  0  0  0  0  0  0  0  0
   -2.8440    3.4910   12.1750 O   0  0  0  0  0  0  0  0  0  0  0  0
   -3.1440    6.5820   11.6100 H   0  0  0  0  0  0  0  0  0  0  0  0
   -3.4700    5.8950   13.5850 C   0  0  0  0  0  2  0  0  0  0  0  0
   -4.8780    6.4840   13.8240 C   0  0  0  0  0  2  0  0  0  0  0  0
   -5.8730    5.4630   14.1710 N   0  0  0  0  0  0  0  0  0  0  0  0
   -7.2150    5.9230   13.7790 C   0  0  0  0  0  2  0  0  0  0  0  0
   -8.2860    4.8650   14.1370 C   0  0  0  0  0  2  0  0  0  0  0  0
   -8.2890    4.6200   15.5870 N   0  0  0  0  0  0  0  0  0  0  0  0
   -6.9590    4.1360   15.9740 C   0  0  0  0  0  2  0  0  0  0  0  0
   -5.8790    5.1850   15.6170 C   0  0  0  0  0  2  0  0  0  0  0  0
   -9.3140    3.6490   15.9810 C   0  0  0  0  0  2  0  0  0  0  0  0
  -10.6530    4.2950   16.3260 C   0  0  0  0  0  0  0  0  0  0  0  0
  -10.7750    5.0690   17.4840 C   0  0  0  0  0  3  0  0  0  0  0  0
  -11.9890    5.6860   17.8220 C   0  0  0  0  0  0  0  0  0  0  0  0
  -13.0850    5.5050   16.9670 C   0  0  0  0  0  3  0  0  0  0  0  0
  -12.9720    4.7440   15.8060 C   0  0  0  0  0  3  0  0  0  0  0  0
  -11.7570    4.1440   15.4820 C   0  0  0  0  0  3  0  0  0  0  0  0
  -12.1050    6.5200   19.0540 C   0  0  0  0  0  0  0  0  0  0  0  0
  -13.0050    7.5900   19.1140 C   0  0  0  0  0  3  0  0  0  0  0  0
  -13.1250    8.3870   20.2630 C   0  0  0  0  0  0  0  0  0  0  0  0
  -12.2930    8.1410   21.3770 C   0  0  0  0  0  0  0  0  0  0  0  0
  -11.4000    7.0610   21.3140 C   0  0  0  0  0  3  0  0  0  0  0  0
  -11.3120    6.2630   20.1760 C   0  0  0  0  0  3  0  0  0  0  0  0
  -12.3500    8.9490   22.5130 N   0  0  0  0  0  0  0  0  0  0  0  0
  -11.0670    9.4070   23.0760 C   0  0  0  0  0  2  0  0  0  0  0  0
  -11.2710   10.6600   23.9620 C   0  0  0  0  0  2  0  0  0  0  0  0
  -12.1550   10.3370   25.0860 N   0  0  0  0  0  0  0  0  0  0  0  0
  -13.4330    9.8350   24.5710 C   0  0  0  0  0  2  0  0  0  0  0  0
  -13.1920    8.5980   23.6710 C   0  0  0  0  0  2  0  0  0  0  0  0
  -12.3670   11.5120   25.9240 C   0  0  0  0  0  1  0  0  0  0  0  0
  -14.0390    9.4620   20.3110 N   0  0  0  0  0  0  0  0  0  0  0  0
  -14.0200   10.6020   19.5820 C   0  0  0  0  0  0  0  0  0  0  0  0
  -13.1590   10.8630   18.7390 O   0  0  0  0  0  0  0  0  0  0  0  0
  -14.8810    9.2760   20.8360 H   0  0  0  0  0  0  0  0  0  0  0  0
  -15.1020   11.5250   19.8880 C   0  0  0  0  0  0  0  0  0  0  0  0
  -16.2960   11.4200   19.2500 C   0  0  0  0  0  3  0  0  0  0  0  0
  -17.3540   12.2650   19.4240 N   0  0  0  0  0  0  0  0  0  0  0  0
  -17.3130   13.3320   20.2650 C   0  0  0  0  0  0  0  0  0  0  0  0
  -16.0470   13.4810   20.9790 C   0  0  0  0  0  3  0  0  0  0  0  0
  -14.9680   12.6530   20.8480 C   0  0  0  0  0  0  0  0  0  0  0  0
  -18.2670   14.0950   20.4020 O   0  0  0  0  0  0  0  0  0  0  0  0
  -18.2130   12.1310   18.9110 H   0  0  0  0  0  0  0  0  0  0  0  0
  -13.7040   12.8970   21.6930 C   0  0  0  0  0  0  0  0  0  0  0  0
  -13.6650   12.0980   22.7630 F   0  0  0  0  0  0  0  0  0  0  0  0
  -12.6060   12.6540   20.9760 F   0  0  0  0  0  0  0  0  0  0  0  0
  -13.6840   14.1590   22.1190 F   0  0  0  0  0  0  0  0  0  0  0  0
   -2.4880    4.6160   10.0850 C   0  0  0  0  0  2  0  0  0  0  0  0
   -2.5950    6.0320    9.4730 C   0  0  0  0  0  2  0  0  0  0  0  0
   -3.9580    6.3270    8.8060 C   0  0  0  0  0  2  0  0  0  0  0  0
   -3.8470    7.0460    7.4480 C   0  0  0  0  0  2  0  0  0  0  0  0
   -4.5330    8.4280    7.4300 C   0  0  0  0  0  2  0  0  0  0  0  0
   -5.3850    8.7340    8.6770 C   0  0  0  0  0  2  0  0  0  0  0  0
   -6.9000    8.5630    8.4600 C   0  0  0  0  0  2  0  0  0  0  0  0
   -7.5580    7.6650    9.5230 C   0  0  0  0  0  2  0  0  0  0  0  0
   -8.8470    6.9840    9.0170 C   0  0  0  0  0  2  0  0  0  0  0  0
   -8.5480    4.5830    9.3970 N   0  0  0  0  0  0  0  0  0  0  0  0
   -8.5860    5.5700    8.4850 C   0  0  0  0  0  0  0  0  0  0  0  0
   -8.4230    5.3850    7.2790 O   0  0  0  0  0  0  0  0  0  0  0  0
   -8.6960    4.8080   10.3700 H   0  0  0  0  0  0  0  0  0  0  0  0
   -8.3240    3.1590    9.1100 C   0  0  2  0  0  3  0  0  0  0  0  0
  -11.0090    0.8030    7.4590 C   0  0  1  0  0  3  0  0  0  0  0  0
   -9.7910    1.5780    7.7920 N   0  0  0  0  0  0  0  0  0  0  0  0
   -8.7680    1.3260    6.7690 C   0  0  0  0  0  2  0  0  0  0  0  0
   -9.1990    0.0140    6.1140 C   0  0  1  0  0  3  0  0  0  0  0  0
  -10.7190    0.0720    6.1410 C   0  0  0  0  0  2  0  0  0  0  0  0
   -9.6880    2.4740    8.8120 C   0  0  0  0  0  0  0  0  0  0  0  0
  -10.6360    2.7560    9.5490 O   0  0  0  0  0  0  0  0  0  0  0  0
  -11.3910   -0.1390    8.6190 C   0  0  0  0  0  0  0  0  0  0  0  0
  -10.4020   -0.4560    9.4680 N   0  0  0  0  0  0  0  0  0  0  0  0
  -12.5410   -0.5730    8.6930 O   0  0  0  0  0  0  0  0  0  0  0  0
   -9.4870   -0.0550    9.3200 H   0  0  0  0  0  0  0  0  0  0  0  0
  -10.4930   -1.5190   10.4670 C   0  0  0  0  0  2  0  0  0  0  0  0
   -7.3740   -1.2440   13.4420 C   0  0  0  0  0  0  0  0  0  0  0  0
   -8.6550   -0.7560   13.7170 C   0  0  0  0  0  3  0  0  0  0  0  0
   -8.1190   -1.9410   11.2490 C   0  0  0  0  0  3  0  0  0  0  0  0
   -9.6610   -0.8510   12.7600 C   0  0  0  0  0  3  0  0  0  0  0  0
   -9.3910   -1.4330   11.5190 C   0  0  0  0  0  0  0  0  0  0  0  0
   -7.1130   -1.8410   12.2060 C   0  0  0  0  0  3  0  0  0  0  0  0
   -6.2870   -1.1250   14.4550 C   0  0  0  0  0  0  0  0  0  0  0  0
   -5.2860   -0.1580   14.6350 C   0  0  0  0  0  0  0  0  0  0  0  0
   -4.7940   -1.4230   16.3410 C   0  0  0  0  0  3  0  0  0  0  0  0
   -6.1350   -2.3190   15.7220 S   0  0  0  0  0  0  0  0  0  0  0  0
   -4.4890   -0.3440   15.6730 N   0  0  0  0  0  0  0  0  0  0  0  0
   -4.9890    1.0650   13.7940 C   0  0  0  0  0  1  0  0  0  0  0  0
   -8.6820   -0.1440    4.8090 O   0  0  0  0  0  0  0  0  0  0  0  0
   -7.7350    0.0140    4.8350 H   0  0  0  0  0  0  0  0  0  0  0  0
   -7.4870    2.4490   10.2440 C   0  0  0  0  0  0  0  0  0  0  0  0
   -8.3720    2.2760   11.5060 C   0  0  0  0  0  1  0  0  0  0  0  0
   -6.2510    3.2890   10.6600 C   0  0  0  0  0  1  0  0  0  0  0  0
   -6.9970    1.0390    9.8170 C   0  0  0  0  0  1  0  0  0  0  0  0
  1  2  1  0  0  0  0
  1  3  2  0  0  0  0
  2  5  1  0  0  0  0
  4  2  1  0  0  0  0
  5  6  1  0  0  0  0
  6  7  1  0  0  0  0
  7 12  1  0  0  0  0
  8  9  1  0  0  0  0
  8  7  1  0  0  0  0
  9 10  1  0  0  0  0
 10 11  1  0  0  0  0
 10 13  1  0  0  0  0
 12 11  1  0  0  0  0
 13 14  1  0  0  0  0
 14 15  1  0  0  0  0
 15 16  2  0  0  0  0
 16 20  1  0  0  0  0
 17 16  1  0  0  0  0
 18 17  2  0  0  0  0
 19 18  1  0  0  0  0
 19 14  2  0  0  0  0
 20 21  2  0  0  0  0
 20 25  1  0  0  0  0
 21 22  1  0  0  0  0
 22 33  1  0  0  0  0
 22 23  2  0  0  0  0
 23 26  1  0  0  0  0
 24 23  1  0  0  0  0
 25 24  2  0  0  0  0
 26 27  1  0  0  0  0
 26 31  1  0  0  0  0
 27 28  1  0  0  0  0
 28 29  1  0  0  0  0
 29 32  1  0  0  0  0
 30 29  1  0  0  0  0
 31 30  1  0  0  0  0
 33 36  1  0  0  0  0
 34 37  1  0  0  0  0
 34 33  1  0  0  0  0
 35 34  2  0  0  0  0
 37 42  1  0  0  0  0
 38 39  1  0  0  0  0
 38 37  2  0  0  0  0
 39 40  1  0  0  0  0
 40 43  2  0  0  0  0
 40 41  1  0  0  0  0
 42 41  2  0  0  0  0
 42 45  1  0  0  0  0
 44 39  1  0  0  0  0
 45 48  1  0  0  0  0
 45 46  1  0  0  0  0
 47 45  1  0  0  0  0
 49  1  1  0  0  0  0
 50 49  1  0  0  0  0
 51 50  1  0  0  0  0
 52 51  1  0  0  0  0
 53 52  1  0  0  0  0
 53 54  1  0  0  0  0
 55 54  1  0  0  0  0
 55 56  1  0  0  0  0
 57 56  1  0  0  0  0
 58 61  1  0  0  0  0
 59 57  1  0  0  0  0
 59 58  1  0  0  0  0
 60 59  2  0  0  0  0
 62 68  1  1  0  0  0
 62 58  1  0  0  0  0
 62 89  1  0  0  0  0
 63 64  1  0  0  0  0
 63 70  1  1  0  0  0
 64 68  1  0  0  0  0
 65 64  1  0  0  0  0
 66 87  1  6  0  0  0
 66 67  1  0  0  0  0
 66 65  1  0  0  0  0
 67 63  1  0  0  0  0
 68 69  2  0  0  0  0
 70 72  2  0  0  0  0
 70 71  1  0  0  0  0
 71 74  1  0  0  0  0
 73 71  1  0  0  0  0
 74 79  1  0  0  0  0
 75 76  1  0  0  0  0
 75 81  1  0  0  0  0
 77 79  2  0  0  0  0
 77 80  1  0  0  0  0
 78 76  2  0  0  0  0
 79 78  1  0  0  0  0
 80 75  2  0  0  0  0
 81 82  2  0  0  0  0
 81 84  1  0  0  0  0
 82 85  1  0  0  0  0
 84 83  1  0  0  0  0
 85 83  2  0  0  0  0
 86 82  1  0  0  0  0
 87 88  1  0  0  0  0
 89 91  1  0  0  0  0
 89 90  1  0  0  0  0
 92 89  1  0  0  0  0
M  END
>  <MODEL>
2

>  <REMARK>
 VINA RESULT:   -10.106      3.217      7.265
 INTER + INTRA:         -32.444
 INTER:                 -26.352
 INTRA:                  -6.092
 UNBOUND:                -6.092
  Name = ligand
  33 active torsions:
  status: ('A' for Active; 'I' for Inactive)
    1  A    between atoms: C_1  and  C_4
    2  A    between atoms: C_2  and  C_83
    3  A    between atoms: C_8  and  C_9
    4  A    between atoms: C_9  and  N_15
    5  A    between atoms: C_10  and  C_11
    6  A    between atoms: C_19  and  O_22
    7  A    between atoms: C_21  and  C_24
    8  A    between atoms: C_24  and  C_25
    9  A    between atoms: C_24  and  N_26
   10  A    between atoms: C_25  and  C_27
   11  A    between atoms: C_25  and  C_28
   12  A    between atoms: C_25  and  C_29
   13  A    between atoms: C_30  and  C_31
   14  A    between atoms: C_31  and  C_32
   15  A    between atoms: C_32  and  C_34
   16  A    between atoms: C_34  and  C_35
   17  A    between atoms: C_35  and  C_36
   18  A    between atoms: C_36  and  C_37
   19  A    between atoms: C_37  and  C_38
   20  A    between atoms: C_38  and  C_39
   21  A    between atoms: C_39  and  C_40
   22  A    between atoms: C_40  and  C_41
   23  A    between atoms: N_42  and  C_44
   24  A    between atoms: C_44  and  C_45
   25  A    between atoms: C_45  and  N_46
   26  A    between atoms: N_49  and  C_52
   27  A    between atoms: C_52  and  C_53
   28  A    between atoms: C_55  and  C_59
   29  A    between atoms: C_61  and  N_72
   30  A    between atoms: C_62  and  N_65
   31  A    between atoms: N_68  and  C_71
   32  A    between atoms: C_73  and  C_74
   33  A    between atoms: C_79  and  C_80
                            x       y       z     vdW  Elec       q    Type
                         _______ _______ _______ _____ _____    ______ ____

>  <TORSDO>
F 28

$$$$
