REMARK  Name = ligand
REMARK  33 active torsions:
REMARK  status: ('A' for Active; 'I' for Inactive)
REMARK    1  A    between atoms: C_1  and  C_4
REMARK    2  A    between atoms: C_2  and  C_83
REMARK    3  A    between atoms: C_8  and  C_9
REMARK    4  A    between atoms: C_9  and  N_15
REMARK    5  A    between atoms: C_10  and  C_11
REMARK    6  A    between atoms: C_19  and  O_22
REMARK    7  A    between atoms: C_21  and  C_24
REMARK    8  A    between atoms: C_24  and  C_25
REMARK    9  A    between atoms: C_24  and  N_26
REMARK   10  A    between atoms: C_25  and  C_27
REMARK   11  A    between atoms: C_25  and  C_28
REMARK   12  A    between atoms: C_25  and  C_29
REMARK   13  A    between atoms: C_30  and  C_31
REMARK   14  A    between atoms: C_31  and  C_32
REMARK   15  A    between atoms: C_32  and  C_34
REMARK   16  A    between atoms: C_34  and  C_35
REMARK   17  A    between atoms: C_35  and  C_36
REMARK   18  A    between atoms: C_36  and  C_37
REMARK   19  A    between atoms: C_37  and  C_38
REMARK   20  A    between atoms: C_38  and  C_39
REMARK   21  A    between atoms: C_39  and  C_40
REMARK   22  A    between atoms: C_40  and  C_41
REMARK   23  A    between atoms: N_42  and  C_44
REMARK   24  A    between atoms: C_44  and  C_45
REMARK   25  A    between atoms: C_45  and  N_46
REMARK   26  A    between atoms: N_49  and  C_52
REMARK   27  A    between atoms: C_52  and  C_53
REMARK   28  A    between atoms: C_55  and  C_59
REMARK   29  A    between atoms: C_61  and  N_72
REMARK   30  A    between atoms: C_62  and  N_65
REMARK   31  A    between atoms: N_68  and  C_71
REMARK   32  A    between atoms: C_73  and  C_74
REMARK   33  A    between atoms: C_79  and  C_80
REMARK                            x       y       z     vdW  Elec       q    Type
REMARK                         _______ _______ _______ _____ _____    ______ ____
ROOT
ATOM      1  C   UNL     1       2.112  -4.441   0.519  0.00  0.00    +0.000 C 
ATOM      2  N   UNL     1       2.445  -5.198  -0.542  0.00  0.00    +0.000 N 
ATOM      3  O   UNL     1       0.953  -4.300   0.913  0.00  0.00    +0.000 OA
ATOM      4  H   UNL     1       3.417  -5.271  -0.804  0.00  0.00    +0.000 HD
ENDROOT
BRANCH   2   5
ATOM      5  C   UNL     1       1.484  -5.902  -1.391  0.00  0.00    +0.000 C 
BRANCH   5   6
ATOM      6  C   UNL     1       0.752  -4.959  -2.373  0.00  0.00    +0.000 C 
BRANCH   6   7
ATOM      7  N   UNL     1      -0.263  -5.648  -3.177  0.00  0.00    +0.000 NA
ATOM      8  C   UNL     1      -0.654  -4.801  -4.315  0.00  0.00    +0.000 C 
ATOM      9  C   UNL     1      -1.729  -5.503  -5.179  0.00  0.00    +0.000 C 
ATOM     10  N   UNL     1      -2.929  -5.772  -4.373  0.00  0.00    +0.000 NA
ATOM     11  C   UNL     1      -2.545  -6.638  -3.252  0.00  0.00    +0.000 C 
ATOM     12  C   UNL     1      -1.467  -5.947  -2.383  0.00  0.00    +0.000 C 
BRANCH  10  13
ATOM     13  C   UNL     1      -3.992  -6.406  -5.159  0.00  0.00    +0.000 C 
BRANCH  13  14
ATOM     14  C   UNL     1      -4.600  -5.477  -6.206  0.00  0.00    +0.000 A 
ATOM     15  C   UNL     1      -4.665  -5.882  -7.543  0.00  0.00    +0.000 A 
ATOM     16  C   UNL     1      -5.229  -5.056  -8.527  0.00  0.00    +0.000 A 
ATOM     17  C   UNL     1      -5.727  -3.805  -8.137  0.00  0.00    +0.000 A 
ATOM     18  C   UNL     1      -5.676  -3.395  -6.806  0.00  0.00    +0.000 A 
ATOM     19  C   UNL     1      -5.119  -4.232  -5.841  0.00  0.00    +0.000 A 
BRANCH  16  20
ATOM     20  C   UNL     1      -5.304  -5.503  -9.949  0.00  0.00    +0.000 A 
ATOM     21  C   UNL     1      -6.426  -5.214 -10.733  0.00  0.00    +0.000 A 
ATOM     22  C   UNL     1      -6.516  -5.630 -12.071  0.00  0.00    +0.000 A 
ATOM     23  C   UNL     1      -5.474  -6.396 -12.638  0.00  0.00    +0.000 A 
ATOM     24  C   UNL     1      -4.348  -6.674 -11.849  0.00  0.00    +0.000 A 
ATOM     25  C   UNL     1      -4.263  -6.231 -10.532  0.00  0.00    +0.000 A 
BRANCH  23  26
ATOM     26  N   UNL     1      -5.557  -6.870 -13.948  0.00  0.00    +0.000 N 
ATOM     27  C   UNL     1      -6.445  -8.021 -14.190  0.00  0.00    +0.000 C 
ATOM     28  C   UNL     1      -6.840  -8.107 -15.684  0.00  0.00    +0.000 C 
ATOM     29  N   UNL     1      -5.642  -8.294 -16.507  0.00  0.00    +0.000 NA
ATOM     30  C   UNL     1      -4.708  -7.189 -16.265  0.00  0.00    +0.000 C 
ATOM     31  C   UNL     1      -4.352  -7.117 -14.760  0.00  0.00    +0.000 C 
ATOM     32  C   UNL     1      -5.997  -8.364 -17.920  0.00  0.00    +0.000 C 
ENDBRANCH  23  26
BRANCH  22  33
ATOM     33  N   UNL     1      -7.652  -5.329 -12.852  0.00  0.00    +0.000 N 
ATOM     34  C   UNL     1      -8.382  -4.189 -12.852  0.00  0.00    +0.000 C 
ATOM     35  O   UNL     1      -8.137  -3.218 -12.134  0.00  0.00    +0.000 OA
ATOM     36  H   UNL     1      -7.834  -5.981 -13.601  0.00  0.00    +0.000 HD
BRANCH  34  37
ATOM     37  C   UNL     1      -9.514  -4.204 -13.766  0.00  0.00    +0.000 A 
ATOM     38  C   UNL     1      -9.372  -4.688 -15.027  0.00  0.00    +0.000 A 
ATOM     39  N   UNL     1     -10.352  -4.699 -15.977  0.00  0.00    +0.000 N 
ATOM     40  C   UNL     1     -11.597  -4.200 -15.755  0.00  0.00    +0.000 A 
ATOM     41  C   UNL     1     -11.798  -3.673 -14.407  0.00  0.00    +0.000 A 
ATOM     42  C   UNL     1     -10.852  -3.655 -13.421  0.00  0.00    +0.000 A 
ATOM     43  O   UNL     1     -12.467  -4.201 -16.623  0.00  0.00    +0.000 OA
ATOM     44  H   UNL     1     -10.175  -5.070 -16.899  0.00  0.00    +0.000 HD
BRANCH  42  45
ATOM     45  C   UNL     1     -11.206  -3.109 -12.026  0.00  0.00    +0.000 C 
ATOM     46  F   UNL     1     -12.526  -2.977 -11.868  0.00  0.00    +0.000 F 
ATOM     47  F   UNL     1     -10.774  -3.938 -11.074  0.00  0.00    +0.000 F 
ATOM     48  F   UNL     1     -10.648  -1.911 -11.856  0.00  0.00    +0.000 F 
ENDBRANCH  42  45
ENDBRANCH  34  37
ENDBRANCH  22  33
ENDBRANCH  16  20
ENDBRANCH  13  14
ENDBRANCH  10  13
ENDBRANCH   6   7
ENDBRANCH   5   6
ENDBRANCH   2   5
BRANCH   1  49
ATOM     49  C   UNL     1       3.260  -3.729   1.250  0.00  0.00    +0.000 C 
BRANCH  49  50
ATOM     50  C   UNL     1       3.035  -2.208   1.409  0.00  0.00    +0.000 C 
BRANCH  50  51
ATOM     51  C   UNL     1       3.139  -1.415   0.086  0.00  0.00    +0.000 C 
BRANCH  51  52
ATOM     52  C   UNL     1       2.686   0.053   0.199  0.00  0.00    +0.000 C 
BRANCH  52  53
ATOM     53  C   UNL     1       1.153   0.216   0.275  0.00  0.00    +0.000 C 
BRANCH  53  54
ATOM     54  C   UNL     1       0.668   1.678   0.309  0.00  0.00    +0.000 C 
BRANCH  54  55
ATOM     55  C   UNL     1       0.990   2.416   1.622  0.00  0.00    +0.000 C 
BRANCH  55  56
ATOM     56  C   UNL     1       0.337   3.808   1.700  0.00  0.00    +0.000 C 
BRANCH  56  57
ATOM     57  C   UNL     1       0.600   4.517   3.045  0.00  0.00    +0.000 C 
BRANCH  57  59
ATOM     58  N   UNL     1      -1.181   5.840   4.082  0.00  0.00    +0.000 N 
ATOM     59  C   UNL     1      -0.188   5.825   3.176  0.00  0.00    +0.000 C 
ATOM     60  O   UNL     1       0.100   6.792   2.470  0.00  0.00    +0.000 OA
ATOM     61  H   UNL     1      -1.357   5.011   4.630  0.00  0.00    +0.000 HD
BRANCH  58  62
ATOM     62  C   UNL     1      -2.053   6.985   4.379  0.00  0.00    +0.000 C 
BRANCH  62  68
ATOM     63  C   UNL     1      -0.698  10.445   5.673  0.00  0.00    +0.000 C 
ATOM     64  N   UNL     1      -1.337   9.352   4.905  0.00  0.00    +0.000 N 
ATOM     65  C   UNL     1      -1.940   9.909   3.688  0.00  0.00    +0.000 C 
ATOM     66  C   UNL     1      -2.099  11.399   3.989  0.00  0.00    +0.000 C 
ATOM     67  C   UNL     1      -0.893  11.729   4.855  0.00  0.00    +0.000 C 
ATOM     68  C   UNL     1      -1.263   8.029   5.219  0.00  0.00    +0.000 C 
ATOM     69  O   UNL     1      -0.610   7.607   6.177  0.00  0.00    +0.000 OA
BRANCH  63  70
ATOM     70  C   UNL     1      -1.280  10.525   7.099  0.00  0.00    +0.000 C 
ATOM     71  N   UNL     1      -0.423  10.263   8.098  0.00  0.00    +0.000 N 
ATOM     72  O   UNL     1      -2.474  10.782   7.253  0.00  0.00    +0.000 OA
ATOM     73  H   UNL     1       0.538  10.053   7.871  0.00  0.00    +0.000 HD
BRANCH  71  74
ATOM     74  C   UNL     1      -0.829  10.038   9.484  0.00  0.00    +0.000 C 
BRANCH  74  79
ATOM     75  C   UNL     1      -2.792   6.228  10.015  0.00  0.00    +0.000 A 
ATOM     76  C   UNL     1      -1.396   6.304   9.990  0.00  0.00    +0.000 A 
ATOM     77  C   UNL     1      -2.920   8.626   9.727  0.00  0.00    +0.000 A 
ATOM     78  C   UNL     1      -0.765   7.533   9.826  0.00  0.00    +0.000 A 
ATOM     79  C   UNL     1      -1.526   8.695   9.681  0.00  0.00    +0.000 A 
ATOM     80  C   UNL     1      -3.550   7.395   9.887  0.00  0.00    +0.000 A 
BRANCH  75  81
ATOM     81  C   UNL     1      -3.474   4.911  10.169  0.00  0.00    +0.000 A 
ATOM     82  C   UNL     1      -4.592   4.526  10.925  0.00  0.00    +0.000 A 
ATOM     83  C   UNL     1      -4.180   2.599   9.992  0.00  0.00    +0.000 A 
ATOM     84  S   UNL     1      -2.901   3.518   9.283  0.00  0.00    +0.000 S 
ATOM     85  N   UNL     1      -4.957   3.261  10.806  0.00  0.00    +0.000 NA
ATOM     86  C   UNL     1      -5.432   5.362  11.867  0.00  0.00    +0.000 C 
ENDBRANCH  75  81
ENDBRANCH  74  79
ENDBRANCH  71  74
ENDBRANCH  63  70
BRANCH  66  87
ATOM     87  O   UNL     1      -2.167  12.191   2.822  0.00  0.00    +0.000 OA
ATOM     88  H   UNL     1      -2.932  11.916   2.310  0.00  0.00    +0.000 HD
ENDBRANCH  66  87
ENDBRANCH  62  68
BRANCH  62  89
ATOM     89  C   UNL     1      -3.418   6.539   5.034  0.00  0.00    +0.000 C 
ATOM     90  C   UNL     1      -4.166   5.585   4.066  0.00  0.00    +0.000 C 
ATOM     91  C   UNL     1      -4.352   7.749   5.300  0.00  0.00    +0.000 C 
ATOM     92  C   UNL     1      -3.208   5.781   6.372  0.00  0.00    +0.000 C 
ENDBRANCH  62  89
ENDBRANCH  58  62
ENDBRANCH  57  59
ENDBRANCH  56  57
ENDBRANCH  55  56
ENDBRANCH  54  55
ENDBRANCH  53  54
ENDBRANCH  52  53
ENDBRANCH  51  52
ENDBRANCH  50  51
ENDBRANCH  49  50
ENDBRANCH   1  49
TORSDOF 28
