ligand
                    3D
 Structure written by MMmdl.
170177  0  0  1  0            999 V2000
   -3.4737    4.9107   10.1694 C   0  0  0  0  0  0
   -4.5918    4.5258   10.9250 C   0  0  0  0  0  0
   -4.1798    2.5990    9.9917 C   0  0  0  0  0  0
   -2.7916    6.2280   10.0152 C   0  0  0  0  0  0
   -1.3957    6.3037    9.9897 C   0  0  0  0  0  0
   -2.9200    8.6255    9.7266 C   0  0  0  0  0  0
   -0.7646    7.5333    9.8260 C   0  0  0  0  0  0
   -1.5258    8.6949    9.6811 C   0  0  0  0  0  0
   -0.8291   10.0376    9.4838 C   0  0  0  0  0  0
   -1.2797   10.5250    7.0988 C   0  0  0  0  0  0
   -0.6979   10.4453    5.6730 C   0  0  1  0  0  0
   -3.5503    7.3949    9.8870 C   0  0  0  0  0  0
   -2.9012    3.5179    9.2832 S   0  0  0  0  0  0
   -4.9572    3.2612   10.8062 N   0  0  0  0  0  0
   -0.4227   10.2632    8.0984 N   0  0  0  0  0  0
   -2.4742   10.7822    7.2528 O   0  0  0  0  0  0
   -1.3371    9.3520    4.9055 N   0  0  0  0  0  0
   -1.9404    9.9088    3.6876 C   0  0  0  0  0  0
   -2.0993   11.3994    3.9887 C   0  0  1  0  0  0
   -0.8934   11.7295    4.8554 C   0  0  0  0  0  0
   -1.2626    8.0287    5.2189 C   0  0  0  0  0  0
   -2.1672   12.1910    2.8216 O   0  0  0  0  0  0
   -0.6097    7.6074    6.1769 O   0  0  0  0  0  0
   -2.0529    6.9849    4.3786 C   0  0  2  0  0  0
   -3.4184    6.5386    5.0339 C   0  0  0  0  0  0
   -1.1815    5.8398    4.0819 N   0  0  0  0  0  0
   -4.1661    5.5846    4.0661 C   0  0  0  0  0  0
   -4.3524    7.7487    5.3000 C   0  0  0  0  0  0
   -3.2079    5.7812    6.3722 C   0  0  0  0  0  0
   -0.1881    5.8254    3.1761 C   0  0  0  0  0  0
    0.6000    4.5167    3.0447 C   0  0  0  0  0  0
    0.3367    3.8078    1.7002 C   0  0  0  0  0  0
    0.0995    6.7922    2.4695 O   0  0  0  0  0  0
    0.9901    2.4163    1.6223 C   0  0  0  0  0  0
    0.6682    1.6778    0.3089 C   0  0  0  0  0  0
    1.1530    0.2161    0.2754 C   0  0  0  0  0  0
    2.6858    0.0535    0.1991 C   0  0  0  0  0  0
    3.1393   -1.4152    0.0864 C   0  0  0  0  0  0
    3.0349   -2.2083    1.4086 C   0  0  0  0  0  0
    3.2604   -3.7294    1.2503 C   0  0  0  0  0  0
    2.1122   -4.4414    0.5190 C   0  0  0  0  0  0
    2.4445   -5.1982   -0.5423 N   0  0  0  0  0  0
    0.9530   -4.3004    0.9127 O   0  0  0  0  0  0
    1.4839   -5.9023   -1.3910 C   0  0  0  0  0  0
    0.7516   -4.9590   -2.3730 C   0  0  0  0  0  0
   -0.2632   -5.6480   -3.1774 N   0  0  0  0  0  0
   -0.6536   -4.8015   -4.3146 C   0  0  0  0  0  0
   -1.7291   -5.5031   -5.1794 C   0  0  0  0  0  0
   -2.9292   -5.7716   -4.3729 N   0  0  0  0  0  0
   -2.5446   -6.6385   -3.2517 C   0  0  0  0  0  0
   -1.4666   -5.9475   -2.3826 C   0  0  0  0  0  0
   -3.9920   -6.4059   -5.1594 C   0  0  0  0  0  0
   -4.6002   -5.4773   -6.2064 C   0  0  0  0  0  0
   -4.6650   -5.8816   -7.5432 C   0  0  0  0  0  0
   -5.2285   -5.0561   -8.5274 C   0  0  0  0  0  0
   -5.7272   -3.8047   -8.1375 C   0  0  0  0  0  0
   -5.6757   -3.3954   -6.8057 C   0  0  0  0  0  0
   -5.1188   -4.2316   -5.8411 C   0  0  0  0  0  0
   -5.3042   -5.5028   -9.9487 C   0  0  0  0  0  0
   -6.4264   -5.2136  -10.7329 C   0  0  0  0  0  0
   -6.5164   -5.6305  -12.0709 C   0  0  0  0  0  0
   -5.4741   -6.3961  -12.6383 C   0  0  0  0  0  0
   -4.3483   -6.6741  -11.8494 C   0  0  0  0  0  0
   -4.2632   -6.2314  -10.5321 C   0  0  0  0  0  0
   -5.5570   -6.8700  -13.9477 N   0  0  0  0  0  0
   -6.4448   -8.0205  -14.1901 C   0  0  0  0  0  0
   -6.8404   -8.1071  -15.6837 C   0  0  0  0  0  0
   -5.6417   -8.2939  -16.5071 N   0  0  0  0  0  0
   -4.7077   -7.1891  -16.2649 C   0  0  0  0  0  0
   -4.3516   -7.1174  -14.7596 C   0  0  0  0  0  0
   -5.9971   -8.3642  -17.9202 C   0  0  0  0  0  0
   -7.6525   -5.3290  -12.8518 N   0  0  0  0  0  0
   -8.3821   -4.1892  -12.8517 C   0  0  0  0  0  0
   -9.5140   -4.2040  -13.7662 C   0  0  0  0  0  0
   -9.3716   -4.6877  -15.0269 C   0  0  0  0  0  0
  -10.3517   -4.6989  -15.9768 N   0  0  0  0  0  0
  -11.5967   -4.1999  -15.7551 C   0  0  0  0  0  0
  -11.7977   -3.6731  -14.4066 C   0  0  0  0  0  0
  -10.8516   -3.6547  -13.4207 C   0  0  0  0  0  0
  -11.2063   -3.1091  -12.0256 C   0  0  0  0  0  0
   -8.1371   -3.2184  -12.1337 O   0  0  0  0  0  0
  -12.4669   -4.2013  -16.6228 O   0  0  0  0  0  0
   -5.4324    5.3619   11.8674 C   0  0  0  0  0  0
  -12.5256   -2.9771  -11.8677 F   0  0  0  0  0  0
  -10.7740   -3.9380  -11.0742 F   0  0  0  0  0  0
  -10.6476   -1.9109  -11.8556 F   0  0  0  0  0  0
   -4.3119    1.5516    9.7638 H   0  0  0  0  0  0
   -0.7951    5.4114   10.0922 H   0  0  0  0  0  0
   -3.5160    9.5202    9.6174 H   0  0  0  0  0  0
    0.3142    7.5800    9.7971 H   0  0  0  0  0  0
    0.0647   10.0683   10.1083 H   0  0  0  0  0  0
   -1.4678   10.8523    9.8325 H   0  0  0  0  0  0
    0.3774   10.2875    5.7714 H   0  0  0  0  0  0
   -4.6297    7.3523    9.8961 H   0  0  0  0  0  0
    0.5385   10.0534    7.8710 H   0  0  0  0  0  0
   -2.8963    9.4575    3.4257 H   0  0  0  0  0  0
   -1.2540    9.7519    2.8539 H   0  0  0  0  0  0
   -3.0108   11.5450    4.5717 H   0  0  0  0  0  0
    0.0003   11.8819    4.2475 H   0  0  0  0  0  0
   -1.0369   12.6119    5.4810 H   0  0  0  0  0  0
   -2.9318   11.9163    2.3103 H   0  0  0  0  0  0
   -2.2934    7.4151    3.4072 H   0  0  0  0  0  0
   -1.3567    5.0105    4.6304 H   0  0  0  0  0  0
   -3.6075    4.6659    3.8831 H   0  0  0  0  0  0
   -5.1392    5.2895    4.4616 H   0  0  0  0  0  0
   -4.3423    6.0554    3.0978 H   0  0  0  0  0  0
   -3.9232    8.4522    6.0145 H   0  0  0  0  0  0
   -4.5692    8.2985    4.3838 H   0  0  0  0  0  0
   -5.3106    7.4309    5.7139 H   0  0  0  0  0  0
   -2.7484    6.4158    7.1289 H   0  0  0  0  0  0
   -4.1538    5.4338    6.7907 H   0  0  0  0  0  0
   -2.5714    4.9039    6.2517 H   0  0  0  0  0  0
    0.3470    3.8484    3.8704 H   0  0  0  0  0  0
    1.6626    4.7410    3.1493 H   0  0  0  0  0  0
    0.7001    4.4256    0.8769 H   0  0  0  0  0  0
   -0.7393    3.6974    1.5498 H   0  0  0  0  0  0
    0.6473    1.8134    2.4650 H   0  0  0  0  0  0
    2.0702    2.5163    1.7362 H   0  0  0  0  0  0
    1.0817    2.2265   -0.5388 H   0  0  0  0  0  0
   -0.4135    1.6771    0.1644 H   0  0  0  0  0  0
    0.7089   -0.2714   -0.5939 H   0  0  0  0  0  0
    0.7571   -0.3120    1.1434 H   0  0  0  0  0  0
    3.1651    0.5196    1.0607 H   0  0  0  0  0  0
    3.0477    0.5957   -0.6757 H   0  0  0  0  0  0
    4.1766   -1.4425   -0.2500 H   0  0  0  0  0  0
    2.5629   -1.9036   -0.7005 H   0  0  0  0  0  0
    2.0698   -2.0335    1.8856 H   0  0  0  0  0  0
    3.7736   -1.8143    2.1079 H   0  0  0  0  0  0
    3.3386   -4.1824    2.2395 H   0  0  0  0  0  0
    4.2166   -3.9162    0.7582 H   0  0  0  0  0  0
    3.4168   -5.2706   -0.8042 H   0  0  0  0  0  0
    0.7835   -6.4488   -0.7580 H   0  0  0  0  0  0
    2.0232   -6.6635   -1.9561 H   0  0  0  0  0  0
    1.5045   -4.5257   -3.0342 H   0  0  0  0  0  0
    0.2986   -4.1198   -1.8411 H   0  0  0  0  0  0
    0.2182   -4.5813   -4.9323 H   0  0  0  0  0  0
   -1.0396   -3.8490   -3.9444 H   0  0  0  0  0  0
   -1.3383   -6.4417   -5.5779 H   0  0  0  0  0  0
   -1.9775   -4.8671   -6.0298 H   0  0  0  0  0  0
   -2.1642   -7.5876   -3.6358 H   0  0  0  0  0  0
   -3.4166   -6.8619   -2.6353 H   0  0  0  0  0  0
   -1.8678   -5.0202   -1.9676 H   0  0  0  0  0  0
   -1.2237   -6.5980   -1.5433 H   0  0  0  0  0  0
   -4.8004   -6.7091   -4.4916 H   0  0  0  0  0  0
   -3.6195   -7.3195   -5.6276 H   0  0  0  0  0  0
   -4.2804   -6.8539   -7.8160 H   0  0  0  0  0  0
   -6.1612   -3.1380   -8.8687 H   0  0  0  0  0  0
   -6.0685   -2.4302   -6.5219 H   0  0  0  0  0  0
   -5.0842   -3.9086   -4.8106 H   0  0  0  0  0  0
   -7.2461   -4.6713  -10.2848 H   0  0  0  0  0  0
   -3.5262   -7.2519  -12.2456 H   0  0  0  0  0  0
   -3.3774   -6.4687   -9.9613 H   0  0  0  0  0  0
   -7.3512   -7.9390  -13.5890 H   0  0  0  0  0  0
   -5.9418   -8.9373  -13.8754 H   0  0  0  0  0  0
   -7.3535   -7.1923  -15.9872 H   0  0  0  0  0  0
   -7.5320   -8.9371  -15.8355 H   0  0  0  0  0  0
   -5.1609   -6.2487  -16.5858 H   0  0  0  0  0  0
   -3.7999   -7.3344  -16.8523 H   0  0  0  0  0  0
   -3.8734   -8.0452  -14.4389 H   0  0  0  0  0  0
   -3.6340   -6.3108  -14.6038 H   0  0  0  0  0  0
   -5.1085   -8.5270  -18.5314 H   0  0  0  0  0  0
   -6.6776   -9.1967  -18.1038 H   0  0  0  0  0  0
   -6.4813   -7.4473  -18.2610 H   0  0  0  0  0  0
   -7.8342   -5.9806  -13.6009 H   0  0  0  0  0  0
   -8.4556   -5.0981  -15.4296 H   0  0  0  0  0  0
  -10.1751   -5.0700  -16.8991 H   0  0  0  0  0  0
  -12.7850   -3.2847  -14.2031 H   0  0  0  0  0  0
   -4.9703    6.3223   12.0939 H   0  0  0  0  0  0
   -6.4162    5.5728   11.4473 H   0  0  0  0  0  0
   -5.5910    4.8650   12.8253 H   0  0  0  0  0  0
  1  2  2  0  0  0
  1  4  1  0  0  0
  1 13  1  0  0  0
  2 14  1  0  0  0
  2 83  1  0  0  0
  3 13  1  0  0  0
  3 14  2  0  0  0
  3 87  1  0  0  0
  4  5  1  0  0  0
  4 12  2  0  0  0
  5  7  2  0  0  0
  5 88  1  0  0  0
  6  8  2  0  0  0
  6 12  1  0  0  0
  6 89  1  0  0  0
  7  8  1  0  0  0
  7 90  1  0  0  0
  8  9  1  0  0  0
  9 15  1  0  0  0
  9 91  1  0  0  0
  9 92  1  0  0  0
 10 11  1  0  0  0
 10 15  1  0  0  0
 10 16  2  0  0  0
 11 17  1  0  0  0
 11 20  1  0  0  0
 11 93  1  0  0  0
 12 94  1  0  0  0
 15 95  1  0  0  0
 17 18  1  0  0  0
 17 21  1  0  0  0
 18 19  1  0  0  0
 18 96  1  0  0  0
 18 97  1  0  0  0
 19 20  1  0  0  0
 19 22  1  0  0  0
 19 98  1  0  0  0
 20 99  1  0  0  0
 20100  1  0  0  0
 21 23  2  0  0  0
 21 24  1  0  0  0
 22101  1  0  0  0
 24 25  1  0  0  0
 24 26  1  0  0  0
 24102  1  0  0  0
 25 27  1  0  0  0
 25 28  1  0  0  0
 25 29  1  0  0  0
 26 30  1  0  0  0
 26103  1  0  0  0
 27104  1  0  0  0
 27105  1  0  0  0
 27106  1  0  0  0
 28107  1  0  0  0
 28108  1  0  0  0
 28109  1  0  0  0
 29110  1  0  0  0
 29111  1  0  0  0
 29112  1  0  0  0
 30 31  1  0  0  0
 30 33  2  0  0  0
 31 32  1  0  0  0
 31113  1  0  0  0
 31114  1  0  0  0
 32 34  1  0  0  0
 32115  1  0  0  0
 32116  1  0  0  0
 34 35  1  0  0  0
 34117  1  0  0  0
 34118  1  0  0  0
 35 36  1  0  0  0
 35119  1  0  0  0
 35120  1  0  0  0
 36 37  1  0  0  0
 36121  1  0  0  0
 36122  1  0  0  0
 37 38  1  0  0  0
 37123  1  0  0  0
 37124  1  0  0  0
 38 39  1  0  0  0
 38125  1  0  0  0
 38126  1  0  0  0
 39 40  1  0  0  0
 39127  1  0  0  0
 39128  1  0  0  0
 40 41  1  0  0  0
 40129  1  0  0  0
 40130  1  0  0  0
 41 42  1  0  0  0
 41 43  2  0  0  0
 42 44  1  0  0  0
 42131  1  0  0  0
 44 45  1  0  0  0
 44132  1  0  0  0
 44133  1  0  0  0
 45 46  1  0  0  0
 45134  1  0  0  0
 45135  1  0  0  0
 46 47  1  0  0  0
 46 51  1  0  0  0
 47 48  1  0  0  0
 47136  1  0  0  0
 47137  1  0  0  0
 48 49  1  0  0  0
 48138  1  0  0  0
 48139  1  0  0  0
 49 50  1  0  0  0
 49 52  1  0  0  0
 50 51  1  0  0  0
 50140  1  0  0  0
 50141  1  0  0  0
 51142  1  0  0  0
 51143  1  0  0  0
 52 53  1  0  0  0
 52144  1  0  0  0
 52145  1  0  0  0
 53 54  1  0  0  0
 53 58  2  0  0  0
 54 55  2  0  0  0
 54146  1  0  0  0
 55 56  1  0  0  0
 55 59  1  0  0  0
 56 57  2  0  0  0
 56147  1  0  0  0
 57 58  1  0  0  0
 57148  1  0  0  0
 58149  1  0  0  0
 59 60  1  0  0  0
 59 64  2  0  0  0
 60 61  2  0  0  0
 60150  1  0  0  0
 61 62  1  0  0  0
 61 72  1  0  0  0
 62 63  2  0  0  0
 62 65  1  0  0  0
 63 64  1  0  0  0
 63151  1  0  0  0
 64152  1  0  0  0
 65 66  1  0  0  0
 65 70  1  0  0  0
 66 67  1  0  0  0
 66153  1  0  0  0
 66154  1  0  0  0
 67 68  1  0  0  0
 67155  1  0  0  0
 67156  1  0  0  0
 68 69  1  0  0  0
 68 71  1  0  0  0
 69 70  1  0  0  0
 69157  1  0  0  0
 69158  1  0  0  0
 70159  1  0  0  0
 70160  1  0  0  0
 71161  1  0  0  0
 71162  1  0  0  0
 71163  1  0  0  0
 72 73  1  0  0  0
 72164  1  0  0  0
 73 74  1  0  0  0
 73 81  2  0  0  0
 74 75  2  0  0  0
 74 79  1  0  0  0
 75 76  1  0  0  0
 75165  1  0  0  0
 76 77  1  0  0  0
 76166  1  0  0  0
 77 78  1  0  0  0
 77 82  2  0  0  0
 78 79  2  0  0  0
 78167  1  0  0  0
 79 80  1  0  0  0
 80 84  1  0  0  0
 80 85  1  0  0  0
 80 86  1  0  0  0
 83168  1  0  0  0
 83169  1  0  0  0
 83170  1  0  0  0
M  END
> <s_m_entry_id>
20

> <s_m_entry_name>
7jto.1_mol3

> <s_m_source_file>
ligprep_1.maegz

> <i_m_source_file_index>
1

> <i_lp_mmshare_version>
38013

> <i_f3d_flags>
0

> <s_lp_Force_Field>
OPLS3

> <r_lp_Energy>
125.123071786353

> <b_lp_Chiralities_Consistent>
1

> <s_lp_Variant>
ligand-1

> <s_m_job_name>
ligprep_1

> <s_m_subgroup_title>
ligprep_1-out1

> <s_m_subgroupid>
ligprep_1-out1

> <b_m_subgroup_collapsed>
0

$$$$
