MODEL 1
REMARK VINA RESULT:   -10.108      0.000      0.000
REMARK INTER + INTRA:         -32.451
REMARK INTER:                 -24.692
REMARK INTRA:                  -7.759
REMARK UNBOUND:                -6.092
REMARK  Name = ligand
REMARK  33 active torsions:
REMARK  status: ('A' for Active; 'I' for Inactive)
REMARK    1  A    between atoms: C_1  and  C_4
REMARK    2  A    between atoms: C_2  and  C_83
REMARK    3  A    between atoms: C_8  and  C_9
REMARK    4  A    between atoms: C_9  and  N_15
REMARK    5  A    between atoms: C_10  and  C_11
REMARK    6  A    between atoms: C_19  and  O_22
REMARK    7  A    between atoms: C_21  and  C_24
REMARK    8  A    between atoms: C_24  and  C_25
REMARK    9  A    between atoms: C_24  and  N_26
REMARK   10  A    between atoms: C_25  and  C_27
REMARK   11  A    between atoms: C_25  and  C_28
REMARK   12  A    between atoms: C_25  and  C_29
REMARK   13  A    between atoms: C_30  and  C_31
REMARK   14  A    between atoms: C_31  and  C_32
REMARK   15  A    between atoms: C_32  and  C_34
REMARK   16  A    between atoms: C_34  and  C_35
REMARK   17  A    between atoms: C_35  and  C_36
REMARK   18  A    between atoms: C_36  and  C_37
REMARK   19  A    between atoms: C_37  and  C_38
REMARK   20  A    between atoms: C_38  and  C_39
REMARK   21  A    between atoms: C_39  and  C_40
REMARK   22  A    between atoms: C_40  and  C_41
REMARK   23  A    between atoms: N_42  and  C_44
REMARK   24  A    between atoms: C_44  and  C_45
REMARK   25  A    between atoms: C_45  and  N_46
REMARK   26  A    between atoms: N_49  and  C_52
REMARK   27  A    between atoms: C_52  and  C_53
REMARK   28  A    between atoms: C_55  and  C_59
REMARK   29  A    between atoms: C_61  and  N_72
REMARK   30  A    between atoms: C_62  and  N_65
REMARK   31  A    between atoms: N_68  and  C_71
REMARK   32  A    between atoms: C_73  and  C_74
REMARK   33  A    between atoms: C_79  and  C_80
REMARK                            x       y       z     vdW  Elec       q    Type
REMARK                         _______ _______ _______ _____ _____    ______ ____
ROOT
ATOM      1  C   UNL     1      -6.173   8.028  24.018  0.00  0.00    +0.000 C 
ATOM      2  N   UNL     1      -6.222   6.710  23.750  0.00  0.00    +0.000 N 
ATOM      3  O   UNL     1      -6.778   8.551  24.955  0.00  0.00    +0.000 OA
ATOM      4  H   UNL     1      -5.695   6.351  22.968  0.00  0.00    +0.000 HD
ENDROOT
BRANCH   2   5
ATOM      5  C   UNL     1      -7.032   5.744  24.492  0.00  0.00    +0.000 C 
BRANCH   5   6
ATOM      6  C   UNL     1      -8.539   5.854  24.165  0.00  0.00    +0.000 C 
BRANCH   6   7
ATOM      7  N   UNL     1      -8.943   5.007  23.038  0.00  0.00    +0.000 NA
ATOM      8  C   UNL     1      -8.239   5.435  21.818  0.00  0.00    +0.000 C 
ATOM      9  C   UNL     1      -8.650   4.560  20.610  0.00  0.00    +0.000 C 
ATOM     10  N   UNL     1     -10.096   4.676  20.371  0.00  0.00    +0.000 NA
ATOM     11  C   UNL     1     -10.799   4.224  21.577  0.00  0.00    +0.000 C 
ATOM     12  C   UNL     1     -10.393   5.091  22.793  0.00  0.00    +0.000 C 
BRANCH  10  13
ATOM     13  C   UNL     1     -10.529   3.890  19.211  0.00  0.00    +0.000 C 
BRANCH  13  14
ATOM     14  C   UNL     1     -11.484   4.649  18.294  0.00  0.00    +0.000 A 
ATOM     15  C   UNL     1     -12.062   5.846  18.728  0.00  0.00    +0.000 A 
ATOM     16  C   UNL     1     -12.935   6.574  17.905  0.00  0.00    +0.000 A 
ATOM     17  C   UNL     1     -13.218   6.068  16.628  0.00  0.00    +0.000 A 
ATOM     18  C   UNL     1     -12.641   4.881  16.182  0.00  0.00    +0.000 A 
ATOM     19  C   UNL     1     -11.770   4.176  17.011  0.00  0.00    +0.000 A 
BRANCH  16  20
ATOM     20  C   UNL     1     -13.537   7.856  18.373  0.00  0.00    +0.000 A 
ATOM     21  C   UNL     1     -13.141   8.434  19.584  0.00  0.00    +0.000 A 
ATOM     22  C   UNL     1     -13.700   9.637  20.043  0.00  0.00    +0.000 A 
ATOM     23  C   UNL     1     -14.717  10.268  19.294  0.00  0.00    +0.000 A 
ATOM     24  C   UNL     1     -15.102   9.688  18.076  0.00  0.00    +0.000 A 
ATOM     25  C   UNL     1     -14.520   8.508  17.623  0.00  0.00    +0.000 A 
BRANCH  23  26
ATOM     26  N   UNL     1     -15.330  11.437  19.749  0.00  0.00    +0.000 N 
ATOM     27  C   UNL     1     -16.605  11.815  19.116  0.00  0.00    +0.000 C 
ATOM     28  C   UNL     1     -17.405  12.780  20.024  0.00  0.00    +0.000 C 
ATOM     29  N   UNL     1     -16.639  14.010  20.243  0.00  0.00    +0.000 NA
ATOM     30  C   UNL     1     -15.339  13.676  20.834  0.00  0.00    +0.000 C 
ATOM     31  C   UNL     1     -14.576  12.693  19.914  0.00  0.00    +0.000 C 
ATOM     32  C   UNL     1     -17.375  14.925  21.108  0.00  0.00    +0.000 C 
ENDBRANCH  23  26
BRANCH  22  33
ATOM     33  N   UNL     1     -13.289  10.211  21.265  0.00  0.00    +0.000 N 
ATOM     34  C   UNL     1     -12.811   9.577  22.362  0.00  0.00    +0.000 C 
ATOM     35  O   UNL     1     -12.666   8.356  22.439  0.00  0.00    +0.000 OA
ATOM     36  H   UNL     1     -13.197  11.216  21.250  0.00  0.00    +0.000 HD
BRANCH  34  37
ATOM     37  C   UNL     1     -12.496  10.461  23.474  0.00  0.00    +0.000 A 
ATOM     38  C   UNL     1     -13.305  10.510  24.563  0.00  0.00    +0.000 A 
ATOM     39  N   UNL     1     -13.130  11.340  25.633  0.00  0.00    +0.000 N 
ATOM     40  C   UNL     1     -12.109  12.234  25.710  0.00  0.00    +0.000 A 
ATOM     41  C   UNL     1     -11.207  12.213  24.561  0.00  0.00    +0.000 A 
ATOM     42  C   UNL     1     -11.335  11.391  23.476  0.00  0.00    +0.000 A 
ATOM     43  O   UNL     1     -11.970  12.987  26.671  0.00  0.00    +0.000 OA
ATOM     44  H   UNL     1     -13.775  11.327  26.409  0.00  0.00    +0.000 HD
BRANCH  42  45
ATOM     45  C   UNL     1     -10.289  11.438  22.348  0.00  0.00    +0.000 C 
ATOM     46  F   UNL     1     -10.785  11.993  21.238  0.00  0.00    +0.000 F 
ATOM     47  F   UNL     1      -9.234  12.166  22.717  0.00  0.00    +0.000 F 
ATOM     48  F   UNL     1      -9.892  10.202  22.049  0.00  0.00    +0.000 F 
ENDBRANCH  42  45
ENDBRANCH  34  37
ENDBRANCH  22  33
ENDBRANCH  16  20
ENDBRANCH  13  14
ENDBRANCH  10  13
ENDBRANCH   6   7
ENDBRANCH   5   6
ENDBRANCH   2   5
BRANCH   1  49
ATOM     49  C   UNL     1      -5.311   8.893  23.087  0.00  0.00    +0.000 C 
BRANCH  49  50
ATOM     50  C   UNL     1      -5.640   8.696  21.589  0.00  0.00    +0.000 C 
BRANCH  50  51
ATOM     51  C   UNL     1      -7.125   8.941  21.234  0.00  0.00    +0.000 C 
BRANCH  51  52
ATOM     52  C   UNL     1      -7.532   8.411  19.847  0.00  0.00    +0.000 C 
BRANCH  52  53
ATOM     53  C   UNL     1      -9.058   8.250  19.677  0.00  0.00    +0.000 C 
BRANCH  53  54
ATOM     54  C   UNL     1      -9.705   9.272  18.722  0.00  0.00    +0.000 C 
BRANCH  54  55
ATOM     55  C   UNL     1     -10.006   8.716  17.318  0.00  0.00    +0.000 C 
BRANCH  55  56
ATOM     56  C   UNL     1      -9.175   7.465  16.980  0.00  0.00    +0.000 C 
BRANCH  56  57
ATOM     57  C   UNL     1      -9.543   6.855  15.612  0.00  0.00    +0.000 C 
BRANCH  57  59
ATOM     58  N   UNL     1      -8.527   6.113  13.510  0.00  0.00    +0.000 N 
ATOM     59  C   UNL     1      -8.331   6.748  14.679  0.00  0.00    +0.000 C 
ATOM     60  O   UNL     1      -7.249   7.230  15.016  0.00  0.00    +0.000 OA
ATOM     61  H   UNL     1      -9.443   5.748  13.298  0.00  0.00    +0.000 HD
BRANCH  58  62
ATOM     62  C   UNL     1      -7.513   5.907  12.467  0.00  0.00    +0.000 C 
BRANCH  62  68
ATOM     63  C   UNL     1      -7.732   7.394   8.831  0.00  0.00    +0.000 C 
ATOM     64  N   UNL     1      -7.318   7.006  10.199  0.00  0.00    +0.000 N 
ATOM     65  C   UNL     1      -5.996   7.579  10.481  0.00  0.00    +0.000 C 
ATOM     66  C   UNL     1      -5.408   7.879   9.103  0.00  0.00    +0.000 C 
ATOM     67  C   UNL     1      -6.614   8.284   8.270  0.00  0.00    +0.000 C 
ATOM     68  C   UNL     1      -8.097   6.333  11.090  0.00  0.00    +0.000 C 
ATOM     69  O   UNL     1      -9.262   6.008  10.845  0.00  0.00    +0.000 OA
BRANCH  63  70
ATOM     70  C   UNL     1      -8.021   6.147   7.971  0.00  0.00    +0.000 C 
ATOM     71  N   UNL     1      -9.317   5.850   7.785  0.00  0.00    +0.000 N 
ATOM     72  O   UNL     1      -7.083   5.479   7.537  0.00  0.00    +0.000 OA
ATOM     73  H   UNL     1     -10.017   6.455   8.190  0.00  0.00    +0.000 HD
BRANCH  71  74
ATOM     74  C   UNL     1      -9.793   4.586   7.226  0.00  0.00    +0.000 C 
BRANCH  74  79
ATOM     75  C   UNL     1     -11.080   1.825  10.288  0.00  0.00    +0.000 A 
ATOM     76  C   UNL     1     -11.978   2.755   9.755  0.00  0.00    +0.000 A 
ATOM     77  C   UNL     1      -9.352   2.661   8.816  0.00  0.00    +0.000 A 
ATOM     78  C   UNL     1     -11.564   3.639   8.764  0.00  0.00    +0.000 A 
ATOM     79  C   UNL     1     -10.246   3.603   8.301  0.00  0.00    +0.000 A 
ATOM     80  C   UNL     1      -9.767   1.780   9.810  0.00  0.00    +0.000 A 
BRANCH  75  81
ATOM     81  C   UNL     1     -11.512   0.890  11.365  0.00  0.00    +0.000 A 
ATOM     82  C   UNL     1     -12.010   1.125  12.656  0.00  0.00    +0.000 A 
ATOM     83  C   UNL     1     -12.110  -1.053  12.687  0.00  0.00    +0.000 A 
ATOM     84  S   UNL     1     -11.472  -0.837  11.096  0.00  0.00    +0.000 S 
ATOM     85  N   UNL     1     -12.331   0.048  13.352  0.00  0.00    +0.000 NA
ATOM     86  C   UNL     1     -12.220   2.447  13.364  0.00  0.00    +0.000 C 
ENDBRANCH  75  81
ENDBRANCH  74  79
ENDBRANCH  71  74
ENDBRANCH  63  70
BRANCH  66  87
ATOM     87  O   UNL     1      -4.408   8.875   9.137  0.00  0.00    +0.000 OA
ATOM     88  H   UNL     1      -4.120   9.050   8.237  0.00  0.00    +0.000 HD
ENDBRANCH  66  87
ENDBRANCH  62  68
BRANCH  62  89
ATOM     89  C   UNL     1      -6.929   4.440  12.488  0.00  0.00    +0.000 C 
ATOM     90  C   UNL     1      -8.026   3.456  12.970  0.00  0.00    +0.000 C 
ATOM     91  C   UNL     1      -5.732   4.310  13.466  0.00  0.00    +0.000 C 
ATOM     92  C   UNL     1      -6.464   3.973  11.082  0.00  0.00    +0.000 C 
ENDBRANCH  62  89
ENDBRANCH  58  62
ENDBRANCH  57  59
ENDBRANCH  56  57
ENDBRANCH  55  56
ENDBRANCH  54  55
ENDBRANCH  53  54
ENDBRANCH  52  53
ENDBRANCH  51  52
ENDBRANCH  50  51
ENDBRANCH  49  50
ENDBRANCH   1  49
TORSDOF 28
ENDMDL
MODEL 2
REMARK VINA RESULT:   -10.106      3.217      7.265
REMARK INTER + INTRA:         -32.444
REMARK INTER:                 -26.352
REMARK INTRA:                  -6.092
REMARK UNBOUND:                -6.092
REMARK  Name = ligand
REMARK  33 active torsions:
REMARK  status: ('A' for Active; 'I' for Inactive)
REMARK    1  A    between atoms: C_1  and  C_4
REMARK    2  A    between atoms: C_2  and  C_83
REMARK    3  A    between atoms: C_8  and  C_9
REMARK    4  A    between atoms: C_9  and  N_15
REMARK    5  A    between atoms: C_10  and  C_11
REMARK    6  A    between atoms: C_19  and  O_22
REMARK    7  A    between atoms: C_21  and  C_24
REMARK    8  A    between atoms: C_24  and  C_25
REMARK    9  A    between atoms: C_24  and  N_26
REMARK   10  A    between atoms: C_25  and  C_27
REMARK   11  A    between atoms: C_25  and  C_28
REMARK   12  A    between atoms: C_25  and  C_29
REMARK   13  A    between atoms: C_30  and  C_31
REMARK   14  A    between atoms: C_31  and  C_32
REMARK   15  A    between atoms: C_32  and  C_34
REMARK   16  A    between atoms: C_34  and  C_35
REMARK   17  A    between atoms: C_35  and  C_36
REMARK   18  A    between atoms: C_36  and  C_37
REMARK   19  A    between atoms: C_37  and  C_38
REMARK   20  A    between atoms: C_38  and  C_39
REMARK   21  A    between atoms: C_39  and  C_40
REMARK   22  A    between atoms: C_40  and  C_41
REMARK   23  A    between atoms: N_42  and  C_44
REMARK   24  A    between atoms: C_44  and  C_45
REMARK   25  A    between atoms: C_45  and  N_46
REMARK   26  A    between atoms: N_49  and  C_52
REMARK   27  A    between atoms: C_52  and  C_53
REMARK   28  A    between atoms: C_55  and  C_59
REMARK   29  A    between atoms: C_61  and  N_72
REMARK   30  A    between atoms: C_62  and  N_65
REMARK   31  A    between atoms: N_68  and  C_71
REMARK   32  A    between atoms: C_73  and  C_74
REMARK   33  A    between atoms: C_79  and  C_80
REMARK                            x       y       z     vdW  Elec       q    Type
REMARK                         _______ _______ _______ _____ _____    ______ ____
ROOT
ATOM      1  C   UNL     1      -2.849   4.568  11.577  0.00  0.00    +0.000 C 
ATOM      2  N   UNL     1      -3.156   5.739  12.164  0.00  0.00    +0.000 N 
ATOM      3  O   UNL     1      -2.844   3.491  12.175  0.00  0.00    +0.000 OA
ATOM      4  H   UNL     1      -3.144   6.582  11.610  0.00  0.00    +0.000 HD
ENDROOT
BRANCH   2   5
ATOM      5  C   UNL     1      -3.470   5.895  13.585  0.00  0.00    +0.000 C 
BRANCH   5   6
ATOM      6  C   UNL     1      -4.878   6.484  13.824  0.00  0.00    +0.000 C 
BRANCH   6   7
ATOM      7  N   UNL     1      -5.873   5.463  14.171  0.00  0.00    +0.000 NA
ATOM      8  C   UNL     1      -7.215   5.923  13.779  0.00  0.00    +0.000 C 
ATOM      9  C   UNL     1      -8.286   4.865  14.137  0.00  0.00    +0.000 C 
ATOM     10  N   UNL     1      -8.289   4.620  15.587  0.00  0.00    +0.000 NA
ATOM     11  C   UNL     1      -6.959   4.136  15.974  0.00  0.00    +0.000 C 
ATOM     12  C   UNL     1      -5.879   5.185  15.617  0.00  0.00    +0.000 C 
BRANCH  10  13
ATOM     13  C   UNL     1      -9.314   3.649  15.981  0.00  0.00    +0.000 C 
BRANCH  13  14
ATOM     14  C   UNL     1     -10.653   4.295  16.326  0.00  0.00    +0.000 A 
ATOM     15  C   UNL     1     -10.775   5.069  17.484  0.00  0.00    +0.000 A 
ATOM     16  C   UNL     1     -11.989   5.686  17.822  0.00  0.00    +0.000 A 
ATOM     17  C   UNL     1     -13.085   5.505  16.967  0.00  0.00    +0.000 A 
ATOM     18  C   UNL     1     -12.972   4.744  15.806  0.00  0.00    +0.000 A 
ATOM     19  C   UNL     1     -11.757   4.144  15.482  0.00  0.00    +0.000 A 
BRANCH  16  20
ATOM     20  C   UNL     1     -12.105   6.520  19.054  0.00  0.00    +0.000 A 
ATOM     21  C   UNL     1     -13.005   7.590  19.114  0.00  0.00    +0.000 A 
ATOM     22  C   UNL     1     -13.125   8.387  20.263  0.00  0.00    +0.000 A 
ATOM     23  C   UNL     1     -12.293   8.141  21.377  0.00  0.00    +0.000 A 
ATOM     24  C   UNL     1     -11.400   7.061  21.314  0.00  0.00    +0.000 A 
ATOM     25  C   UNL     1     -11.312   6.263  20.176  0.00  0.00    +0.000 A 
BRANCH  23  26
ATOM     26  N   UNL     1     -12.350   8.949  22.513  0.00  0.00    +0.000 N 
ATOM     27  C   UNL     1     -11.067   9.407  23.076  0.00  0.00    +0.000 C 
ATOM     28  C   UNL     1     -11.271  10.660  23.962  0.00  0.00    +0.000 C 
ATOM     29  N   UNL     1     -12.155  10.337  25.086  0.00  0.00    +0.000 NA
ATOM     30  C   UNL     1     -13.433   9.835  24.571  0.00  0.00    +0.000 C 
ATOM     31  C   UNL     1     -13.192   8.598  23.671  0.00  0.00    +0.000 C 
ATOM     32  C   UNL     1     -12.367  11.512  25.924  0.00  0.00    +0.000 C 
ENDBRANCH  23  26
BRANCH  22  33
ATOM     33  N   UNL     1     -14.039   9.462  20.311  0.00  0.00    +0.000 N 
ATOM     34  C   UNL     1     -14.020  10.602  19.582  0.00  0.00    +0.000 C 
ATOM     35  O   UNL     1     -13.159  10.863  18.739  0.00  0.00    +0.000 OA
ATOM     36  H   UNL     1     -14.881   9.276  20.836  0.00  0.00    +0.000 HD
BRANCH  34  37
ATOM     37  C   UNL     1     -15.102  11.525  19.888  0.00  0.00    +0.000 A 
ATOM     38  C   UNL     1     -16.296  11.420  19.250  0.00  0.00    +0.000 A 
ATOM     39  N   UNL     1     -17.354  12.265  19.424  0.00  0.00    +0.000 N 
ATOM     40  C   UNL     1     -17.313  13.332  20.265  0.00  0.00    +0.000 A 
ATOM     41  C   UNL     1     -16.047  13.481  20.979  0.00  0.00    +0.000 A 
ATOM     42  C   UNL     1     -14.968  12.653  20.848  0.00  0.00    +0.000 A 
ATOM     43  O   UNL     1     -18.267  14.095  20.402  0.00  0.00    +0.000 OA
ATOM     44  H   UNL     1     -18.213  12.131  18.911  0.00  0.00    +0.000 HD
BRANCH  42  45
ATOM     45  C   UNL     1     -13.704  12.897  21.693  0.00  0.00    +0.000 C 
ATOM     46  F   UNL     1     -13.665  12.098  22.763  0.00  0.00    +0.000 F 
ATOM     47  F   UNL     1     -12.606  12.654  20.976  0.00  0.00    +0.000 F 
ATOM     48  F   UNL     1     -13.684  14.159  22.119  0.00  0.00    +0.000 F 
ENDBRANCH  42  45
ENDBRANCH  34  37
ENDBRANCH  22  33
ENDBRANCH  16  20
ENDBRANCH  13  14
ENDBRANCH  10  13
ENDBRANCH   6   7
ENDBRANCH   5   6
ENDBRANCH   2   5
BRANCH   1  49
ATOM     49  C   UNL     1      -2.488   4.616  10.085  0.00  0.00    +0.000 C 
BRANCH  49  50
ATOM     50  C   UNL     1      -2.595   6.032   9.473  0.00  0.00    +0.000 C 
BRANCH  50  51
ATOM     51  C   UNL     1      -3.958   6.327   8.806  0.00  0.00    +0.000 C 
BRANCH  51  52
ATOM     52  C   UNL     1      -3.847   7.046   7.448  0.00  0.00    +0.000 C 
BRANCH  52  53
ATOM     53  C   UNL     1      -4.533   8.428   7.430  0.00  0.00    +0.000 C 
BRANCH  53  54
ATOM     54  C   UNL     1      -5.385   8.734   8.677  0.00  0.00    +0.000 C 
BRANCH  54  55
ATOM     55  C   UNL     1      -6.900   8.563   8.460  0.00  0.00    +0.000 C 
BRANCH  55  56
ATOM     56  C   UNL     1      -7.558   7.665   9.523  0.00  0.00    +0.000 C 
BRANCH  56  57
ATOM     57  C   UNL     1      -8.847   6.984   9.017  0.00  0.00    +0.000 C 
BRANCH  57  59
ATOM     58  N   UNL     1      -8.548   4.583   9.397  0.00  0.00    +0.000 N 
ATOM     59  C   UNL     1      -8.586   5.570   8.485  0.00  0.00    +0.000 C 
ATOM     60  O   UNL     1      -8.423   5.385   7.279  0.00  0.00    +0.000 OA
ATOM     61  H   UNL     1      -8.696   4.808  10.370  0.00  0.00    +0.000 HD
BRANCH  58  62
ATOM     62  C   UNL     1      -8.324   3.159   9.110  0.00  0.00    +0.000 C 
BRANCH  62  68
ATOM     63  C   UNL     1     -11.009   0.803   7.459  0.00  0.00    +0.000 C 
ATOM     64  N   UNL     1      -9.791   1.578   7.792  0.00  0.00    +0.000 N 
ATOM     65  C   UNL     1      -8.768   1.326   6.769  0.00  0.00    +0.000 C 
ATOM     66  C   UNL     1      -9.199   0.014   6.114  0.00  0.00    +0.000 C 
ATOM     67  C   UNL     1     -10.719   0.072   6.141  0.00  0.00    +0.000 C 
ATOM     68  C   UNL     1      -9.688   2.474   8.812  0.00  0.00    +0.000 C 
ATOM     69  O   UNL     1     -10.636   2.756   9.549  0.00  0.00    +0.000 OA
BRANCH  63  70
ATOM     70  C   UNL     1     -11.391  -0.139   8.619  0.00  0.00    +0.000 C 
ATOM     71  N   UNL     1     -10.402  -0.456   9.468  0.00  0.00    +0.000 N 
ATOM     72  O   UNL     1     -12.541  -0.573   8.693  0.00  0.00    +0.000 OA
ATOM     73  H   UNL     1      -9.487  -0.055   9.320  0.00  0.00    +0.000 HD
BRANCH  71  74
ATOM     74  C   UNL     1     -10.493  -1.519  10.467  0.00  0.00    +0.000 C 
BRANCH  74  79
ATOM     75  C   UNL     1      -7.374  -1.244  13.442  0.00  0.00    +0.000 A 
ATOM     76  C   UNL     1      -8.655  -0.756  13.717  0.00  0.00    +0.000 A 
ATOM     77  C   UNL     1      -8.119  -1.941  11.249  0.00  0.00    +0.000 A 
ATOM     78  C   UNL     1      -9.661  -0.851  12.760  0.00  0.00    +0.000 A 
ATOM     79  C   UNL     1      -9.391  -1.433  11.519  0.00  0.00    +0.000 A 
ATOM     80  C   UNL     1      -7.113  -1.841  12.206  0.00  0.00    +0.000 A 
BRANCH  75  81
ATOM     81  C   UNL     1      -6.287  -1.125  14.455  0.00  0.00    +0.000 A 
ATOM     82  C   UNL     1      -5.286  -0.158  14.635  0.00  0.00    +0.000 A 
ATOM     83  C   UNL     1      -4.794  -1.423  16.341  0.00  0.00    +0.000 A 
ATOM     84  S   UNL     1      -6.135  -2.319  15.722  0.00  0.00    +0.000 S 
ATOM     85  N   UNL     1      -4.489  -0.344  15.673  0.00  0.00    +0.000 NA
ATOM     86  C   UNL     1      -4.989   1.065  13.794  0.00  0.00    +0.000 C 
ENDBRANCH  75  81
ENDBRANCH  74  79
ENDBRANCH  71  74
ENDBRANCH  63  70
BRANCH  66  87
ATOM     87  O   UNL     1      -8.682  -0.144   4.809  0.00  0.00    +0.000 OA
ATOM     88  H   UNL     1      -7.735   0.014   4.835  0.00  0.00    +0.000 HD
ENDBRANCH  66  87
ENDBRANCH  62  68
BRANCH  62  89
ATOM     89  C   UNL     1      -7.487   2.449  10.244  0.00  0.00    +0.000 C 
ATOM     90  C   UNL     1      -8.372   2.276  11.506  0.00  0.00    +0.000 C 
ATOM     91  C   UNL     1      -6.251   3.289  10.660  0.00  0.00    +0.000 C 
ATOM     92  C   UNL     1      -6.997   1.039   9.817  0.00  0.00    +0.000 C 
ENDBRANCH  62  89
ENDBRANCH  58  62
ENDBRANCH  57  59
ENDBRANCH  56  57
ENDBRANCH  55  56
ENDBRANCH  54  55
ENDBRANCH  53  54
ENDBRANCH  52  53
ENDBRANCH  51  52
ENDBRANCH  50  51
ENDBRANCH  49  50
ENDBRANCH   1  49
TORSDOF 28
ENDMDL
