=
 OpenBabel04082316253D

 87 95  0  0  1  0  0  0  0  0999 V2000
   21.3840   42.0170   -4.5670 C   0  0  0  0  0  3  0  0  0  0  0  0
   21.3760   40.0260   -2.7880 C   0  0  0  0  0  3  0  0  0  0  0  0
   22.4890   41.2110   -4.3970 C   0  0  0  0  0  0  0  0  0  0  0  0
   20.2720   40.8330   -2.9570 C   0  0  0  0  0  0  0  0  0  0  0  0
   22.5050   40.2010   -3.5050 N   0  0  0  0  0  0  0  0  0  0  0  0
   20.2560   41.8430   -3.8490 N   0  0  0  0  0  0  0  0  0  0  0  0
   19.0440   40.6110   -2.1460 C   0  0  0  0  0  2  0  0  0  0  0  0
   17.9090   40.5160   -3.0140 O   0  0  0  0  0  0  0  0  0  0  0  0
   17.2860   39.2960   -3.0630 C   0  0  0  0  0  0  0  0  0  0  0  0
   16.2340   37.2260   -5.8170 C   0  0  0  0  0  2  0  0  0  0  0  0
   16.0880   38.2230   -6.9650 C   0  0  0  0  0  2  0  0  0  0  0  0
   15.8490   37.8520   -4.4790 C   0  0  0  0  0  2  0  0  0  0  0  0
   16.4580   40.1090   -5.3120 C   0  0  0  0  0  2  0  0  0  0  0  0
   16.8660   39.5190   -6.6740 C   0  0  2  0  0  3  0  0  0  0  0  0
   16.5770   39.1000   -4.2520 N   0  0  0  0  0  0  0  0  0  0  0  0
   17.3520   38.4740   -2.1510 O   0  0  0  0  0  0  0  0  0  0  0  0
   16.9620   41.6890   -9.6310 C   0  0  0  0  0  0  0  0  0  0  0  0
   15.8950   42.1560   -8.8390 C   0  0  0  0  0  0  0  0  0  0  0  0
   17.4760   40.6290   -8.9230 C   0  0  0  0  0  0  0  0  0  0  0  0
   15.7400   41.4510   -7.7150 N   0  0  0  0  0  0  0  0  0  0  0  0
   16.7160   40.5300   -7.7950 N   0  0  0  0  0  0  0  0  0  0  0  0
   15.4120   44.5640   -8.8220 C   0  0  0  0  0  3  0  0  0  0  0  0
   13.7720   43.0280   -9.7130 C   0  0  0  0  0  3  0  0  0  0  0  0
   14.5610   45.6330   -9.1020 C   0  0  0  0  0  3  0  0  0  0  0  0
   12.9220   44.0970   -9.9930 C   0  0  0  0  0  3  0  0  0  0  0  0
   15.0170   43.2610   -9.1270 C   0  0  0  0  0  0  0  0  0  0  0  0
   13.3160   45.4010   -9.6880 C   0  0  0  0  0  0  0  0  0  0  0  0
   12.4870   46.4440   -9.9600 O   0  0  0  0  0  0  0  0  0  0  0  0
   12.6170   48.5930   -8.8840 C   0  0  0  0  0  3  0  0  0  0  0  0
   12.2710   49.4380   -7.8290 C   0  0  0  0  0  3  0  0  0  0  0  0
   10.9750   47.6600   -6.8310 C   0  0  0  0  0  3  0  0  0  0  0  0
   12.1420   47.2820   -8.9130 C   0  0  0  0  0  0  0  0  0  0  0  0
   11.4500   48.9710   -6.8020 C   0  0  0  0  0  0  0  0  0  0  0  0
   11.3200   46.8150   -7.8870 C   0  0  0  0  0  0  0  0  0  0  0  0
   11.1190   49.7810   -5.7890 F   0  0  0  0  0  0  0  0  0  0  0  0
   10.8610   45.5560   -7.9070 F   0  0  0  0  0  0  0  0  0  0  0  0
   17.4460   42.1700  -10.8920 C   0  0  0  0  0  0  0  0  0  0  0  0
   16.5590   42.2050  -11.9780 N   0  0  0  0  0  0  0  0  0  0  0  0
   18.6330   42.5420  -11.0560 O   0  0  0  0  0  0  0  0  0  0  0  0
   15.6260   41.9150  -11.8600 H   0  0  0  0  0  0  0  0  0  0  0  0
   16.8710   42.5180  -12.8570 H   0  0  0  0  0  0  0  0  0  0  0  0
   18.5000   39.7830   -9.1640 N   0  0  0  0  0  0  0  0  0  0  0  0
   19.1670   39.9990   -9.8550 H   0  0  0  0  0  0  0  0  0  0  0  0
   18.5800   38.9490   -8.6460 H   0  0  0  0  0  0  0  0  0  0  0  0
   23.7270   41.4340   -5.2140 C   0  0  0  0  0  2  0  0  0  0  0  0
   23.4770   41.0290   -6.5600 O   0  0  0  0  0  0  0  0  0  0  0  0
   22.7350   42.9350   -9.5880 C   0  0  0  0  0  3  0  0  0  0  0  0
   22.6740   41.9450   -8.6100 C   0  0  0  0  0  3  0  0  0  0  0  0
   24.4570   43.0340   -7.4060 C   0  0  0  0  0  3  0  0  0  0  0  0
   23.6520   43.9910   -9.4780 C   0  0  0  0  0  0  0  0  0  0  0  0
   24.5300   44.0350   -8.3870 C   0  0  0  0  0  0  0  0  0  0  0  0
   23.5340   41.9950   -7.5170 C   0  0  0  0  0  0  0  0  0  0  0  0
   26.6950   46.9670   -9.5290 C   0  0  0  0  0  0  0  0  0  0  0  0
   23.7140   45.0370  -10.5560 C   0  0  0  0  0  2  0  0  0  0  0  0
   25.5450   45.1360   -8.2290 C   0  0  0  0  0  2  0  0  0  0  0  0
   24.3830   46.3350  -10.1100 C   0  0  2  0  0  3  0  0  0  0  0  0
   25.6020   46.1120   -9.3290 N   0  0  0  0  0  0  0  0  0  0  0  0
   26.7720   47.7930  -10.4410 O   0  0  0  0  0  0  0  0  0  0  0  0
   23.4770   47.1820   -9.2620 C   0  0  0  0  0  0  0  0  0  0  0  0
   22.3650   46.5140   -8.7850 N   0  0  0  0  0  0  0  0  0  0  0  0
   23.7650   48.3550   -9.0550 O   0  0  0  0  0  0  0  0  0  0  0  0
   22.2490   45.5670   -9.0260 H   0  0  0  0  0  0  0  0  0  0  0  0
   17.8730   48.0710  -10.3200 C   0  0  0  0  0  3  0  0  0  0  0  0
   19.0430   48.8110  -10.4650 C   0  0  0  0  0  3  0  0  0  0  0  0
   17.8220   47.0250   -9.3990 C   0  0  0  0  0  3  0  0  0  0  0  0
   20.1610   48.5060   -9.6880 C   0  0  0  0  0  3  0  0  0  0  0  0
   18.9420   46.7020   -8.6180 C   0  0  0  0  0  0  0  0  0  0  0  0
   20.1230   47.4560   -8.7560 C   0  0  0  0  0  0  0  0  0  0  0  0
   18.8230   45.5930   -7.6020 C   0  0  0  0  0  2  0  0  0  0  0  0
   20.1700   45.0930   -7.0850 C   0  0  0  0  0  2  0  0  0  0  0  0
   21.0720   46.2690   -6.7210 C   0  0  0  0  0  2  0  0  0  0  0  0
   21.3630   47.1400   -7.9490 C   0  0  1  0  0  3  0  0  0  0  0  0
   27.8400   46.8330   -8.5540 C   0  0  1  0  0  3  0  0  0  0  0  0
   29.6130   45.7440   -9.9050 C   0  0  0  0  0  0  0  0  0  0  0  0
   29.0620   46.8800   -9.3490 N   0  0  0  0  0  0  0  0  0  0  0  0
   29.1590   44.6070   -9.8010 O   0  0  0  0  0  0  0  0  0  0  0  0
   29.5070   47.7460   -9.4920 H   0  0  0  0  0  0  0  0  0  0  0  0
   31.3210   47.4940  -10.4640 C   0  0  0  0  0  1  0  0  0  0  0  0
   30.8760   46.0570  -10.6860 C   0  0  2  0  0  3  0  0  0  0  0  0
   29.8530   46.9360  -12.7880 C   0  0  0  0  0  1  0  0  0  0  0  0
   30.6450   45.8570  -12.1450 N   0  0  0  0  0  4  0  0  0  0  0  0
   31.5520   45.8070  -12.6090 H   0  0  0  0  0  0  0  0  0  0  0  0
   30.1040   44.9970  -12.2420 H   0  0  0  0  0  0  0  0  0  0  0  0
   27.1090   47.3680   -6.1360 C   0  0  0  0  0  1  0  0  0  0  0  0
   27.0030   49.1370   -7.9050 C   0  0  0  0  0  1  0  0  0  0  0  0
   29.2150   48.3460   -7.0660 C   0  0  0  0  0  1  0  0  0  0  0  0
   27.7810   47.8950   -7.4200 C   0  0  0  0  0  0  0  0  0  0  0  0
  1  3  2  0  0  0  0
  1  6  1  0  0  0  0
  3  5  1  0  0  0  0
  4  2  1  0  0  0  0
  4  7  1  0  0  0  0
  5  2  2  0  0  0  0
  6  4  2  0  0  0  0
  8  7  1  0  0  0  0
  9  8  1  0  0  0  0
  9 16  2  0  0  0  0
 10 12  1  0  0  0  0
 11 14  1  0  0  0  0
 11 10  1  0  0  0  0
 12 15  1  0  0  0  0
 13 15  1  0  0  0  0
 14 21  1  6  0  0  0
 14 13  1  0  0  0  0
 15  9  1  0  0  0  0
 17 19  2  0  0  0  0
 17 18  1  0  0  0  0
 18 20  2  0  0  0  0
 19 21  1  0  0  0  0
 21 20  1  0  0  0  0
 23 26  1  0  0  0  0
 24 22  1  0  0  0  0
 25 23  2  0  0  0  0
 25 27  1  0  0  0  0
 26 18  1  0  0  0  0
 26 22  2  0  0  0  0
 27 24  2  0  0  0  0
 28 27  1  0  0  0  0
 28 32  1  0  0  0  0
 29 30  1  0  0  0  0
 30 33  2  0  0  0  0
 31 33  1  0  0  0  0
 32 29  2  0  0  0  0
 32 34  1  0  0  0  0
 33 35  1  0  0  0  0
 34 31  2  0  0  0  0
 36 34  1  0  0  0  0
 37 17  1  0  0  0  0
 38 40  1  0  0  0  0
 38 37  1  0  0  0  0
 39 37  2  0  0  0  0
 41 38  1  0  0  0  0
 42 19  1  0  0  0  0
 42 44  1  0  0  0  0
 43 42  1  0  0  0  0
 45  3  1  0  0  0  0
 46 45  1  0  0  0  0
 47 50  2  0  0  0  0
 47 48  1  0  0  0  0
 48 52  2  0  0  0  0
 50 51  1  0  0  0  0
 51 55  1  0  0  0  0
 51 49  2  0  0  0  0
 52 49  1  0  0  0  0
 52 46  1  0  0  0  0
 53 57  1  0  0  0  0
 54 56  1  0  0  0  0
 54 50  1  0  0  0  0
 56 57  1  0  0  0  0
 56 59  1  1  0  0  0
 57 55  1  0  0  0  0
 58 53  2  0  0  0  0
 59 61  2  0  0  0  0
 59 60  1  0  0  0  0
 62 60  1  0  0  0  0
 63 65  1  0  0  0  0
 64 63  2  0  0  0  0
 64 66  1  0  0  0  0
 65 67  2  0  0  0  0
 66 68  2  0  0  0  0
 67 69  1  0  0  0  0
 68 67  1  0  0  0  0
 68 72  1  0  0  0  0
 69 70  1  0  0  0  0
 70 71  1  0  0  0  0
 72 60  1  6  0  0  0
 72 71  1  0  0  0  0
 73 53  1  6  0  0  0
 73 87  1  0  0  0  0
 74 76  2  0  0  0  0
 74 75  1  0  0  0  0
 75 73  1  0  0  0  0
 77 75  1  0  0  0  0
 79 78  1  6  0  0  0
 79 74  1  0  0  0  0
 80 81  1  0  0  0  0
 81 79  1  0  0  0  0
 82 81  1  0  0  0  0
 83 81  1  0  0  0  0
 85 87  1  0  0  0  0
 87 86  1  0  0  0  0
 87 84  1  0  0  0  0
M  END
>  <MODEL>
1

>  <REMARK>
 VINA RESULT:   -11.261      0.000      0.000
 INTER + INTRA:         -27.275
 INTER:                 -22.207
 INTRA:                  -5.068
 UNBOUND:                -3.835
  Name = 
  24 active torsions:
  status: ('A' for Active; 'I' for Inactive)
    1  A    between atoms: C_17  and  C_28
    2  A    between atoms: C_18  and  C_32
    3  A    between atoms: C_23  and  O_75
    4  A    between atoms: C_24  and  O_76
    5  A    between atoms: C_25  and  O_75
    6  A    between atoms: C_29  and  C_54
    7  A    between atoms: C_30  and  C_55
    8  A    between atoms: C_31  and  N_65
    9  A    between atoms: C_33  and  C_47
   10  A    between atoms: C_34  and  C_56
   11  A    between atoms: C_35  and  C_57
   12  A    between atoms: C_36  and  O_77
   13  A    between atoms: C_46  and  N_67
   14  A    between atoms: C_48  and  N_62
   15  A    between atoms: C_49  and  C_57
   16  A    between atoms: C_50  and  C_58
   17  A    between atoms: C_51  and  C_58
   18  A    between atoms: C_52  and  C_58
   19  A    between atoms: C_53  and  N_69
   20  A    between atoms: C_54  and  O_76
   21  A    between atoms: C_55  and  O_77
   22  A    between atoms: C_56  and  C_58
   23  A    between atoms: C_56  and  N_68
   24  A    between atoms: C_57  and  N_69
                            x       y       z     vdW  Elec       q    Type
                         _______ _______ _______ _____ _____    ______ ____

>  <TORSDO>
F 19

$$$$
=
 OpenBabel04082316253D

 87 95  0  0  1  0  0  0  0  0999 V2000
   21.0420   41.6910   -4.1450 C   0  0  0  0  0  3  0  0  0  0  0  0
   20.8350   39.0580   -4.5350 C   0  0  0  0  0  3  0  0  0  0  0  0
   22.1640   40.9020   -4.2820 C   0  0  0  0  0  0  0  0  0  0  0  0
   19.7130   39.8460   -4.3980 C   0  0  0  0  0  0  0  0  0  0  0  0
   22.0800   39.5710   -4.4790 N   0  0  0  0  0  0  0  0  0  0  0  0
   19.7970   41.1770   -4.2000 N   0  0  0  0  0  0  0  0  0  0  0  0
   18.3540   39.2440   -4.4640 C   0  0  0  0  0  2  0  0  0  0  0  0
   17.3700   40.2840   -4.4650 O   0  0  0  0  0  0  0  0  0  0  0  0
   16.0810   39.8970   -4.7240 C   0  0  0  0  0  0  0  0  0  0  0  0
   14.3830   39.0260   -7.7790 C   0  0  0  0  0  2  0  0  0  0  0  0
   15.2180   39.7250   -8.8520 C   0  0  0  0  0  2  0  0  0  0  0  0
   14.3370   39.8390   -6.4880 C   0  0  0  0  0  2  0  0  0  0  0  0
   16.5290   40.8770   -7.0130 C   0  0  0  0  0  2  0  0  0  0  0  0
   16.6200   40.0720   -8.3210 C   0  0  2  0  0  3  0  0  0  0  0  0
   15.6840   40.1830   -6.0340 N   0  0  0  0  0  0  0  0  0  0  0  0
   15.3630   39.3570   -3.8840 O   0  0  0  0  0  0  0  0  0  0  0  0
   19.0250   41.8910  -10.4120 C   0  0  0  0  0  0  0  0  0  0  0  0
   17.9620   41.5330  -11.2620 C   0  0  0  0  0  0  0  0  0  0  0  0
   18.6670   41.3890   -9.1840 C   0  0  0  0  0  0  0  0  0  0  0  0
   17.0000   40.8560  -10.6290 N   0  0  0  0  0  0  0  0  0  0  0  0
   17.4570   40.7850   -9.3670 N   0  0  0  0  0  0  0  0  0  0  0  0
   18.2370   43.0610  -13.1650 C   0  0  0  0  0  3  0  0  0  0  0  0
   17.3200   40.8560  -13.5340 C   0  0  0  0  0  3  0  0  0  0  0  0
   18.1170   43.3380  -14.5270 C   0  0  0  0  0  3  0  0  0  0  0  0
   17.2020   41.1330  -14.8960 C   0  0  0  0  0  3  0  0  0  0  0  0
   17.8380   41.8200  -12.6690 C   0  0  0  0  0  0  0  0  0  0  0  0
   17.6000   42.3750  -15.3930 C   0  0  0  0  0  0  0  0  0  0  0  0
   17.4840   42.6460  -16.7210 O   0  0  0  0  0  0  0  0  0  0  0  0
   15.9860   44.4350  -17.3120 C   0  0  0  0  0  3  0  0  0  0  0  0
   14.7430   44.8650  -17.7780 C   0  0  0  0  0  3  0  0  0  0  0  0
   14.0280   42.5660  -17.9900 C   0  0  0  0  0  3  0  0  0  0  0  0
   16.2510   43.0710  -17.1850 C   0  0  0  0  0  0  0  0  0  0  0  0
   13.7640   43.9300  -18.1160 C   0  0  0  0  0  0  0  0  0  0  0  0
   15.2720   42.1370  -17.5240 C   0  0  0  0  0  0  0  0  0  0  0  0
   12.5710   44.3420  -18.5620 F   0  0  0  0  0  0  0  0  0  0  0  0
   15.5190   40.8250  -17.4040 F   0  0  0  0  0  0  0  0  0  0  0  0
   20.2290   42.6120  -10.7050 C   0  0  0  0  0  0  0  0  0  0  0  0
   20.2460   43.9980  -10.4910 N   0  0  0  0  0  0  0  0  0  0  0  0
   21.2540   42.0480  -11.1580 O   0  0  0  0  0  0  0  0  0  0  0  0
   19.4460   44.4500  -10.1360 H   0  0  0  0  0  0  0  0  0  0  0  0
   21.0560   44.5180  -10.6970 H   0  0  0  0  0  0  0  0  0  0  0  0
   19.2710   41.4110   -7.9780 N   0  0  0  0  0  0  0  0  0  0  0  0
   18.8740   41.9210   -7.2360 H   0  0  0  0  0  0  0  0  0  0  0  0
   20.1100   40.9130   -7.8390 H   0  0  0  0  0  0  0  0  0  0  0  0
   23.5340   41.5080   -4.2150 C   0  0  0  0  0  2  0  0  0  0  0  0
   24.2530   41.1650   -5.4000 O   0  0  0  0  0  0  0  0  0  0  0  0
   22.8780   42.4680   -8.5250 C   0  0  0  0  0  3  0  0  0  0  0  0
   23.0690   41.6530   -7.4110 C   0  0  0  0  0  3  0  0  0  0  0  0
   24.8750   43.0770   -6.6860 C   0  0  0  0  0  3  0  0  0  0  0  0
   23.6800   43.6020   -8.7240 C   0  0  0  0  0  0  0  0  0  0  0  0
   24.6950   43.9030   -7.8060 C   0  0  0  0  0  0  0  0  0  0  0  0
   24.0650   41.9580   -6.4890 C   0  0  0  0  0  0  0  0  0  0  0  0
   26.3370   46.7780   -9.7100 C   0  0  0  0  0  0  0  0  0  0  0  0
   23.4700   44.4560   -9.9440 C   0  0  0  0  0  2  0  0  0  0  0  0
   25.5940   45.0980   -7.9800 C   0  0  0  0  0  2  0  0  0  0  0  0
   24.0490   45.8620   -9.8120 C   0  0  2  0  0  3  0  0  0  0  0  0
   25.3840   45.8780   -9.2110 N   0  0  0  0  0  0  0  0  0  0  0  0
   26.1900   47.4450  -10.7370 O   0  0  0  0  0  0  0  0  0  0  0  0
   23.1860   46.7580   -8.9680 C   0  0  0  0  0  0  0  0  0  0  0  0
   22.0110   46.1680   -8.5430 N   0  0  0  0  0  0  0  0  0  0  0  0
   23.5590   47.8990   -8.7220 O   0  0  0  0  0  0  0  0  0  0  0  0
   21.8290   45.2400   -8.8120 H   0  0  0  0  0  0  0  0  0  0  0  0
   17.6500   48.0050  -10.1430 C   0  0  0  0  0  3  0  0  0  0  0  0
   18.8650   48.6720  -10.2650 C   0  0  0  0  0  3  0  0  0  0  0  0
   17.5190   46.9610   -9.2290 C   0  0  0  0  0  3  0  0  0  0  0  0
   19.9480   48.2960   -9.4710 C   0  0  0  0  0  3  0  0  0  0  0  0
   18.6030   46.5660   -8.4310 C   0  0  0  0  0  0  0  0  0  0  0  0
   19.8310   47.2470   -8.5450 C   0  0  0  0  0  0  0  0  0  0  0  0
   18.4000   45.4630   -7.4230 C   0  0  0  0  0  2  0  0  0  0  0  0
   19.7040   44.8790   -6.8860 C   0  0  0  0  0  2  0  0  0  0  0  0
   20.6710   45.9960   -6.5020 C   0  0  0  0  0  2  0  0  0  0  0  0
   21.0360   46.8510   -7.7200 C   0  0  1  0  0  3  0  0  0  0  0  0
   27.6170   46.9080   -8.9210 C   0  0  1  0  0  3  0  0  0  0  0  0
   29.3400   45.9620  -10.4350 C   0  0  0  0  0  0  0  0  0  0  0  0
   28.6880   47.0540   -9.9000 N   0  0  0  0  0  0  0  0  0  0  0  0
   29.1060   44.7880  -10.1600 O   0  0  0  0  0  0  0  0  0  0  0  0
   28.9540   47.9570  -10.1880 H   0  0  0  0  0  0  0  0  0  0  0  0
   31.3540   47.4050  -10.8300 C   0  0  0  0  0  1  0  0  0  0  0  0
   30.4070   46.3770  -11.4310 C   0  0  2  0  0  3  0  0  0  0  0  0
   30.6660   46.9910  -13.8370 C   0  0  0  0  0  1  0  0  0  0  0  0
   29.7800   46.9700  -12.6460 N   0  0  0  0  0  4  0  0  0  0  0  0
   28.9480   46.4260  -12.8740 H   0  0  0  0  0  0  0  0  0  0  0  0
   29.5660   47.9420  -12.4210 H   0  0  0  0  0  0  0  0  0  0  0  0
   26.9990   47.5980   -6.5110 C   0  0  0  0  0  1  0  0  0  0  0  0
   26.6680   49.2020   -8.4040 C   0  0  0  0  0  1  0  0  0  0  0  0
   28.9750   48.6220   -7.6520 C   0  0  0  0  0  1  0  0  0  0  0  0
   27.5550   48.0550   -7.8730 C   0  0  0  0  0  0  0  0  0  0  0  0
  2  5  2  0  0  0  0
  2  4  1  0  0  0  0
  3 45  1  0  0  0  0
  3  1  2  0  0  0  0
  4  6  2  0  0  0  0
  5  3  1  0  0  0  0
  6  1  1  0  0  0  0
  7  4  1  0  0  0  0
  8  7  1  0  0  0  0
  9  8  1  0  0  0  0
  9 16  2  0  0  0  0
 10 12  1  0  0  0  0
 11 14  1  0  0  0  0
 11 10  1  0  0  0  0
 12 15  1  0  0  0  0
 13 15  1  0  0  0  0
 14 21  1  6  0  0  0
 14 13  1  0  0  0  0
 15  9  1  0  0  0  0
 17 19  2  0  0  0  0
 18 20  2  0  0  0  0
 18 17  1  0  0  0  0
 19 42  1  0  0  0  0
 20 21  1  0  0  0  0
 21 19  1  0  0  0  0
 22 26  1  0  0  0  0
 23 26  2  0  0  0  0
 24 22  2  0  0  0  0
 25 23  1  0  0  0  0
 26 18  1  0  0  0  0
 27 25  2  0  0  0  0
 27 24  1  0  0  0  0
 28 27  1  0  0  0  0
 29 32  1  0  0  0  0
 30 29  2  0  0  0  0
 31 34  1  0  0  0  0
 32 28  1  0  0  0  0
 33 31  2  0  0  0  0
 33 30  1  0  0  0  0
 34 36  1  0  0  0  0
 34 32  2  0  0  0  0
 35 33  1  0  0  0  0
 37 38  1  0  0  0  0
 37 17  1  0  0  0  0
 38 40  1  0  0  0  0
 39 37  2  0  0  0  0
 41 38  1  0  0  0  0
 42 44  1  0  0  0  0
 42 43  1  0  0  0  0
 46 45  1  0  0  0  0
 47 48  1  0  0  0  0
 48 52  2  0  0  0  0
 49 52  1  0  0  0  0
 50 47  2  0  0  0  0
 50 51  1  0  0  0  0
 51 49  2  0  0  0  0
 52 46  1  0  0  0  0
 53 57  1  0  0  0  0
 54 56  1  0  0  0  0
 54 50  1  0  0  0  0
 55 51  1  0  0  0  0
 56 57  1  0  0  0  0
 56 59  1  1  0  0  0
 57 55  1  0  0  0  0
 58 53  2  0  0  0  0
 59 61  2  0  0  0  0
 59 60  1  0  0  0  0
 62 60  1  0  0  0  0
 63 65  1  0  0  0  0
 64 63  2  0  0  0  0
 64 66  1  0  0  0  0
 65 67  2  0  0  0  0
 66 68  2  0  0  0  0
 67 69  1  0  0  0  0
 68 67  1  0  0  0  0
 68 72  1  0  0  0  0
 69 70  1  0  0  0  0
 70 71  1  0  0  0  0
 72 60  1  6  0  0  0
 72 71  1  0  0  0  0
 73 53  1  6  0  0  0
 73 87  1  0  0  0  0
 74 76  2  0  0  0  0
 74 75  1  0  0  0  0
 75 73  1  0  0  0  0
 77 75  1  0  0  0  0
 79 78  1  1  0  0  0
 79 74  1  0  0  0  0
 80 81  1  0  0  0  0
 81 83  1  0  0  0  0
 81 79  1  0  0  0  0
 82 81  1  0  0  0  0
 85 87  1  0  0  0  0
 87 86  1  0  0  0  0
 87 84  1  0  0  0  0
M  END
>  <MODEL>
2

>  <REMARK>
 VINA RESULT:   -11.092      3.226      4.497
 INTER + INTRA:         -26.924
 INTER:                 -23.089
 INTRA:                  -3.835
 UNBOUND:                -3.835
  Name = 
  24 active torsions:
  status: ('A' for Active; 'I' for Inactive)
    1  A    between atoms: C_17  and  C_28
    2  A    between atoms: C_18  and  C_32
    3  A    between atoms: C_23  and  O_75
    4  A    between atoms: C_24  and  O_76
    5  A    between atoms: C_25  and  O_75
    6  A    between atoms: C_29  and  C_54
    7  A    between atoms: C_30  and  C_55
    8  A    between atoms: C_31  and  N_65
    9  A    between atoms: C_33  and  C_47
   10  A    between atoms: C_34  and  C_56
   11  A    between atoms: C_35  and  C_57
   12  A    between atoms: C_36  and  O_77
   13  A    between atoms: C_46  and  N_67
   14  A    between atoms: C_48  and  N_62
   15  A    between atoms: C_49  and  C_57
   16  A    between atoms: C_50  and  C_58
   17  A    between atoms: C_51  and  C_58
   18  A    between atoms: C_52  and  C_58
   19  A    between atoms: C_53  and  N_69
   20  A    between atoms: C_54  and  O_76
   21  A    between atoms: C_55  and  O_77
   22  A    between atoms: C_56  and  C_58
   23  A    between atoms: C_56  and  N_68
   24  A    between atoms: C_57  and  N_69
                            x       y       z     vdW  Elec       q    Type
                         _______ _______ _______ _____ _____    ______ ____

>  <TORSDO>
F 19

$$$$
