REMARK  Name = 
REMARK  24 active torsions:
REMARK  status: ('A' for Active; 'I' for Inactive)
REMARK    1  A    between atoms: C_17  and  C_28
REMARK    2  A    between atoms: C_18  and  C_32
REMARK    3  A    between atoms: C_23  and  O_75
REMARK    4  A    between atoms: C_24  and  O_76
REMARK    5  A    between atoms: C_25  and  O_75
REMARK    6  A    between atoms: C_29  and  C_54
REMARK    7  A    between atoms: C_30  and  C_55
REMARK    8  A    between atoms: C_31  and  N_65
REMARK    9  A    between atoms: C_33  and  C_47
REMARK   10  A    between atoms: C_34  and  C_56
REMARK   11  A    between atoms: C_35  and  C_57
REMARK   12  A    between atoms: C_36  and  O_77
REMARK   13  A    between atoms: C_46  and  N_67
REMARK   14  A    between atoms: C_48  and  N_62
REMARK   15  A    between atoms: C_49  and  C_57
REMARK   16  A    between atoms: C_50  and  C_58
REMARK   17  A    between atoms: C_51  and  C_58
REMARK   18  A    between atoms: C_52  and  C_58
REMARK   19  A    between atoms: C_53  and  N_69
REMARK   20  A    between atoms: C_54  and  O_76
REMARK   21  A    between atoms: C_55  and  O_77
REMARK   22  A    between atoms: C_56  and  C_58
REMARK   23  A    between atoms: C_56  and  N_68
REMARK   24  A    between atoms: C_57  and  N_69
REMARK                            x       y       z     vdW  Elec       q    Type
REMARK                         _______ _______ _______ _____ _____    ______ ____
ROOT
ATOM      1  C   UNL     1      27.215  42.849  -1.738  0.00  0.00    +0.000 A 
ATOM      2  C   UNL     1      25.331  43.643  -0.021  0.00  0.00    +0.000 A 
ATOM      3  C   UNL     1      26.328  43.851  -2.069  0.00  0.00    +0.000 A 
ATOM      4  C   UNL     1      26.217  42.641   0.309  0.00  0.00    +0.000 A 
ATOM      5  N   UNL     1      25.370  44.266  -1.216  0.00  0.00    +0.000 NA
ATOM      6  N   UNL     1      27.175  42.226  -0.544  0.00  0.00    +0.000 NA
ENDROOT
BRANCH   4   7
ATOM      7  C   UNL     1      26.143  41.975   1.638  0.00  0.00    +0.000 C 
BRANCH   7   8
ATOM      8  O   UNL     1      24.860  41.360   1.794  0.00  0.00    +0.000 OA
BRANCH   8   9
ATOM      9  C   UNL     1      24.644  40.703   2.977  0.00  0.00    +0.000 C 
ATOM     10  C   UNL     1      22.433  38.006   3.878  0.00  0.00    +0.000 C 
ATOM     11  C   UNL     1      21.333  38.090   2.821  0.00  0.00    +0.000 C 
ATOM     12  C   UNL     1      22.964  39.389   4.245  0.00  0.00    +0.000 C 
ATOM     13  C   UNL     1      22.348  40.266   2.007  0.00  0.00    +0.000 C 
ATOM     14  C   UNL     1      21.808  38.886   1.592  0.00  0.00    +0.000 C 
ATOM     15  N   UNL     1      23.370  40.131   3.052  0.00  0.00    +0.000 N 
ATOM     16  O   UNL     1      25.489  40.633   3.868  0.00  0.00    +0.000 OA
BRANCH  14  21
ATOM     17  C   UNL     1      19.386  38.644  -1.154  0.00  0.00    +0.000 A 
ATOM     18  C   UNL     1      19.094  39.846  -0.481  0.00  0.00    +0.000 A 
ATOM     19  C   UNL     1      20.451  38.115  -0.465  0.00  0.00    +0.000 A 
ATOM     20  N   UNL     1      19.907  40.068   0.555  0.00  0.00    +0.000 NA
ATOM     21  N   UNL     1      20.721  38.998   0.539  0.00  0.00    +0.000 N 
BRANCH  18  26
ATOM     22  C   UNL     1      16.790  40.659  -0.232  0.00  0.00    +0.000 A 
ATOM     23  C   UNL     1      18.318  41.842  -1.683  0.00  0.00    +0.000 A 
ATOM     24  C   UNL     1      15.786  41.576  -0.543  0.00  0.00    +0.000 A 
ATOM     25  C   UNL     1      17.314  42.759  -1.993  0.00  0.00    +0.000 A 
ATOM     26  C   UNL     1      18.056  40.792  -0.802  0.00  0.00    +0.000 A 
ATOM     27  C   UNL     1      16.047  42.626  -1.423  0.00  0.00    +0.000 A 
BRANCH  27  28
ATOM     28  O   UNL     1      15.067  43.520  -1.726  0.00  0.00    +0.000 OA
BRANCH  28  32
ATOM     29  C   UNL     1      15.877  45.462  -0.557  0.00  0.00    +0.000 A 
ATOM     30  C   UNL     1      16.212  46.816  -0.553  0.00  0.00    +0.000 A 
ATOM     31  C   UNL     1      15.592  46.976  -2.883  0.00  0.00    +0.000 A 
ATOM     32  C   UNL     1      15.400  44.864  -1.724  0.00  0.00    +0.000 A 
ATOM     33  C   UNL     1      16.069  47.573  -1.716  0.00  0.00    +0.000 A 
ATOM     34  C   UNL     1      15.258  45.621  -2.887  0.00  0.00    +0.000 A 
ATOM     35  F   UNL     1      16.389  48.873  -1.712  0.00  0.00    +0.000 F 
ATOM     36  F   UNL     1      14.799  45.054  -4.011  0.00  0.00    +0.000 F 
ENDBRANCH  28  32
ENDBRANCH  27  28
ENDBRANCH  18  26
BRANCH  17  37
ATOM     37  C   UNL     1      18.753  38.058  -2.299  0.00  0.00    +0.000 C 
ATOM     38  N   UNL     1      17.673  38.734  -2.884  0.00  0.00    +0.000 N 
ATOM     39  O   UNL     1      19.122  36.959  -2.779  0.00  0.00    +0.000 OA
ATOM     40  H   UNL     1      17.375  39.597  -2.515  0.00  0.00    +0.000 HD
ATOM     41  H   UNL     1      17.213  38.346  -3.663  0.00  0.00    +0.000 HD
ENDBRANCH  17  37
BRANCH  19  42
ATOM     42  N   UNL     1      21.172  36.986  -0.627  0.00  0.00    +0.000 N 
ATOM     43  H   UNL     1      20.958  36.365  -1.360  0.00  0.00    +0.000 HD
ATOM     44  H   UNL     1      21.914  36.784  -0.012  0.00  0.00    +0.000 HD
ENDBRANCH  19  42
ENDBRANCH  14  21
ENDBRANCH   8   9
ENDBRANCH   7   8
ENDBRANCH   4   7
BRANCH   3  45
ATOM     45  C   UNL     1      26.402  44.523  -3.408  0.00  0.00    +0.000 C 
BRANCH  45  46
ATOM     46  O   UNL     1      27.514  45.418  -3.419  0.00  0.00    +0.000 OA
BRANCH  46  52
ATOM     47  C   UNL     1      28.993  47.761  -5.801  0.00  0.00    +0.000 A 
ATOM     48  C   UNL     1      28.785  47.027  -4.635  0.00  0.00    +0.000 A 
ATOM     49  C   UNL     1      26.859  45.984  -5.643  0.00  0.00    +0.000 A 
ATOM     50  C   UNL     1      28.140  47.604  -6.904  0.00  0.00    +0.000 A 
ATOM     51  C   UNL     1      27.056  46.720  -6.822  0.00  0.00    +0.000 A 
ATOM     52  C   UNL     1      27.719  46.136  -4.556  0.00  0.00    +0.000 A 
ATOM     53  C   UNL     1      25.365  47.597 -10.132  0.00  0.00    +0.000 C 
ATOM     54  C   UNL     1      28.371  48.422  -8.145  0.00  0.00    +0.000 C 
ATOM     55  C   UNL     1      26.101  46.526  -7.969  0.00  0.00    +0.000 C 
ATOM     56  C   UNL     1      27.704  47.843  -9.390  0.00  0.00    +0.000 C 
ATOM     57  N   UNL     1      26.337  47.379  -9.145  0.00  0.00    +0.000 N 
ATOM     58  O   UNL     1      25.533  48.306 -11.127  0.00  0.00    +0.000 OA
BRANCH  56  59
ATOM     59  C   UNL     1      28.462  46.673  -9.952  0.00  0.00    +0.000 C 
ATOM     60  N   UNL     1      29.441  47.022 -10.862  0.00  0.00    +0.000 N 
ATOM     61  O   UNL     1      28.179  45.538  -9.586  0.00  0.00    +0.000 OA
ATOM     62  H   UNL     1      29.568  47.975 -11.071  0.00  0.00    +0.000 HD
BRANCH  60  72
ATOM     63  C   UNL     1      31.367  47.508 -15.446  0.00  0.00    +0.000 A 
ATOM     64  C   UNL     1      30.075  47.059 -15.190  0.00  0.00    +0.000 A 
ATOM     65  C   UNL     1      32.325  47.483 -14.433  0.00  0.00    +0.000 A 
ATOM     66  C   UNL     1      29.741  46.584 -13.922  0.00  0.00    +0.000 A 
ATOM     67  C   UNL     1      32.000  47.016 -13.150  0.00  0.00    +0.000 A 
ATOM     68  C   UNL     1      30.696  46.552 -12.892  0.00  0.00    +0.000 A 
ATOM     69  C   UNL     1      33.082  46.964 -12.101  0.00  0.00    +0.000 C 
ATOM     70  C   UNL     1      32.547  46.796 -10.681  0.00  0.00    +0.000 C 
ATOM     71  C   UNL     1      31.488  45.698 -10.636  0.00  0.00    +0.000 C 
ATOM     72  C   UNL     1      30.289  46.053 -11.523  0.00  0.00    +0.000 C 
ENDBRANCH  60  72
ENDBRANCH  56  59
BRANCH  53  73
ATOM     73  C   UNL     1      24.035  46.913  -9.927  0.00  0.00    +0.000 C 
BRANCH  73  75
ATOM     74  C   UNL     1      22.405  48.151  -8.524  0.00  0.00    +0.000 C 
ATOM     75  N   UNL     1      23.055  47.976  -9.728  0.00  0.00    +0.000 N 
ATOM     76  O   UNL     1      22.567  47.462  -7.520  0.00  0.00    +0.000 OA
ATOM     77  H   UNL     1      22.852  48.585 -10.474  0.00  0.00    +0.000 HD
BRANCH  74  79
ATOM     78  C   UNL     1      22.105  50.603  -8.085  0.00  0.00    +0.000 C 
ATOM     79  C   UNL     1      21.442  49.323  -8.571  0.00  0.00    +0.000 C 
BRANCH  79  81
ATOM     80  C   UNL     1      19.495  47.835  -8.091  0.00  0.00    +0.000 C 
ATOM     81  N   UNL     1      20.255  49.053  -7.711  0.00  0.00    +0.000 N 
ATOM     82  H   UNL     1      20.575  48.944  -6.749  0.00  0.00    +0.000 HD
ATOM     83  H   UNL     1      19.621  49.844  -7.829  0.00  0.00    +0.000 HD
ENDBRANCH  79  81
ENDBRANCH  74  79
ENDBRANCH  73  75
BRANCH  73  87
ATOM     84  C   UNL     1      22.354  45.191 -10.861  0.00  0.00    +0.000 C 
ATOM     85  C   UNL     1      24.809  44.893 -11.249  0.00  0.00    +0.000 C 
ATOM     86  C   UNL     1      23.579  46.729 -12.407  0.00  0.00    +0.000 C 
ATOM     87  C   UNL     1      23.684  45.937 -11.085  0.00  0.00    +0.000 C 
ENDBRANCH  73  87
ENDBRANCH  53  73
ENDBRANCH  46  52
ENDBRANCH  45  46
ENDBRANCH   3  45
TORSDOF 19
