0000
                    3D
 Structure written by MMmdl.
145153  0  0  1  0            999 V2000
   37.3794   45.7783   -4.7590 C   0  0  0  0  0  0
   36.0056   45.7924   -4.8828 C   0  0  0  0  0  0
   12.8747   46.5101   -7.8201 C   0  0  0  0  0  0
   13.5033   48.5640   -6.7185 C   0  0  0  0  0  0
   38.0815   44.5933   -4.9131 C   0  0  0  0  0  0
   35.3195   44.6211   -5.1619 C   0  0  0  0  0  0
   28.0295   40.7801   -5.3001 C   0  0  0  0  0  0
   11.6020   46.6092   -7.2708 C   0  0  0  0  0  0
   12.2338   48.6616   -6.1648 C   0  0  0  0  0  0
   26.7894   40.6857   -4.6747 C   0  0  0  0  0  0
    8.6997   45.8321   -5.6271 C   0  0  0  0  0  0
    7.6442   45.0240   -6.0443 C   0  0  0  0  0  0
   27.5635   42.1486   -2.9319 C   0  0  0  0  0  0
    7.1314   46.5930   -7.8104 C   0  0  0  0  0  0
   23.6085   41.3462   -5.9446 C   0  0  0  0  0  0
   23.1257   43.9251   -5.3462 C   0  0  0  0  0  0
   13.8298   47.4950   -7.5609 C   0  0  0  0  0  0
   16.1421   48.4293   -8.6048 C   0  0  0  0  0  0
   37.4217   43.3857   -5.1941 C   0  0  0  0  0  0
   29.0593   41.5596   -4.7550 C   0  0  0  0  0  0
   35.9948   43.3962   -5.3225 C   0  0  0  0  0  0
   28.8216   42.2593   -3.5438 C   0  0  0  0  0  0
   11.2758   47.6955   -6.4425 C   0  0  0  0  0  0
   26.5568   41.3761   -3.4859 C   0  0  0  0  0  0
    8.9727   47.0222   -6.3017 C   0  0  0  0  0  0
    6.8574   45.4069   -7.1310 C   0  0  0  0  0  0
    8.1886   47.4030   -7.3977 C   0  0  0  0  0  0
   15.2049   47.3776   -8.1832 C   0  0  0  0  0  0
   23.7452   41.8340   -4.6382 C   0  0  0  0  0  0
   22.9834   43.4302   -6.6514 C   0  0  0  0  0  0
   17.2557   47.7007   -9.0900 C   0  0  0  0  0  0
   15.9516   49.8833   -8.5800 C   0  0  0  0  0  0
   32.7875   42.4218   -5.4348 C   0  0  0  0  0  0
   31.9717   44.2646   -3.1465 C   0  0  0  0  0  0
   30.1894   46.5007   -4.8119 C   0  0  0  0  0  0
   20.4804   43.1934   -8.5310 C   0  0  0  0  0  0
   38.2049   42.0790   -5.3547 C   0  0  0  0  0  0
   30.4146   41.6750   -5.4464 C   0  0  0  0  0  0
   29.9237   43.1063   -2.9161 C   0  0  0  0  0  0
   37.4456   40.9695   -6.0800 C   0  0  0  0  0  0
   17.6878   42.8700  -10.4086 C   0  0  0  0  0  0
   36.0756   40.8096   -5.4432 C   0  0  0  0  0  0
   16.9213   44.1724  -10.1235 C   0  0  0  0  0  0
   18.2636   42.2620   -9.1171 C   0  0  0  0  0  0
   18.4357   44.5921   -8.0552 C   0  0  0  0  0  0
   35.2261   42.0802   -5.6342 C   0  0  1  0  0  0
   31.5488   42.2026   -4.5249 C   0  0  2  0  0  0
   17.7585   45.2155   -9.3181 C   0  0  2  0  0  0
   28.2034   45.5511   -6.1025 C   0  0  0  0  0  0
   32.9199   45.9726   -0.6513 C   0  0  0  0  0  0
   31.1685   47.6564   -1.1854 C   0  0  0  0  0  0
   30.4965   45.3500   -0.4798 C   0  0  0  0  0  0
   27.6167   48.4312   -6.9654 C   0  0  0  0  0  0
   24.1330   40.9017   -3.4968 C   0  0  0  0  0  0
   22.5102   44.3361   -7.7866 C   0  0  0  0  0  0
   31.5230   45.7293   -2.8363 C   0  0  2  0  0  0
   28.7592   46.7689   -5.3276 C   0  0  2  0  0  0
   31.5270   46.1512   -1.3103 C   0  0  0  0  0  0
   23.5312   43.1416   -4.3034 N   0  0  0  0  0  0
   23.2460   42.1350   -6.9876 N   0  0  0  0  0  0
   15.7340   46.1812   -8.4346 N   0  0  0  0  0  0
   16.9266   46.3943   -8.9463 N   0  0  0  0  0  0
   31.1059   43.3900   -3.7403 N   0  0  0  0  0  0
   19.0697   43.3255   -8.5119 N   0  0  0  0  0  0
   18.4611   48.0858   -9.6365 N   0  0  0  0  0  0
   17.0469   50.5803   -8.8152 N   0  0  0  0  0  0
   33.9331   41.9058   -4.9522 N   0  0  0  0  0  0
   30.2831   46.1015   -3.5321 N   0  0  0  0  0  0
   28.8768   48.0054   -6.1874 N   0  3  0  0  0  0
   14.8629   50.3986   -8.3686 O   0  0  0  0  0  0
   32.6844   43.0511   -6.4882 O   0  0  0  0  0  0
   33.1401   43.9769   -2.8926 O   0  0  0  0  0  0
   31.1589   46.6639   -5.5579 O   0  0  0  0  0  0
   21.1020   42.2318   -8.9931 O   0  0  0  0  0  0
   10.0131   47.8159   -5.8878 O   0  0  0  0  0  0
   25.3346   41.3062   -2.8378 O   0  0  0  0  0  0
   21.0859   44.2789   -7.9601 O   0  0  0  0  0  0
    5.8280   44.6279   -7.5234 F   0  0  0  0  0  0
    8.4520   48.5555   -8.0532 F   0  0  0  0  0  0
   37.9105   46.6946   -4.5406 H   0  0  0  0  0  0
   35.4620   46.7194   -4.7612 H   0  0  0  0  0  0
   13.1189   45.6719   -8.4609 H   0  0  0  0  0  0
   14.2418   49.3127   -6.4791 H   0  0  0  0  0  0
   39.1571   44.6001   -4.8115 H   0  0  0  0  0  0
   34.2463   44.6550   -5.2541 H   0  0  0  0  0  0
   28.1983   40.2436   -6.2293 H   0  0  0  0  0  0
   10.8682   45.8500   -7.4857 H   0  0  0  0  0  0
   11.9919   49.4914   -5.5183 H   0  0  0  0  0  0
   26.0180   40.0768   -5.1119 H   0  0  0  0  0  0
    9.3055   45.5385   -4.7810 H   0  0  0  0  0  0
    7.4271   44.1052   -5.5152 H   0  0  0  0  0  0
   27.3731   42.6763   -2.0094 H   0  0  0  0  0  0
    6.5230   46.8867   -8.6557 H   0  0  0  0  0  0
   23.7881   40.3029   -6.1679 H   0  0  0  0  0  0
   22.9122   44.9575   -5.1202 H   0  0  0  0  0  0
   39.1334   42.2771   -5.8931 H   0  0  0  0  0  0
   38.4949   41.7352   -4.3600 H   0  0  0  0  0  0
   30.2777   42.3494   -6.2954 H   0  0  0  0  0  0
   30.7114   40.7040   -5.8535 H   0  0  0  0  0  0
   30.2608   42.5877   -2.0167 H   0  0  0  0  0  0
   29.4597   44.0208   -2.5488 H   0  0  0  0  0  0
   38.0079   40.0368   -6.0234 H   0  0  0  0  0  0
   37.3508   41.2077   -7.1401 H   0  0  0  0  0  0
   18.4953   43.0652  -11.1178 H   0  0  0  0  0  0
   17.0271   42.1469  -10.8891 H   0  0  0  0  0  0
   35.5556   39.9506   -5.8669 H   0  0  0  0  0  0
   36.1900   40.5913   -4.3811 H   0  0  0  0  0  0
   15.9977   43.9167   -9.6004 H   0  0  0  0  0  0
   16.6300   44.6098  -11.0692 H   0  0  0  0  0  0
   17.4624   41.9958   -8.4286 H   0  0  0  0  0  0
   18.8292   41.3543   -9.3278 H   0  0  0  0  0  0
   17.6705   44.3420   -7.3196 H   0  0  0  0  0  0
   19.1014   45.3107   -7.5765 H   0  0  0  0  0  0
   35.0266   42.1281   -6.7102 H   0  0  0  0  0  0
   31.8171   41.4299   -3.8037 H   0  0  0  0  0  0
   18.5569   45.5446   -9.9830 H   0  0  0  0  0  0
   27.1800   45.7182   -6.4370 H   0  0  0  0  0  0
   28.1736   44.6622   -5.4699 H   0  0  0  0  0  0
   28.8062   45.3109   -6.9796 H   0  0  0  0  0  0
   32.9474   46.3841    0.3593 H   0  0  0  0  0  0
   33.7062   46.4666   -1.2242 H   0  0  0  0  0  0
   33.1985   44.9248   -0.5514 H   0  0  0  0  0  0
   31.1921   48.0003   -0.1497 H   0  0  0  0  0  0
   30.1686   47.8765   -1.5541 H   0  0  0  0  0  0
   31.8630   48.2803   -1.7502 H   0  0  0  0  0  0
   30.4942   45.6726    0.5615 H   0  0  0  0  0  0
   30.7227   44.2821   -0.4695 H   0  0  0  0  0  0
   29.4789   45.4877   -0.8475 H   0  0  0  0  0  0
   27.7923   49.4499   -7.3239 H   0  0  0  0  0  0
   26.7640   48.3966   -6.2797 H   0  0  0  0  0  0
   27.4945   47.7375   -7.8017 H   0  0  0  0  0  0
   24.2021   39.8616   -3.8192 H   0  0  0  0  0  0
   23.3314   40.9353   -2.7585 H   0  0  0  0  0  0
   22.7932   45.3639   -7.5683 H   0  0  0  0  0  0
   23.0226   44.0713   -8.7153 H   0  0  0  0  0  0
   32.3139   46.3322   -3.2939 H   0  0  0  0  0  0
   28.0921   47.0396   -4.5046 H   0  0  0  0  0  0
   18.6826   49.0528   -9.8226 H   0  0  0  0  0  0
   19.1473   47.4093   -9.9322 H   0  0  0  0  0  0
   17.0132   51.5885   -8.8584 H   0  0  0  0  0  0
   17.9189   50.1124   -8.9759 H   0  0  0  0  0  0
   33.9395   41.4486   -4.0529 H   0  0  0  0  0  0
   29.4380   46.0097   -2.9853 H   0  0  0  0  0  0
   29.1511   48.7576   -5.5672 H   0  0  0  0  0  0
   29.6552   47.8430   -6.8196 H   0  0  0  0  0  0
  1  2  1  0  0  0
  1  5  2  0  0  0
  1 80  1  0  0  0
  2  6  2  0  0  0
  2 81  1  0  0  0
  3  8  2  0  0  0
  3 17  1  0  0  0
  3 82  1  0  0  0
  4  9  1  0  0  0
  4 17  2  0  0  0
  4 83  1  0  0  0
  5 19  1  0  0  0
  5 84  1  0  0  0
  6 21  1  0  0  0
  6 85  1  0  0  0
  7 10  2  0  0  0
  7 20  1  0  0  0
  7 86  1  0  0  0
  8 23  1  0  0  0
  8 87  1  0  0  0
  9 23  2  0  0  0
  9 88  1  0  0  0
 10 24  1  0  0  0
 10 89  1  0  0  0
 11 12  2  0  0  0
 11 25  1  0  0  0
 11 90  1  0  0  0
 12 26  1  0  0  0
 12 91  1  0  0  0
 13 22  1  0  0  0
 13 24  2  0  0  0
 13 92  1  0  0  0
 14 26  2  0  0  0
 14 27  1  0  0  0
 14 93  1  0  0  0
 15 29  1  0  0  0
 15 60  2  0  0  0
 15 94  1  0  0  0
 16 30  2  0  0  0
 16 59  1  0  0  0
 16 95  1  0  0  0
 17 28  1  0  0  0
 18 28  1  0  0  0
 18 31  2  0  0  0
 18 32  1  0  0  0
 19 21  2  0  0  0
 19 37  1  0  0  0
 20 22  2  0  0  0
 20 38  1  0  0  0
 21 46  1  0  0  0
 22 39  1  0  0  0
 23 75  1  0  0  0
 24 76  1  0  0  0
 25 27  2  0  0  0
 25 75  1  0  0  0
 26 78  1  0  0  0
 27 79  1  0  0  0
 28 61  2  0  0  0
 29 54  1  0  0  0
 29 59  2  0  0  0
 30 55  1  0  0  0
 30 60  1  0  0  0
 31 62  1  0  0  0
 31 65  1  0  0  0
 32 66  1  0  0  0
 32 70  2  0  0  0
 33 47  1  0  0  0
 33 67  1  0  0  0
 33 71  2  0  0  0
 34 56  1  0  0  0
 34 63  1  0  0  0
 34 72  2  0  0  0
 35 57  1  0  0  0
 35 68  1  0  0  0
 35 73  2  0  0  0
 36 64  1  0  0  0
 36 74  2  0  0  0
 36 77  1  0  0  0
 37 40  1  0  0  0
 37 96  1  0  0  0
 37 97  1  0  0  0
 38 47  1  0  0  0
 38 98  1  0  0  0
 38 99  1  0  0  0
 39 63  1  0  0  0
 39100  1  0  0  0
 39101  1  0  0  0
 40 42  1  0  0  0
 40102  1  0  0  0
 40103  1  0  0  0
 41 43  1  0  0  0
 41 44  1  0  0  0
 41104  1  0  0  0
 41105  1  0  0  0
 42 46  1  0  0  0
 42106  1  0  0  0
 42107  1  0  0  0
 43 48  1  0  0  0
 43108  1  0  0  0
 43109  1  0  0  0
 44 64  1  0  0  0
 44110  1  0  0  0
 44111  1  0  0  0
 45 48  1  0  0  0
 45 64  1  0  0  0
 45112  1  0  0  0
 45113  1  0  0  0
 46 67  1  0  0  0
 46114  1  0  0  0
 47 63  1  0  0  0
 47115  1  0  0  0
 48 62  1  0  0  0
 48116  1  0  0  0
 49 57  1  0  0  0
 49117  1  0  0  0
 49118  1  0  0  0
 49119  1  0  0  0
 50 58  1  0  0  0
 50120  1  0  0  0
 50121  1  0  0  0
 50122  1  0  0  0
 51 58  1  0  0  0
 51123  1  0  0  0
 51124  1  0  0  0
 51125  1  0  0  0
 52 58  1  0  0  0
 52126  1  0  0  0
 52127  1  0  0  0
 52128  1  0  0  0
 53 69  1  0  0  0
 53129  1  0  0  0
 53130  1  0  0  0
 53131  1  0  0  0
 54 76  1  0  0  0
 54132  1  0  0  0
 54133  1  0  0  0
 55 77  1  0  0  0
 55134  1  0  0  0
 55135  1  0  0  0
 56 58  1  0  0  0
 56 68  1  0  0  0
 56136  1  0  0  0
 57 69  1  0  0  0
 57137  1  0  0  0
 61 62  1  0  0  0
 65138  1  0  0  0
 65139  1  0  0  0
 66140  1  0  0  0
 66141  1  0  0  0
 67142  1  0  0  0
 68143  1  0  0  0
 69144  1  0  0  0
 69145  1  0  0  0
M  CHG  1  69   1
M  END
> <s_m_entry_id>
22

> <s_m_entry_name>
0000.1

> <s_m_Source_Path>
/mnt/home/boqing/Schrodinger_Projects/6W7O

> <s_m_Source_File>
0000.sdf

> <i_m_Source_File_Index>
1

> <s_m_job_name>
glide-dock_SP_0000_h

> <s_i_glide_gridfile>
glide-grid_crystal_ligand

> <i_i_glide_lignum>
1

> <i_i_glide_rotatable_bonds>
22

> <r_i_docking_score>
-4.6892109923164

> <r_i_glide_ligand_efficiency>
-0.059357101168562

> <r_i_glide_ligand_efficiency_sa>
-0.254691848954196

> <r_i_glide_ligand_efficiency_ln>
-0.873313443236425

> <r_i_glide_gscore>
-4.6892109923164

> <r_i_glide_evdw>
-52.6829528808594

> <r_i_glide_ecoul>
-2.53893280029297

> <r_i_glide_energy>
-55.2218856811523

> <r_i_glide_einternal>
17.9519348144531

> <r_i_glide_emodel>
-54.0722406489637

> <r_i_glide_intrahb_reward>
0

> <i_i_glide_confnum>
89

> <i_i_glide_posenum>
373

> <r_i_glide_eff_state_penalty>
0

> <Batch ID>
0

> <Smiles>
CN[C@@H](C)C(=O)N[C@H](C(=O)N1Cc2c[101c]([100O]Cc3cnc(C[101O][100C](=O)N4CCC[C@@H](n5nc(-c6ccc(Oc7ccc(F)cc7F)cc6)c(C(N)=O)c5N)C4)cn3)ccc2C[C@H]1C(=O)N[C@@H]1CCCc2ccccc21)C(C)(C)C

> <Shape>
0.265

> <Color>
0.188

> <Negative vol penalty>
0

> <chiral flag>
1

> <version>
0

> <r_i_glide_lipo>
-1.09335018159554

> <r_i_glide_hbond>
-0.0656536516998238

> <r_i_glide_metal>
0

> <r_i_glide_rewards>
-0.402954147794462

> <r_i_glide_erotb>
0.140229181527822

> <r_i_glide_esite>
-0.252494628667481

> <s_m_subgroup_title>
glide-dock_SP_0000_h_pv1

> <s_m_subgroupid>
glide-dock_SP_0000_h_pv1

> <b_m_subgroup_collapsed>
0

$$$$
