=
                    3D
 Structure written by MMmdl.
 86 94  0  0  1  0            999 V2000
   21.3840   42.0170   -4.5670 C   0  0  0  0  0  0
   21.3760   40.0260   -2.7880 C   0  0  0  0  0  0
   22.4890   41.2110   -4.3970 C   0  0  0  0  0  0
   20.2720   40.8330   -2.9570 C   0  0  0  0  0  0
   22.5050   40.2010   -3.5050 N   0  0  0  0  0  0
   20.2560   41.8430   -3.8490 N   0  0  0  0  0  0
   19.0440   40.6110   -2.1460 C   0  0  0  0  0  0
   17.9090   40.5160   -3.0140 O   0  0  0  0  0  0
   17.2860   39.2960   -3.0630 C   0  0  0  0  0  0
   16.2340   37.2260   -5.8170 C   0  0  0  0  0  0
   16.0880   38.2230   -6.9650 C   0  0  0  0  0  0
   15.8490   37.8520   -4.4790 C   0  0  0  0  0  0
   16.4580   40.1090   -5.3120 C   0  0  0  0  0  0
   16.8660   39.5190   -6.6740 C   0  0  2  0  0  0
   16.5770   39.1000   -4.2520 N   0  0  0  0  0  0
   17.3520   38.4740   -2.1510 O   0  0  0  0  0  0
   16.9620   41.6890   -9.6310 C   0  0  0  0  0  0
   15.8950   42.1560   -8.8390 C   0  0  0  0  0  0
   17.4760   40.6290   -8.9230 C   0  0  0  0  0  0
   15.7400   41.4510   -7.7150 N   0  0  0  0  0  0
   16.7160   40.5300   -7.7950 N   0  0  0  0  0  0
   15.4120   44.5640   -8.8220 C   0  0  0  0  0  0
   13.7720   43.0280   -9.7130 C   0  0  0  0  0  0
   14.5610   45.6330   -9.1020 C   0  0  0  0  0  0
   12.9220   44.0970   -9.9930 C   0  0  0  0  0  0
   15.0170   43.2610   -9.1270 C   0  0  0  0  0  0
   13.3160   45.4010   -9.6880 C   0  0  0  0  0  0
   12.4870   46.4440   -9.9600 O   0  0  0  0  0  0
   12.6170   48.5930   -8.8840 C   0  0  0  0  0  0
   12.2710   49.4380   -7.8290 C   0  0  0  0  0  0
   10.9750   47.6600   -6.8310 C   0  0  0  0  0  0
   12.1420   47.2820   -8.9130 C   0  0  0  0  0  0
   11.4500   48.9710   -6.8020 C   0  0  0  0  0  0
   11.3200   46.8150   -7.8870 C   0  0  0  0  0  0
   11.1190   49.7810   -5.7890 F   0  0  0  0  0  0
   10.8610   45.5560   -7.9070 F   0  0  0  0  0  0
   17.4460   42.1700  -10.8920 C   0  0  0  0  0  0
   16.5590   42.2050  -11.9780 N   0  0  0  0  0  0
   18.6330   42.5420  -11.0560 O   0  0  0  0  0  0
   15.6260   41.9150  -11.8600 H   0  0  0  0  0  0
   16.8710   42.5180  -12.8570 H   0  0  0  0  0  0
   18.5000   39.7830   -9.1640 N   0  0  0  0  0  0
   19.1670   39.9990   -9.8550 H   0  0  0  0  0  0
   18.5800   38.9490   -8.6460 H   0  0  0  0  0  0
   23.7270   41.4340   -5.2140 C   0  0  0  0  0  0
   23.4770   41.0290   -6.5600 O   0  0  0  0  0  0
   22.7350   42.9350   -9.5880 C   0  0  0  0  0  0
   22.6740   41.9450   -8.6100 C   0  0  0  0  0  0
   24.4570   43.0340   -7.4060 C   0  0  0  0  0  0
   23.6520   43.9910   -9.4780 C   0  0  0  0  0  0
   24.5300   44.0350   -8.3870 C   0  0  0  0  0  0
   23.5340   41.9950   -7.5170 C   0  0  0  0  0  0
   26.6950   46.9670   -9.5290 C   0  0  0  0  0  0
   23.7140   45.0370  -10.5560 C   0  0  0  0  0  0
   25.5450   45.1360   -8.2290 C   0  0  0  0  0  0
   24.3830   46.3350  -10.1100 C   0  0  2  0  0  0
   25.6020   46.1120   -9.3290 N   0  0  0  0  0  0
   26.7720   47.7930  -10.4410 O   0  0  0  0  0  0
   23.4770   47.1820   -9.2620 C   0  0  0  0  0  0
   22.3650   46.5140   -8.7850 N   0  0  0  0  0  0
   23.7650   48.3550   -9.0550 O   0  0  0  0  0  0
   22.2490   45.5670   -9.0260 H   0  0  0  0  0  0
   17.8730   48.0710  -10.3200 C   0  0  0  0  0  0
   19.0430   48.8110  -10.4650 C   0  0  0  0  0  0
   17.8220   47.0250   -9.3990 C   0  0  0  0  0  0
   20.1610   48.5060   -9.6880 C   0  0  0  0  0  0
   18.9420   46.7020   -8.6180 C   0  0  0  0  0  0
   20.1230   47.4560   -8.7560 C   0  0  0  0  0  0
   18.8230   45.5930   -7.6020 C   0  0  0  0  0  0
   20.1700   45.0930   -7.0850 C   0  0  0  0  0  0
   21.0720   46.2690   -6.7210 C   0  0  0  0  0  0
   21.3630   47.1400   -7.9490 C   0  0  1  0  0  0
   27.8400   46.8330   -8.5540 C   0  0  1  0  0  0
   29.6130   45.7440   -9.9050 C   0  0  0  0  0  0
   29.0620   46.8800   -9.3490 N   0  0  0  0  0  0
   29.1590   44.6070   -9.8010 O   0  0  0  0  0  0
   29.5070   47.7460   -9.4920 H   0  0  0  0  0  0
   31.3210   47.4940  -10.4640 C   0  0  0  0  0  0
   30.8760   46.0570  -10.6860 C   0  0  2  0  0  0
   29.8530   46.9360  -12.7880 C   0  0  0  0  0  0
   30.6450   45.8570  -12.1450 N   0  0  0  0  0  0
   30.1040   44.9970  -12.2420 H   0  0  0  0  0  0
   27.1090   47.3680   -6.1360 C   0  0  0  0  0  0
   27.0030   49.1370   -7.9050 C   0  0  0  0  0  0
   29.2150   48.3460   -7.0660 C   0  0  0  0  0  0
   27.7810   47.8950   -7.4200 C   0  0  0  0  0  0
  1  3  2  0  0  0
  1  6  1  0  0  0
  2  4  1  0  0  0
  2  5  2  0  0  0
  3  5  1  0  0  0
  3 45  1  0  0  0
  4  7  1  0  0  0
  4  6  2  0  0  0
  7  8  1  0  0  0
  8  9  1  0  0  0
  9 16  2  0  0  0
  9 15  1  0  0  0
 10 12  1  0  0  0
 10 11  1  0  0  0
 11 14  1  0  0  0
 12 15  1  0  0  0
 13 15  1  0  0  0
 13 14  1  0  0  0
 14 21  1  0  0  0
 17 19  2  0  0  0
 17 18  1  0  0  0
 17 37  1  0  0  0
 18 20  2  0  0  0
 18 26  1  0  0  0
 19 21  1  0  0  0
 19 42  1  0  0  0
 20 21  1  0  0  0
 22 24  1  0  0  0
 22 26  2  0  0  0
 23 26  1  0  0  0
 23 25  2  0  0  0
 24 27  2  0  0  0
 25 27  1  0  0  0
 27 28  1  0  0  0
 28 32  1  0  0  0
 29 30  1  0  0  0
 29 32  2  0  0  0
 30 33  2  0  0  0
 31 33  1  0  0  0
 31 34  2  0  0  0
 32 34  1  0  0  0
 33 35  1  0  0  0
 34 36  1  0  0  0
 37 38  1  0  0  0
 37 39  2  0  0  0
 38 40  1  0  0  0
 38 41  1  0  0  0
 42 44  1  0  0  0
 42 43  1  0  0  0
 45 46  1  0  0  0
 46 52  1  0  0  0
 47 50  2  0  0  0
 47 48  1  0  0  0
 48 52  2  0  0  0
 49 51  2  0  0  0
 49 52  1  0  0  0
 50 51  1  0  0  0
 50 54  1  0  0  0
 51 55  1  0  0  0
 53 57  1  0  0  0
 53 58  2  0  0  0
 53 73  1  0  0  0
 54 56  1  0  0  0
 55 57  1  0  0  0
 56 57  1  0  0  0
 56 59  1  0  0  0
 59 61  2  0  0  0
 59 60  1  0  0  0
 60 62  1  0  0  0
 60 72  1  0  0  0
 63 65  1  0  0  0
 63 64  2  0  0  0
 64 66  1  0  0  0
 65 67  2  0  0  0
 66 68  2  0  0  0
 67 69  1  0  0  0
 67 68  1  0  0  0
 68 72  1  0  0  0
 69 70  1  0  0  0
 70 71  1  0  0  0
 71 72  1  0  0  0
 73 86  1  0  0  0
 73 75  1  0  0  0
 74 76  2  0  0  0
 74 75  1  0  0  0
 74 79  1  0  0  0
 75 77  1  0  0  0
 78 79  1  0  0  0
 79 81  1  0  0  0
 80 81  1  0  0  0
 81 82  1  0  0  0
 83 86  1  0  0  0
 84 86  1  0  0  0
 85 86  1  0  0  0
M  END
> <s_m_entry_id>
5

> <s_m_entry_name>
0000_ADV_out_mae.1

> <MODEL>
1

> <REMARK>
 VINA RESULT:   -11.261      0.000      0.000
 INTER + INTRA:         -27.275
 INTER:                 -22.207
 INTRA:                  -5.068
 UNBOUND:                -3.835
  Name = 
  24 active torsions:
  status: ('A' for Active; 'I' for Inactive)
    1  A    between atoms: C_17  and  C_28
    2  A    between atoms: C_18  and  C_32
    3  A    between atoms: C_23  and  O_75
    4  A    between atoms: C_24  and  O_76
    5  A    between atoms: C_25  and  O_75
    6  A    between atoms: C_29  and  C_54
    7  A    between atoms: C_30  and  C_55
    8  A    between atoms: C_31  and  N_65
    9  A    between atoms: C_33  and  C_47
   10  A    between atoms: C_34  and  C_56
   11  A    between atoms: C_35  and  C_57
   12  A    between atoms: C_36  and  O_77
   13  A    between atoms: C_46  and  N_67
   14  A    between atoms: C_48  and  N_62
   15  A    between atoms: C_49  and  C_57
   16  A    between atoms: C_50  and  C_58
   17  A    between atoms: C_51  and  C_58
   18  A    between atoms: C_52  and  C_58
   19  A    between atoms: C_53  and  N_69
   20  A    between atoms: C_54  and  O_76
   21  A    between atoms: C_55  and  O_77
   22  A    between atoms: C_56  and  C_58
   23  A    between atoms: C_56  and  N_68
   24  A    between atoms: C_57  and  N_69
                            x       y       z     vdW  Elec       q    Type
                         _______ _______ _______ _____ _____    ______ ____

> <TORSDO>
F 19

> <chiral flag>
1

> <version>
0

> <chiral flag>
1

> <s_m_Source_Path>
/data/baiqing/PycharmProjects/DockStream-master/result/6W7O

> <s_m_Source_File>
0000_ADV_out_mae.sdf

> <i_m_Source_File_Index>
1

> <s_m_subgroup_title>
0000_ADV_out_mae

> <s_m_subgroupid>
0000_ADV_out_mae-imp2

> <b_m_subgroup_collapsed>
0

$$$$
