MODEL 1
REMARK VINA RESULT:   -11.261      0.000      0.000
REMARK INTER + INTRA:         -27.275
REMARK INTER:                 -22.207
REMARK INTRA:                  -5.068
REMARK UNBOUND:                -3.835
REMARK  Name = 
REMARK  24 active torsions:
REMARK  status: ('A' for Active; 'I' for Inactive)
REMARK    1  A    between atoms: C_17  and  C_28
REMARK    2  A    between atoms: C_18  and  C_32
REMARK    3  A    between atoms: C_23  and  O_75
REMARK    4  A    between atoms: C_24  and  O_76
REMARK    5  A    between atoms: C_25  and  O_75
REMARK    6  A    between atoms: C_29  and  C_54
REMARK    7  A    between atoms: C_30  and  C_55
REMARK    8  A    between atoms: C_31  and  N_65
REMARK    9  A    between atoms: C_33  and  C_47
REMARK   10  A    between atoms: C_34  and  C_56
REMARK   11  A    between atoms: C_35  and  C_57
REMARK   12  A    between atoms: C_36  and  O_77
REMARK   13  A    between atoms: C_46  and  N_67
REMARK   14  A    between atoms: C_48  and  N_62
REMARK   15  A    between atoms: C_49  and  C_57
REMARK   16  A    between atoms: C_50  and  C_58
REMARK   17  A    between atoms: C_51  and  C_58
REMARK   18  A    between atoms: C_52  and  C_58
REMARK   19  A    between atoms: C_53  and  N_69
REMARK   20  A    between atoms: C_54  and  O_76
REMARK   21  A    between atoms: C_55  and  O_77
REMARK   22  A    between atoms: C_56  and  C_58
REMARK   23  A    between atoms: C_56  and  N_68
REMARK   24  A    between atoms: C_57  and  N_69
REMARK                            x       y       z     vdW  Elec       q    Type
REMARK                         _______ _______ _______ _____ _____    ______ ____
ROOT
ATOM      1  C   UNL     1      21.384  42.017  -4.567  0.00  0.00    +0.000 A 
ATOM      2  C   UNL     1      21.376  40.026  -2.788  0.00  0.00    +0.000 A 
ATOM      3  C   UNL     1      22.489  41.211  -4.397  0.00  0.00    +0.000 A 
ATOM      4  C   UNL     1      20.272  40.833  -2.957  0.00  0.00    +0.000 A 
ATOM      5  N   UNL     1      22.505  40.201  -3.505  0.00  0.00    +0.000 NA
ATOM      6  N   UNL     1      20.256  41.843  -3.849  0.00  0.00    +0.000 NA
ENDROOT
BRANCH   4   7
ATOM      7  C   UNL     1      19.044  40.611  -2.146  0.00  0.00    +0.000 C 
BRANCH   7   8
ATOM      8  O   UNL     1      17.909  40.516  -3.014  0.00  0.00    +0.000 OA
BRANCH   8   9
ATOM      9  C   UNL     1      17.286  39.296  -3.063  0.00  0.00    +0.000 C 
ATOM     10  C   UNL     1      16.234  37.226  -5.817  0.00  0.00    +0.000 C 
ATOM     11  C   UNL     1      16.088  38.223  -6.965  0.00  0.00    +0.000 C 
ATOM     12  C   UNL     1      15.849  37.852  -4.479  0.00  0.00    +0.000 C 
ATOM     13  C   UNL     1      16.458  40.109  -5.312  0.00  0.00    +0.000 C 
ATOM     14  C   UNL     1      16.866  39.519  -6.674  0.00  0.00    +0.000 C 
ATOM     15  N   UNL     1      16.577  39.100  -4.252  0.00  0.00    +0.000 N 
ATOM     16  O   UNL     1      17.352  38.474  -2.151  0.00  0.00    +0.000 OA
BRANCH  14  21
ATOM     17  C   UNL     1      16.962  41.689  -9.631  0.00  0.00    +0.000 A 
ATOM     18  C   UNL     1      15.895  42.156  -8.839  0.00  0.00    +0.000 A 
ATOM     19  C   UNL     1      17.476  40.629  -8.923  0.00  0.00    +0.000 A 
ATOM     20  N   UNL     1      15.740  41.451  -7.715  0.00  0.00    +0.000 NA
ATOM     21  N   UNL     1      16.716  40.530  -7.795  0.00  0.00    +0.000 N 
BRANCH  18  26
ATOM     22  C   UNL     1      15.412  44.564  -8.822  0.00  0.00    +0.000 A 
ATOM     23  C   UNL     1      13.772  43.028  -9.713  0.00  0.00    +0.000 A 
ATOM     24  C   UNL     1      14.561  45.633  -9.102  0.00  0.00    +0.000 A 
ATOM     25  C   UNL     1      12.922  44.097  -9.993  0.00  0.00    +0.000 A 
ATOM     26  C   UNL     1      15.017  43.261  -9.127  0.00  0.00    +0.000 A 
ATOM     27  C   UNL     1      13.316  45.401  -9.688  0.00  0.00    +0.000 A 
BRANCH  27  28
ATOM     28  O   UNL     1      12.487  46.444  -9.960  0.00  0.00    +0.000 OA
BRANCH  28  32
ATOM     29  C   UNL     1      12.617  48.593  -8.884  0.00  0.00    +0.000 A 
ATOM     30  C   UNL     1      12.271  49.438  -7.829  0.00  0.00    +0.000 A 
ATOM     31  C   UNL     1      10.975  47.660  -6.831  0.00  0.00    +0.000 A 
ATOM     32  C   UNL     1      12.142  47.282  -8.913  0.00  0.00    +0.000 A 
ATOM     33  C   UNL     1      11.450  48.971  -6.802  0.00  0.00    +0.000 A 
ATOM     34  C   UNL     1      11.320  46.815  -7.887  0.00  0.00    +0.000 A 
ATOM     35  F   UNL     1      11.119  49.781  -5.789  0.00  0.00    +0.000 F 
ATOM     36  F   UNL     1      10.861  45.556  -7.907  0.00  0.00    +0.000 F 
ENDBRANCH  28  32
ENDBRANCH  27  28
ENDBRANCH  18  26
BRANCH  17  37
ATOM     37  C   UNL     1      17.446  42.170 -10.892  0.00  0.00    +0.000 C 
ATOM     38  N   UNL     1      16.559  42.205 -11.978  0.00  0.00    +0.000 N 
ATOM     39  O   UNL     1      18.633  42.542 -11.056  0.00  0.00    +0.000 OA
ATOM     40  H   UNL     1      15.626  41.915 -11.860  0.00  0.00    +0.000 HD
ATOM     41  H   UNL     1      16.871  42.518 -12.857  0.00  0.00    +0.000 HD
ENDBRANCH  17  37
BRANCH  19  42
ATOM     42  N   UNL     1      18.500  39.783  -9.164  0.00  0.00    +0.000 N 
ATOM     43  H   UNL     1      19.167  39.999  -9.855  0.00  0.00    +0.000 HD
ATOM     44  H   UNL     1      18.580  38.949  -8.646  0.00  0.00    +0.000 HD
ENDBRANCH  19  42
ENDBRANCH  14  21
ENDBRANCH   8   9
ENDBRANCH   7   8
ENDBRANCH   4   7
BRANCH   3  45
ATOM     45  C   UNL     1      23.727  41.434  -5.214  0.00  0.00    +0.000 C 
BRANCH  45  46
ATOM     46  O   UNL     1      23.477  41.029  -6.560  0.00  0.00    +0.000 OA
BRANCH  46  52
ATOM     47  C   UNL     1      22.735  42.935  -9.588  0.00  0.00    +0.000 A 
ATOM     48  C   UNL     1      22.674  41.945  -8.610  0.00  0.00    +0.000 A 
ATOM     49  C   UNL     1      24.457  43.034  -7.406  0.00  0.00    +0.000 A 
ATOM     50  C   UNL     1      23.652  43.991  -9.478  0.00  0.00    +0.000 A 
ATOM     51  C   UNL     1      24.530  44.035  -8.387  0.00  0.00    +0.000 A 
ATOM     52  C   UNL     1      23.534  41.995  -7.517  0.00  0.00    +0.000 A 
ATOM     53  C   UNL     1      26.695  46.967  -9.529  0.00  0.00    +0.000 C 
ATOM     54  C   UNL     1      23.714  45.037 -10.556  0.00  0.00    +0.000 C 
ATOM     55  C   UNL     1      25.545  45.136  -8.229  0.00  0.00    +0.000 C 
ATOM     56  C   UNL     1      24.383  46.335 -10.110  0.00  0.00    +0.000 C 
ATOM     57  N   UNL     1      25.602  46.112  -9.329  0.00  0.00    +0.000 N 
ATOM     58  O   UNL     1      26.772  47.793 -10.441  0.00  0.00    +0.000 OA
BRANCH  56  59
ATOM     59  C   UNL     1      23.477  47.182  -9.262  0.00  0.00    +0.000 C 
ATOM     60  N   UNL     1      22.365  46.514  -8.785  0.00  0.00    +0.000 N 
ATOM     61  O   UNL     1      23.765  48.355  -9.055  0.00  0.00    +0.000 OA
ATOM     62  H   UNL     1      22.249  45.567  -9.026  0.00  0.00    +0.000 HD
BRANCH  60  72
ATOM     63  C   UNL     1      17.873  48.071 -10.320  0.00  0.00    +0.000 A 
ATOM     64  C   UNL     1      19.043  48.811 -10.465  0.00  0.00    +0.000 A 
ATOM     65  C   UNL     1      17.822  47.025  -9.399  0.00  0.00    +0.000 A 
ATOM     66  C   UNL     1      20.161  48.506  -9.688  0.00  0.00    +0.000 A 
ATOM     67  C   UNL     1      18.942  46.702  -8.618  0.00  0.00    +0.000 A 
ATOM     68  C   UNL     1      20.123  47.456  -8.756  0.00  0.00    +0.000 A 
ATOM     69  C   UNL     1      18.823  45.593  -7.602  0.00  0.00    +0.000 C 
ATOM     70  C   UNL     1      20.170  45.093  -7.085  0.00  0.00    +0.000 C 
ATOM     71  C   UNL     1      21.072  46.269  -6.721  0.00  0.00    +0.000 C 
ATOM     72  C   UNL     1      21.363  47.140  -7.949  0.00  0.00    +0.000 C 
ENDBRANCH  60  72
ENDBRANCH  56  59
BRANCH  53  73
ATOM     73  C   UNL     1      27.840  46.833  -8.554  0.00  0.00    +0.000 C 
BRANCH  73  75
ATOM     74  C   UNL     1      29.613  45.744  -9.905  0.00  0.00    +0.000 C 
ATOM     75  N   UNL     1      29.062  46.880  -9.349  0.00  0.00    +0.000 N 
ATOM     76  O   UNL     1      29.159  44.607  -9.801  0.00  0.00    +0.000 OA
ATOM     77  H   UNL     1      29.507  47.746  -9.492  0.00  0.00    +0.000 HD
BRANCH  74  79
ATOM     78  C   UNL     1      31.321  47.494 -10.464  0.00  0.00    +0.000 C 
ATOM     79  C   UNL     1      30.876  46.057 -10.686  0.00  0.00    +0.000 C 
BRANCH  79  81
ATOM     80  C   UNL     1      29.853  46.936 -12.788  0.00  0.00    +0.000 C 
ATOM     81  N   UNL     1      30.645  45.857 -12.145  0.00  0.00    +0.000 N 
ATOM     82  H   UNL     1      31.552  45.807 -12.609  0.00  0.00    +0.000 HD
ATOM     83  H   UNL     1      30.104  44.997 -12.242  0.00  0.00    +0.000 HD
ENDBRANCH  79  81
ENDBRANCH  74  79
ENDBRANCH  73  75
BRANCH  73  87
ATOM     84  C   UNL     1      27.109  47.368  -6.136  0.00  0.00    +0.000 C 
ATOM     85  C   UNL     1      27.003  49.137  -7.905  0.00  0.00    +0.000 C 
ATOM     86  C   UNL     1      29.215  48.346  -7.066  0.00  0.00    +0.000 C 
ATOM     87  C   UNL     1      27.781  47.895  -7.420  0.00  0.00    +0.000 C 
ENDBRANCH  73  87
ENDBRANCH  53  73
ENDBRANCH  46  52
ENDBRANCH  45  46
ENDBRANCH   3  45
TORSDOF 19
ENDMDL
MODEL 2
REMARK VINA RESULT:   -11.092      3.226      4.497
REMARK INTER + INTRA:         -26.924
REMARK INTER:                 -23.089
REMARK INTRA:                  -3.835
REMARK UNBOUND:                -3.835
REMARK  Name = 
REMARK  24 active torsions:
REMARK  status: ('A' for Active; 'I' for Inactive)
REMARK    1  A    between atoms: C_17  and  C_28
REMARK    2  A    between atoms: C_18  and  C_32
REMARK    3  A    between atoms: C_23  and  O_75
REMARK    4  A    between atoms: C_24  and  O_76
REMARK    5  A    between atoms: C_25  and  O_75
REMARK    6  A    between atoms: C_29  and  C_54
REMARK    7  A    between atoms: C_30  and  C_55
REMARK    8  A    between atoms: C_31  and  N_65
REMARK    9  A    between atoms: C_33  and  C_47
REMARK   10  A    between atoms: C_34  and  C_56
REMARK   11  A    between atoms: C_35  and  C_57
REMARK   12  A    between atoms: C_36  and  O_77
REMARK   13  A    between atoms: C_46  and  N_67
REMARK   14  A    between atoms: C_48  and  N_62
REMARK   15  A    between atoms: C_49  and  C_57
REMARK   16  A    between atoms: C_50  and  C_58
REMARK   17  A    between atoms: C_51  and  C_58
REMARK   18  A    between atoms: C_52  and  C_58
REMARK   19  A    between atoms: C_53  and  N_69
REMARK   20  A    between atoms: C_54  and  O_76
REMARK   21  A    between atoms: C_55  and  O_77
REMARK   22  A    between atoms: C_56  and  C_58
REMARK   23  A    between atoms: C_56  and  N_68
REMARK   24  A    between atoms: C_57  and  N_69
REMARK                            x       y       z     vdW  Elec       q    Type
REMARK                         _______ _______ _______ _____ _____    ______ ____
ROOT
ATOM      1  C   UNL     1      21.042  41.691  -4.145  0.00  0.00    +0.000 A 
ATOM      2  C   UNL     1      20.835  39.058  -4.535  0.00  0.00    +0.000 A 
ATOM      3  C   UNL     1      22.164  40.902  -4.282  0.00  0.00    +0.000 A 
ATOM      4  C   UNL     1      19.713  39.846  -4.398  0.00  0.00    +0.000 A 
ATOM      5  N   UNL     1      22.080  39.571  -4.479  0.00  0.00    +0.000 NA
ATOM      6  N   UNL     1      19.797  41.177  -4.200  0.00  0.00    +0.000 NA
ENDROOT
BRANCH   4   7
ATOM      7  C   UNL     1      18.354  39.244  -4.464  0.00  0.00    +0.000 C 
BRANCH   7   8
ATOM      8  O   UNL     1      17.370  40.284  -4.465  0.00  0.00    +0.000 OA
BRANCH   8   9
ATOM      9  C   UNL     1      16.081  39.897  -4.724  0.00  0.00    +0.000 C 
ATOM     10  C   UNL     1      14.383  39.026  -7.779  0.00  0.00    +0.000 C 
ATOM     11  C   UNL     1      15.218  39.725  -8.852  0.00  0.00    +0.000 C 
ATOM     12  C   UNL     1      14.337  39.839  -6.488  0.00  0.00    +0.000 C 
ATOM     13  C   UNL     1      16.529  40.877  -7.013  0.00  0.00    +0.000 C 
ATOM     14  C   UNL     1      16.620  40.072  -8.321  0.00  0.00    +0.000 C 
ATOM     15  N   UNL     1      15.684  40.183  -6.034  0.00  0.00    +0.000 N 
ATOM     16  O   UNL     1      15.363  39.357  -3.884  0.00  0.00    +0.000 OA
BRANCH  14  21
ATOM     17  C   UNL     1      19.025  41.891 -10.412  0.00  0.00    +0.000 A 
ATOM     18  C   UNL     1      17.962  41.533 -11.262  0.00  0.00    +0.000 A 
ATOM     19  C   UNL     1      18.667  41.389  -9.184  0.00  0.00    +0.000 A 
ATOM     20  N   UNL     1      17.000  40.856 -10.629  0.00  0.00    +0.000 NA
ATOM     21  N   UNL     1      17.457  40.785  -9.367  0.00  0.00    +0.000 N 
BRANCH  18  26
ATOM     22  C   UNL     1      18.237  43.061 -13.165  0.00  0.00    +0.000 A 
ATOM     23  C   UNL     1      17.320  40.856 -13.534  0.00  0.00    +0.000 A 
ATOM     24  C   UNL     1      18.117  43.338 -14.527  0.00  0.00    +0.000 A 
ATOM     25  C   UNL     1      17.202  41.133 -14.896  0.00  0.00    +0.000 A 
ATOM     26  C   UNL     1      17.838  41.820 -12.669  0.00  0.00    +0.000 A 
ATOM     27  C   UNL     1      17.600  42.375 -15.393  0.00  0.00    +0.000 A 
BRANCH  27  28
ATOM     28  O   UNL     1      17.484  42.646 -16.721  0.00  0.00    +0.000 OA
BRANCH  28  32
ATOM     29  C   UNL     1      15.986  44.435 -17.312  0.00  0.00    +0.000 A 
ATOM     30  C   UNL     1      14.743  44.865 -17.778  0.00  0.00    +0.000 A 
ATOM     31  C   UNL     1      14.028  42.566 -17.990  0.00  0.00    +0.000 A 
ATOM     32  C   UNL     1      16.251  43.071 -17.185  0.00  0.00    +0.000 A 
ATOM     33  C   UNL     1      13.764  43.930 -18.116  0.00  0.00    +0.000 A 
ATOM     34  C   UNL     1      15.272  42.137 -17.524  0.00  0.00    +0.000 A 
ATOM     35  F   UNL     1      12.571  44.342 -18.562  0.00  0.00    +0.000 F 
ATOM     36  F   UNL     1      15.519  40.825 -17.404  0.00  0.00    +0.000 F 
ENDBRANCH  28  32
ENDBRANCH  27  28
ENDBRANCH  18  26
BRANCH  17  37
ATOM     37  C   UNL     1      20.229  42.612 -10.705  0.00  0.00    +0.000 C 
ATOM     38  N   UNL     1      20.246  43.998 -10.491  0.00  0.00    +0.000 N 
ATOM     39  O   UNL     1      21.254  42.048 -11.158  0.00  0.00    +0.000 OA
ATOM     40  H   UNL     1      19.446  44.450 -10.136  0.00  0.00    +0.000 HD
ATOM     41  H   UNL     1      21.056  44.518 -10.697  0.00  0.00    +0.000 HD
ENDBRANCH  17  37
BRANCH  19  42
ATOM     42  N   UNL     1      19.271  41.411  -7.978  0.00  0.00    +0.000 N 
ATOM     43  H   UNL     1      18.874  41.921  -7.236  0.00  0.00    +0.000 HD
ATOM     44  H   UNL     1      20.110  40.913  -7.839  0.00  0.00    +0.000 HD
ENDBRANCH  19  42
ENDBRANCH  14  21
ENDBRANCH   8   9
ENDBRANCH   7   8
ENDBRANCH   4   7
BRANCH   3  45
ATOM     45  C   UNL     1      23.534  41.508  -4.215  0.00  0.00    +0.000 C 
BRANCH  45  46
ATOM     46  O   UNL     1      24.253  41.165  -5.400  0.00  0.00    +0.000 OA
BRANCH  46  52
ATOM     47  C   UNL     1      22.878  42.468  -8.525  0.00  0.00    +0.000 A 
ATOM     48  C   UNL     1      23.069  41.653  -7.411  0.00  0.00    +0.000 A 
ATOM     49  C   UNL     1      24.875  43.077  -6.686  0.00  0.00    +0.000 A 
ATOM     50  C   UNL     1      23.680  43.602  -8.724  0.00  0.00    +0.000 A 
ATOM     51  C   UNL     1      24.695  43.903  -7.806  0.00  0.00    +0.000 A 
ATOM     52  C   UNL     1      24.065  41.958  -6.489  0.00  0.00    +0.000 A 
ATOM     53  C   UNL     1      26.337  46.778  -9.710  0.00  0.00    +0.000 C 
ATOM     54  C   UNL     1      23.470  44.456  -9.944  0.00  0.00    +0.000 C 
ATOM     55  C   UNL     1      25.594  45.098  -7.980  0.00  0.00    +0.000 C 
ATOM     56  C   UNL     1      24.049  45.862  -9.812  0.00  0.00    +0.000 C 
ATOM     57  N   UNL     1      25.384  45.878  -9.211  0.00  0.00    +0.000 N 
ATOM     58  O   UNL     1      26.190  47.445 -10.737  0.00  0.00    +0.000 OA
BRANCH  56  59
ATOM     59  C   UNL     1      23.186  46.758  -8.968  0.00  0.00    +0.000 C 
ATOM     60  N   UNL     1      22.011  46.168  -8.543  0.00  0.00    +0.000 N 
ATOM     61  O   UNL     1      23.559  47.899  -8.722  0.00  0.00    +0.000 OA
ATOM     62  H   UNL     1      21.829  45.240  -8.812  0.00  0.00    +0.000 HD
BRANCH  60  72
ATOM     63  C   UNL     1      17.650  48.005 -10.143  0.00  0.00    +0.000 A 
ATOM     64  C   UNL     1      18.865  48.672 -10.265  0.00  0.00    +0.000 A 
ATOM     65  C   UNL     1      17.519  46.961  -9.229  0.00  0.00    +0.000 A 
ATOM     66  C   UNL     1      19.948  48.296  -9.471  0.00  0.00    +0.000 A 
ATOM     67  C   UNL     1      18.603  46.566  -8.431  0.00  0.00    +0.000 A 
ATOM     68  C   UNL     1      19.831  47.247  -8.545  0.00  0.00    +0.000 A 
ATOM     69  C   UNL     1      18.400  45.463  -7.423  0.00  0.00    +0.000 C 
ATOM     70  C   UNL     1      19.704  44.879  -6.886  0.00  0.00    +0.000 C 
ATOM     71  C   UNL     1      20.671  45.996  -6.502  0.00  0.00    +0.000 C 
ATOM     72  C   UNL     1      21.036  46.851  -7.720  0.00  0.00    +0.000 C 
ENDBRANCH  60  72
ENDBRANCH  56  59
BRANCH  53  73
ATOM     73  C   UNL     1      27.617  46.908  -8.921  0.00  0.00    +0.000 C 
BRANCH  73  75
ATOM     74  C   UNL     1      29.340  45.962 -10.435  0.00  0.00    +0.000 C 
ATOM     75  N   UNL     1      28.688  47.054  -9.900  0.00  0.00    +0.000 N 
ATOM     76  O   UNL     1      29.106  44.788 -10.160  0.00  0.00    +0.000 OA
ATOM     77  H   UNL     1      28.954  47.957 -10.188  0.00  0.00    +0.000 HD
BRANCH  74  79
ATOM     78  C   UNL     1      31.354  47.405 -10.830  0.00  0.00    +0.000 C 
ATOM     79  C   UNL     1      30.407  46.377 -11.431  0.00  0.00    +0.000 C 
BRANCH  79  81
ATOM     80  C   UNL     1      30.666  46.991 -13.837  0.00  0.00    +0.000 C 
ATOM     81  N   UNL     1      29.780  46.970 -12.646  0.00  0.00    +0.000 N 
ATOM     82  H   UNL     1      28.948  46.426 -12.874  0.00  0.00    +0.000 HD
ATOM     83  H   UNL     1      29.566  47.942 -12.421  0.00  0.00    +0.000 HD
ENDBRANCH  79  81
ENDBRANCH  74  79
ENDBRANCH  73  75
BRANCH  73  87
ATOM     84  C   UNL     1      26.999  47.598  -6.511  0.00  0.00    +0.000 C 
ATOM     85  C   UNL     1      26.668  49.202  -8.404  0.00  0.00    +0.000 C 
ATOM     86  C   UNL     1      28.975  48.622  -7.652  0.00  0.00    +0.000 C 
ATOM     87  C   UNL     1      27.555  48.055  -7.873  0.00  0.00    +0.000 C 
ENDBRANCH  73  87
ENDBRANCH  53  73
ENDBRANCH  46  52
ENDBRANCH  45  46
ENDBRANCH   3  45
TORSDOF 19
ENDMDL
