ligand
                    3D
 Structure written by MMmdl.
144152  0  0  1  0            999 V2000
    6.3375  -10.0776   -2.9440 C   0  0  0  0  0  0
    4.0696   -9.4525   -3.4247 C   0  0  0  0  0  0
   -2.2496    0.3151    0.3810 C   0  0  0  0  0  0
    5.2187  -10.1517   -3.7664 C   0  0  0  0  0  0
    4.0497   -8.6860   -2.2644 C   0  0  0  0  0  0
   -2.1271   -4.0606   -3.1768 C   0  0  0  0  0  0
   -0.5663   -5.9230   -2.5945 C   0  0  2  0  0  0
    0.8457   -5.6539   -2.0018 C   0  0  0  0  0  0
    0.2470   -3.1661    0.5612 C   0  0  0  0  0  0
    2.3473   -5.0282   -0.1181 C   0  0  1  0  0  0
    1.5007   -3.0494    1.1792 C   0  0  0  0  0  0
    1.0674   -0.7022    1.5957 C   0  0  0  0  0  0
    2.3805   -4.2889    1.2539 C   0  0  0  0  0  0
   -2.2561   -1.5345   -3.1160 C   0  0  0  0  0  0
   -0.1514   -4.5195   -0.0161 C   0  0  0  0  0  0
   -0.5834   -2.0436    0.4708 C   0  0  0  0  0  0
   -0.1815   -0.7997    0.9838 C   0  0  0  0  0  0
    1.8987   -1.8145    1.6957 C   0  0  0  0  0  0
   -2.3066   -2.7770   -4.0233 C   0  0  2  0  0  0
    2.9889   -6.4188    0.1010 C   0  0  0  0  0  0
    5.1110   -7.7317   -0.1311 C   0  0  2  0  0  0
    6.5162   -7.4385    0.4330 C   0  0  0  0  0  0
    7.3720   -8.7053    0.4890 C   0  0  0  0  0  0
    7.6070   -9.2593   -0.9233 C   0  0  0  0  0  0
    6.3341   -9.3135   -1.7701 C   0  0  0  0  0  0
    5.1640   -8.5932   -1.4141 C   0  0  0  0  0  0
   -2.8226    1.7217    0.3401 C   0  0  0  0  0  0
   -3.2452    2.3106   -0.8574 C   0  0  0  0  0  0
   -3.7760    4.2595    0.2888 C   0  0  0  0  0  0
   -3.3669    3.6675    1.4884 C   0  0  0  0  0  0
   -4.2884    5.6870    0.2347 C   0  0  0  0  0  0
   -3.9128    7.5139   -1.3142 C   0  0  0  0  0  0
   -1.7066    7.2623   -2.5396 C   0  0  0  0  0  0
   -1.8673    6.2973   -3.7362 C   0  0  0  0  0  0
   -2.4911    6.9768   -4.9802 C   0  0  0  0  0  0
   -3.7420    7.8518   -4.6646 C   0  0  2  0  0  0
   -3.5142    8.7618   -3.4214 C   0  0  0  0  0  0
   -6.2831    7.4909   -4.7513 C   0  0  0  0  0  0
   -7.1061    6.4581   -4.2874 C   0  0  0  0  0  0
   -6.2109    5.4730   -3.8078 C   0  0  0  0  0  0
   -6.4962    4.1632   -3.1499 C   0  0  0  0  0  0
   -7.3849    4.1127   -2.0739 C   0  0  0  0  0  0
   -7.6349    2.9048   -1.4311 C   0  0  0  0  0  0
   -7.0073    1.7347   -1.8568 C   0  0  0  0  0  0
   -6.1078    1.7870   -2.9325 C   0  0  0  0  0  0
   -5.8554    2.9961   -3.5749 C   0  0  0  0  0  0
   -6.9673   -0.6589   -1.6459 C   0  0  0  0  0  0
   -7.6052   -1.1735   -2.7803 C   0  0  0  0  0  0
   -7.2708   -2.4404   -3.2592 C   0  0  0  0  0  0
   -6.3058   -3.2021   -2.6010 C   0  0  0  0  0  0
   -5.6704   -2.6941   -1.4674 C   0  0  0  0  0  0
   -5.9969   -1.4238   -0.9917 C   0  0  0  0  0  0
   -8.5443    6.3555   -4.3772 C   0  0  0  0  0  0
   -0.7270   -7.2425   -3.4547 C   0  0  0  0  0  0
   -2.2321   -7.4820   -3.7475 C   0  0  0  0  0  0
   -0.2192   -8.4847   -2.6749 C   0  0  0  0  0  0
   -0.0024   -7.1767   -4.8280 C   0  0  0  0  0  0
   -3.5947   -3.8173   -5.8833 C   0  0  0  0  0  0
   -5.3741   -0.9392    0.1071 F   0  0  0  0  0  0
   -5.9869   -4.4320   -3.0631 F   0  0  0  0  0  0
    0.9895   -5.1210   -0.7469 N   0  0  0  0  0  0
    4.2957   -6.5113   -0.1983 N   0  0  0  0  0  0
   -3.7247    3.5815   -0.8907 N   0  0  0  0  0  0
   -2.8887    2.3952    1.5224 N   0  0  0  0  0  0
   -3.0179    7.9078   -2.3281 N   0  0  0  0  0  0
   -4.9932    7.0762   -4.4967 N   0  0  0  0  0  0
   -4.9629    5.8539   -3.9487 N   0  0  0  0  0  0
   -0.9574   -4.7069   -3.3175 N   0  0  0  0  0  0
   -9.2085    7.5045   -4.2196 N   0  0  0  0  0  0
   -6.5551    8.7016   -5.3359 N   0  0  0  0  0  0
   -3.5772   -2.8637   -4.7818 N   0  0  0  0  0  0
    1.8133   -5.9425   -2.7081 O   0  0  0  0  0  0
    2.3018   -7.3452    0.5333 O   0  0  0  0  0  0
   -0.9317    0.3581    0.9226 O   0  0  0  0  0  0
   -3.4358    6.4644   -0.6009 O   0  0  0  0  0  0
   -5.0278    8.0083   -1.1222 O   0  0  0  0  0  0
   -3.0290   -4.4308   -2.4228 O   0  0  0  0  0  0
   -7.3025    0.5820   -1.1562 O   0  0  0  0  0  0
   -9.1121    5.2828   -4.5734 O   0  0  0  0  0  0
    7.2268  -10.6230   -3.2248 H   0  0  0  0  0  0
    3.1940   -9.5025   -4.0553 H   0  0  0  0  0  0
   -2.2324   -0.0927   -0.6298 H   0  0  0  0  0  0
   -2.8947   -0.3212    0.9888 H   0  0  0  0  0  0
    5.2441  -10.7481   -4.6664 H   0  0  0  0  0  0
    3.1391   -8.1613   -2.0260 H   0  0  0  0  0  0
   -1.2322   -6.0799   -1.7462 H   0  0  0  0  0  0
    2.9701   -4.4522   -0.8054 H   0  0  0  0  0  0
    1.3969    0.2450    1.9973 H   0  0  0  0  0  0
    3.4143   -4.0334    1.4948 H   0  0  0  0  0  0
    2.0027   -4.9390    2.0467 H   0  0  0  0  0  0
   -1.3197   -1.4815   -2.5583 H   0  0  0  0  0  0
   -2.3314   -0.6193   -3.7044 H   0  0  0  0  0  0
   -3.0756   -1.5239   -2.3957 H   0  0  0  0  0  0
   -1.0415   -4.3835   -0.6243 H   0  0  0  0  0  0
   -0.4298   -5.1937    0.7944 H   0  0  0  0  0  0
   -1.5425   -2.1566   -0.0118 H   0  0  0  0  0  0
    2.8622   -1.7141    2.1739 H   0  0  0  0  0  0
   -1.4709   -2.6968   -4.7227 H   0  0  0  0  0  0
    4.6392   -8.3836    0.6083 H   0  0  0  0  0  0
    6.4306   -7.0064    1.4315 H   0  0  0  0  0  0
    7.0160   -6.6848   -0.1782 H   0  0  0  0  0  0
    6.8785   -9.4571    1.1073 H   0  0  0  0  0  0
    8.3291   -8.4945    0.9678 H   0  0  0  0  0  0
    8.0519  -10.2529   -0.8493 H   0  0  0  0  0  0
    8.3367   -8.6357   -1.4420 H   0  0  0  0  0  0
   -3.1976    1.7828   -1.7987 H   0  0  0  0  0  0
   -3.4065    4.2011    2.4268 H   0  0  0  0  0  0
   -4.3044    6.1203    1.2355 H   0  0  0  0  0  0
   -5.3176    5.6726   -0.1301 H   0  0  0  0  0  0
   -0.9805    8.0369   -2.7885 H   0  0  0  0  0  0
   -1.3324    6.7396   -1.6587 H   0  0  0  0  0  0
   -2.4672    5.4412   -3.4273 H   0  0  0  0  0  0
   -0.8945    5.8814   -3.9994 H   0  0  0  0  0  0
   -2.7219    6.2332   -5.7446 H   0  0  0  0  0  0
   -1.7324    7.6224   -5.4252 H   0  0  0  0  0  0
   -3.8905    8.5018   -5.5280 H   0  0  0  0  0  0
   -4.4237    9.3038   -3.1563 H   0  0  0  0  0  0
   -2.7535    9.5091   -3.6492 H   0  0  0  0  0  0
   -7.8751    5.0104   -1.7262 H   0  0  0  0  0  0
   -8.3198    2.8770   -0.5966 H   0  0  0  0  0  0
   -5.5936    0.8999   -3.2706 H   0  0  0  0  0  0
   -5.1561    3.0261   -4.3980 H   0  0  0  0  0  0
   -8.3586   -0.5892   -3.2881 H   0  0  0  0  0  0
   -7.7634   -2.8328   -4.1366 H   0  0  0  0  0  0
   -4.9254   -3.2848   -0.9555 H   0  0  0  0  0  0
   -2.6582   -6.6931   -4.3664 H   0  0  0  0  0  0
   -2.3970   -8.4200   -4.2800 H   0  0  0  0  0  0
   -2.8192   -7.5282   -2.8292 H   0  0  0  0  0  0
    0.8543   -8.4486   -2.4933 H   0  0  0  0  0  0
   -0.7099   -8.5761   -1.7050 H   0  0  0  0  0  0
   -0.4094   -9.4090   -3.2223 H   0  0  0  0  0  0
    1.0818   -7.1434   -4.7342 H   0  0  0  0  0  0
   -0.2247   -8.0562   -5.4340 H   0  0  0  0  0  0
   -0.3092   -6.3069   -5.4095 H   0  0  0  0  0  0
   -4.5400   -3.7425   -6.4208 H   0  0  0  0  0  0
   -2.7872   -3.6126   -6.5872 H   0  0  0  0  0  0
   -3.4935   -4.8412   -5.5245 H   0  0  0  0  0  0
    4.7552   -5.6964   -0.5781 H   0  0  0  0  0  0
   -0.2668   -4.3421   -3.9578 H   0  0  0  0  0  0
  -10.2170    7.5155   -4.2567 H   0  0  0  0  0  0
   -8.7050    8.3668   -4.0717 H   0  0  0  0  0  0
   -6.6690    8.7918   -6.3355 H   0  0  0  0  0  0
   -6.6214    9.5499   -4.7918 H   0  0  0  0  0  0
   -4.3722   -2.9806   -4.1690 H   0  0  0  0  0  0
  1  4  1  0  0  0
  1 25  2  0  0  0
  1 80  1  0  0  0
  2  4  2  0  0  0
  2  5  1  0  0  0
  2 81  1  0  0  0
  3 27  1  0  0  0
  3 74  1  0  0  0
  3 82  1  0  0  0
  3 83  1  0  0  0
  4 84  1  0  0  0
  5 26  2  0  0  0
  5 85  1  0  0  0
  6 19  1  0  0  0
  6 68  1  0  0  0
  6 77  2  0  0  0
  7  8  1  0  0  0
  7 54  1  0  0  0
  7 68  1  0  0  0
  7 86  1  0  0  0
  8 61  1  0  0  0
  8 72  2  0  0  0
  9 11  1  0  0  0
  9 15  1  0  0  0
  9 16  2  0  0  0
 10 13  1  0  0  0
 10 20  1  0  0  0
 10 61  1  0  0  0
 10 87  1  0  0  0
 11 13  1  0  0  0
 11 18  2  0  0  0
 12 17  2  0  0  0
 12 18  1  0  0  0
 12 88  1  0  0  0
 13 89  1  0  0  0
 13 90  1  0  0  0
 14 19  1  0  0  0
 14 91  1  0  0  0
 14 92  1  0  0  0
 14 93  1  0  0  0
 15 61  1  0  0  0
 15 94  1  0  0  0
 15 95  1  0  0  0
 16 17  1  0  0  0
 16 96  1  0  0  0
 17 74  1  0  0  0
 18 97  1  0  0  0
 19 71  1  0  0  0
 19 98  1  0  0  0
 20 62  1  0  0  0
 20 73  2  0  0  0
 21 22  1  0  0  0
 21 26  1  0  0  0
 21 62  1  0  0  0
 21 99  1  0  0  0
 22 23  1  0  0  0
 22100  1  0  0  0
 22101  1  0  0  0
 23 24  1  0  0  0
 23102  1  0  0  0
 23103  1  0  0  0
 24 25  1  0  0  0
 24104  1  0  0  0
 24105  1  0  0  0
 25 26  1  0  0  0
 27 28  1  0  0  0
 27 64  2  0  0  0
 28 63  2  0  0  0
 28106  1  0  0  0
 29 30  2  0  0  0
 29 31  1  0  0  0
 29 63  1  0  0  0
 30 64  1  0  0  0
 30107  1  0  0  0
 31 75  1  0  0  0
 31108  1  0  0  0
 31109  1  0  0  0
 32 65  1  0  0  0
 32 75  1  0  0  0
 32 76  2  0  0  0
 33 34  1  0  0  0
 33 65  1  0  0  0
 33110  1  0  0  0
 33111  1  0  0  0
 34 35  1  0  0  0
 34112  1  0  0  0
 34113  1  0  0  0
 35 36  1  0  0  0
 35114  1  0  0  0
 35115  1  0  0  0
 36 37  1  0  0  0
 36 66  1  0  0  0
 36116  1  0  0  0
 37 65  1  0  0  0
 37117  1  0  0  0
 37118  1  0  0  0
 38 39  2  0  0  0
 38 66  1  0  0  0
 38 70  1  0  0  0
 39 40  1  0  0  0
 39 53  1  0  0  0
 40 41  1  0  0  0
 40 67  2  0  0  0
 41 42  1  0  0  0
 41 46  2  0  0  0
 42 43  2  0  0  0
 42119  1  0  0  0
 43 44  1  0  0  0
 43120  1  0  0  0
 44 45  2  0  0  0
 44 78  1  0  0  0
 45 46  1  0  0  0
 45121  1  0  0  0
 46122  1  0  0  0
 47 48  1  0  0  0
 47 52  2  0  0  0
 47 78  1  0  0  0
 48 49  2  0  0  0
 48123  1  0  0  0
 49 50  1  0  0  0
 49124  1  0  0  0
 50 51  2  0  0  0
 50 60  1  0  0  0
 51 52  1  0  0  0
 51125  1  0  0  0
 52 59  1  0  0  0
 53 69  1  0  0  0
 53 79  2  0  0  0
 54 55  1  0  0  0
 54 56  1  0  0  0
 54 57  1  0  0  0
 55126  1  0  0  0
 55127  1  0  0  0
 55128  1  0  0  0
 56129  1  0  0  0
 56130  1  0  0  0
 56131  1  0  0  0
 57132  1  0  0  0
 57133  1  0  0  0
 57134  1  0  0  0
 58 71  1  0  0  0
 58135  1  0  0  0
 58136  1  0  0  0
 58137  1  0  0  0
 62138  1  0  0  0
 66 67  1  0  0  0
 68139  1  0  0  0
 69140  1  0  0  0
 69141  1  0  0  0
 70142  1  0  0  0
 70143  1  0  0  0
 71144  1  0  0  0
M  END
> <s_m_entry_id>
14

> <s_m_entry_name>
6w7o.1_mol3

> <s_m_source_file>
ligprep_1.maegz

> <i_m_source_file_index>
1

> <i_lp_mmshare_version>
38013

> <i_f3d_flags>
0

> <s_lp_Force_Field>
OPLS3

> <r_lp_Energy>
108.514950768214

> <b_lp_Chiralities_Consistent>
1

> <s_lp_Variant>
ligand-1

> <s_m_job_name>
ligprep_1

> <s_m_subgroup_title>
ligprep_1-out1

> <s_m_subgroupid>
ligprep_1-out1

> <b_m_subgroup_collapsed>
0

$$$$
