ligand
 OpenBabel01032309583D

 86 94  0  0  1  0  0  0  0  0999 V2000
   14.8960   42.7490  -10.4060 C   0  0  0  0  0  0  0  0  0  0  0  0
   13.5050   42.8910  -10.3650 C   0  0  0  0  0  3  0  0  0  0  0  0
   13.7400   44.8250   -9.1000 C   0  0  0  0  0  0  0  0  0  0  0  0
   15.1310   44.6750   -9.1300 C   0  0  0  0  0  3  0  0  0  0  0  0
   12.9170   43.9280   -9.7120 N   0  0  0  0  0  0  0  0  0  0  0  0
   15.7180   43.6370   -9.7810 N   0  0  0  0  0  0  0  0  0  0  0  0
   13.0750   45.9930   -8.3970 C   0  0  0  0  0  2  0  0  0  0  0  0
   11.6600   45.8480   -8.4750 O   0  0  0  0  0  0  0  0  0  0  0  0
   10.8480   46.9210   -8.6400 C   0  0  0  0  0  0  0  0  0  0  0  0
   10.3610   46.5190   -6.1840 C   0  0  0  0  0  2  0  0  0  0  0  0
   11.3470   47.3210   -5.3050 C   0  0  0  0  0  2  0  0  0  0  0  0
   10.9430   48.8090   -5.1510 C   0  0  0  0  0  2  0  0  0  0  0  0
   10.5390   49.4990   -6.4880 C   0  0  2  0  0  3  0  0  0  0  0  0
    9.5810   48.6080   -7.3340 C   0  0  0  0  0  2  0  0  0  0  0  0
   10.1940   47.2730   -7.4430 N   0  0  0  0  0  0  0  0  0  0  0  0
   10.7590   47.5400   -9.7050 O   0  0  0  0  0  0  0  0  0  0  0  0
   11.6980   50.8610   -8.3310 C   0  0  0  0  0  0  0  0  0  0  0  0
   12.9750   50.7870   -8.8990 C   0  0  0  0  0  0  0  0  0  0  0  0
   13.6510   49.8060   -8.1350 C   0  0  0  0  0  0  0  0  0  0  0  0
   11.6900   49.9270   -7.3180 N   0  0  0  0  0  0  0  0  0  0  0  0
   12.8750   49.3140   -7.1970 N   0  0  0  0  0  0  0  0  0  0  0  0
   15.0300   49.2560   -8.2930 C   0  0  0  0  0  0  0  0  0  0  0  0
   15.3190   48.4270   -9.3790 C   0  0  0  0  0  3  0  0  0  0  0  0
   16.5910   47.8820   -9.5220 C   0  0  0  0  0  3  0  0  0  0  0  0
   17.5880   48.1610   -8.5870 C   0  0  0  0  0  0  0  0  0  0  0  0
   17.2950   48.9870   -7.4920 C   0  0  0  0  0  3  0  0  0  0  0  0
   16.0220   49.5310   -7.3470 C   0  0  0  0  0  3  0  0  0  0  0  0
   18.8180   47.5690   -8.7980 O   0  0  0  0  0  0  0  0  0  0  0  0
   19.7870   48.1840   -9.5570 C   0  0  0  0  0  0  0  0  0  0  0  0
   19.4560   48.8080  -10.7640 C   0  0  0  0  0  3  0  0  0  0  0  0
   20.4480   49.4140  -11.5360 C   0  0  0  0  0  3  0  0  0  0  0  0
   21.7750   49.3890  -11.1100 C   0  0  0  0  0  0  0  0  0  0  0  0
   22.1100   48.7640   -9.9080 C   0  0  0  0  0  3  0  0  0  0  0  0
   21.1180   48.1650   -9.1310 C   0  0  0  0  0  0  0  0  0  0  0  0
   21.4520   47.5630   -7.9660 F   0  0  0  0  0  0  0  0  0  0  0  0
   22.7360   49.9710  -11.8620 F   0  0  0  0  0  0  0  0  0  0  0  0
   13.5320   51.6040   -9.9520 C   0  0  0  0  0  0  0  0  0  0  0  0
   13.1920   51.2430  -11.1940 N   0  0  0  0  0  0  0  0  0  0  0  0
   14.2740   52.5560   -9.7180 O   0  0  0  0  0  0  0  0  0  0  0  0
   13.5490   51.7560  -11.9860 H   0  0  0  0  0  0  0  0  0  0  0  0
   12.5710   50.4620  -11.3440 H   0  0  0  0  0  0  0  0  0  0  0  0
   10.5980   51.6300   -8.6190 N   0  0  0  0  0  0  0  0  0  0  0  0
   10.5890   52.2640   -9.4050 H   0  0  0  0  0  0  0  0  0  0  0  0
    9.7730   51.6120   -8.0390 H   0  0  0  0  0  0  0  0  0  0  0  0
   15.5620   41.6140  -11.1660 C   0  0  0  0  0  2  0  0  0  0  0  0
   15.3160   40.3840  -10.4890 O   0  0  0  0  0  0  0  0  0  0  0  0
   19.8450   41.9010   -5.4840 C   0  0  0  0  0  0  0  0  0  0  0  0
   17.3210   40.0960   -7.3530 C   0  0  0  0  0  0  0  0  0  0  0  0
   17.7610   40.8630   -4.6040 C   0  0  2  0  0  3  0  0  0  0  0  0
   16.2740   39.9770   -6.4260 C   0  0  0  0  0  0  0  0  0  0  0  0
   14.6680   40.1230   -8.2340 C   0  0  0  0  0  3  0  0  0  0  0  0
   16.6340   39.8440   -4.9530 C   0  0  0  0  0  2  0  0  0  0  0  0
   18.7520   40.1060   -6.8290 C   0  0  0  0  0  2  0  0  0  0  0  0
   17.0240   40.2260   -8.7130 C   0  0  0  0  0  3  0  0  0  0  0  0
   15.6950   40.2440   -9.1680 C   0  0  0  0  0  0  0  0  0  0  0  0
   14.9530   39.9880   -6.8770 C   0  0  0  0  0  3  0  0  0  0  0  0
   18.8530   40.9650   -5.6250 N   0  0  0  0  0  0  0  0  0  0  0  0
   19.8080   42.7700   -4.6120 O   0  0  0  0  0  0  0  0  0  0  0  0
   18.3000   40.4800   -3.2050 C   0  0  0  0  0  0  0  0  0  0  0  0
   18.6160   39.1840   -3.0370 N   0  0  0  0  0  0  0  0  0  0  0  0
   18.4220   41.3480   -2.3400 O   0  0  0  0  0  0  0  0  0  0  0  0
   18.4450   38.5500   -3.8030 H   0  0  0  0  0  0  0  0  0  0  0  0
   17.8820   35.3890    0.0440 C   0  0  0  0  0  3  0  0  0  0  0  0
   15.9520   36.5690   -0.7600 C   0  0  0  0  0  3  0  0  0  0  0  0
   16.5010   35.4870   -0.0870 C   0  0  0  0  0  3  0  0  0  0  0  0
   16.7880   37.5420   -1.2980 C   0  0  0  0  0  3  0  0  0  0  0  0
   19.0890   38.5670   -1.7890 C   0  0  2  0  0  3  0  0  0  0  0  0
   20.5580   38.1140   -1.9090 C   0  0  0  0  0  2  0  0  0  0  0  0
   21.0480   37.4570   -0.6180 C   0  0  0  0  0  2  0  0  0  0  0  0
   20.2490   36.1790   -0.3270 C   0  0  0  0  0  2  0  0  0  0  0  0
   18.7390   36.3620   -0.4880 C   0  0  0  0  0  0  0  0  0  0  0  0
   18.1860   37.4700   -1.1810 C   0  0  0  0  0  0  0  0  0  0  0  0
   21.0770   41.9030   -6.4320 C   0  0  1  0  0  3  0  0  0  0  0  0
   20.7720   43.0870   -8.6110 C   0  0  0  0  0  0  0  0  0  0  0  0
   20.9530   43.0950   -7.2790 N   0  0  0  0  0  0  0  0  0  0  0  0
   20.7020   42.0600   -9.2880 O   0  0  0  0  0  0  0  0  0  0  0  0
   21.0010   43.9790   -6.7940 H   0  0  0  0  0  0  0  0  0  0  0  0
   19.3070   44.5530  -10.0640 C   0  0  0  0  0  1  0  0  0  0  0  0
   20.6370   44.4700   -9.2930 C   0  0  2  0  0  3  0  0  0  0  0  0
   23.0530   45.0360   -9.4940 C   0  0  0  0  0  1  0  0  0  0  0  0
   21.8080   44.7000  -10.1710 N   0  0  0  0  0  0  0  0  0  0  0  0
   21.9310   43.9490  -10.8360 H   0  0  0  0  0  0  0  0  0  0  0  0
   22.4950   41.7700   -5.7410 C   0  0  0  0  0  0  0  0  0  0  0  0
   22.4580   40.6060   -4.7160 C   0  0  0  0  0  1  0  0  0  0  0  0
   22.8540   43.0550   -4.9460 C   0  0  0  0  0  1  0  0  0  0  0  0
   23.6430   41.4580   -6.7410 C   0  0  0  0  0  1  0  0  0  0  0  0
  1  2  2  0  0  0  0
  1  6  1  0  0  0  0
  2  5  1  0  0  0  0
  3  7  1  0  0  0  0
  4  3  1  0  0  0  0
  5  3  2  0  0  0  0
  6  4  2  0  0  0  0
  8  7  1  0  0  0  0
  9  8  1  0  0  0  0
  9 15  1  0  0  0  0
 10 11  1  0  0  0  0
 11 12  1  0  0  0  0
 13 14  1  6  0  0  0
 13 12  1  0  0  0  0
 15 14  1  0  0  0  0
 15 10  1  0  0  0  0
 16  9  2  0  0  0  0
 17 20  1  0  0  0  0
 18 17  2  0  0  0  0
 18 19  1  0  0  0  0
 19 21  2  0  0  0  0
 20 21  1  0  0  0  0
 20 13  1  0  0  0  0
 22 19  1  0  0  0  0
 22 27  1  0  0  0  0
 23 22  2  0  0  0  0
 24 23  1  0  0  0  0
 24 25  2  0  0  0  0
 25 26  1  0  0  0  0
 26 27  2  0  0  0  0
 28 25  1  0  0  0  0
 29 34  1  0  0  0  0
 29 28  1  0  0  0  0
 30 29  2  0  0  0  0
 31 32  2  0  0  0  0
 31 30  1  0  0  0  0
 32 33  1  0  0  0  0
 33 34  2  0  0  0  0
 34 35  1  0  0  0  0
 36 32  1  0  0  0  0
 37 39  2  0  0  0  0
 37 18  1  0  0  0  0
 38 37  1  0  0  0  0
 40 38  1  0  0  0  0
 41 38  1  0  0  0  0
 42 17  1  0  0  0  0
 42 44  1  0  0  0  0
 43 42  1  0  0  0  0
 45 46  1  0  0  0  0
 45  1  1  0  0  0  0
 46 55  1  0  0  0  0
 47 58  2  0  0  0  0
 48 53  1  0  0  0  0
 48 50  1  0  0  0  0
 49 59  1  1  0  0  0
 50 52  1  0  0  0  0
 51 56  1  0  0  0  0
 52 49  1  0  0  0  0
 53 57  1  0  0  0  0
 54 48  2  0  0  0  0
 55 54  1  0  0  0  0
 55 51  2  0  0  0  0
 56 50  2  0  0  0  0
 57 47  1  0  0  0  0
 57 49  1  0  0  0  0
 59 60  1  0  0  0  0
 59 61  2  0  0  0  0
 62 60  1  0  0  0  0
 64 65  2  0  0  0  0
 65 63  1  0  0  0  0
 66 72  2  0  0  0  0
 66 64  1  0  0  0  0
 67 60  1  6  0  0  0
 67 72  1  0  0  0  0
 68 67  1  0  0  0  0
 68 69  1  0  0  0  0
 69 70  1  0  0  0  0
 71 70  1  0  0  0  0
 71 63  2  0  0  0  0
 72 71  1  0  0  0  0
 73 83  1  0  0  0  0
 73 47  1  1  0  0  0
 74 75  1  0  0  0  0
 75 77  1  0  0  0  0
 75 73  1  0  0  0  0
 76 74  2  0  0  0  0
 79 78  1  6  0  0  0
 79 74  1  0  0  0  0
 81 80  1  0  0  0  0
 81 79  1  0  0  0  0
 82 81  1  0  0  0  0
 83 85  1  0  0  0  0
 83 84  1  0  0  0  0
 86 83  1  0  0  0  0
M  END
>  <MODEL>
1

>  <REMARK>
 VINA RESULT:   -12.323      0.000      0.000
 INTER + INTRA:         -30.486
 INTER:                 -25.461
 INTRA:                  -5.025
 UNBOUND:                -4.837
  Name = ligand
  24 active torsions:
  status: ('A' for Active; 'I' for Inactive)
    1  A    between atoms: C_3  and  C_27
    2  A    between atoms: C_3  and  O_74
    3  A    between atoms: C_6  and  C_19
    4  A    between atoms: C_7  and  C_8
    5  A    between atoms: C_7  and  C_54
    6  A    between atoms: C_7  and  N_68
    7  A    between atoms: C_10  and  C_20
    8  A    between atoms: C_14  and  C_19
    9  A    between atoms: C_17  and  O_74
   10  A    between atoms: C_19  and  N_71
   11  A    between atoms: C_21  and  N_62
   12  A    between atoms: C_29  and  C_31
   13  A    between atoms: C_31  and  O_75
   14  A    between atoms: C_32  and  O_75
   15  A    between atoms: C_36  and  N_66
   16  A    between atoms: C_38  and  N_70
   17  A    between atoms: C_39  and  C_53
   18  A    between atoms: C_40  and  C_41
   19  A    between atoms: C_44  and  O_78
   20  A    between atoms: C_47  and  O_78
   21  A    between atoms: C_54  and  C_55
   22  A    between atoms: C_54  and  C_56
   23  A    between atoms: C_54  and  C_57
   24  A    between atoms: C_58  and  N_71
                            x       y       z     vdW  Elec       q    Type
                         _______ _______ _______ _____ _____    ______ ____

>  <TORSDO>
F 19

$$$$
ligand
 OpenBabel01032309583D

 86 94  0  0  1  0  0  0  0  0999 V2000
   15.3580   43.2420  -10.1650 C   0  0  0  0  0  0  0  0  0  0  0  0
   13.9650   43.1760  -10.2800 C   0  0  0  0  0  3  0  0  0  0  0  0
   13.7690   45.1190   -9.0230 C   0  0  0  0  0  0  0  0  0  0  0  0
   15.1610   45.1780   -8.8960 C   0  0  0  0  0  3  0  0  0  0  0  0
   13.1610   44.1120   -9.7100 N   0  0  0  0  0  0  0  0  0  0  0  0
   15.9640   44.2410   -9.4650 N   0  0  0  0  0  0  0  0  0  0  0  0
   12.8640   46.1730   -8.4130 C   0  0  0  0  0  2  0  0  0  0  0  0
   11.5240   45.6910   -8.3920 O   0  0  0  0  0  0  0  0  0  0  0  0
   10.4860   46.4710   -8.7830 C   0  0  0  0  0  0  0  0  0  0  0  0
    9.7930   46.1950   -6.3590 C   0  0  0  0  0  2  0  0  0  0  0  0
   10.3990   47.3240   -5.4970 C   0  0  0  0  0  2  0  0  0  0  0  0
    9.5970   48.6470   -5.5850 C   0  0  0  0  0  2  0  0  0  0  0  0
    9.2100   49.0590   -7.0370 C   0  0  2  0  0  3  0  0  0  0  0  0
    8.6490   47.8550   -7.8510 C   0  0  0  0  0  2  0  0  0  0  0  0
    9.6050   46.7420   -7.7180 N   0  0  0  0  0  0  0  0  0  0  0  0
   10.3810   46.9310   -9.9240 O   0  0  0  0  0  0  0  0  0  0  0  0
   10.2030   50.5290   -8.8950 C   0  0  0  0  0  0  0  0  0  0  0  0
   11.5170   50.7490   -9.3230 C   0  0  0  0  0  0  0  0  0  0  0  0
   12.3200   50.0440   -8.3960 C   0  0  0  0  0  0  0  0  0  0  0  0
   10.3080   49.7080   -7.7920 N   0  0  0  0  0  0  0  0  0  0  0  0
   11.5860   49.4410   -7.4910 N   0  0  0  0  0  0  0  0  0  0  0  0
   13.8030   49.8660   -8.3590 C   0  0  0  0  0  0  0  0  0  0  0  0
   14.3960   48.8730   -9.1410 C   0  0  0  0  0  3  0  0  0  0  0  0
   15.7720   48.6750   -9.0920 C   0  0  0  0  0  3  0  0  0  0  0  0
   16.5710   49.4670   -8.2680 C   0  0  0  0  0  0  0  0  0  0  0  0
   15.9730   50.4600   -7.4760 C   0  0  0  0  0  3  0  0  0  0  0  0
   14.5960   50.6570   -7.5220 C   0  0  0  0  0  3  0  0  0  0  0  0
   17.9250   49.1960   -8.2700 O   0  0  0  0  0  0  0  0  0  0  0  0
   18.4700   48.2650   -7.4160 C   0  0  0  0  0  0  0  0  0  0  0  0
   18.8280   48.6210   -6.1110 C   0  0  0  0  0  3  0  0  0  0  0  0
   19.3960   47.6760   -5.2570 C   0  0  0  0  0  3  0  0  0  0  0  0
   19.6190   46.3750   -5.7070 C   0  0  0  0  0  0  0  0  0  0  0  0
   19.2670   46.0170   -7.0100 C   0  0  0  0  0  3  0  0  0  0  0  0
   18.6900   46.9590   -7.8610 C   0  0  0  0  0  0  0  0  0  0  0  0
   18.3500   46.6030   -9.1220 F   0  0  0  0  0  0  0  0  0  0  0  0
   20.1750   45.4600   -4.8800 F   0  0  0  0  0  0  0  0  0  0  0  0
   11.9730   51.5970  -10.4000 C   0  0  0  0  0  0  0  0  0  0  0  0
   13.0680   51.1720  -11.0380 N   0  0  0  0  0  0  0  0  0  0  0  0
   11.3970   52.6430  -10.6960 O   0  0  0  0  0  0  0  0  0  0  0  0
   13.4560   51.7150  -11.7940 H   0  0  0  0  0  0  0  0  0  0  0  0
   13.5050   50.3020  -10.7720 H   0  0  0  0  0  0  0  0  0  0  0  0
    8.9890   50.9550   -9.3700 N   0  0  0  0  0  0  0  0  0  0  0  0
    8.2940   51.3580   -8.7580 H   0  0  0  0  0  0  0  0  0  0  0  0
    8.7350   50.8540  -10.3420 H   0  0  0  0  0  0  0  0  0  0  0  0
   16.2650   42.2210  -10.8320 C   0  0  0  0  0  2  0  0  0  0  0  0
   15.9920   40.9280  -10.2970 O   0  0  0  0  0  0  0  0  0  0  0  0
   20.3110   41.6570   -4.9420 C   0  0  0  0  0  0  0  0  0  0  0  0
   17.7540   40.2380   -7.0780 C   0  0  0  0  0  0  0  0  0  0  0  0
   18.0860   40.7760   -4.2610 C   0  0  2  0  0  3  0  0  0  0  0  0
   16.6430   40.1640   -6.2250 C   0  0  0  0  0  0  0  0  0  0  0  0
   15.1780   40.5870   -8.1080 C   0  0  0  0  0  3  0  0  0  0  0  0
   16.8920   39.8990   -4.7460 C   0  0  0  0  0  2  0  0  0  0  0  0
   19.1420   40.0710   -6.4740 C   0  0  0  0  0  2  0  0  0  0  0  0
   17.5590   40.4850   -8.4410 C   0  0  0  0  0  3  0  0  0  0  0  0
   16.2700   40.6660   -8.9700 C   0  0  0  0  0  0  0  0  0  0  0  0
   15.3610   40.3350   -6.7500 C   0  0  0  0  0  3  0  0  0  0  0  0
   19.2460   40.8360   -5.2070 N   0  0  0  0  0  0  0  0  0  0  0  0
   20.3020   42.4670   -4.0150 O   0  0  0  0  0  0  0  0  0  0  0  0
   18.4950   40.2510   -2.8640 C   0  0  0  0  0  0  0  0  0  0  0  0
   18.5820   38.9150   -2.7460 N   0  0  0  0  0  0  0  0  0  0  0  0
   18.7230   41.0500   -1.9560 O   0  0  0  0  0  0  0  0  0  0  0  0
   18.3390   38.3500   -3.5480 H   0  0  0  0  0  0  0  0  0  0  0  0
   17.1230   35.1460    0.1000 C   0  0  0  0  0  3  0  0  0  0  0  0
   15.4390   36.6460   -0.7220 C   0  0  0  0  0  3  0  0  0  0  0  0
   15.7820   35.4640   -0.0830 C   0  0  0  0  0  3  0  0  0  0  0  0
   16.4400   37.5010   -1.1730 C   0  0  0  0  0  3  0  0  0  0  0  0
   18.8920   38.1770   -1.5140 C   0  0  2  0  0  3  0  0  0  0  0  0
   20.2790   37.5060   -1.5960 C   0  0  0  0  0  2  0  0  0  0  0  0
   20.5980   36.7240   -0.3210 C   0  0  0  0  0  2  0  0  0  0  0  0
   19.5990   35.5740   -0.1300 C   0  0  0  0  0  2  0  0  0  0  0  0
   18.1440   35.9960   -0.3450 C   0  0  0  0  0  0  0  0  0  0  0  0
   17.8030   37.2070   -1.0020 C   0  0  0  0  0  0  0  0  0  0  0  0
   21.5970   41.5990   -5.8150 C   0  0  1  0  0  3  0  0  0  0  0  0
   21.9370   43.2340   -7.6730 C   0  0  0  0  0  0  0  0  0  0  0  0
   21.7900   42.9430   -6.3690 N   0  0  0  0  0  0  0  0  0  0  0  0
   21.9410   42.3870   -8.5680 O   0  0  0  0  0  0  0  0  0  0  0  0
   21.8000   43.6940   -5.6940 H   0  0  0  0  0  0  0  0  0  0  0  0
   22.7600   44.8810   -9.4100 C   0  0  0  0  0  1  0  0  0  0  0  0
   22.0970   44.7320   -8.0280 C   0  0  2  0  0  3  0  0  0  0  0  0
   24.2750   45.6590   -7.2550 C   0  0  0  0  0  1  0  0  0  0  0  0
   22.8710   45.4090   -6.9600 N   0  0  0  0  0  0  0  0  0  0  0  0
   22.4010   46.2400   -6.6280 H   0  0  0  0  0  0  0  0  0  0  0  0
   22.8930   41.0160   -5.1170 C   0  0  0  0  0  0  0  0  0  0  0  0
   23.7470   42.1880   -4.5620 C   0  0  0  0  0  1  0  0  0  0  0  0
   23.7850   40.2570   -6.1370 C   0  0  0  0  0  1  0  0  0  0  0  0
   22.5810   40.0750   -3.9210 C   0  0  0  0  0  1  0  0  0  0  0  0
  1  6  1  0  0  0  0
  2  1  2  0  0  0  0
  2  5  1  0  0  0  0
  3  4  1  0  0  0  0
  3  7  1  0  0  0  0
  5  3  2  0  0  0  0
  6  4  2  0  0  0  0
  7  8  1  0  0  0  0
  9  8  1  0  0  0  0
  9 15  1  0  0  0  0
 10 11  1  0  0  0  0
 12 11  1  0  0  0  0
 13 14  1  6  0  0  0
 13 12  1  0  0  0  0
 14 15  1  0  0  0  0
 15 10  1  0  0  0  0
 16  9  2  0  0  0  0
 17 20  1  0  0  0  0
 18 17  2  0  0  0  0
 18 19  1  0  0  0  0
 19 22  1  0  0  0  0
 19 21  2  0  0  0  0
 20 21  1  0  0  0  0
 20 13  1  0  0  0  0
 22 27  1  0  0  0  0
 23 24  1  0  0  0  0
 23 22  2  0  0  0  0
 24 25  2  0  0  0  0
 25 26  1  0  0  0  0
 27 26  2  0  0  0  0
 28 25  1  0  0  0  0
 28 29  1  0  0  0  0
 29 30  1  0  0  0  0
 30 31  2  0  0  0  0
 32 31  1  0  0  0  0
 32 36  1  0  0  0  0
 33 32  2  0  0  0  0
 34 29  2  0  0  0  0
 34 33  1  0  0  0  0
 35 34  1  0  0  0  0
 37 18  1  0  0  0  0
 38 41  1  0  0  0  0
 38 37  1  0  0  0  0
 39 37  2  0  0  0  0
 40 38  1  0  0  0  0
 42 17  1  0  0  0  0
 42 43  1  0  0  0  0
 44 42  1  0  0  0  0
 45 46  1  0  0  0  0
 45  1  1  0  0  0  0
 46 55  1  0  0  0  0
 47 58  2  0  0  0  0
 48 53  1  0  0  0  0
 48 50  1  0  0  0  0
 49 59  1  1  0  0  0
 50 52  1  0  0  0  0
 51 56  1  0  0  0  0
 52 49  1  0  0  0  0
 53 57  1  0  0  0  0
 54 48  2  0  0  0  0
 55 54  1  0  0  0  0
 55 51  2  0  0  0  0
 56 50  2  0  0  0  0
 57 47  1  0  0  0  0
 57 49  1  0  0  0  0
 59 60  1  0  0  0  0
 59 61  2  0  0  0  0
 62 60  1  0  0  0  0
 64 65  2  0  0  0  0
 65 63  1  0  0  0  0
 66 72  2  0  0  0  0
 66 64  1  0  0  0  0
 67 60  1  6  0  0  0
 67 72  1  0  0  0  0
 68 67  1  0  0  0  0
 68 69  1  0  0  0  0
 69 70  1  0  0  0  0
 71 70  1  0  0  0  0
 71 63  2  0  0  0  0
 72 71  1  0  0  0  0
 73 83  1  0  0  0  0
 73 47  1  1  0  0  0
 74 75  1  0  0  0  0
 75 73  1  0  0  0  0
 75 77  1  0  0  0  0
 76 74  2  0  0  0  0
 79 78  1  6  0  0  0
 79 74  1  0  0  0  0
 79 81  1  0  0  0  0
 80 81  1  0  0  0  0
 81 82  1  0  0  0  0
 83 84  1  0  0  0  0
 83 86  1  0  0  0  0
 85 83  1  0  0  0  0
M  END
>  <MODEL>
2

>  <REMARK>
 VINA RESULT:   -11.591      1.705      2.167
 INTER + INTRA:         -28.964
 INTER:                 -24.127
 INTRA:                  -4.837
 UNBOUND:                -4.837
  Name = ligand
  24 active torsions:
  status: ('A' for Active; 'I' for Inactive)
    1  A    between atoms: C_3  and  C_27
    2  A    between atoms: C_3  and  O_74
    3  A    between atoms: C_6  and  C_19
    4  A    between atoms: C_7  and  C_8
    5  A    between atoms: C_7  and  C_54
    6  A    between atoms: C_7  and  N_68
    7  A    between atoms: C_10  and  C_20
    8  A    between atoms: C_14  and  C_19
    9  A    between atoms: C_17  and  O_74
   10  A    between atoms: C_19  and  N_71
   11  A    between atoms: C_21  and  N_62
   12  A    between atoms: C_29  and  C_31
   13  A    between atoms: C_31  and  O_75
   14  A    between atoms: C_32  and  O_75
   15  A    between atoms: C_36  and  N_66
   16  A    between atoms: C_38  and  N_70
   17  A    between atoms: C_39  and  C_53
   18  A    between atoms: C_40  and  C_41
   19  A    between atoms: C_44  and  O_78
   20  A    between atoms: C_47  and  O_78
   21  A    between atoms: C_54  and  C_55
   22  A    between atoms: C_54  and  C_56
   23  A    between atoms: C_54  and  C_57
   24  A    between atoms: C_58  and  N_71
                            x       y       z     vdW  Elec       q    Type
                         _______ _______ _______ _____ _____    ______ ____

>  <TORSDO>
F 19

$$$$
