=
 OpenBabel04082316253D

 65 71  0  0  1  0  0  0  0  0999 V2000
   61.4010   45.3750   55.6710 C   0  0  0  0  0  2  0  0  0  0  0  0
   61.2900   44.2720   56.7210 C   0  0  0  0  0  2  0  0  0  0  0  0
   63.1380   42.6280   56.5290 C   0  0  0  0  0  0  0  0  0  0  0  0
   61.8320   43.0210   56.2650 N   0  0  0  0  0  0  0  0  0  0  0  0
   63.9530   43.2930   57.1650 O   0  0  0  0  0  0  0  0  0  0  0  0
   61.2530   42.4180   55.7460 H   0  0  0  0  0  0  0  0  0  0  0  0
   64.4760   39.6310   54.6010 C   0  0  0  0  0  0  0  0  0  0  0  0
   64.2360   41.0410   54.8030 C   0  0  0  0  0  0  0  0  0  0  0  0
   63.5530   41.3180   55.9660 C   0  0  0  0  0  0  0  0  0  0  0  0
   63.9950   38.9330   55.6920 C   0  0  0  0  0  0  0  0  0  0  0  0
   65.0150   36.7090   55.3470 C   0  0  0  0  0  0  0  0  0  0  0  0
   63.3940   36.7670   56.7910 C   0  0  0  0  0  0  0  0  0  0  0  0
   65.0740   39.0480   53.3970 C   0  0  0  0  0  0  0  0  0  0  0  0
   66.1510   37.1440   54.4890 C   0  0  1  0  0  3  0  0  0  0  0  0
   64.6710   42.1120   53.8650 C   0  0  0  0  0  1  0  0  0  0  0  0
   62.4060   37.2190   57.7940 C   0  0  0  0  0  1  0  0  0  0  0  0
   64.8000   35.4790   55.7710 N   0  0  0  0  0  0  0  0  0  0  0  0
   63.7780   35.5180   56.6830 N   0  0  0  0  0  0  0  0  0  0  0  0
   65.7680   37.9700   53.3560 N   0  0  0  0  0  0  0  0  0  0  0  0
   64.1050   37.5690   55.9300 N   0  0  0  0  0  0  0  0  0  0  0  0
   63.1870   39.8970   56.8310 S   0  0  0  0  0  0  0  0  0  0  0  0
   63.5550   39.9770   51.6480 C   0  0  0  0  0  3  0  0  0  0  0  0
   65.9430   40.1950   51.3570 C   0  0  0  0  0  3  0  0  0  0  0  0
   63.3470   40.6390   50.4380 C   0  0  0  0  0  3  0  0  0  0  0  0
   65.7360   40.8570   50.1470 C   0  0  0  0  0  3  0  0  0  0  0  0
   64.8530   39.7550   52.1080 C   0  0  0  0  0  0  0  0  0  0  0  0
   64.4370   41.0790   49.6890 C   0  0  0  0  0  0  0  0  0  0  0  0
   64.1820   41.8940   48.1950 Cl  0  0  0  0  0  0  0  0  0  0  0  0
   67.2760   37.8020   55.2830 C   0  0  0  0  0  2  0  0  0  0  0  0
   68.5240   36.9560   55.2890 C   0  0  0  0  0  0  0  0  0  0  0  0
   69.0460   36.4520   54.3050 O   0  0  0  0  0  0  0  0  0  0  0  0
   68.1280   36.1030   57.4600 C   0  0  0  0  0  1  0  0  0  0  0  0
   68.9700   36.8500   56.5760 O   0  0  0  0  0  0  0  0  0  0  0  0
   62.6570   46.2320   55.8550 C   0  0  0  0  0  2  0  0  0  0  0  0
   62.4810   47.3570   56.8780 C   0  0  0  0  0  2  0  0  0  0  0  0
   63.1430   47.0630   58.2260 C   0  0  0  0  0  2  0  0  0  0  0  0
   64.1480   48.1550   58.6010 C   0  0  0  0  0  2  0  0  0  0  0  0
   64.7710   48.7880   57.3540 C   0  0  0  0  0  2  0  0  0  0  0  0
   66.2670   48.5150   57.2440 C   0  0  0  0  0  2  0  0  0  0  0  0
   67.1590   48.3250   54.9300 C   0  0  0  0  0  0  0  0  0  0  0  0
   66.6010   47.7570   56.0690 N   0  0  0  0  0  0  0  0  0  0  0  0
   67.4300   49.5150   54.7900 O   0  0  0  0  0  0  0  0  0  0  0  0
   66.4250   46.7880   56.0720 H   0  0  0  0  0  0  0  0  0  0  0  0
   67.4060   47.2970   53.8470 C   0  0  0  0  0  2  0  0  0  0  0  0
   66.3950   47.3550   52.8640 O   0  0  0  0  0  0  0  0  0  0  0  0
   66.9400   44.1420   51.1110 C   0  0  0  0  0  3  0  0  0  0  0  0
   66.5210   44.4400   49.8120 C   0  0  0  0  0  3  0  0  0  0  0  0
   66.8970   45.1170   52.1280 C   0  0  0  0  0  3  0  0  0  0  0  0
   66.0670   45.7210   49.5760 C   0  0  0  0  0  0  0  0  0  0  0  0
   66.0240   46.6800   50.5760 C   0  0  0  0  0  0  0  0  0  0  0  0
   66.4340   46.4100   51.8650 C   0  0  0  0  0  0  0  0  0  0  0  0
   65.5690   46.3300   48.3420 C   0  0  0  0  0  0  0  0  0  0  0  0
   65.4990   47.9160   49.9980 C   0  0  0  0  0  0  0  0  0  0  0  0
   65.2490   47.6300   48.6720 N   0  0  0  0  0  0  0  0  0  0  0  0
   65.4820   45.7450   47.2780 O   0  0  0  0  0  0  0  0  0  0  0  0
   65.3400   48.9510   50.6180 O   0  0  0  0  0  0  0  0  0  0  0  0
   63.4210   51.0910   47.0450 C   0  0  0  0  0  0  0  0  0  0  0  0
   65.4480   49.8940   47.9100 C   0  0  0  0  0  0  0  0  0  0  0  0
   62.7090   49.7690   46.9000 C   0  0  0  0  0  2  0  0  0  0  0  0
   63.2190   48.7480   47.9030 C   0  0  0  0  0  2  0  0  0  0  0  0
   64.7190   48.5750   47.7230 C   0  0  2  0  0  3  0  0  0  0  0  0
   64.7250   51.0230   47.5260 N   0  0  0  0  0  0  0  0  0  0  0  0
   62.8890   52.1480   46.7060 O   0  0  0  0  0  0  0  0  0  0  0  0
   66.6150   49.9610   48.2960 O   0  0  0  0  0  0  0  0  0  0  0  0
   65.1980   51.8810   47.6070 H   0  0  0  0  0  0  0  0  0  0  0  0
  1 34  1  0  0  0  0
  1  2  1  0  0  0  0
  3  5  2  0  0  0  0
  4  3  1  0  0  0  0
  4  2  1  0  0  0  0
  6  4  1  0  0  0  0
  7  8  1  0  0  0  0
  7 10  2  0  0  0  0
  8  9  2  0  0  0  0
  9  3  1  0  0  0  0
  9 21  1  0  0  0  0
 10 20  1  0  0  0  0
 10 21  1  0  0  0  0
 11 17  2  0  0  0  0
 11 20  1  0  0  0  0
 12 16  1  0  0  0  0
 13  7  1  0  0  0  0
 14 29  1  1  0  0  0
 14 11  1  0  0  0  0
 15  8  1  0  0  0  0
 17 18  1  0  0  0  0
 18 12  2  0  0  0  0
 19 13  2  0  0  0  0
 19 14  1  0  0  0  0
 20 12  1  0  0  0  0
 22 26  1  0  0  0  0
 23 26  2  0  0  0  0
 24 22  2  0  0  0  0
 25 23  1  0  0  0  0
 26 13  1  0  0  0  0
 27 25  2  0  0  0  0
 27 24  1  0  0  0  0
 28 27  1  0  0  0  0
 29 30  1  0  0  0  0
 30 33  1  0  0  0  0
 31 30  2  0  0  0  0
 33 32  1  0  0  0  0
 34 35  1  0  0  0  0
 35 36  1  0  0  0  0
 36 37  1  0  0  0  0
 38 37  1  0  0  0  0
 39 38  1  0  0  0  0
 40 41  1  0  0  0  0
 41 43  1  0  0  0  0
 41 39  1  0  0  0  0
 42 40  2  0  0  0  0
 44 40  1  0  0  0  0
 45 44  1  0  0  0  0
 46 48  1  0  0  0  0
 47 46  2  0  0  0  0
 49 47  1  0  0  0  0
 49 50  2  0  0  0  0
 50 51  1  0  0  0  0
 51 48  2  0  0  0  0
 51 45  1  0  0  0  0
 52 54  1  0  0  0  0
 52 49  1  0  0  0  0
 53 50  1  0  0  0  0
 53 56  2  0  0  0  0
 54 53  1  0  0  0  0
 55 52  2  0  0  0  0
 57 62  1  0  0  0  0
 58 64  2  0  0  0  0
 59 57  1  0  0  0  0
 59 60  1  0  0  0  0
 61 60  1  1  0  0  0
 61 58  1  0  0  0  0
 61 54  1  0  0  0  0
 62 65  1  0  0  0  0
 62 58  1  0  0  0  0
 63 57  2  0  0  0  0
M  END
>  <MODEL>
1

>  <REMARK>
 VINA RESULT:   -11.022      0.000      0.000
 INTER + INTRA:         -25.286
 INTER:                 -22.621
 INTRA:                  -2.665
 UNBOUND:                -2.665
  Name = 
  21 active torsions:
  status: ('A' for Active; 'I' for Inactive)
    1  A    between atoms: C_8  and  C_19
    2  A    between atoms: C_12  and  C_31
    3  A    between atoms: C_13  and  O_59
    4  A    between atoms: C_15  and  C_24
    5  A    between atoms: C_18  and  C_32
    6  A    between atoms: C_25  and  C_34
    7  A    between atoms: C_26  and  C_35
    8  A    between atoms: C_26  and  O_60
    9  A    between atoms: C_29  and  C_35
   10  A    between atoms: C_30  and  N_49
   11  A    between atoms: C_33  and  O_60
   12  A    between atoms: C_34  and  O_59
   13  A    between atoms: C_36  and  C_37
   14  A    between atoms: C_36  and  C_38
   15  A    between atoms: C_37  and  C_39
   16  A    between atoms: C_38  and  C_40
   17  A    between atoms: C_39  and  C_41
   18  A    between atoms: C_40  and  C_42
   19  A    between atoms: C_41  and  C_43
   20  A    between atoms: C_42  and  N_50
   21  A    between atoms: C_43  and  N_51
                            x       y       z     vdW  Elec       q    Type
                         _______ _______ _______ _____ _____    ______ ____

>  <TORSDO>
F 18

$$$$
=
 OpenBabel04082316253D

 65 71  0  0  1  0  0  0  0  0999 V2000
   62.5340   39.9970   53.5590 C   0  0  0  0  0  2  0  0  0  0  0  0
   63.4320   40.1860   54.7790 C   0  0  0  0  0  2  0  0  0  0  0  0
   64.2550   42.1770   56.0090 C   0  0  0  0  0  0  0  0  0  0  0  0
   63.2230   41.4520   55.4280 N   0  0  0  0  0  0  0  0  0  0  0  0
   65.4320   41.8240   56.0300 O   0  0  0  0  0  0  0  0  0  0  0  0
   62.3100   41.8180   55.4620 H   0  0  0  0  0  0  0  0  0  0  0  0
   63.5290   45.7360   57.1470 C   0  0  0  0  0  0  0  0  0  0  0  0
   64.0700   44.7490   56.2420 C   0  0  0  0  0  0  0  0  0  0  0  0
   63.8690   43.4540   56.6630 C   0  0  0  0  0  0  0  0  0  0  0  0
   62.8870   45.0900   58.1850 C   0  0  0  0  0  0  0  0  0  0  0  0
   61.6230   46.9450   59.2190 C   0  0  0  0  0  0  0  0  0  0  0  0
   61.7860   45.1500   60.4310 C   0  0  0  0  0  0  0  0  0  0  0  0
   63.7030   47.1840   57.0060 C   0  0  0  0  0  0  0  0  0  0  0  0
   61.5830   47.8420   58.0310 C   0  0  1  0  0  3  0  0  0  0  0  0
   64.7780   45.0690   54.9720 C   0  0  0  0  0  1  0  0  0  0  0  0
   61.9560   43.7490   60.8710 C   0  0  0  0  0  1  0  0  0  0  0  0
   61.0450   47.1810   60.3800 N   0  0  0  0  0  0  0  0  0  0  0  0
   61.1470   46.0480   61.1430 N   0  0  0  0  0  0  0  0  0  0  0  0
   62.8760   48.0770   57.4100 N   0  0  0  0  0  0  0  0  0  0  0  0
   62.1630   45.6740   59.2170 N   0  0  0  0  0  0  0  0  0  0  0  0
   63.0340   43.3990   58.1470 S   0  0  0  0  0  0  0  0  0  0  0  0
   64.8870   48.2370   55.0770 C   0  0  0  0  0  3  0  0  0  0  0  0
   66.1720   47.5500   57.0040 C   0  0  0  0  0  3  0  0  0  0  0  0
   66.0540   48.6890   54.4610 C   0  0  0  0  0  3  0  0  0  0  0  0
   67.3380   48.0020   56.3880 C   0  0  0  0  0  3  0  0  0  0  0  0
   64.9460   47.6670   56.3490 C   0  0  0  0  0  0  0  0  0  0  0  0
   67.2780   48.5720   55.1160 C   0  0  0  0  0  0  0  0  0  0  0  0
   68.7190   49.1290   54.3550 Cl  0  0  0  0  0  0  0  0  0  0  0  0
   60.5540   47.4030   56.9920 C   0  0  0  0  0  2  0  0  0  0  0  0
   59.1630   47.3550   57.5700 C   0  0  0  0  0  0  0  0  0  0  0  0
   58.6030   48.2730   58.1520 O   0  0  0  0  0  0  0  0  0  0  0  0
   59.4720   45.2260   56.5860 C   0  0  0  0  0  1  0  0  0  0  0  0
   58.6360   46.1170   57.3320 O   0  0  0  0  0  0  0  0  0  0  0  0
   62.6710   41.1420   52.5500 C   0  0  0  0  0  2  0  0  0  0  0  0
   61.6230   41.0970   51.4350 C   0  0  0  0  0  2  0  0  0  0  0  0
   62.2300   41.0800   50.0300 C   0  0  0  0  0  2  0  0  0  0  0  0
   62.9070   39.7390   49.7350 C   0  0  0  0  0  2  0  0  0  0  0  0
   63.5980   39.7540   48.3690 C   0  0  0  0  0  2  0  0  0  0  0  0
   65.0650   39.3440   48.4490 C   0  0  0  0  0  2  0  0  0  0  0  0
   66.3780   41.1680   49.5140 C   0  0  0  0  0  0  0  0  0  0  0  0
   65.9530   40.4720   48.3880 N   0  0  0  0  0  0  0  0  0  0  0  0
   66.0530   40.9110   50.6710 O   0  0  0  0  0  0  0  0  0  0  0  0
   66.2770   40.7650   47.5060 H   0  0  0  0  0  0  0  0  0  0  0  0
   67.3060   42.3090   49.1580 C   0  0  0  0  0  2  0  0  0  0  0  0
   66.5710   43.4770   48.8640 O   0  0  0  0  0  0  0  0  0  0  0  0
   66.8900   45.1630   52.1430 C   0  0  0  0  0  3  0  0  0  0  0  0
   66.4250   46.4500   51.8600 C   0  0  0  0  0  3  0  0  0  0  0  0
   66.9380   44.1720   51.1410 C   0  0  0  0  0  3  0  0  0  0  0  0
   66.0190   46.7000   50.5660 C   0  0  0  0  0  0  0  0  0  0  0  0
   66.0650   45.7260   49.5800 C   0  0  0  0  0  0  0  0  0  0  0  0
   66.5200   44.4500   49.8360 C   0  0  0  0  0  0  0  0  0  0  0  0
   65.4900   47.9260   49.9660 C   0  0  0  0  0  0  0  0  0  0  0  0
   65.5680   46.3140   48.3370 C   0  0  0  0  0  0  0  0  0  0  0  0
   65.2500   47.6200   48.6440 N   0  0  0  0  0  0  0  0  0  0  0  0
   65.3240   48.9680   50.5750 O   0  0  0  0  0  0  0  0  0  0  0  0
   65.4800   45.7150   47.2810 O   0  0  0  0  0  0  0  0  0  0  0  0
   63.4110   51.0850   47.0370 C   0  0  0  0  0  0  0  0  0  0  0  0
   65.4390   49.8920   47.9030 C   0  0  0  0  0  0  0  0  0  0  0  0
   62.7070   49.7600   46.8760 C   0  0  0  0  0  2  0  0  0  0  0  0
   63.2170   48.7330   47.8720 C   0  0  0  0  0  2  0  0  0  0  0  0
   64.7190   48.5700   47.7000 C   0  0  2  0  0  3  0  0  0  0  0  0
   64.7110   51.0200   47.5250 N   0  0  0  0  0  0  0  0  0  0  0  0
   62.8740   52.1410   46.7040 O   0  0  0  0  0  0  0  0  0  0  0  0
   66.6040   49.9630   48.2970 O   0  0  0  0  0  0  0  0  0  0  0  0
   65.1790   51.8810   47.6160 H   0  0  0  0  0  0  0  0  0  0  0  0
  1  2  1  0  0  0  0
  2  4  1  0  0  0  0
  3  5  2  0  0  0  0
  3  9  1  0  0  0  0
  4  6  1  0  0  0  0
  4  3  1  0  0  0  0
  7 10  2  0  0  0  0
  8  9  2  0  0  0  0
  8  7  1  0  0  0  0
  9 21  1  0  0  0  0
 10 20  1  0  0  0  0
 11 17  2  0  0  0  0
 12 16  1  0  0  0  0
 12 18  2  0  0  0  0
 13  7  1  0  0  0  0
 13 19  2  0  0  0  0
 14 29  1  6  0  0  0
 14 11  1  0  0  0  0
 15  8  1  0  0  0  0
 17 18  1  0  0  0  0
 19 14  1  0  0  0  0
 20 11  1  0  0  0  0
 20 12  1  0  0  0  0
 21 10  1  0  0  0  0
 22 26  1  0  0  0  0
 24 22  2  0  0  0  0
 24 27  1  0  0  0  0
 25 23  1  0  0  0  0
 26 23  2  0  0  0  0
 26 13  1  0  0  0  0
 27 25  2  0  0  0  0
 28 27  1  0  0  0  0
 29 30  1  0  0  0  0
 30 31  2  0  0  0  0
 32 33  1  0  0  0  0
 33 30  1  0  0  0  0
 34  1  1  0  0  0  0
 35 34  1  0  0  0  0
 36 35  1  0  0  0  0
 37 36  1  0  0  0  0
 38 39  1  0  0  0  0
 38 37  1  0  0  0  0
 40 42  2  0  0  0  0
 41 39  1  0  0  0  0
 41 40  1  0  0  0  0
 43 41  1  0  0  0  0
 44 40  1  0  0  0  0
 45 44  1  0  0  0  0
 45 51  1  0  0  0  0
 47 46  1  0  0  0  0
 48 46  2  0  0  0  0
 49 47  2  0  0  0  0
 50 51  2  0  0  0  0
 50 49  1  0  0  0  0
 51 48  1  0  0  0  0
 52 49  1  0  0  0  0
 52 55  2  0  0  0  0
 53 54  1  0  0  0  0
 53 50  1  0  0  0  0
 54 52  1  0  0  0  0
 56 53  2  0  0  0  0
 57 62  1  0  0  0  0
 58 64  2  0  0  0  0
 59 57  1  0  0  0  0
 59 60  1  0  0  0  0
 61 60  1  1  0  0  0
 61 58  1  0  0  0  0
 61 54  1  0  0  0  0
 62 65  1  0  0  0  0
 62 58  1  0  0  0  0
 63 57  2  0  0  0  0
M  END
>  <MODEL>
2

>  <REMARK>
 VINA RESULT:   -10.982      3.139      7.975
 INTER + INTRA:         -25.202
 INTER:                 -22.650
 INTRA:                  -2.553
 UNBOUND:                -2.665
  Name = 
  21 active torsions:
  status: ('A' for Active; 'I' for Inactive)
    1  A    between atoms: C_8  and  C_19
    2  A    between atoms: C_12  and  C_31
    3  A    between atoms: C_13  and  O_59
    4  A    between atoms: C_15  and  C_24
    5  A    between atoms: C_18  and  C_32
    6  A    between atoms: C_25  and  C_34
    7  A    between atoms: C_26  and  C_35
    8  A    between atoms: C_26  and  O_60
    9  A    between atoms: C_29  and  C_35
   10  A    between atoms: C_30  and  N_49
   11  A    between atoms: C_33  and  O_60
   12  A    between atoms: C_34  and  O_59
   13  A    between atoms: C_36  and  C_37
   14  A    between atoms: C_36  and  C_38
   15  A    between atoms: C_37  and  C_39
   16  A    between atoms: C_38  and  C_40
   17  A    between atoms: C_39  and  C_41
   18  A    between atoms: C_40  and  C_42
   19  A    between atoms: C_41  and  C_43
   20  A    between atoms: C_42  and  N_50
   21  A    between atoms: C_43  and  N_51
                            x       y       z     vdW  Elec       q    Type
                         _______ _______ _______ _____ _____    ______ ____

>  <TORSDO>
F 18

$$$$
