MODEL 1
REMARK VINA RESULT:   -11.022      0.000      0.000
REMARK INTER + INTRA:         -25.286
REMARK INTER:                 -22.621
REMARK INTRA:                  -2.665
REMARK UNBOUND:                -2.665
REMARK  Name = 
REMARK  21 active torsions:
REMARK  status: ('A' for Active; 'I' for Inactive)
REMARK    1  A    between atoms: C_8  and  C_19
REMARK    2  A    between atoms: C_12  and  C_31
REMARK    3  A    between atoms: C_13  and  O_59
REMARK    4  A    between atoms: C_15  and  C_24
REMARK    5  A    between atoms: C_18  and  C_32
REMARK    6  A    between atoms: C_25  and  C_34
REMARK    7  A    between atoms: C_26  and  C_35
REMARK    8  A    between atoms: C_26  and  O_60
REMARK    9  A    between atoms: C_29  and  C_35
REMARK   10  A    between atoms: C_30  and  N_49
REMARK   11  A    between atoms: C_33  and  O_60
REMARK   12  A    between atoms: C_34  and  O_59
REMARK   13  A    between atoms: C_36  and  C_37
REMARK   14  A    between atoms: C_36  and  C_38
REMARK   15  A    between atoms: C_37  and  C_39
REMARK   16  A    between atoms: C_38  and  C_40
REMARK   17  A    between atoms: C_39  and  C_41
REMARK   18  A    between atoms: C_40  and  C_42
REMARK   19  A    between atoms: C_41  and  C_43
REMARK   20  A    between atoms: C_42  and  N_50
REMARK   21  A    between atoms: C_43  and  N_51
REMARK                            x       y       z     vdW  Elec       q    Type
REMARK                         _______ _______ _______ _____ _____    ______ ____
ROOT
ATOM      1  C   UNL     1      61.401  45.375  55.671  0.00  0.00    +0.000 C 
ENDROOT
BRANCH   1   2
ATOM      2  C   UNL     1      61.290  44.272  56.721  0.00  0.00    +0.000 C 
BRANCH   2   4
ATOM      3  C   UNL     1      63.138  42.628  56.529  0.00  0.00    +0.000 C 
ATOM      4  N   UNL     1      61.832  43.021  56.265  0.00  0.00    +0.000 N 
ATOM      5  O   UNL     1      63.953  43.293  57.165  0.00  0.00    +0.000 OA
ATOM      6  H   UNL     1      61.253  42.418  55.746  0.00  0.00    +0.000 HD
BRANCH   3   9
ATOM      7  C   UNL     1      64.476  39.631  54.601  0.00  0.00    +0.000 A 
ATOM      8  C   UNL     1      64.236  41.041  54.803  0.00  0.00    +0.000 A 
ATOM      9  C   UNL     1      63.553  41.318  55.966  0.00  0.00    +0.000 A 
ATOM     10  C   UNL     1      63.995  38.933  55.692  0.00  0.00    +0.000 A 
ATOM     11  C   UNL     1      65.015  36.709  55.347  0.00  0.00    +0.000 A 
ATOM     12  C   UNL     1      63.394  36.767  56.791  0.00  0.00    +0.000 A 
ATOM     13  C   UNL     1      65.074  39.048  53.397  0.00  0.00    +0.000 C 
ATOM     14  C   UNL     1      66.151  37.144  54.489  0.00  0.00    +0.000 C 
ATOM     15  C   UNL     1      64.671  42.112  53.865  0.00  0.00    +0.000 C 
ATOM     16  C   UNL     1      62.406  37.219  57.794  0.00  0.00    +0.000 C 
ATOM     17  N   UNL     1      64.800  35.479  55.771  0.00  0.00    +0.000 NA
ATOM     18  N   UNL     1      63.778  35.518  56.683  0.00  0.00    +0.000 NA
ATOM     19  N   UNL     1      65.768  37.970  53.356  0.00  0.00    +0.000 NA
ATOM     20  N   UNL     1      64.105  37.569  55.930  0.00  0.00    +0.000 N 
ATOM     21  S   UNL     1      63.187  39.897  56.831  0.00  0.00    +0.000 S 
BRANCH  13  26
ATOM     22  C   UNL     1      63.555  39.977  51.648  0.00  0.00    +0.000 A 
ATOM     23  C   UNL     1      65.943  40.195  51.357  0.00  0.00    +0.000 A 
ATOM     24  C   UNL     1      63.347  40.639  50.438  0.00  0.00    +0.000 A 
ATOM     25  C   UNL     1      65.736  40.857  50.147  0.00  0.00    +0.000 A 
ATOM     26  C   UNL     1      64.853  39.755  52.108  0.00  0.00    +0.000 A 
ATOM     27  C   UNL     1      64.437  41.079  49.689  0.00  0.00    +0.000 A 
ATOM     28 CL   UNL     1      64.182  41.894  48.195  0.00  0.00    +0.000 Cl
ENDBRANCH  13  26
BRANCH  14  29
ATOM     29  C   UNL     1      67.276  37.802  55.283  0.00  0.00    +0.000 C 
BRANCH  29  30
ATOM     30  C   UNL     1      68.524  36.956  55.289  0.00  0.00    +0.000 C 
ATOM     31  O   UNL     1      69.046  36.452  54.305  0.00  0.00    +0.000 OA
BRANCH  30  33
ATOM     32  C   UNL     1      68.128  36.103  57.460  0.00  0.00    +0.000 C 
ATOM     33  O   UNL     1      68.970  36.850  56.576  0.00  0.00    +0.000 OA
ENDBRANCH  30  33
ENDBRANCH  29  30
ENDBRANCH  14  29
ENDBRANCH   3   9
ENDBRANCH   2   4
ENDBRANCH   1   2
BRANCH   1  34
ATOM     34  C   UNL     1      62.657  46.232  55.855  0.00  0.00    +0.000 C 
BRANCH  34  35
ATOM     35  C   UNL     1      62.481  47.357  56.878  0.00  0.00    +0.000 C 
BRANCH  35  36
ATOM     36  C   UNL     1      63.143  47.063  58.226  0.00  0.00    +0.000 C 
BRANCH  36  37
ATOM     37  C   UNL     1      64.148  48.155  58.601  0.00  0.00    +0.000 C 
BRANCH  37  38
ATOM     38  C   UNL     1      64.771  48.788  57.354  0.00  0.00    +0.000 C 
BRANCH  38  39
ATOM     39  C   UNL     1      66.267  48.515  57.244  0.00  0.00    +0.000 C 
BRANCH  39  41
ATOM     40  C   UNL     1      67.159  48.325  54.930  0.00  0.00    +0.000 C 
ATOM     41  N   UNL     1      66.601  47.757  56.069  0.00  0.00    +0.000 N 
ATOM     42  O   UNL     1      67.430  49.515  54.790  0.00  0.00    +0.000 OA
ATOM     43  H   UNL     1      66.425  46.788  56.072  0.00  0.00    +0.000 HD
BRANCH  40  44
ATOM     44  C   UNL     1      67.406  47.297  53.847  0.00  0.00    +0.000 C 
BRANCH  44  45
ATOM     45  O   UNL     1      66.395  47.355  52.864  0.00  0.00    +0.000 OA
BRANCH  45  51
ATOM     46  C   UNL     1      66.940  44.142  51.111  0.00  0.00    +0.000 A 
ATOM     47  C   UNL     1      66.521  44.440  49.812  0.00  0.00    +0.000 A 
ATOM     48  C   UNL     1      66.897  45.117  52.128  0.00  0.00    +0.000 A 
ATOM     49  C   UNL     1      66.067  45.721  49.576  0.00  0.00    +0.000 A 
ATOM     50  C   UNL     1      66.024  46.680  50.576  0.00  0.00    +0.000 A 
ATOM     51  C   UNL     1      66.434  46.410  51.865  0.00  0.00    +0.000 A 
ATOM     52  C   UNL     1      65.569  46.330  48.342  0.00  0.00    +0.000 C 
ATOM     53  C   UNL     1      65.499  47.916  49.998  0.00  0.00    +0.000 C 
ATOM     54  N   UNL     1      65.249  47.630  48.672  0.00  0.00    +0.000 N 
ATOM     55  O   UNL     1      65.482  45.745  47.278  0.00  0.00    +0.000 OA
ATOM     56  O   UNL     1      65.340  48.951  50.618  0.00  0.00    +0.000 OA
BRANCH  54  61
ATOM     57  C   UNL     1      63.421  51.091  47.045  0.00  0.00    +0.000 C 
ATOM     58  C   UNL     1      65.448  49.894  47.910  0.00  0.00    +0.000 C 
ATOM     59  C   UNL     1      62.709  49.769  46.900  0.00  0.00    +0.000 C 
ATOM     60  C   UNL     1      63.219  48.748  47.903  0.00  0.00    +0.000 C 
ATOM     61  C   UNL     1      64.719  48.575  47.723  0.00  0.00    +0.000 C 
ATOM     62  N   UNL     1      64.725  51.023  47.526  0.00  0.00    +0.000 N 
ATOM     63  O   UNL     1      62.889  52.148  46.706  0.00  0.00    +0.000 OA
ATOM     64  O   UNL     1      66.615  49.961  48.296  0.00  0.00    +0.000 OA
ATOM     65  H   UNL     1      65.198  51.881  47.607  0.00  0.00    +0.000 HD
ENDBRANCH  54  61
ENDBRANCH  45  51
ENDBRANCH  44  45
ENDBRANCH  40  44
ENDBRANCH  39  41
ENDBRANCH  38  39
ENDBRANCH  37  38
ENDBRANCH  36  37
ENDBRANCH  35  36
ENDBRANCH  34  35
ENDBRANCH   1  34
TORSDOF 18
ENDMDL
MODEL 2
REMARK VINA RESULT:   -10.982      3.139      7.975
REMARK INTER + INTRA:         -25.202
REMARK INTER:                 -22.650
REMARK INTRA:                  -2.553
REMARK UNBOUND:                -2.665
REMARK  Name = 
REMARK  21 active torsions:
REMARK  status: ('A' for Active; 'I' for Inactive)
REMARK    1  A    between atoms: C_8  and  C_19
REMARK    2  A    between atoms: C_12  and  C_31
REMARK    3  A    between atoms: C_13  and  O_59
REMARK    4  A    between atoms: C_15  and  C_24
REMARK    5  A    between atoms: C_18  and  C_32
REMARK    6  A    between atoms: C_25  and  C_34
REMARK    7  A    between atoms: C_26  and  C_35
REMARK    8  A    between atoms: C_26  and  O_60
REMARK    9  A    between atoms: C_29  and  C_35
REMARK   10  A    between atoms: C_30  and  N_49
REMARK   11  A    between atoms: C_33  and  O_60
REMARK   12  A    between atoms: C_34  and  O_59
REMARK   13  A    between atoms: C_36  and  C_37
REMARK   14  A    between atoms: C_36  and  C_38
REMARK   15  A    between atoms: C_37  and  C_39
REMARK   16  A    between atoms: C_38  and  C_40
REMARK   17  A    between atoms: C_39  and  C_41
REMARK   18  A    between atoms: C_40  and  C_42
REMARK   19  A    between atoms: C_41  and  C_43
REMARK   20  A    between atoms: C_42  and  N_50
REMARK   21  A    between atoms: C_43  and  N_51
REMARK                            x       y       z     vdW  Elec       q    Type
REMARK                         _______ _______ _______ _____ _____    ______ ____
ROOT
ATOM      1  C   UNL     1      62.534  39.997  53.559  0.00  0.00    +0.000 C 
ENDROOT
BRANCH   1   2
ATOM      2  C   UNL     1      63.432  40.186  54.779  0.00  0.00    +0.000 C 
BRANCH   2   4
ATOM      3  C   UNL     1      64.255  42.177  56.009  0.00  0.00    +0.000 C 
ATOM      4  N   UNL     1      63.223  41.452  55.428  0.00  0.00    +0.000 N 
ATOM      5  O   UNL     1      65.432  41.824  56.030  0.00  0.00    +0.000 OA
ATOM      6  H   UNL     1      62.310  41.818  55.462  0.00  0.00    +0.000 HD
BRANCH   3   9
ATOM      7  C   UNL     1      63.529  45.736  57.147  0.00  0.00    +0.000 A 
ATOM      8  C   UNL     1      64.070  44.749  56.242  0.00  0.00    +0.000 A 
ATOM      9  C   UNL     1      63.869  43.454  56.663  0.00  0.00    +0.000 A 
ATOM     10  C   UNL     1      62.887  45.090  58.185  0.00  0.00    +0.000 A 
ATOM     11  C   UNL     1      61.623  46.945  59.219  0.00  0.00    +0.000 A 
ATOM     12  C   UNL     1      61.786  45.150  60.431  0.00  0.00    +0.000 A 
ATOM     13  C   UNL     1      63.703  47.184  57.006  0.00  0.00    +0.000 C 
ATOM     14  C   UNL     1      61.583  47.842  58.031  0.00  0.00    +0.000 C 
ATOM     15  C   UNL     1      64.778  45.069  54.972  0.00  0.00    +0.000 C 
ATOM     16  C   UNL     1      61.956  43.749  60.871  0.00  0.00    +0.000 C 
ATOM     17  N   UNL     1      61.045  47.181  60.380  0.00  0.00    +0.000 NA
ATOM     18  N   UNL     1      61.147  46.048  61.143  0.00  0.00    +0.000 NA
ATOM     19  N   UNL     1      62.876  48.077  57.410  0.00  0.00    +0.000 NA
ATOM     20  N   UNL     1      62.163  45.674  59.217  0.00  0.00    +0.000 N 
ATOM     21  S   UNL     1      63.034  43.399  58.147  0.00  0.00    +0.000 S 
BRANCH  13  26
ATOM     22  C   UNL     1      64.887  48.237  55.077  0.00  0.00    +0.000 A 
ATOM     23  C   UNL     1      66.172  47.550  57.004  0.00  0.00    +0.000 A 
ATOM     24  C   UNL     1      66.054  48.689  54.461  0.00  0.00    +0.000 A 
ATOM     25  C   UNL     1      67.338  48.002  56.388  0.00  0.00    +0.000 A 
ATOM     26  C   UNL     1      64.946  47.667  56.349  0.00  0.00    +0.000 A 
ATOM     27  C   UNL     1      67.278  48.572  55.116  0.00  0.00    +0.000 A 
ATOM     28 CL   UNL     1      68.719  49.129  54.355  0.00  0.00    +0.000 Cl
ENDBRANCH  13  26
BRANCH  14  29
ATOM     29  C   UNL     1      60.554  47.403  56.992  0.00  0.00    +0.000 C 
BRANCH  29  30
ATOM     30  C   UNL     1      59.163  47.355  57.570  0.00  0.00    +0.000 C 
ATOM     31  O   UNL     1      58.603  48.273  58.152  0.00  0.00    +0.000 OA
BRANCH  30  33
ATOM     32  C   UNL     1      59.472  45.226  56.586  0.00  0.00    +0.000 C 
ATOM     33  O   UNL     1      58.636  46.117  57.332  0.00  0.00    +0.000 OA
ENDBRANCH  30  33
ENDBRANCH  29  30
ENDBRANCH  14  29
ENDBRANCH   3   9
ENDBRANCH   2   4
ENDBRANCH   1   2
BRANCH   1  34
ATOM     34  C   UNL     1      62.671  41.142  52.550  0.00  0.00    +0.000 C 
BRANCH  34  35
ATOM     35  C   UNL     1      61.623  41.097  51.435  0.00  0.00    +0.000 C 
BRANCH  35  36
ATOM     36  C   UNL     1      62.230  41.080  50.030  0.00  0.00    +0.000 C 
BRANCH  36  37
ATOM     37  C   UNL     1      62.907  39.739  49.735  0.00  0.00    +0.000 C 
BRANCH  37  38
ATOM     38  C   UNL     1      63.598  39.754  48.369  0.00  0.00    +0.000 C 
BRANCH  38  39
ATOM     39  C   UNL     1      65.065  39.344  48.449  0.00  0.00    +0.000 C 
BRANCH  39  41
ATOM     40  C   UNL     1      66.378  41.168  49.514  0.00  0.00    +0.000 C 
ATOM     41  N   UNL     1      65.953  40.472  48.388  0.00  0.00    +0.000 N 
ATOM     42  O   UNL     1      66.053  40.911  50.671  0.00  0.00    +0.000 OA
ATOM     43  H   UNL     1      66.277  40.765  47.506  0.00  0.00    +0.000 HD
BRANCH  40  44
ATOM     44  C   UNL     1      67.306  42.309  49.158  0.00  0.00    +0.000 C 
BRANCH  44  45
ATOM     45  O   UNL     1      66.571  43.477  48.864  0.00  0.00    +0.000 OA
BRANCH  45  51
ATOM     46  C   UNL     1      66.890  45.163  52.143  0.00  0.00    +0.000 A 
ATOM     47  C   UNL     1      66.425  46.450  51.860  0.00  0.00    +0.000 A 
ATOM     48  C   UNL     1      66.938  44.172  51.141  0.00  0.00    +0.000 A 
ATOM     49  C   UNL     1      66.019  46.700  50.566  0.00  0.00    +0.000 A 
ATOM     50  C   UNL     1      66.065  45.726  49.580  0.00  0.00    +0.000 A 
ATOM     51  C   UNL     1      66.520  44.450  49.836  0.00  0.00    +0.000 A 
ATOM     52  C   UNL     1      65.490  47.926  49.966  0.00  0.00    +0.000 C 
ATOM     53  C   UNL     1      65.568  46.314  48.337  0.00  0.00    +0.000 C 
ATOM     54  N   UNL     1      65.250  47.620  48.644  0.00  0.00    +0.000 N 
ATOM     55  O   UNL     1      65.324  48.968  50.575  0.00  0.00    +0.000 OA
ATOM     56  O   UNL     1      65.480  45.715  47.281  0.00  0.00    +0.000 OA
BRANCH  54  61
ATOM     57  C   UNL     1      63.411  51.085  47.037  0.00  0.00    +0.000 C 
ATOM     58  C   UNL     1      65.439  49.892  47.903  0.00  0.00    +0.000 C 
ATOM     59  C   UNL     1      62.707  49.760  46.876  0.00  0.00    +0.000 C 
ATOM     60  C   UNL     1      63.217  48.733  47.872  0.00  0.00    +0.000 C 
ATOM     61  C   UNL     1      64.719  48.570  47.700  0.00  0.00    +0.000 C 
ATOM     62  N   UNL     1      64.711  51.020  47.525  0.00  0.00    +0.000 N 
ATOM     63  O   UNL     1      62.874  52.141  46.704  0.00  0.00    +0.000 OA
ATOM     64  O   UNL     1      66.604  49.963  48.297  0.00  0.00    +0.000 OA
ATOM     65  H   UNL     1      65.179  51.881  47.616  0.00  0.00    +0.000 HD
ENDBRANCH  54  61
ENDBRANCH  45  51
ENDBRANCH  44  45
ENDBRANCH  40  44
ENDBRANCH  39  41
ENDBRANCH  38  39
ENDBRANCH  37  38
ENDBRANCH  36  37
ENDBRANCH  35  36
ENDBRANCH  34  35
ENDBRANCH   1  34
TORSDOF 18
ENDMDL
