0000
                    3D
 Structure written by MMmdl.
107113  0  0  1  0            999 V2000
   66.7770   45.2282   52.3855 C   0  0  0  0  0  0
   66.2904   46.4983   52.0702 C   0  0  0  0  0  0
   63.0381   44.7363   61.5028 C   0  0  0  0  0  0
   60.7767   45.5453   61.8304 C   0  0  0  0  0  0
   66.9380   44.2619   51.3860 C   0  0  0  0  0  0
   62.8041   43.7329   62.4403 C   0  0  0  0  0  0
   60.5590   44.5590   62.7896 C   0  0  0  0  0  0
   62.0172   45.6354   61.1809 C   0  0  0  0  0  0
   65.9521   46.7688   50.7456 C   0  0  0  0  0  0
   66.0865   45.8226   49.7638 C   0  0  0  0  0  0
   61.3612   46.4690   58.9626 C   0  0  0  0  0  0
   61.2704   45.2519   58.2206 C   0  0  0  0  0  0
   66.6094   44.5547   50.0480 C   0  0  0  0  0  0
   61.5747   43.6548   63.0926 C   0  0  0  0  0  0
   60.2380   45.3171   57.2575 C   0  0  0  0  0  0
   60.5696   47.4971   58.4190 C   0  0  0  0  0  0
   61.7148   49.4896   59.2935 C   0  0  0  0  0  0
   59.5823   49.7372   58.9676 C   0  0  0  0  0  0
   62.2100   46.6783   60.1638 C   0  0  0  0  0  0
   65.4362   48.0073   50.1210 C   0  0  0  0  0  0
   65.5954   46.4269   48.4941 C   0  0  0  0  0  0
   63.2865   51.1389   47.0218 C   0  0  0  0  0  0
   65.3608   50.0190   47.7312 C   0  0  0  0  0  0
   59.7741   44.3362   56.2959 C   0  0  0  0  0  0
   66.4426   41.3153   49.4234 C   0  0  0  0  0  0
   65.3324   48.5884   58.1564 C   0  0  0  0  0  0
   62.5360   49.7984   46.9282 C   0  0  0  0  0  0
   63.1128   48.7800   47.9261 C   0  0  0  0  0  0
   63.0792   48.8232   59.4948 C   0  0  2  0  0  0
   64.6484   48.6283   47.8047 C   0  0  2  0  0  0
   62.1888   44.0517   58.4288 C   0  0  0  0  0  0
   58.1141   49.4555   58.7346 C   0  0  0  0  0  0
   67.2665   48.1890   56.7954 C   0  0  0  0  0  0
   67.4592   42.4385   49.1667 C   0  0  0  0  0  0
   63.7991   48.4999   58.1488 C   0  0  0  0  0  0
   61.0162   40.6577   52.2939 C   0  0  0  0  0  0
   61.5748   39.3470   51.7101 C   0  0  0  0  0  0
   60.4544   40.5284   53.7214 C   0  0  0  0  0  0
   62.1979   39.5138   50.3071 C   0  0  0  0  0  0
   60.3742   41.8977   54.4191 C   0  0  0  0  0  0
   63.4354   40.4396   50.2718 C   0  0  0  0  0  0
   59.6979   41.8790   55.8064 C   0  0  0  0  0  0
   64.1526   40.4546   48.9079 C   0  0  0  0  0  0
   61.4121   50.7336   59.5767 N   0  0  0  0  0  0
   60.0474   50.8910   59.3724 N   0  0  0  0  0  0
   62.9956   47.6703   60.4034 N   0  0  0  0  0  0
   60.5994   48.8118   58.8445 N   0  0  0  0  0  0
   64.5672   51.0605   47.4280 N   0  0  0  0  0  0
   65.2540   47.7077   48.8039 N   0  0  0  0  0  0
   60.0020   43.0540   56.6300 N   0  0  0  0  0  0
   65.2397   41.4319   48.8338 N   0  0  0  0  0  0
   65.2168   49.0824   50.6764 O   0  0  0  0  0  0
   65.5314   45.8882   47.3868 O   0  0  0  0  0  0
   62.7945   52.2196   46.7198 O   0  0  0  0  0  0
   66.5578   50.2190   47.9198 O   0  0  0  0  0  0
   59.1924   44.6626   55.2605 O   0  0  0  0  0  0
   66.7613   40.3548   50.1226 O   0  0  0  0  0  0
   65.9698   49.0193   59.1209 O   0  0  0  0  0  0
   66.7932   43.6954   48.9794 O   0  0  0  0  0  0
   65.8601   48.1555   56.9968 O   0  0  0  0  0  0
   59.5946   46.9182   57.1190 S   0  0  0  0  0  0
   61.3139   42.4286   64.2804 Cl  0  0  0  0  0  0
   67.0434   44.9926   53.4070 H   0  0  0  0  0  0
   66.1779   47.2433   52.8453 H   0  0  0  0  0  0
   63.9946   44.7906   61.0032 H   0  0  0  0  0  0
   59.9761   46.2370   61.5969 H   0  0  0  0  0  0
   67.3261   43.2954   51.6758 H   0  0  0  0  0  0
   63.5869   43.0204   62.6644 H   0  0  0  0  0  0
   59.6047   44.4908   63.2925 H   0  0  0  0  0  0
   62.6232   49.4365   45.9037 H   0  0  0  0  0  0
   61.4785   49.9716   47.1176 H   0  0  0  0  0  0
   62.8493   49.0701   48.9415 H   0  0  0  0  0  0
   62.6305   47.8191   47.7698 H   0  0  0  0  0  0
   63.6783   49.5687   60.0217 H   0  0  0  0  0  0
   64.8514   48.2035   46.8209 H   0  0  0  0  0  0
   61.7750   43.3301   59.1338 H   0  0  0  0  0  0
   63.1680   44.3446   58.8095 H   0  0  0  0  0  0
   62.4080   43.5225   57.5019 H   0  0  0  0  0  0
   57.5094   50.3624   58.7928 H   0  0  0  0  0  0
   57.7188   48.7637   59.4786 H   0  0  0  0  0  0
   57.9256   49.0197   57.7606 H   0  0  0  0  0  0
   67.5031   47.8224   55.7964 H   0  0  0  0  0  0
   67.7846   47.5581   57.5187 H   0  0  0  0  0  0
   67.6521   49.2053   56.8810 H   0  0  0  0  0  0
   67.9795   42.1934   48.2427 H   0  0  0  0  0  0
   68.2398   42.4633   49.9275 H   0  0  0  0  0  0
   63.5058   47.5233   57.7669 H   0  0  0  0  0  0
   63.4733   49.2222   57.4013 H   0  0  0  0  0  0
   61.8080   41.4057   52.3019 H   0  0  0  0  0  0
   60.2367   41.0394   51.6342 H   0  0  0  0  0  0
   60.7722   38.6091   51.6566 H   0  0  0  0  0  0
   62.3205   38.9269   52.3866 H   0  0  0  0  0  0
   59.4726   40.0534   53.6878 H   0  0  0  0  0  0
   61.0918   39.8711   54.3159 H   0  0  0  0  0  0
   61.4354   39.8842   49.6137 H   0  0  0  0  0  0
   62.4852   38.5272   49.9376 H   0  0  0  0  0  0
   61.3878   42.2939   54.5203 H   0  0  0  0  0  0
   59.8449   42.6007   53.7715 H   0  0  0  0  0  0
   64.1443   40.1302   51.0426 H   0  0  0  0  0  0
   63.1413   41.4615   50.5186 H   0  0  0  0  0  0
   58.6170   41.7623   55.7013 H   0  0  0  0  0  0
   60.0390   41.0049   56.3657 H   0  0  0  0  0  0
   63.4325   40.6999   48.1266 H   0  0  0  0  0  0
   64.5277   39.4581   48.6643 H   0  0  0  0  0  0
   65.0575   51.9446   47.4407 H   0  0  0  0  0  0
   60.4847   42.8764   57.4984 H   0  0  0  0  0  0
   65.0556   42.2769   48.3113 H   0  0  0  0  0  0
  1  2  1  0  0  0
  1  5  2  0  0  0
  1 63  1  0  0  0
  2  9  2  0  0  0
  2 64  1  0  0  0
  3  6  2  0  0  0
  3  8  1  0  0  0
  3 65  1  0  0  0
  4  7  1  0  0  0
  4  8  2  0  0  0
  4 66  1  0  0  0
  5 13  1  0  0  0
  5 67  1  0  0  0
  6 14  1  0  0  0
  6 68  1  0  0  0
  7 14  2  0  0  0
  7 69  1  0  0  0
  8 19  1  0  0  0
  9 10  1  0  0  0
  9 20  1  0  0  0
 10 13  2  0  0  0
 10 21  1  0  0  0
 11 12  1  0  0  0
 11 16  2  0  0  0
 11 19  1  0  0  0
 12 15  2  0  0  0
 12 31  1  0  0  0
 13 59  1  0  0  0
 14 62  1  0  0  0
 15 24  1  0  0  0
 15 61  1  0  0  0
 16 47  1  0  0  0
 16 61  1  0  0  0
 17 29  1  0  0  0
 17 44  2  0  0  0
 17 47  1  0  0  0
 18 32  1  0  0  0
 18 45  2  0  0  0
 18 47  1  0  0  0
 19 46  2  0  0  0
 20 49  1  0  0  0
 20 52  2  0  0  0
 21 49  1  0  0  0
 21 53  2  0  0  0
 22 27  1  0  0  0
 22 48  1  0  0  0
 22 54  2  0  0  0
 23 30  1  0  0  0
 23 48  1  0  0  0
 23 55  2  0  0  0
 24 50  1  0  0  0
 24 56  2  0  0  0
 25 34  1  0  0  0
 25 51  1  0  0  0
 25 57  2  0  0  0
 26 35  1  0  0  0
 26 58  2  0  0  0
 26 60  1  0  0  0
 27 28  1  0  0  0
 27 70  1  0  0  0
 27 71  1  0  0  0
 28 30  1  0  0  0
 28 72  1  0  0  0
 28 73  1  0  0  0
 29 35  1  0  0  0
 29 46  1  0  0  0
 29 74  1  0  0  0
 30 49  1  0  0  0
 30 75  1  0  0  0
 31 76  1  0  0  0
 31 77  1  0  0  0
 31 78  1  0  0  0
 32 79  1  0  0  0
 32 80  1  0  0  0
 32 81  1  0  0  0
 33 60  1  0  0  0
 33 82  1  0  0  0
 33 83  1  0  0  0
 33 84  1  0  0  0
 34 59  1  0  0  0
 34 85  1  0  0  0
 34 86  1  0  0  0
 35 87  1  0  0  0
 35 88  1  0  0  0
 36 37  1  0  0  0
 36 38  1  0  0  0
 36 89  1  0  0  0
 36 90  1  0  0  0
 37 39  1  0  0  0
 37 91  1  0  0  0
 37 92  1  0  0  0
 38 40  1  0  0  0
 38 93  1  0  0  0
 38 94  1  0  0  0
 39 41  1  0  0  0
 39 95  1  0  0  0
 39 96  1  0  0  0
 40 42  1  0  0  0
 40 97  1  0  0  0
 40 98  1  0  0  0
 41 43  1  0  0  0
 41 99  1  0  0  0
 41100  1  0  0  0
 42 50  1  0  0  0
 42101  1  0  0  0
 42102  1  0  0  0
 43 51  1  0  0  0
 43103  1  0  0  0
 43104  1  0  0  0
 44 45  1  0  0  0
 48105  1  0  0  0
 50106  1  0  0  0
 51107  1  0  0  0
M  END
> <s_m_entry_id>
25

> <s_m_entry_name>
0000.1

> <s_m_Source_Path>
/mnt/home/boqing/Schrodinger_Projects/6BN7

> <s_m_Source_File>
0000.sdf

> <i_m_Source_File_Index>
1

> <s_m_job_name>
glide-dock_SP_0000_h

> <s_i_glide_gridfile>
glide-grid_crystal_ligand

> <i_i_glide_lignum>
1

> <i_i_glide_rotatable_bonds>
20

> <r_i_docking_score>
-13.4807600465935

> <r_i_glide_ligand_efficiency>
-0.217431613654734

> <r_i_glide_ligand_efficiency_sa>
-0.860570758179445

> <r_i_glide_ligand_efficiency_ln>
-2.62929719297282

> <r_i_glide_gscore>
-13.4807600465935

> <r_i_glide_evdw>
-78.2047271728516

> <r_i_glide_ecoul>
-14.8733720779419

> <r_i_glide_energy>
-93.0780992507935

> <r_i_glide_einternal>
13.3892021179199

> <r_i_glide_emodel>
-160.026288631838

> <r_i_glide_intrahb_reward>
0

> <i_i_glide_confnum>
220

> <i_i_glide_posenum>
396

> <r_i_glide_eff_state_penalty>
0

> <chiral flag>
1

> <version>
0

> <Batch ID>
0

> <Smiles>
COC(=O)C[C@@H]1N=C(c2ccc(Cl)cc2)c2c(sc([100C](=O)[101NH]CCCCCCCCNC(=O)C[100O][101c]3cccc4c3C(=O)N([C@H]3CCC(=O)NC3=O)C4=O)c2C)-n2c(C)nnc21

> <Shape>
0.402

> <Color>
0.16

> <Negative vol penalty>
0

> <r_i_glide_lipo>
-3.03017371524372

> <r_i_glide_hbond>
-1.24526370592013

> <r_i_glide_metal>
0

> <r_i_glide_rewards>
-3.27666666666667

> <r_i_glide_erotb>
0.221977836980845

> <r_i_glide_esite>
-0.00939162540995452

> <s_m_subgroup_title>
glide-dock_SP_0000_h_pv1

> <s_m_subgroupid>
glide-dock_SP_0000_h_pv1

> <b_m_subgroup_collapsed>
0

$$$$
