ligand
                    3D
 Structure written by MMmdl.
107113  0  0  1  0            999 V2000
   -8.8278    1.8013   -3.1374 N   0  0  0  0  0  0
   -6.6135    2.9454   -3.2205 C   0  0  0  0  0  0
  -12.0854   -2.0042    1.1772 O   0  0  0  0  0  0
   -7.6690    2.0641   -2.5859 C   0  0  0  0  0  0
   -9.0058    3.1049    4.9139 C   0  0  0  0  0  0
   -8.3393    4.3261    4.8476 C   0  0  0  0  0  0
   -7.5894    4.6619    3.7230 C   0  0  0  0  0  0
   -7.5011    3.7692    2.6585 C   0  0  0  0  0  0
   -6.7079    1.4522    0.9658 C   0  0  0  0  0  0
   -6.5227    1.4313   -0.4378 C   0  0  0  0  0  0
   -4.3747    1.3671    0.8073 C   0  0  0  0  0  0
   -2.9681    1.2835    1.1313 C   0  0  0  0  0  0
   -0.7194    2.1636    0.5044 C   0  0  0  0  0  0
    0.0284    0.9592   -0.1050 C   0  0  0  0  0  0
   -8.7627    0.7882   -1.2088 C   0  0  0  0  0  0
    1.5625    1.1099   -0.1220 C   0  0  0  0  0  0
    2.2149    1.1111    1.2742 C   0  0  0  0  0  0
    3.7524    1.1659    1.2164 C   0  0  0  0  0  0
    4.4069    1.1547    2.6096 C   0  0  0  0  0  0
    5.9449    1.1966    2.5530 C   0  0  0  0  0  0
    6.5957    1.1741    3.9501 C   0  0  0  0  0  0
    8.8549    2.1914    3.6604 C   0  0  0  0  0  0
   10.3613    1.9014    3.6790 C   0  0  0  0  0  0
   12.4611    3.1046    3.7539 C   0  0  0  0  0  0
   13.2406    1.9361    3.8576 C   0  0  0  0  0  0
   -9.0909    0.0309    0.0811 C   0  0  2  0  0  0
   14.6311    2.0191    3.9930 C   0  0  0  0  0  0
   15.2639    3.2642    4.0242 C   0  0  0  0  0  0
   14.4818    4.4136    3.9165 C   0  0  0  0  0  0
   14.8675    5.8457    3.9222 C   0  0  0  0  0  0
   13.5561    8.0236    3.7471 C   0  0  1  0  0  0
   13.6925    8.7603    5.1009 C   0  0  0  0  0  0
   15.1459    9.0601    5.5129 C   0  0  0  0  0  0
   15.9606    9.6683    4.3500 C   0  0  0  0  0  0
   14.4475    8.6778    2.6520 C   0  0  0  0  0  0
   13.1215    4.3391    3.7837 C   0  0  0  0  0  0
  -10.4373   -0.7401   -0.0092 C   0  0  0  0  0  0
   12.6028    5.7309    3.7004 C   0  0  0  0  0  0
   -5.4766    1.3408    1.6823 C   0  0  0  0  0  0
   -5.3574    1.2139    3.1994 C   0  0  0  0  0  0
  -10.7859   -1.6447    1.1847 C   0  0  0  0  0  0
  -12.6101   -2.8370    2.2010 C   0  0  0  0  0  0
   -8.0627    1.5744    1.5886 C   0  0  0  0  0  0
   -8.1569    2.5299    2.7162 C   0  0  0  0  0  0
   -8.9181    2.2102    3.8507 C   0  0  0  0  0  0
   -9.5322    0.9932   -2.2525 N   0  0  0  0  0  0
   -9.1267    0.9529    1.2160 N   0  0  0  0  0  0
   -2.1728    2.0684    0.3786 N   0  0  0  0  0  0
    8.0572    1.1385    3.9139 N   0  0  0  0  0  0
   13.6986    6.5389    3.7767 N   0  0  0  0  0  0
   15.5123    9.3809    3.1051 N   0  0  0  0  0  0
   -7.5547    1.4366   -1.3610 N   0  0  0  0  0  0
   -9.9504   -1.9697    2.0323 O   0  0  0  0  0  0
   11.0856    3.1297    3.6207 O   0  0  0  0  0  0
   14.2137    8.5731    1.4497 O   0  0  0  0  0  0
   16.9621   10.3583    4.5268 O   0  0  0  0  0  0
   16.0053    6.3024    4.0317 O   0  0  0  0  0  0
   11.4266    6.0807    3.5893 O   0  0  0  0  0  0
    8.4273    3.3239    3.4275 O   0  0  0  0  0  0
   -2.5537    0.5617    2.0387 O   0  0  0  0  0  0
   -4.8491    1.3662   -0.8623 S   0  0  0  0  0  0
   -8.4451    5.4327    6.1677 Cl  0  0  0  0  0  0
   -7.0043    3.5113   -4.0668 H   0  0  0  0  0  0
   -6.2152    3.6727   -2.5127 H   0  0  0  0  0  0
   -5.7734    2.3598   -3.5934 H   0  0  0  0  0  0
   -9.5887    2.8484    5.7865 H   0  0  0  0  0  0
   -7.0769    5.6114    3.6730 H   0  0  0  0  0  0
   -6.9185    4.0506    1.7926 H   0  0  0  0  0  0
   -0.4079    3.0767   -0.0041 H   0  0  0  0  0  0
   -0.4467    2.2979    1.5527 H   0  0  0  0  0  0
   -0.3137    0.8168   -1.1314 H   0  0  0  0  0  0
   -0.2411    0.0455    0.4272 H   0  0  0  0  0  0
    1.8345    2.0206   -0.6576 H   0  0  0  0  0  0
    1.9806    0.2867   -0.7033 H   0  0  0  0  0  0
    1.9054    0.2170    1.8179 H   0  0  0  0  0  0
    1.8500    1.9621    1.8505 H   0  0  0  0  0  0
    4.0623    2.0627    0.6776 H   0  0  0  0  0  0
    4.1224    0.3187    0.6369 H   0  0  0  0  0  0
    4.0900    0.2607    3.1488 H   0  0  0  0  0  0
    4.0425    2.0056    3.1875 H   0  0  0  0  0  0
    6.2616    2.0924    2.0170 H   0  0  0  0  0  0
    6.3083    0.3484    1.9708 H   0  0  0  0  0  0
    6.2616    0.2868    4.4888 H   0  0  0  0  0  0
    6.2544    2.0263    4.5415 H   0  0  0  0  0  0
   10.6146    1.2810    2.8176 H   0  0  0  0  0  0
   10.6067    1.3541    4.5915 H   0  0  0  0  0  0
   12.7861    0.9574    3.8341 H   0  0  0  0  0  0
   -8.3126   -0.7195    0.2478 H   0  0  0  0  0  0
   15.2181    1.1161    4.0741 H   0  0  0  0  0  0
   16.3378    3.3204    4.1294 H   0  0  0  0  0  0
   12.5428    8.2330    3.3993 H   0  0  0  0  0  0
   13.1947    8.1921    5.8879 H   0  0  0  0  0  0
   13.1463    9.7040    5.0421 H   0  0  0  0  0  0
   15.6546    8.1558    5.8461 H   0  0  0  0  0  0
   15.1618    9.7535    6.3547 H   0  0  0  0  0  0
  -10.4292   -1.3732   -0.8970 H   0  0  0  0  0  0
  -11.2530   -0.0297   -0.1511 H   0  0  0  0  0  0
   -4.5846    0.5106    3.5041 H   0  0  0  0  0  0
   -5.1192    2.1706    3.6644 H   0  0  0  0  0  0
   -6.2669    0.8413    3.6687 H   0  0  0  0  0  0
  -13.6709   -3.0141    2.0237 H   0  0  0  0  0  0
  -12.1044   -3.8036    2.2184 H   0  0  0  0  0  0
  -12.5045   -2.3696    3.1812 H   0  0  0  0  0  0
   -9.4379    1.2648    3.9214 H   0  0  0  0  0  0
   -2.5967    2.6289   -0.3461 H   0  0  0  0  0  0
    8.4845    0.2400    4.0865 H   0  0  0  0  0  0
   16.0722    9.7868    2.3697 H   0  0  0  0  0  0
  1  4  2  0  0  0
  1 46  1  0  0  0
  2  4  1  0  0  0
  2 63  1  0  0  0
  2 64  1  0  0  0
  2 65  1  0  0  0
  3 41  1  0  0  0
  3 42  1  0  0  0
  4 52  1  0  0  0
  5  6  1  0  0  0
  5 45  2  0  0  0
  5 66  1  0  0  0
  6  7  2  0  0  0
  6 62  1  0  0  0
  7  8  1  0  0  0
  7 67  1  0  0  0
  8 44  2  0  0  0
  8 68  1  0  0  0
  9 10  2  0  0  0
  9 39  1  0  0  0
  9 43  1  0  0  0
 10 52  1  0  0  0
 10 61  1  0  0  0
 11 12  1  0  0  0
 11 39  2  0  0  0
 11 61  1  0  0  0
 12 48  1  0  0  0
 12 60  2  0  0  0
 13 14  1  0  0  0
 13 48  1  0  0  0
 13 69  1  0  0  0
 13 70  1  0  0  0
 14 16  1  0  0  0
 14 71  1  0  0  0
 14 72  1  0  0  0
 15 26  1  0  0  0
 15 46  2  0  0  0
 15 52  1  0  0  0
 16 17  1  0  0  0
 16 73  1  0  0  0
 16 74  1  0  0  0
 17 18  1  0  0  0
 17 75  1  0  0  0
 17 76  1  0  0  0
 18 19  1  0  0  0
 18 77  1  0  0  0
 18 78  1  0  0  0
 19 20  1  0  0  0
 19 79  1  0  0  0
 19 80  1  0  0  0
 20 21  1  0  0  0
 20 81  1  0  0  0
 20 82  1  0  0  0
 21 49  1  0  0  0
 21 83  1  0  0  0
 21 84  1  0  0  0
 22 23  1  0  0  0
 22 49  1  0  0  0
 22 59  2  0  0  0
 23 54  1  0  0  0
 23 85  1  0  0  0
 23 86  1  0  0  0
 24 25  2  0  0  0
 24 36  1  0  0  0
 24 54  1  0  0  0
 25 27  1  0  0  0
 25 87  1  0  0  0
 26 37  1  0  0  0
 26 47  1  0  0  0
 26 88  1  0  0  0
 27 28  2  0  0  0
 27 89  1  0  0  0
 28 29  1  0  0  0
 28 90  1  0  0  0
 29 30  1  0  0  0
 29 36  2  0  0  0
 30 50  1  0  0  0
 30 57  2  0  0  0
 31 32  1  0  0  0
 31 35  1  0  0  0
 31 50  1  0  0  0
 31 91  1  0  0  0
 32 33  1  0  0  0
 32 92  1  0  0  0
 32 93  1  0  0  0
 33 34  1  0  0  0
 33 94  1  0  0  0
 33 95  1  0  0  0
 34 51  1  0  0  0
 34 56  2  0  0  0
 35 51  1  0  0  0
 35 55  2  0  0  0
 36 38  1  0  0  0
 37 41  1  0  0  0
 37 96  1  0  0  0
 37 97  1  0  0  0
 38 50  1  0  0  0
 38 58  2  0  0  0
 39 40  1  0  0  0
 40 98  1  0  0  0
 40 99  1  0  0  0
 40100  1  0  0  0
 41 53  2  0  0  0
 42101  1  0  0  0
 42102  1  0  0  0
 42103  1  0  0  0
 43 44  1  0  0  0
 43 47  2  0  0  0
 44 45  1  0  0  0
 45104  1  0  0  0
 48105  1  0  0  0
 49106  1  0  0  0
 51107  1  0  0  0
M  END
> <s_m_entry_id>
14

> <s_m_entry_name>
6bn7.1_mol4

> <s_m_source_file>
ligprep_1.maegz

> <i_m_source_file_index>
1

> <i_lp_mmshare_version>
38013

> <i_f3d_flags>
0

> <s_lp_Force_Field>
OPLS3

> <r_lp_Energy>
67.4221447025328

> <b_lp_Chiralities_Consistent>
1

> <s_lp_Variant>
ligand-1

> <s_m_job_name>
ligprep_1

> <s_m_subgroup_title>
ligprep_1-out1

> <s_m_subgroupid>
ligprep_1-out1

> <b_m_subgroup_collapsed>
0

$$$$
