REMARK  Name = ligand
REMARK  21 active torsions:
REMARK  status: ('A' for Active; 'I' for Inactive)
REMARK    1  A    between atoms: C_2  and  C_4
REMARK    2  A    between atoms: O_3  and  C_41
REMARK    3  A    between atoms: O_3  and  C_42
REMARK    4  A    between atoms: C_11  and  C_12
REMARK    5  A    between atoms: C_13  and  C_14
REMARK    6  A    between atoms: C_13  and  N_48
REMARK    7  A    between atoms: C_14  and  C_16
REMARK    8  A    between atoms: C_16  and  C_17
REMARK    9  A    between atoms: C_17  and  C_18
REMARK   10  A    between atoms: C_18  and  C_19
REMARK   11  A    between atoms: C_19  and  C_20
REMARK   12  A    between atoms: C_20  and  C_21
REMARK   13  A    between atoms: C_21  and  N_49
REMARK   14  A    between atoms: C_22  and  C_23
REMARK   15  A    between atoms: C_23  and  O_54
REMARK   16  A    between atoms: C_24  and  O_54
REMARK   17  A    between atoms: C_26  and  C_37
REMARK   18  A    between atoms: C_31  and  N_50
REMARK   19  A    between atoms: C_37  and  C_41
REMARK   20  A    between atoms: C_39  and  C_40
REMARK   21  A    between atoms: C_43  and  C_44
REMARK                            x       y       z     vdW  Elec       q    Type
REMARK                         _______ _______ _______ _____ _____    ______ ____
ROOT
ATOM      1  C   UNL     1       0.028   0.959  -0.105  0.00  0.00    +0.000 C 
ENDROOT
BRANCH   1   2
ATOM      2  C   UNL     1       1.562   1.110  -0.122  0.00  0.00    +0.000 C 
BRANCH   2   3
ATOM      3  C   UNL     1       2.215   1.111   1.274  0.00  0.00    +0.000 C 
BRANCH   3   4
ATOM      4  C   UNL     1       3.752   1.166   1.216  0.00  0.00    +0.000 C 
BRANCH   4   5
ATOM      5  C   UNL     1       4.407   1.155   2.610  0.00  0.00    +0.000 C 
BRANCH   5   6
ATOM      6  C   UNL     1       5.945   1.197   2.553  0.00  0.00    +0.000 C 
BRANCH   6   7
ATOM      7  C   UNL     1       6.596   1.174   3.950  0.00  0.00    +0.000 C 
BRANCH   7   9
ATOM      8  C   UNL     1       8.855   2.191   3.660  0.00  0.00    +0.000 C 
ATOM      9  N   UNL     1       8.057   1.139   3.914  0.00  0.00    +0.000 N 
ATOM     10  O   UNL     1       8.427   3.324   3.428  0.00  0.00    +0.000 OA
ATOM     11  H   UNL     1       8.485   0.240   4.087  0.00  0.00    +0.000 HD
BRANCH   8  12
ATOM     12  C   UNL     1      10.361   1.901   3.679  0.00  0.00    +0.000 C 
BRANCH  12  13
ATOM     13  O   UNL     1      11.086   3.130   3.621  0.00  0.00    +0.000 OA
BRANCH  13  14
ATOM     14  C   UNL     1      12.461   3.105   3.754  0.00  0.00    +0.000 A 
ATOM     15  C   UNL     1      13.241   1.936   3.858  0.00  0.00    +0.000 A 
ATOM     16  C   UNL     1      14.631   2.019   3.993  0.00  0.00    +0.000 A 
ATOM     17  C   UNL     1      15.264   3.264   4.024  0.00  0.00    +0.000 A 
ATOM     18  C   UNL     1      14.482   4.414   3.917  0.00  0.00    +0.000 A 
ATOM     19  C   UNL     1      14.867   5.846   3.922  0.00  0.00    +0.000 C 
ATOM     20  C   UNL     1      13.121   4.339   3.784  0.00  0.00    +0.000 A 
ATOM     21  C   UNL     1      12.603   5.731   3.700  0.00  0.00    +0.000 C 
ATOM     22  N   UNL     1      13.699   6.539   3.777  0.00  0.00    +0.000 N 
ATOM     23  O   UNL     1      16.005   6.302   4.032  0.00  0.00    +0.000 OA
ATOM     24  O   UNL     1      11.427   6.081   3.589  0.00  0.00    +0.000 OA
BRANCH  22  25
ATOM     25  C   UNL     1      13.556   8.024   3.747  0.00  0.00    +0.000 C 
ATOM     26  C   UNL     1      13.693   8.760   5.101  0.00  0.00    +0.000 C 
ATOM     27  C   UNL     1      15.146   9.060   5.513  0.00  0.00    +0.000 C 
ATOM     28  C   UNL     1      15.961   9.668   4.350  0.00  0.00    +0.000 C 
ATOM     29  C   UNL     1      14.447   8.678   2.652  0.00  0.00    +0.000 C 
ATOM     30  N   UNL     1      15.512   9.381   3.105  0.00  0.00    +0.000 N 
ATOM     31  O   UNL     1      14.214   8.573   1.450  0.00  0.00    +0.000 OA
ATOM     32  O   UNL     1      16.962  10.358   4.527  0.00  0.00    +0.000 OA
ATOM     33  H   UNL     1      16.072   9.787   2.370  0.00  0.00    +0.000 HD
ENDBRANCH  22  25
ENDBRANCH  13  14
ENDBRANCH  12  13
ENDBRANCH   8  12
ENDBRANCH   7   9
ENDBRANCH   6   7
ENDBRANCH   5   6
ENDBRANCH   4   5
ENDBRANCH   3   4
ENDBRANCH   2   3
ENDBRANCH   1   2
BRANCH   1  34
ATOM     34  C   UNL     1      -0.719   2.164   0.504  0.00  0.00    +0.000 C 
BRANCH  34  36
ATOM     35  C   UNL     1      -2.968   1.284   1.131  0.00  0.00    +0.000 C 
ATOM     36  N   UNL     1      -2.173   2.068   0.379  0.00  0.00    +0.000 N 
ATOM     37  O   UNL     1      -2.554   0.562   2.039  0.00  0.00    +0.000 OA
ATOM     38  H   UNL     1      -2.597   2.629  -0.346  0.00  0.00    +0.000 HD
BRANCH  35  44
ATOM     39  N   UNL     1      -8.828   1.801  -3.137  0.00  0.00    +0.000 NA
ATOM     40  C   UNL     1      -6.614   2.945  -3.220  0.00  0.00    +0.000 C 
ATOM     41  C   UNL     1      -7.669   2.064  -2.586  0.00  0.00    +0.000 A 
ATOM     42  C   UNL     1      -6.708   1.452   0.966  0.00  0.00    +0.000 A 
ATOM     43  C   UNL     1      -6.523   1.431  -0.438  0.00  0.00    +0.000 A 
ATOM     44  C   UNL     1      -4.375   1.367   0.807  0.00  0.00    +0.000 A 
ATOM     45  C   UNL     1      -8.763   0.788  -1.209  0.00  0.00    +0.000 A 
ATOM     46  C   UNL     1      -9.091   0.031   0.081  0.00  0.00    +0.000 C 
ATOM     47  C   UNL     1      -5.477   1.341   1.682  0.00  0.00    +0.000 A 
ATOM     48  C   UNL     1      -5.357   1.214   3.199  0.00  0.00    +0.000 C 
ATOM     49  C   UNL     1      -8.063   1.574   1.589  0.00  0.00    +0.000 C 
ATOM     50  N   UNL     1      -9.532   0.993  -2.252  0.00  0.00    +0.000 NA
ATOM     51  N   UNL     1      -9.127   0.953   1.216  0.00  0.00    +0.000 NA
ATOM     52  N   UNL     1      -7.555   1.437  -1.361  0.00  0.00    +0.000 N 
ATOM     53  S   UNL     1      -4.849   1.366  -0.862  0.00  0.00    +0.000 S 
BRANCH  49  58
ATOM     54  C   UNL     1      -9.006   3.105   4.914  0.00  0.00    +0.000 A 
ATOM     55  C   UNL     1      -8.339   4.326   4.848  0.00  0.00    +0.000 A 
ATOM     56  C   UNL     1      -7.589   4.662   3.723  0.00  0.00    +0.000 A 
ATOM     57  C   UNL     1      -7.501   3.769   2.659  0.00  0.00    +0.000 A 
ATOM     58  C   UNL     1      -8.157   2.530   2.716  0.00  0.00    +0.000 A 
ATOM     59  C   UNL     1      -8.918   2.210   3.851  0.00  0.00    +0.000 A 
ATOM     60 CL   UNL     1      -8.445   5.433   6.168  0.00  0.00    +0.000 Cl
ENDBRANCH  49  58
BRANCH  46  61
ATOM     61  C   UNL     1     -10.437  -0.740  -0.009  0.00  0.00    +0.000 C 
BRANCH  61  62
ATOM     62  C   UNL     1     -10.786  -1.645   1.185  0.00  0.00    +0.000 C 
ATOM     63  O   UNL     1      -9.950  -1.970   2.032  0.00  0.00    +0.000 OA
BRANCH  62  64
ATOM     64  O   UNL     1     -12.085  -2.004   1.177  0.00  0.00    +0.000 OA
ATOM     65  C   UNL     1     -12.610  -2.837   2.201  0.00  0.00    +0.000 C 
ENDBRANCH  62  64
ENDBRANCH  61  62
ENDBRANCH  46  61
ENDBRANCH  35  44
ENDBRANCH  34  36
ENDBRANCH   1  34
TORSDOF 18
