ligand
 OpenBabel01032309583D

 65 71  0  0  1  0  0  0  0  0999 V2000
   64.2470   36.3740   55.6090 C   0  0  0  0  0  2  0  0  0  0  0  0
   64.1570   37.5030   54.5630 C   0  0  0  0  0  2  0  0  0  0  0  0
   63.4640   37.0960   53.2480 C   0  0  0  0  0  2  0  0  0  0  0  0
   64.2470   37.5340   51.9980 C   0  0  0  0  0  2  0  0  0  0  0  0
   65.7700   37.5710   52.2250 C   0  0  0  0  0  2  0  0  0  0  0  0
   66.5000   38.5230   51.2590 C   0  0  0  0  0  2  0  0  0  0  0  0
   65.5650   39.5830   50.6450 C   0  0  0  0  0  2  0  0  0  0  0  0
   66.9120   41.5380   49.8810 C   0  0  0  0  0  0  0  0  0  0  0  0
   66.0770   40.9480   50.7540 N   0  0  0  0  0  0  0  0  0  0  0  0
   67.3420   40.9770   48.8700 O   0  0  0  0  0  0  0  0  0  0  0  0
   65.7750   41.4730   51.5630 H   0  0  0  0  0  0  0  0  0  0  0  0
   67.3080   42.9820   50.2140 C   0  0  0  0  0  2  0  0  0  0  0  0
   66.1620   43.8280   50.1120 O   0  0  0  0  0  0  0  0  0  0  0  0
   66.0790   44.9470   50.9190 C   0  0  0  0  0  0  0  0  0  0  0  0
   66.1690   44.9360   52.3260 C   0  0  0  0  0  3  0  0  0  0  0  0
   66.0700   46.1270   53.0530 C   0  0  0  0  0  3  0  0  0  0  0  0
   65.8830   47.3430   52.3930 C   0  0  0  0  0  3  0  0  0  0  0  0
   65.7980   47.3420   51.0010 C   0  0  0  0  0  0  0  0  0  0  0  0
   65.6020   48.4590   50.0450 C   0  0  0  0  0  0  0  0  0  0  0  0
   65.8950   46.1800   50.2830 C   0  0  0  0  0  0  0  0  0  0  0  0
   65.7630   46.5310   48.8440 C   0  0  0  0  0  0  0  0  0  0  0  0
   65.6070   47.8850   48.8060 N   0  0  0  0  0  0  0  0  0  0  0  0
   65.4660   49.6500   50.3230 O   0  0  0  0  0  0  0  0  0  0  0  0
   65.7830   45.7570   47.8850 O   0  0  0  0  0  0  0  0  0  0  0  0
   65.4200   48.5960   47.5070 C   0  0  1  0  0  3  0  0  0  0  0  0
   64.0340   48.4560   46.8350 C   0  0  0  0  0  2  0  0  0  0  0  0
   62.9760   49.4470   47.3560 C   0  0  0  0  0  2  0  0  0  0  0  0
   63.5250   50.8880   47.4340 C   0  0  0  0  0  0  0  0  0  0  0  0
   65.8680   50.0840   47.5820 C   0  0  0  0  0  0  0  0  0  0  0  0
   64.8700   50.9990   47.5510 N   0  0  0  0  0  0  0  0  0  0  0  0
   67.0460   50.4250   47.6660 O   0  0  0  0  0  0  0  0  0  0  0  0
   62.8010   51.8800   47.4060 O   0  0  0  0  0  0  0  0  0  0  0  0
   65.1930   51.9540   47.6070 H   0  0  0  0  0  0  0  0  0  0  0  0
   65.1890   36.6820   56.7920 C   0  0  0  0  0  2  0  0  0  0  0  0
   67.6100   37.1320   56.3900 C   0  0  0  0  0  0  0  0  0  0  0  0
   66.5750   36.2850   56.5480 N   0  0  0  0  0  0  0  0  0  0  0  0
   67.5050   38.3580   56.4550 O   0  0  0  0  0  0  0  0  0  0  0  0
   66.7500   35.2930   56.4780 H   0  0  0  0  0  0  0  0  0  0  0  0
   73.7030   33.5510   58.0820 N   0  0  0  0  0  0  0  0  0  0  0  0
   72.5050   35.4120   59.2290 C   0  0  0  0  0  1  0  0  0  0  0  0
   72.7590   34.4580   58.0820 C   0  0  0  0  0  0  0  0  0  0  0  0
   70.8010   35.6270   55.1290 C   0  0  0  0  0  0  0  0  0  0  0  0
   70.9750   35.1860   56.4640 C   0  0  0  0  0  0  0  0  0  0  0  0
   68.8830   36.4880   56.1560 C   0  0  0  0  0  0  0  0  0  0  0  0
   72.6610   33.4250   56.1730 C   0  0  0  0  0  0  0  0  0  0  0  0
   72.2260   33.1170   54.7370 C   0  0  1  0  0  3  0  0  0  0  0  0
   69.5630   36.3120   54.9360 C   0  0  0  0  0  0  0  0  0  0  0  0
   69.0350   36.8000   53.5890 C   0  0  0  0  0  1  0  0  0  0  0  0
   71.8260   35.3760   54.0670 C   0  0  0  0  0  0  0  0  0  0  0  0
   73.6480   32.8960   56.8570 N   0  0  0  0  0  0  0  0  0  0  0  0
   72.4640   34.2750   53.8750 N   0  0  0  0  0  0  0  0  0  0  0  0
   72.0450   34.4230   56.9000 N   0  0  0  0  0  0  0  0  0  0  0  0
   69.6710   35.6900   57.4790 S   0  0  0  0  0  0  0  0  0  0  0  0
   72.6740   37.4300   51.0090 C   0  0  0  0  0  3  0  0  0  0  0  0
   72.7050   38.7140   51.5460 C   0  0  0  0  0  0  0  0  0  0  0  0
   72.4600   38.9200   52.9020 C   0  0  0  0  0  3  0  0  0  0  0  0
   72.1780   37.8340   53.7260 C   0  0  0  0  0  3  0  0  0  0  0  0
   72.1310   36.5350   53.1970 C   0  0  0  0  0  0  0  0  0  0  0  0
   72.3900   36.3420   51.8310 C   0  0  0  0  0  3  0  0  0  0  0  0
   73.0520   40.0620   50.5250 Cl  0  0  0  0  0  0  0  0  0  0  0  0
   72.9490   31.8730   54.1520 C   0  0  0  0  0  2  0  0  0  0  0  0
   72.9260   31.7270   52.6200 C   0  0  0  0  0  0  0  0  0  0  0  0
   71.9050   31.4110   52.0040 O   0  0  0  0  0  0  0  0  0  0  0  0
   74.1280   31.9970   52.0740 O   0  0  0  0  0  0  0  0  0  0  0  0
   74.2810   33.0760   51.1630 C   0  0  0  0  0  1  0  0  0  0  0  0
  1 34  1  0  0  0  0
  2  1  1  0  0  0  0
  3  2  1  0  0  0  0
  4  5  1  0  0  0  0
  4  3  1  0  0  0  0
  6  5  1  0  0  0  0
  7  9  1  0  0  0  0
  7  6  1  0  0  0  0
  8 12  1  0  0  0  0
  8  9  1  0  0  0  0
  9 11  1  0  0  0  0
 10  8  2  0  0  0  0
 13 12  1  0  0  0  0
 13 14  1  0  0  0  0
 14 15  1  0  0  0  0
 15 16  2  0  0  0  0
 17 16  1  0  0  0  0
 18 17  2  0  0  0  0
 19 23  2  0  0  0  0
 19 18  1  0  0  0  0
 20 14  2  0  0  0  0
 20 18  1  0  0  0  0
 21 20  1  0  0  0  0
 22 21  1  0  0  0  0
 22 19  1  0  0  0  0
 24 21  2  0  0  0  0
 25 26  1  1  0  0  0
 25 29  1  0  0  0  0
 25 22  1  0  0  0  0
 26 27  1  0  0  0  0
 27 28  1  0  0  0  0
 28 30  1  0  0  0  0
 29 31  2  0  0  0  0
 30 29  1  0  0  0  0
 30 33  1  0  0  0  0
 32 28  2  0  0  0  0
 35 37  2  0  0  0  0
 35 36  1  0  0  0  0
 36 34  1  0  0  0  0
 38 36  1  0  0  0  0
 39 41  2  0  0  0  0
 41 40  1  0  0  0  0
 42 43  2  0  0  0  0
 43 52  1  0  0  0  0
 43 53  1  0  0  0  0
 44 35  1  0  0  0  0
 44 53  1  0  0  0  0
 45 50  2  0  0  0  0
 45 52  1  0  0  0  0
 46 61  1  6  0  0  0
 46 45  1  0  0  0  0
 47 42  1  0  0  0  0
 47 44  2  0  0  0  0
 48 47  1  0  0  0  0
 49 42  1  0  0  0  0
 50 39  1  0  0  0  0
 51 49  2  0  0  0  0
 51 46  1  0  0  0  0
 52 41  1  0  0  0  0
 54 55  2  0  0  0  0
 54 59  1  0  0  0  0
 55 56  1  0  0  0  0
 56 57  2  0  0  0  0
 58 57  1  0  0  0  0
 58 49  1  0  0  0  0
 59 58  2  0  0  0  0
 60 55  1  0  0  0  0
 62 61  1  0  0  0  0
 63 62  2  0  0  0  0
 64 62  1  0  0  0  0
 65 64  1  0  0  0  0
M  END
>  <MODEL>
1

>  <REMARK>
 VINA RESULT:   -12.012      0.000      0.000
 INTER + INTRA:         -26.970
 INTER:                 -24.418
 INTRA:                  -2.552
 UNBOUND:                -2.319
  Name = ligand
  21 active torsions:
  status: ('A' for Active; 'I' for Inactive)
    1  A    between atoms: C_2  and  C_4
    2  A    between atoms: O_3  and  C_41
    3  A    between atoms: O_3  and  C_42
    4  A    between atoms: C_11  and  C_12
    5  A    between atoms: C_13  and  C_14
    6  A    between atoms: C_13  and  N_48
    7  A    between atoms: C_14  and  C_16
    8  A    between atoms: C_16  and  C_17
    9  A    between atoms: C_17  and  C_18
   10  A    between atoms: C_18  and  C_19
   11  A    between atoms: C_19  and  C_20
   12  A    between atoms: C_20  and  C_21
   13  A    between atoms: C_21  and  N_49
   14  A    between atoms: C_22  and  C_23
   15  A    between atoms: C_23  and  O_54
   16  A    between atoms: C_24  and  O_54
   17  A    between atoms: C_26  and  C_37
   18  A    between atoms: C_31  and  N_50
   19  A    between atoms: C_37  and  C_41
   20  A    between atoms: C_39  and  C_40
   21  A    between atoms: C_43  and  C_44
                            x       y       z     vdW  Elec       q    Type
                         _______ _______ _______ _____ _____    ______ ____

>  <TORSDO>
F 18

$$$$
ligand
 OpenBabel01032309583D

 65 71  0  0  1  0  0  0  0  0999 V2000
   73.2080   38.1250   47.0890 C   0  0  0  0  0  2  0  0  0  0  0  0
   72.0110   37.1550   47.1450 C   0  0  0  0  0  2  0  0  0  0  0  0
   70.6340   37.8460   47.1380 C   0  0  0  0  0  2  0  0  0  0  0  0
   69.7900   37.5110   48.3810 C   0  0  0  0  0  2  0  0  0  0  0  0
   69.5880   38.7200   49.3140 C   0  0  0  0  0  2  0  0  0  0  0  0
   68.1100   38.9640   49.6730 C   0  0  0  0  0  2  0  0  0  0  0  0
   67.4520   40.0470   48.7950 C   0  0  0  0  0  2  0  0  0  0  0  0
   65.6360   41.6430   49.4090 C   0  0  0  0  0  0  0  0  0  0  0  0
   66.8790   41.1520   49.5620 N   0  0  0  0  0  0  0  0  0  0  0  0
   64.8300   41.2000   48.5880 O   0  0  0  0  0  0  0  0  0  0  0  0
   67.4830   41.5750   50.2520 H   0  0  0  0  0  0  0  0  0  0  0  0
   65.2650   42.8080   50.3350 C   0  0  0  0  0  2  0  0  0  0  0  0
   66.2510   43.8350   50.2310 O   0  0  0  0  0  0  0  0  0  0  0  0
   66.1300   44.9640   51.0180 C   0  0  0  0  0  0  0  0  0  0  0  0
   66.1940   44.9770   52.4260 C   0  0  0  0  0  3  0  0  0  0  0  0
   66.0560   46.1760   53.1330 C   0  0  0  0  0  3  0  0  0  0  0  0
   65.8560   47.3790   52.4500 C   0  0  0  0  0  3  0  0  0  0  0  0
   65.7980   47.3540   51.0570 C   0  0  0  0  0  0  0  0  0  0  0  0
   65.5960   48.4520   50.0800 C   0  0  0  0  0  0  0  0  0  0  0  0
   65.9330   46.1830   50.3590 C   0  0  0  0  0  0  0  0  0  0  0  0
   65.8200   46.5090   48.9120 C   0  0  0  0  0  0  0  0  0  0  0  0
   65.6370   47.8590   48.8500 N   0  0  0  0  0  0  0  0  0  0  0  0
   65.4300   49.6440   50.3370 O   0  0  0  0  0  0  0  0  0  0  0  0
   65.8750   45.7220   47.9670 O   0  0  0  0  0  0  0  0  0  0  0  0
   65.4600   48.5460   47.5380 C   0  0  1  0  0  3  0  0  0  0  0  0
   64.0840   48.3790   46.8500 C   0  0  0  0  0  2  0  0  0  0  0  0
   63.0090   49.3670   47.3400 C   0  0  0  0  0  2  0  0  0  0  0  0
   63.5420   50.8160   47.4000 C   0  0  0  0  0  0  0  0  0  0  0  0
   65.8900   50.0400   47.5930 C   0  0  0  0  0  0  0  0  0  0  0  0
   64.8830   50.9430   47.5330 N   0  0  0  0  0  0  0  0  0  0  0  0
   67.0630   50.3940   47.6860 O   0  0  0  0  0  0  0  0  0  0  0  0
   62.8070   51.7990   47.3460 O   0  0  0  0  0  0  0  0  0  0  0  0
   65.1960   51.9020   47.5770 H   0  0  0  0  0  0  0  0  0  0  0  0
   73.6870   38.6190   48.4710 C   0  0  0  0  0  2  0  0  0  0  0  0
   73.7450   37.8420   50.8410 C   0  0  0  0  0  0  0  0  0  0  0  0
   73.3480   37.7060   49.5620 N   0  0  0  0  0  0  0  0  0  0  0  0
   74.4340   38.7790   51.2470 O   0  0  0  0  0  0  0  0  0  0  0  0
   72.7840   36.9050   49.3150 H   0  0  0  0  0  0  0  0  0  0  0  0
   72.9640   31.0820   53.3950 N   0  0  0  0  0  0  0  0  0  0  0  0
   72.9350   31.9870   51.0710 C   0  0  0  0  0  1  0  0  0  0  0  0
   72.9540   32.1080   52.5800 C   0  0  0  0  0  0  0  0  0  0  0  0
   72.2350   35.6550   53.4830 C   0  0  0  0  0  0  0  0  0  0  0  0
   72.9500   34.6090   52.8510 C   0  0  0  0  0  0  0  0  0  0  0  0
   73.2780   36.8010   51.7290 C   0  0  0  0  0  0  0  0  0  0  0  0
   72.9450   32.8930   54.6060 C   0  0  0  0  0  0  0  0  0  0  0  0
   72.8530   33.9200   55.7380 C   0  0  1  0  0  3  0  0  0  0  0  0
   72.4810   36.9270   52.8830 C   0  0  0  0  0  0  0  0  0  0  0  0
   71.9530   38.2590   53.4110 C   0  0  0  0  0  1  0  0  0  0  0  0
   71.3340   35.4100   54.6520 C   0  0  0  0  0  0  0  0  0  0  0  0
   72.9480   31.5840   54.6910 N   0  0  0  0  0  0  0  0  0  0  0  0
   71.5890   34.6510   55.6600 N   0  0  0  0  0  0  0  0  0  0  0  0
   72.9580   33.2950   53.2860 N   0  0  0  0  0  0  0  0  0  0  0  0
   73.8400   35.1780   51.4830 S   0  0  0  0  0  0  0  0  0  0  0  0
   68.2010   37.2370   55.7190 C   0  0  0  0  0  3  0  0  0  0  0  0
   67.5520   37.3960   54.4970 C   0  0  0  0  0  0  0  0  0  0  0  0
   68.1210   36.9040   53.3250 C   0  0  0  0  0  3  0  0  0  0  0  0
   69.3510   36.2540   53.3730 C   0  0  0  0  0  3  0  0  0  0  0  0
   70.0230   36.0970   54.5950 C   0  0  0  0  0  0  0  0  0  0  0  0
   69.4310   36.5870   55.7700 C   0  0  0  0  0  3  0  0  0  0  0  0
   66.0280   38.2050   54.4350 Cl  0  0  0  0  0  0  0  0  0  0  0  0
   72.9940   33.2690   57.1420 C   0  0  0  0  0  2  0  0  0  0  0  0
   73.6840   34.1200   58.2230 C   0  0  0  0  0  0  0  0  0  0  0  0
   74.5610   33.6630   58.9610 O   0  0  0  0  0  0  0  0  0  0  0  0
   73.2200   35.3850   58.2340 O   0  0  0  0  0  0  0  0  0  0  0  0
   72.6750   35.9430   59.4210 C   0  0  0  0  0  1  0  0  0  0  0  0
  1  2  1  0  0  0  0
  1 34  1  0  0  0  0
  3  2  1  0  0  0  0
  3  4  1  0  0  0  0
  4  5  1  0  0  0  0
  5  6  1  0  0  0  0
  7  9  1  0  0  0  0
  7  6  1  0  0  0  0
  8  9  1  0  0  0  0
  8 12  1  0  0  0  0
  9 11  1  0  0  0  0
 10  8  2  0  0  0  0
 13 12  1  0  0  0  0
 13 14  1  0  0  0  0
 14 15  1  0  0  0  0
 15 16  2  0  0  0  0
 17 16  1  0  0  0  0
 18 17  2  0  0  0  0
 19 23  2  0  0  0  0
 19 18  1  0  0  0  0
 20 14  2  0  0  0  0
 20 18  1  0  0  0  0
 21 20  1  0  0  0  0
 22 21  1  0  0  0  0
 22 19  1  0  0  0  0
 24 21  2  0  0  0  0
 25 26  1  1  0  0  0
 25 29  1  0  0  0  0
 25 22  1  0  0  0  0
 26 27  1  0  0  0  0
 27 28  1  0  0  0  0
 28 30  1  0  0  0  0
 29 31  2  0  0  0  0
 30 33  1  0  0  0  0
 30 29  1  0  0  0  0
 32 28  2  0  0  0  0
 34 36  1  0  0  0  0
 35 37  2  0  0  0  0
 35 44  1  0  0  0  0
 36 35  1  0  0  0  0
 38 36  1  0  0  0  0
 39 50  1  0  0  0  0
 40 41  1  0  0  0  0
 41 52  1  0  0  0  0
 41 39  2  0  0  0  0
 42 49  1  0  0  0  0
 43 52  1  0  0  0  0
 43 42  2  0  0  0  0
 44 47  2  0  0  0  0
 45 50  2  0  0  0  0
 45 46  1  0  0  0  0
 46 61  1  1  0  0  0
 47 48  1  0  0  0  0
 47 42  1  0  0  0  0
 49 51  2  0  0  0  0
 51 46  1  0  0  0  0
 52 45  1  0  0  0  0
 53 44  1  0  0  0  0
 53 43  1  0  0  0  0
 54 59  1  0  0  0  0
 55 54  2  0  0  0  0
 56 57  2  0  0  0  0
 56 55  1  0  0  0  0
 57 58  1  0  0  0  0
 58 49  1  0  0  0  0
 58 59  2  0  0  0  0
 60 55  1  0  0  0  0
 61 62  1  0  0  0  0
 62 64  1  0  0  0  0
 62 63  2  0  0  0  0
 64 65  1  0  0  0  0
M  END
>  <MODEL>
2

>  <REMARK>
 VINA RESULT:   -11.511      2.687      5.091
 INTER + INTRA:         -25.943
 INTER:                 -23.624
 INTRA:                  -2.319
 UNBOUND:                -2.319
  Name = ligand
  21 active torsions:
  status: ('A' for Active; 'I' for Inactive)
    1  A    between atoms: C_2  and  C_4
    2  A    between atoms: O_3  and  C_41
    3  A    between atoms: O_3  and  C_42
    4  A    between atoms: C_11  and  C_12
    5  A    between atoms: C_13  and  C_14
    6  A    between atoms: C_13  and  N_48
    7  A    between atoms: C_14  and  C_16
    8  A    between atoms: C_16  and  C_17
    9  A    between atoms: C_17  and  C_18
   10  A    between atoms: C_18  and  C_19
   11  A    between atoms: C_19  and  C_20
   12  A    between atoms: C_20  and  C_21
   13  A    between atoms: C_21  and  N_49
   14  A    between atoms: C_22  and  C_23
   15  A    between atoms: C_23  and  O_54
   16  A    between atoms: C_24  and  O_54
   17  A    between atoms: C_26  and  C_37
   18  A    between atoms: C_31  and  N_50
   19  A    between atoms: C_37  and  C_41
   20  A    between atoms: C_39  and  C_40
   21  A    between atoms: C_43  and  C_44
                            x       y       z     vdW  Elec       q    Type
                         _______ _______ _______ _____ _____    ______ ____

>  <TORSDO>
F 18

$$$$
