=
 OpenBabel04082316253D

 82 89  0  0  1  0  0  0  0  0999 V2000
  -14.1760   16.2350  -11.7210 C   0  0  0  0  0  2  0  0  0  0  0  0
  -13.8950   17.0850  -12.9610 C   0  0  0  0  0  2  0  0  0  0  0  0
  -12.4200   17.0150  -13.3600 C   0  0  0  0  0  2  0  0  0  0  0  0
  -12.2360   16.2690  -14.6830 C   0  0  0  0  0  2  0  0  0  0  0  0
  -11.0400   15.3150  -14.6210 C   0  0  0  0  0  2  0  0  0  0  0  0
   -9.7630   15.9420  -15.1780 C   0  0  0  0  0  2  0  0  0  0  0  0
   -8.5380   15.0830  -14.9320 C   0  0  0  0  0  0  0  0  0  0  0  0
   -8.7300   13.7580  -15.2830 N   0  0  0  0  0  0  0  0  0  0  0  0
   -7.5050   15.5560  -14.4620 O   0  0  0  0  0  0  0  0  0  0  0  0
   -9.6020   13.4890  -15.6520 H   0  0  0  0  0  0  0  0  0  0  0  0
   -7.7030   12.7530  -15.1310 C   0  0  2  0  0  3  0  0  0  0  0  0
   -7.4500   12.1860  -16.5050 C   0  0  0  0  0  0  0  0  0  0  0  0
   -4.2050   11.6870  -18.1560 C   0  0  0  0  0  2  0  0  0  0  0  0
   -4.9750   12.1800  -15.9460 C   0  0  0  0  0  2  0  0  0  0  0  0
   -5.7070   11.4480  -18.1220 C   0  0  2  0  0  3  0  0  0  0  0  0
   -3.7900   11.5760  -16.6890 C   0  0  2  0  0  3  0  0  0  0  0  0
   -6.1240   11.9380  -16.8140 N   0  0  0  0  0  0  0  0  0  0  0  0
   -8.3900   11.9660  -17.2710 O   0  0  0  0  0  0  0  0  0  0  0  0
   -5.9660    9.9630  -18.2920 C   0  0  0  0  0  0  0  0  0  0  0  0
   -7.2910    9.6450  -18.5240 N   0  0  0  0  0  0  0  0  0  0  0  0
   -5.0310    9.1750  -18.2180 O   0  0  0  0  0  0  0  0  0  0  0  0
   -7.9490   10.3770  -18.5610 H   0  0  0  0  0  0  0  0  0  0  0  0
   -7.7580    8.2910  -18.7160 C   0  0  0  0  0  2  0  0  0  0  0  0
   -9.7440    7.4740  -15.5930 C   0  0  0  0  0  3  0  0  0  0  0  0
   -7.7870    6.0580  -15.6530 C   0  0  0  0  0  3  0  0  0  0  0  0
   -9.3530    8.0660  -16.7930 C   0  0  0  0  0  3  0  0  0  0  0  0
   -7.3960    6.6510  -16.8540 C   0  0  0  0  0  3  0  0  0  0  0  0
   -8.9620    6.4700  -15.0220 C   0  0  0  0  0  0  0  0  0  0  0  0
   -8.1790    7.6540  -17.4230 C   0  0  0  0  0  0  0  0  0  0  0  0
  -10.0480    4.3170  -12.0580 C   0  0  0  0  0  3  0  0  0  0  0  0
   -9.3660    5.8580  -13.7800 C   0  0  0  0  0  0  0  0  0  0  0  0
   -9.5670    6.4040  -12.5300 C   0  0  0  0  0  0  0  0  0  0  0  0
   -9.4030    7.8270  -12.1620 C   0  0  0  0  0  1  0  0  0  0  0  0
   -9.9570    5.5230  -11.5410 N   0  0  0  0  0  0  0  0  0  0  0  0
   -9.6750    4.1720  -13.7270 S   0  0  0  0  0  0  0  0  0  0  0  0
   -2.6060   12.3020  -16.4300 O   0  0  0  0  0  0  0  0  0  0  0  0
   -2.1860   12.5460  -17.2700 H   0  0  0  0  0  0  0  0  0  0  0  0
   -7.6740   10.2370  -14.5510 C   0  0  0  0  0  1  0  0  0  0  0  0
   -9.5650   11.6850  -13.7810 C   0  0  0  0  0  1  0  0  0  0  0  0
   -7.3030   11.9440  -12.7610 C   0  0  0  0  0  1  0  0  0  0  0  0
   -8.0510   11.6560  -14.0820 C   0  0  0  0  0  0  0  0  0  0  0  0
  -14.8760   14.9100  -12.0360 C   0  0  0  0  0  2  0  0  0  0  0  0
  -13.9420   13.6980  -11.9810 C   0  0  0  0  0  2  0  0  0  0  0  0
  -13.7430   13.0920  -13.3740 C   0  0  0  0  0  2  0  0  0  0  0  0
  -14.6320   13.7420  -14.4290 C   0  0  0  0  0  2  0  0  0  0  0  0
  -15.7880   12.0130  -15.7830 C   0  0  0  0  0  0  0  0  0  0  0  0
  -14.7600   12.9340  -15.6110 N   0  0  0  0  0  0  0  0  0  0  0  0
  -16.6760   11.7980  -14.9620 O   0  0  0  0  0  0  0  0  0  0  0  0
  -14.0930   13.0350  -16.3270 H   0  0  0  0  0  0  0  0  0  0  0  0
  -16.5590   10.8080  -19.2860 C   0  0  0  0  0  3  0  0  0  0  0  0
  -14.8680   10.1800  -17.1770 C   0  0  0  0  0  3  0  0  0  0  0  0
  -12.4780    7.5790  -21.8020 C   0  0  0  0  0  3  0  0  0  0  0  0
  -15.6840    9.7120  -19.4410 C   0  0  0  0  0  0  0  0  0  0  0  0
  -14.5170    8.3610  -21.3280 C   0  0  0  0  0  0  0  0  0  0  0  0
  -15.7650   11.2360  -17.0480 C   0  0  0  0  0  0  0  0  0  0  0  0
  -13.2090    8.2200  -20.8210 C   0  0  0  0  0  0  0  0  0  0  0  0
  -16.6050   11.5540  -18.1050 C   0  0  0  0  0  0  0  0  0  0  0  0
  -14.8030    9.4160  -18.3630 C   0  0  0  0  0  0  0  0  0  0  0  0
  -14.5820    7.7530  -22.5590 C   0  0  0  0  0  0  0  0  0  0  0  0
  -16.8460    8.7850  -21.4250 C   0  0  0  0  0  3  0  0  0  0  0  0
  -15.6860    8.9460  -20.7380 C   0  0  0  0  0  0  0  0  0  0  0  0
  -15.7940    7.6140  -23.3310 C   0  0  0  0  0  0  0  0  0  0  0  0
  -12.7980    8.6450  -19.4570 C   0  0  0  0  0  2  0  0  0  0  0  0
  -18.2440    8.0640  -23.2950 C   0  0  0  0  0  1  0  0  0  0  0  0
  -13.3200    7.3090  -22.8580 N   0  0  0  0  0  0  0  0  0  0  0  0
  -13.8220    8.3810  -18.4220 N   0  0  0  0  0  0  0  0  0  0  0  0
  -16.9290    8.1470  -22.6700 N   0  0  0  0  0  0  0  0  0  0  0  0
  -15.8220    7.0750  -24.4350 O   0  0  0  0  0  0  0  0  0  0  0  0
  -13.0560    6.8670  -23.6970 H   0  0  0  0  0  0  0  0  0  0  0  0
  -12.8860    5.0620  -17.1960 C   0  0  0  0  0  3  0  0  0  0  0  0
  -15.1500    5.5480  -16.6510 C   0  0  0  0  0  3  0  0  0  0  0  0
  -14.0800    4.6670  -16.6060 C   0  0  0  0  0  0  0  0  0  0  0  0
  -12.7980    6.3080  -17.8070 C   0  0  0  0  0  0  0  0  0  0  0  0
  -13.9240    7.1150  -17.7990 C   0  0  0  0  0  0  0  0  0  0  0  0
  -15.1020    6.7660  -17.2360 N   0  0  0  0  0  0  0  0  0  0  0  0
  -14.1930    3.4730  -16.0120 F   0  0  0  0  0  0  0  0  0  0  0  0
  -11.6530    6.7020  -18.3810 F   0  0  0  0  0  0  0  0  0  0  0  0
  -17.5650   12.6960  -18.0110 C   0  0  0  0  0  2  0  0  0  0  0  0
  -17.9740   15.4070  -18.4680 C   0  0  0  0  0  1  0  0  0  0  0  0
  -15.5900   14.4060  -18.0880 O   0  0  0  0  0  0  0  0  0  0  0  0
  -16.8140   13.8610  -20.2270 O   0  0  0  0  0  0  0  0  0  0  0  0
  -16.8220   14.0910  -18.7910 S   0  0  0  0  0  0  0  0  0  0  0  0
  2  1  1  0  0  0  0
  3  2  1  0  0  0  0
  4  5  1  0  0  0  0
  4  3  1  0  0  0  0
  6  7  1  0  0  0  0
  6  5  1  0  0  0  0
  7  9  2  0  0  0  0
  8 11  1  0  0  0  0
  8  7  1  0  0  0  0
 10  8  1  0  0  0  0
 11 12  1  6  0  0  0
 11 41  1  0  0  0  0
 13 15  1  0  0  0  0
 13 16  1  0  0  0  0
 15 19  1  1  0  0  0
 15 17  1  0  0  0  0
 16 36  1  6  0  0  0
 16 14  1  0  0  0  0
 17 12  1  0  0  0  0
 17 14  1  0  0  0  0
 18 12  2  0  0  0  0
 19 21  2  0  0  0  0
 20 19  1  0  0  0  0
 22 20  1  0  0  0  0
 23 20  1  0  0  0  0
 23 29  1  0  0  0  0
 24 28  1  0  0  0  0
 25 28  2  0  0  0  0
 26 24  2  0  0  0  0
 27 25  1  0  0  0  0
 28 31  1  0  0  0  0
 29 27  2  0  0  0  0
 29 26  1  0  0  0  0
 30 34  2  0  0  0  0
 31 35  1  0  0  0  0
 31 32  2  0  0  0  0
 32 33  1  0  0  0  0
 32 34  1  0  0  0  0
 35 30  1  0  0  0  0
 37 36  1  0  0  0  0
 38 41  1  0  0  0  0
 41 39  1  0  0  0  0
 41 40  1  0  0  0  0
 42 43  1  0  0  0  0
 42  1  1  0  0  0  0
 44 43  1  0  0  0  0
 45 44  1  0  0  0  0
 46 47  1  0  0  0  0
 46 48  2  0  0  0  0
 47 45  1  0  0  0  0
 49 47  1  0  0  0  0
 50 57  1  0  0  0  0
 51 55  1  0  0  0  0
 52 56  2  0  0  0  0
 53 50  2  0  0  0  0
 53 58  1  0  0  0  0
 54 56  1  0  0  0  0
 54 61  1  0  0  0  0
 55 46  1  0  0  0  0
 56 63  1  0  0  0  0
 57 78  1  0  0  0  0
 57 55  2  0  0  0  0
 58 51  2  0  0  0  0
 59 54  2  0  0  0  0
 60 61  2  0  0  0  0
 61 53  1  0  0  0  0
 62 67  1  0  0  0  0
 62 59  1  0  0  0  0
 63 66  1  0  0  0  0
 64 67  1  0  0  0  0
 65 59  1  0  0  0  0
 65 52  1  0  0  0  0
 66 58  1  0  0  0  0
 66 74  1  0  0  0  0
 67 60  1  0  0  0  0
 68 62  2  0  0  0  0
 69 65  1  0  0  0  0
 70 72  1  0  0  0  0
 71 72  2  0  0  0  0
 72 76  1  0  0  0  0
 73 74  1  0  0  0  0
 73 70  2  0  0  0  0
 74 75  2  0  0  0  0
 75 71  1  0  0  0  0
 77 73  1  0  0  0  0
 81 82  2  0  0  0  0
 82 79  1  0  0  0  0
 82 80  2  0  0  0  0
 82 78  1  0  0  0  0
M  END
>  <MODEL>
1

>  <REMARK>
 VINA RESULT:   -11.611      0.000      0.000
 INTER + INTRA:         -32.396
 INTER:                 -26.987
 INTRA:                  -5.408
 UNBOUND:                -5.511
  Name = 
  29 active torsions:
  status: ('A' for Active; 'I' for Inactive)
    1  A    between atoms: C_11  and  C_21
    2  A    between atoms: C_14  and  C_28
    3  A    between atoms: C_16  and  C_43
    4  A    between atoms: C_17  and  C_44
    5  A    between atoms: C_23  and  C_37
    6  A    between atoms: C_24  and  N_60
    7  A    between atoms: C_29  and  C_35
    8  A    between atoms: C_30  and  C_55
    9  A    between atoms: C_31  and  C_45
   10  A    between atoms: C_36  and  O_73
   11  A    between atoms: C_38  and  C_56
   12  A    between atoms: C_39  and  C_56
   13  A    between atoms: C_40  and  C_56
   14  A    between atoms: C_41  and  N_61
   15  A    between atoms: C_42  and  S_77
   16  A    between atoms: C_43  and  N_64
   17  A    between atoms: C_44  and  S_77
   18  A    between atoms: C_45  and  C_46
   19  A    between atoms: C_46  and  C_47
   20  A    between atoms: C_47  and  C_48
   21  A    between atoms: C_48  and  C_49
   22  A    between atoms: C_49  and  C_50
   23  A    between atoms: C_50  and  C_51
   24  A    between atoms: C_51  and  C_52
   25  A    between atoms: C_52  and  C_53
   26  A    between atoms: C_53  and  C_54
   27  A    between atoms: C_54  and  N_63
   28  A    between atoms: C_55  and  C_56
   29  A    between atoms: C_55  and  N_65
                            x       y       z     vdW  Elec       q    Type
                         _______ _______ _______ _____ _____    ______ ____

>  <TORSDO>
F 23

$$$$
=
 OpenBabel04082316253D

 82 89  0  0  1  0  0  0  0  0999 V2000
   -9.5450   11.6420  -13.7810 C   0  0  0  0  0  2  0  0  0  0  0  0
   -8.2150   12.3980  -13.7410 C   0  0  0  0  0  2  0  0  0  0  0  0
   -7.1010   11.5290  -13.1540 C   0  0  0  0  0  2  0  0  0  0  0  0
   -5.7920   11.7060  -13.9270 C   0  0  0  0  0  2  0  0  0  0  0  0
   -6.0010   12.5580  -15.1830 C   0  0  0  0  0  2  0  0  0  0  0  0
   -5.8430   11.7500  -16.4700 C   0  0  0  0  0  2  0  0  0  0  0  0
   -7.1000   10.9830  -16.8330 C   0  0  0  0  0  0  0  0  0  0  0  0
   -6.9030    9.6130  -16.8720 N   0  0  0  0  0  0  0  0  0  0  0  0
   -8.1590   11.5600  -17.0680 O   0  0  0  0  0  0  0  0  0  0  0  0
   -6.0080    9.2590  -16.6650 H   0  0  0  0  0  0  0  0  0  0  0  0
   -7.9570    8.6820  -17.2030 C   0  0  2  0  0  3  0  0  0  0  0  0
   -7.7660    7.4830  -16.3080 C   0  0  0  0  0  0  0  0  0  0  0  0
   -9.5600    6.7050  -13.1960 C   0  0  0  0  0  2  0  0  0  0  0  0
   -9.8170    8.2340  -15.0170 C   0  0  0  0  0  2  0  0  0  0  0  0
   -8.6170    6.2690  -14.3070 C   0  0  2  0  0  3  0  0  0  0  0  0
  -10.6170    7.5330  -13.9270 C   0  0  2  0  0  3  0  0  0  0  0  0
   -8.6970    7.3400  -15.2930 N   0  0  0  0  0  0  0  0  0  0  0  0
   -6.8340    6.7010  -16.5040 O   0  0  0  0  0  0  0  0  0  0  0  0
   -9.0970    4.9400  -14.8580 C   0  0  0  0  0  0  0  0  0  0  0  0
   -8.1490    4.2640  -15.6030 N   0  0  0  0  0  0  0  0  0  0  0  0
  -10.2380    4.5650  -14.6200 O   0  0  0  0  0  0  0  0  0  0  0  0
   -7.2630    4.6770  -15.7200 H   0  0  0  0  0  0  0  0  0  0  0  0
   -8.3950    2.9800  -16.2180 C   0  0  0  0  0  2  0  0  0  0  0  0
   -9.4220    3.0210  -19.8670 C   0  0  0  0  0  3  0  0  0  0  0  0
   -7.0240    3.2860  -19.7390 C   0  0  0  0  0  3  0  0  0  0  0  0
   -9.4890    2.9540  -18.4760 C   0  0  0  0  0  3  0  0  0  0  0  0
   -7.0910    3.2180  -18.3470 C   0  0  0  0  0  3  0  0  0  0  0  0
   -8.1900    3.1870  -20.4990 C   0  0  0  0  0  0  0  0  0  0  0  0
   -8.3230    3.0520  -17.7160 C   0  0  0  0  0  0  0  0  0  0  0  0
   -8.4030    3.8500  -24.2570 C   0  0  0  0  0  3  0  0  0  0  0  0
   -8.1210    3.2570  -21.9380 C   0  0  0  0  0  0  0  0  0  0  0  0
   -7.4150    2.4930  -22.8440 C   0  0  0  0  0  0  0  0  0  0  0  0
   -6.5180    1.3630  -22.5220 C   0  0  0  0  0  1  0  0  0  0  0  0
   -7.5750    2.8310  -24.1740 N   0  0  0  0  0  0  0  0  0  0  0  0
   -9.0250    4.4510  -22.7740 S   0  0  0  0  0  0  0  0  0  0  0  0
  -11.2270    8.4710  -13.0630 O   0  0  0  0  0  0  0  0  0  0  0  0
  -10.7880    9.3310  -13.1560 H   0  0  0  0  0  0  0  0  0  0  0  0
   -8.3190    6.8130  -18.9470 C   0  0  0  0  0  1  0  0  0  0  0  0
   -6.6540    8.6330  -19.3770 C   0  0  0  0  0  1  0  0  0  0  0  0
   -9.0960    9.1430  -19.4200 C   0  0  0  0  0  1  0  0  0  0  0  0
   -8.0080    8.3050  -18.7120 C   0  0  0  0  0  0  0  0  0  0  0  0
  -10.6400   12.3750  -14.5600 C   0  0  0  0  0  2  0  0  0  0  0  0
  -12.0580   11.9730  -14.1450 C   0  0  0  0  0  2  0  0  0  0  0  0
  -12.8220   13.1670  -13.5630 C   0  0  0  0  0  2  0  0  0  0  0  0
  -14.2260   13.3030  -14.1430 C   0  0  0  0  0  2  0  0  0  0  0  0
  -15.5970   11.9410  -15.6990 C   0  0  0  0  0  0  0  0  0  0  0  0
  -14.3940   12.5480  -15.3540 N   0  0  0  0  0  0  0  0  0  0  0  0
  -16.6200   11.9860  -15.0220 O   0  0  0  0  0  0  0  0  0  0  0  0
  -13.6260   12.4550  -15.9630 H   0  0  0  0  0  0  0  0  0  0  0  0
  -16.4450   10.7590  -19.1920 C   0  0  0  0  0  3  0  0  0  0  0  0
  -14.7030   10.1210  -17.1280 C   0  0  0  0  0  3  0  0  0  0  0  0
  -12.4130    7.5620  -21.8260 C   0  0  0  0  0  3  0  0  0  0  0  0
  -15.5700    9.6670  -19.3750 C   0  0  0  0  0  0  0  0  0  0  0  0
  -14.4420    8.3330  -21.2990 C   0  0  0  0  0  0  0  0  0  0  0  0
  -15.6010   11.1730  -16.9710 C   0  0  0  0  0  0  0  0  0  0  0  0
  -13.1220    8.1930  -20.8240 C   0  0  0  0  0  0  0  0  0  0  0  0
  -16.4660   11.4960  -18.0050 C   0  0  0  0  0  0  0  0  0  0  0  0
  -14.6630    9.3660  -18.3210 C   0  0  0  0  0  0  0  0  0  0  0  0
  -14.5340    7.7340  -22.5320 C   0  0  0  0  0  0  0  0  0  0  0  0
  -16.7750    8.7490  -21.3390 C   0  0  0  0  0  3  0  0  0  0  0  0
  -15.6000    8.9100  -20.6770 C   0  0  0  0  0  0  0  0  0  0  0  0
  -15.7640    7.5960  -23.2770 C   0  0  0  0  0  0  0  0  0  0  0  0
  -12.6820    8.6100  -19.4660 C   0  0  0  0  0  2  0  0  0  0  0  0
  -18.2130    8.0380  -23.1810 C   0  0  0  0  0  1  0  0  0  0  0  0
  -13.2780    7.2970  -22.8640 N   0  0  0  0  0  0  0  0  0  0  0  0
  -13.6800    8.3350  -18.4100 N   0  0  0  0  0  0  0  0  0  0  0  0
  -16.8840    8.1200  -22.5860 N   0  0  0  0  0  0  0  0  0  0  0  0
  -15.8150    7.0650  -24.3840 O   0  0  0  0  0  0  0  0  0  0  0  0
  -13.0320    6.8620  -23.7120 H   0  0  0  0  0  0  0  0  0  0  0  0
  -12.6510    5.1130  -17.0130 C   0  0  0  0  0  3  0  0  0  0  0  0
  -15.0070    5.3910  -16.8280 C   0  0  0  0  0  3  0  0  0  0  0  0
  -13.8820    4.6110  -16.6080 C   0  0  0  0  0  0  0  0  0  0  0  0
  -12.5820    6.3620  -17.6190 C   0  0  0  0  0  0  0  0  0  0  0  0
  -13.7640    7.0650  -17.7940 C   0  0  0  0  0  0  0  0  0  0  0  0
  -14.9780    6.6090  -17.4130 N   0  0  0  0  0  0  0  0  0  0  0  0
  -13.9780    3.4110  -16.0230 F   0  0  0  0  0  0  0  0  0  0  0  0
  -11.4020    6.8590  -18.0140 F   0  0  0  0  0  0  0  0  0  0  0  0
  -17.4270   12.6330  -17.8800 C   0  0  0  0  0  2  0  0  0  0  0  0
  -17.8680   15.3430  -18.3160 C   0  0  0  0  0  1  0  0  0  0  0  0
  -15.4790   14.3770  -17.8800 O   0  0  0  0  0  0  0  0  0  0  0  0
  -16.6330   13.8380  -20.0600 O   0  0  0  0  0  0  0  0  0  0  0  0
  -16.6850   14.0500  -18.6220 S   0  0  0  0  0  0  0  0  0  0  0  0
  1  2  1  0  0  0  0
  2  3  1  0  0  0  0
  4  3  1  0  0  0  0
  5  4  1  0  0  0  0
  6  5  1  0  0  0  0
  7  6  1  0  0  0  0
  8  7  1  0  0  0  0
  8 10  1  0  0  0  0
  9  7  2  0  0  0  0
 11  8  1  0  0  0  0
 11 12  1  1  0  0  0
 12 17  1  0  0  0  0
 14 16  1  0  0  0  0
 15 19  1  6  0  0  0
 15 13  1  0  0  0  0
 16 13  1  0  0  0  0
 16 36  1  1  0  0  0
 17 14  1  0  0  0  0
 17 15  1  0  0  0  0
 18 12  2  0  0  0  0
 19 21  2  0  0  0  0
 20 19  1  0  0  0  0
 22 20  1  0  0  0  0
 23 20  1  0  0  0  0
 24 26  1  0  0  0  0
 25 27  2  0  0  0  0
 26 29  2  0  0  0  0
 27 29  1  0  0  0  0
 28 24  2  0  0  0  0
 28 25  1  0  0  0  0
 29 23  1  0  0  0  0
 30 34  2  0  0  0  0
 30 35  1  0  0  0  0
 31 28  1  0  0  0  0
 32 33  1  0  0  0  0
 32 31  2  0  0  0  0
 34 32  1  0  0  0  0
 35 31  1  0  0  0  0
 37 36  1  0  0  0  0
 38 41  1  0  0  0  0
 39 41  1  0  0  0  0
 40 41  1  0  0  0  0
 41 11  1  0  0  0  0
 42 43  1  0  0  0  0
 42  1  1  0  0  0  0
 43 44  1  0  0  0  0
 45 44  1  0  0  0  0
 46 47  1  0  0  0  0
 46 48  2  0  0  0  0
 47 45  1  0  0  0  0
 49 47  1  0  0  0  0
 50 57  1  0  0  0  0
 51 55  1  0  0  0  0
 52 56  2  0  0  0  0
 53 50  2  0  0  0  0
 53 58  1  0  0  0  0
 54 56  1  0  0  0  0
 54 61  1  0  0  0  0
 55 46  1  0  0  0  0
 56 63  1  0  0  0  0
 57 78  1  0  0  0  0
 57 55  2  0  0  0  0
 58 51  2  0  0  0  0
 59 54  2  0  0  0  0
 60 61  2  0  0  0  0
 61 53  1  0  0  0  0
 62 67  1  0  0  0  0
 62 59  1  0  0  0  0
 63 66  1  0  0  0  0
 64 67  1  0  0  0  0
 65 59  1  0  0  0  0
 65 52  1  0  0  0  0
 66 58  1  0  0  0  0
 66 74  1  0  0  0  0
 67 60  1  0  0  0  0
 68 62  2  0  0  0  0
 69 65  1  0  0  0  0
 70 72  1  0  0  0  0
 71 72  2  0  0  0  0
 72 76  1  0  0  0  0
 73 70  2  0  0  0  0
 74 73  1  0  0  0  0
 74 75  2  0  0  0  0
 75 71  1  0  0  0  0
 77 73  1  0  0  0  0
 81 82  2  0  0  0  0
 82 79  1  0  0  0  0
 82 78  1  0  0  0  0
 82 80  2  0  0  0  0
M  END
>  <MODEL>
2

>  <REMARK>
 VINA RESULT:   -11.417      2.875      5.261
 INTER + INTRA:         -31.944
 INTER:                 -26.434
 INTRA:                  -5.511
 UNBOUND:                -5.511
  Name = 
  29 active torsions:
  status: ('A' for Active; 'I' for Inactive)
    1  A    between atoms: C_11  and  C_21
    2  A    between atoms: C_14  and  C_28
    3  A    between atoms: C_16  and  C_43
    4  A    between atoms: C_17  and  C_44
    5  A    between atoms: C_23  and  C_37
    6  A    between atoms: C_24  and  N_60
    7  A    between atoms: C_29  and  C_35
    8  A    between atoms: C_30  and  C_55
    9  A    between atoms: C_31  and  C_45
   10  A    between atoms: C_36  and  O_73
   11  A    between atoms: C_38  and  C_56
   12  A    between atoms: C_39  and  C_56
   13  A    between atoms: C_40  and  C_56
   14  A    between atoms: C_41  and  N_61
   15  A    between atoms: C_42  and  S_77
   16  A    between atoms: C_43  and  N_64
   17  A    between atoms: C_44  and  S_77
   18  A    between atoms: C_45  and  C_46
   19  A    between atoms: C_46  and  C_47
   20  A    between atoms: C_47  and  C_48
   21  A    between atoms: C_48  and  C_49
   22  A    between atoms: C_49  and  C_50
   23  A    between atoms: C_50  and  C_51
   24  A    between atoms: C_51  and  C_52
   25  A    between atoms: C_52  and  C_53
   26  A    between atoms: C_53  and  C_54
   27  A    between atoms: C_54  and  N_63
   28  A    between atoms: C_55  and  C_56
   29  A    between atoms: C_55  and  N_65
                            x       y       z     vdW  Elec       q    Type
                         _______ _______ _______ _____ _____    ______ ____

>  <TORSDO>
F 23

$$$$
