MODEL 1
REMARK VINA RESULT:   -11.092      0.000      0.000
REMARK INTER + INTRA:         -30.709
REMARK INTER:                 -24.246
REMARK INTRA:                  -6.463
REMARK UNBOUND:                -5.676
REMARK  Name = ligand
REMARK  28 active torsions:
REMARK  status: ('A' for Active; 'I' for Inactive)
REMARK    1  A    between atoms: C_3  and  C_9
REMARK    2  A    between atoms: C_6  and  C_8
REMARK    3  A    between atoms: C_8  and  N_59
REMARK    4  A    between atoms: C_10  and  C_14
REMARK    5  A    between atoms: C_11  and  C_12
REMARK    6  A    between atoms: C_15  and  O_75
REMARK    7  A    between atoms: C_17  and  C_18
REMARK    8  A    between atoms: C_18  and  C_19
REMARK    9  A    between atoms: C_18  and  N_61
REMARK   10  A    between atoms: C_19  and  C_20
REMARK   11  A    between atoms: C_19  and  C_21
REMARK   12  A    between atoms: C_19  and  C_22
REMARK   13  A    between atoms: C_23  and  C_24
REMARK   14  A    between atoms: C_24  and  C_25
REMARK   15  A    between atoms: C_25  and  C_26
REMARK   16  A    between atoms: C_26  and  C_27
REMARK   17  A    between atoms: C_27  and  C_28
REMARK   18  A    between atoms: C_28  and  C_29
REMARK   19  A    between atoms: C_29  and  C_30
REMARK   20  A    between atoms: C_30  and  C_31
REMARK   21  A    between atoms: C_31  and  C_32
REMARK   22  A    between atoms: C_32  and  C_33
REMARK   23  A    between atoms: C_33  and  N_62
REMARK   24  A    between atoms: C_34  and  C_35
REMARK   25  A    between atoms: C_40  and  C_41
REMARK   26  A    between atoms: C_41  and  S_77
REMARK   27  A    between atoms: C_42  and  S_77
REMARK   28  A    between atoms: C_56  and  N_64
REMARK                            x       y       z     vdW  Elec       q    Type
REMARK                         _______ _______ _______ _____ _____    ______ ____
ROOT
ATOM      1  C   UNL     1     -10.393  10.070 -13.661  0.00  0.00    +0.000 C 
ENDROOT
BRANCH   1   2
ATOM      2  C   UNL     1      -9.350  11.073 -13.133  0.00  0.00    +0.000 C 
BRANCH   2   3
ATOM      3  C   UNL     1      -8.072  11.174 -13.989  0.00  0.00    +0.000 C 
BRANCH   3   4
ATOM      4  C   UNL     1      -7.985  12.498 -14.770  0.00  0.00    +0.000 C 
BRANCH   4   5
ATOM      5  C   UNL     1      -7.852  12.297 -16.289  0.00  0.00    +0.000 C 
BRANCH   5   6
ATOM      6  C   UNL     1      -8.511  10.986 -16.770  0.00  0.00    +0.000 C 
BRANCH   6   7
ATOM      7  C   UNL     1      -7.513   9.962 -17.327  0.00  0.00    +0.000 C 
ATOM      8  N   UNL     1      -8.037   8.875 -17.923  0.00  0.00    +0.000 N 
ATOM      9  O   UNL     1      -6.300  10.162 -17.241  0.00  0.00    +0.000 OA
ATOM     10  H   UNL     1      -9.040   8.772 -17.966  0.00  0.00    +0.000 HD
BRANCH   8  11
ATOM     11  C   UNL     1      -7.265   7.825 -18.607  0.00  0.00    +0.000 C 
BRANCH  11  16
ATOM     12  C   UNL     1      -7.373   7.195 -22.514  0.00  0.00    +0.000 C 
ATOM     13  C   UNL     1      -6.085   6.712 -23.189  0.00  0.00    +0.000 C 
ATOM     14  C   UNL     1      -5.038   7.549 -22.473  0.00  0.00    +0.000 C 
ATOM     15  C   UNL     1      -5.541   7.608 -21.026  0.00  0.00    +0.000 C 
ATOM     16  C   UNL     1      -7.842   7.622 -20.039  0.00  0.00    +0.000 C 
ATOM     17  N   UNL     1      -7.001   7.421 -21.094  0.00  0.00    +0.000 N 
ATOM     18  O   UNL     1      -9.070   7.646 -20.155  0.00  0.00    +0.000 OA
BRANCH  12  19
ATOM     19  C   UNL     1      -8.541   6.207 -22.717  0.00  0.00    +0.000 C 
ATOM     20  N   UNL     1      -8.665   5.257 -21.777  0.00  0.00    +0.000 N 
ATOM     21  O   UNL     1      -9.278   6.327 -23.696  0.00  0.00    +0.000 OA
ATOM     22  H   UNL     1      -7.967   5.205 -21.048  0.00  0.00    +0.000 HD
BRANCH  20  23
ATOM     23  C   UNL     1      -9.666   4.195 -21.793  0.00  0.00    +0.000 C 
BRANCH  23  28
ATOM     24  C   UNL     1      -8.325   2.502 -20.481  0.00  0.00    +0.000 A 
ATOM     25  C   UNL     1      -9.220   1.451 -18.497  0.00  0.00    +0.000 A 
ATOM     26  C   UNL     1     -10.403   2.182 -18.646  0.00  0.00    +0.000 A 
ATOM     27  C   UNL     1     -10.546   3.071 -19.708  0.00  0.00    +0.000 A 
ATOM     28  C   UNL     1      -9.502   3.241 -20.621  0.00  0.00    +0.000 A 
ATOM     29  C   UNL     1      -8.184   1.612 -19.420  0.00  0.00    +0.000 A 
BRANCH  25  31
ATOM     30  C   UNL     1      -8.773  -1.468 -15.974  0.00  0.00    +0.000 A 
ATOM     31  C   UNL     1      -9.058   0.495 -17.364  0.00  0.00    +0.000 A 
ATOM     32  C   UNL     1      -9.291   1.976 -15.203  0.00  0.00    +0.000 C 
ATOM     33  C   UNL     1      -9.101   0.687 -15.975  0.00  0.00    +0.000 A 
ATOM     34  N   UNL     1      -8.946  -0.401 -15.241  0.00  0.00    +0.000 NA
ATOM     35  S   UNL     1      -8.793  -1.203 -17.680  0.00  0.00    +0.000 S 
ENDBRANCH  25  31
ENDBRANCH  23  28
ENDBRANCH  20  23
ENDBRANCH  12  19
BRANCH  14  36
ATOM     36  O   UNL     1      -4.909   8.840 -23.040  0.00  0.00    +0.000 OA
ATOM     37  H   UNL     1      -4.891   8.752 -23.996  0.00  0.00    +0.000 HD
ENDBRANCH  14  36
ENDBRANCH  11  16
BRANCH  11  38
ATOM     38  C   UNL     1      -7.166   6.499 -17.757  0.00  0.00    +0.000 C 
ATOM     39  C   UNL     1      -5.777   5.845 -17.979  0.00  0.00    +0.000 C 
ATOM     40  C   UNL     1      -8.237   5.466 -18.197  0.00  0.00    +0.000 C 
ATOM     41  C   UNL     1      -7.327   6.758 -16.235  0.00  0.00    +0.000 C 
ENDBRANCH  11  38
ENDBRANCH   8  11
ENDBRANCH   6   7
ENDBRANCH   5   6
ENDBRANCH   4   5
ENDBRANCH   3   4
ENDBRANCH   2   3
ENDBRANCH   1   2
BRANCH   1  42
ATOM     42  C   UNL     1     -11.673  10.718 -14.232  0.00  0.00    +0.000 C 
BRANCH  42  43
ATOM     43  C   UNL     1     -11.622  12.257 -14.297  0.00  0.00    +0.000 C 
BRANCH  43  44
ATOM     44  C   UNL     1     -12.796  12.959 -13.580  0.00  0.00    +0.000 C 
BRANCH  44  45
ATOM     45  C   UNL     1     -13.905  13.477 -14.519  0.00  0.00    +0.000 C 
BRANCH  45  47
ATOM     46  C   UNL     1     -15.068  11.622 -15.727  0.00  0.00    +0.000 C 
ATOM     47  N   UNL     1     -14.145  12.601 -15.668  0.00  0.00    +0.000 N 
ATOM     48  O   UNL     1     -15.793  11.319 -14.780  0.00  0.00    +0.000 OA
ATOM     49  H   UNL     1     -13.536  12.731 -16.462  0.00  0.00    +0.000 HD
BRANCH  46  50
ATOM     50  C   UNL     1     -15.186  10.926 -17.066  0.00  0.00    +0.000 A 
ATOM     51  C   UNL     1     -14.215   9.985 -17.422  0.00  0.00    +0.000 A 
ATOM     52  C   UNL     1     -14.206   9.310 -18.656  0.00  0.00    +0.000 A 
ATOM     53  C   UNL     1     -15.266   9.576 -19.571  0.00  0.00    +0.000 A 
ATOM     54  C   UNL     1     -16.226  10.534 -19.207  0.00  0.00    +0.000 A 
ATOM     55  C   UNL     1     -16.218  11.200 -17.981  0.00  0.00    +0.000 A 
ATOM     56  C   UNL     1     -15.462   8.863 -20.883  0.00  0.00    +0.000 A 
ATOM     57  C   UNL     1     -16.672   8.732 -21.483  0.00  0.00    +0.000 A 
ATOM     58  C   UNL     1     -15.969   7.632 -23.531  0.00  0.00    +0.000 A 
ATOM     59  C   UNL     1     -14.656   7.717 -22.896  0.00  0.00    +0.000 A 
ATOM     60  C   UNL     1     -14.364   8.291 -21.649  0.00  0.00    +0.000 A 
ATOM     61  C   UNL     1     -13.002   8.161 -21.382  0.00  0.00    +0.000 A 
ATOM     62  C   UNL     1     -12.461   7.533 -22.498  0.00  0.00    +0.000 A 
ATOM     63  C   UNL     1     -12.337   8.632 -20.123  0.00  0.00    +0.000 C 
ATOM     64  C   UNL     1     -12.504   7.704 -17.893  0.00  0.00    +0.000 A 
ATOM     65  C   UNL     1     -13.056   6.525 -17.369  0.00  0.00    +0.000 A 
ATOM     66  C   UNL     1     -12.383   5.861 -16.341  0.00  0.00    +0.000 A 
ATOM     67  C   UNL     1     -11.180   6.380 -15.861  0.00  0.00    +0.000 A 
ATOM     68  C   UNL     1     -10.684   7.552 -16.430  0.00  0.00    +0.000 A 
ATOM     69  C   UNL     1     -18.337   8.082 -23.185  0.00  0.00    +0.000 C 
ATOM     70  F   UNL     1     -10.509   5.759 -14.865  0.00  0.00    +0.000 F 
ATOM     71  F   UNL     1     -14.225   6.028 -17.841  0.00  0.00    +0.000 F 
ATOM     72  N   UNL     1     -16.951   8.142 -22.698  0.00  0.00    +0.000 N 
ATOM     73  N   UNL     1     -13.461   7.273 -23.398  0.00  0.00    +0.000 N 
ATOM     74  N   UNL     1     -13.158   8.397 -18.926  0.00  0.00    +0.000 N 
ATOM     75  N   UNL     1     -11.323   8.212 -17.430  0.00  0.00    +0.000 NA
ATOM     76  O   UNL     1     -16.186   7.164 -24.652  0.00  0.00    +0.000 OA
ATOM     77  H   UNL     1     -13.340   6.819 -24.293  0.00  0.00    +0.000 HD
BRANCH  55  78
ATOM     78  C   UNL     1     -17.333  12.223 -17.745  0.00  0.00    +0.000 C 
BRANCH  78  82
ATOM     79  C   UNL     1     -18.476  14.962 -18.189  0.00  0.00    +0.000 C 
ATOM     80  O   UNL     1     -15.908  14.527 -17.426  0.00  0.00    +0.000 OA
ATOM     81  O   UNL     1     -16.562  13.885 -19.787  0.00  0.00    +0.000 OA
ATOM     82  S   UNL     1     -16.888  13.963 -18.359  0.00  0.00    +0.000 S 
ENDBRANCH  78  82
ENDBRANCH  55  78
ENDBRANCH  46  50
ENDBRANCH  45  47
ENDBRANCH  44  45
ENDBRANCH  43  44
ENDBRANCH  42  43
ENDBRANCH   1  42
TORSDOF 22
ENDMDL
MODEL 2
REMARK VINA RESULT:   -10.181      1.744      2.308
REMARK INTER + INTRA:         -28.654
REMARK INTER:                 -22.978
REMARK INTRA:                  -5.676
REMARK UNBOUND:                -5.676
REMARK  Name = ligand
REMARK  28 active torsions:
REMARK  status: ('A' for Active; 'I' for Inactive)
REMARK    1  A    between atoms: C_3  and  C_9
REMARK    2  A    between atoms: C_6  and  C_8
REMARK    3  A    between atoms: C_8  and  N_59
REMARK    4  A    between atoms: C_10  and  C_14
REMARK    5  A    between atoms: C_11  and  C_12
REMARK    6  A    between atoms: C_15  and  O_75
REMARK    7  A    between atoms: C_17  and  C_18
REMARK    8  A    between atoms: C_18  and  C_19
REMARK    9  A    between atoms: C_18  and  N_61
REMARK   10  A    between atoms: C_19  and  C_20
REMARK   11  A    between atoms: C_19  and  C_21
REMARK   12  A    between atoms: C_19  and  C_22
REMARK   13  A    between atoms: C_23  and  C_24
REMARK   14  A    between atoms: C_24  and  C_25
REMARK   15  A    between atoms: C_25  and  C_26
REMARK   16  A    between atoms: C_26  and  C_27
REMARK   17  A    between atoms: C_27  and  C_28
REMARK   18  A    between atoms: C_28  and  C_29
REMARK   19  A    between atoms: C_29  and  C_30
REMARK   20  A    between atoms: C_30  and  C_31
REMARK   21  A    between atoms: C_31  and  C_32
REMARK   22  A    between atoms: C_32  and  C_33
REMARK   23  A    between atoms: C_33  and  N_62
REMARK   24  A    between atoms: C_34  and  C_35
REMARK   25  A    between atoms: C_40  and  C_41
REMARK   26  A    between atoms: C_41  and  S_77
REMARK   27  A    between atoms: C_42  and  S_77
REMARK   28  A    between atoms: C_56  and  N_64
REMARK                            x       y       z     vdW  Elec       q    Type
REMARK                         _______ _______ _______ _____ _____    ______ ____
ROOT
ATOM      1  C   UNL     1      -9.567  10.663 -13.461  0.00  0.00    +0.000 C 
ENDROOT
BRANCH   1   2
ATOM      2  C   UNL     1      -8.035  10.760 -13.323  0.00  0.00    +0.000 C 
BRANCH   2   3
ATOM      3  C   UNL     1      -7.276  10.807 -14.663  0.00  0.00    +0.000 C 
BRANCH   3   4
ATOM      4  C   UNL     1      -6.096  11.796 -14.641  0.00  0.00    +0.000 C 
BRANCH   4   5
ATOM      5  C   UNL     1      -5.303  11.822 -15.959  0.00  0.00    +0.000 C 
BRANCH   5   6
ATOM      6  C   UNL     1      -5.934  10.923 -17.044  0.00  0.00    +0.000 C 
BRANCH   6   7
ATOM      7  C   UNL     1      -4.945  10.476 -18.129  0.00  0.00    +0.000 C 
ATOM      8  N   UNL     1      -4.833   9.150 -18.330  0.00  0.00    +0.000 N 
ATOM      9  O   UNL     1      -4.317  11.311 -18.782  0.00  0.00    +0.000 OA
ATOM     10  H   UNL     1      -5.379   8.518 -17.764  0.00  0.00    +0.000 HD
BRANCH   8  11
ATOM     11  C   UNL     1      -4.021   8.516 -19.380  0.00  0.00    +0.000 C 
BRANCH  11  16
ATOM     12  C   UNL     1      -5.013   8.422 -23.212  0.00  0.00    +0.000 C 
ATOM     13  C   UNL     1      -3.876   8.448 -24.238  0.00  0.00    +0.000 C 
ATOM     14  C   UNL     1      -2.927   9.456 -23.611  0.00  0.00    +0.000 C 
ATOM     15  C   UNL     1      -3.018   9.162 -22.110  0.00  0.00    +0.000 C 
ATOM     16  C   UNL     1      -4.890   8.346 -20.662  0.00  0.00    +0.000 C 
ATOM     17  N   UNL     1      -4.343   8.554 -21.893  0.00  0.00    +0.000 N 
ATOM     18  O   UNL     1      -6.067   8.014 -20.497  0.00  0.00    +0.000 OA
BRANCH  12  19
ATOM     19  C   UNL     1      -5.896   7.166 -23.355  0.00  0.00    +0.000 C 
ATOM     20  N   UNL     1      -7.196   7.337 -23.071  0.00  0.00    +0.000 N 
ATOM     21  O   UNL     1      -5.388   6.100 -23.707  0.00  0.00    +0.000 OA
ATOM     22  H   UNL     1      -7.501   8.236 -22.725  0.00  0.00    +0.000 HD
BRANCH  20  23
ATOM     23  C   UNL     1      -8.201   6.278 -23.094  0.00  0.00    +0.000 C 
BRANCH  23  28
ATOM     24  C   UNL     1      -7.713   4.544 -21.322  0.00  0.00    +0.000 A 
ATOM     25  C   UNL     1      -8.876   4.546 -19.203  0.00  0.00    +0.000 A 
ATOM     26  C   UNL     1      -9.600   5.674 -19.604  0.00  0.00    +0.000 A 
ATOM     27  C   UNL     1      -9.379   6.236 -20.859  0.00  0.00    +0.000 A 
ATOM     28  C   UNL     1      -8.426   5.678 -21.715  0.00  0.00    +0.000 A 
ATOM     29  C   UNL     1      -7.935   3.982 -20.068  0.00  0.00    +0.000 A 
BRANCH  25  31
ATOM     30  C   UNL     1      -8.918   3.147 -15.579  0.00  0.00    +0.000 A 
ATOM     31  C   UNL     1      -9.107   3.935 -17.862  0.00  0.00    +0.000 A 
ATOM     32  C   UNL     1     -11.460   2.776 -18.053  0.00  0.00    +0.000 C 
ATOM     33  C   UNL     1     -10.174   3.173 -17.361  0.00  0.00    +0.000 A 
ATOM     34  N   UNL     1     -10.043   2.755 -16.114  0.00  0.00    +0.000 NA
ATOM     35  S   UNL     1      -7.901   4.091 -16.608  0.00  0.00    +0.000 S 
ENDBRANCH  25  31
ENDBRANCH  23  28
ENDBRANCH  20  23
ENDBRANCH  12  19
BRANCH  14  36
ATOM     36  O   UNL     1      -3.293  10.791 -23.912  0.00  0.00    +0.000 OA
ATOM     37  H   UNL     1      -4.235  10.814 -24.094  0.00  0.00    +0.000 HD
ENDBRANCH  14  36
ENDBRANCH  11  16
BRANCH  11  38
ATOM     38  C   UNL     1      -3.330   7.186 -18.887  0.00  0.00    +0.000 C 
ATOM     39  C   UNL     1      -2.271   7.522 -17.804  0.00  0.00    +0.000 C 
ATOM     40  C   UNL     1      -2.589   6.472 -20.049  0.00  0.00    +0.000 C 
ATOM     41  C   UNL     1      -4.343   6.189 -18.262  0.00  0.00    +0.000 C 
ENDBRANCH  11  38
ENDBRANCH   8  11
ENDBRANCH   6   7
ENDBRANCH   5   6
ENDBRANCH   4   5
ENDBRANCH   3   4
ENDBRANCH   2   3
ENDBRANCH   1   2
BRANCH   1  42
ATOM     42  C   UNL     1     -10.216  11.835 -14.229  0.00  0.00    +0.000 C 
BRANCH  42  43
ATOM     43  C   UNL     1     -11.756  11.825 -14.203  0.00  0.00    +0.000 C 
BRANCH  43  44
ATOM     44  C   UNL     1     -12.392  13.183 -13.830  0.00  0.00    +0.000 C 
BRANCH  44  45
ATOM     45  C   UNL     1     -13.728  13.484 -14.540  0.00  0.00    +0.000 C 
BRANCH  45  47
ATOM     46  C   UNL     1     -14.978  11.682 -15.740  0.00  0.00    +0.000 C 
ATOM     47  N   UNL     1     -13.992  12.597 -15.676  0.00  0.00    +0.000 N 
ATOM     48  O   UNL     1     -15.750  11.452 -14.810  0.00  0.00    +0.000 OA
ATOM     49  H   UNL     1     -13.352  12.666 -16.453  0.00  0.00    +0.000 HD
BRANCH  46  50
ATOM     50  C   UNL     1     -15.102  10.961 -17.065  0.00  0.00    +0.000 A 
ATOM     51  C   UNL     1     -14.118  10.034 -17.422  0.00  0.00    +0.000 A 
ATOM     52  C   UNL     1     -14.115   9.339 -18.645  0.00  0.00    +0.000 A 
ATOM     53  C   UNL     1     -15.195   9.567 -19.546  0.00  0.00    +0.000 A 
ATOM     54  C   UNL     1     -16.169  10.510 -19.182  0.00  0.00    +0.000 A 
ATOM     55  C   UNL     1     -16.155  11.197 -17.967  0.00  0.00    +0.000 A 
ATOM     56  C   UNL     1     -15.397   8.828 -20.843  0.00  0.00    +0.000 A 
ATOM     57  C   UNL     1     -16.614   8.662 -21.420  0.00  0.00    +0.000 A 
ATOM     58  C   UNL     1     -15.922   7.542 -23.461  0.00  0.00    +0.000 A 
ATOM     59  C   UNL     1     -14.600   7.666 -22.849  0.00  0.00    +0.000 A 
ATOM     60  C   UNL     1     -14.300   8.267 -21.618  0.00  0.00    +0.000 A 
ATOM     61  C   UNL     1     -12.931   8.170 -21.371  0.00  0.00    +0.000 A 
ATOM     62  C   UNL     1     -12.395   7.536 -22.485  0.00  0.00    +0.000 A 
ATOM     63  C   UNL     1     -12.256   8.677 -20.132  0.00  0.00    +0.000 C 
ATOM     64  C   UNL     1     -12.366   7.783 -17.884  0.00  0.00    +0.000 A 
ATOM     65  C   UNL     1     -12.884   6.601 -17.332  0.00  0.00    +0.000 A 
ATOM     66  C   UNL     1     -12.180   5.969 -16.305  0.00  0.00    +0.000 A 
ATOM     67  C   UNL     1     -10.980   6.521 -15.854  0.00  0.00    +0.000 A 
ATOM     68  C   UNL     1     -10.520   7.694 -16.450  0.00  0.00    +0.000 A 
ATOM     69  C   UNL     1     -18.293   7.948 -23.083  0.00  0.00    +0.000 C 
ATOM     70  F   UNL     1     -10.280   5.932 -14.859  0.00  0.00    +0.000 F 
ATOM     71  F   UNL     1     -14.049   6.072 -17.775  0.00  0.00    +0.000 F 
ATOM     72  N   UNL     1     -16.900   8.045 -22.620  0.00  0.00    +0.000 N 
ATOM     73  N   UNL     1     -13.404   7.239 -23.365  0.00  0.00    +0.000 N 
ATOM     74  N   UNL     1     -13.052   8.444 -18.917  0.00  0.00    +0.000 N 
ATOM     75  N   UNL     1     -11.189   8.323 -17.450  0.00  0.00    +0.000 NA
ATOM     76  O   UNL     1     -16.147   7.051 -24.571  0.00  0.00    +0.000 OA
ATOM     77  H   UNL     1     -13.289   6.772 -24.253  0.00  0.00    +0.000 HD
BRANCH  55  78
ATOM     78  C   UNL     1     -17.288  12.200 -17.729  0.00  0.00    +0.000 C 
BRANCH  78  82
ATOM     79  C   UNL     1     -18.420  14.968 -17.990  0.00  0.00    +0.000 C 
ATOM     80  O   UNL     1     -15.790  14.472 -17.532  0.00  0.00    +0.000 OA
ATOM     81  O   UNL     1     -16.721  13.890 -19.815  0.00  0.00    +0.000 OA
ATOM     82  S   UNL     1     -16.881  13.944 -18.358  0.00  0.00    +0.000 S 
ENDBRANCH  78  82
ENDBRANCH  55  78
ENDBRANCH  46  50
ENDBRANCH  45  47
ENDBRANCH  44  45
ENDBRANCH  43  44
ENDBRANCH  42  43
ENDBRANCH   1  42
TORSDOF 22
ENDMDL
