ligand
                    3D
 Structure written by MMmdl.
144151  0  0  1  0            999 V2000
  -10.7128    3.7040   12.5880 C   0  0  0  0  0  0
   -9.2195    2.5553    6.7271 C   0  0  0  0  0  0
  -10.1593    3.4883    8.7495 C   0  0  0  0  0  0
  -10.5226    4.6406    8.0455 C   0  0  0  0  0  0
  -10.2347    4.7506    6.6877 C   0  0  0  0  0  0
   -9.5724    3.7124    6.0291 C   0  0  0  0  0  0
   -9.5101    2.4453    8.0838 C   0  0  0  0  0  0
   -9.2766    3.8230    4.5421 C   0  0  0  0  0  0
  -10.4653    3.3594   10.2028 C   0  0  0  0  0  0
  -11.4193    0.9224   10.4700 C   0  0  0  0  0  0
   -7.8152    5.3959    3.2939 C   0  0  0  0  0  0
   -6.3825    5.9590    3.1855 C   0  0  2  0  0  0
   -6.3480    7.4824    3.3447 C   0  0  0  0  0  0
  -10.9771    2.2885   10.9516 C   0  0  0  0  0  0
   -4.9927    7.8171    2.7444 C   0  0  2  0  0  0
   -4.8678    6.8529    1.5590 C   0  0  0  0  0  0
   -5.7081    4.5246    1.1824 C   0  0  0  0  0  0
   -4.9639    4.4386   -0.1844 C   0  0  2  0  0  0
   -5.9122    4.5360   -1.4416 C   0  0  0  0  0  0
   -5.0584    4.5097   -2.7366 C   0  0  0  0  0  0
   -6.7108    5.8659   -1.4438 C   0  0  0  0  0  0
   -6.9178    3.3556   -1.5174 C   0  0  0  0  0  0
   -3.0090    3.0462    0.5222 C   0  0  0  0  0  0
   -2.3540    1.6608    0.4343 C   0  0  0  0  0  0
   -0.8144    1.7072    0.3281 C   0  0  0  0  0  0
   -0.1816    0.3047    0.3615 C   0  0  0  0  0  0
    1.3516    0.3278    0.2303 C   0  0  0  0  0  0
    1.9759   -1.0781    0.3219 C   0  0  0  0  0  0
    3.4942   -1.1196    0.0628 C   0  0  0  0  0  0
    4.3425   -0.3661    1.1091 C   0  0  0  0  0  0
    5.8611   -0.5879    0.9629 C   0  0  0  0  0  0
    6.4574   -0.0389   -0.3518 C   0  0  0  0  0  0
    7.9899   -0.1654   -0.4652 C   0  0  0  0  0  0
    8.9849   -2.1782    0.6350 C   0  0  0  0  0  0
    9.3009   -3.6436    0.4343 C   0  0  0  0  0  0
    9.9795   -4.0335   -0.7253 C   0  0  0  0  0  0
   10.2867   -5.3721   -1.0303 C   0  0  0  0  0  0
    9.9198   -6.3744   -0.0863 C   0  0  0  0  0  0
    9.2274   -5.9706    1.0671 C   0  0  0  0  0  0
    8.9229   -4.6403    1.3525 C   0  0  0  0  0  0
    8.1526   -4.3714    2.6494 C   0  0  0  0  0  0
   10.4800   -3.1576    4.1067 C   0  0  0  0  0  0
   10.2693   -7.8344   -0.2094 C   0  0  0  0  0  0
   10.3851   -8.6617    0.8597 C   0  0  0  0  0  0
   10.7901  -10.7502   -0.3129 C   0  0  0  0  0  0
   10.7142   -9.8804   -1.4846 C   0  0  0  0  0  0
   10.4669   -8.4995   -1.4894 C   0  0  0  0  0  0
   10.4911   -8.0228   -2.7990 C   0  0  0  0  0  0
   10.7180   -9.1383   -3.5971 C   0  0  0  0  0  0
   10.2983   -6.5858   -3.1822 C   0  0  0  0  0  0
   11.8100   -4.7237   -2.8523 C   0  0  0  0  0  0
   13.1472   -4.6180   -2.4398 C   0  0  0  0  0  0
   13.9738   -3.6778   -3.0588 C   0  0  0  0  0  0
   13.4559   -2.8701   -4.0715 C   0  0  0  0  0  0
   12.1197   -3.0315   -4.4371 C   0  0  0  0  0  0
   10.7549  -10.7514    2.1215 C   0  0  0  0  0  0
   14.2334   -1.9504   -4.6860 F   0  0  0  0  0  0
   13.6419   -5.4056   -1.4554 F   0  0  0  0  0  0
   -8.0165    4.5144    4.2852 N   0  0  0  0  0  0
   -5.7165    5.6933    1.8850 N   0  0  0  0  0  0
   -4.1286    3.2285   -0.2011 N   0  0  0  0  0  0
    8.4602   -1.5515   -0.4356 N   0  0  0  0  0  0
  -11.0994    2.5030   12.2500 N   0  0  0  0  0  0
   10.6536  -10.0155    0.8529 N   0  0  0  0  0  0
   10.8487  -10.2452   -2.7987 N   0  0  0  0  0  0
   10.9520   -5.6581   -2.2472 N   0  0  0  0  0  0
   11.3010   -3.9394   -3.8476 N   0  0  0  0  0  0
   -8.6770    5.7637    2.4947 O   0  0  0  0  0  0
   -6.2766    3.5023    1.5723 O   0  0  0  0  0  0
   -2.5252    3.9200    1.2435 O   0  0  0  0  0  0
    9.1769   -1.6222    1.7163 O   0  0  0  0  0  0
    8.3688   -4.3090    5.3676 O   0  0  0  0  0  0
    9.9631   -5.8249    4.1122 O   0  0  0  0  0  0
   10.9598  -11.9717   -0.3462 O   0  0  0  0  0  0
   -3.9403    7.6466    3.6763 O   0  0  0  0  0  0
  -10.1490    4.6908   11.2876 S   0  0  0  0  0  0
    9.2253   -4.5603    4.2042 S   0  0  0  0  0  0
   -5.7875    5.5247    3.9904 H   0  0  0  0  0  0
   -4.9763    8.8498    2.3940 H   0  0  0  0  0  0
   -4.2602    5.2649   -0.2718 H   0  0  0  0  0  0
   11.0255  -11.1847   -3.1253 H   0  0  0  0  0  0
  -10.7354    4.0723   13.6031 H   0  0  0  0  0  0
   -8.7172    1.7429    6.2222 H   0  0  0  0  0  0
  -11.0336    5.4507    8.5450 H   0  0  0  0  0  0
  -10.5224    5.6430    6.1505 H   0  0  0  0  0  0
   -9.2241    1.5492    8.6152 H   0  0  0  0  0  0
  -10.1215    4.3032    4.0427 H   0  0  0  0  0  0
   -9.2113    2.8256    4.1045 H   0  0  0  0  0  0
  -11.5044    0.8745    9.3846 H   0  0  0  0  0  0
  -10.7166    0.1441   10.7693 H   0  0  0  0  0  0
  -12.3966    0.6443   10.8668 H   0  0  0  0  0  0
   -6.4607    7.7841    4.3871 H   0  0  0  0  0  0
   -7.1476    7.9398    2.7587 H   0  0  0  0  0  0
   -3.8255    6.5748    1.3935 H   0  0  0  0  0  0
   -5.2342    7.3213    0.6456 H   0  0  0  0  0  0
   -4.5197    3.5685   -2.8533 H   0  0  0  0  0  0
   -5.6745    4.6329   -3.6286 H   0  0  0  0  0  0
   -4.3177    5.3106   -2.7449 H   0  0  0  0  0  0
   -7.3767    5.9486   -0.5840 H   0  0  0  0  0  0
   -6.0474    6.7312   -1.4308 H   0  0  0  0  0  0
   -7.3363    5.9557   -2.3332 H   0  0  0  0  0  0
   -7.6280    3.3690   -0.6904 H   0  0  0  0  0  0
   -7.5086    3.3929   -2.4337 H   0  0  0  0  0  0
   -6.4133    2.3889   -1.5012 H   0  0  0  0  0  0
   -2.7629    1.1036   -0.4108 H   0  0  0  0  0  0
   -2.6425    1.1130    1.3324 H   0  0  0  0  0  0
   -0.3989    2.2971    1.1475 H   0  0  0  0  0  0
   -0.5262    2.2136   -0.5950 H   0  0  0  0  0  0
   -0.6027   -0.3024   -0.4416 H   0  0  0  0  0  0
   -0.4565   -0.1903    1.2943 H   0  0  0  0  0  0
    1.7690    0.9646    1.0112 H   0  0  0  0  0  0
    1.6256    0.7881   -0.7203 H   0  0  0  0  0  0
    1.4888   -1.7275   -0.4072 H   0  0  0  0  0  0
    1.7598   -1.5129    1.2990 H   0  0  0  0  0  0
    3.6960   -0.7261   -0.9339 H   0  0  0  0  0  0
    3.8077   -2.1644    0.0414 H   0  0  0  0  0  0
    4.0431   -0.6900    2.1070 H   0  0  0  0  0  0
    4.1284    0.7024    1.0646 H   0  0  0  0  0  0
    6.0741   -1.6539    1.0532 H   0  0  0  0  0  0
    6.3650   -0.1117    1.8053 H   0  0  0  0  0  0
    6.1884    1.0136   -0.4524 H   0  0  0  0  0  0
    6.0018   -0.5464   -1.2027 H   0  0  0  0  0  0
    8.4658    0.4292    0.3177 H   0  0  0  0  0  0
    8.3159    0.2710   -1.4099 H   0  0  0  0  0  0
   10.2598   -3.2606   -1.4268 H   0  0  0  0  0  0
    8.9009   -6.7097    1.7832 H   0  0  0  0  0  0
    7.3470   -5.1001    2.7445 H   0  0  0  0  0  0
    7.6817   -3.3912    2.6853 H   0  0  0  0  0  0
   11.1698   -3.2454    4.9452 H   0  0  0  0  0  0
   11.0260   -3.2336    3.1668 H   0  0  0  0  0  0
    9.9535   -2.2057    4.1626 H   0  0  0  0  0  0
   10.2792   -8.3142    1.8774 H   0  0  0  0  0  0
   10.8046   -9.2351   -4.6693 H   0  0  0  0  0  0
    9.2336   -6.3493   -3.2143 H   0  0  0  0  0  0
   10.6522   -6.4400   -4.2047 H   0  0  0  0  0  0
   15.0056   -3.5764   -2.7560 H   0  0  0  0  0  0
   11.6851   -2.4253   -5.2180 H   0  0  0  0  0  0
   11.0922  -11.7842    2.0226 H   0  0  0  0  0  0
   11.4596  -10.2479    2.7842 H   0  0  0  0  0  0
    9.7842  -10.7667    2.6180 H   0  0  0  0  0  0
   -7.2263    4.2272    4.8446 H   0  0  0  0  0  0
   -4.4767    2.4698   -0.7688 H   0  0  0  0  0  0
    8.4117   -2.0567   -1.3084 H   0  0  0  0  0  0
   -3.9391    6.7327    3.9708 H   0  0  0  0  0  0
  1 63  2  0  0  0
  1 76  1  0  0  0
  1 82  1  0  0  0
  2  6  1  0  0  0
  2  7  2  0  0  0
  2 83  1  0  0  0
  3  4  2  0  0  0
  3  7  1  0  0  0
  3  9  1  0  0  0
  4  5  1  0  0  0
  4 84  1  0  0  0
  5  6  2  0  0  0
  5 85  1  0  0  0
  6  8  1  0  0  0
  7 86  1  0  0  0
  8 59  1  0  0  0
  8 87  1  0  0  0
  8 88  1  0  0  0
  9 14  2  0  0  0
  9 76  1  0  0  0
 10 14  1  0  0  0
 10 89  1  0  0  0
 10 90  1  0  0  0
 10 91  1  0  0  0
 11 12  1  0  0  0
 11 59  1  0  0  0
 11 68  2  0  0  0
 12 13  1  0  0  0
 12 60  1  0  0  0
 12 78  1  0  0  0
 13 15  1  0  0  0
 13 92  1  0  0  0
 13 93  1  0  0  0
 14 63  1  0  0  0
 15 16  1  0  0  0
 15 75  1  0  0  0
 15 79  1  0  0  0
 16 60  1  0  0  0
 16 94  1  0  0  0
 16 95  1  0  0  0
 17 18  1  0  0  0
 17 60  1  0  0  0
 17 69  2  0  0  0
 18 19  1  0  0  0
 18 61  1  0  0  0
 18 80  1  0  0  0
 19 20  1  0  0  0
 19 21  1  0  0  0
 19 22  1  0  0  0
 20 96  1  0  0  0
 20 97  1  0  0  0
 20 98  1  0  0  0
 21 99  1  0  0  0
 21100  1  0  0  0
 21101  1  0  0  0
 22102  1  0  0  0
 22103  1  0  0  0
 22104  1  0  0  0
 23 24  1  0  0  0
 23 61  1  0  0  0
 23 70  2  0  0  0
 24 25  1  0  0  0
 24105  1  0  0  0
 24106  1  0  0  0
 25 26  1  0  0  0
 25107  1  0  0  0
 25108  1  0  0  0
 26 27  1  0  0  0
 26109  1  0  0  0
 26110  1  0  0  0
 27 28  1  0  0  0
 27111  1  0  0  0
 27112  1  0  0  0
 28 29  1  0  0  0
 28113  1  0  0  0
 28114  1  0  0  0
 29 30  1  0  0  0
 29115  1  0  0  0
 29116  1  0  0  0
 30 31  1  0  0  0
 30117  1  0  0  0
 30118  1  0  0  0
 31 32  1  0  0  0
 31119  1  0  0  0
 31120  1  0  0  0
 32 33  1  0  0  0
 32121  1  0  0  0
 32122  1  0  0  0
 33 62  1  0  0  0
 33123  1  0  0  0
 33124  1  0  0  0
 34 35  1  0  0  0
 34 62  1  0  0  0
 34 71  2  0  0  0
 35 36  1  0  0  0
 35 40  2  0  0  0
 36 37  2  0  0  0
 36125  1  0  0  0
 37 38  1  0  0  0
 37 66  1  0  0  0
 38 39  2  0  0  0
 38 43  1  0  0  0
 39 40  1  0  0  0
 39126  1  0  0  0
 40 41  1  0  0  0
 41 77  1  0  0  0
 41127  1  0  0  0
 41128  1  0  0  0
 42 77  1  0  0  0
 42129  1  0  0  0
 42130  1  0  0  0
 42131  1  0  0  0
 43 44  2  0  0  0
 43 47  1  0  0  0
 44 64  1  0  0  0
 44132  1  0  0  0
 45 46  1  0  0  0
 45 64  1  0  0  0
 45 74  2  0  0  0
 46 47  2  0  0  0
 46 65  1  0  0  0
 47 48  1  0  0  0
 48 49  2  0  0  0
 48 50  1  0  0  0
 49 65  1  0  0  0
 49133  1  0  0  0
 50 66  1  0  0  0
 50134  1  0  0  0
 50135  1  0  0  0
 51 52  1  0  0  0
 51 66  1  0  0  0
 51 67  2  0  0  0
 52 53  2  0  0  0
 52 58  1  0  0  0
 53 54  1  0  0  0
 53136  1  0  0  0
 54 55  2  0  0  0
 54 57  1  0  0  0
 55 67  1  0  0  0
 55137  1  0  0  0
 56 64  1  0  0  0
 56138  1  0  0  0
 56139  1  0  0  0
 56140  1  0  0  0
 59141  1  0  0  0
 61142  1  0  0  0
 62143  1  0  0  0
 65 81  1  0  0  0
 72 77  2  0  0  0
 73 77  2  0  0  0
 75144  1  0  0  0
M  END
> <s_m_entry_id>
13

> <s_m_entry_name>
7khh.1_mol3

> <s_m_source_file>
ligprep_1.maegz

> <i_m_source_file_index>
1

> <i_lp_mmshare_version>
38013

> <i_f3d_flags>
0

> <s_lp_Force_Field>
OPLS3

> <r_lp_Energy>
110.244274235415

> <b_lp_Chiralities_Consistent>
1

> <s_lp_Variant>
ligand-1

> <s_m_job_name>
ligprep_1

> <s_m_subgroup_title>
ligprep_1-out1

> <s_m_subgroupid>
ligprep_1-out1

> <b_m_subgroup_collapsed>
0

$$$$
