ligand
 OpenBabel01032309583D

 82 89  0  0  1  0  0  0  0  0999 V2000
  -10.3930   10.0700  -13.6610 C   0  0  0  0  0  2  0  0  0  0  0  0
   -9.3500   11.0730  -13.1330 C   0  0  0  0  0  2  0  0  0  0  0  0
   -8.0720   11.1740  -13.9890 C   0  0  0  0  0  2  0  0  0  0  0  0
   -7.9850   12.4980  -14.7700 C   0  0  0  0  0  2  0  0  0  0  0  0
   -7.8520   12.2970  -16.2890 C   0  0  0  0  0  2  0  0  0  0  0  0
   -8.5110   10.9860  -16.7700 C   0  0  0  0  0  2  0  0  0  0  0  0
   -7.5130    9.9620  -17.3270 C   0  0  0  0  0  0  0  0  0  0  0  0
   -8.0370    8.8750  -17.9230 N   0  0  0  0  0  0  0  0  0  0  0  0
   -6.3000   10.1620  -17.2410 O   0  0  0  0  0  0  0  0  0  0  0  0
   -9.0400    8.7720  -17.9660 H   0  0  0  0  0  0  0  0  0  0  0  0
   -7.2650    7.8250  -18.6070 C   0  0  2  0  0  3  0  0  0  0  0  0
   -7.3730    7.1950  -22.5140 C   0  0  2  0  0  3  0  0  0  0  0  0
   -6.0850    6.7120  -23.1890 C   0  0  0  0  0  2  0  0  0  0  0  0
   -5.0380    7.5490  -22.4730 C   0  0  2  0  0  3  0  0  0  0  0  0
   -5.5410    7.6080  -21.0260 C   0  0  0  0  0  2  0  0  0  0  0  0
   -7.8420    7.6220  -20.0390 C   0  0  0  0  0  0  0  0  0  0  0  0
   -7.0010    7.4210  -21.0940 N   0  0  0  0  0  0  0  0  0  0  0  0
   -9.0700    7.6460  -20.1550 O   0  0  0  0  0  0  0  0  0  0  0  0
   -8.5410    6.2070  -22.7170 C   0  0  0  0  0  0  0  0  0  0  0  0
   -8.6650    5.2570  -21.7770 N   0  0  0  0  0  0  0  0  0  0  0  0
   -9.2780    6.3270  -23.6960 O   0  0  0  0  0  0  0  0  0  0  0  0
   -7.9670    5.2050  -21.0480 H   0  0  0  0  0  0  0  0  0  0  0  0
   -9.6660    4.1950  -21.7930 C   0  0  0  0  0  2  0  0  0  0  0  0
   -8.3250    2.5020  -20.4810 C   0  0  0  0  0  3  0  0  0  0  0  0
   -9.2200    1.4510  -18.4970 C   0  0  0  0  0  0  0  0  0  0  0  0
  -10.4030    2.1820  -18.6460 C   0  0  0  0  0  3  0  0  0  0  0  0
  -10.5460    3.0710  -19.7080 C   0  0  0  0  0  3  0  0  0  0  0  0
   -9.5020    3.2410  -20.6210 C   0  0  0  0  0  0  0  0  0  0  0  0
   -8.1840    1.6120  -19.4200 C   0  0  0  0  0  3  0  0  0  0  0  0
   -8.7730   -1.4680  -15.9740 C   0  0  0  0  0  3  0  0  0  0  0  0
   -9.0580    0.4950  -17.3640 C   0  0  0  0  0  0  0  0  0  0  0  0
   -9.2910    1.9760  -15.2030 C   0  0  0  0  0  1  0  0  0  0  0  0
   -9.1010    0.6870  -15.9750 C   0  0  0  0  0  0  0  0  0  0  0  0
   -8.9460   -0.4010  -15.2410 N   0  0  0  0  0  0  0  0  0  0  0  0
   -8.7930   -1.2030  -17.6800 S   0  0  0  0  0  0  0  0  0  0  0  0
   -4.9090    8.8400  -23.0400 O   0  0  0  0  0  0  0  0  0  0  0  0
   -4.8910    8.7520  -23.9960 H   0  0  0  0  0  0  0  0  0  0  0  0
   -7.1660    6.4990  -17.7570 C   0  0  0  0  0  0  0  0  0  0  0  0
   -5.7770    5.8450  -17.9790 C   0  0  0  0  0  1  0  0  0  0  0  0
   -8.2370    5.4660  -18.1970 C   0  0  0  0  0  1  0  0  0  0  0  0
   -7.3270    6.7580  -16.2350 C   0  0  0  0  0  1  0  0  0  0  0  0
  -11.6730   10.7180  -14.2320 C   0  0  0  0  0  2  0  0  0  0  0  0
  -11.6220   12.2570  -14.2970 C   0  0  0  0  0  2  0  0  0  0  0  0
  -12.7960   12.9590  -13.5800 C   0  0  0  0  0  2  0  0  0  0  0  0
  -13.9050   13.4770  -14.5190 C   0  0  0  0  0  2  0  0  0  0  0  0
  -15.0680   11.6220  -15.7270 C   0  0  0  0  0  0  0  0  0  0  0  0
  -14.1450   12.6010  -15.6680 N   0  0  0  0  0  0  0  0  0  0  0  0
  -15.7930   11.3190  -14.7800 O   0  0  0  0  0  0  0  0  0  0  0  0
  -13.5360   12.7310  -16.4620 H   0  0  0  0  0  0  0  0  0  0  0  0
  -15.1860   10.9260  -17.0660 C   0  0  0  0  0  0  0  0  0  0  0  0
  -14.2150    9.9850  -17.4220 C   0  0  0  0  0  3  0  0  0  0  0  0
  -14.2060    9.3100  -18.6560 C   0  0  0  0  0  0  0  0  0  0  0  0
  -15.2660    9.5760  -19.5710 C   0  0  0  0  0  0  0  0  0  0  0  0
  -16.2260   10.5340  -19.2070 C   0  0  0  0  0  3  0  0  0  0  0  0
  -16.2180   11.2000  -17.9810 C   0  0  0  0  0  0  0  0  0  0  0  0
  -15.4620    8.8630  -20.8830 C   0  0  0  0  0  0  0  0  0  0  0  0
  -16.6720    8.7320  -21.4830 C   0  0  0  0  0  3  0  0  0  0  0  0
  -15.9690    7.6320  -23.5310 C   0  0  0  0  0  0  0  0  0  0  0  0
  -14.6560    7.7170  -22.8960 C   0  0  0  0  0  0  0  0  0  0  0  0
  -14.3640    8.2910  -21.6490 C   0  0  0  0  0  0  0  0  0  0  0  0
  -13.0020    8.1610  -21.3820 C   0  0  0  0  0  0  0  0  0  0  0  0
  -12.4610    7.5330  -22.4980 C   0  0  0  0  0  3  0  0  0  0  0  0
  -12.3370    8.6320  -20.1230 C   0  0  0  0  0  2  0  0  0  0  0  0
  -12.5040    7.7040  -17.8930 C   0  0  0  0  0  0  0  0  0  0  0  0
  -13.0560    6.5250  -17.3690 C   0  0  0  0  0  0  0  0  0  0  0  0
  -12.3830    5.8610  -16.3410 C   0  0  0  0  0  3  0  0  0  0  0  0
  -11.1800    6.3800  -15.8610 C   0  0  0  0  0  0  0  0  0  0  0  0
  -10.6840    7.5520  -16.4300 C   0  0  0  0  0  3  0  0  0  0  0  0
  -18.3370    8.0820  -23.1850 C   0  0  0  0  0  1  0  0  0  0  0  0
  -10.5090    5.7590  -14.8650 F   0  0  0  0  0  0  0  0  0  0  0  0
  -14.2250    6.0280  -17.8410 F   0  0  0  0  0  0  0  0  0  0  0  0
  -16.9510    8.1420  -22.6980 N   0  0  0  0  0  0  0  0  0  0  0  0
  -13.4610    7.2730  -23.3980 N   0  0  0  0  0  0  0  0  0  0  0  0
  -13.1580    8.3970  -18.9260 N   0  0  0  0  0  0  0  0  0  0  0  0
  -11.3230    8.2120  -17.4300 N   0  0  0  0  0  0  0  0  0  0  0  0
  -16.1860    7.1640  -24.6520 O   0  0  0  0  0  0  0  0  0  0  0  0
  -13.3400    6.8190  -24.2930 H   0  0  0  0  0  0  0  0  0  0  0  0
  -17.3330   12.2230  -17.7450 C   0  0  0  0  0  2  0  0  0  0  0  0
  -18.4760   14.9620  -18.1890 C   0  0  0  0  0  1  0  0  0  0  0  0
  -15.9080   14.5270  -17.4260 O   0  0  0  0  0  0  0  0  0  0  0  0
  -16.5620   13.8850  -19.7870 O   0  0  0  0  0  0  0  0  0  0  0  0
  -16.8880   13.9630  -18.3590 S   0  0  0  0  0  0  0  0  0  0  0  0
  1  2  1  0  0  0  0
  3  2  1  0  0  0  0
  4  3  1  0  0  0  0
  5  4  1  0  0  0  0
  6  5  1  0  0  0  0
  7  9  2  0  0  0  0
  7  6  1  0  0  0  0
  8  7  1  0  0  0  0
 10  8  1  0  0  0  0
 11 16  1  6  0  0  0
 11  8  1  0  0  0  0
 11 38  1  0  0  0  0
 12 19  1  1  0  0  0
 12 17  1  0  0  0  0
 13 12  1  0  0  0  0
 13 14  1  0  0  0  0
 14 36  1  6  0  0  0
 14 15  1  0  0  0  0
 17 15  1  0  0  0  0
 17 16  1  0  0  0  0
 18 16  2  0  0  0  0
 19 20  1  0  0  0  0
 20 22  1  0  0  0  0
 21 19  2  0  0  0  0
 23 20  1  0  0  0  0
 23 28  1  0  0  0  0
 24 29  1  0  0  0  0
 25 31  1  0  0  0  0
 26 25  1  0  0  0  0
 27 26  2  0  0  0  0
 28 24  2  0  0  0  0
 28 27  1  0  0  0  0
 29 25  2  0  0  0  0
 30 34  2  0  0  0  0
 31 33  2  0  0  0  0
 33 34  1  0  0  0  0
 33 32  1  0  0  0  0
 35 31  1  0  0  0  0
 35 30  1  0  0  0  0
 37 36  1  0  0  0  0
 38 41  1  0  0  0  0
 39 38  1  0  0  0  0
 40 38  1  0  0  0  0
 42  1  1  0  0  0  0
 43 42  1  0  0  0  0
 43 44  1  0  0  0  0
 45 44  1  0  0  0  0
 46 47  1  0  0  0  0
 46 48  2  0  0  0  0
 47 45  1  0  0  0  0
 49 47  1  0  0  0  0
 50 46  1  0  0  0  0
 51 50  1  0  0  0  0
 52 51  2  0  0  0  0
 53 54  2  0  0  0  0
 53 52  1  0  0  0  0
 54 55  1  0  0  0  0
 55 78  1  0  0  0  0
 55 50  2  0  0  0  0
 56 53  1  0  0  0  0
 57 56  2  0  0  0  0
 58 59  1  0  0  0  0
 58 72  1  0  0  0  0
 59 60  2  0  0  0  0
 60 61  1  0  0  0  0
 60 56  1  0  0  0  0
 61 63  1  0  0  0  0
 62 61  2  0  0  0  0
 63 74  1  0  0  0  0
 64 75  2  0  0  0  0
 64 65  1  0  0  0  0
 65 66  2  0  0  0  0
 66 67  1  0  0  0  0
 67 70  1  0  0  0  0
 68 67  2  0  0  0  0
 69 72  1  0  0  0  0
 71 65  1  0  0  0  0
 72 57  1  0  0  0  0
 73 59  1  0  0  0  0
 73 62  1  0  0  0  0
 74 52  1  0  0  0  0
 74 64  1  0  0  0  0
 75 68  1  0  0  0  0
 76 58  2  0  0  0  0
 77 73  1  0  0  0  0
 81 82  2  0  0  0  0
 82 79  1  0  0  0  0
 82 78  1  0  0  0  0
 82 80  2  0  0  0  0
M  END
>  <MODEL>
1

>  <REMARK>
 VINA RESULT:   -11.092      0.000      0.000
 INTER + INTRA:         -30.709
 INTER:                 -24.246
 INTRA:                  -6.463
 UNBOUND:                -5.676
  Name = ligand
  28 active torsions:
  status: ('A' for Active; 'I' for Inactive)
    1  A    between atoms: C_3  and  C_9
    2  A    between atoms: C_6  and  C_8
    3  A    between atoms: C_8  and  N_59
    4  A    between atoms: C_10  and  C_14
    5  A    between atoms: C_11  and  C_12
    6  A    between atoms: C_15  and  O_75
    7  A    between atoms: C_17  and  C_18
    8  A    between atoms: C_18  and  C_19
    9  A    between atoms: C_18  and  N_61
   10  A    between atoms: C_19  and  C_20
   11  A    between atoms: C_19  and  C_21
   12  A    between atoms: C_19  and  C_22
   13  A    between atoms: C_23  and  C_24
   14  A    between atoms: C_24  and  C_25
   15  A    between atoms: C_25  and  C_26
   16  A    between atoms: C_26  and  C_27
   17  A    between atoms: C_27  and  C_28
   18  A    between atoms: C_28  and  C_29
   19  A    between atoms: C_29  and  C_30
   20  A    between atoms: C_30  and  C_31
   21  A    between atoms: C_31  and  C_32
   22  A    between atoms: C_32  and  C_33
   23  A    between atoms: C_33  and  N_62
   24  A    between atoms: C_34  and  C_35
   25  A    between atoms: C_40  and  C_41
   26  A    between atoms: C_41  and  S_77
   27  A    between atoms: C_42  and  S_77
   28  A    between atoms: C_56  and  N_64
                            x       y       z     vdW  Elec       q    Type
                         _______ _______ _______ _____ _____    ______ ____

>  <TORSDO>
F 22

$$$$
ligand
 OpenBabel01032309583D

 82 89  0  0  1  0  0  0  0  0999 V2000
   -9.5670   10.6630  -13.4610 C   0  0  0  0  0  2  0  0  0  0  0  0
   -8.0350   10.7600  -13.3230 C   0  0  0  0  0  2  0  0  0  0  0  0
   -7.2760   10.8070  -14.6630 C   0  0  0  0  0  2  0  0  0  0  0  0
   -6.0960   11.7960  -14.6410 C   0  0  0  0  0  2  0  0  0  0  0  0
   -5.3030   11.8220  -15.9590 C   0  0  0  0  0  2  0  0  0  0  0  0
   -5.9340   10.9230  -17.0440 C   0  0  0  0  0  2  0  0  0  0  0  0
   -4.9450   10.4760  -18.1290 C   0  0  0  0  0  0  0  0  0  0  0  0
   -4.8330    9.1500  -18.3300 N   0  0  0  0  0  0  0  0  0  0  0  0
   -4.3170   11.3110  -18.7820 O   0  0  0  0  0  0  0  0  0  0  0  0
   -5.3790    8.5180  -17.7640 H   0  0  0  0  0  0  0  0  0  0  0  0
   -4.0210    8.5160  -19.3800 C   0  0  2  0  0  3  0  0  0  0  0  0
   -5.0130    8.4220  -23.2120 C   0  0  2  0  0  3  0  0  0  0  0  0
   -3.8760    8.4480  -24.2380 C   0  0  0  0  0  2  0  0  0  0  0  0
   -2.9270    9.4560  -23.6110 C   0  0  2  0  0  3  0  0  0  0  0  0
   -3.0180    9.1620  -22.1100 C   0  0  0  0  0  2  0  0  0  0  0  0
   -4.8900    8.3460  -20.6620 C   0  0  0  0  0  0  0  0  0  0  0  0
   -4.3430    8.5540  -21.8930 N   0  0  0  0  0  0  0  0  0  0  0  0
   -6.0670    8.0140  -20.4970 O   0  0  0  0  0  0  0  0  0  0  0  0
   -5.8960    7.1660  -23.3550 C   0  0  0  0  0  0  0  0  0  0  0  0
   -7.1960    7.3370  -23.0710 N   0  0  0  0  0  0  0  0  0  0  0  0
   -5.3880    6.1000  -23.7070 O   0  0  0  0  0  0  0  0  0  0  0  0
   -7.5010    8.2360  -22.7250 H   0  0  0  0  0  0  0  0  0  0  0  0
   -8.2010    6.2780  -23.0940 C   0  0  0  0  0  2  0  0  0  0  0  0
   -7.7130    4.5440  -21.3220 C   0  0  0  0  0  3  0  0  0  0  0  0
   -8.8760    4.5460  -19.2030 C   0  0  0  0  0  0  0  0  0  0  0  0
   -9.6000    5.6740  -19.6040 C   0  0  0  0  0  3  0  0  0  0  0  0
   -9.3790    6.2360  -20.8590 C   0  0  0  0  0  3  0  0  0  0  0  0
   -8.4260    5.6780  -21.7150 C   0  0  0  0  0  0  0  0  0  0  0  0
   -7.9350    3.9820  -20.0680 C   0  0  0  0  0  3  0  0  0  0  0  0
   -8.9180    3.1470  -15.5790 C   0  0  0  0  0  3  0  0  0  0  0  0
   -9.1070    3.9350  -17.8620 C   0  0  0  0  0  0  0  0  0  0  0  0
  -11.4600    2.7760  -18.0530 C   0  0  0  0  0  1  0  0  0  0  0  0
  -10.1740    3.1730  -17.3610 C   0  0  0  0  0  0  0  0  0  0  0  0
  -10.0430    2.7550  -16.1140 N   0  0  0  0  0  0  0  0  0  0  0  0
   -7.9010    4.0910  -16.6080 S   0  0  0  0  0  0  0  0  0  0  0  0
   -3.2930   10.7910  -23.9120 O   0  0  0  0  0  0  0  0  0  0  0  0
   -4.2350   10.8140  -24.0940 H   0  0  0  0  0  0  0  0  0  0  0  0
   -3.3300    7.1860  -18.8870 C   0  0  0  0  0  0  0  0  0  0  0  0
   -2.2710    7.5220  -17.8040 C   0  0  0  0  0  1  0  0  0  0  0  0
   -2.5890    6.4720  -20.0490 C   0  0  0  0  0  1  0  0  0  0  0  0
   -4.3430    6.1890  -18.2620 C   0  0  0  0  0  1  0  0  0  0  0  0
  -10.2160   11.8350  -14.2290 C   0  0  0  0  0  2  0  0  0  0  0  0
  -11.7560   11.8250  -14.2030 C   0  0  0  0  0  2  0  0  0  0  0  0
  -12.3920   13.1830  -13.8300 C   0  0  0  0  0  2  0  0  0  0  0  0
  -13.7280   13.4840  -14.5400 C   0  0  0  0  0  2  0  0  0  0  0  0
  -14.9780   11.6820  -15.7400 C   0  0  0  0  0  0  0  0  0  0  0  0
  -13.9920   12.5970  -15.6760 N   0  0  0  0  0  0  0  0  0  0  0  0
  -15.7500   11.4520  -14.8100 O   0  0  0  0  0  0  0  0  0  0  0  0
  -13.3520   12.6660  -16.4530 H   0  0  0  0  0  0  0  0  0  0  0  0
  -15.1020   10.9610  -17.0650 C   0  0  0  0  0  0  0  0  0  0  0  0
  -14.1180   10.0340  -17.4220 C   0  0  0  0  0  3  0  0  0  0  0  0
  -14.1150    9.3390  -18.6450 C   0  0  0  0  0  0  0  0  0  0  0  0
  -15.1950    9.5670  -19.5460 C   0  0  0  0  0  0  0  0  0  0  0  0
  -16.1690   10.5100  -19.1820 C   0  0  0  0  0  3  0  0  0  0  0  0
  -16.1550   11.1970  -17.9670 C   0  0  0  0  0  0  0  0  0  0  0  0
  -15.3970    8.8280  -20.8430 C   0  0  0  0  0  0  0  0  0  0  0  0
  -16.6140    8.6620  -21.4200 C   0  0  0  0  0  3  0  0  0  0  0  0
  -15.9220    7.5420  -23.4610 C   0  0  0  0  0  0  0  0  0  0  0  0
  -14.6000    7.6660  -22.8490 C   0  0  0  0  0  0  0  0  0  0  0  0
  -14.3000    8.2670  -21.6180 C   0  0  0  0  0  0  0  0  0  0  0  0
  -12.9310    8.1700  -21.3710 C   0  0  0  0  0  0  0  0  0  0  0  0
  -12.3950    7.5360  -22.4850 C   0  0  0  0  0  3  0  0  0  0  0  0
  -12.2560    8.6770  -20.1320 C   0  0  0  0  0  2  0  0  0  0  0  0
  -12.3660    7.7830  -17.8840 C   0  0  0  0  0  0  0  0  0  0  0  0
  -12.8840    6.6010  -17.3320 C   0  0  0  0  0  0  0  0  0  0  0  0
  -12.1800    5.9690  -16.3050 C   0  0  0  0  0  3  0  0  0  0  0  0
  -10.9800    6.5210  -15.8540 C   0  0  0  0  0  0  0  0  0  0  0  0
  -10.5200    7.6940  -16.4500 C   0  0  0  0  0  3  0  0  0  0  0  0
  -18.2930    7.9480  -23.0830 C   0  0  0  0  0  1  0  0  0  0  0  0
  -10.2800    5.9320  -14.8590 F   0  0  0  0  0  0  0  0  0  0  0  0
  -14.0490    6.0720  -17.7750 F   0  0  0  0  0  0  0  0  0  0  0  0
  -16.9000    8.0450  -22.6200 N   0  0  0  0  0  0  0  0  0  0  0  0
  -13.4040    7.2390  -23.3650 N   0  0  0  0  0  0  0  0  0  0  0  0
  -13.0520    8.4440  -18.9170 N   0  0  0  0  0  0  0  0  0  0  0  0
  -11.1890    8.3230  -17.4500 N   0  0  0  0  0  0  0  0  0  0  0  0
  -16.1470    7.0510  -24.5710 O   0  0  0  0  0  0  0  0  0  0  0  0
  -13.2890    6.7720  -24.2530 H   0  0  0  0  0  0  0  0  0  0  0  0
  -17.2880   12.2000  -17.7290 C   0  0  0  0  0  2  0  0  0  0  0  0
  -18.4200   14.9680  -17.9900 C   0  0  0  0  0  1  0  0  0  0  0  0
  -15.7900   14.4720  -17.5320 O   0  0  0  0  0  0  0  0  0  0  0  0
  -16.7210   13.8900  -19.8150 O   0  0  0  0  0  0  0  0  0  0  0  0
  -16.8810   13.9440  -18.3580 S   0  0  0  0  0  0  0  0  0  0  0  0
  1  2  1  0  0  0  0
  3  4  1  0  0  0  0
  3  2  1  0  0  0  0
  5  4  1  0  0  0  0
  6  5  1  0  0  0  0
  7  6  1  0  0  0  0
  8  7  1  0  0  0  0
  8 10  1  0  0  0  0
  9  7  2  0  0  0  0
 11 16  1  6  0  0  0
 11 38  1  0  0  0  0
 11  8  1  0  0  0  0
 12 19  1  1  0  0  0
 12 17  1  0  0  0  0
 13 14  1  0  0  0  0
 13 12  1  0  0  0  0
 14 36  1  1  0  0  0
 14 15  1  0  0  0  0
 15 17  1  0  0  0  0
 16 18  2  0  0  0  0
 17 16  1  0  0  0  0
 19 20  1  0  0  0  0
 20 22  1  0  0  0  0
 21 19  2  0  0  0  0
 23 20  1  0  0  0  0
 23 28  1  0  0  0  0
 24 29  1  0  0  0  0
 25 31  1  0  0  0  0
 26 25  1  0  0  0  0
 27 26  2  0  0  0  0
 28 24  2  0  0  0  0
 28 27  1  0  0  0  0
 29 25  2  0  0  0  0
 31 33  2  0  0  0  0
 31 35  1  0  0  0  0
 32 33  1  0  0  0  0
 33 34  1  0  0  0  0
 34 30  2  0  0  0  0
 35 30  1  0  0  0  0
 37 36  1  0  0  0  0
 38 41  1  0  0  0  0
 38 39  1  0  0  0  0
 40 38  1  0  0  0  0
 42 43  1  0  0  0  0
 42  1  1  0  0  0  0
 43 44  1  0  0  0  0
 45 44  1  0  0  0  0
 46 47  1  0  0  0  0
 46 48  2  0  0  0  0
 47 45  1  0  0  0  0
 49 47  1  0  0  0  0
 50 46  1  0  0  0  0
 51 50  1  0  0  0  0
 52 51  2  0  0  0  0
 53 54  2  0  0  0  0
 53 52  1  0  0  0  0
 54 55  1  0  0  0  0
 55 78  1  0  0  0  0
 55 50  2  0  0  0  0
 56 53  1  0  0  0  0
 57 56  2  0  0  0  0
 58 59  1  0  0  0  0
 58 72  1  0  0  0  0
 59 60  2  0  0  0  0
 60 61  1  0  0  0  0
 60 56  1  0  0  0  0
 61 63  1  0  0  0  0
 62 61  2  0  0  0  0
 63 74  1  0  0  0  0
 64 75  2  0  0  0  0
 64 65  1  0  0  0  0
 65 66  2  0  0  0  0
 66 67  1  0  0  0  0
 67 70  1  0  0  0  0
 68 67  2  0  0  0  0
 69 72  1  0  0  0  0
 71 65  1  0  0  0  0
 72 57  1  0  0  0  0
 73 59  1  0  0  0  0
 73 62  1  0  0  0  0
 74 52  1  0  0  0  0
 74 64  1  0  0  0  0
 75 68  1  0  0  0  0
 76 58  2  0  0  0  0
 77 73  1  0  0  0  0
 81 82  2  0  0  0  0
 82 79  1  0  0  0  0
 82 78  1  0  0  0  0
 82 80  2  0  0  0  0
M  END
>  <MODEL>
2

>  <REMARK>
 VINA RESULT:   -10.181      1.744      2.308
 INTER + INTRA:         -28.654
 INTER:                 -22.978
 INTRA:                  -5.676
 UNBOUND:                -5.676
  Name = ligand
  28 active torsions:
  status: ('A' for Active; 'I' for Inactive)
    1  A    between atoms: C_3  and  C_9
    2  A    between atoms: C_6  and  C_8
    3  A    between atoms: C_8  and  N_59
    4  A    between atoms: C_10  and  C_14
    5  A    between atoms: C_11  and  C_12
    6  A    between atoms: C_15  and  O_75
    7  A    between atoms: C_17  and  C_18
    8  A    between atoms: C_18  and  C_19
    9  A    between atoms: C_18  and  N_61
   10  A    between atoms: C_19  and  C_20
   11  A    between atoms: C_19  and  C_21
   12  A    between atoms: C_19  and  C_22
   13  A    between atoms: C_23  and  C_24
   14  A    between atoms: C_24  and  C_25
   15  A    between atoms: C_25  and  C_26
   16  A    between atoms: C_26  and  C_27
   17  A    between atoms: C_27  and  C_28
   18  A    between atoms: C_28  and  C_29
   19  A    between atoms: C_29  and  C_30
   20  A    between atoms: C_30  and  C_31
   21  A    between atoms: C_31  and  C_32
   22  A    between atoms: C_32  and  C_33
   23  A    between atoms: C_33  and  N_62
   24  A    between atoms: C_34  and  C_35
   25  A    between atoms: C_40  and  C_41
   26  A    between atoms: C_41  and  S_77
   27  A    between atoms: C_42  and  S_77
   28  A    between atoms: C_56  and  N_64
                            x       y       z     vdW  Elec       q    Type
                         _______ _______ _______ _____ _____    ______ ____

>  <TORSDO>
F 22

$$$$
