REMARK  Name = ligand
REMARK  28 active torsions:
REMARK  status: ('A' for Active; 'I' for Inactive)
REMARK    1  A    between atoms: C_3  and  C_9
REMARK    2  A    between atoms: C_6  and  C_8
REMARK    3  A    between atoms: C_8  and  N_59
REMARK    4  A    between atoms: C_10  and  C_14
REMARK    5  A    between atoms: C_11  and  C_12
REMARK    6  A    between atoms: C_15  and  O_75
REMARK    7  A    between atoms: C_17  and  C_18
REMARK    8  A    between atoms: C_18  and  C_19
REMARK    9  A    between atoms: C_18  and  N_61
REMARK   10  A    between atoms: C_19  and  C_20
REMARK   11  A    between atoms: C_19  and  C_21
REMARK   12  A    between atoms: C_19  and  C_22
REMARK   13  A    between atoms: C_23  and  C_24
REMARK   14  A    between atoms: C_24  and  C_25
REMARK   15  A    between atoms: C_25  and  C_26
REMARK   16  A    between atoms: C_26  and  C_27
REMARK   17  A    between atoms: C_27  and  C_28
REMARK   18  A    between atoms: C_28  and  C_29
REMARK   19  A    between atoms: C_29  and  C_30
REMARK   20  A    between atoms: C_30  and  C_31
REMARK   21  A    between atoms: C_31  and  C_32
REMARK   22  A    between atoms: C_32  and  C_33
REMARK   23  A    between atoms: C_33  and  N_62
REMARK   24  A    between atoms: C_34  and  C_35
REMARK   25  A    between atoms: C_40  and  C_41
REMARK   26  A    between atoms: C_41  and  S_77
REMARK   27  A    between atoms: C_42  and  S_77
REMARK   28  A    between atoms: C_56  and  N_64
REMARK                            x       y       z     vdW  Elec       q    Type
REMARK                         _______ _______ _______ _____ _____    ______ ____
ROOT
ATOM      1  C   UNL     1       3.494  -1.120   0.063  0.00  0.00    +0.000 C 
ENDROOT
BRANCH   1   2
ATOM      2  C   UNL     1       1.976  -1.078   0.322  0.00  0.00    +0.000 C 
BRANCH   2   3
ATOM      3  C   UNL     1       1.352   0.328   0.230  0.00  0.00    +0.000 C 
BRANCH   3   4
ATOM      4  C   UNL     1      -0.182   0.305   0.361  0.00  0.00    +0.000 C 
BRANCH   4   5
ATOM      5  C   UNL     1      -0.814   1.707   0.328  0.00  0.00    +0.000 C 
BRANCH   5   6
ATOM      6  C   UNL     1      -2.354   1.661   0.434  0.00  0.00    +0.000 C 
BRANCH   6   7
ATOM      7  C   UNL     1      -3.009   3.046   0.522  0.00  0.00    +0.000 C 
ATOM      8  N   UNL     1      -4.129   3.228  -0.201  0.00  0.00    +0.000 N 
ATOM      9  O   UNL     1      -2.525   3.920   1.244  0.00  0.00    +0.000 OA
ATOM     10  H   UNL     1      -4.477   2.470  -0.769  0.00  0.00    +0.000 HD
BRANCH   8  11
ATOM     11  C   UNL     1      -4.964   4.439  -0.184  0.00  0.00    +0.000 C 
BRANCH  11  16
ATOM     12  C   UNL     1      -6.383   5.959   3.186  0.00  0.00    +0.000 C 
ATOM     13  C   UNL     1      -6.348   7.482   3.345  0.00  0.00    +0.000 C 
ATOM     14  C   UNL     1      -4.993   7.817   2.744  0.00  0.00    +0.000 C 
ATOM     15  C   UNL     1      -4.868   6.853   1.559  0.00  0.00    +0.000 C 
ATOM     16  C   UNL     1      -5.708   4.525   1.182  0.00  0.00    +0.000 C 
ATOM     17  N   UNL     1      -5.716   5.693   1.885  0.00  0.00    +0.000 N 
ATOM     18  O   UNL     1      -6.277   3.502   1.572  0.00  0.00    +0.000 OA
BRANCH  12  19
ATOM     19  C   UNL     1      -7.815   5.396   3.294  0.00  0.00    +0.000 C 
ATOM     20  N   UNL     1      -8.017   4.514   4.285  0.00  0.00    +0.000 N 
ATOM     21  O   UNL     1      -8.677   5.764   2.495  0.00  0.00    +0.000 OA
ATOM     22  H   UNL     1      -7.226   4.227   4.845  0.00  0.00    +0.000 HD
BRANCH  20  23
ATOM     23  C   UNL     1      -9.277   3.823   4.542  0.00  0.00    +0.000 C 
BRANCH  23  28
ATOM     24  C   UNL     1      -9.220   2.555   6.727  0.00  0.00    +0.000 A 
ATOM     25  C   UNL     1     -10.159   3.488   8.749  0.00  0.00    +0.000 A 
ATOM     26  C   UNL     1     -10.523   4.641   8.046  0.00  0.00    +0.000 A 
ATOM     27  C   UNL     1     -10.235   4.751   6.688  0.00  0.00    +0.000 A 
ATOM     28  C   UNL     1      -9.572   3.712   6.029  0.00  0.00    +0.000 A 
ATOM     29  C   UNL     1      -9.510   2.445   8.084  0.00  0.00    +0.000 A 
BRANCH  25  31
ATOM     30  C   UNL     1     -10.713   3.704  12.588  0.00  0.00    +0.000 A 
ATOM     31  C   UNL     1     -10.465   3.359  10.203  0.00  0.00    +0.000 A 
ATOM     32  C   UNL     1     -11.419   0.922  10.470  0.00  0.00    +0.000 C 
ATOM     33  C   UNL     1     -10.977   2.288  10.952  0.00  0.00    +0.000 A 
ATOM     34  N   UNL     1     -11.099   2.503  12.250  0.00  0.00    +0.000 NA
ATOM     35  S   UNL     1     -10.149   4.691  11.288  0.00  0.00    +0.000 S 
ENDBRANCH  25  31
ENDBRANCH  23  28
ENDBRANCH  20  23
ENDBRANCH  12  19
BRANCH  14  36
ATOM     36  O   UNL     1      -3.940   7.647   3.676  0.00  0.00    +0.000 OA
ATOM     37  H   UNL     1      -3.939   6.733   3.971  0.00  0.00    +0.000 HD
ENDBRANCH  14  36
ENDBRANCH  11  16
BRANCH  11  38
ATOM     38  C   UNL     1      -5.912   4.536  -1.442  0.00  0.00    +0.000 C 
ATOM     39  C   UNL     1      -5.058   4.510  -2.737  0.00  0.00    +0.000 C 
ATOM     40  C   UNL     1      -6.711   5.866  -1.444  0.00  0.00    +0.000 C 
ATOM     41  C   UNL     1      -6.918   3.356  -1.517  0.00  0.00    +0.000 C 
ENDBRANCH  11  38
ENDBRANCH   8  11
ENDBRANCH   6   7
ENDBRANCH   5   6
ENDBRANCH   4   5
ENDBRANCH   3   4
ENDBRANCH   2   3
ENDBRANCH   1   2
BRANCH   1  42
ATOM     42  C   UNL     1       4.343  -0.366   1.109  0.00  0.00    +0.000 C 
BRANCH  42  43
ATOM     43  C   UNL     1       5.861  -0.588   0.963  0.00  0.00    +0.000 C 
BRANCH  43  44
ATOM     44  C   UNL     1       6.457  -0.039  -0.352  0.00  0.00    +0.000 C 
BRANCH  44  45
ATOM     45  C   UNL     1       7.990  -0.165  -0.465  0.00  0.00    +0.000 C 
BRANCH  45  47
ATOM     46  C   UNL     1       8.985  -2.178   0.635  0.00  0.00    +0.000 C 
ATOM     47  N   UNL     1       8.460  -1.552  -0.436  0.00  0.00    +0.000 N 
ATOM     48  O   UNL     1       9.177  -1.622   1.716  0.00  0.00    +0.000 OA
ATOM     49  H   UNL     1       8.412  -2.057  -1.308  0.00  0.00    +0.000 HD
BRANCH  46  50
ATOM     50  C   UNL     1       9.301  -3.644   0.434  0.00  0.00    +0.000 A 
ATOM     51  C   UNL     1       9.979  -4.034  -0.725  0.00  0.00    +0.000 A 
ATOM     52  C   UNL     1      10.287  -5.372  -1.030  0.00  0.00    +0.000 A 
ATOM     53  C   UNL     1       9.920  -6.374  -0.086  0.00  0.00    +0.000 A 
ATOM     54  C   UNL     1       9.227  -5.971   1.067  0.00  0.00    +0.000 A 
ATOM     55  C   UNL     1       8.923  -4.640   1.353  0.00  0.00    +0.000 A 
ATOM     56  C   UNL     1      10.269  -7.834  -0.209  0.00  0.00    +0.000 A 
ATOM     57  C   UNL     1      10.385  -8.662   0.860  0.00  0.00    +0.000 A 
ATOM     58  C   UNL     1      10.790 -10.750  -0.313  0.00  0.00    +0.000 A 
ATOM     59  C   UNL     1      10.714  -9.880  -1.485  0.00  0.00    +0.000 A 
ATOM     60  C   UNL     1      10.467  -8.499  -1.489  0.00  0.00    +0.000 A 
ATOM     61  C   UNL     1      10.491  -8.023  -2.799  0.00  0.00    +0.000 A 
ATOM     62  C   UNL     1      10.718  -9.138  -3.597  0.00  0.00    +0.000 A 
ATOM     63  C   UNL     1      10.298  -6.586  -3.182  0.00  0.00    +0.000 C 
ATOM     64  C   UNL     1      11.810  -4.724  -2.852  0.00  0.00    +0.000 A 
ATOM     65  C   UNL     1      13.147  -4.618  -2.440  0.00  0.00    +0.000 A 
ATOM     66  C   UNL     1      13.974  -3.678  -3.059  0.00  0.00    +0.000 A 
ATOM     67  C   UNL     1      13.456  -2.870  -4.072  0.00  0.00    +0.000 A 
ATOM     68  C   UNL     1      12.120  -3.031  -4.437  0.00  0.00    +0.000 A 
ATOM     69  C   UNL     1      10.755 -10.751   2.122  0.00  0.00    +0.000 C 
ATOM     70  F   UNL     1      14.233  -1.950  -4.686  0.00  0.00    +0.000 F 
ATOM     71  F   UNL     1      13.642  -5.406  -1.455  0.00  0.00    +0.000 F 
ATOM     72  N   UNL     1      10.654 -10.015   0.853  0.00  0.00    +0.000 N 
ATOM     73  N   UNL     1      10.849 -10.245  -2.799  0.00  0.00    +0.000 N 
ATOM     74  N   UNL     1      10.952  -5.658  -2.247  0.00  0.00    +0.000 N 
ATOM     75  N   UNL     1      11.301  -3.939  -3.848  0.00  0.00    +0.000 NA
ATOM     76  O   UNL     1      10.960 -11.972  -0.346  0.00  0.00    +0.000 OA
ATOM     77  H   UNL     1      11.025 -11.185  -3.125  0.00  0.00    +0.000 HD
BRANCH  55  78
ATOM     78  C   UNL     1       8.153  -4.371   2.649  0.00  0.00    +0.000 C 
BRANCH  78  82
ATOM     79  C   UNL     1      10.480  -3.158   4.107  0.00  0.00    +0.000 C 
ATOM     80  O   UNL     1       8.369  -4.309   5.368  0.00  0.00    +0.000 OA
ATOM     81  O   UNL     1       9.963  -5.825   4.112  0.00  0.00    +0.000 OA
ATOM     82  S   UNL     1       9.225  -4.560   4.204  0.00  0.00    +0.000 S 
ENDBRANCH  78  82
ENDBRANCH  55  78
ENDBRANCH  46  50
ENDBRANCH  45  47
ENDBRANCH  44  45
ENDBRANCH  43  44
ENDBRANCH  42  43
ENDBRANCH   1  42
TORSDOF 22
