=
 OpenBabel04082316253D

 72 78  0  0  1  0  0  0  0  0999 V2000
  -28.4960   10.2860  -23.1530 C   0  0  0  0  0  3  0  0  0  0  0  0
  -29.1980   10.6350  -24.3060 C   0  0  0  0  0  3  0  0  0  0  0  0
  -29.7810   11.8900  -21.8840 C   0  0  0  0  0  3  0  0  0  0  0  0
  -28.7870   10.9130  -21.9410 C   0  0  0  0  0  0  0  0  0  0  0  0
  -30.1920   11.6110  -24.2490 C   0  0  0  0  0  0  0  0  0  0  0  0
  -30.4830   12.2390  -23.0370 C   0  0  0  0  0  0  0  0  0  0  0  0
  -26.3730   10.2170  -19.0640 C   0  0  0  0  0  3  0  0  0  0  0  0
  -28.0610   10.5510  -20.7490 C   0  0  0  0  0  0  0  0  0  0  0  0
  -28.4760    9.9050  -19.6030 C   0  0  0  0  0  0  0  0  0  0  0  0
  -29.8390    9.4070  -19.3260 C   0  0  0  0  0  1  0  0  0  0  0  0
  -27.5090    9.7120  -18.6350 N   0  0  0  0  0  0  0  0  0  0  0  0
  -26.3960   10.9400  -20.6200 S   0  0  0  0  0  0  0  0  0  0  0  0
  -31.4510   13.1950  -22.9640 O   0  0  0  0  0  0  0  0  0  0  0  0
  -31.1210   14.4000  -22.2760 C   0  0  0  0  0  2  0  0  0  0  0  0
  -32.3580   15.2720  -22.1830 C   0  0  0  0  0  2  0  0  0  0  0  0
  -32.2030   16.3930  -23.0450 O   0  0  0  0  0  0  0  0  0  0  0  0
  -32.9250   17.5200  -22.5690 C   0  0  0  0  0  2  0  0  0  0  0  0
  -32.8890   18.6110  -23.6220 C   0  0  0  0  0  2  0  0  0  0  0  0
  -33.1290   18.0320  -24.8990 O   0  0  0  0  0  0  0  0  0  0  0  0
  -32.0090   18.1880  -25.7600 C   0  0  0  0  0  2  0  0  0  0  0  0
  -32.4380   18.9060  -27.0240 C   0  0  0  0  0  2  0  0  0  0  0  0
  -35.6930   18.4730  -28.9840 C   0  0  0  0  0  2  0  0  0  0  0  0
  -34.6710   16.2290  -28.5970 C   0  0  0  0  0  2  0  0  0  0  0  0
  -34.3890   19.1340  -28.5580 C   0  0  0  0  0  2  0  0  0  0  0  0
  -33.3730   16.9010  -28.1720 C   0  0  0  0  0  2  0  0  0  0  0  0
  -35.4580   17.1080  -29.4670 N   0  0  0  0  0  0  0  0  0  0  0  0
  -33.6730   18.2490  -27.5740 N   0  0  0  0  0  4  0  0  0  0  0  0
  -34.3020   18.0990  -26.7850 H   0  0  0  0  0  0  0  0  0  0  0  0
  -37.7280   16.9830  -30.2660 C   0  0  0  0  0  3  0  0  0  0  0  0
  -36.4150   16.5490  -30.3230 C   0  0  0  0  0  0  0  0  0  0  0  0
  -38.6370   16.4040  -31.1290 C   0  0  0  0  0  0  0  0  0  0  0  0
  -36.0990   15.5650  -31.2380 C   0  0  0  0  0  0  0  0  0  0  0  0
  -38.2990   15.4430  -32.0140 N   0  0  0  0  0  0  0  0  0  0  0  0
  -37.0100   15.0160  -32.0690 N   0  0  0  0  0  0  0  0  0  0  0  0
  -41.7640   18.2880  -30.3760 C   0  0  0  0  0  3  0  0  0  0  0  0
  -42.7010   17.5840  -31.1330 C   0  0  0  0  0  3  0  0  0  0  0  0
  -40.4260   17.8940  -30.3800 C   0  0  0  0  0  3  0  0  0  0  0  0
  -42.2990   16.4860  -31.8940 C   0  0  0  0  0  3  0  0  0  0  0  0
  -40.0250   16.7960  -31.1400 C   0  0  0  0  0  0  0  0  0  0  0  0
  -40.9610   16.0910  -31.8970 C   0  0  0  0  0  0  0  0  0  0  0  0
  -40.5960   15.0140  -32.6480 O   0  0  0  0  0  0  0  0  0  0  0  0
  -40.9360   14.1640  -32.4440 H   0  0  0  0  0  0  0  0  0  0  0  0
  -34.7630   15.1040  -31.3130 N   0  0  0  0  0  0  0  0  0  0  0  0
  -34.5790   14.1510  -31.4770 H   0  0  0  0  0  0  0  0  0  0  0  0
  -34.0170   15.7370  -31.2000 H   0  0  0  0  0  0  0  0  0  0  0  0
  -30.9370   11.9760  -25.5000 C   0  0  0  0  0  2  0  0  0  0  0  0
  -29.7530   12.3260  -27.6570 C   0  0  0  0  0  0  0  0  0  0  0  0
  -30.2710   11.4900  -26.6870 N   0  0  0  0  0  0  0  0  0  0  0  0
  -29.7810   13.5510  -27.6530 O   0  0  0  0  0  0  0  0  0  0  0  0
  -30.1830   10.5170  -26.8100 H   0  0  0  0  0  0  0  0  0  0  0  0
  -29.9130   12.8040  -30.8330 C   0  0  0  0  0  0  0  0  0  0  0  0
  -27.6950   11.1790  -28.3940 C   0  0  0  0  0  2  0  0  0  0  0  0
  -27.4830   12.8390  -30.1030 C   0  0  0  0  0  2  0  0  0  0  0  0
  -29.0960   11.5970  -28.8140 C   0  0  2  0  0  3  0  0  0  0  0  0
  -26.8270   12.3650  -28.8140 C   0  0  2  0  0  3  0  0  0  0  0  0
  -28.8870   12.4630  -29.9690 N   0  0  0  0  0  0  0  0  0  0  0  0
  -31.0870   12.4640  -30.6790 O   0  0  0  0  0  0  0  0  0  0  0  0
  -25.4890   11.9690  -29.0410 O   0  0  0  0  0  0  0  0  0  0  0  0
  -25.3250   11.1180  -28.6060 H   0  0  0  0  0  0  0  0  0  0  0  0
  -29.5140   13.6520  -32.0140 C   0  0  1  0  0  3  0  0  0  0  0  0
  -29.5140   12.6400  -34.2850 C   0  0  0  0  0  0  0  0  0  0  0  0
  -30.1910   13.0840  -33.1750 N   0  0  0  0  0  0  0  0  0  0  0  0
  -28.3010   12.6530  -34.4620 O   0  0  0  0  0  0  0  0  0  0  0  0
  -31.1740   13.0150  -33.1620 H   0  0  0  0  0  0  0  0  0  0  0  0
  -29.8400   11.1520  -36.3530 C   0  0  0  0  0  2  0  0  0  0  0  0
  -30.2110   12.5480  -36.7560 C   0  0  0  0  0  2  0  0  0  0  0  0
  -30.4070   12.0950  -35.3500 C   0  0  0  0  0  0  0  0  0  0  0  0
  -31.7050   11.8690  -34.9390 F   0  0  0  0  0  0  0  0  0  0  0  0
  -29.4370   15.6420  -30.3700 C   0  0  0  0  0  1  0  0  0  0  0  0
  -31.3030   15.4490  -32.0260 C   0  0  0  0  0  1  0  0  0  0  0  0
  -28.9980   15.9980  -32.8060 C   0  0  0  0  0  1  0  0  0  0  0  0
  -29.8060   15.1640  -31.7880 C   0  0  0  0  0  0  0  0  0  0  0  0
  1  4  1  0  0  0  0
  2  5  1  0  0  0  0
  2  1  2  0  0  0  0
  4  3  2  0  0  0  0
  4  8  1  0  0  0  0
  5  6  2  0  0  0  0
  6 13  1  0  0  0  0
  6  3  1  0  0  0  0
  7 11  2  0  0  0  0
  8 12  1  0  0  0  0
  8  9  2  0  0  0  0
  9 10  1  0  0  0  0
  9 11  1  0  0  0  0
 12  7  1  0  0  0  0
 13 14  1  0  0  0  0
 14 15  1  0  0  0  0
 16 17  1  0  0  0  0
 16 15  1  0  0  0  0
 18 17  1  0  0  0  0
 19 18  1  0  0  0  0
 20 19  1  0  0  0  0
 21 20  1  0  0  0  0
 22 24  1  0  0  0  0
 23 25  1  0  0  0  0
 24 27  1  0  0  0  0
 25 27  1  0  0  0  0
 26 22  1  0  0  0  0
 26 23  1  0  0  0  0
 27 21  1  0  0  0  0
 27 28  1  0  0  0  0
 30 29  1  0  0  0  0
 30 26  1  0  0  0  0
 31 29  2  0  0  0  0
 32 30  2  0  0  0  0
 33 31  1  0  0  0  0
 34 33  2  0  0  0  0
 34 32  1  0  0  0  0
 36 35  2  0  0  0  0
 37 35  1  0  0  0  0
 38 36  1  0  0  0  0
 39 31  1  0  0  0  0
 39 37  2  0  0  0  0
 40 38  2  0  0  0  0
 40 39  1  0  0  0  0
 41 42  1  0  0  0  0
 41 40  1  0  0  0  0
 43 32  1  0  0  0  0
 43 45  1  0  0  0  0
 44 43  1  0  0  0  0
 46  5  1  0  0  0  0
 47 49  2  0  0  0  0
 47 48  1  0  0  0  0
 48 46  1  0  0  0  0
 50 48  1  0  0  0  0
 51 57  2  0  0  0  0
 51 56  1  0  0  0  0
 53 56  1  0  0  0  0
 53 55  1  0  0  0  0
 54 52  1  0  0  0  0
 54 47  1  1  0  0  0
 55 58  1  6  0  0  0
 55 52  1  0  0  0  0
 56 54  1  0  0  0  0
 58 59  1  0  0  0  0
 60 72  1  0  0  0  0
 60 51  1  1  0  0  0
 61 62  1  0  0  0  0
 62 64  1  0  0  0  0
 62 60  1  0  0  0  0
 63 61  2  0  0  0  0
 65 67  1  0  0  0  0
 66 65  1  0  0  0  0
 66 67  1  0  0  0  0
 67 68  1  0  0  0  0
 67 61  1  0  0  0  0
 70 72  1  0  0  0  0
 71 72  1  0  0  0  0
 72 69  1  0  0  0  0
M  END
>  <MODEL>
1

>  <REMARK>
 VINA RESULT:   -10.742      0.000      0.000
 INTER + INTRA:         -28.483
 INTER:                 -26.469
 INTRA:                  -2.015
 UNBOUND:                -4.240
  Name = 
  27 active torsions:
  status: ('A' for Active; 'I' for Inactive)
    1  A    between atoms: C_10  and  C_17
    2  A    between atoms: C_11  and  C_16
    3  A    between atoms: C_12  and  C_38
    4  A    between atoms: C_13  and  N_50
    5  A    between atoms: C_14  and  O_59
    6  A    between atoms: C_15  and  O_61
    7  A    between atoms: C_18  and  C_34
    8  A    between atoms: C_19  and  N_52
    9  A    between atoms: C_20  and  C_31
   10  A    between atoms: C_21  and  C_33
   11  A    between atoms: C_22  and  C_45
   12  A    between atoms: C_32  and  O_60
   13  A    between atoms: C_35  and  C_46
   14  A    between atoms: C_36  and  C_46
   15  A    between atoms: C_37  and  C_46
   16  A    between atoms: C_38  and  N_53
   17  A    between atoms: C_39  and  C_40
   18  A    between atoms: C_39  and  N_55
   19  A    between atoms: C_40  and  O_62
   20  A    between atoms: C_41  and  C_42
   21  A    between atoms: C_41  and  O_61
   22  A    between atoms: C_42  and  O_63
   23  A    between atoms: C_43  and  C_44
   24  A    between atoms: C_43  and  O_62
   25  A    between atoms: C_44  and  O_63
   26  A    between atoms: C_45  and  C_46
   27  A    between atoms: C_45  and  N_54
                            x       y       z     vdW  Elec       q    Type
                         _______ _______ _______ _____ _____    ______ ____

>  <TORSDO>
F 23

$$$$
=
 OpenBabel04082316253D

 72 78  0  0  1  0  0  0  0  0999 V2000
  -30.3430    8.2450  -24.1120 C   0  0  0  0  0  3  0  0  0  0  0  0
  -29.9050    9.3370  -24.8590 C   0  0  0  0  0  3  0  0  0  0  0  0
  -32.0650    9.6170  -23.1170 C   0  0  0  0  0  3  0  0  0  0  0  0
  -31.4240    8.3840  -23.2400 C   0  0  0  0  0  0  0  0  0  0  0  0
  -30.5460   10.5690  -24.7370 C   0  0  0  0  0  0  0  0  0  0  0  0
  -31.6270   10.7090  -23.8640 C   0  0  0  0  0  0  0  0  0  0  0  0
  -32.5680    5.7700  -20.7000 C   0  0  0  0  0  3  0  0  0  0  0  0
  -31.8770    7.2540  -22.4670 C   0  0  0  0  0  0  0  0  0  0  0  0
  -32.2280    5.9790  -22.8570 C   0  0  0  0  0  0  0  0  0  0  0  0
  -32.2150    5.4530  -24.2380 C   0  0  0  0  0  1  0  0  0  0  0  0
  -32.6240    5.1260  -21.8450 N   0  0  0  0  0  0  0  0  0  0  0  0
  -32.0480    7.4040  -20.7670 S   0  0  0  0  0  0  0  0  0  0  0  0
  -32.2640   11.9060  -23.7330 O   0  0  0  0  0  0  0  0  0  0  0  0
  -33.6880   11.8760  -23.6570 C   0  0  0  0  0  2  0  0  0  0  0  0
  -34.2650   12.4440  -24.9380 C   0  0  0  0  0  2  0  0  0  0  0  0
  -34.6840   13.7840  -24.7080 O   0  0  0  0  0  0  0  0  0  0  0  0
  -34.9630   14.0130  -23.3340 C   0  0  0  0  0  2  0  0  0  0  0  0
  -36.1500   14.9500  -23.2210 C   0  0  0  0  0  2  0  0  0  0  0  0
  -37.1060   14.3860  -22.3330 O   0  0  0  0  0  0  0  0  0  0  0  0
  -36.7520   13.0620  -21.9590 C   0  0  0  0  0  2  0  0  0  0  0  0
  -37.1670   12.8120  -20.5230 C   0  0  0  0  0  2  0  0  0  0  0  0
  -34.4150   10.3120  -19.6280 C   0  0  0  0  0  2  0  0  0  0  0  0
  -33.8570   12.5310  -18.6280 C   0  0  0  0  0  2  0  0  0  0  0  0
  -35.4840   10.9740  -20.4870 C   0  0  0  0  0  2  0  0  0  0  0  0
  -34.9290   13.1820  -19.4910 C   0  0  0  0  0  2  0  0  0  0  0  0
  -33.3860   11.2790  -19.2290 N   0  0  0  0  0  0  0  0  0  0  0  0
  -36.0210   12.1870  -19.7760 N   0  0  0  0  0  4  0  0  0  0  0  0
  -36.3920   11.8750  -18.8780 H   0  0  0  0  0  0  0  0  0  0  0  0
  -31.0550   10.9300  -19.7340 C   0  0  0  0  0  3  0  0  0  0  0  0
  -32.1280   10.7770  -18.8730 C   0  0  0  0  0  0  0  0  0  0  0  0
  -29.8340   10.4200  -19.3410 C   0  0  0  0  0  0  0  0  0  0  0  0
  -31.9080   10.1230  -17.6780 C   0  0  0  0  0  0  0  0  0  0  0  0
  -29.6480    9.7850  -18.1650 N   0  0  0  0  0  0  0  0  0  0  0  0
  -30.7020    9.6330  -17.3200 N   0  0  0  0  0  0  0  0  0  0  0  0
  -27.6930   10.6460  -22.3840 C   0  0  0  0  0  3  0  0  0  0  0  0
  -26.4220   10.7570  -21.8210 C   0  0  0  0  0  3  0  0  0  0  0  0
  -28.8130   10.5350  -21.5610 C   0  0  0  0  0  3  0  0  0  0  0  0
  -26.2710   10.7590  -20.4350 C   0  0  0  0  0  3  0  0  0  0  0  0
  -28.6630   10.5360  -20.1750 C   0  0  0  0  0  0  0  0  0  0  0  0
  -27.3920   10.6480  -19.6110 C   0  0  0  0  0  0  0  0  0  0  0  0
  -27.2160   10.6500  -18.2590 O   0  0  0  0  0  0  0  0  0  0  0  0
  -26.6170   11.2550  -17.8650 H   0  0  0  0  0  0  0  0  0  0  0  0
  -32.9900    9.9520  -16.7810 N   0  0  0  0  0  0  0  0  0  0  0  0
  -33.6710    9.2630  -16.9570 H   0  0  0  0  0  0  0  0  0  0  0  0
  -33.0620   10.5230  -15.9830 H   0  0  0  0  0  0  0  0  0  0  0  0
  -30.0610   11.7350  -25.5490 C   0  0  0  0  0  2  0  0  0  0  0  0
  -29.4290   12.1960  -27.9090 C   0  0  0  0  0  0  0  0  0  0  0  0
  -29.5750   11.3250  -26.8470 N   0  0  0  0  0  0  0  0  0  0  0  0
  -29.6810   13.3960  -27.9060 O   0  0  0  0  0  0  0  0  0  0  0  0
  -29.3360   10.3790  -26.9800 H   0  0  0  0  0  0  0  0  0  0  0  0
  -29.7800   12.9840  -31.0060 C   0  0  0  0  0  0  0  0  0  0  0  0
  -27.5020   11.0130  -28.9000 C   0  0  0  0  0  2  0  0  0  0  0  0
  -27.3080   12.8150  -30.4610 C   0  0  0  0  0  2  0  0  0  0  0  0
  -28.9010   11.5460  -29.1740 C   0  0  2  0  0  3  0  0  0  0  0  0
  -26.5940   12.1840  -29.2740 C   0  0  2  0  0  3  0  0  0  0  0  0
  -28.7190   12.5060  -30.2570 N   0  0  0  0  0  0  0  0  0  0  0  0
  -30.9600   12.6960  -30.7960 O   0  0  0  0  0  0  0  0  0  0  0  0
  -25.3020   11.7380  -29.6360 O   0  0  0  0  0  0  0  0  0  0  0  0
  -24.6730   11.9650  -28.9340 H   0  0  0  0  0  0  0  0  0  0  0  0
  -29.4120   13.9180  -32.1310 C   0  0  1  0  0  3  0  0  0  0  0  0
  -29.4900   12.7310  -34.3150 C   0  0  0  0  0  0  0  0  0  0  0  0
  -30.1170   13.4340  -33.3140 N   0  0  0  0  0  0  0  0  0  0  0  0
  -28.3050   12.4200  -34.3650 O   0  0  0  0  0  0  0  0  0  0  0  0
  -31.0810   13.6170  -33.3980 H   0  0  0  0  0  0  0  0  0  0  0  0
  -29.8910   11.4270  -36.4910 C   0  0  0  0  0  2  0  0  0  0  0  0
  -30.1550   12.8720  -36.7930 C   0  0  0  0  0  2  0  0  0  0  0  0
  -30.4040   12.3330  -35.4260 C   0  0  0  0  0  0  0  0  0  0  0  0
  -31.7210   12.1730  -35.0450 F   0  0  0  0  0  0  0  0  0  0  0  0
  -29.2890   15.7850  -30.3520 C   0  0  0  0  0  1  0  0  0  0  0  0
  -31.2080   15.7010  -31.9580 C   0  0  0  0  0  1  0  0  0  0  0  0
  -28.9310   16.3180  -32.7690 C   0  0  0  0  0  1  0  0  0  0  0  0
  -29.7020   15.4080  -31.7880 C   0  0  0  0  0  0  0  0  0  0  0  0
  1  4  1  0  0  0  0
  2  5  1  0  0  0  0
  2  1  2  0  0  0  0
  4  3  2  0  0  0  0
  4  8  1  0  0  0  0
  5  6  2  0  0  0  0
  6 13  1  0  0  0  0
  6  3  1  0  0  0  0
  8 12  1  0  0  0  0
  9  8  2  0  0  0  0
  9 11  1  0  0  0  0
 10  9  1  0  0  0  0
 11  7  2  0  0  0  0
 12  7  1  0  0  0  0
 13 14  1  0  0  0  0
 15 16  1  0  0  0  0
 15 14  1  0  0  0  0
 16 17  1  0  0  0  0
 17 18  1  0  0  0  0
 18 19  1  0  0  0  0
 19 20  1  0  0  0  0
 20 21  1  0  0  0  0
 21 27  1  0  0  0  0
 22 26  1  0  0  0  0
 24 27  1  0  0  0  0
 24 22  1  0  0  0  0
 25 23  1  0  0  0  0
 26 30  1  0  0  0  0
 26 23  1  0  0  0  0
 27 25  1  0  0  0  0
 27 28  1  0  0  0  0
 29 31  2  0  0  0  0
 29 30  1  0  0  0  0
 30 32  2  0  0  0  0
 31 33  1  0  0  0  0
 32 34  1  0  0  0  0
 32 43  1  0  0  0  0
 33 34  2  0  0  0  0
 35 36  2  0  0  0  0
 35 37  1  0  0  0  0
 36 38  1  0  0  0  0
 37 39  2  0  0  0  0
 38 40  2  0  0  0  0
 39 40  1  0  0  0  0
 39 31  1  0  0  0  0
 40 41  1  0  0  0  0
 41 42  1  0  0  0  0
 43 45  1  0  0  0  0
 44 43  1  0  0  0  0
 46  5  1  0  0  0  0
 47 49  2  0  0  0  0
 47 48  1  0  0  0  0
 48 46  1  0  0  0  0
 50 48  1  0  0  0  0
 51 57  2  0  0  0  0
 51 56  1  0  0  0  0
 53 56  1  0  0  0  0
 53 55  1  0  0  0  0
 54 52  1  0  0  0  0
 54 47  1  1  0  0  0
 55 58  1  6  0  0  0
 55 52  1  0  0  0  0
 56 54  1  0  0  0  0
 58 59  1  0  0  0  0
 60 72  1  0  0  0  0
 60 51  1  1  0  0  0
 61 62  1  0  0  0  0
 62 60  1  0  0  0  0
 63 61  2  0  0  0  0
 64 62  1  0  0  0  0
 65 67  1  0  0  0  0
 66 65  1  0  0  0  0
 66 67  1  0  0  0  0
 67 68  1  0  0  0  0
 67 61  1  0  0  0  0
 70 72  1  0  0  0  0
 71 72  1  0  0  0  0
 72 69  1  0  0  0  0
M  END
>  <MODEL>
2

>  <REMARK>
 VINA RESULT:   -10.735      4.737      9.206
 INTER + INTRA:         -28.468
 INTER:                 -24.228
 INTRA:                  -4.240
 UNBOUND:                -4.240
  Name = 
  27 active torsions:
  status: ('A' for Active; 'I' for Inactive)
    1  A    between atoms: C_10  and  C_17
    2  A    between atoms: C_11  and  C_16
    3  A    between atoms: C_12  and  C_38
    4  A    between atoms: C_13  and  N_50
    5  A    between atoms: C_14  and  O_59
    6  A    between atoms: C_15  and  O_61
    7  A    between atoms: C_18  and  C_34
    8  A    between atoms: C_19  and  N_52
    9  A    between atoms: C_20  and  C_31
   10  A    between atoms: C_21  and  C_33
   11  A    between atoms: C_22  and  C_45
   12  A    between atoms: C_32  and  O_60
   13  A    between atoms: C_35  and  C_46
   14  A    between atoms: C_36  and  C_46
   15  A    between atoms: C_37  and  C_46
   16  A    between atoms: C_38  and  N_53
   17  A    between atoms: C_39  and  C_40
   18  A    between atoms: C_39  and  N_55
   19  A    between atoms: C_40  and  O_62
   20  A    between atoms: C_41  and  C_42
   21  A    between atoms: C_41  and  O_61
   22  A    between atoms: C_42  and  O_63
   23  A    between atoms: C_43  and  C_44
   24  A    between atoms: C_43  and  O_62
   25  A    between atoms: C_44  and  O_63
   26  A    between atoms: C_45  and  C_46
   27  A    between atoms: C_45  and  N_54
                            x       y       z     vdW  Elec       q    Type
                         _______ _______ _______ _____ _____    ______ ____

>  <TORSDO>
F 23

$$$$
