MODEL 1
REMARK VINA RESULT:   -10.742      0.000      0.000
REMARK INTER + INTRA:         -28.483
REMARK INTER:                 -26.469
REMARK INTRA:                  -2.015
REMARK UNBOUND:                -4.240
REMARK  Name = 
REMARK  27 active torsions:
REMARK  status: ('A' for Active; 'I' for Inactive)
REMARK    1  A    between atoms: C_10  and  C_17
REMARK    2  A    between atoms: C_11  and  C_16
REMARK    3  A    between atoms: C_12  and  C_38
REMARK    4  A    between atoms: C_13  and  N_50
REMARK    5  A    between atoms: C_14  and  O_59
REMARK    6  A    between atoms: C_15  and  O_61
REMARK    7  A    between atoms: C_18  and  C_34
REMARK    8  A    between atoms: C_19  and  N_52
REMARK    9  A    between atoms: C_20  and  C_31
REMARK   10  A    between atoms: C_21  and  C_33
REMARK   11  A    between atoms: C_22  and  C_45
REMARK   12  A    between atoms: C_32  and  O_60
REMARK   13  A    between atoms: C_35  and  C_46
REMARK   14  A    between atoms: C_36  and  C_46
REMARK   15  A    between atoms: C_37  and  C_46
REMARK   16  A    between atoms: C_38  and  N_53
REMARK   17  A    between atoms: C_39  and  C_40
REMARK   18  A    between atoms: C_39  and  N_55
REMARK   19  A    between atoms: C_40  and  O_62
REMARK   20  A    between atoms: C_41  and  C_42
REMARK   21  A    between atoms: C_41  and  O_61
REMARK   22  A    between atoms: C_42  and  O_63
REMARK   23  A    between atoms: C_43  and  C_44
REMARK   24  A    between atoms: C_43  and  O_62
REMARK   25  A    between atoms: C_44  and  O_63
REMARK   26  A    between atoms: C_45  and  C_46
REMARK   27  A    between atoms: C_45  and  N_54
REMARK                            x       y       z     vdW  Elec       q    Type
REMARK                         _______ _______ _______ _____ _____    ______ ____
ROOT
ATOM      1  C   UNL     1     -28.496  10.286 -23.153  0.00  0.00    +0.000 A 
ATOM      2  C   UNL     1     -29.198  10.635 -24.306  0.00  0.00    +0.000 A 
ATOM      3  C   UNL     1     -29.781  11.890 -21.884  0.00  0.00    +0.000 A 
ATOM      4  C   UNL     1     -28.787  10.913 -21.941  0.00  0.00    +0.000 A 
ATOM      5  C   UNL     1     -30.192  11.611 -24.249  0.00  0.00    +0.000 A 
ATOM      6  C   UNL     1     -30.483  12.239 -23.037  0.00  0.00    +0.000 A 
ENDROOT
BRANCH   4   8
ATOM      7  C   UNL     1     -26.373  10.217 -19.064  0.00  0.00    +0.000 A 
ATOM      8  C   UNL     1     -28.061  10.551 -20.749  0.00  0.00    +0.000 A 
ATOM      9  C   UNL     1     -28.476   9.905 -19.603  0.00  0.00    +0.000 A 
ATOM     10  C   UNL     1     -29.839   9.407 -19.326  0.00  0.00    +0.000 C 
ATOM     11  N   UNL     1     -27.509   9.712 -18.635  0.00  0.00    +0.000 NA
ATOM     12  S   UNL     1     -26.396  10.940 -20.620  0.00  0.00    +0.000 S 
ENDBRANCH   4   8
BRANCH   6  13
ATOM     13  O   UNL     1     -31.451  13.195 -22.964  0.00  0.00    +0.000 OA
BRANCH  13  14
ATOM     14  C   UNL     1     -31.121  14.400 -22.276  0.00  0.00    +0.000 C 
BRANCH  14  15
ATOM     15  C   UNL     1     -32.358  15.272 -22.183  0.00  0.00    +0.000 C 
BRANCH  15  16
ATOM     16  O   UNL     1     -32.203  16.393 -23.045  0.00  0.00    +0.000 OA
BRANCH  16  17
ATOM     17  C   UNL     1     -32.925  17.520 -22.569  0.00  0.00    +0.000 C 
BRANCH  17  18
ATOM     18  C   UNL     1     -32.889  18.611 -23.622  0.00  0.00    +0.000 C 
BRANCH  18  19
ATOM     19  O   UNL     1     -33.129  18.032 -24.899  0.00  0.00    +0.000 OA
BRANCH  19  20
ATOM     20  C   UNL     1     -32.009  18.188 -25.760  0.00  0.00    +0.000 C 
BRANCH  20  21
ATOM     21  C   UNL     1     -32.438  18.906 -27.024  0.00  0.00    +0.000 C 
BRANCH  21  27
ATOM     22  C   UNL     1     -35.693  18.473 -28.984  0.00  0.00    +0.000 C 
ATOM     23  C   UNL     1     -34.671  16.229 -28.597  0.00  0.00    +0.000 C 
ATOM     24  C   UNL     1     -34.389  19.134 -28.558  0.00  0.00    +0.000 C 
ATOM     25  C   UNL     1     -33.373  16.901 -28.172  0.00  0.00    +0.000 C 
ATOM     26  N   UNL     1     -35.458  17.108 -29.467  0.00  0.00    +0.000 N 
ATOM     27  N   UNL     1     -33.673  18.249 -27.574  0.00  0.00    +0.000 N 
ATOM     28  H   UNL     1     -34.302  18.099 -26.785  0.00  0.00    +0.000 HD
BRANCH  26  30
ATOM     29  C   UNL     1     -37.728  16.983 -30.266  0.00  0.00    +0.000 A 
ATOM     30  C   UNL     1     -36.415  16.549 -30.323  0.00  0.00    +0.000 A 
ATOM     31  C   UNL     1     -38.637  16.404 -31.129  0.00  0.00    +0.000 A 
ATOM     32  C   UNL     1     -36.099  15.565 -31.238  0.00  0.00    +0.000 A 
ATOM     33  N   UNL     1     -38.299  15.443 -32.014  0.00  0.00    +0.000 NA
ATOM     34  N   UNL     1     -37.010  15.016 -32.069  0.00  0.00    +0.000 NA
BRANCH  31  39
ATOM     35  C   UNL     1     -41.764  18.288 -30.376  0.00  0.00    +0.000 A 
ATOM     36  C   UNL     1     -42.701  17.584 -31.133  0.00  0.00    +0.000 A 
ATOM     37  C   UNL     1     -40.426  17.894 -30.380  0.00  0.00    +0.000 A 
ATOM     38  C   UNL     1     -42.299  16.486 -31.894  0.00  0.00    +0.000 A 
ATOM     39  C   UNL     1     -40.025  16.796 -31.140  0.00  0.00    +0.000 A 
ATOM     40  C   UNL     1     -40.961  16.091 -31.897  0.00  0.00    +0.000 A 
BRANCH  40  41
ATOM     41  O   UNL     1     -40.596  15.014 -32.648  0.00  0.00    +0.000 OA
ATOM     42  H   UNL     1     -40.936  14.164 -32.444  0.00  0.00    +0.000 HD
ENDBRANCH  40  41
ENDBRANCH  31  39
BRANCH  32  43
ATOM     43  N   UNL     1     -34.763  15.104 -31.313  0.00  0.00    +0.000 N 
ATOM     44  H   UNL     1     -34.579  14.151 -31.477  0.00  0.00    +0.000 HD
ATOM     45  H   UNL     1     -34.017  15.737 -31.200  0.00  0.00    +0.000 HD
ENDBRANCH  32  43
ENDBRANCH  26  30
ENDBRANCH  21  27
ENDBRANCH  20  21
ENDBRANCH  19  20
ENDBRANCH  18  19
ENDBRANCH  17  18
ENDBRANCH  16  17
ENDBRANCH  15  16
ENDBRANCH  14  15
ENDBRANCH  13  14
ENDBRANCH   6  13
BRANCH   5  46
ATOM     46  C   UNL     1     -30.937  11.976 -25.500  0.00  0.00    +0.000 C 
BRANCH  46  48
ATOM     47  C   UNL     1     -29.753  12.326 -27.657  0.00  0.00    +0.000 C 
ATOM     48  N   UNL     1     -30.271  11.490 -26.687  0.00  0.00    +0.000 N 
ATOM     49  O   UNL     1     -29.781  13.551 -27.653  0.00  0.00    +0.000 OA
ATOM     50  H   UNL     1     -30.183  10.517 -26.810  0.00  0.00    +0.000 HD
BRANCH  47  54
ATOM     51  C   UNL     1     -29.913  12.804 -30.833  0.00  0.00    +0.000 C 
ATOM     52  C   UNL     1     -27.695  11.179 -28.394  0.00  0.00    +0.000 C 
ATOM     53  C   UNL     1     -27.483  12.839 -30.103  0.00  0.00    +0.000 C 
ATOM     54  C   UNL     1     -29.096  11.597 -28.814  0.00  0.00    +0.000 C 
ATOM     55  C   UNL     1     -26.827  12.365 -28.814  0.00  0.00    +0.000 C 
ATOM     56  N   UNL     1     -28.887  12.463 -29.969  0.00  0.00    +0.000 N 
ATOM     57  O   UNL     1     -31.087  12.464 -30.679  0.00  0.00    +0.000 OA
BRANCH  55  58
ATOM     58  O   UNL     1     -25.489  11.969 -29.041  0.00  0.00    +0.000 OA
ATOM     59  H   UNL     1     -25.325  11.118 -28.606  0.00  0.00    +0.000 HD
ENDBRANCH  55  58
BRANCH  51  60
ATOM     60  C   UNL     1     -29.514  13.652 -32.014  0.00  0.00    +0.000 C 
BRANCH  60  62
ATOM     61  C   UNL     1     -29.514  12.640 -34.285  0.00  0.00    +0.000 C 
ATOM     62  N   UNL     1     -30.191  13.084 -33.175  0.00  0.00    +0.000 N 
ATOM     63  O   UNL     1     -28.301  12.653 -34.462  0.00  0.00    +0.000 OA
ATOM     64  H   UNL     1     -31.174  13.015 -33.162  0.00  0.00    +0.000 HD
BRANCH  61  67
ATOM     65  C   UNL     1     -29.840  11.152 -36.353  0.00  0.00    +0.000 C 
ATOM     66  C   UNL     1     -30.211  12.548 -36.756  0.00  0.00    +0.000 C 
ATOM     67  C   UNL     1     -30.407  12.095 -35.350  0.00  0.00    +0.000 C 
ATOM     68  F   UNL     1     -31.705  11.869 -34.939  0.00  0.00    +0.000 F 
ENDBRANCH  61  67
ENDBRANCH  60  62
BRANCH  60  72
ATOM     69  C   UNL     1     -29.437  15.642 -30.370  0.00  0.00    +0.000 C 
ATOM     70  C   UNL     1     -31.303  15.449 -32.026  0.00  0.00    +0.000 C 
ATOM     71  C   UNL     1     -28.998  15.998 -32.806  0.00  0.00    +0.000 C 
ATOM     72  C   UNL     1     -29.806  15.164 -31.788  0.00  0.00    +0.000 C 
ENDBRANCH  60  72
ENDBRANCH  51  60
ENDBRANCH  47  54
ENDBRANCH  46  48
ENDBRANCH   5  46
TORSDOF 23
ENDMDL
MODEL 2
REMARK VINA RESULT:   -10.735      4.737      9.206
REMARK INTER + INTRA:         -28.468
REMARK INTER:                 -24.228
REMARK INTRA:                  -4.240
REMARK UNBOUND:                -4.240
REMARK  Name = 
REMARK  27 active torsions:
REMARK  status: ('A' for Active; 'I' for Inactive)
REMARK    1  A    between atoms: C_10  and  C_17
REMARK    2  A    between atoms: C_11  and  C_16
REMARK    3  A    between atoms: C_12  and  C_38
REMARK    4  A    between atoms: C_13  and  N_50
REMARK    5  A    between atoms: C_14  and  O_59
REMARK    6  A    between atoms: C_15  and  O_61
REMARK    7  A    between atoms: C_18  and  C_34
REMARK    8  A    between atoms: C_19  and  N_52
REMARK    9  A    between atoms: C_20  and  C_31
REMARK   10  A    between atoms: C_21  and  C_33
REMARK   11  A    between atoms: C_22  and  C_45
REMARK   12  A    between atoms: C_32  and  O_60
REMARK   13  A    between atoms: C_35  and  C_46
REMARK   14  A    between atoms: C_36  and  C_46
REMARK   15  A    between atoms: C_37  and  C_46
REMARK   16  A    between atoms: C_38  and  N_53
REMARK   17  A    between atoms: C_39  and  C_40
REMARK   18  A    between atoms: C_39  and  N_55
REMARK   19  A    between atoms: C_40  and  O_62
REMARK   20  A    between atoms: C_41  and  C_42
REMARK   21  A    between atoms: C_41  and  O_61
REMARK   22  A    between atoms: C_42  and  O_63
REMARK   23  A    between atoms: C_43  and  C_44
REMARK   24  A    between atoms: C_43  and  O_62
REMARK   25  A    between atoms: C_44  and  O_63
REMARK   26  A    between atoms: C_45  and  C_46
REMARK   27  A    between atoms: C_45  and  N_54
REMARK                            x       y       z     vdW  Elec       q    Type
REMARK                         _______ _______ _______ _____ _____    ______ ____
ROOT
ATOM      1  C   UNL     1     -30.343   8.245 -24.112  0.00  0.00    +0.000 A 
ATOM      2  C   UNL     1     -29.905   9.337 -24.859  0.00  0.00    +0.000 A 
ATOM      3  C   UNL     1     -32.065   9.617 -23.117  0.00  0.00    +0.000 A 
ATOM      4  C   UNL     1     -31.424   8.384 -23.240  0.00  0.00    +0.000 A 
ATOM      5  C   UNL     1     -30.546  10.569 -24.737  0.00  0.00    +0.000 A 
ATOM      6  C   UNL     1     -31.627  10.709 -23.864  0.00  0.00    +0.000 A 
ENDROOT
BRANCH   4   8
ATOM      7  C   UNL     1     -32.568   5.770 -20.700  0.00  0.00    +0.000 A 
ATOM      8  C   UNL     1     -31.877   7.254 -22.467  0.00  0.00    +0.000 A 
ATOM      9  C   UNL     1     -32.228   5.979 -22.857  0.00  0.00    +0.000 A 
ATOM     10  C   UNL     1     -32.215   5.453 -24.238  0.00  0.00    +0.000 C 
ATOM     11  N   UNL     1     -32.624   5.126 -21.845  0.00  0.00    +0.000 NA
ATOM     12  S   UNL     1     -32.048   7.404 -20.767  0.00  0.00    +0.000 S 
ENDBRANCH   4   8
BRANCH   6  13
ATOM     13  O   UNL     1     -32.264  11.906 -23.733  0.00  0.00    +0.000 OA
BRANCH  13  14
ATOM     14  C   UNL     1     -33.688  11.876 -23.657  0.00  0.00    +0.000 C 
BRANCH  14  15
ATOM     15  C   UNL     1     -34.265  12.444 -24.938  0.00  0.00    +0.000 C 
BRANCH  15  16
ATOM     16  O   UNL     1     -34.684  13.784 -24.708  0.00  0.00    +0.000 OA
BRANCH  16  17
ATOM     17  C   UNL     1     -34.963  14.013 -23.334  0.00  0.00    +0.000 C 
BRANCH  17  18
ATOM     18  C   UNL     1     -36.150  14.950 -23.221  0.00  0.00    +0.000 C 
BRANCH  18  19
ATOM     19  O   UNL     1     -37.106  14.386 -22.333  0.00  0.00    +0.000 OA
BRANCH  19  20
ATOM     20  C   UNL     1     -36.752  13.062 -21.959  0.00  0.00    +0.000 C 
BRANCH  20  21
ATOM     21  C   UNL     1     -37.167  12.812 -20.523  0.00  0.00    +0.000 C 
BRANCH  21  27
ATOM     22  C   UNL     1     -34.415  10.312 -19.628  0.00  0.00    +0.000 C 
ATOM     23  C   UNL     1     -33.857  12.531 -18.628  0.00  0.00    +0.000 C 
ATOM     24  C   UNL     1     -35.484  10.974 -20.487  0.00  0.00    +0.000 C 
ATOM     25  C   UNL     1     -34.929  13.182 -19.491  0.00  0.00    +0.000 C 
ATOM     26  N   UNL     1     -33.386  11.279 -19.229  0.00  0.00    +0.000 N 
ATOM     27  N   UNL     1     -36.021  12.187 -19.776  0.00  0.00    +0.000 N 
ATOM     28  H   UNL     1     -36.392  11.875 -18.878  0.00  0.00    +0.000 HD
BRANCH  26  30
ATOM     29  C   UNL     1     -31.055  10.930 -19.734  0.00  0.00    +0.000 A 
ATOM     30  C   UNL     1     -32.128  10.777 -18.873  0.00  0.00    +0.000 A 
ATOM     31  C   UNL     1     -29.834  10.420 -19.341  0.00  0.00    +0.000 A 
ATOM     32  C   UNL     1     -31.908  10.123 -17.678  0.00  0.00    +0.000 A 
ATOM     33  N   UNL     1     -29.648   9.785 -18.165  0.00  0.00    +0.000 NA
ATOM     34  N   UNL     1     -30.702   9.633 -17.320  0.00  0.00    +0.000 NA
BRANCH  31  39
ATOM     35  C   UNL     1     -27.693  10.646 -22.384  0.00  0.00    +0.000 A 
ATOM     36  C   UNL     1     -26.422  10.757 -21.821  0.00  0.00    +0.000 A 
ATOM     37  C   UNL     1     -28.813  10.535 -21.561  0.00  0.00    +0.000 A 
ATOM     38  C   UNL     1     -26.271  10.759 -20.435  0.00  0.00    +0.000 A 
ATOM     39  C   UNL     1     -28.663  10.536 -20.175  0.00  0.00    +0.000 A 
ATOM     40  C   UNL     1     -27.392  10.648 -19.611  0.00  0.00    +0.000 A 
BRANCH  40  41
ATOM     41  O   UNL     1     -27.216  10.650 -18.259  0.00  0.00    +0.000 OA
ATOM     42  H   UNL     1     -26.617  11.255 -17.865  0.00  0.00    +0.000 HD
ENDBRANCH  40  41
ENDBRANCH  31  39
BRANCH  32  43
ATOM     43  N   UNL     1     -32.990   9.952 -16.781  0.00  0.00    +0.000 N 
ATOM     44  H   UNL     1     -33.671   9.263 -16.957  0.00  0.00    +0.000 HD
ATOM     45  H   UNL     1     -33.062  10.523 -15.983  0.00  0.00    +0.000 HD
ENDBRANCH  32  43
ENDBRANCH  26  30
ENDBRANCH  21  27
ENDBRANCH  20  21
ENDBRANCH  19  20
ENDBRANCH  18  19
ENDBRANCH  17  18
ENDBRANCH  16  17
ENDBRANCH  15  16
ENDBRANCH  14  15
ENDBRANCH  13  14
ENDBRANCH   6  13
BRANCH   5  46
ATOM     46  C   UNL     1     -30.061  11.735 -25.549  0.00  0.00    +0.000 C 
BRANCH  46  48
ATOM     47  C   UNL     1     -29.429  12.196 -27.909  0.00  0.00    +0.000 C 
ATOM     48  N   UNL     1     -29.575  11.325 -26.847  0.00  0.00    +0.000 N 
ATOM     49  O   UNL     1     -29.681  13.396 -27.906  0.00  0.00    +0.000 OA
ATOM     50  H   UNL     1     -29.336  10.379 -26.980  0.00  0.00    +0.000 HD
BRANCH  47  54
ATOM     51  C   UNL     1     -29.780  12.984 -31.006  0.00  0.00    +0.000 C 
ATOM     52  C   UNL     1     -27.502  11.013 -28.900  0.00  0.00    +0.000 C 
ATOM     53  C   UNL     1     -27.308  12.815 -30.461  0.00  0.00    +0.000 C 
ATOM     54  C   UNL     1     -28.901  11.546 -29.174  0.00  0.00    +0.000 C 
ATOM     55  C   UNL     1     -26.594  12.184 -29.274  0.00  0.00    +0.000 C 
ATOM     56  N   UNL     1     -28.719  12.506 -30.257  0.00  0.00    +0.000 N 
ATOM     57  O   UNL     1     -30.960  12.696 -30.796  0.00  0.00    +0.000 OA
BRANCH  55  58
ATOM     58  O   UNL     1     -25.302  11.738 -29.636  0.00  0.00    +0.000 OA
ATOM     59  H   UNL     1     -24.673  11.965 -28.934  0.00  0.00    +0.000 HD
ENDBRANCH  55  58
BRANCH  51  60
ATOM     60  C   UNL     1     -29.412  13.918 -32.131  0.00  0.00    +0.000 C 
BRANCH  60  62
ATOM     61  C   UNL     1     -29.490  12.731 -34.315  0.00  0.00    +0.000 C 
ATOM     62  N   UNL     1     -30.117  13.434 -33.314  0.00  0.00    +0.000 N 
ATOM     63  O   UNL     1     -28.305  12.420 -34.365  0.00  0.00    +0.000 OA
ATOM     64  H   UNL     1     -31.081  13.617 -33.398  0.00  0.00    +0.000 HD
BRANCH  61  67
ATOM     65  C   UNL     1     -29.891  11.427 -36.491  0.00  0.00    +0.000 C 
ATOM     66  C   UNL     1     -30.155  12.872 -36.793  0.00  0.00    +0.000 C 
ATOM     67  C   UNL     1     -30.404  12.333 -35.426  0.00  0.00    +0.000 C 
ATOM     68  F   UNL     1     -31.721  12.173 -35.045  0.00  0.00    +0.000 F 
ENDBRANCH  61  67
ENDBRANCH  60  62
BRANCH  60  72
ATOM     69  C   UNL     1     -29.289  15.785 -30.352  0.00  0.00    +0.000 C 
ATOM     70  C   UNL     1     -31.208  15.701 -31.958  0.00  0.00    +0.000 C 
ATOM     71  C   UNL     1     -28.931  16.318 -32.769  0.00  0.00    +0.000 C 
ATOM     72  C   UNL     1     -29.702  15.408 -31.788  0.00  0.00    +0.000 C 
ENDBRANCH  60  72
ENDBRANCH  51  60
ENDBRANCH  47  54
ENDBRANCH  46  48
ENDBRANCH   5  46
TORSDOF 23
ENDMDL
