=
                    3D
 Structure written by MMmdl.
 71 77  0  0  1  0            999 V2000
  -28.4960   10.2860  -23.1530 C   0  0  0  0  0  0
  -29.1980   10.6350  -24.3060 C   0  0  0  0  0  0
  -29.7810   11.8900  -21.8840 C   0  0  0  0  0  0
  -28.7870   10.9130  -21.9410 C   0  0  0  0  0  0
  -30.1920   11.6110  -24.2490 C   0  0  0  0  0  0
  -30.4830   12.2390  -23.0370 C   0  0  0  0  0  0
  -26.3730   10.2170  -19.0640 C   0  0  0  0  0  0
  -28.0610   10.5510  -20.7490 C   0  0  0  0  0  0
  -28.4760    9.9050  -19.6030 C   0  0  0  0  0  0
  -29.8390    9.4070  -19.3260 C   0  0  0  0  0  0
  -27.5090    9.7120  -18.6350 N   0  0  0  0  0  0
  -26.3960   10.9400  -20.6200 S   0  0  0  0  0  0
  -31.4510   13.1950  -22.9640 O   0  0  0  0  0  0
  -31.1210   14.4000  -22.2760 C   0  0  0  0  0  0
  -32.3580   15.2720  -22.1830 C   0  0  0  0  0  0
  -32.2030   16.3930  -23.0450 O   0  0  0  0  0  0
  -32.9250   17.5200  -22.5690 C   0  0  0  0  0  0
  -32.8890   18.6110  -23.6220 C   0  0  0  0  0  0
  -33.1290   18.0320  -24.8990 O   0  0  0  0  0  0
  -32.0090   18.1880  -25.7600 C   0  0  0  0  0  0
  -32.4380   18.9060  -27.0240 C   0  0  0  0  0  0
  -35.6930   18.4730  -28.9840 C   0  0  0  0  0  0
  -34.6710   16.2290  -28.5970 C   0  0  0  0  0  0
  -34.3890   19.1340  -28.5580 C   0  0  0  0  0  0
  -33.3730   16.9010  -28.1720 C   0  0  0  0  0  0
  -35.4580   17.1080  -29.4670 N   0  0  0  0  0  0
  -33.6730   18.2490  -27.5740 N   0  0  0  0  0  0
  -37.7280   16.9830  -30.2660 C   0  0  0  0  0  0
  -36.4150   16.5490  -30.3230 C   0  0  0  0  0  0
  -38.6370   16.4040  -31.1290 C   0  0  0  0  0  0
  -36.0990   15.5650  -31.2380 C   0  0  0  0  0  0
  -38.2990   15.4430  -32.0140 N   0  0  0  0  0  0
  -37.0100   15.0160  -32.0690 N   0  0  0  0  0  0
  -41.7640   18.2880  -30.3760 C   0  0  0  0  0  0
  -42.7010   17.5840  -31.1330 C   0  0  0  0  0  0
  -40.4260   17.8940  -30.3800 C   0  0  0  0  0  0
  -42.2990   16.4860  -31.8940 C   0  0  0  0  0  0
  -40.0250   16.7960  -31.1400 C   0  0  0  0  0  0
  -40.9610   16.0910  -31.8970 C   0  0  0  0  0  0
  -40.5960   15.0140  -32.6480 O   0  0  0  0  0  0
  -40.9360   14.1640  -32.4440 H   0  0  0  0  0  0
  -34.7630   15.1040  -31.3130 N   0  0  0  0  0  0
  -34.5790   14.1510  -31.4770 H   0  0  0  0  0  0
  -34.0170   15.7370  -31.2000 H   0  0  0  0  0  0
  -30.9370   11.9760  -25.5000 C   0  0  0  0  0  0
  -29.7530   12.3260  -27.6570 C   0  0  0  0  0  0
  -30.2710   11.4900  -26.6870 N   0  0  0  0  0  0
  -29.7810   13.5510  -27.6530 O   0  0  0  0  0  0
  -30.1830   10.5170  -26.8100 H   0  0  0  0  0  0
  -29.9130   12.8040  -30.8330 C   0  0  0  0  0  0
  -27.6950   11.1790  -28.3940 C   0  0  0  0  0  0
  -27.4830   12.8390  -30.1030 C   0  0  0  0  0  0
  -29.0960   11.5970  -28.8140 C   0  0  2  0  0  0
  -26.8270   12.3650  -28.8140 C   0  0  2  0  0  0
  -28.8870   12.4630  -29.9690 N   0  0  2  0  0  0
  -31.0870   12.4640  -30.6790 O   0  0  0  0  0  0
  -25.4890   11.9690  -29.0410 O   0  0  0  0  0  0
  -25.3250   11.1180  -28.6060 H   0  0  0  0  0  0
  -29.5140   13.6520  -32.0140 C   0  0  1  0  0  0
  -29.5140   12.6400  -34.2850 C   0  0  0  0  0  0
  -30.1910   13.0840  -33.1750 N   0  0  0  0  0  0
  -28.3010   12.6530  -34.4620 O   0  0  0  0  0  0
  -31.1740   13.0150  -33.1620 H   0  0  0  0  0  0
  -29.8400   11.1520  -36.3530 C   0  0  0  0  0  0
  -30.2110   12.5480  -36.7560 C   0  0  0  0  0  0
  -30.4070   12.0950  -35.3500 C   0  0  0  0  0  0
  -31.7050   11.8690  -34.9390 F   0  0  0  0  0  0
  -29.4370   15.6420  -30.3700 C   0  0  0  0  0  0
  -31.3030   15.4490  -32.0260 C   0  0  0  0  0  0
  -28.9980   15.9980  -32.8060 C   0  0  0  0  0  0
  -29.8060   15.1640  -31.7880 C   0  0  0  0  0  0
  1  4  1  0  0  0
  1  2  2  0  0  0
  2  5  1  0  0  0
  3  4  2  0  0  0
  3  6  1  0  0  0
  4  8  1  0  0  0
  5  6  2  0  0  0
  5 45  1  0  0  0
  6 13  1  0  0  0
  7 11  2  0  0  0
  7 12  1  0  0  0
  8 12  1  0  0  0
  8  9  2  0  0  0
  9 10  1  0  0  0
  9 11  1  0  0  0
 13 14  1  0  0  0
 14 15  1  0  0  0
 15 16  1  0  0  0
 16 17  1  0  0  0
 17 18  1  0  0  0
 18 19  1  0  0  0
 19 20  1  0  0  0
 20 21  1  0  0  0
 21 27  1  0  0  0
 22 24  1  0  0  0
 22 26  1  0  0  0
 23 25  1  0  0  0
 23 26  1  0  0  0
 24 27  1  0  0  0
 25 27  1  0  0  0
 26 29  1  0  0  0
 28 29  1  0  0  0
 28 30  2  0  0  0
 29 31  2  0  0  0
 30 32  1  0  0  0
 30 38  1  0  0  0
 31 33  1  0  0  0
 31 42  1  0  0  0
 32 33  2  0  0  0
 34 35  2  0  0  0
 34 36  1  0  0  0
 35 37  1  0  0  0
 36 38  2  0  0  0
 37 39  2  0  0  0
 38 39  1  0  0  0
 39 40  1  0  0  0
 40 41  1  0  0  0
 42 44  1  0  0  0
 42 43  1  0  0  0
 45 47  1  0  0  0
 46 48  2  0  0  0
 46 47  1  0  0  0
 46 53  1  0  0  0
 47 49  1  0  0  0
 50 56  2  0  0  0
 50 55  1  0  0  0
 50 59  1  0  0  0
 51 53  1  0  0  0
 51 54  1  0  0  0
 52 55  1  0  0  0
 52 54  1  0  0  0
 53 55  1  0  0  0
 54 57  1  0  0  0
 57 58  1  0  0  0
 59 71  1  0  0  0
 59 61  1  0  0  0
 60 61  1  0  0  0
 60 62  2  0  0  0
 60 66  1  0  0  0
 61 63  1  0  0  0
 64 66  1  0  0  0
 64 65  1  0  0  0
 65 66  1  0  0  0
 66 67  1  0  0  0
 68 71  1  0  0  0
 69 71  1  0  0  0
 70 71  1  0  0  0
M  END
> <s_m_entry_id>
1

> <s_m_entry_name>
0000_ADV_out_mae.1

> <MODEL>
1

> <REMARK>
 VINA RESULT:   -10.742      0.000      0.000
 INTER + INTRA:         -28.483
 INTER:                 -26.469
 INTRA:                  -2.015
 UNBOUND:                -4.240
  Name = 
  27 active torsions:
  status: ('A' for Active; 'I' for Inactive)
    1  A    between atoms: C_10  and  C_17
    2  A    between atoms: C_11  and  C_16
    3  A    between atoms: C_12  and  C_38
    4  A    between atoms: C_13  and  N_50
    5  A    between atoms: C_14  and  O_59
    6  A    between atoms: C_15  and  O_61
    7  A    between atoms: C_18  and  C_34
    8  A    between atoms: C_19  and  N_52
    9  A    between atoms: C_20  and  C_31
   10  A    between atoms: C_21  and  C_33
   11  A    between atoms: C_22  and  C_45
   12  A    between atoms: C_32  and  O_60
   13  A    between atoms: C_35  and  C_46
   14  A    between atoms: C_36  and  C_46
   15  A    between atoms: C_37  and  C_46
   16  A    between atoms: C_38  and  N_53
   17  A    between atoms: C_39  and  C_40
   18  A    between atoms: C_39  and  N_55
   19  A    between atoms: C_40  and  O_62
   20  A    between atoms: C_41  and  C_42
   21  A    between atoms: C_41  and  O_61
   22  A    between atoms: C_42  and  O_63
   23  A    between atoms: C_43  and  C_44
   24  A    between atoms: C_43  and  O_62
   25  A    between atoms: C_44  and  O_63
   26  A    between atoms: C_45  and  C_46
   27  A    between atoms: C_45  and  N_54
                            x       y       z     vdW  Elec       q    Type
                         _______ _______ _______ _____ _____    ______ ____

> <TORSDO>
F 23

> <chiral flag>
1

> <version>
0

> <chiral flag>
1

> <s_m_Source_Path>
/data/baiqing/PycharmProjects/DockStream-master/result/6HAY

> <s_m_Source_File>
0000_ADV_out_mae.sdf

> <i_m_Source_File_Index>
1

> <s_m_subgroup_title>
0000_ADV_out_mae

> <s_m_subgroupid>
0000_ADV_out_mae

> <b_m_subgroup_collapsed>
0

$$$$
