ligand
                    3D
 Structure written by MMmdl.
125131  0  0  1  0            999 V2000
   -0.1809    1.6189   -6.0353 N   0  0  0  0  0  0
   -0.8517   -0.0073   -4.2937 C   0  0  0  0  0  0
    2.7209    1.3702   -5.3384 C   0  0  0  0  0  0
    2.1409   -0.2251   -3.5073 C   0  0  0  0  0  0
    1.3201    2.1564   -3.4172 C   0  0  0  0  0  0
   -2.0988   -1.9870   -3.3461 C   0  0  1  0  0  0
   -0.3703   -2.3838   -4.9658 C   0  0  0  0  0  0
   -1.8882   -1.6717   -1.8518 C   0  0  0  0  0  0
   -0.7289    1.3335    0.0573 C   0  0  0  0  0  0
   -0.2448    2.6507   -0.0292 C   0  0  0  0  0  0
   -1.1106    3.7298   -0.2253 C   0  0  0  0  0  0
   -2.9799    2.1969   -0.2229 C   0  0  0  0  0  0
   -1.0127    6.3223    0.2369 C   0  0  0  0  0  0
    0.6625    7.1137   -0.9116 C   0  0  0  0  0  0
    0.3120    0.5318   -5.1771 C   0  0  2  0  0  0
    1.5943    0.9520   -4.3577 C   0  0  0  0  0  0
   -1.0519   -1.3493   -4.1771 N   0  0  0  0  0  0
   -1.5504    0.8240   -3.7087 O   0  0  0  0  0  0
   -2.0651   -3.4873   -3.6686 C   0  0  0  0  0  0
   -0.6605   -3.6849   -4.2181 C   0  0  1  0  0  0
   -0.5486   -4.8267   -5.0408 O   0  0  0  0  0  0
   -0.8851   -2.0976   -1.2797 O   0  0  0  0  0  0
   -2.8326   -0.9112   -1.2769 N   0  0  0  0  0  0
   -2.7044   -0.2920    0.0399 C   0  0  0  0  0  0
   -2.1131    1.1136   -0.0486 C   0  0  0  0  0  0
   -2.4827    3.4938   -0.3154 C   0  0  0  0  0  0
   -0.5801    5.1171   -0.3348 C   0  0  0  0  0  0
   -0.3182    7.3962   -0.0959 N   0  0  0  0  0  0
    0.8050    5.4477   -1.3456 S   0  0  0  0  0  0
   -2.1633    6.5557    1.1933 C   0  0  0  0  0  0
   -1.0340    1.4833   -7.0669 C   0  0  0  0  0  0
   -1.4353    2.7797   -7.8000 C   0  0  0  0  0  0
   -1.4798    0.3898   -7.4231 O   0  0  0  0  0  0
   -0.8338    3.8974   -7.3841 F   0  0  0  0  0  0
   -1.7670    2.6809   -9.2751 C   0  0  0  0  0  0
   -2.8720    2.8995   -8.2633 C   0  0  0  0  0  0
    0.0907    0.2323    0.2310 O   0  0  0  0  0  0
    1.5058    0.3939    0.1896 C   0  0  0  0  0  0
    3.5655   -0.8825   -0.1058 O   0  0  0  0  0  0
    4.3995   -0.5309    0.9913 C   0  0  0  0  0  0
    5.8130   -0.2356    0.4775 C   0  0  0  0  0  0
    6.6489    0.0728    1.5838 O   0  0  0  0  0  0
    2.1817   -0.9866    0.2100 C   0  0  0  0  0  0
    7.9435    0.5320    1.2188 C   0  0  0  0  0  0
    8.8240    0.7466    2.4676 C   0  0  0  0  0  0
    9.3502   -0.4889    3.0633 N   0  0  0  0  0  0
   10.3201   -0.1497    4.1132 C   0  0  0  0  0  0
   10.9299   -1.4334    4.7241 C   0  0  0  0  0  0
    9.8894   -2.2658    5.3493 N   0  0  0  0  0  0
    8.9593   -2.6203    4.2633 C   0  0  0  0  0  0
    8.3146   -1.3558    3.6444 C   0  0  0  0  0  0
   10.3188   -3.2209    6.2683 C   0  0  0  0  0  0
   10.4003   -4.5790    5.9281 C   0  0  0  0  0  0
   10.8580   -5.4987    6.8762 C   0  0  0  0  0  0
   11.2314   -5.0960    8.1213 N   0  0  0  0  0  0
   11.1524   -3.8021    8.4678 N   0  0  0  0  0  0
   10.7104   -2.8761    7.5776 C   0  0  0  0  0  0
   10.6551   -1.5619    8.0502 N   0  0  0  0  0  0
   10.9985   -6.9543    6.5771 C   0  0  0  0  0  0
    9.9710   -7.6977    5.9624 C   0  0  0  0  0  0
   10.1506   -9.0530    5.6764 C   0  0  0  0  0  0
   11.3474   -9.6881    5.9991 C   0  0  0  0  0  0
   12.3690   -8.9695    6.6138 C   0  0  0  0  0  0
   12.1932   -7.6166    6.9004 C   0  0  0  0  0  0
    8.7622   -7.1288    5.6480 O   0  0  0  0  0  0
    0.1451    2.5433   -5.7935 H   0  0  0  0  0  0
    2.4477    2.2468   -5.9272 H   0  0  0  0  0  0
    3.6423    1.6202   -4.8099 H   0  0  0  0  0  0
    2.9596    0.5689   -6.0391 H   0  0  0  0  0  0
    1.4146   -0.5739   -2.7729 H   0  0  0  0  0  0
    2.4146   -1.0782   -4.1283 H   0  0  0  0  0  0
    3.0339    0.0630   -2.9506 H   0  0  0  0  0  0
    0.5836    1.9147   -2.6523 H   0  0  0  0  0  0
    2.2235    2.4702   -2.8922 H   0  0  0  0  0  0
    0.9496    3.0252   -3.9619 H   0  0  0  0  0  0
   -3.0929   -1.6252   -3.6138 H   0  0  0  0  0  0
    0.7019   -2.2208   -5.0674 H   0  0  0  0  0  0
   -0.8045   -2.4046   -5.9667 H   0  0  0  0  0  0
    0.8125    2.8526    0.0502 H   0  0  0  0  0  0
   -4.0452    2.0349   -0.3017 H   0  0  0  0  0  0
    1.3461    7.8551   -1.2983 H   0  0  0  0  0  0
    0.6220   -0.2454   -5.8746 H   0  0  0  0  0  0
   -2.8201   -3.6847   -4.4317 H   0  0  0  0  0  0
   -2.2833   -4.1120   -2.8009 H   0  0  0  0  0  0
    0.0423   -3.7747   -3.3872 H   0  0  0  0  0  0
   -1.1767   -4.7455   -5.7622 H   0  0  0  0  0  0
   -3.6016   -0.5911   -1.8477 H   0  0  0  0  0  0
   -2.1078   -0.9051    0.7190 H   0  0  0  0  0  0
   -3.6980   -0.2403    0.4874 H   0  0  0  0  0  0
   -3.1696    4.3137   -0.4672 H   0  0  0  0  0  0
   -2.5653    5.6246    1.5918 H   0  0  0  0  0  0
   -1.8651    7.1551    2.0543 H   0  0  0  0  0  0
   -2.9890    7.0771    0.7085 H   0  0  0  0  0  0
   -1.7122    1.7171   -9.7835 H   0  0  0  0  0  0
   -1.4802    3.5063   -9.9272 H   0  0  0  0  0  0
   -3.3523    3.8769   -8.2097 H   0  0  0  0  0  0
   -3.5734    2.0856   -8.0738 H   0  0  0  0  0  0
    1.8451    1.0000    1.0303 H   0  0  0  0  0  0
    1.7977    0.9128   -0.7245 H   0  0  0  0  0  0
    4.4254   -1.3487    1.7136 H   0  0  0  0  0  0
    4.0189    0.3468    1.5159 H   0  0  0  0  0  0
    5.7771    0.5964   -0.2287 H   0  0  0  0  0  0
    6.2073   -1.0994   -0.0607 H   0  0  0  0  0  0
    1.7297   -1.6156   -0.5571 H   0  0  0  0  0  0
    2.0104   -1.5020    1.1571 H   0  0  0  0  0  0
    7.8298    1.4871    0.7028 H   0  0  0  0  0  0
    8.4307   -0.1530    0.5216 H   0  0  0  0  0  0
    8.2829    1.3335    3.2120 H   0  0  0  0  0  0
    9.6757    1.3548    2.1582 H   0  0  0  0  0  0
    9.8236    0.4326    4.8928 H   0  0  0  0  0  0
   11.1191    0.4692    3.7021 H   0  0  0  0  0  0
   11.6831   -1.1496    5.4603 H   0  0  0  0  0  0
   11.4433   -2.0136    3.9542 H   0  0  0  0  0  0
    8.1708   -3.2648    4.6543 H   0  0  0  0  0  0
    9.4892   -3.1858    3.4937 H   0  0  0  0  0  0
    7.6083   -1.6753    2.8798 H   0  0  0  0  0  0
    7.7569   -0.8034    4.4035 H   0  0  0  0  0  0
   10.1377   -4.9183    4.9367 H   0  0  0  0  0  0
   10.3192   -0.8307    7.4401 H   0  0  0  0  0  0
   10.9279   -1.3659    9.0024 H   0  0  0  0  0  0
    9.3584   -9.6183    5.2070 H   0  0  0  0  0  0
   11.4811  -10.7362    5.7754 H   0  0  0  0  0  0
   13.2980   -9.4591    6.8662 H   0  0  0  0  0  0
   13.0029   -7.0763    7.3700 H   0  0  0  0  0  0
    8.7044   -6.2079    5.9123 H   0  0  0  0  0  0
  1 15  1  0  0  0
  1 31  1  0  0  0
  1 66  1  0  0  0
  2 15  1  0  0  0
  2 17  1  0  0  0
  2 18  2  0  0  0
  3 16  1  0  0  0
  3 67  1  0  0  0
  3 68  1  0  0  0
  3 69  1  0  0  0
  4 16  1  0  0  0
  4 70  1  0  0  0
  4 71  1  0  0  0
  4 72  1  0  0  0
  5 16  1  0  0  0
  5 73  1  0  0  0
  5 74  1  0  0  0
  5 75  1  0  0  0
  6  8  1  0  0  0
  6 17  1  0  0  0
  6 19  1  0  0  0
  6 76  1  0  0  0
  7 17  1  0  0  0
  7 20  1  0  0  0
  7 77  1  0  0  0
  7 78  1  0  0  0
  8 22  2  0  0  0
  8 23  1  0  0  0
  9 10  1  0  0  0
  9 25  2  0  0  0
  9 37  1  0  0  0
 10 11  2  0  0  0
 10 79  1  0  0  0
 11 26  1  0  0  0
 11 27  1  0  0  0
 12 25  1  0  0  0
 12 26  2  0  0  0
 12 80  1  0  0  0
 13 27  2  0  0  0
 13 28  1  0  0  0
 13 30  1  0  0  0
 14 28  2  0  0  0
 14 29  1  0  0  0
 14 81  1  0  0  0
 15 16  1  0  0  0
 15 82  1  0  0  0
 19 20  1  0  0  0
 19 83  1  0  0  0
 19 84  1  0  0  0
 20 21  1  0  0  0
 20 85  1  0  0  0
 21 86  1  0  0  0
 23 24  1  0  0  0
 23 87  1  0  0  0
 24 25  1  0  0  0
 24 88  1  0  0  0
 24 89  1  0  0  0
 26 90  1  0  0  0
 27 29  1  0  0  0
 30 91  1  0  0  0
 30 92  1  0  0  0
 30 93  1  0  0  0
 31 32  1  0  0  0
 31 33  2  0  0  0
 32 34  1  0  0  0
 32 35  1  0  0  0
 32 36  1  0  0  0
 35 36  1  0  0  0
 35 94  1  0  0  0
 35 95  1  0  0  0
 36 96  1  0  0  0
 36 97  1  0  0  0
 37 38  1  0  0  0
 38 43  1  0  0  0
 38 98  1  0  0  0
 38 99  1  0  0  0
 39 40  1  0  0  0
 39 43  1  0  0  0
 40 41  1  0  0  0
 40100  1  0  0  0
 40101  1  0  0  0
 41 42  1  0  0  0
 41102  1  0  0  0
 41103  1  0  0  0
 42 44  1  0  0  0
 43104  1  0  0  0
 43105  1  0  0  0
 44 45  1  0  0  0
 44106  1  0  0  0
 44107  1  0  0  0
 45 46  1  0  0  0
 45108  1  0  0  0
 45109  1  0  0  0
 46 47  1  0  0  0
 46 51  1  0  0  0
 47 48  1  0  0  0
 47110  1  0  0  0
 47111  1  0  0  0
 48 49  1  0  0  0
 48112  1  0  0  0
 48113  1  0  0  0
 49 50  1  0  0  0
 49 52  1  0  0  0
 50 51  1  0  0  0
 50114  1  0  0  0
 50115  1  0  0  0
 51116  1  0  0  0
 51117  1  0  0  0
 52 53  1  0  0  0
 52 57  2  0  0  0
 53 54  2  0  0  0
 53118  1  0  0  0
 54 55  1  0  0  0
 54 59  1  0  0  0
 55 56  2  0  0  0
 56 57  1  0  0  0
 57 58  1  0  0  0
 58119  1  0  0  0
 58120  1  0  0  0
 59 60  1  0  0  0
 59 64  2  0  0  0
 60 61  2  0  0  0
 60 65  1  0  0  0
 61 62  1  0  0  0
 61121  1  0  0  0
 62 63  2  0  0  0
 62122  1  0  0  0
 63 64  1  0  0  0
 63123  1  0  0  0
 64124  1  0  0  0
 65125  1  0  0  0
M  END
> <s_m_entry_id>
11

> <s_m_entry_name>
6hay.1_ligand

> <s_m_source_file>
ligprep_1.maegz

> <i_m_source_file_index>
1

> <i_lp_mmshare_version>
38013

> <i_f3d_flags>
0

> <s_lp_Force_Field>
OPLS3

> <r_lp_Energy>
101.86915789508

> <b_lp_Chiralities_Consistent>
1

> <s_lp_Variant>
ligand-1

> <s_m_job_name>
ligprep_1

> <s_m_subgroup_title>
ligprep_1-out1

> <s_m_subgroupid>
ligprep_1-out1

> <b_m_subgroup_collapsed>
0

$$$$
