REMARK  Name = ligand
REMARK  27 active torsions:
REMARK  status: ('A' for Active; 'I' for Inactive)
REMARK    1  A    between atoms: N_1  and  C_15
REMARK    2  A    between atoms: C_2  and  C_15
REMARK    3  A    between atoms: C_3  and  C_16
REMARK    4  A    between atoms: C_4  and  C_16
REMARK    5  A    between atoms: C_5  and  C_16
REMARK    6  A    between atoms: C_6  and  C_8
REMARK    7  A    between atoms: C_9  and  O_37
REMARK    8  A    between atoms: C_11  and  C_27
REMARK    9  A    between atoms: C_13  and  C_30
REMARK   10  A    between atoms: C_15  and  C_16
REMARK   11  A    between atoms: C_20  and  O_21
REMARK   12  A    between atoms: N_23  and  C_24
REMARK   13  A    between atoms: C_24  and  C_25
REMARK   14  A    between atoms: C_31  and  C_32
REMARK   15  A    between atoms: O_37  and  C_38
REMARK   16  A    between atoms: C_38  and  C_43
REMARK   17  A    between atoms: O_39  and  C_40
REMARK   18  A    between atoms: O_39  and  C_43
REMARK   19  A    between atoms: C_40  and  C_41
REMARK   20  A    between atoms: C_41  and  O_42
REMARK   21  A    between atoms: O_42  and  C_44
REMARK   22  A    between atoms: C_44  and  C_45
REMARK   23  A    between atoms: C_45  and  N_46
REMARK   24  A    between atoms: N_49  and  C_52
REMARK   25  A    between atoms: C_54  and  C_59
REMARK   26  A    between atoms: C_57  and  N_58
REMARK   27  A    between atoms: C_60  and  O_65
REMARK                            x       y       z     vdW  Elec       q    Type
REMARK                         _______ _______ _______ _____ _____    ______ ____
ROOT
ATOM      1  C   UNL     1      -0.729   1.333   0.057  0.00  0.00    +0.000 A 
ATOM      2  C   UNL     1      -0.245   2.651  -0.029  0.00  0.00    +0.000 A 
ATOM      3  C   UNL     1      -1.111   3.730  -0.225  0.00  0.00    +0.000 A 
ATOM      4  C   UNL     1      -2.980   2.197  -0.223  0.00  0.00    +0.000 A 
ATOM      5  C   UNL     1      -2.113   1.114  -0.049  0.00  0.00    +0.000 A 
ATOM      6  C   UNL     1      -2.483   3.494  -0.315  0.00  0.00    +0.000 A 
ENDROOT
BRANCH   3   9
ATOM      7  C   UNL     1      -1.013   6.322   0.237  0.00  0.00    +0.000 A 
ATOM      8  C   UNL     1       0.662   7.114  -0.912  0.00  0.00    +0.000 A 
ATOM      9  C   UNL     1      -0.580   5.117  -0.335  0.00  0.00    +0.000 A 
ATOM     10  N   UNL     1      -0.318   7.396  -0.096  0.00  0.00    +0.000 NA
ATOM     11  S   UNL     1       0.805   5.448  -1.346  0.00  0.00    +0.000 S 
ATOM     12  C   UNL     1      -2.163   6.556   1.193  0.00  0.00    +0.000 C 
ENDBRANCH   3   9
BRANCH   1  13
ATOM     13  O   UNL     1       0.091   0.232   0.231  0.00  0.00    +0.000 OA
BRANCH  13  14
ATOM     14  C   UNL     1       1.506   0.394   0.190  0.00  0.00    +0.000 C 
BRANCH  14  15
ATOM     15  C   UNL     1       2.182  -0.987   0.210  0.00  0.00    +0.000 C 
BRANCH  15  16
ATOM     16  O   UNL     1       3.566  -0.882  -0.106  0.00  0.00    +0.000 OA
BRANCH  16  17
ATOM     17  C   UNL     1       4.399  -0.531   0.991  0.00  0.00    +0.000 C 
BRANCH  17  18
ATOM     18  C   UNL     1       5.813  -0.236   0.477  0.00  0.00    +0.000 C 
BRANCH  18  19
ATOM     19  O   UNL     1       6.649   0.073   1.584  0.00  0.00    +0.000 OA
BRANCH  19  20
ATOM     20  C   UNL     1       7.944   0.532   1.219  0.00  0.00    +0.000 C 
BRANCH  20  21
ATOM     21  C   UNL     1       8.824   0.747   2.468  0.00  0.00    +0.000 C 
BRANCH  21  22
ATOM     22  N   UNL     1       9.350  -0.489   3.063  0.00  0.00    +0.000 NA
ATOM     23  C   UNL     1      10.320  -0.150   4.113  0.00  0.00    +0.000 C 
ATOM     24  C   UNL     1      10.930  -1.433   4.724  0.00  0.00    +0.000 C 
ATOM     25  N   UNL     1       9.889  -2.266   5.349  0.00  0.00    +0.000 N 
ATOM     26  C   UNL     1       8.959  -2.620   4.263  0.00  0.00    +0.000 C 
ATOM     27  C   UNL     1       8.315  -1.356   3.644  0.00  0.00    +0.000 C 
BRANCH  25  28
ATOM     28  C   UNL     1      10.319  -3.221   6.268  0.00  0.00    +0.000 A 
ATOM     29  C   UNL     1      10.400  -4.579   5.928  0.00  0.00    +0.000 A 
ATOM     30  C   UNL     1      10.858  -5.499   6.876  0.00  0.00    +0.000 A 
ATOM     31  N   UNL     1      11.231  -5.096   8.121  0.00  0.00    +0.000 NA
ATOM     32  N   UNL     1      11.152  -3.802   8.468  0.00  0.00    +0.000 NA
ATOM     33  C   UNL     1      10.710  -2.876   7.578  0.00  0.00    +0.000 A 
BRANCH  30  34
ATOM     34  C   UNL     1      10.998  -6.954   6.577  0.00  0.00    +0.000 A 
ATOM     35  C   UNL     1       9.971  -7.698   5.962  0.00  0.00    +0.000 A 
ATOM     36  C   UNL     1      10.151  -9.053   5.676  0.00  0.00    +0.000 A 
ATOM     37  C   UNL     1      11.347  -9.688   5.999  0.00  0.00    +0.000 A 
ATOM     38  C   UNL     1      12.369  -8.970   6.614  0.00  0.00    +0.000 A 
ATOM     39  C   UNL     1      12.193  -7.617   6.900  0.00  0.00    +0.000 A 
BRANCH  35  40
ATOM     40  O   UNL     1       8.762  -7.129   5.648  0.00  0.00    +0.000 OA
ATOM     41  H   UNL     1       8.704  -6.208   5.912  0.00  0.00    +0.000 HD
ENDBRANCH  35  40
ENDBRANCH  30  34
BRANCH  33  42
ATOM     42  N   UNL     1      10.655  -1.562   8.050  0.00  0.00    +0.000 N 
ATOM     43  H   UNL     1      10.319  -0.831   7.440  0.00  0.00    +0.000 HD
ATOM     44  H   UNL     1      10.928  -1.366   9.002  0.00  0.00    +0.000 HD
ENDBRANCH  33  42
ENDBRANCH  25  28
ENDBRANCH  21  22
ENDBRANCH  20  21
ENDBRANCH  19  20
ENDBRANCH  18  19
ENDBRANCH  17  18
ENDBRANCH  16  17
ENDBRANCH  15  16
ENDBRANCH  14  15
ENDBRANCH  13  14
ENDBRANCH   1  13
BRANCH   5  45
ATOM     45  C   UNL     1      -2.704  -0.292   0.040  0.00  0.00    +0.000 C 
BRANCH  45  48
ATOM     46  C   UNL     1      -1.888  -1.672  -1.852  0.00  0.00    +0.000 C 
ATOM     47  O   UNL     1      -0.885  -2.098  -1.280  0.00  0.00    +0.000 OA
ATOM     48  N   UNL     1      -2.833  -0.911  -1.277  0.00  0.00    +0.000 N 
ATOM     49  H   UNL     1      -3.602  -0.591  -1.848  0.00  0.00    +0.000 HD
BRANCH  46  51
ATOM     50  C   UNL     1      -0.852  -0.007  -4.294  0.00  0.00    +0.000 C 
ATOM     51  C   UNL     1      -2.099  -1.987  -3.346  0.00  0.00    +0.000 C 
ATOM     52  C   UNL     1      -0.370  -2.384  -4.966  0.00  0.00    +0.000 C 
ATOM     53  N   UNL     1      -1.052  -1.349  -4.177  0.00  0.00    +0.000 N 
ATOM     54  O   UNL     1      -1.550   0.824  -3.709  0.00  0.00    +0.000 OA
ATOM     55  C   UNL     1      -2.065  -3.487  -3.669  0.00  0.00    +0.000 C 
ATOM     56  C   UNL     1      -0.660  -3.685  -4.218  0.00  0.00    +0.000 C 
BRANCH  56  57
ATOM     57  O   UNL     1      -0.549  -4.827  -5.041  0.00  0.00    +0.000 OA
ATOM     58  H   UNL     1      -1.177  -4.745  -5.762  0.00  0.00    +0.000 HD
ENDBRANCH  56  57
BRANCH  50  59
ATOM     59  C   UNL     1       0.312   0.532  -5.177  0.00  0.00    +0.000 C 
BRANCH  59  63
ATOM     60  C   UNL     1       2.721   1.370  -5.338  0.00  0.00    +0.000 C 
ATOM     61  C   UNL     1       2.141  -0.225  -3.507  0.00  0.00    +0.000 C 
ATOM     62  C   UNL     1       1.320   2.156  -3.417  0.00  0.00    +0.000 C 
ATOM     63  C   UNL     1       1.594   0.952  -4.358  0.00  0.00    +0.000 C 
ENDBRANCH  59  63
BRANCH  59  64
ATOM     64  N   UNL     1      -0.181   1.619  -6.035  0.00  0.00    +0.000 N 
ATOM     65  C   UNL     1      -1.034   1.483  -7.067  0.00  0.00    +0.000 C 
ATOM     66  O   UNL     1      -1.480   0.390  -7.423  0.00  0.00    +0.000 OA
ATOM     67  H   UNL     1       0.145   2.543  -5.793  0.00  0.00    +0.000 HD
BRANCH  65  68
ATOM     68  C   UNL     1      -1.435   2.780  -7.800  0.00  0.00    +0.000 C 
ATOM     69  F   UNL     1      -0.834   3.897  -7.384  0.00  0.00    +0.000 F 
ATOM     70  C   UNL     1      -1.767   2.681  -9.275  0.00  0.00    +0.000 C 
ATOM     71  C   UNL     1      -2.872   2.900  -8.263  0.00  0.00    +0.000 C 
ENDBRANCH  65  68
ENDBRANCH  59  64
ENDBRANCH  50  59
ENDBRANCH  46  51
ENDBRANCH  45  48
ENDBRANCH   5  45
TORSDOF 23
