ligand
 OpenBabel01032309583D

 71 77  0  0  1  0  0  0  0  0999 V2000
  -30.2430   11.8560  -23.1680 C   0  0  0  0  0  0  0  0  0  0  0  0
  -29.5730   11.6290  -21.9520 C   0  0  0  0  0  3  0  0  0  0  0  0
  -28.4710   10.7730  -21.8800 C   0  0  0  0  0  0  0  0  0  0  0  0
  -28.6620   10.3700  -24.2560 C   0  0  0  0  0  3  0  0  0  0  0  0
  -29.7780   11.2090  -24.3260 C   0  0  0  0  0  0  0  0  0  0  0  0
  -28.0170   10.1500  -23.0430 C   0  0  0  0  0  3  0  0  0  0  0  0
  -28.2670   10.0310  -19.3610 C   0  0  0  0  0  0  0  0  0  0  0  0
  -26.2020   10.3830  -18.7550 C   0  0  0  0  0  3  0  0  0  0  0  0
  -27.7860   10.5280  -20.5810 C   0  0  0  0  0  0  0  0  0  0  0  0
  -27.3810    9.9640  -18.3810 N   0  0  0  0  0  0  0  0  0  0  0  0
  -26.0920   10.9100  -20.3970 S   0  0  0  0  0  0  0  0  0  0  0  0
  -29.6610    9.5510  -19.0170 C   0  0  0  0  0  1  0  0  0  0  0  0
  -31.3490   12.6790  -23.2840 O   0  0  0  0  0  0  0  0  0  0  0  0
  -31.4430   13.8510  -22.4790 C   0  0  0  0  0  2  0  0  0  0  0  0
  -31.2150   15.0950  -23.3530 C   0  0  0  0  0  2  0  0  0  0  0  0
  -31.5200   14.8230  -24.7170 O   0  0  0  0  0  0  0  0  0  0  0  0
  -30.6710   15.4730  -25.6550 C   0  0  0  0  0  2  0  0  0  0  0  0
  -30.1190   16.7590  -25.0290 C   0  0  0  0  0  2  0  0  0  0  0  0
  -30.5620   17.8700  -25.7970 O   0  0  0  0  0  0  0  0  0  0  0  0
  -31.8840   18.2940  -25.4890 C   0  0  0  0  0  2  0  0  0  0  0  0
  -32.5440   18.9680  -26.7110 C   0  0  0  0  0  2  0  0  0  0  0  0
  -33.7290   18.2690  -27.2260 N   0  0  0  0  0  0  0  0  0  0  0  0
  -34.3410   19.0700  -28.2950 C   0  0  0  0  0  2  0  0  0  0  0  0
  -35.6220   18.3830  -28.8230 C   0  0  0  0  0  2  0  0  0  0  0  0
  -35.3140   17.0620  -29.3950 N   0  0  0  0  0  0  0  0  0  0  0  0
  -34.7420   16.2740  -28.2900 C   0  0  0  0  0  2  0  0  0  0  0  0
  -33.4450   16.9260  -27.7520 C   0  0  0  0  0  2  0  0  0  0  0  0
  -36.2660   16.5130  -30.2510 C   0  0  0  0  0  0  0  0  0  0  0  0
  -37.6050   16.9290  -30.2190 C   0  0  0  0  0  3  0  0  0  0  0  0
  -38.5220   16.3660  -31.1130 C   0  0  0  0  0  0  0  0  0  0  0  0
  -38.1330   15.4250  -32.0160 N   0  0  0  0  0  0  0  0  0  0  0  0
  -36.8580   15.0080  -32.0560 N   0  0  0  0  0  0  0  0  0  0  0  0
  -35.9360   15.5270  -31.2040 C   0  0  0  0  0  0  0  0  0  0  0  0
  -39.9550   16.7790  -31.1560 C   0  0  0  0  0  0  0  0  0  0  0  0
  -40.9150   16.0840  -31.9190 C   0  0  0  0  0  0  0  0  0  0  0  0
  -42.2520   16.4880  -31.9130 C   0  0  0  0  0  3  0  0  0  0  0  0
  -42.6530   17.5850  -31.1550 C   0  0  0  0  0  3  0  0  0  0  0  0
  -41.7160   18.2870  -30.4020 C   0  0  0  0  0  3  0  0  0  0  0  0
  -40.3810   17.8860  -30.4050 C   0  0  0  0  0  3  0  0  0  0  0  0
  -40.5700   15.0140  -32.7050 O   0  0  0  0  0  0  0  0  0  0  0  0
  -39.8910   14.4630  -32.3080 H   0  0  0  0  0  0  0  0  0  0  0  0
  -34.6440   15.0110  -31.3240 N   0  0  0  0  0  0  0  0  0  0  0  0
  -34.5180   14.0160  -31.4440 H   0  0  0  0  0  0  0  0  0  0  0  0
  -33.8550   15.6410  -31.3140 H   0  0  0  0  0  0  0  0  0  0  0  0
  -30.4580   11.4150  -25.6780 C   0  0  0  0  0  2  0  0  0  0  0  0
  -29.2480   11.9050  -27.7870 C   0  0  0  0  0  0  0  0  0  0  0  0
  -29.4930   13.1110  -27.8010 O   0  0  0  0  0  0  0  0  0  0  0  0
  -29.5740   11.0690  -26.7880 N   0  0  0  0  0  0  0  0  0  0  0  0
  -29.3510   10.0890  -26.8930 H   0  0  0  0  0  0  0  0  0  0  0  0
  -29.5600   12.7110  -30.7970 C   0  0  0  0  0  0  0  0  0  0  0  0
  -28.5440   11.2610  -28.9970 C   0  0  1  0  0  3  0  0  0  0  0  0
  -27.0790   12.3780  -30.5400 C   0  0  0  0  0  2  0  0  0  0  0  0
  -28.4820   12.2030  -30.1390 N   0  0  0  0  0  0  0  0  0  0  0  0
  -30.7200   12.4180  -30.5000 O   0  0  0  0  0  0  0  0  0  0  0  0
  -27.1010   10.8240  -28.7080 C   0  0  0  0  0  2  0  0  0  0  0  0
  -26.2760   11.9500  -29.3110 C   0  0  1  0  0  3  0  0  0  0  0  0
  -24.9580   11.5560  -29.6280 O   0  0  0  0  0  0  0  0  0  0  0  0
  -24.9230   11.3290  -30.5600 H   0  0  0  0  0  0  0  0  0  0  0  0
  -29.3550   13.7230  -31.9630 C   0  0  2  0  0  3  0  0  0  0  0  0
  -29.0610   16.1780  -32.6100 C   0  0  0  0  0  1  0  0  0  0  0  0
  -29.1680   15.5960  -30.1840 C   0  0  0  0  0  1  0  0  0  0  0  0
  -31.2440   15.4710  -31.6080 C   0  0  0  0  0  1  0  0  0  0  0  0
  -29.7130   15.2130  -31.5860 C   0  0  0  0  0  0  0  0  0  0  0  0
  -30.0810   13.2600  -33.1530 N   0  0  0  0  0  0  0  0  0  0  0  0
  -29.5310   12.6830  -34.2380 C   0  0  0  0  0  0  0  0  0  0  0  0
  -28.3160   12.5060  -34.3540 O   0  0  0  0  0  0  0  0  0  0  0  0
  -31.0840   13.3730  -33.1200 H   0  0  0  0  0  0  0  0  0  0  0  0
  -30.5050   12.2480  -35.3520 C   0  0  0  0  0  0  0  0  0  0  0  0
  -31.7760   12.0740  -34.9820 F   0  0  0  0  0  0  0  0  0  0  0  0
  -30.2570   12.7760  -36.7500 C   0  0  0  0  0  2  0  0  0  0  0  0
  -29.9660   11.3260  -36.4250 C   0  0  0  0  0  2  0  0  0  0  0  0
  1  2  1  0  0  0  0
  2  3  2  0  0  0  0
  3  9  1  0  0  0  0
  4  6  2  0  0  0  0
  5  4  1  0  0  0  0
  5  1  2  0  0  0  0
  6  3  1  0  0  0  0
  7 12  1  0  0  0  0
  7 10  1  0  0  0  0
  8 10  2  0  0  0  0
  9 11  1  0  0  0  0
  9  7  2  0  0  0  0
 11  8  1  0  0  0  0
 13  1  1  0  0  0  0
 13 14  1  0  0  0  0
 15 14  1  0  0  0  0
 16 15  1  0  0  0  0
 17 18  1  0  0  0  0
 17 16  1  0  0  0  0
 19 20  1  0  0  0  0
 19 18  1  0  0  0  0
 21 20  1  0  0  0  0
 22 21  1  0  0  0  0
 23 22  1  0  0  0  0
 24 23  1  0  0  0  0
 25 24  1  0  0  0  0
 25 26  1  0  0  0  0
 26 27  1  0  0  0  0
 27 22  1  0  0  0  0
 28 29  1  0  0  0  0
 28 25  1  0  0  0  0
 30 29  2  0  0  0  0
 31 30  1  0  0  0  0
 32 31  2  0  0  0  0
 32 33  1  0  0  0  0
 33 28  2  0  0  0  0
 34 30  1  0  0  0  0
 34 39  1  0  0  0  0
 35 36  1  0  0  0  0
 35 34  2  0  0  0  0
 36 37  2  0  0  0  0
 37 38  1  0  0  0  0
 39 38  2  0  0  0  0
 40 41  1  0  0  0  0
 40 35  1  0  0  0  0
 42 44  1  0  0  0  0
 42 33  1  0  0  0  0
 43 42  1  0  0  0  0
 45  5  1  0  0  0  0
 46 48  1  0  0  0  0
 47 46  2  0  0  0  0
 48 45  1  0  0  0  0
 49 48  1  0  0  0  0
 50 54  2  0  0  0  0
 50 53  1  0  0  0  0
 51 55  1  0  0  0  0
 51 46  1  1  0  0  0
 52 53  1  0  0  0  0
 52 56  1  0  0  0  0
 53 51  1  0  0  0  0
 56 57  1  6  0  0  0
 56 55  1  0  0  0  0
 58 57  1  0  0  0  0
 59 63  1  0  0  0  0
 59 50  1  1  0  0  0
 60 63  1  0  0  0  0
 62 63  1  0  0  0  0
 63 61  1  0  0  0  0
 64 67  1  0  0  0  0
 64 59  1  0  0  0  0
 65 64  1  0  0  0  0
 66 65  2  0  0  0  0
 68 69  1  0  0  0  0
 68 65  1  0  0  0  0
 70 71  1  0  0  0  0
 70 68  1  0  0  0  0
 71 68  1  0  0  0  0
M  END
>  <MODEL>
1

>  <REMARK>
 VINA RESULT:   -11.810      0.000      0.000
 INTER + INTRA:         -30.857
 INTER:                 -28.001
 INTRA:                  -2.856
 UNBOUND:                -4.204
  Name = ligand
  27 active torsions:
  status: ('A' for Active; 'I' for Inactive)
    1  A    between atoms: N_1  and  C_15
    2  A    between atoms: C_2  and  C_15
    3  A    between atoms: C_3  and  C_16
    4  A    between atoms: C_4  and  C_16
    5  A    between atoms: C_5  and  C_16
    6  A    between atoms: C_6  and  C_8
    7  A    between atoms: C_9  and  O_37
    8  A    between atoms: C_11  and  C_27
    9  A    between atoms: C_13  and  C_30
   10  A    between atoms: C_15  and  C_16
   11  A    between atoms: C_20  and  O_21
   12  A    between atoms: N_23  and  C_24
   13  A    between atoms: C_24  and  C_25
   14  A    between atoms: C_31  and  C_32
   15  A    between atoms: O_37  and  C_38
   16  A    between atoms: C_38  and  C_43
   17  A    between atoms: O_39  and  C_40
   18  A    between atoms: O_39  and  C_43
   19  A    between atoms: C_40  and  C_41
   20  A    between atoms: C_41  and  O_42
   21  A    between atoms: O_42  and  C_44
   22  A    between atoms: C_44  and  C_45
   23  A    between atoms: C_45  and  N_46
   24  A    between atoms: N_49  and  C_52
   25  A    between atoms: C_54  and  C_59
   26  A    between atoms: C_57  and  N_58
   27  A    between atoms: C_60  and  O_65
                            x       y       z     vdW  Elec       q    Type
                         _______ _______ _______ _____ _____    ______ ____

>  <TORSDO>
F 23

$$$$
ligand
 OpenBabel01032309583D

 71 77  0  0  1  0  0  0  0  0999 V2000
  -32.4220   10.4630  -24.2590 C   0  0  0  0  0  0  0  0  0  0  0  0
  -32.7000    9.3550  -23.4380 C   0  0  0  0  0  3  0  0  0  0  0  0
  -31.7360    8.3720  -23.1980 C   0  0  0  0  0  0  0  0  0  0  0  0
  -30.1750    9.6010  -24.5750 C   0  0  0  0  0  3  0  0  0  0  0  0
  -31.1450   10.5750  -24.8340 C   0  0  0  0  0  0  0  0  0  0  0  0
  -30.4700    8.5060  -23.7670 C   0  0  0  0  0  3  0  0  0  0  0  0
  -32.2400    5.8420  -22.6630 C   0  0  0  0  0  0  0  0  0  0  0  0
  -32.6050    5.7010  -20.5190 C   0  0  0  0  0  3  0  0  0  0  0  0
  -32.0530    7.1940  -22.3430 C   0  0  0  0  0  0  0  0  0  0  0  0
  -32.5420    5.0500  -21.6490 N   0  0  0  0  0  0  0  0  0  0  0  0
  -32.2880    7.3960  -20.6240 S   0  0  0  0  0  0  0  0  0  0  0  0
  -32.1330    5.1650  -24.0130 C   0  0  0  0  0  1  0  0  0  0  0  0
  -33.3500   11.4510  -24.5410 O   0  0  0  0  0  0  0  0  0  0  0  0
  -34.4240   11.6880  -23.6360 C   0  0  0  0  0  2  0  0  0  0  0  0
  -35.7200   11.0910  -24.2080 C   0  0  0  0  0  2  0  0  0  0  0  0
  -36.8320   11.3890  -23.3700 O   0  0  0  0  0  0  0  0  0  0  0  0
  -37.5150   12.5910  -23.6980 C   0  0  0  0  0  2  0  0  0  0  0  0
  -38.6540   12.8140  -22.6960 C   0  0  0  0  0  2  0  0  0  0  0  0
  -38.6080   14.1600  -22.2400 O   0  0  0  0  0  0  0  0  0  0  0  0
  -37.3240   14.5740  -21.7930 C   0  0  0  0  0  2  0  0  0  0  0  0
  -36.9420   13.8600  -20.4790 C   0  0  0  0  0  2  0  0  0  0  0  0
  -35.7040   13.0730  -20.5510 N   0  0  0  0  0  0  0  0  0  0  0  0
  -34.6380   13.7710  -19.8190 C   0  0  0  0  0  2  0  0  0  0  0  0
  -33.3070   12.9900  -19.9200 C   0  0  0  0  0  2  0  0  0  0  0  0
  -33.4360   11.6500  -19.3240 N   0  0  0  0  0  0  0  0  0  0  0  0
  -34.4800   10.9660  -20.1060 C   0  0  0  0  0  2  0  0  0  0  0  0
  -35.8320   11.7130  -20.0070 C   0  0  0  0  0  2  0  0  0  0  0  0
  -32.2510   11.0000  -18.9820 C   0  0  0  0  0  0  0  0  0  0  0  0
  -31.0950   11.1260  -19.7670 C   0  0  0  0  0  3  0  0  0  0  0  0
  -29.9230   10.4740  -19.3730 C   0  0  0  0  0  0  0  0  0  0  0  0
  -29.8850    9.7230  -18.2390 N   0  0  0  0  0  0  0  0  0  0  0  0
  -30.9830    9.5840  -17.4800 N   0  0  0  0  0  0  0  0  0  0  0  0
  -32.1440   10.1980  -17.8280 C   0  0  0  0  0  0  0  0  0  0  0  0
  -28.6490   10.5850  -20.1410 C   0  0  0  0  0  0  0  0  0  0  0  0
  -27.3890   10.6160  -19.5090 C   0  0  0  0  0  0  0  0  0  0  0  0
  -26.2180   10.6960  -20.2650 C   0  0  0  0  0  3  0  0  0  0  0  0
  -26.2800   10.7500  -21.6550 C   0  0  0  0  0  3  0  0  0  0  0  0
  -27.5150   10.7280  -22.2950 C   0  0  0  0  0  3  0  0  0  0  0  0
  -28.6870   10.6480  -21.5430 C   0  0  0  0  0  3  0  0  0  0  0  0
  -27.2720   10.5940  -18.1410 O   0  0  0  0  0  0  0  0  0  0  0  0
  -27.8080    9.9110  -17.7320 H   0  0  0  0  0  0  0  0  0  0  0  0
  -33.2270    9.9730  -16.9740 N   0  0  0  0  0  0  0  0  0  0  0  0
  -33.4350    9.0300  -16.6780 H   0  0  0  0  0  0  0  0  0  0  0  0
  -33.7700   10.7580  -16.6450 H   0  0  0  0  0  0  0  0  0  0  0  0
  -30.7780   11.7550  -25.7320 C   0  0  0  0  0  2  0  0  0  0  0  0
  -29.4820   12.1610  -27.8070 C   0  0  0  0  0  0  0  0  0  0  0  0
  -29.7180   13.3670  -27.8750 O   0  0  0  0  0  0  0  0  0  0  0  0
  -29.8530   11.3630  -26.7930 N   0  0  0  0  0  0  0  0  0  0  0  0
  -29.6320   10.3800  -26.8530 H   0  0  0  0  0  0  0  0  0  0  0  0
  -29.6800   12.8480  -30.8560 C   0  0  0  0  0  0  0  0  0  0  0  0
  -28.7340   11.4700  -28.9640 C   0  0  1  0  0  3  0  0  0  0  0  0
  -27.2110   12.5230  -30.4930 C   0  0  0  0  0  2  0  0  0  0  0  0
  -28.6280   12.3650  -30.1390 N   0  0  0  0  0  0  0  0  0  0  0  0
  -30.8510   12.5680  -30.5910 O   0  0  0  0  0  0  0  0  0  0  0  0
  -27.3050   11.0420  -28.6040 C   0  0  0  0  0  2  0  0  0  0  0  0
  -26.4550   12.1440  -29.2200 C   0  0  1  0  0  3  0  0  0  0  0  0
  -25.1270   11.7360  -29.4710 O   0  0  0  0  0  0  0  0  0  0  0  0
  -25.0500   11.5040  -30.3990 H   0  0  0  0  0  0  0  0  0  0  0  0
  -29.4290   13.8130  -32.0520 C   0  0  2  0  0  3  0  0  0  0  0  0
  -29.0090   16.2350  -32.7510 C   0  0  0  0  0  1  0  0  0  0  0  0
  -29.2310   15.7260  -30.3170 C   0  0  0  0  0  1  0  0  0  0  0  0
  -31.2560   15.6460  -31.8150 C   0  0  0  0  0  1  0  0  0  0  0  0
  -29.7390   15.3260  -31.7280 C   0  0  0  0  0  0  0  0  0  0  0  0
  -30.1600   13.3360  -33.2340 N   0  0  0  0  0  0  0  0  0  0  0  0
  -29.6210   12.7020  -34.2920 C   0  0  0  0  0  0  0  0  0  0  0  0
  -28.4130   12.4760  -34.3870 O   0  0  0  0  0  0  0  0  0  0  0  0
  -31.1580   13.4880  -33.2170 H   0  0  0  0  0  0  0  0  0  0  0  0
  -30.6000   12.2650  -35.4010 C   0  0  0  0  0  0  0  0  0  0  0  0
  -31.8750   12.1200  -35.0330 F   0  0  0  0  0  0  0  0  0  0  0  0
  -30.3390   12.7650  -36.8070 C   0  0  0  0  0  2  0  0  0  0  0  0
  -30.0730   11.3160  -36.4570 C   0  0  0  0  0  2  0  0  0  0  0  0
  1  2  1  0  0  0  0
  2  3  2  0  0  0  0
  3  9  1  0  0  0  0
  4  6  2  0  0  0  0
  5  4  1  0  0  0  0
  5  1  2  0  0  0  0
  6  3  1  0  0  0  0
  7  9  2  0  0  0  0
  7 10  1  0  0  0  0
  9 11  1  0  0  0  0
 10  8  2  0  0  0  0
 11  8  1  0  0  0  0
 12  7  1  0  0  0  0
 13  1  1  0  0  0  0
 13 14  1  0  0  0  0
 15 14  1  0  0  0  0
 15 16  1  0  0  0  0
 17 16  1  0  0  0  0
 17 18  1  0  0  0  0
 18 19  1  0  0  0  0
 19 20  1  0  0  0  0
 20 21  1  0  0  0  0
 22 21  1  0  0  0  0
 22 27  1  0  0  0  0
 22 23  1  0  0  0  0
 24 23  1  0  0  0  0
 24 25  1  0  0  0  0
 25 28  1  0  0  0  0
 26 27  1  0  0  0  0
 26 25  1  0  0  0  0
 28 33  1  0  0  0  0
 29 30  1  0  0  0  0
 29 28  2  0  0  0  0
 30 31  2  0  0  0  0
 31 32  1  0  0  0  0
 33 32  2  0  0  0  0
 33 42  1  0  0  0  0
 34 35  1  0  0  0  0
 34 30  1  0  0  0  0
 35 40  1  0  0  0  0
 36 35  2  0  0  0  0
 37 36  1  0  0  0  0
 38 37  2  0  0  0  0
 38 39  1  0  0  0  0
 39 34  2  0  0  0  0
 40 41  1  0  0  0  0
 42 43  1  0  0  0  0
 42 44  1  0  0  0  0
 45  5  1  0  0  0  0
 46 48  1  0  0  0  0
 47 46  2  0  0  0  0
 48 45  1  0  0  0  0
 49 48  1  0  0  0  0
 50 54  2  0  0  0  0
 50 53  1  0  0  0  0
 51 55  1  0  0  0  0
 51 46  1  1  0  0  0
 52 53  1  0  0  0  0
 52 56  1  0  0  0  0
 53 51  1  0  0  0  0
 56 57  1  6  0  0  0
 56 55  1  0  0  0  0
 58 57  1  0  0  0  0
 59 63  1  0  0  0  0
 59 50  1  1  0  0  0
 60 63  1  0  0  0  0
 62 63  1  0  0  0  0
 63 61  1  0  0  0  0
 64 67  1  0  0  0  0
 64 59  1  0  0  0  0
 65 64  1  0  0  0  0
 66 65  2  0  0  0  0
 68 69  1  0  0  0  0
 68 65  1  0  0  0  0
 70 71  1  0  0  0  0
 70 68  1  0  0  0  0
 71 68  1  0  0  0  0
M  END
>  <MODEL>
2

>  <REMARK>
 VINA RESULT:   -11.043      4.731      9.262
 INTER + INTRA:         -29.126
 INTER:                 -24.923
 INTRA:                  -4.204
 UNBOUND:                -4.204
  Name = ligand
  27 active torsions:
  status: ('A' for Active; 'I' for Inactive)
    1  A    between atoms: N_1  and  C_15
    2  A    between atoms: C_2  and  C_15
    3  A    between atoms: C_3  and  C_16
    4  A    between atoms: C_4  and  C_16
    5  A    between atoms: C_5  and  C_16
    6  A    between atoms: C_6  and  C_8
    7  A    between atoms: C_9  and  O_37
    8  A    between atoms: C_11  and  C_27
    9  A    between atoms: C_13  and  C_30
   10  A    between atoms: C_15  and  C_16
   11  A    between atoms: C_20  and  O_21
   12  A    between atoms: N_23  and  C_24
   13  A    between atoms: C_24  and  C_25
   14  A    between atoms: C_31  and  C_32
   15  A    between atoms: O_37  and  C_38
   16  A    between atoms: C_38  and  C_43
   17  A    between atoms: O_39  and  C_40
   18  A    between atoms: O_39  and  C_43
   19  A    between atoms: C_40  and  C_41
   20  A    between atoms: C_41  and  O_42
   21  A    between atoms: O_42  and  C_44
   22  A    between atoms: C_44  and  C_45
   23  A    between atoms: C_45  and  N_46
   24  A    between atoms: N_49  and  C_52
   25  A    between atoms: C_54  and  C_59
   26  A    between atoms: C_57  and  N_58
   27  A    between atoms: C_60  and  O_65
                            x       y       z     vdW  Elec       q    Type
                         _______ _______ _______ _____ _____    ______ ____

>  <TORSDO>
F 23

$$$$
