ligand
                    3D
 Structure written by MMmdl.
125131  0  0  1  0            999 V2000
  -29.3292   10.5202  -22.3501 N   0  0  0  0  0  0
  -30.3764   11.7162  -24.2308 C   0  0  0  0  0  0
  -32.2752   10.1326  -22.1354 C   0  0  0  0  0  0
  -32.3401    9.4457  -24.5428 C   0  0  0  0  0  0
  -31.0571    8.0739  -22.8908 C   0  0  0  0  0  0
  -30.6472   13.0459  -26.3942 C   0  0  1  0  0  0
  -29.5755   10.9121  -26.4686 C   0  0  0  0  0  0
  -31.9539   13.7290  -25.9871 C   0  0  0  0  0  0
  -33.8170   15.4717  -23.0055 C   0  0  0  0  0  0
  -34.7192   14.8978  -22.0936 C   0  0  0  0  0  0
  -35.8125   14.1491  -22.5538 C   0  0  0  0  0  0
  -35.1106   14.5510  -24.8291 C   0  0  0  0  0  0
  -37.9643   12.7653  -21.7779 C   0  0  0  0  0  0
  -37.9103   12.7992  -19.6021 C   0  0  0  0  0  0
  -30.1124   10.3325  -23.5761 C   0  0  2  0  0  0
  -31.4339    9.5220  -23.2921 C   0  0  0  0  0  0
  -30.3113   11.8445  -25.5906 N   0  0  0  0  0  0
  -30.6854   12.6422  -23.4787 O   0  0  0  0  0  0
  -30.6944   12.5370  -27.8391 C   0  0  0  0  0  0
  -29.5072   11.5925  -27.8452 C   0  0  1  0  0  0
  -28.3110   12.3254  -28.0368 O   0  0  0  0  0  0
  -32.9743   13.0455  -25.9773 O   0  0  0  0  0  0
  -31.8575   15.0445  -25.6941 N   0  0  0  0  0  0
  -33.0337   15.8708  -25.3881 C   0  0  0  0  0  0
  -34.0159   15.2831  -24.3773 C   0  0  0  0  0  0
  -35.9994   13.9856  -23.9284 C   0  0  0  0  0  0
  -36.7798   13.5292  -21.5726 C   0  0  0  0  0  0
  -38.5506   12.3992  -20.6538 N   0  0  0  0  0  0
  -36.4990   13.7108  -19.8503 S   0  0  0  0  0  0
  -38.6279   12.3235  -23.0690 C   0  0  0  0  0  0
  -27.9949   10.5467  -22.2482 C   0  0  0  0  0  0
  -27.4202   10.7792  -20.8332 C   0  0  0  0  0  0
  -27.2456   10.3992  -23.2163 O   0  0  0  0  0  0
  -28.3193   10.8809  -19.8530 F   0  0  0  0  0  0
  -26.1495   11.5991  -20.7104 C   0  0  0  0  0  0
  -26.1112   10.1075  -20.4809 C   0  0  0  0  0  0
  -32.7342   16.2222  -22.5677 O   0  0  0  0  0  0
  -32.5480   16.5079  -21.1801 C   0  0  0  0  0  0
  -30.2595   17.1996  -21.5791 O   0  0  0  0  0  0
  -29.1426   18.0531  -21.3315 C   0  0  0  0  0  0
  -29.3018   19.4939  -21.8542 C   0  0  0  0  0  0
  -29.5166   19.4353  -23.2565 O   0  0  0  0  0  0
  -31.4947   17.6097  -21.0064 C   0  0  0  0  0  0
  -29.5644   20.6954  -23.9069 C   0  0  0  0  0  0
  -29.4674   20.3867  -25.4095 C   0  0  0  0  0  0
  -29.5522   21.5581  -26.2923 N   0  0  0  0  0  0
  -28.4623   22.5160  -26.0445 C   0  0  0  0  0  0
  -28.3834   23.6670  -27.0912 C   0  0  0  0  0  0
  -28.3114   23.1239  -28.4643 N   0  0  0  0  0  0
  -29.4747   22.2376  -28.6648 C   0  0  0  0  0  0
  -29.4411   21.0673  -27.6712 C   0  0  0  0  0  0
  -27.6326   23.7204  -29.5630 C   0  0  0  0  0  0
  -27.5742   23.0454  -30.7827 C   0  0  0  0  0  0
  -26.9124   23.6314  -31.8671 C   0  0  0  0  0  0
  -26.3113   24.8466  -31.7549 N   0  0  0  0  0  0
  -26.3388   25.5114  -30.5864 N   0  0  0  0  0  0
  -26.9823   24.9900  -29.5093 C   0  0  0  0  0  0
  -26.9952   25.7731  -28.3582 N   0  0  0  0  0  0
  -26.8262   22.9278  -33.2350 C   0  0  0  0  0  0
  -26.1242   23.4900  -34.3476 C   0  0  0  0  0  0
  -26.0760   22.8095  -35.5613 C   0  0  0  0  0  0
  -26.7066   21.5875  -35.7085 C   0  0  0  0  0  0
  -27.3916   21.0222  -34.6482 C   0  0  0  0  0  0
  -27.4538   21.6743  -33.4244 C   0  0  0  0  0  0
  -25.4796   24.6932  -34.2527 O   0  0  0  0  0  0
  -29.8726   10.6936  -21.5193 H   0  0  0  0  0  0
  -33.1810    9.5501  -21.9570 H   0  0  0  0  0  0
  -32.5963   11.1507  -22.3571 H   0  0  0  0  0  0
  -31.7298   10.1573  -21.1924 H   0  0  0  0  0  0
  -33.1113    8.6989  -24.4039 H   0  0  0  0  0  0
  -31.7779    9.1857  -25.4377 H   0  0  0  0  0  0
  -32.8464   10.3918  -24.7444 H   0  0  0  0  0  0
  -31.9410    7.4532  -22.7318 H   0  0  0  0  0  0
  -30.4856    8.0464  -21.9640 H   0  0  0  0  0  0
  -30.4593    7.5913  -23.6645 H   0  0  0  0  0  0
  -29.8679   13.7994  -26.3207 H   0  0  0  0  0  0
  -28.5727   10.6999  -26.0931 H   0  0  0  0  0  0
  -30.0977    9.9594  -26.5387 H   0  0  0  0  0  0
  -34.5696   15.0313  -21.0379 H   0  0  0  0  0  0
  -35.2603   14.4081  -25.8893 H   0  0  0  0  0  0
  -38.2810   12.6326  -18.6026 H   0  0  0  0  0  0
  -29.5041    9.7303  -24.2513 H   0  0  0  0  0  0
  -30.6205   13.3536  -28.5602 H   0  0  0  0  0  0
  -31.6259   11.9967  -28.0154 H   0  0  0  0  0  0
  -29.5889   10.8549  -28.6446 H   0  0  0  0  0  0
  -27.5680   11.7149  -28.0276 H   0  0  0  0  0  0
  -30.9593   15.5042  -25.7173 H   0  0  0  0  0  0
  -32.6811   16.8374  -25.0243 H   0  0  0  0  0  0
  -33.5522   16.1022  -26.3207 H   0  0  0  0  0  0
  -36.8281   13.4202  -24.3015 H   0  0  0  0  0  0
  -39.4982   11.6829  -22.8983 H   0  0  0  0  0  0
  -37.9615   11.7248  -23.6893 H   0  0  0  0  0  0
  -38.9815   13.1699  -23.6541 H   0  0  0  0  0  0
  -26.0430   12.2651  -19.8534 H   0  0  0  0  0  0
  -25.6490   11.9741  -21.6046 H   0  0  0  0  0  0
  -25.6111    9.4955  -21.2284 H   0  0  0  0  0  0
  -25.9697    9.7326  -19.4664 H   0  0  0  0  0  0
  -33.4736   16.8665  -20.7266 H   0  0  0  0  0  0
  -32.2366   15.6015  -20.6577 H   0  0  0  0  0  0
  -28.8907   18.0503  -20.2691 H   0  0  0  0  0  0
  -28.3114   17.5995  -21.8607 H   0  0  0  0  0  0
  -30.1290   20.0094  -21.3644 H   0  0  0  0  0  0
  -28.3922   20.0578  -21.6326 H   0  0  0  0  0  0
  -31.8494   18.5179  -21.4986 H   0  0  0  0  0  0
  -31.3684   17.8305  -19.9444 H   0  0  0  0  0  0
  -30.4953   21.2085  -23.6625 H   0  0  0  0  0  0
  -28.7208   21.3081  -23.5856 H   0  0  0  0  0  0
  -28.5342   19.8469  -25.5950 H   0  0  0  0  0  0
  -30.2808   19.7046  -25.6645 H   0  0  0  0  0  0
  -28.5947   22.9629  -25.0599 H   0  0  0  0  0  0
  -27.5118   21.9767  -26.0258 H   0  0  0  0  0  0
  -29.2153   24.3652  -26.9919 H   0  0  0  0  0  0
  -27.4533   24.1410  -26.7945 H   0  0  0  0  0  0
  -30.3746   22.8327  -28.4960 H   0  0  0  0  0  0
  -29.5909   21.8468  -29.6724 H   0  0  0  0  0  0
  -30.2506   20.3699  -27.8974 H   0  0  0  0  0  0
  -28.5020   20.5219  -27.7959 H   0  0  0  0  0  0
  -28.0333   22.0826  -30.8825 H   0  0  0  0  0  0
  -26.5378   26.6726  -28.3686 H   0  0  0  0  0  0
  -27.4808   25.4449  -27.5390 H   0  0  0  0  0  0
  -25.5404   23.2365  -36.3957 H   0  0  0  0  0  0
  -26.6644   21.0736  -36.6531 H   0  0  0  0  0  0
  -27.8813   20.0681  -34.7763 H   0  0  0  0  0  0
  -27.9949   21.2095  -32.6219 H   0  0  0  0  0  0
  -24.7953   24.7657  -34.9331 H   0  0  0  0  0  0
  1 15  1  0  0  0
  1 31  1  0  0  0
  1 66  1  0  0  0
  2 15  1  0  0  0
  2 17  1  0  0  0
  2 18  2  0  0  0
  3 16  1  0  0  0
  3 67  1  0  0  0
  3 68  1  0  0  0
  3 69  1  0  0  0
  4 16  1  0  0  0
  4 70  1  0  0  0
  4 71  1  0  0  0
  4 72  1  0  0  0
  5 16  1  0  0  0
  5 73  1  0  0  0
  5 74  1  0  0  0
  5 75  1  0  0  0
  6  8  1  0  0  0
  6 17  1  0  0  0
  6 19  1  0  0  0
  6 76  1  0  0  0
  7 17  1  0  0  0
  7 20  1  0  0  0
  7 77  1  0  0  0
  7 78  1  0  0  0
  8 22  2  0  0  0
  8 23  1  0  0  0
  9 10  1  0  0  0
  9 25  2  0  0  0
  9 37  1  0  0  0
 10 11  2  0  0  0
 10 79  1  0  0  0
 11 26  1  0  0  0
 11 27  1  0  0  0
 12 25  1  0  0  0
 12 26  2  0  0  0
 12 80  1  0  0  0
 13 27  2  0  0  0
 13 28  1  0  0  0
 13 30  1  0  0  0
 14 28  2  0  0  0
 14 29  1  0  0  0
 14 81  1  0  0  0
 15 16  1  0  0  0
 15 82  1  0  0  0
 19 20  1  0  0  0
 19 83  1  0  0  0
 19 84  1  0  0  0
 20 21  1  0  0  0
 20 85  1  0  0  0
 21 86  1  0  0  0
 23 24  1  0  0  0
 23 87  1  0  0  0
 24 25  1  0  0  0
 24 88  1  0  0  0
 24 89  1  0  0  0
 26 90  1  0  0  0
 27 29  1  0  0  0
 30 91  1  0  0  0
 30 92  1  0  0  0
 30 93  1  0  0  0
 31 32  1  0  0  0
 31 33  2  0  0  0
 32 34  1  0  0  0
 32 35  1  0  0  0
 32 36  1  0  0  0
 35 36  1  0  0  0
 35 94  1  0  0  0
 35 95  1  0  0  0
 36 96  1  0  0  0
 36 97  1  0  0  0
 37 38  1  0  0  0
 38 43  1  0  0  0
 38 98  1  0  0  0
 38 99  1  0  0  0
 39 40  1  0  0  0
 39 43  1  0  0  0
 40 41  1  0  0  0
 40100  1  0  0  0
 40101  1  0  0  0
 41 42  1  0  0  0
 41102  1  0  0  0
 41103  1  0  0  0
 42 44  1  0  0  0
 43104  1  0  0  0
 43105  1  0  0  0
 44 45  1  0  0  0
 44106  1  0  0  0
 44107  1  0  0  0
 45 46  1  0  0  0
 45108  1  0  0  0
 45109  1  0  0  0
 46 47  1  0  0  0
 46 51  1  0  0  0
 47 48  1  0  0  0
 47110  1  0  0  0
 47111  1  0  0  0
 48 49  1  0  0  0
 48112  1  0  0  0
 48113  1  0  0  0
 49 50  1  0  0  0
 49 52  1  0  0  0
 50 51  1  0  0  0
 50114  1  0  0  0
 50115  1  0  0  0
 51116  1  0  0  0
 51117  1  0  0  0
 52 53  1  0  0  0
 52 57  2  0  0  0
 53 54  2  0  0  0
 53118  1  0  0  0
 54 55  1  0  0  0
 54 59  1  0  0  0
 55 56  2  0  0  0
 56 57  1  0  0  0
 57 58  1  0  0  0
 58119  1  0  0  0
 58120  1  0  0  0
 59 60  1  0  0  0
 59 64  2  0  0  0
 60 61  2  0  0  0
 60 65  1  0  0  0
 61 62  1  0  0  0
 61121  1  0  0  0
 62 63  2  0  0  0
 62122  1  0  0  0
 63 64  1  0  0  0
 63123  1  0  0  0
 64124  1  0  0  0
 65125  1  0  0  0
M  END
> <s_m_entry_id>
28

> <s_m_entry_name>
6hay.1_ligand

> <s_m_source_file>
ligprep_1.maegz

> <i_m_source_file_index>
1

> <i_lp_mmshare_version>
38013

> <i_f3d_flags>
0

> <s_lp_Force_Field>
OPLS3

> <r_lp_Energy>
101.86915789508

> <b_lp_Chiralities_Consistent>
1

> <s_lp_Variant>
ligand-1

> <s_m_job_name>
glide-dock_SP_ligprep_ligand

> <s_i_glide_gridfile>
glide-grid_cyrstal_ligand

> <i_i_glide_lignum>
1

> <i_i_glide_rotatable_bonds>
25

> <r_i_docking_score>
-7.92798877988725

> <r_i_glide_ligand_efficiency>
-0.121969058152111

> <r_i_glide_ligand_efficiency_sa>
-0.490404133180663

> <r_i_glide_ligand_efficiency_ln>
-1.53215991891677

> <r_glide_XP_GScore>
-13.4782771815941

> <r_i_glide_gscore>
-7.92798877988725

> <r_i_glide_evdw>
-54.2214698791504

> <r_i_glide_ecoul>
-10.3064584732056

> <r_i_glide_energy>
-64.527928352356

> <r_i_glide_einternal>
9.78004932403564

> <r_i_glide_emodel>
-88.4033944886697

> <r_glide_XP_HBond>
-2.82376069664168

> <r_i_glide_intrahb_reward>
0

> <i_i_glide_confnum>
678

> <i_i_glide_posenum>
32

> <r_i_glide_eff_state_penalty>
0

> <i_glide_XP_PoseRank>
1

> <r_i_glide_lipo>
-2.20092828924093

> <r_i_glide_hbond>
-0.510213310479094

> <r_i_glide_metal>
0

> <r_i_glide_rewards>
-1.22110725630806

> <r_i_glide_erotb>
0.331270112394375

> <r_i_glide_esite>
-0.0699677713151898

> <s_m_subgroup_title>
glide-dock_SP_ligprep_ligand_pv1

> <s_m_subgroupid>
glide-dock_SP_ligprep_ligand_pv1

> <b_m_subgroup_collapsed>
0

$$$$
