debug_vina_out.pdbqt
 OpenBabel07202217023D

 41 45  0  0  0  0  0  0  0  0999 V2000
   15.7960   54.7170   12.3740 C   0  0  0  0  0  0  0  0  0  0  0  0
   16.9010   54.5990   11.4150 C   0  0  0  0  0  0  0  0  0  0  0  0
   17.8700   53.5610   11.6240 C   0  0  0  0  0  3  0  0  0  0  0  0
   17.7550   52.6620   12.7450 C   0  0  0  0  0  3  0  0  0  0  0  0
   16.6810   52.7720   13.6750 C   0  0  0  0  0  0  0  0  0  0  0  0
   15.6970   53.8230   13.4700 C   0  0  0  0  0  3  0  0  0  0  0  0
   17.0710   55.5310   10.1930 C   0  0  0  0  0  1  0  0  0  0  0  0
   14.8230   55.7080   12.2260 N   0  0  0  0  0  0  0  0  0  0  0  0
   13.9440   55.4750   11.8480 H   0  0  0  0  0  0  0  0  0  0  0  0
   15.0800   57.0170   12.6040 C   0  0  0  0  0  0  0  0  0  0  0  0
   14.2760   59.2520   12.7820 C   0  0  0  0  0  0  0  0  0  0  0  0
   15.5290   59.6850   13.3290 C   0  0  0  0  0  3  0  0  0  0  0  0
   14.1000   57.9290   12.4420 N   0  0  0  0  0  0  0  0  0  0  0  0
   16.5390   58.7100   13.4900 C   0  0  0  0  0  3  0  0  0  0  0  0
   16.3010   57.4020   13.1270 N   0  0  0  0  0  0  0  0  0  0  0  0
   13.1130   60.1650   12.5480 C   0  0  0  0  0  0  0  0  0  0  0  0
   11.9080   62.3650   12.8160 C   0  0  0  0  0  3  0  0  0  0  0  0
   13.0550   61.5240   13.0710 C   0  0  0  0  0  3  0  0  0  0  0  0
   10.8260   61.8250   12.0350 C   0  0  0  0  0  3  0  0  0  0  0  0
   10.8940   60.5160   11.5360 N   0  0  0  0  0  0  0  0  0  0  0  0
   11.9850   59.6840   11.7640 C   0  0  0  0  0  3  0  0  0  0  0  0
   16.6280   51.8300   14.7650 N   0  0  0  0  0  0  0  0  0  0  0  0
   15.6600   51.7200   15.7500 C   0  0  0  0  0  0  0  0  0  0  0  0
   17.3710   51.1860   14.8160 H   0  0  0  0  0  0  0  0  0  0  0  0
   14.7970   52.5580   15.9670 O   0  0  0  0  0  0  0  0  0  0  0  0
   15.6580   50.5110   16.6290 C   0  0  0  0  0  0  0  0  0  0  0  0
   14.4960   50.1750   17.4550 C   0  0  0  0  0  3  0  0  0  0  0  0
   16.8350   49.6700   16.6670 C   0  0  0  0  0  3  0  0  0  0  0  0
   14.5270   49.0130   18.3080 C   0  0  0  0  0  3  0  0  0  0  0  0
   16.8620   48.5320   17.5030 C   0  0  0  0  0  3  0  0  0  0  0  0
   15.7250   48.1770   18.3370 C   0  0  0  0  0  0  0  0  0  0  0  0
   15.8540   46.9310   19.2320 C   0  0  0  0  0  2  0  0  0  0  0  0
   17.1000   46.7990   20.0440 N   0  0  0  0  0  4  0  0  0  0  0  0
   17.2690   47.9900   20.9540 C   0  0  0  0  0  2  0  0  0  0  0  0
   17.1180   45.5050   20.8630 C   0  0  0  0  0  2  0  0  0  0  0  0
   17.8820   46.7620   19.3900 H   0  0  0  0  0  0  0  0  0  0  0  0
   18.5730   47.8820   21.7940 C   0  0  0  0  0  2  0  0  0  0  0  0
   18.4380   45.3720   21.6890 C   0  0  0  0  0  2  0  0  0  0  0  0
   18.5920   46.5910   22.6000 N   0  0  0  0  0  4  0  0  0  0  0  0
   19.8030   46.4410   23.4200 C   0  0  0  0  0  1  0  0  0  0  0  0
   17.7960   46.6480   23.2350 H   0  0  0  0  0  0  0  0  0  0  0  0
  1  6  1  0  0  0  0
  2  3  1  0  0  0  0
  2  1  2  0  0  0  0
  3  4  2  0  0  0  0
  4  5  1  0  0  0  0
  5 22  1  0  0  0  0
  6  5  2  0  0  0  0
  7  2  1  0  0  0  0
  8  1  1  0  0  0  0
  8 10  1  0  0  0  0
  9  8  1  0  0  0  0
 10 15  1  0  0  0  0
 11 12  2  0  0  0  0
 12 14  1  0  0  0  0
 13 10  2  0  0  0  0
 13 11  1  0  0  0  0
 15 14  2  0  0  0  0
 16 11  1  0  0  0  0
 16 18  1  0  0  0  0
 17 18  2  0  0  0  0
 19 17  1  0  0  0  0
 20 21  1  0  0  0  0
 20 19  2  0  0  0  0
 21 16  2  0  0  0  0
 22 24  1  0  0  0  0
 22 23  1  0  0  0  0
 23 25  2  0  0  0  0
 23 26  1  0  0  0  0
 26 28  2  0  0  0  0
 26 27  1  0  0  0  0
 27 29  2  0  0  0  0
 28 30  1  0  0  0  0
 29 31  1  0  0  0  0
 30 31  2  0  0  0  0
 31 32  1  0  0  0  0
 32 33  1  0  0  0  0
 33 35  1  0  0  0  0
 33 34  1  0  0  0  0
 34 37  1  0  0  0  0
 35 38  1  0  0  0  0
 36 33  1  0  0  0  0
 37 39  1  0  0  0  0
 38 39  1  0  0  0  0
 39 41  1  0  0  0  0
 39 40  1  0  0  0  0
M  END
>  <REMARK>
 Flexibility Score: inf
 Active torsions [ 7 ] -> [ 7 ]

>  <TORSDO>
F 7

$$$$
