0:0:0
     RDKit          3D

 96105  0  0  1  0  0  0  0  0999 V2000
  -28.4000  -18.0850   18.1730 C   0  0  0  0  0  3  0  0  0  0  0  0
  -28.4850  -19.4820   18.2830 C   0  0  0  0  0  3  0  0  0  0  0  0
  -29.0200  -17.2650   19.1300 C   0  0  0  0  0  3  0  0  0  0  0  0
  -29.1880  -20.0710   19.3580 C   0  0  0  0  0  0  0  0  0  0  0  0
  -29.7620  -19.2430   20.3630 C   0  0  0  0  0  0  0  0  0  0  0  0
  -29.7030  -17.8160   20.2420 C   0  0  0  0  0  0  0  0  0  0  0  0
  -29.3310  -21.5430   19.4200 C   0  0  0  0  0  3  0  0  0  0  0  0
  -30.4110  -19.9500   21.5530 C   0  0  0  0  0  2  0  0  0  0  0  0
  -29.8010  -21.3590   21.8170 C   0  0  0  0  0  2  0  0  0  0  0  0
  -29.5970  -22.1800   20.5880 N   0  0  0  0  0  0  0  0  0  0  0  0
  -29.2390  -22.2600   18.3010 N   0  0  0  0  0  0  0  0  0  0  0  0
  -29.1510  -21.7770   17.4200 H   0  0  0  0  0  0  0  0  0  0  0  0
  -29.3390  -23.2590   18.2930 H   0  0  0  0  0  0  0  0  0  0  0  0
  -30.3740  -16.8640   21.2570 C   0  0  0  0  0  2  0  0  0  0  0  0
  -30.6900  -14.4720   20.4980 C   0  0  0  0  0  0  0  0  0  0  0  0
  -30.3760  -12.3550   19.2670 C   0  0  0  0  0  2  0  0  0  0  0  0
  -29.4280  -12.5930   18.0750 C   0  0  0  0  0  2  0  0  0  0  0  0
  -27.9570  -12.4390   18.5070 C   0  0  0  0  0  2  0  0  0  0  0  0
  -27.6270  -13.2540   19.7870 C   0  0  0  0  0  3  0  0  0  0  0  0
  -28.6810  -12.9940   20.8870 C   0  0  0  0  0  2  0  0  0  0  0  0
  -30.0110  -13.3050   20.3300 N   0  0  0  0  0  0  0  0  0  0  0  0
  -31.7900  -14.6920   19.9850 O   0  0  0  0  0  0  0  0  0  0  0  0
  -30.0130  -15.4370   21.1460 N   0  0  0  0  0  0  0  0  0  0  0  0
  -29.1270  -15.1670   21.5440 H   0  0  0  0  0  0  0  0  0  0  0  0
  -25.2250  -13.8640   20.4870 C   0  0  0  0  0  0  0  0  0  0  0  0
  -24.1550  -13.0910   20.8520 C   0  0  0  0  0  0  0  0  0  0  0  0
  -24.6160  -11.7400   20.8180 C   0  0  0  0  0  0  0  0  0  0  0  0
  -26.2710  -12.9830   20.2590 N   0  0  0  0  0  0  0  0  0  0  0  0
  -25.9060  -11.7000   20.5120 N   0  0  0  0  0  0  0  0  0  0  0  0
  -23.8910  -10.4770   21.0070 C   0  0  0  0  0  0  0  0  0  0  0  0
  -24.3090   -9.5210   21.9580 C   0  0  0  0  0  3  0  0  0  0  0  0
  -23.5860   -8.3200   22.1310 C   0  0  0  0  0  3  0  0  0  0  0  0
  -22.4310   -8.0690   21.3530 C   0  0  0  0  0  0  0  0  0  0  0  0
  -22.0320   -9.0150   20.3920 C   0  0  0  0  0  3  0  0  0  0  0  0
  -22.7560  -10.2060   20.2170 C   0  0  0  0  0  3  0  0  0  0  0  0
  -21.6800   -6.9210   21.4350 O   0  0  0  0  0  0  0  0  0  0  0  0
  -21.5920   -6.2010   22.5980 C   0  0  0  0  0  0  0  0  0  0  0  0
  -21.0860   -6.7670   23.7890 C   0  0  0  0  0  3  0  0  0  0  0  0
  -20.9480   -5.9720   24.9440 C   0  0  0  0  0  3  0  0  0  0  0  0
  -21.3050   -4.6100   24.9090 C   0  0  0  0  0  0  0  0  0  0  0  0
  -21.8020   -4.0430   23.7220 C   0  0  0  0  0  3  0  0  0  0  0  0
  -21.9430   -4.8360   22.5700 C   0  0  0  0  0  0  0  0  0  0  0  0
  -22.4030   -4.2800   21.4240 F   0  0  0  0  0  0  0  0  0  0  0  0
  -21.1650   -3.8430   26.0150 F   0  0  0  0  0  0  0  0  0  0  0  0
  -22.7580  -13.5670   21.1250 C   0  0  0  0  0  0  0  0  0  0  0  0
  -22.0290  -12.8630   21.9850 N   0  0  0  0  0  0  0  0  0  0  0  0
  -22.3210  -14.5970   20.6140 O   0  0  0  0  0  0  0  0  0  0  0  0
  -22.3960  -12.0290   22.4180 H   0  0  0  0  0  0  0  0  0  0  0  0
  -21.0900  -13.1600   22.2120 H   0  0  0  0  0  0  0  0  0  0  0  0
  -25.3920  -15.2350   20.3140 N   0  0  0  0  0  0  0  0  0  0  0  0
  -24.6240  -15.8890   20.4230 H   0  0  0  0  0  0  0  0  0  0  0  0
  -26.2460  -15.6780   20.0040 H   0  0  0  0  0  0  0  0  0  0  0  0
  -29.7640  -23.6640   20.7170 C   0  0  0  0  0  2  0  0  0  0  0  0
  -28.5050  -24.3980   21.2480 C   0  0  0  0  0  2  0  0  0  0  0  0
  -28.6780  -25.9290   21.4530 C   0  0  0  0  0  2  0  0  0  0  0  0
  -28.4740  -26.7050   20.2610 O   0  0  0  0  0  0  0  0  0  0  0  0
  -24.5930  -31.9020   23.2480 C   0  0  0  0  0  0  0  0  0  0  0  0
  -27.3200  -27.4580   20.2550 C   0  0  0  0  0  0  0  0  0  0  0  0
  -23.4260  -30.4880   21.5850 C   0  0  0  0  0  3  0  0  0  0  0  0
  -24.9180  -28.9470   20.2000 C   0  0  0  0  0  0  0  0  0  0  0  0
  -25.9520  -30.8580   21.4380 C   0  0  0  0  0  2  0  0  0  0  0  0
  -26.0590  -29.4820   20.8150 C   0  0  0  0  0  0  0  0  0  0  0  0
  -27.2630  -28.7400   20.8480 C   0  0  0  0  0  3  0  0  0  0  0  0
  -26.1690  -26.9380   19.6290 C   0  0  0  0  0  3  0  0  0  0  0  0
  -24.9680  -27.6740   19.6050 C   0  0  0  0  0  3  0  0  0  0  0  0
  -23.6680  -29.8000   20.2130 C   0  0  0  0  0  2  0  0  0  0  0  0
  -24.6740  -31.0980   22.1490 N   0  0  0  0  0  0  0  0  0  0  0  0
  -23.5020  -32.1730   23.7660 O   0  0  0  0  0  0  0  0  0  0  0  0
  -22.7590  -29.4700   22.5390 C   0  0  0  0  0  0  0  0  0  0  0  0
  -21.4330  -29.3020   22.4030 N   0  0  0  0  0  0  0  0  0  0  0  0
  -23.4310  -28.8340   23.3550 O   0  0  0  0  0  0  0  0  0  0  0  0
  -20.9550  -29.8660   21.7140 H   0  0  0  0  0  0  0  0  0  0  0  0
  -18.0370  -28.1790   22.9100 C   0  0  0  0  0  0  0  0  0  0  0  0
  -20.6020  -28.3710   23.1650 C   0  0  0  0  0  3  0  0  0  0  0  0
  -20.6660  -26.9480   22.5610 C   0  0  0  0  0  2  0  0  0  0  0  0
  -19.5480  -26.6700   21.5510 C   0  0  0  0  0  2  0  0  0  0  0  0
  -18.1760  -26.8380   22.2100 C   0  0  0  0  0  2  0  0  0  0  0  0
  -19.1760  -28.9070   23.3440 C   0  0  0  0  0  0  0  0  0  0  0  0
  -18.9930  -30.1640   23.9590 C   0  0  0  0  0  3  0  0  0  0  0  0
  -17.7020  -30.6930   24.1450 C   0  0  0  0  0  3  0  0  0  0  0  0
  -16.5760  -29.9630   23.7260 C   0  0  0  0  0  3  0  0  0  0  0  0
  -16.7450  -28.7080   23.1140 C   0  0  0  0  0  3  0  0  0  0  0  0
  -25.8670  -32.5370   23.8900 C   0  0  0  0  0  3  0  0  0  0  0  0
  -26.3630  -31.7730   25.1770 C   0  0  1  0  0  0  0  0  0  0  0  0
  -25.2480  -31.5290   26.2200 C   0  0  0  0  0  1  0  0  0  0  0  0
  -26.9650  -30.3990   24.8000 C   0  0  0  0  0  1  0  0  0  0  0  0
  -27.4930  -32.5790   25.8630 C   0  0  0  0  0  1  0  0  0  0  0  0
  -25.5510  -33.9380   24.2020 N   0  0  0  0  0  0  0  0  0  0  0  0
  -25.9000  -34.9840   23.4420 C   0  0  0  0  0  0  0  0  0  0  0  0
  -26.5940  -34.8730   22.4270 O   0  0  0  0  0  0  0  0  0  0  0  0
  -24.9380  -34.0980   24.9880 H   0  0  0  0  0  0  0  0  0  0  0  0
  -24.1920  -36.7810   23.0220 C   0  0  0  0  0  1  0  0  0  0  0  0
  -25.4020  -36.3740   23.8770 C   0  0  0  0  0  3  0  0  0  0  0  0
  -27.5030  -37.2610   24.7870 C   0  0  0  0  0  1  0  0  0  0  0  0
  -26.4410  -37.4230   23.7970 N   0  0  0  0  0  0  0  0  0  0  0  0
  -26.0310  -38.3460   23.9220 H   0  0  0  0  0  0  0  0  0  0  0  0
  1  2  2  0
  1  3  1  0
  2  4  1  0
  3  6  2  0
  4  7  1  0
  4  5  2  0
  5  8  1  0
  6  5  1  0
  6 14  1  0
  7 11  1  0
  7 10  1  0
  8  9  1  0
 10 53  1  0
 10  9  1  0
 12 11  1  0
 13 11  1  0
 15 23  1  0
 16 21  1  0
 17 18  1  0
 17 16  1  0
 19 18  1  0
 19 28  1  0
 19 20  1  0
 21 15  1  0
 21 20  1  0
 22 15  2  0
 23 14  1  0
 23 24  1  0
 25 26  2  0
 26 45  1  0
 27 26  1  0
 27 30  1  0
 28 25  1  0
 28 29  1  0
 29 27  2  0
 30 31  1  0
 31 32  2  0
 33 36  1  0
 33 32  1  0
 34 33  2  0
 35 34  1  0
 35 30  2  0
 36 37  1  0
 37 38  1  0
 38 39  2  0
 40 39  1  0
 40 44  1  0
 41 40  2  0
 42 37  2  0
 42 41  1  0
 43 42  1  0
 45 46  1  0
 46 49  1  0
 46 48  1  0
 47 45  2  0
 50 51  1  0
 50 25  1  0
 52 50  1  0
 53 54  1  0
 54 55  1  0
 56 55  1  0
 57 68  2  0
 58 56  1  0
 58 63  1  0
 59 67  1  0
 59 69  1  0
 60 66  1  0
 60 62  1  0
 61 67  1  0
 62 63  2  0
 62 61  1  0
 64 58  2  0
 65 64  1  0
 65 60  2  0
 66 59  1  0
 67 57  1  0
 69 71  2  0
 70 69  1  0
 72 70  1  0
 73 82  2  0
 73 78  1  0
 74 70  1  0
 74 78  1  0
 75 74  1  0
 76 77  1  0
 76 75  1  0
 77 73  1  0
 78 79  2  0
 79 80  1  0
 81 80  2  0
 82 81  1  0
 83 57  1  0
 83 88  1  0
 83 84  1  0
 84 87  1  1
 84 85  1  0
 86 84  1  0
 88 91  1  0
 89 93  1  0
 89 88  1  0
 90 89  2  0
 93 92  1  0
 95 93  1  0
 95 96  1  0
 95 94  1  0
M  ISO  4  15 100  23 100  55 101  56 101
M  END
>  <TORSDO>  (1) 
F 20

>  <SCORE>  (1) 
-14.408

>  <name>  (1) 
0

>  <ligand_id>  (1) 
0

>  <original_smiles>  (1) 
[H]c1c([H])c2c(c(C([H])([H])N([H])C(=O)N3C([H])([H])C([H])([H])C([H])([H])C([H])(n4nc(-c5c([H])c([H])c(Oc6c([H])c([H])c(F)c([H])c6F)c([H])c5[H])c(C(=O)N([H])[H])c4N([H])[H])C3([H])[H])c1[H])C([H])([H])C([H])([H])N(C([H])([H])C([H])([H])C([H])([H])Oc1c([H])c([H])c3c(c1[H])C([H])([H])N(C(=O)C([H])(N([H])C(=O)C([H])(N([H])C([H])([H])[H])C([H])([H])[H])C(C([H])([H])[H])(C([H])([H])[H])C([H])([H])[H])C([H])(C(=O)N([H])C1([H])c4c([H])c([H])c([H])c([H])c4C([H])([H])C([H])([H])C1([H])[H])C3([H])[H])C2=[N+]([H])[H]

>  <smiles>  (1) 
[H]c1c([H])c2c(c(C([H])([H])N([H])C(=O)N3C([H])([H])C([H])([H])C([H])([H])C([H])(n4nc(-c5c([H])c([H])c(Oc6c([H])c([H])c(F)c([H])c6F)c([H])c5[H])c(C(=O)N([H])[H])c4N([H])[H])C3([H])[H])c1[H])C([H])([H])C([H])([H])N(C([H])([H])C([H])([H])C([H])([H])Oc1c([H])c([H])c3c(c1[H])C([H])([H])N(C(=O)C([H])(N([H])C(=O)C([H])(N([H])C([H])([H])[H])C([H])([H])[H])C(C([H])([H])[H])(C([H])([H])[H])C([H])([H])[H])C([H])(C(=O)N([H])C1([H])c4c([H])c([H])c([H])c([H])c4C([H])([H])C([H])([H])C1([H])[H])C3([H])[H])C2=[N+]([H])[H]

$$$$
1:0:0
     RDKit          3D

111121  0  0  1  0  0  0  0  0999 V2000
  -30.0280  -22.6900   16.1090 C   0  0  0  0  0  0  0  0  0  0  0  0
  -29.2240  -23.7640   16.0110 N   0  0  0  0  0  0  0  0  0  0  0  0
  -30.1930  -22.0440   17.1510 O   0  0  0  0  0  0  0  0  0  0  0  0
  -29.2300  -24.2460   15.1230 H   0  0  0  0  0  0  0  0  0  0  0  0
  -28.9300  -25.6590   19.1920 C   0  0  0  0  0  3  0  0  0  0  0  0
  -29.4310  -25.1960   17.9570 C   0  0  0  0  0  3  0  0  0  0  0  0
  -27.2210  -24.3200   17.3500 C   0  0  0  0  0  3  0  0  0  0  0  0
  -26.7400  -24.8200   18.5690 C   0  0  0  0  0  0  0  0  0  0  0  0
  -27.5890  -25.3800   19.5120 C   0  0  0  0  0  0  0  0  0  0  0  0
  -28.6090  -24.4330   17.0930 C   0  0  0  0  0  0  0  0  0  0  0  0
  -25.3540  -24.7210   19.1120 C   0  0  0  0  0  3  0  0  0  0  0  0
  -25.5730  -25.1400   20.5840 C   0  0  0  0  0  3  0  0  0  0  0  0
  -26.9960  -25.4840   20.7730 N   0  0  0  0  0  0  0  0  0  0  0  0
  -27.7680  -24.8610   21.8630 C   0  0  0  0  0  2  0  0  0  0  0  0
  -26.9430  -24.1580   22.9920 C   0  0  0  0  0  2  0  0  0  0  0  0
  -25.4750  -24.5920   23.2620 C   0  0  0  0  0  2  0  0  0  0  0  0
  -24.3410  -23.7100   22.6710 C   0  0  0  0  0  2  0  0  0  0  0  0
  -22.9530  -23.9640   23.3240 C   0  0  0  0  0  2  0  0  0  0  0  0
  -21.9180  -22.8040   23.3130 C   0  0  0  0  0  2  0  0  0  0  0  0
  -20.8770  -22.8090   21.0390 C   0  0  0  0  0  0  0  0  0  0  0  0
  -20.4930  -24.7600   19.6740 C   0  0  0  0  0  2  0  0  0  0  0  0
  -20.2750  -25.9190   20.6670 C   0  0  0  0  0  2  0  0  0  0  0  0
  -18.7840  -26.0260   21.0420 C   0  0  0  0  0  2  0  0  0  0  0  0
  -18.1170  -24.6720   21.4230 C   0  0  0  0  0  3  0  0  0  0  0  0
  -18.5260  -23.5440   20.4480 C   0  0  0  0  0  2  0  0  0  0  0  0
  -19.9920  -23.5490   20.3290 N   0  0  0  0  0  0  0  0  0  0  0  0
  -21.9350  -22.3900   20.5820 O   0  0  0  0  0  0  0  0  0  0  0  0
  -20.7900  -22.9820   22.3730 N   0  0  0  0  0  0  0  0  0  0  0  0
  -19.9470  -23.3950   22.7340 H   0  0  0  0  0  0  0  0  0  0  0  0
  -15.9180  -25.5420   22.4410 C   0  0  0  0  0  0  0  0  0  0  0  0
  -14.6140  -25.4250   22.0470 C   0  0  0  0  0  0  0  0  0  0  0  0
  -14.6280  -24.6040   20.8780 C   0  0  0  0  0  0  0  0  0  0  0  0
  -16.6650  -24.8120   21.5290 N   0  0  0  0  0  0  0  0  0  0  0  0
  -15.8640  -24.2000   20.6150 N   0  0  0  0  0  0  0  0  0  0  0  0
  -13.5410  -24.2360   19.9580 C   0  0  0  0  0  0  0  0  0  0  0  0
  -12.1840  -24.3950   20.3160 C   0  0  0  0  0  3  0  0  0  0  0  0
  -11.1600  -24.0510   19.4070 C   0  0  0  0  0  3  0  0  0  0  0  0
  -11.4880  -23.5410   18.1250 C   0  0  0  0  0  0  0  0  0  0  0  0
  -12.8420  -23.3730   17.7800 C   0  0  0  0  0  3  0  0  0  0  0  0
  -13.8590  -23.7120   18.6890 C   0  0  0  0  0  3  0  0  0  0  0  0
  -10.5580  -23.1630   17.1880 O   0  0  0  0  0  0  0  0  0  0  0  0
  -10.4350  -23.8240   15.9890 C   0  0  0  0  0  0  0  0  0  0  0  0
  -10.7320  -23.1990   14.7570 C   0  0  0  0  0  3  0  0  0  0  0  0
  -10.5170  -23.8910   13.5470 C   0  0  0  0  0  3  0  0  0  0  0  0
   -9.9990  -25.2030   13.5670 C   0  0  0  0  0  0  0  0  0  0  0  0
   -9.6990  -25.8210   14.7930 C   0  0  0  0  0  3  0  0  0  0  0  0
   -9.9130  -25.1330   16.0000 C   0  0  0  0  0  0  0  0  0  0  0  0
   -9.5960  -25.7260   17.1770 F   0  0  0  0  0  0  0  0  0  0  0  0
   -9.7860  -25.8660   12.4090 F   0  0  0  0  0  0  0  0  0  0  0  0
  -13.4310  -26.1120   22.6610 C   0  0  0  0  0  0  0  0  0  0  0  0
  -12.2610  -25.9830   22.0530 N   0  0  0  0  0  0  0  0  0  0  0  0
  -13.5290  -26.7310   23.7230 O   0  0  0  0  0  0  0  0  0  0  0  0
  -12.1750  -25.4740   21.1860 H   0  0  0  0  0  0  0  0  0  0  0  0
  -11.4400  -26.4140   22.4570 H   0  0  0  0  0  0  0  0  0  0  0  0
  -16.5290  -26.2250   23.4900 N   0  0  0  0  0  0  0  0  0  0  0  0
  -15.9820  -26.7890   24.1310 H   0  0  0  0  0  0  0  0  0  0  0  0
  -17.5190  -26.2340   23.6960 H   0  0  0  0  0  0  0  0  0  0  0  0
  -30.7600  -22.2990   14.8150 C   0  0  0  0  0  2  0  0  0  0  0  0
  -31.9060  -21.3920   15.0110 N   0  0  0  0  0  0  0  0  0  0  0  0
  -35.7750  -23.1460   15.5600 C   0  0  0  0  0  3  0  0  0  0  0  0
  -33.5320  -22.6570   16.3990 C   0  0  0  0  0  3  0  0  0  0  0  0
  -34.2340  -21.7920   14.2490 C   0  0  0  0  0  3  0  0  0  0  0  0
  -34.7950  -23.2680   16.5630 C   0  0  0  0  0  0  0  0  0  0  0  0
  -35.4950  -22.3970   14.4030 C   0  0  0  0  0  0  0  0  0  0  0  0
  -33.2070  -21.9330   15.2230 C   0  0  0  0  0  0  0  0  0  0  0  0
  -35.0930  -24.0660   17.8180 C   0  0  0  0  0  1  0  0  0  0  0  0
  -36.5280  -22.2570   13.3010 C   0  0  0  0  0  1  0  0  0  0  0  0
  -31.7850  -20.0680   14.3950 C   0  0  0  0  0  2  0  0  0  0  0  0
  -32.8920  -19.8250   13.3410 C   0  0  0  0  0  2  0  0  0  0  0  0
  -32.7930  -18.4450   12.6760 C   0  0  0  0  0  2  0  0  0  0  0  0
  -34.0920  -17.9000   12.4150 O   0  0  0  0  0  0  0  0  0  0  0  0
  -36.9130  -14.9530    6.5670 C   0  0  0  0  0  0  0  0  0  0  0  0
  -34.5960  -18.0980   11.1510 C   0  0  0  0  0  0  0  0  0  0  0  0
  -36.8760  -17.4250    6.6230 C   0  0  0  0  0  3  0  0  0  0  0  0
  -35.5150  -18.4730    8.5100 C   0  0  0  0  0  0  0  0  0  0  0  0
  -35.1540  -16.0650    7.9360 C   0  0  0  0  0  2  0  0  0  0  0  0
  -35.1090  -17.2010    8.9340 C   0  0  0  0  0  0  0  0  0  0  0  0
  -34.6630  -17.0070   10.2600 C   0  0  0  0  0  3  0  0  0  0  0  0
  -35.0370  -19.3690   10.7190 C   0  0  0  0  0  3  0  0  0  0  0  0
  -35.4930  -19.5580    9.4010 C   0  0  0  0  0  3  0  0  0  0  0  0
  -35.9730  -18.6030    7.0740 C   0  0  0  0  0  2  0  0  0  0  0  0
  -36.3400  -16.0930    7.0510 N   0  0  0  0  0  0  0  0  0  0  0  0
  -37.8400  -14.9990    5.7490 O   0  0  0  0  0  0  0  0  0  0  0  0
  -38.3140  -17.6940    7.1220 C   0  0  0  0  0  0  0  0  0  0  0  0
  -38.7210  -18.9750    7.1030 N   0  0  0  0  0  0  0  0  0  0  0  0
  -39.0230  -16.7750    7.5370 O   0  0  0  0  0  0  0  0  0  0  0  0
  -38.0810  -19.6680    6.7420 H   0  0  0  0  0  0  0  0  0  0  0  0
  -40.3420  -21.6800    8.8620 C   0  0  0  0  0  0  0  0  0  0  0  0
  -40.0190  -19.4720    7.5600 C   0  0  0  0  0  3  0  0  0  0  0  0
  -40.4610  -18.7590    8.8580 C   0  0  0  0  0  2  0  0  0  0  0  0
  -40.0500  -19.5090   10.1280 C   0  0  0  0  0  2  0  0  0  0  0  0
  -40.6500  -20.9180   10.1400 C   0  0  0  0  0  2  0  0  0  0  0  0
  -40.0290  -21.0010    7.6550 C   0  0  0  0  0  0  0  0  0  0  0  0
  -39.7130  -21.7580    6.5060 C   0  0  0  0  0  3  0  0  0  0  0  0
  -39.7140  -23.1650    6.5480 C   0  0  0  0  0  3  0  0  0  0  0  0
  -40.0420  -23.8320    7.7410 C   0  0  0  0  0  3  0  0  0  0  0  0
  -40.3600  -23.0900    8.8930 C   0  0  0  0  0  3  0  0  0  0  0  0
  -36.4120  -13.5400    7.0020 C   0  0  0  0  0  3  0  0  0  0  0  0
  -34.9430  -13.5830    7.0340 N   0  0  0  0  0  0  0  0  0  0  0  0
  -34.1760  -12.7840    7.7850 C   0  0  0  0  0  0  0  0  0  0  0  0
  -34.6340  -11.8720    8.4790 O   0  0  0  0  0  0  0  0  0  0  0  0
  -34.5020  -14.3400    6.5310 H   0  0  0  0  0  0  0  0  0  0  0  0
  -32.2440  -13.7980    9.0350 C   0  0  0  0  0  1  0  0  0  0  0  0
  -32.6550  -13.0360    7.7650 C   0  0  0  0  0  3  0  0  0  0  0  0
  -31.9240  -11.1950    6.3150 C   0  0  0  0  0  1  0  0  0  0  0  0
  -31.8540  -11.7990    7.6430 N   0  0  0  0  0  0  0  0  0  0  0  0
  -30.8770  -11.9790    7.8570 H   0  0  0  0  0  0  0  0  0  0  0  0
  -36.9160  -12.3830    6.0560 C   0  0  1  0  0  0  0  0  0  0  0  0
  -35.8150  -11.8010    5.1390 C   0  0  0  0  0  1  0  0  0  0  0  0
  -38.0650  -12.8850    5.1490 C   0  0  0  0  0  1  0  0  0  0  0  0
  -37.4930  -11.2260    6.9040 C   0  0  0  0  0  1  0  0  0  0  0  0
  1  3  2  0
  2  1  1  0
  2 10  1  0
  4  2  1  0
  5  9  1  0
  6  5  2  0
  7  8  1  0
  8 11  1  0
  8  9  2  0
  9 13  1  0
 10  7  2  0
 10  6  1  0
 11 12  2  0
 12 13  1  0
 13 14  1  0
 14 15  1  0
 15 16  1  0
 17 16  1  0
 17 18  1  0
 19 18  1  0
 20 28  1  0
 21 26  1  0
 21 22  1  0
 22 23  1  0
 23 24  1  0
 24 25  1  0
 24 33  1  0
 26 25  1  0
 26 20  1  0
 27 20  2  0
 28 29  1  0
 28 19  1  0
 30 55  1  0
 31 30  2  0
 31 50  1  0
 32 31  1  0
 33 30  1  0
 34 32  2  0
 34 33  1  0
 35 36  1  0
 35 32  1  0
 37 36  2  0
 38 37  1  0
 39 38  2  0
 39 40  1  0
 40 35  2  0
 41 38  1  0
 42 47  1  0
 42 41  1  0
 43 42  2  0
 44 45  2  0
 44 43  1  0
 45 46  1  0
 46 47  2  0
 47 48  1  0
 49 45  1  0
 50 52  2  0
 51 54  1  0
 51 50  1  0
 53 51  1  0
 55 57  1  0
 55 56  1  0
 58 59  1  0
 58  1  1  0
 59 65  1  0
 60 63  1  0
 61 63  2  0
 62 64  1  0
 62 65  2  0
 63 66  1  0
 64 60  2  0
 65 61  1  0
 67 64  1  0
 68 59  1  0
 69 68  1  0
 70 69  1  0
 71 70  1  0
 72 82  1  0
 73 71  1  0
 74 82  1  0
 74 81  1  0
 74 84  1  0
 75 77  2  0
 75 80  1  0
 76 77  1  0
 77 78  1  0
 78 73  2  0
 79 73  1  0
 80 79  2  0
 81 75  1  0
 82 76  1  0
 83 72  2  0
 84 86  2  0
 85 84  1  0
 87 85  1  0
 88 97  1  0
 88 92  1  0
 89 85  1  0
 89 93  1  0
 89 90  1  0
 90 91  1  0
 91 92  1  0
 93 88  2  0
 94 95  2  0
 94 93  1  0
 95 96  1  0
 96 97  2  0
 98 72  1  0
 98 99  1  0
 99100  1  0
100101  2  0
102 99  1  0
104100  1  0
104103  1  0
105106  1  0
106104  1  0
106107  1  0
108111  1  1
108 98  1  0
109108  1  0
110108  1  0
M  ISO  4  20 100  28 100  70 101  71 101
M  END
>  <TORSDO>  (2) 
F 29

>  <SCORE>  (2) 
6.518

>  <name>  (2) 
1

>  <ligand_id>  (2) 
1

>  <original_smiles>  (2) 
[H]c1c([H])c([H])c2c(c1[H])C([H])([H])C([H])([H])C([H])([H])C2([H])N([H])C(=O)C1([H])N(C(=O)C([H])(N([H])C(=O)C([H])(N([H])C([H])([H])[H])C([H])([H])[H])C(C([H])([H])[H])(C([H])([H])[H])C([H])([H])[H])C([H])([H])c2c([H])c(OC([H])([H])C([H])([H])C([H])([H])N(c3c([H])c(C([H])([H])[H])c([H])c(C([H])([H])[H])c3[H])C([H])([H])C(=O)N([H])c3c([H])c([H])c4c(c3[H])C([H])([H])C([H])([H])N4C([H])([H])C([H])([H])C([H])([H])C([H])([H])C([H])([H])C([H])([H])N([H])C(=O)N3C([H])([H])C([H])([H])C([H])([H])C([H])(n4nc(-c5c([H])c([H])c(Oc6c([H])c([H])c(F)c([H])c6F)c([H])c5[H])c(C(=O)N([H])[H])c4N([H])[H])C3([H])[H])c([H])c([H])c2C1([H])[H]

>  <smiles>  (2) 
[H]c1c([H])c([H])c2c(c1[H])C([H])([H])C([H])([H])C([H])([H])C2([H])N([H])C(=O)C1([H])N(C(=O)C([H])(N([H])C(=O)C([H])(N([H])C([H])([H])[H])C([H])([H])[H])C(C([H])([H])[H])(C([H])([H])[H])C([H])([H])[H])C([H])([H])c2c([H])c(OC([H])([H])C([H])([H])C([H])([H])N(c3c([H])c(C([H])([H])[H])c([H])c(C([H])([H])[H])c3[H])C([H])([H])C(=O)N([H])c3c([H])c([H])c4c(c3[H])C([H])([H])C([H])([H])N4C([H])([H])C([H])([H])C([H])([H])C([H])([H])C([H])([H])C([H])([H])N([H])C(=O)N3C([H])([H])C([H])([H])C([H])([H])C([H])(n4nc(-c5c([H])c([H])c(Oc6c([H])c([H])c(F)c([H])c6F)c([H])c5[H])c(C(=O)N([H])[H])c4N([H])[H])C3([H])[H])c([H])c([H])c2C1([H])[H]

$$$$
2:0:0
     RDKit          3D

 94103  0  0  1  0  0  0  0  0999 V2000
  -26.8700  -23.5850   20.3540 C   0  0  0  0  0  2  0  0  0  0  0  0
  -27.0340  -22.0810   20.0700 C   0  0  0  0  0  2  0  0  0  0  0  0
  -29.1430  -23.0240   20.6450 C   0  0  0  0  0  2  0  0  0  0  0  0
  -28.2590  -24.1840   20.1110 C   0  0  0  0  0  3  0  0  0  0  0  0
  -28.4680  -21.7450   20.2670 N   0  0  1  0  0  4  0  0  0  0  0  0
  -28.8000  -21.4870   19.3500 H   0  0  0  0  0  0  0  0  0  0  0  0
  -28.7400  -20.5510   21.1420 C   0  0  0  0  0  2  0  0  0  0  0  0
  -31.6320  -18.9130   19.2180 C   0  0  0  0  0  3  0  0  0  0  0  0
  -30.7620  -19.8580   19.7750 C   0  0  0  0  0  3  0  0  0  0  0  0
  -31.4070  -17.5420   19.4070 C   0  0  0  0  0  3  0  0  0  0  0  0
  -29.6310  -19.4500   20.5130 C   0  0  0  0  0  0  0  0  0  0  0  0
  -29.3960  -18.0430   20.6990 C   0  0  0  0  0  0  0  0  0  0  0  0
  -30.2970  -17.0670   20.1530 C   0  0  0  0  0  0  0  0  0  0  0  0
  -28.1810  -17.5880   21.5040 C   0  0  0  0  0  1  0  0  0  0  0  0
  -30.7540  -14.5670   19.9120 C   0  0  0  0  0  0  0  0  0  0  0  0
  -30.3600  -12.3890   18.8360 C   0  0  0  0  0  2  0  0  0  0  0  0
  -29.3440  -12.5960   17.6940 C   0  0  0  0  0  2  0  0  0  0  0  0
  -27.9020  -12.4700   18.2240 C   0  0  0  0  0  2  0  0  0  0  0  0
  -27.6570  -13.3110   19.5050 C   0  0  0  0  0  3  0  0  0  0  0  0
  -28.7870  -13.1080   20.5400 C   0  0  0  0  0  2  0  0  0  0  0  0
  -30.0650  -13.3920   19.8720 N   0  0  0  0  0  0  0  0  0  0  0  0
  -31.8860  -14.6540   19.4360 O   0  0  0  0  0  0  0  0  0  0  0  0
  -30.0570  -15.6500   20.3480 N   0  0  0  0  0  0  0  0  0  0  0  0
  -29.1700  -15.4200   20.7670 H   0  0  0  0  0  0  0  0  0  0  0  0
  -25.3540  -13.9310   20.4650 C   0  0  0  0  0  0  0  0  0  0  0  0
  -24.2940  -13.1670   20.8700 C   0  0  0  0  0  0  0  0  0  0  0  0
  -24.7000  -11.8080   20.6990 C   0  0  0  0  0  0  0  0  0  0  0  0
  -26.3410  -13.0390   20.0790 N   0  0  0  0  0  0  0  0  0  0  0  0
  -25.9560  -11.7520   20.2780 N   0  0  0  0  0  0  0  0  0  0  0  0
  -23.9440  -10.5580   20.8580 C   0  0  0  0  0  0  0  0  0  0  0  0
  -24.3810   -9.5370   21.7310 C   0  0  0  0  0  3  0  0  0  0  0  0
  -23.6270   -8.3530   21.8810 C   0  0  0  0  0  3  0  0  0  0  0  0
  -22.4230   -8.1820   21.1580 C   0  0  0  0  0  0  0  0  0  0  0  0
  -22.0050   -9.1910   20.2730 C   0  0  0  0  0  3  0  0  0  0  0  0
  -22.7590  -10.3670   20.1210 C   0  0  0  0  0  3  0  0  0  0  0  0
  -21.6390   -7.0540   21.2210 O   0  0  0  0  0  0  0  0  0  0  0  0
  -21.5690   -6.2880   22.3570 C   0  0  0  0  0  0  0  0  0  0  0  0
  -21.1600   -6.8290   23.5950 C   0  0  0  0  0  3  0  0  0  0  0  0
  -21.0340   -5.9910   24.7210 C   0  0  0  0  0  3  0  0  0  0  0  0
  -21.3090   -4.6140   24.6100 C   0  0  0  0  0  0  0  0  0  0  0  0
  -21.7120   -4.0740   23.3760 C   0  0  0  0  0  3  0  0  0  0  0  0
  -21.8380   -4.9090   22.2520 C   0  0  0  0  0  0  0  0  0  0  0  0
  -22.2070   -4.3800   21.0610 F   0  0  0  0  0  0  0  0  0  0  0  0
  -21.1810   -3.8080   25.6890 F   0  0  0  0  0  0  0  0  0  0  0  0
  -22.9450  -13.6660   21.2980 C   0  0  0  0  0  0  0  0  0  0  0  0
  -22.2710  -12.9340   22.1780 N   0  0  0  0  0  0  0  0  0  0  0  0
  -22.4990  -14.7360   20.8850 O   0  0  0  0  0  0  0  0  0  0  0  0
  -22.6460  -12.0660   22.5310 H   0  0  0  0  0  0  0  0  0  0  0  0
  -21.3680  -13.2450   22.5050 H   0  0  0  0  0  0  0  0  0  0  0  0
  -25.5560  -15.3060   20.3710 N   0  0  0  0  0  0  0  0  0  0  0  0
  -24.8160  -15.9690   20.5690 H   0  0  0  0  0  0  0  0  0  0  0  0
  -26.3680  -15.7340   19.9470 H   0  0  0  0  0  0  0  0  0  0  0  0
  -28.5220  -25.5810   20.7690 C   0  0  0  0  0  2  0  0  0  0  0  0
  -28.4220  -26.7320   19.9040 O   0  0  0  0  0  0  0  0  0  0  0  0
  -24.6170  -31.8570   23.1360 C   0  0  0  0  0  0  0  0  0  0  0  0
  -27.2540  -27.4630   19.9710 C   0  0  0  0  0  0  0  0  0  0  0  0
  -23.4000  -30.4570   21.4990 C   0  0  0  0  0  3  0  0  0  0  0  0
  -24.8480  -28.9510   20.0310 C   0  0  0  0  0  0  0  0  0  0  0  0
  -25.9160  -30.8470   21.2610 C   0  0  0  0  0  2  0  0  0  0  0  0
  -26.0090  -29.4800   20.6100 C   0  0  0  0  0  0  0  0  0  0  0  0
  -27.2180  -28.7420   20.5790 C   0  0  0  0  0  3  0  0  0  0  0  0
  -26.0840  -26.9620   19.3730 C   0  0  0  0  0  3  0  0  0  0  0  0
  -24.8800  -27.6910   19.4090 C   0  0  0  0  0  3  0  0  0  0  0  0
  -23.5960  -29.7960   20.1080 C   0  0  0  0  0  2  0  0  0  0  0  0
  -24.6640  -31.0690   22.0230 N   0  0  0  0  0  0  0  0  0  0  0  0
  -23.5430  -32.1080   23.6990 O   0  0  0  0  0  0  0  0  0  0  0  0
  -22.7780  -29.4160   22.4590 C   0  0  0  0  0  0  0  0  0  0  0  0
  -21.4530  -29.2230   22.3580 N   0  0  0  0  0  0  0  0  0  0  0  0
  -23.4850  -28.7870   23.2520 O   0  0  0  0  0  0  0  0  0  0  0  0
  -20.9440  -29.7870   21.6930 H   0  0  0  0  0  0  0  0  0  0  0  0
  -18.1030  -27.9820   22.9010 C   0  0  0  0  0  0  0  0  0  0  0  0
  -20.6620  -28.2670   23.1300 C   0  0  0  0  0  3  0  0  0  0  0  0
  -20.7710  -26.8440   22.5340 C   0  0  0  0  0  2  0  0  0  0  0  0
  -19.6530  -26.5220   21.5360 C   0  0  0  0  0  2  0  0  0  0  0  0
  -18.2820  -26.6430   22.2060 C   0  0  0  0  0  2  0  0  0  0  0  0
  -19.2200  -28.7520   23.3210 C   0  0  0  0  0  0  0  0  0  0  0  0
  -18.9980  -30.0060   23.9280 C   0  0  0  0  0  3  0  0  0  0  0  0
  -17.6920  -30.4910   24.1230 C   0  0  0  0  0  3  0  0  0  0  0  0
  -16.5890  -29.7180   23.7200 C   0  0  0  0  0  3  0  0  0  0  0  0
  -16.7950  -28.4660   23.1130 C   0  0  0  0  0  3  0  0  0  0  0  0
  -25.9070  -32.4960   23.7390 C   0  0  0  0  0  3  0  0  0  0  0  0
  -26.4570  -31.7160   24.9960 C   0  0  1  0  0  0  0  0  0  0  0  0
  -25.3880  -31.4540   26.0820 C   0  0  0  0  0  1  0  0  0  0  0  0
  -27.0490  -30.3510   24.5730 C   0  0  0  0  0  1  0  0  0  0  0  0
  -27.6130  -32.5170   25.6440 C   0  0  0  0  0  1  0  0  0  0  0  0
  -25.5880  -33.8870   24.0890 N   0  0  0  0  0  0  0  0  0  0  0  0
  -25.8950  -34.9500   23.3320 C   0  0  0  0  0  0  0  0  0  0  0  0
  -26.5480  -34.8630   22.2870 O   0  0  0  0  0  0  0  0  0  0  0  0
  -25.0040  -34.0260   24.9000 H   0  0  0  0  0  0  0  0  0  0  0  0
  -24.1420  -36.7260   23.0220 C   0  0  0  0  0  1  0  0  0  0  0  0
  -25.4000  -36.3280   23.8100 C   0  0  0  0  0  3  0  0  0  0  0  0
  -27.5370  -37.2310   24.6130 C   0  0  0  0  0  1  0  0  0  0  0  0
  -26.4190  -37.3930   23.6890 N   0  0  0  0  0  0  0  0  0  0  0  0
  -26.0040  -38.3070   23.8520 H   0  0  0  0  0  0  0  0  0  0  0  0
  2  5  1  0
  2  1  1  0
  4  1  1  0
  4  3  1  0
  4 53  1  0
  5  3  1  0
  5  7  1  0
  5  6  1  6
  8 10  2  0
  8  9  1  0
  9 11  2  0
 10 13  1  0
 11 12  1  0
 11  7  1  0
 12 14  1  0
 13 23  1  0
 13 12  2  0
 15 23  1  0
 16 21  1  0
 17 18  1  0
 17 16  1  0
 19 18  1  0
 19 28  1  0
 19 20  1  0
 21 15  1  0
 21 20  1  0
 22 15  2  0
 23 24  1  0
 25 26  2  0
 26 45  1  0
 27 30  1  0
 27 26  1  0
 28 29  1  0
 28 25  1  0
 29 27  2  0
 30 31  1  0
 31 32  2  0
 33 36  1  0
 33 32  1  0
 34 33  2  0
 35 34  1  0
 35 30  2  0
 36 37  1  0
 37 38  1  0
 38 39  2  0
 40 39  1  0
 40 44  1  0
 41 40  2  0
 42 37  2  0
 42 41  1  0
 43 42  1  0
 45 46  1  0
 46 49  1  0
 46 48  1  0
 47 45  2  0
 50 25  1  0
 50 51  1  0
 52 50  1  0
 54 56  1  0
 54 53  1  0
 55 66  2  0
 56 61  1  0
 57 65  1  0
 57 67  1  0
 58 64  1  0
 58 60  1  0
 59 65  1  0
 60 59  1  0
 61 60  2  0
 62 63  1  0
 62 56  2  0
 63 58  2  0
 64 57  1  0
 65 55  1  0
 67 69  2  0
 68 67  1  0
 70 68  1  0
 71 80  2  0
 71 76  1  0
 72 68  1  0
 72 76  1  0
 73 72  1  0
 74 75  1  0
 74 73  1  0
 75 71  1  0
 76 77  2  0
 77 78  1  0
 79 78  2  0
 80 79  1  0
 81 55  1  0
 81 86  1  0
 81 82  1  0
 82 85  1  1
 82 83  1  0
 84 82  1  0
 86 89  1  0
 87 91  1  0
 87 86  1  0
 88 87  2  0
 91 90  1  0
 93 91  1  0
 93 94  1  0
 93 92  1  0
M  ISO  4  15 100  23 100  53 101  54 101
M  END
>  <TORSDO>  (3) 
F 19

>  <SCORE>  (3) 
-12.170

>  <name>  (3) 
2

>  <ligand_id>  (3) 
2

>  <original_smiles>  (3) 
[H]c1c([H])c([H])c2c(c1[H])C([H])([H])C([H])([H])C([H])([H])C2([H])N([H])C(=O)C1([H])N(C(=O)C([H])(N([H])C(=O)C([H])(N([H])C([H])([H])[H])C([H])([H])[H])C(C([H])([H])[H])(C([H])([H])[H])C([H])([H])[H])C([H])([H])c2c([H])c(OC([H])([H])C3([H])C([H])([H])C([H])([H])[N+]([H])(C([H])([H])c4c([H])c([H])c([H])c(N([H])C(=O)N5C([H])([H])C([H])([H])C([H])([H])C([H])(n6nc(-c7c([H])c([H])c(Oc8c([H])c([H])c(F)c([H])c8F)c([H])c7[H])c(C(=O)N([H])[H])c6N([H])[H])C5([H])[H])c4C([H])([H])[H])C3([H])[H])c([H])c([H])c2C1([H])[H]

>  <smiles>  (3) 
[H]c1c([H])c([H])c2c(c1[H])C([H])([H])C([H])([H])C([H])([H])C2([H])N([H])C(=O)C1([H])N(C(=O)C([H])(N([H])C(=O)C([H])(N([H])C([H])([H])[H])C([H])([H])[H])C(C([H])([H])[H])(C([H])([H])[H])C([H])([H])[H])C([H])([H])c2c([H])c(OC([H])([H])C3([H])C([H])([H])C([H])([H])[N+]([H])(C([H])([H])c4c([H])c([H])c([H])c(N([H])C(=O)N5C([H])([H])C([H])([H])C([H])([H])C([H])(n6nc(-c7c([H])c([H])c(Oc8c([H])c([H])c(F)c([H])c8F)c([H])c7[H])c(C(=O)N([H])[H])c6N([H])[H])C5([H])[H])c4C([H])([H])[H])C3([H])[H])c([H])c([H])c2C1([H])[H]

$$$$
3:0:0
     RDKit          3D

126137  0  0  1  0  0  0  0  0999 V2000
  -39.9750  -27.6840   18.8030 C   0  0  0  0  0  2  0  0  0  0  0  0
  -40.3780  -25.3000   18.4480 C   0  0  0  0  0  1  0  0  0  0  0  0
  -39.4090  -26.4120   18.2820 N   0  0  1  0  0  4  0  0  0  0  0  0
  -39.2900  -26.5410   17.2880 H   0  0  0  0  0  0  0  0  0  0  0  0
  -38.0720  -26.0930   18.8630 C   0  0  0  0  0  2  0  0  0  0  0  0
  -37.3080  -24.9920   18.0910 C   0  0  0  0  0  2  0  0  0  0  0  0
  -35.9220  -24.6450   18.6720 C   0  0  0  0  0  2  0  0  0  0  0  0
  -35.9720  -23.8680   20.0040 C   0  0  0  0  0  2  0  0  0  0  0  0
  -34.6280  -23.2030   20.3490 C   0  0  0  0  0  2  0  0  0  0  0  0
  -34.6620  -22.3940   21.6590 C   0  0  0  0  0  2  0  0  0  0  0  0
  -33.3470  -21.6370   21.9190 C   0  0  0  0  0  2  0  0  0  0  0  0
  -33.3390  -20.8940   23.2660 C   0  0  0  0  0  2  0  0  0  0  0  0
  -32.5990  -18.1060   22.4390 C   0  0  0  0  0  3  0  0  0  0  0  0
  -32.1980  -16.8220   21.9870 C   0  0  0  0  0  3  0  0  0  0  0  0
  -30.4700  -18.3900   23.4160 C   0  0  0  0  0  0  0  0  0  0  0  0
  -30.0100  -17.1590   22.9460 C   0  0  0  0  0  0  0  0  0  0  0  0
  -31.7310  -18.9650   23.1630 C   0  0  0  0  0  0  0  0  0  0  0  0
  -30.8780  -16.3420   22.2010 C   0  0  0  0  0  0  0  0  0  0  0  0
  -28.5410  -17.0480   23.2930 C   0  0  0  0  0  2  0  0  0  0  0  0
  -28.1190  -18.4650   23.7170 C   0  0  0  0  0  2  0  0  0  0  0  0
  -29.5530  -20.6260   23.8550 C   0  0  0  0  0  2  0  0  0  0  0  0
  -30.9840  -21.1270   24.1460 C   0  0  0  0  0  2  0  0  0  0  0  0
  -29.4180  -19.1330   24.2080 C   0  0  2  0  0  0  0  0  0  0  0  0
  -32.0400  -20.2880   23.5610 N   0  0  0  0  0  0  0  0  0  0  0  0
  -30.7920  -14.3530   20.6920 C   0  0  0  0  0  0  0  0  0  0  0  0
  -30.4130  -12.2860   19.3960 C   0  0  0  0  0  2  0  0  0  0  0  0
  -29.4830  -12.5290   18.1930 C   0  0  0  0  0  2  0  0  0  0  0  0
  -28.0090  -12.3820   18.6120 C   0  0  0  0  0  2  0  0  0  0  0  0
  -27.6680  -13.2050   19.8810 C   0  0  0  0  0  3  0  0  0  0  0  0
  -28.7070  -12.9530   20.9970 C   0  0  0  0  0  2  0  0  0  0  0  0
  -30.0550  -13.2330   20.4630 N   0  0  0  0  0  0  0  0  0  0  0  0
  -31.7870  -14.6410   20.0200 O   0  0  0  0  0  0  0  0  0  0  0  0
  -30.3850  -15.0910   21.7360 N   0  0  0  0  0  0  0  0  0  0  0  0
  -29.5490  -14.7500   22.1860 H   0  0  0  0  0  0  0  0  0  0  0  0
  -25.2620  -13.8160   20.5690 C   0  0  0  0  0  0  0  0  0  0  0  0
  -24.1850  -13.0450   20.9160 C   0  0  0  0  0  0  0  0  0  0  0  0
  -24.6400  -11.6910   20.8730 C   0  0  0  0  0  0  0  0  0  0  0  0
  -26.3060  -12.9340   20.3400 N   0  0  0  0  0  0  0  0  0  0  0  0
  -25.9340  -11.6490   20.5770 N   0  0  0  0  0  0  0  0  0  0  0  0
  -23.9070  -10.4300   21.0400 C   0  0  0  0  0  0  0  0  0  0  0  0
  -24.3610   -9.4210   21.9180 C   0  0  0  0  0  3  0  0  0  0  0  0
  -23.6290   -8.2250   22.0750 C   0  0  0  0  0  3  0  0  0  0  0  0
  -22.4270   -8.0280   21.3550 C   0  0  0  0  0  0  0  0  0  0  0  0
  -21.9910   -9.0250   20.4650 C   0  0  0  0  0  3  0  0  0  0  0  0
  -22.7230  -10.2130   20.3050 C   0  0  0  0  0  3  0  0  0  0  0  0
  -21.6640   -6.8880   21.4240 O   0  0  0  0  0  0  0  0  0  0  0  0
  -21.6850   -6.0740   22.5280 C   0  0  0  0  0  0  0  0  0  0  0  0
  -21.4010   -6.5640   23.8210 C   0  0  0  0  0  3  0  0  0  0  0  0
  -21.3660   -5.6790   24.9170 C   0  0  0  0  0  3  0  0  0  0  0  0
  -21.6050   -4.3060   24.7220 C   0  0  0  0  0  0  0  0  0  0  0  0
  -21.8820   -3.8150   23.4340 C   0  0  0  0  0  3  0  0  0  0  0  0
  -21.9190   -4.6970   22.3400 C   0  0  0  0  0  0  0  0  0  0  0  0
  -22.1660   -4.2150   21.0980 F   0  0  0  0  0  0  0  0  0  0  0  0
  -21.5630   -3.4540   25.7740 F   0  0  0  0  0  0  0  0  0  0  0  0
  -22.7870  -13.5250   21.1830 C   0  0  0  0  0  0  0  0  0  0  0  0
  -22.0510  -12.8240   22.0390 N   0  0  0  0  0  0  0  0  0  0  0  0
  -22.3560  -14.5560   20.6690 O   0  0  0  0  0  0  0  0  0  0  0  0
  -22.4110  -11.9890   22.4770 H   0  0  0  0  0  0  0  0  0  0  0  0
  -21.1140  -13.1280   22.2590 H   0  0  0  0  0  0  0  0  0  0  0  0
  -25.4350  -15.1880   20.4110 N   0  0  0  0  0  0  0  0  0  0  0  0
  -24.6720  -15.8480   20.5170 H   0  0  0  0  0  0  0  0  0  0  0  0
  -26.2950  -15.6250   20.1010 H   0  0  0  0  0  0  0  0  0  0  0  0
  -28.6980  -19.6310   26.6770 C   0  0  0  0  0  1  0  0  0  0  0  0
  -29.6230  -18.8540   25.7250 C   0  0  0  0  0  2  0  0  0  0  0  0
  -39.4140  -28.9400   18.1020 C   0  0  0  0  0  2  0  0  0  0  0  0
  -39.9480  -30.2590   18.6940 C   0  0  0  0  0  2  0  0  0  0  0  0
  -39.4140  -30.5120   20.1120 C   0  0  0  0  0  2  0  0  0  0  0  0
  -39.7350  -31.9130   20.6630 C   0  0  0  0  0  2  0  0  0  0  0  0
  -39.0000  -32.2260   21.9860 C   0  0  0  0  0  2  0  0  0  0  0  0
  -36.7030  -32.7420   21.2100 C   0  0  0  0  0  0  0  0  0  0  0  0
  -37.5650  -31.9650   21.8750 N   0  0  0  0  0  0  0  0  0  0  0  0
  -36.9800  -33.8830   20.8310 O   0  0  0  0  0  0  0  0  0  0  0  0
  -37.2400  -31.0460   22.1430 H   0  0  0  0  0  0  0  0  0  0  0  0
  -34.8440  -32.4030   19.5530 C   0  0  0  0  0  3  0  0  0  0  0  0
  -33.6270  -31.8240   19.1540 C   0  0  0  0  0  3  0  0  0  0  0  0
  -34.7340  -31.1820   21.6520 C   0  0  0  0  0  3  0  0  0  0  0  0
  -35.4110  -32.0890   20.8040 C   0  0  0  0  0  0  0  0  0  0  0  0
  -33.5080  -30.5960   21.2580 C   0  0  0  0  0  0  0  0  0  0  0  0
  -32.9530  -30.9130   19.9900 C   0  0  0  0  0  0  0  0  0  0  0  0
  -32.8000  -29.6730   22.2320 C   0  0  0  0  0  1  0  0  0  0  0  0
  -31.7140  -30.4370   19.5440 N   0  0  0  0  0  0  0  0  0  0  0  0
  -31.3400  -30.9900   18.7760 H   0  0  0  0  0  0  0  0  0  0  0  0
  -31.5140  -29.0050   19.3230 C   0  0  0  0  0  2  0  0  0  0  0  0
  -30.1550  -28.5770   19.9020 C   0  0  0  0  0  2  0  0  0  0  0  0
  -29.5290  -27.2940   19.3110 C   0  0  0  0  0  2  0  0  0  0  0  0
  -28.4260  -26.7590   20.0590 O   0  0  0  0  0  0  0  0  0  0  0  0
  -24.6040  -31.8740   23.2130 C   0  0  0  0  0  0  0  0  0  0  0  0
  -27.2600  -27.4920   20.0900 C   0  0  0  0  0  0  0  0  0  0  0  0
  -23.3890  -30.4910   21.5540 C   0  0  0  0  0  3  0  0  0  0  0  0
  -24.8400  -28.9550   20.1220 C   0  0  0  0  0  0  0  0  0  0  0  0
  -25.9090  -30.8480   21.3650 C   0  0  0  0  0  2  0  0  0  0  0  0
  -25.9880  -29.4810   20.7270 C   0  0  0  0  0  0  0  0  0  0  0  0
  -27.1840  -28.7420   20.7420 C   0  0  0  0  0  3  0  0  0  0  0  0
  -26.0930  -26.9620   19.4980 C   0  0  0  0  0  3  0  0  0  0  0  0
  -24.8820  -27.6850   19.5160 C   0  0  0  0  0  3  0  0  0  0  0  0
  -23.5980  -29.8160   20.1700 C   0  0  0  0  0  2  0  0  0  0  0  0
  -24.6510  -31.0850   22.1030 N   0  0  0  0  0  0  0  0  0  0  0  0
  -23.5260  -32.1510   23.7540 O   0  0  0  0  0  0  0  0  0  0  0  0
  -22.7350  -29.4650   22.5050 C   0  0  0  0  0  0  0  0  0  0  0  0
  -21.4080  -29.3000   22.3770 N   0  0  0  0  0  0  0  0  0  0  0  0
  -23.4160  -28.8220   23.3090 O   0  0  0  0  0  0  0  0  0  0  0  0
  -20.9190  -29.8650   21.6980 H   0  0  0  0  0  0  0  0  0  0  0  0
  -18.0240  -28.1350   22.8520 C   0  0  0  0  0  0  0  0  0  0  0  0
  -20.5810  -28.3630   23.1360 C   0  0  0  0  0  3  0  0  0  0  0  0
  -20.6730  -26.9380   22.5440 C   0  0  0  0  0  2  0  0  0  0  0  0
  -19.5740  -26.6370   21.5210 C   0  0  0  0  0  2  0  0  0  0  0  0
  -18.1910  -26.7900   22.1600 C   0  0  0  0  0  2  0  0  0  0  0  0
  -19.1480  -28.8800   23.2940 C   0  0  0  0  0  0  0  0  0  0  0  0
  -18.9420  -30.1430   23.8920 C   0  0  0  0  0  3  0  0  0  0  0  0
  -17.6420  -30.6570   24.0550 C   0  0  0  0  0  3  0  0  0  0  0  0
  -16.5310  -29.9070   23.6330 C   0  0  0  0  0  3  0  0  0  0  0  0
  -16.7230  -28.6470   23.0370 C   0  0  0  0  0  3  0  0  0  0  0  0
  -25.8980  -32.4840   23.8390 C   0  0  0  0  0  3  0  0  0  0  0  0
  -25.5870  -33.8640   24.2340 N   0  0  0  0  0  0  0  0  0  0  0  0
  -25.9020  -34.9510   23.5150 C   0  0  0  0  0  0  0  0  0  0  0  0
  -26.5590  -34.8970   22.4720 O   0  0  0  0  0  0  0  0  0  0  0  0
  -25.0060  -33.9770   25.0510 H   0  0  0  0  0  0  0  0  0  0  0  0
  -24.1470  -36.7330   23.2620 C   0  0  0  0  0  1  0  0  0  0  0  0
  -25.4100  -36.3140   24.0350 C   0  0  0  0  0  3  0  0  0  0  0  0
  -27.5620  -37.1790   24.8450 C   0  0  0  0  0  1  0  0  0  0  0  0
  -26.4300  -37.3840   23.9430 N   0  0  0  0  0  0  0  0  0  0  0  0
  -26.0230  -38.2930   24.1470 H   0  0  0  0  0  0  0  0  0  0  0  0
  -26.4470  -31.6590   25.0670 C   0  0  1  0  0  0  0  0  0  0  0  0
  -25.3760  -31.3660   26.1440 C   0  0  0  0  0  1  0  0  0  0  0  0
  -27.0320  -30.3020   24.6050 C   0  0  0  0  0  1  0  0  0  0  0  0
  -27.6080  -32.4250   25.7430 C   0  0  0  0  0  1  0  0  0  0  0  0
  3  2  1  0
  3  1  1  0
  3  5  1  0
  3  4  1  6
  6  7  1  0
  6  5  1  0
  7  8  1  0
  8  9  1  0
  9 10  1  0
 10 11  1  0
 11 12  1  0
 12 24  1  0
 13 17  1  0
 14 18  1  0
 14 13  2  0
 15 23  1  0
 16 19  1  0
 16 15  1  0
 17 15  2  0
 17 24  1  0
 18 16  2  0
 19 20  1  0
 20 23  1  0
 21 22  1  0
 21 23  1  0
 23 64  1  1
 24 22  1  0
 25 33  1  0
 26 31  1  0
 27 28  1  0
 27 26  1  0
 29 28  1  0
 29 38  1  0
 29 30  1  0
 31 25  1  0
 31 30  1  0
 32 25  2  0
 33 34  1  0
 33 18  1  0
 35 36  2  0
 36 55  1  0
 37 36  1  0
 37 40  1  0
 38 35  1  0
 38 39  1  0
 39 37  2  0
 40 41  1  0
 41 42  2  0
 43 46  1  0
 43 42  1  0
 44 43  2  0
 45 44  1  0
 45 40  2  0
 46 47  1  0
 47 48  1  0
 48 49  2  0
 50 49  1  0
 50 54  1  0
 51 50  2  0
 52 47  2  0
 52 51  1  0
 53 52  1  0
 55 56  1  0
 56 59  1  0
 56 58  1  0
 57 55  2  0
 60 61  1  0
 60 35  1  0
 62 60  1  0
 64 63  1  0
 65 66  1  0
 65  1  1  0
 66 67  1  0
 67 68  1  0
 68 69  1  0
 70 71  1  0
 71 69  1  0
 71 73  1  0
 72 70  2  0
 74 77  1  0
 75 74  2  0
 75 79  1  0
 77 70  1  0
 77 76  2  0
 78 76  1  0
 78 80  1  0
 79 78  2  0
 81 79  1  0
 82 81  1  0
 83 81  1  0
 83 84  1  0
 85 84  1  0
 85 86  1  0
 86 88  1  0
 87 98  2  0
 88 93  1  0
 89 97  1  0
 89 99  1  0
 90 96  1  0
 90 92  1  0
 91 97  1  0
 92 93  2  0
 92 91  1  0
 94 95  1  0
 94 88  2  0
 95 90  2  0
 96 89  1  0
 97 87  1  0
 99101  2  0
100 99  1  0
102100  1  0
103112  2  0
103108  1  0
104100  1  0
104108  1  0
105104  1  0
106107  1  0
106105  1  0
107103  1  0
108109  2  0
109110  1  0
111110  2  0
112111  1  0
113 87  1  0
113114  1  0
113123  1  0
114117  1  0
115119  1  0
115114  1  0
116115  2  0
119118  1  0
121119  1  0
121122  1  0
121120  1  0
123126  1  1
123124  1  0
125123  1  0
M  ISO  4  25 100  33 100  85 101  86 101
M  END
>  <TORSDO>  (4) 
F 38

>  <SCORE>  (4) 
16.003

>  <name>  (4) 
3

>  <ligand_id>  (4) 
3

>  <original_smiles>  (4) 
[H]c1c([H])c([H])c2c(c1[H])C([H])([H])C([H])([H])C([H])([H])C2([H])N([H])C(=O)C1([H])N(C(=O)C([H])(N([H])C(=O)C([H])(N([H])C([H])([H])[H])C([H])([H])[H])C(C([H])([H])[H])(C([H])([H])[H])C([H])([H])[H])C([H])([H])c2c([H])c(OC([H])([H])C([H])([H])C([H])([H])N([H])c3c([H])c([H])c(C(=O)N([H])C([H])([H])C([H])([H])C([H])([H])C([H])([H])C([H])([H])C([H])([H])[N+]([H])(C([H])([H])[H])C([H])([H])C([H])([H])C([H])([H])C([H])([H])C([H])([H])C([H])([H])C([H])([H])C([H])([H])N4c5c([H])c([H])c(N([H])C(=O)N6C([H])([H])C([H])([H])C([H])([H])C([H])(n7nc(-c8c([H])c([H])c(Oc9c([H])c([H])c(F)c([H])c9F)c([H])c8[H])c(C(=O)N([H])[H])c7N([H])[H])C6([H])[H])c6c5C(C([H])([H])C([H])([H])[H])(C([H])([H])C6([H])[H])C([H])([H])C4([H])[H])c([H])c3C([H])([H])[H])c([H])c([H])c2C1([H])[H]

>  <smiles>  (4) 
[H]c1c([H])c([H])c2c(c1[H])C([H])([H])C([H])([H])C([H])([H])C2([H])N([H])C(=O)C1([H])N(C(=O)C([H])(N([H])C(=O)C([H])(N([H])C([H])([H])[H])C([H])([H])[H])C(C([H])([H])[H])(C([H])([H])[H])C([H])([H])[H])C([H])([H])c2c([H])c(OC([H])([H])C([H])([H])C([H])([H])N([H])c3c([H])c([H])c(C(=O)N([H])C([H])([H])C([H])([H])C([H])([H])C([H])([H])C([H])([H])C([H])([H])[N+]([H])(C([H])([H])[H])C([H])([H])C([H])([H])C([H])([H])C([H])([H])C([H])([H])C([H])([H])C([H])([H])C([H])([H])N4c5c([H])c([H])c(N([H])C(=O)N6C([H])([H])C([H])([H])C([H])([H])C([H])(n7nc(-c8c([H])c([H])c(Oc9c([H])c([H])c(F)c([H])c9F)c([H])c8[H])c(C(=O)N([H])[H])c7N([H])[H])C6([H])[H])c6c5C(C([H])([H])C([H])([H])[H])(C([H])([H])C6([H])[H])C([H])([H])C4([H])[H])c([H])c3C([H])([H])[H])c([H])c([H])c2C1([H])[H]

$$$$
4:0:0
     RDKit          3D

 99109  0  0  1  0  0  0  0  0999 V2000
  -28.7890  -22.0190   20.4970 C   0  0  0  0  0  3  0  0  0  0  0  0
  -30.9680  -14.7940   20.6400 C   0  0  0  0  0  0  0  0  0  0  0  0
  -30.7720  -12.5120   19.7310 C   0  0  0  0  0  2  0  0  0  0  0  0
  -29.9100  -12.5790   18.4530 C   0  0  0  0  0  2  0  0  0  0  0  0
  -28.4110  -12.4630   18.8000 C   0  0  0  0  0  2  0  0  0  0  0  0
  -27.9800  -13.4070   19.9550 C   0  0  0  0  0  3  0  0  0  0  0  0
  -28.9700  -13.3400   21.1400 C   0  0  0  0  0  2  0  0  0  0  0  0
  -30.3180  -13.5970   20.6130 N   0  0  0  0  0  0  0  0  0  0  0  0
  -32.1780  -14.8960   20.4220 O   0  0  0  0  0  0  0  0  0  0  0  0
  -29.5710  -19.5980   21.0600 C   0  0  0  0  0  3  0  0  0  0  0  0
  -29.2000  -20.2060   18.7130 C   0  0  0  0  0  3  0  0  0  0  0  0
  -29.8270  -18.2660   20.6410 C   0  0  0  0  0  0  0  0  0  0  0  0
  -29.7740  -17.9270   19.3040 C   0  0  0  0  0  0  0  0  0  0  0  0
  -29.2330  -20.5870   20.0840 C   0  0  0  0  0  0  0  0  0  0  0  0
  -29.4760  -18.8780   18.3140 C   0  0  0  0  0  0  0  0  0  0  0  0
  -30.1310  -17.0160   21.4580 C   0  0  0  0  0  3  0  0  0  0  0  0
  -30.0390  -16.4540   19.1290 C   0  0  0  0  0  3  0  0  0  0  0  0
  -30.1620  -15.8800   20.4930 N   0  0  0  0  0  0  0  0  0  0  0  0
  -29.4170  -18.4350   16.6450 Cl  0  0  0  0  0  0  0  0  0  0  0  0
  -25.5650  -14.0550   20.5460 C   0  0  0  0  0  0  0  0  0  0  0  0
  -24.4670  -13.3020   20.8590 C   0  0  0  0  0  0  0  0  0  0  0  0
  -24.9080  -11.9420   20.8600 C   0  0  0  0  0  0  0  0  0  0  0  0
  -26.6060  -13.1560   20.3730 N   0  0  0  0  0  0  0  0  0  0  0  0
  -26.2120  -11.8810   20.6220 N   0  0  0  0  0  0  0  0  0  0  0  0
  -24.1550  -10.6920   21.0150 C   0  0  0  0  0  0  0  0  0  0  0  0
  -24.5490   -9.7030   21.9420 C   0  0  0  0  0  3  0  0  0  0  0  0
  -23.7980   -8.5170   22.0860 C   0  0  0  0  0  3  0  0  0  0  0  0
  -22.6360   -8.3130   21.3030 C   0  0  0  0  0  0  0  0  0  0  0  0
  -22.2610   -9.2910   20.3650 C   0  0  0  0  0  3  0  0  0  0  0  0
  -23.0140  -10.4680   20.2190 C   0  0  0  0  0  3  0  0  0  0  0  0
  -21.8590   -7.1820   21.3590 O   0  0  0  0  0  0  0  0  0  0  0  0
  -21.7720   -6.4230   22.4980 C   0  0  0  0  0  0  0  0  0  0  0  0
  -21.3420   -6.9700   23.7280 C   0  0  0  0  0  3  0  0  0  0  0  0
  -21.2010   -6.1370   24.8550 C   0  0  0  0  0  3  0  0  0  0  0  0
  -21.4800   -4.7610   24.7570 C   0  0  0  0  0  0  0  0  0  0  0  0
  -21.9040   -4.2150   23.5330 C   0  0  0  0  0  3  0  0  0  0  0  0
  -22.0460   -5.0440   22.4050 C   0  0  0  0  0  0  0  0  0  0  0  0
  -22.4340   -4.5090   21.2230 F   0  0  0  0  0  0  0  0  0  0  0  0
  -21.3380   -3.9590   25.8390 F   0  0  0  0  0  0  0  0  0  0  0  0
  -23.0640  -13.8020   21.0570 C   0  0  0  0  0  0  0  0  0  0  0  0
  -22.2910  -13.1340   21.9050 N   0  0  0  0  0  0  0  0  0  0  0  0
  -22.6620  -14.8190   20.4940 O   0  0  0  0  0  0  0  0  0  0  0  0
  -22.6300  -12.3120   22.3810 H   0  0  0  0  0  0  0  0  0  0  0  0
  -21.3480  -13.4490   22.0830 H   0  0  0  0  0  0  0  0  0  0  0  0
  -25.7610  -15.4210   20.3740 N   0  0  0  0  0  0  0  0  0  0  0  0
  -24.9990  -16.0860   20.4490 H   0  0  0  0  0  0  0  0  0  0  0  0
  -26.6420  -15.8540   20.1260 H   0  0  0  0  0  0  0  0  0  0  0  0
  -29.9330  -22.9830   20.5690 N   0  0  0  0  0  4  0  0  0  0  0  0
  -30.6230  -22.5470   21.1610 H   0  0  0  0  0  0  0  0  0  0  0  0
  -30.3580  -23.0620   19.6590 H   0  0  0  0  0  0  0  0  0  0  0  0
  -29.6800  -24.3600   21.1250 C   0  0  0  0  0  2  0  0  0  0  0  0
  -29.4410  -25.4530   20.0380 C   0  0  0  0  0  2  0  0  0  0  0  0
  -29.2410  -26.7920   20.5770 O   0  0  0  0  0  0  0  0  0  0  0  0
  -24.8670  -31.7200   23.3380 C   0  0  0  0  0  0  0  0  0  0  0  0
  -28.0290  -27.4630   20.4340 C   0  0  0  0  0  0  0  0  0  0  0  0
  -23.8980  -30.2840   21.5770 C   0  0  0  0  0  3  0  0  0  0  0  0
  -25.5580  -28.8670   20.2580 C   0  0  0  0  0  0  0  0  0  0  0  0
  -26.4100  -30.7830   21.6120 C   0  0  0  0  0  2  0  0  0  0  0  0
  -26.6300  -29.4290   20.9600 C   0  0  0  0  0  0  0  0  0  0  0  0
  -27.8630  -28.7340   21.0480 C   0  0  0  0  0  3  0  0  0  0  0  0
  -26.9330  -26.9420   19.7010 C   0  0  0  0  0  3  0  0  0  0  0  0
  -25.7080  -27.6250   19.6250 C   0  0  0  0  0  3  0  0  0  0  0  0
  -24.2670  -29.6530   20.2090 C   0  0  0  0  0  2  0  0  0  0  0  0
  -25.0710  -30.9450   22.2350 N   0  0  0  0  0  0  0  0  0  0  0  0
  -23.7290  -31.9160   23.7830 O   0  0  0  0  0  0  0  0  0  0  0  0
  -23.2300  -29.2030   22.4580 C   0  0  0  0  0  0  0  0  0  0  0  0
  -21.9190  -28.9890   22.2560 N   0  0  0  0  0  0  0  0  0  0  0  0
  -23.8900  -28.5650   23.2830 O   0  0  0  0  0  0  0  0  0  0  0  0
  -21.4470  -29.5590   21.5690 H   0  0  0  0  0  0  0  0  0  0  0  0
  -18.5460  -27.7390   22.5980 C   0  0  0  0  0  0  0  0  0  0  0  0
  -21.0940  -27.9960   22.9450 C   0  0  0  0  0  3  0  0  0  0  0  0
  -21.2220  -26.6070   22.2780 C   0  0  0  0  0  2  0  0  0  0  0  0
  -20.1460  -26.3430   21.2200 C   0  0  0  0  0  2  0  0  0  0  0  0
  -18.7480  -26.4380   21.8400 C   0  0  0  0  0  2  0  0  0  0  0  0
  -19.6480  -28.4790   23.1030 C   0  0  0  0  0  0  0  0  0  0  0  0
  -19.4050  -29.6990   23.7690 C   0  0  0  0  0  3  0  0  0  0  0  0
  -18.0930  -30.1810   23.9360 C   0  0  0  0  0  3  0  0  0  0  0  0
  -17.0050  -29.4370   23.4480 C   0  0  0  0  0  3  0  0  0  0  0  0
  -17.2320  -28.2170   22.7850 C   0  0  0  0  0  3  0  0  0  0  0  0
  -26.0530  -32.4150   24.0760 C   0  0  0  0  0  3  0  0  0  0  0  0
  -25.6480  -33.7990   24.3570 N   0  0  0  0  0  0  0  0  0  0  0  0
  -25.9940  -34.8590   23.6160 C   0  0  0  0  0  0  0  0  0  0  0  0
  -26.7590  -34.7790   22.6500 O   0  0  0  0  0  0  0  0  0  0  0  0
  -24.9760  -33.9310   25.1000 H   0  0  0  0  0  0  0  0  0  0  0  0
  -24.2110  -36.5520   23.0890 C   0  0  0  0  0  1  0  0  0  0  0  0
  -25.4000  -36.2260   24.0060 C   0  0  0  0  0  3  0  0  0  0  0  0
  -27.4120  -37.2300   24.9910 C   0  0  0  0  0  1  0  0  0  0  0  0
  -26.3830  -37.3300   23.9610 N   0  0  0  0  0  0  0  0  0  0  0  0
  -25.9190  -38.2290   24.0620 H   0  0  0  0  0  0  0  0  0  0  0  0
  -26.4760  -31.6770   25.4050 C   0  0  1  0  0  0  0  0  0  0  0  0
  -25.2930  -31.3860   26.3580 C   0  0  0  0  0  1  0  0  0  0  0  0
  -27.1650  -30.3300   25.0850 C   0  0  0  0  0  1  0  0  0  0  0  0
  -27.5120  -32.5310   26.1730 C   0  0  0  0  0  1  0  0  0  0  0  0
  -27.6710  -22.5450   19.5490 C   0  0  0  0  0  2  0  0  0  0  0  0
  -25.2050  -20.0840   18.3120 C   0  0  0  0  0  2  0  0  0  0  0  0
  -25.5850  -20.8450   17.0440 C   0  0  0  0  0  2  0  0  0  0  0  0
  -25.9360  -20.8120   19.4420 C   0  0  0  0  0  2  0  0  0  0  0  0
  -26.4140  -22.0260   17.5430 C   0  0  0  0  0  2  0  0  0  0  0  0
  -27.0300  -21.4930   18.7530 N   0  0  0  0  0  0  0  0  0  0  0  0
  1 94  1  0
  1 48  1  0
  3  8  1  0
  4  5  1  0
  4  3  1  0
  6  5  1  0
  6 23  1  0
  6  7  1  0
  8  2  1  0
  8  7  1  0
  9  2  2  0
 11 14  1  0
 12 10  1  0
 12 16  2  0
 13 12  1  0
 14  1  1  0
 14 10  2  0
 15 11  2  0
 15 13  1  0
 17 13  2  0
 17 18  1  0
 18  2  1  0
 18 16  1  0
 19 15  1  0
 20 21  2  0
 21 22  1  0
 21 40  1  0
 22 25  1  0
 23 20  1  0
 23 24  1  0
 24 22  2  0
 25 26  1  0
 26 27  2  0
 28 31  1  0
 28 27  1  0
 29 28  2  0
 30 29  1  0
 30 25  2  0
 31 32  1  0
 32 33  1  0
 33 34  2  0
 35 34  1  0
 35 39  1  0
 36 35  2  0
 37 32  2  0
 37 36  1  0
 38 37  1  0
 40 41  1  0
 41 44  1  0
 41 43  1  0
 42 40  2  0
 45 46  1  0
 45 20  1  0
 47 45  1  0
 48 51  1  0
 48 49  1  0
 50 48  1  0
 52 53  1  0
 52 51  1  0
 54 65  2  0
 55 53  1  0
 55 60  1  0
 56 64  1  0
 56 66  1  0
 57 59  1  0
 58 64  1  0
 59 60  2  0
 59 58  1  0
 61 55  2  0
 62 61  1  0
 62 57  2  0
 63 57  1  0
 63 56  1  0
 64 54  1  0
 66 68  2  0
 67 66  1  0
 69 67  1  0
 70 79  2  0
 70 75  1  0
 71 67  1  0
 71 75  1  0
 72 71  1  0
 73 74  1  0
 73 72  1  0
 74 70  1  0
 75 76  2  0
 76 77  1  0
 78 77  2  0
 79 78  1  0
 80 54  1  0
 80 81  1  0
 80 90  1  0
 81 84  1  0
 82 86  1  0
 82 81  1  0
 83 82  2  0
 86 85  1  0
 88 86  1  0
 88 89  1  0
 88 87  1  0
 90 93  1  1
 90 91  1  0
 92 90  1  0
 95 97  1  0
 96 98  1  0
 96 95  1  0
 98 99  1  0
 99 97  1  0
 99 94  1  0
M  ISO  4   2 100  18 100  52 101  53 101
M  END
>  <TORSDO>  (5) 
F 21

>  <SCORE>  (5) 
-11.798

>  <name>  (5) 
4

>  <ligand_id>  (5) 
4

>  <original_smiles>  (5) 
[H]c1c([H])c([H])c2c(c1[H])C([H])([H])C([H])([H])C([H])([H])C2([H])N([H])C(=O)C1([H])N(C(=O)C([H])(N([H])C(=O)C([H])(N([H])C([H])([H])[H])C([H])([H])[H])C(C([H])([H])[H])(C([H])([H])[H])C([H])([H])[H])C([H])([H])c2c([H])c(OC([H])([H])C([H])([H])[N+]([H])([H])C([H])(c3c([H])c(Cl)c4c(c3[H])C([H])([H])N(C(=O)N3C([H])([H])C([H])([H])C([H])([H])C([H])(n5nc(-c6c([H])c([H])c(Oc7c([H])c([H])c(F)c([H])c7F)c([H])c6[H])c(C(=O)N([H])[H])c5N([H])[H])C3([H])[H])C4([H])[H])C([H])([H])N3C([H])([H])C([H])([H])C([H])([H])C3([H])[H])c([H])c([H])c2C1([H])[H]

>  <smiles>  (5) 
[H]c1c([H])c([H])c2c(c1[H])C([H])([H])C([H])([H])C([H])([H])C2([H])N([H])C(=O)C1([H])N(C(=O)C([H])(N([H])C(=O)C([H])(N([H])C([H])([H])[H])C([H])([H])[H])C(C([H])([H])[H])(C([H])([H])[H])C([H])([H])[H])C([H])([H])c2c([H])c(OC([H])([H])C([H])([H])[N+]([H])([H])C([H])(c3c([H])c(Cl)c4c(c3[H])C([H])([H])N(C(=O)N3C([H])([H])C([H])([H])C([H])([H])C([H])(n5nc(-c6c([H])c([H])c(Oc7c([H])c([H])c(F)c([H])c7F)c([H])c6[H])c(C(=O)N([H])[H])c5N([H])[H])C3([H])[H])C4([H])[H])C([H])([H])N3C([H])([H])C([H])([H])C([H])([H])C3([H])[H])c([H])c([H])c2C1([H])[H]

$$$$
5:0:0
     RDKit          3D

 95104  0  0  1  0  0  0  0  0999 V2000
  -29.3460  -21.2120   22.1830 C   0  0  0  0  0  2  0  0  0  0  0  0
  -29.0910  -20.8830   19.7190 C   0  0  0  0  0  2  0  0  0  0  0  0
  -29.5360  -22.7290   21.9560 C   0  0  0  0  0  2  0  0  0  0  0  0
  -29.2660  -22.4110   19.5130 C   0  0  0  0  0  2  0  0  0  0  0  0
  -29.6930  -20.4630   20.9800 N   0  0  0  0  0  0  0  0  0  0  0  0
  -28.8620  -23.2040   20.7130 N   0  0  2  0  0  4  0  0  0  0  0  0
  -27.8850  -23.0020   20.8640 H   0  0  0  0  0  0  0  0  0  0  0  0
  -32.5920  -18.1820   21.5670 C   0  0  0  0  0  3  0  0  0  0  0  0
  -32.0250  -16.9320   21.2660 C   0  0  0  0  0  3  0  0  0  0  0  0
  -29.9030  -18.0220   20.7630 C   0  0  0  0  0  3  0  0  0  0  0  0
  -31.8290  -19.3600   21.4610 C   0  0  0  0  0  0  0  0  0  0  0  0
  -30.4670  -19.2890   21.0680 C   0  0  0  0  0  0  0  0  0  0  0  0
  -30.6810  -16.8390   20.8430 C   0  0  0  0  0  0  0  0  0  0  0  0
  -32.5130  -20.6880   21.7460 C   0  0  0  0  0  1  0  0  0  0  0  0
  -30.6820  -14.5970   19.8010 C   0  0  0  0  0  0  0  0  0  0  0  0
  -30.2760  -12.4590   18.6370 C   0  0  0  0  0  2  0  0  0  0  0  0
  -29.2040  -12.6430   17.5470 C   0  0  0  0  0  2  0  0  0  0  0  0
  -27.7930  -12.4580   18.1370 C   0  0  0  0  0  2  0  0  0  0  0  0
  -27.5750  -13.2810   19.4360 C   0  0  0  0  0  3  0  0  0  0  0  0
  -28.7510  -13.0880   20.4200 C   0  0  0  0  0  2  0  0  0  0  0  0
  -29.9960  -13.4260   19.7100 N   0  0  0  0  0  0  0  0  0  0  0  0
  -31.7120  -14.8120   19.1550 O   0  0  0  0  0  0  0  0  0  0  0  0
  -30.1090  -15.5650   20.5430 N   0  0  0  0  0  0  0  0  0  0  0  0
  -29.1780  -15.3780   20.8850 H   0  0  0  0  0  0  0  0  0  0  0  0
  -25.2750  -13.8200   20.4570 C   0  0  0  0  0  0  0  0  0  0  0  0
  -24.2640  -13.0160   20.9110 C   0  0  0  0  0  0  0  0  0  0  0  0
  -24.7270  -11.6740   20.7540 C   0  0  0  0  0  0  0  0  0  0  0  0
  -26.2900  -12.9650   20.0580 N   0  0  0  0  0  0  0  0  0  0  0  0
  -25.9710  -11.6660   20.2910 N   0  0  0  0  0  0  0  0  0  0  0  0
  -24.0370  -10.3950   20.9620 C   0  0  0  0  0  0  0  0  0  0  0  0
  -24.4820   -9.4640   21.9270 C   0  0  0  0  0  3  0  0  0  0  0  0
  -23.7920   -8.2490   22.1220 C   0  0  0  0  0  3  0  0  0  0  0  0
  -22.6420   -7.9540   21.3500 C   0  0  0  0  0  0  0  0  0  0  0  0
  -22.2170   -8.8730   20.3750 C   0  0  0  0  0  3  0  0  0  0  0  0
  -22.9080  -10.0810   20.1790 C   0  0  0  0  0  3  0  0  0  0  0  0
  -21.9240   -6.7870   21.4520 O   0  0  0  0  0  0  0  0  0  0  0  0
  -21.7800   -6.1330   22.6490 C   0  0  0  0  0  0  0  0  0  0  0  0
  -21.1640   -6.7440   23.7630 C   0  0  0  0  0  3  0  0  0  0  0  0
  -20.9740   -6.0120   24.9530 C   0  0  0  0  0  3  0  0  0  0  0  0
  -21.3900   -4.6690   25.0270 C   0  0  0  0  0  0  0  0  0  0  0  0
  -21.9990   -4.0570   23.9160 C   0  0  0  0  0  3  0  0  0  0  0  0
  -22.1900   -4.7870   22.7300 C   0  0  0  0  0  0  0  0  0  0  0  0
  -22.7580   -4.1860   21.6570 F   0  0  0  0  0  0  0  0  0  0  0  0
  -21.2010   -3.9620   26.1660 F   0  0  0  0  0  0  0  0  0  0  0  0
  -22.9060  -13.4610   21.3740 C   0  0  0  0  0  0  0  0  0  0  0  0
  -22.2830  -12.6990   22.2660 N   0  0  0  0  0  0  0  0  0  0  0  0
  -22.4100  -14.5160   20.9810 O   0  0  0  0  0  0  0  0  0  0  0  0
  -22.6990  -11.8430   22.6040 H   0  0  0  0  0  0  0  0  0  0  0  0
  -21.3780  -12.9760   22.6170 H   0  0  0  0  0  0  0  0  0  0  0  0
  -25.4090  -15.2000   20.3320 N   0  0  0  0  0  0  0  0  0  0  0  0
  -24.6560  -15.8410   20.5580 H   0  0  0  0  0  0  0  0  0  0  0  0
  -26.2090  -15.6610   19.9130 H   0  0  0  0  0  0  0  0  0  0  0  0
  -28.9920  -24.6840   20.5250 C   0  0  0  0  0  2  0  0  0  0  0  0
  -27.8480  -25.2960   19.6920 C   0  0  0  0  0  2  0  0  0  0  0  0
  -27.9730  -26.7280   19.6200 O   0  0  0  0  0  0  0  0  0  0  0  0
  -24.4670  -31.8110   23.1480 C   0  0  0  0  0  0  0  0  0  0  0  0
  -26.8080  -27.4690   19.7010 C   0  0  0  0  0  0  0  0  0  0  0  0
  -23.1200  -30.4820   21.5570 C   0  0  0  0  0  3  0  0  0  0  0  0
  -24.4380  -28.9960   19.9580 C   0  0  0  0  0  0  0  0  0  0  0  0
  -25.6250  -30.8310   21.1700 C   0  0  0  0  0  2  0  0  0  0  0  0
  -25.6450  -29.4860   20.4720 C   0  0  0  0  0  0  0  0  0  0  0  0
  -26.8330  -28.7310   20.3390 C   0  0  0  0  0  3  0  0  0  0  0  0
  -25.5830  -27.0040   19.1670 C   0  0  0  0  0  3  0  0  0  0  0  0
  -24.4020  -27.7540   19.3030 C   0  0  0  0  0  3  0  0  0  0  0  0
  -23.2090  -29.8590   20.1390 C   0  0  0  0  0  2  0  0  0  0  0  0
  -24.4270  -31.0540   22.0160 N   0  0  0  0  0  0  0  0  0  0  0  0
  -23.4360  -32.0690   23.7830 O   0  0  0  0  0  0  0  0  0  0  0  0
  -22.5390  -29.4270   22.5250 C   0  0  0  0  0  0  0  0  0  0  0  0
  -21.2330  -29.1450   22.3900 N   0  0  0  0  0  0  0  0  0  0  0  0
  -23.2600  -28.8640   23.3530 O   0  0  0  0  0  0  0  0  0  0  0  0
  -20.7100  -29.6560   21.6920 H   0  0  0  0  0  0  0  0  0  0  0  0
  -17.9780  -27.6270   22.7920 C   0  0  0  0  0  0  0  0  0  0  0  0
  -20.4790  -28.1610   23.1660 C   0  0  0  0  0  3  0  0  0  0  0  0
  -20.7570  -26.7260   22.6620 C   0  0  0  0  0  2  0  0  0  0  0  0
  -19.7440  -26.2480   21.6170 C   0  0  0  0  0  2  0  0  0  0  0  0
  -18.3240  -26.2760   22.1900 C   0  0  0  0  0  2  0  0  0  0  0  0
  -18.9910  -28.5190   23.2360 C   0  0  0  0  0  0  0  0  0  0  0  0
  -18.6160  -29.7770   23.7560 C   0  0  0  0  0  3  0  0  0  0  0  0
  -17.2610  -30.1480   23.8360 C   0  0  0  0  0  3  0  0  0  0  0  0
  -16.2630  -29.2550   23.4100 C   0  0  0  0  0  3  0  0  0  0  0  0
  -16.6210  -27.9980   22.8930 C   0  0  0  0  0  3  0  0  0  0  0  0
  -25.8050  -32.4080   23.6860 C   0  0  0  0  0  3  0  0  0  0  0  0
  -26.4040  -31.5980   24.9010 C   0  0  1  0  0  0  0  0  0  0  0  0
  -25.3680  -31.2780   26.0030 C   0  0  0  0  0  1  0  0  0  0  0  0
  -27.0100  -30.2610   24.4180 C   0  0  0  0  0  1  0  0  0  0  0  0
  -27.5580  -32.4010   25.5470 C   0  0  0  0  0  1  0  0  0  0  0  0
  -25.5440  -33.8020   24.0670 N   0  0  0  0  0  0  0  0  0  0  0  0
  -25.8660  -34.8670   23.3210 C   0  0  0  0  0  0  0  0  0  0  0  0
  -26.4880  -34.7770   22.2580 O   0  0  0  0  0  0  0  0  0  0  0  0
  -24.9890  -33.9480   24.8970 H   0  0  0  0  0  0  0  0  0  0  0  0
  -24.1730  -36.7100   23.0820 C   0  0  0  0  0  1  0  0  0  0  0  0
  -25.4310  -36.2530   23.8360 C   0  0  0  0  0  3  0  0  0  0  0  0
  -27.6110  -37.0640   24.6210 C   0  0  0  0  0  1  0  0  0  0  0  0
  -26.4870  -37.2830   23.7160 N   0  0  0  0  0  0  0  0  0  0  0  0
  -26.1080  -38.2080   23.8970 H   0  0  0  0  0  0  0  0  0  0  0  0
  2  5  1  0
  3  1  1  0
  4  2  1  0
  4  6  1  0
  5 12  1  0
  5  1  1  0
  6  7  1  1
  6  3  1  0
  9  8  2  0
 10 13  2  0
 10 12  1  0
 11  8  1  0
 11 14  1  0
 12 11  2  0
 13  9  1  0
 15 23  1  0
 16 21  1  0
 17 18  1  0
 17 16  1  0
 19 18  1  0
 19 28  1  0
 19 20  1  0
 21 15  1  0
 21 20  1  0
 22 15  2  0
 23 13  1  0
 23 24  1  0
 25 26  2  0
 26 45  1  0
 27 26  1  0
 27 30  1  0
 28 29  1  0
 28 25  1  0
 29 27  2  0
 30 31  1  0
 31 32  2  0
 33 36  1  0
 33 32  1  0
 34 33  2  0
 35 34  1  0
 35 30  2  0
 36 37  1  0
 37 42  2  0
 37 38  1  0
 38 39  2  0
 39 40  1  0
 40 44  1  0
 41 40  2  0
 42 41  1  0
 43 42  1  0
 45 46  1  0
 46 48  1  0
 46 49  1  0
 47 45  2  0
 50 25  1  0
 50 51  1  0
 52 50  1  0
 53  6  1  0
 54 53  1  0
 55 54  1  0
 55 57  1  0
 56 67  2  0
 57 62  1  0
 58 66  1  0
 58 68  1  0
 59 65  1  0
 59 61  1  0
 60 66  1  0
 61 60  1  0
 62 61  2  0
 63 64  1  0
 63 57  2  0
 64 59  2  0
 65 58  1  0
 66 56  1  0
 68 70  2  0
 69 68  1  0
 71 69  1  0
 72 81  2  0
 72 77  1  0
 73 69  1  0
 73 77  1  0
 74 73  1  0
 75 76  1  0
 75 74  1  0
 76 72  1  0
 77 78  2  0
 78 79  1  0
 80 79  2  0
 81 80  1  0
 82 56  1  0
 82 87  1  0
 82 83  1  0
 83 86  1  1
 83 84  1  0
 85 83  1  0
 87 90  1  0
 88 92  1  0
 88 87  1  0
 89 88  2  0
 92 91  1  0
 94 92  1  0
 94 95  1  0
 94 93  1  0
M  ISO  4  15 100  23 100  54 101  55 101
M  END
>  <TORSDO>  (6) 
F 19

>  <SCORE>  (6) 
-12.680

>  <name>  (6) 
5

>  <ligand_id>  (6) 
5

>  <original_smiles>  (6) 
[H]c1c([H])c([H])c2c(c1[H])C([H])([H])C([H])([H])C([H])([H])C2([H])N([H])C(=O)C1([H])N(C(=O)C([H])(N([H])C(=O)C([H])(N([H])C([H])([H])[H])C([H])([H])[H])C(C([H])([H])[H])(C([H])([H])[H])C([H])([H])[H])C([H])([H])c2c([H])c(OC([H])([H])C([H])([H])[N+]3([H])C([H])([H])C([H])([H])N(c4c([H])c(N([H])C(=O)N5C([H])([H])C([H])([H])C([H])([H])C([H])(n6nc(-c7c([H])c([H])c(Oc8c([H])c([H])c(F)c([H])c8F)c([H])c7[H])c(C(=O)N([H])[H])c6N([H])[H])C5([H])[H])c([H])c([H])c4C([H])([H])[H])C([H])([H])C3([H])[H])c([H])c([H])c2C1([H])[H]

>  <smiles>  (6) 
[H]c1c([H])c([H])c2c(c1[H])C([H])([H])C([H])([H])C([H])([H])C2([H])N([H])C(=O)C1([H])N(C(=O)C([H])(N([H])C(=O)C([H])(N([H])C([H])([H])[H])C([H])([H])[H])C(C([H])([H])[H])(C([H])([H])[H])C([H])([H])[H])C([H])([H])c2c([H])c(OC([H])([H])C([H])([H])[N+]3([H])C([H])([H])C([H])([H])N(c4c([H])c(N([H])C(=O)N5C([H])([H])C([H])([H])C([H])([H])C([H])(n6nc(-c7c([H])c([H])c(Oc8c([H])c([H])c(F)c([H])c8F)c([H])c7[H])c(C(=O)N([H])[H])c6N([H])[H])C5([H])[H])c([H])c([H])c4C([H])([H])[H])C([H])([H])C3([H])[H])c([H])c([H])c2C1([H])[H]

$$$$
6:0:0
     RDKit          3D

106114  0  0  1  0  0  0  0  0999 V2000
  -25.9240  -21.2120   17.3120 C   0  0  0  0  0  3  0  0  0  0  0  0
  -26.7780  -21.3500   18.4230 C   0  0  0  0  0  3  0  0  0  0  0  0
  -25.3620  -22.3520   16.7010 C   0  0  0  0  0  3  0  0  0  0  0  0
  -26.4940  -23.7690   18.3280 C   0  0  0  0  0  3  0  0  0  0  0  0
  -27.0760  -22.6320   18.9300 C   0  0  0  0  0  0  0  0  0  0  0  0
  -25.6380  -23.6400   17.2110 C   0  0  0  0  0  0  0  0  0  0  0  0
  -27.9800  -22.7970   20.1450 C   0  0  0  0  0  2  0  0  0  0  0  0
  -29.4520  -23.1330   19.8130 C   0  0  0  0  0  2  0  0  0  0  0  0
  -30.4980  -22.3600   20.6470 C   0  0  0  0  0  2  0  0  0  0  0  0
  -31.8370  -22.1160   19.9080 C   0  0  0  0  0  2  0  0  0  0  0  0
  -32.0360  -22.8920   18.7220 O   0  0  0  0  0  0  0  0  0  0  0  0
  -34.1030  -27.2270   19.1910 C   0  0  0  0  0  3  0  0  0  0  0  0
  -32.5200  -27.3060   18.9290 C   0  0  0  0  0  2  0  0  0  0  0  0
  -34.0670  -24.4020   19.1590 C   0  0  0  0  0  3  0  0  0  0  0  0
  -34.8040  -25.8060   19.2820 C   0  0  0  0  0  0  0  0  0  0  0  0
  -31.5510  -25.4510   18.7620 C   0  0  0  0  0  2  0  0  0  0  0  0
  -32.5190  -24.1680   18.9160 C   0  0  0  0  0  0  0  0  0  0  0  0
  -30.7980  -25.7080   16.6830 C   0  0  0  0  0  0  0  0  0  0  0  0
  -32.9090  -26.5870   17.4410 C   0  0  0  0  0  2  0  0  0  0  0  0
  -32.8130  -25.6950   20.5530 C   0  0  0  0  0  1  0  0  0  0  0  0
  -31.0720  -26.1290   21.0860 C   0  0  0  0  0  2  0  0  0  0  0  0
  -29.7800  -26.7560   19.9030 C   0  0  0  0  0  3  0  0  0  0  0  0
  -29.9580  -27.4250   18.1640 C   0  0  0  0  0  2  0  0  0  0  0  0
  -31.2080  -26.9310   17.0700 N   0  0  0  0  0  0  0  0  0  0  0  0
  -31.2950  -25.0470   15.7730 O   0  0  0  0  0  0  0  0  0  0  0  0
  -30.5440  -25.0650   17.8220 N   0  0  0  0  0  0  0  0  0  0  0  0
  -29.5980  -25.2020   18.1370 H   0  0  0  0  0  0  0  0  0  0  0  0
  -27.5220  -27.6070   20.5600 C   0  0  0  0  0  0  0  0  0  0  0  0
  -27.1330  -28.3890   21.6020 C   0  0  0  0  0  0  0  0  0  0  0  0
  -28.3280  -28.7750   22.2870 C   0  0  0  0  0  0  0  0  0  0  0  0
  -28.8930  -27.5630   20.6530 N   0  0  0  0  0  0  0  0  0  0  0  0
  -29.3950  -28.3030   21.6630 N   0  0  0  0  0  0  0  0  0  0  0  0
  -28.5130  -29.5170   23.5350 C   0  0  0  0  0  0  0  0  0  0  0  0
  -29.2270  -30.7340   23.5690 C   0  0  0  0  0  3  0  0  0  0  0  0
  -29.3630  -31.4480   24.7770 C   0  0  0  0  0  3  0  0  0  0  0  0
  -28.7810  -30.9440   25.9650 C   0  0  0  0  0  0  0  0  0  0  0  0
  -28.0990  -29.7170   25.9310 C   0  0  0  0  0  3  0  0  0  0  0  0
  -27.9680  -29.0050   24.7290 C   0  0  0  0  0  3  0  0  0  0  0  0
  -28.8790  -31.5580   27.1900 O   0  0  0  0  0  0  0  0  0  0  0  0
  -28.8380  -32.9230   27.3140 C   0  0  0  0  0  0  0  0  0  0  0  0
  -27.7720  -33.6890   26.7960 C   0  0  0  0  0  3  0  0  0  0  0  0
  -27.7380  -35.0820   27.0070 C   0  0  0  0  0  3  0  0  0  0  0  0
  -28.7620  -35.7080   27.7420 C   0  0  0  0  0  0  0  0  0  0  0  0
  -29.8230  -34.9460   28.2620 C   0  0  0  0  0  3  0  0  0  0  0  0
  -29.8600  -33.5560   28.0510 C   0  0  0  0  0  0  0  0  0  0  0  0
  -30.8730  -32.8240   28.5710 F   0  0  0  0  0  0  0  0  0  0  0  0
  -28.7240  -37.0440   27.9540 F   0  0  0  0  0  0  0  0  0  0  0  0
  -25.7190  -28.6740   21.9920 C   0  0  0  0  0  0  0  0  0  0  0  0
  -25.4600  -29.8680   22.5100 N   0  0  0  0  0  0  0  0  0  0  0  0
  -24.8250  -27.8530   21.7860 O   0  0  0  0  0  0  0  0  0  0  0  0
  -26.1910  -30.5490   22.6490 H   0  0  0  0  0  0  0  0  0  0  0  0
  -24.5140  -30.1070   22.7700 H   0  0  0  0  0  0  0  0  0  0  0  0
  -26.8370  -26.9080   19.5670 N   0  0  0  0  0  0  0  0  0  0  0  0
  -25.8230  -26.9000   19.5210 H   0  0  0  0  0  0  0  0  0  0  0  0
  -27.2690  -26.3260   18.8640 H   0  0  0  0  0  0  0  0  0  0  0  0
  -36.3050  -25.7700   19.5200 C   0  0  1  0  0  0  0  0  0  0  0  0
  -36.8050  -26.9910   19.7120 F   0  0  0  0  0  0  0  0  0  0  0  0
  -36.5750  -25.0340   20.5970 F   0  0  0  0  0  0  0  0  0  0  0  0
  -36.9130  -25.2260   18.4670 F   0  0  0  0  0  0  0  0  0  0  0  0
  -25.0670  -24.8870   16.5410 C   0  0  0  0  0  2  0  0  0  0  0  0
  -23.6490  -24.7550   16.1440 N   0  0  0  0  0  4  0  0  0  0  0  0
  -23.0930  -24.5670   16.9640 H   0  0  0  0  0  0  0  0  0  0  0  0
  -23.5760  -23.9570   15.5340 H   0  0  0  0  0  0  0  0  0  0  0  0
  -23.1150  -25.9600   15.4570 C   0  0  0  0  0  2  0  0  0  0  0  0
  -22.4950  -25.6540   14.0840 C   0  0  0  0  0  2  0  0  0  0  0  0
  -21.0740  -25.5520   14.1660 O   0  0  0  0  0  0  0  0  0  0  0  0
  -17.5190  -26.4380    8.0510 C   0  0  0  0  0  0  0  0  0  0  0  0
  -20.5040  -24.9820   13.0560 C   0  0  0  0  0  0  0  0  0  0  0  0
  -17.7880  -24.1040    8.8250 C   0  0  0  0  0  3  0  0  0  0  0  0
  -19.4030  -23.7630   10.7670 C   0  0  0  0  0  0  0  0  0  0  0  0
  -19.4960  -25.8960    9.4650 C   0  0  0  0  0  2  0  0  0  0  0  0
  -19.7350  -25.1240   10.7450 C   0  0  0  0  0  0  0  0  0  0  0  0
  -20.2780  -25.7440   11.8910 C   0  0  0  0  0  3  0  0  0  0  0  0
  -20.1450  -23.6190   13.0770 C   0  0  0  0  0  3  0  0  0  0  0  0
  -19.5960  -23.0060   11.9360 C   0  0  0  0  0  3  0  0  0  0  0  0
  -18.8370  -23.1760    9.4950 C   0  0  0  0  0  2  0  0  0  0  0  0
  -18.2360  -25.5330    8.7750 N   0  0  0  0  0  0  0  0  0  0  0  0
  -16.5260  -26.0920    7.3970 O   0  0  0  0  0  0  0  0  0  0  0  0
  -16.4320  -23.9120    9.5430 C   0  0  0  0  0  0  0  0  0  0  0  0
  -15.3510  -23.7940    8.7550 N   0  0  0  0  0  0  0  0  0  0  0  0
  -16.3720  -23.8440   10.7740 O   0  0  0  0  0  0  0  0  0  0  0  0
  -15.4820  -23.8710    7.7570 H   0  0  0  0  0  0  0  0  0  0  0  0
  -11.8830  -24.3690    7.9250 C   0  0  0  0  0  0  0  0  0  0  0  0
  -13.9790  -23.5690    9.2090 C   0  0  0  0  0  3  0  0  0  0  0  0
  -13.5100  -22.1340    8.8760 C   0  0  0  0  0  2  0  0  0  0  0  0
  -12.7780  -22.0330    7.5340 C   0  0  0  0  0  2  0  0  0  0  0  0
  -11.5450  -22.9420    7.5280 C   0  0  0  0  0  2  0  0  0  0  0  0
  -13.0350  -24.6640    8.7020 C   0  0  0  0  0  0  0  0  0  0  0  0
  -13.3230  -26.0110    9.0150 C   0  0  0  0  0  3  0  0  0  0  0  0
  -12.4830  -27.0490    8.5690 C   0  0  0  0  0  3  0  0  0  0  0  0
  -11.3370  -26.7490    7.8140 C   0  0  0  0  0  3  0  0  0  0  0  0
  -11.0360  -25.4140    7.4970 C   0  0  0  0  0  3  0  0  0  0  0  0
  -17.9280  -27.9440    7.9880 C   0  0  0  0  0  3  0  0  0  0  0  0
  -17.3490  -28.5080    6.7630 N   0  0  0  0  0  0  0  0  0  0  0  0
  -17.8580  -28.3370    5.5340 C   0  0  0  0  0  0  0  0  0  0  0  0
  -18.9170  -27.7400    5.3250 O   0  0  0  0  0  0  0  0  0  0  0  0
  -16.4510  -28.9600    6.8520 H   0  0  0  0  0  0  0  0  0  0  0  0
  -16.1510  -27.8380    3.7570 C   0  0  0  0  0  1  0  0  0  0  0  0
  -17.0650  -28.9220    4.3510 C   0  0  0  0  0  3  0  0  0  0  0  0
  -18.5540  -30.7480    3.6640 C   0  0  0  0  0  1  0  0  0  0  0  0
  -17.9250  -29.4850    3.2880 N   0  0  0  0  0  0  0  0  0  0  0  0
  -17.3920  -29.6370    2.4350 H   0  0  0  0  0  0  0  0  0  0  0  0
  -17.4670  -28.7670    9.2550 C   0  0  1  0  0  0  0  0  0  0  0  0
  -16.0100  -28.4800    9.6870 C   0  0  0  0  0  1  0  0  0  0  0  0
  -18.3860  -28.4680   10.4630 C   0  0  0  0  0  1  0  0  0  0  0  0
  -17.5910  -30.2820    8.9700 C   0  0  0  0  0  1  0  0  0  0  0  0
  1  2  1  0
  2  5  2  0
  3  6  1  0
  3  1  2  0
  4  5  1  0
  5  7  1  0
  6  4  2  0
  8  7  1  0
  8  9  1  0
 10  9  1  0
 11 17  1  0
 11 10  1  0
 12 15  2  0
 13 12  1  0
 14 15  1  0
 15 56  1  0
 16 17  1  0
 17 14  2  0
 18 24  1  0
 18 26  1  0
 19 13  1  0
 20 21  1  0
 22 23  1  0
 22 31  1  0
 22 21  1  0
 24 19  1  0
 24 23  1  0
 25 18  2  0
 26 27  1  0
 26 16  1  0
 28 31  1  0
 28 29  2  0
 29 48  1  0
 29 30  1  0
 30 33  1  0
 31 32  1  0
 32 30  2  0
 33 34  2  0
 33 38  1  0
 34 35  1  0
 35 36  2  0
 36 39  1  0
 37 36  1  0
 38 37  2  0
 39 40  1  0
 40 45  1  0
 41 42  1  0
 41 40  2  0
 42 43  2  0
 43 47  1  0
 43 44  1  0
 45 44  2  0
 45 46  1  0
 48 49  1  0
 49 51  1  0
 49 52  1  0
 50 48  2  0
 53 28  1  0
 54 53  1  0
 55 53  1  0
 56 57  1  1
 56 58  1  0
 59 56  1  0
 60  6  1  0
 61 60  1  0
 61 62  1  0
 63 61  1  0
 64 61  1  0
 65 66  1  0
 65 64  1  0
 67 77  1  0
 68 74  1  0
 68 66  1  0
 69 76  1  0
 69 79  1  0
 70 75  1  0
 71 72  1  0
 72 70  2  0
 72 73  1  0
 73 68  2  0
 75 74  2  0
 76 70  1  0
 77 69  1  0
 77 71  1  0
 78 67  2  0
 79 81  2  0
 80 79  1  0
 82 80  1  0
 83 88  1  0
 84 80  1  0
 85 84  1  0
 86 85  1  0
 87 86  1  0
 87 83  1  0
 88 89  2  0
 88 84  1  0
 90 89  1  0
 91 90  2  0
 92 91  1  0
 92 83  2  0
 93 67  1  0
 93103  1  0
 94 97  1  0
 94 93  1  0
 95 94  1  0
 96 95  2  0
 99 98  1  0
 99 95  1  0
101100  1  0
101 99  1  0
102101  1  0
103104  1  1
103105  1  0
106103  1  0
M  ISO  4  18 100  26 100  65 101  66 101
M  END
>  <TORSDO>  (7) 
F 27

>  <SCORE>  (7) 
-3.973

>  <name>  (7) 
6

>  <ligand_id>  (7) 
6

>  <original_smiles>  (7) 
[H]c1c([H])c([H])c2c(c1[H])C([H])([H])C([H])([H])C([H])([H])C2([H])N([H])C(=O)C1([H])N(C(=O)C([H])(N([H])C(=O)C([H])(N([H])C([H])([H])[H])C([H])([H])[H])C(C([H])([H])[H])(C([H])([H])[H])C([H])([H])[H])C([H])([H])c2c([H])c(OC([H])([H])C([H])([H])[N+]([H])([H])C([H])([H])c3c([H])c([H])c([H])c(C([H])([H])C([H])([H])C([H])([H])C([H])([H])Oc4c([H])c(C(F)(F)F)c([H])c([H])c4N([H])C(=O)N4C([H])([H])C([H])([H])C([H])([H])C([H])(n5nc(-c6c([H])c([H])c(Oc7c([H])c([H])c(F)c([H])c7F)c([H])c6[H])c(C(=O)N([H])[H])c5N([H])[H])C4([H])[H])c3[H])c([H])c([H])c2C1([H])[H]

>  <smiles>  (7) 
[H]c1c([H])c([H])c2c(c1[H])C([H])([H])C([H])([H])C([H])([H])C2([H])N([H])C(=O)C1([H])N(C(=O)C([H])(N([H])C(=O)C([H])(N([H])C([H])([H])[H])C([H])([H])[H])C(C([H])([H])[H])(C([H])([H])[H])C([H])([H])[H])C([H])([H])c2c([H])c(OC([H])([H])C([H])([H])[N+]([H])([H])C([H])([H])c3c([H])c([H])c([H])c(C([H])([H])C([H])([H])C([H])([H])C([H])([H])Oc4c([H])c(C(F)(F)F)c([H])c([H])c4N([H])C(=O)N4C([H])([H])C([H])([H])C([H])([H])C([H])(n5nc(-c6c([H])c([H])c(Oc7c([H])c([H])c(F)c([H])c7F)c([H])c6[H])c(C(=O)N([H])[H])c5N([H])[H])C4([H])[H])c3[H])c([H])c([H])c2C1([H])[H]

$$$$
7:0:0
     RDKit          3D

 93101  0  0  1  0  0  0  0  0999 V2000
  -30.2390  -19.5640   20.9470 C   0  0  0  0  0  3  0  0  0  0  0  0
  -29.8210  -20.9210   20.8050 C   0  0  0  0  0  3  0  0  0  0  0  0
  -29.3960  -19.0610   18.7520 C   0  0  0  0  0  3  0  0  0  0  0  0
  -30.0550  -18.6010   19.9200 C   0  0  0  0  0  0  0  0  0  0  0  0
  -28.9710  -20.4170   18.5950 C   0  0  0  0  0  0  0  0  0  0  0  0
  -29.1870  -21.3870   19.6240 C   0  0  0  0  0  0  0  0  0  0  0  0
  -28.2860  -20.8290   17.2860 C   0  0  1  0  0  0  0  0  0  0  0  0
  -28.3830  -19.8750   16.3570 F   0  0  0  0  0  0  0  0  0  0  0  0
  -26.9890  -21.0510   17.5060 F   0  0  0  0  0  0  0  0  0  0  0  0
  -28.8280  -21.9370   16.7780 F   0  0  0  0  0  0  0  0  0  0  0  0
  -30.7350  -17.1800   19.9810 C   0  0  0  0  0  2  0  0  0  0  0  0
  -30.7100  -14.6930   20.3430 C   0  0  0  0  0  0  0  0  0  0  0  0
  -30.3960  -12.4850   19.2280 C   0  0  0  0  0  2  0  0  0  0  0  0
  -29.4380  -12.6300   18.0260 C   0  0  0  0  0  2  0  0  0  0  0  0
  -27.9750  -12.4680   18.4800 C   0  0  0  0  0  2  0  0  0  0  0  0
  -27.6410  -13.3110   19.7380 C   0  0  0  0  0  3  0  0  0  0  0  0
  -28.7210  -13.1250   20.8250 C   0  0  0  0  0  2  0  0  0  0  0  0
  -30.0030  -13.5130   20.2220 N   0  0  0  0  0  0  0  0  0  0  0  0
  -31.8940  -14.7050   19.9940 O   0  0  0  0  0  0  0  0  0  0  0  0
  -28.9910  -16.1890   21.4460 C   0  0  0  0  0  1  0  0  0  0  0  0
  -30.0560  -15.9200   20.4760 N   0  0  0  0  0  0  0  0  0  0  0  0
  -25.2540  -13.9010   20.4690 C   0  0  0  0  0  0  0  0  0  0  0  0
  -24.1930  -13.1250   20.8490 C   0  0  0  0  0  0  0  0  0  0  0  0
  -24.6580  -11.7750   20.8170 C   0  0  0  0  0  0  0  0  0  0  0  0
  -26.3000  -13.0250   20.2350 N   0  0  0  0  0  0  0  0  0  0  0  0
  -25.9480  -11.7390   20.5040 N   0  0  0  0  0  0  0  0  0  0  0  0
  -23.9320  -10.5110   21.0060 C   0  0  0  0  0  0  0  0  0  0  0  0
  -24.3670   -9.5460   21.9400 C   0  0  0  0  0  3  0  0  0  0  0  0
  -23.6430   -8.3480   22.1210 C   0  0  0  0  0  3  0  0  0  0  0  0
  -22.4680   -8.1080   21.3680 C   0  0  0  0  0  0  0  0  0  0  0  0
  -22.0520   -9.0620   20.4240 C   0  0  0  0  0  3  0  0  0  0  0  0
  -22.7770  -10.2510   20.2420 C   0  0  0  0  0  3  0  0  0  0  0  0
  -21.7140   -6.9640   21.4610 O   0  0  0  0  0  0  0  0  0  0  0  0
  -21.6610   -6.2280   22.6180 C   0  0  0  0  0  0  0  0  0  0  0  0
  -21.2290   -6.7900   23.8390 C   0  0  0  0  0  3  0  0  0  0  0  0
  -21.1260   -5.9810   24.9890 C   0  0  0  0  0  3  0  0  0  0  0  0
  -21.4400   -4.6110   24.9170 C   0  0  0  0  0  0  0  0  0  0  0  0
  -21.8630   -4.0470   23.7000 C   0  0  0  0  0  3  0  0  0  0  0  0
  -21.9700   -4.8540   22.5530 C   0  0  0  0  0  0  0  0  0  0  0  0
  -22.3590   -4.3020   21.3780 F   0  0  0  0  0  0  0  0  0  0  0  0
  -21.3330   -3.8310   26.0180 F   0  0  0  0  0  0  0  0  0  0  0  0
  -22.7970  -13.6000   21.1270 C   0  0  0  0  0  0  0  0  0  0  0  0
  -22.0750  -12.9050   22.0000 N   0  0  0  0  0  0  0  0  0  0  0  0
  -22.3540  -14.6230   20.6060 O   0  0  0  0  0  0  0  0  0  0  0  0
  -22.4380  -12.0670   22.4310 H   0  0  0  0  0  0  0  0  0  0  0  0
  -21.1440  -13.2140   22.2440 H   0  0  0  0  0  0  0  0  0  0  0  0
  -25.4050  -15.2710   20.2770 N   0  0  0  0  0  0  0  0  0  0  0  0
  -24.6390  -15.9240   20.4030 H   0  0  0  0  0  0  0  0  0  0  0  0
  -26.2230  -15.6980   19.8620 H   0  0  0  0  0  0  0  0  0  0  0  0
  -28.7460  -22.7080   19.4180 O   0  0  0  0  0  0  0  0  0  0  0  0
  -29.1170  -23.8690   20.2250 C   0  0  0  0  0  2  0  0  0  0  0  0
  -28.1420  -25.0640   19.8660 C   0  0  0  0  0  2  0  0  0  0  0  0
  -28.3520  -26.4780   20.2630 O   0  0  0  0  0  0  0  0  0  0  0  0
  -24.6190  -31.8900   23.2410 C   0  0  0  0  0  0  0  0  0  0  0  0
  -27.2350  -27.3330   20.1980 C   0  0  0  0  0  0  0  0  0  0  0  0
  -23.4170  -30.4870   21.6040 C   0  0  0  0  0  3  0  0  0  0  0  0
  -24.8710  -28.9440   20.1830 C   0  0  0  0  0  0  0  0  0  0  0  0
  -25.9590  -30.8100   21.4230 C   0  0  0  0  0  2  0  0  0  0  0  0
  -26.0390  -29.4320   20.7800 C   0  0  0  0  0  0  0  0  0  0  0  0
  -27.2260  -28.6380   20.7790 C   0  0  0  0  0  3  0  0  0  0  0  0
  -26.0370  -26.9060   19.5720 C   0  0  0  0  0  3  0  0  0  0  0  0
  -24.8710  -27.6860   19.5710 C   0  0  0  0  0  3  0  0  0  0  0  0
  -23.6350  -29.8160   20.2240 C   0  0  0  0  0  2  0  0  0  0  0  0
  -24.6830  -31.0800   22.1460 N   0  0  0  0  0  0  0  0  0  0  0  0
  -23.5350  -32.1650   23.7770 O   0  0  0  0  0  0  0  0  0  0  0  0
  -22.7560  -29.4680   22.5650 C   0  0  0  0  0  0  0  0  0  0  0  0
  -21.4290  -29.2930   22.4440 N   0  0  0  0  0  0  0  0  0  0  0  0
  -23.4360  -28.8410   23.3820 O   0  0  0  0  0  0  0  0  0  0  0  0
  -20.9380  -29.8500   21.7610 H   0  0  0  0  0  0  0  0  0  0  0  0
  -18.0490  -28.1150   22.9570 C   0  0  0  0  0  0  0  0  0  0  0  0
  -20.6100  -28.3600   23.2210 C   0  0  0  0  0  3  0  0  0  0  0  0
  -20.7030  -26.9260   22.6470 C   0  0  0  0  0  2  0  0  0  0  0  0
  -19.5960  -26.6070   21.6380 C   0  0  0  0  0  2  0  0  0  0  0  0
  -18.2150  -26.7640   22.2830 C   0  0  0  0  0  2  0  0  0  0  0  0
  -19.1710  -28.8720   23.3840 C   0  0  0  0  0  0  0  0  0  0  0  0
  -18.9580  -30.1380   23.9700 C   0  0  0  0  0  3  0  0  0  0  0  0
  -17.6550  -30.6430   24.1420 C   0  0  0  0  0  3  0  0  0  0  0  0
  -16.5470  -29.8830   23.7320 C   0  0  0  0  0  3  0  0  0  0  0  0
  -16.7460  -28.6220   23.1400 C   0  0  0  0  0  3  0  0  0  0  0  0
  -25.9010  -32.5240   23.8620 C   0  0  0  0  0  3  0  0  0  0  0  0
  -25.5900  -33.9210   24.1940 N   0  0  0  0  0  0  0  0  0  0  0  0
  -25.9110  -34.9750   23.4310 C   0  0  0  0  0  0  0  0  0  0  0  0
  -26.5680  -34.8730   22.3920 O   0  0  0  0  0  0  0  0  0  0  0  0
  -25.0110  -34.0760   25.0060 H   0  0  0  0  0  0  0  0  0  0  0  0
  -24.1700  -36.7580   23.0970 C   0  0  0  0  0  1  0  0  0  0  0  0
  -25.4240  -36.3600   23.8940 C   0  0  0  0  0  3  0  0  0  0  0  0
  -27.5640  -37.2580   24.6940 C   0  0  0  0  0  1  0  0  0  0  0  0
  -26.4500  -37.4170   23.7640 N   0  0  0  0  0  0  0  0  0  0  0  0
  -26.0410  -38.3360   23.9130 H   0  0  0  0  0  0  0  0  0  0  0  0
  -26.4170  -31.7540   25.1400 C   0  0  1  0  0  0  0  0  0  0  0  0
  -25.3220  -31.5200   26.2060 C   0  0  0  0  0  1  0  0  0  0  0  0
  -27.0030  -30.3790   24.7500 C   0  0  0  0  0  1  0  0  0  0  0  0
  -27.5660  -32.5500   25.8010 C   0  0  0  0  0  1  0  0  0  0  0  0
  2  1  1  0
  3  4  1  0
  4 11  1  0
  4  1  2  0
  5  3  2  0
  5  6  1  0
  6  2  2  0
  7  9  1  1
  7  5  1  0
  8  7  1  0
 10  7  1  0
 11 21  1  0
 12 21  1  0
 13 18  1  0
 14 15  1  0
 14 13  1  0
 16 15  1  0
 16 25  1  0
 16 17  1  0
 18 12  1  0
 18 17  1  0
 19 12  2  0
 21 20  1  0
 22 23  2  0
 23 42  1  0
 24 23  1  0
 24 27  1  0
 25 22  1  0
 25 26  1  0
 26 24  2  0
 27 28  1  0
 28 29  2  0
 30 33  1  0
 30 29  1  0
 31 30  2  0
 32 31  1  0
 32 27  2  0
 33 34  1  0
 34 35  1  0
 35 36  2  0
 37 36  1  0
 37 41  1  0
 38 37  2  0
 39 34  2  0
 39 38  1  0
 40 39  1  0
 42 43  1  0
 43 46  1  0
 43 45  1  0
 44 42  2  0
 47 48  1  0
 47 22  1  0
 49 47  1  0
 50  6  1  0
 50 51  1  0
 52 51  1  0
 52 53  1  0
 54 65  2  0
 55 53  1  0
 55 60  1  0
 56 64  1  0
 56 66  1  0
 57 63  1  0
 57 59  1  0
 58 64  1  0
 59 58  1  0
 60 59  2  0
 61 55  2  0
 62 61  1  0
 62 57  2  0
 63 56  1  0
 64 54  1  0
 66 68  2  0
 67 66  1  0
 69 67  1  0
 70 79  2  0
 70 75  1  0
 71 67  1  0
 71 75  1  0
 72 71  1  0
 73 74  1  0
 73 72  1  0
 74 70  1  0
 75 76  2  0
 76 77  1  0
 78 77  2  0
 79 78  1  0
 80 54  1  0
 80 81  1  0
 80 90  1  0
 81 84  1  0
 82 86  1  0
 82 81  1  0
 83 82  2  0
 86 85  1  0
 88 86  1  0
 88 89  1  0
 88 87  1  0
 90 93  1  1
 90 91  1  0
 92 90  1  0
M  ISO  4  12 100  21 100  52 101  53 101
M  END
>  <TORSDO>  (8) 
F 21

>  <SCORE>  (8) 
-13.405

>  <name>  (8) 
7

>  <ligand_id>  (8) 
7

>  <original_smiles>  (8) 
[H]c1c([H])c([H])c2c(c1[H])C([H])([H])C([H])([H])C([H])([H])C2([H])N([H])C(=O)C1([H])N(C(=O)C([H])(N([H])C(=O)C([H])(N([H])C([H])([H])[H])C([H])([H])[H])C(C([H])([H])[H])(C([H])([H])[H])C([H])([H])[H])C([H])([H])c2c([H])c(OC([H])([H])C([H])([H])Oc3c([H])c([H])c(C([H])([H])N(C(=O)N4C([H])([H])C([H])([H])C([H])([H])C([H])(n5nc(-c6c([H])c([H])c(Oc7c([H])c([H])c(F)c([H])c7F)c([H])c6[H])c(C(=O)N([H])[H])c5N([H])[H])C4([H])[H])C([H])([H])[H])c([H])c3C(F)(F)F)c([H])c([H])c2C1([H])[H]

>  <smiles>  (8) 
[H]c1c([H])c([H])c2c(c1[H])C([H])([H])C([H])([H])C([H])([H])C2([H])N([H])C(=O)C1([H])N(C(=O)C([H])(N([H])C(=O)C([H])(N([H])C([H])([H])[H])C([H])([H])[H])C(C([H])([H])[H])(C([H])([H])[H])C([H])([H])[H])C([H])([H])c2c([H])c(OC([H])([H])C([H])([H])Oc3c([H])c([H])c(C([H])([H])N(C(=O)N4C([H])([H])C([H])([H])C([H])([H])C([H])(n5nc(-c6c([H])c([H])c(Oc7c([H])c([H])c(F)c([H])c7F)c([H])c6[H])c(C(=O)N([H])[H])c5N([H])[H])C4([H])[H])C([H])([H])[H])c([H])c3C(F)(F)F)c([H])c([H])c2C1([H])[H]

$$$$
8:0:0
     RDKit          3D

112121  0  0  1  0  0  0  0  0999 V2000
  -29.1260  -21.7050   20.2490 C   0  0  0  0  0  0  0  0  0  0  0  0
  -31.7420  -18.3650   18.5790 C   0  0  0  0  0  2  0  0  0  0  0  0
  -33.0690  -19.6180   20.4310 C   0  0  0  0  0  2  0  0  0  0  0  0
  -30.3040  -17.8490   18.4350 C   0  0  0  0  0  2  0  0  0  0  0  0
  -32.6060  -20.6800   21.4190 C   0  0  0  0  0  2  0  0  0  0  0  0
  -31.8760  -18.7320   20.0740 C   0  0  0  0  0  3  0  0  0  0  0  0
  -30.4580  -19.1640   20.5710 C   0  0  0  0  0  3  0  0  0  0  0  0
  -29.7420  -17.8040   19.8700 C   0  0  0  0  0  3  0  0  0  0  0  0
  -31.4900  -21.5620   20.8010 C   0  0  0  0  0  3  0  0  0  0  0  0
  -30.2430  -20.7970   20.4160 N   0  0  0  0  0  0  0  0  0  0  0  0
  -28.0690  -21.2360   19.8260 O   0  0  0  0  0  0  0  0  0  0  0  0
  -30.5940  -15.0880   20.2740 C   0  0  0  0  0  0  0  0  0  0  0  0
  -30.4950  -12.7150   19.3860 C   0  0  0  0  0  2  0  0  0  0  0  0
  -29.5710  -12.6680   18.1470 C   0  0  0  0  0  2  0  0  0  0  0  0
  -28.0970  -12.4660   18.5630 C   0  0  0  0  0  2  0  0  0  0  0  0
  -27.6820  -13.3650   19.7590 C   0  0  0  0  0  3  0  0  0  0  0  0
  -28.7440  -13.3810   20.8830 C   0  0  0  0  0  2  0  0  0  0  0  0
  -30.0140  -13.8140   20.2720 N   0  0  0  0  0  0  0  0  0  0  0  0
  -31.7950  -15.1420   19.9770 O   0  0  0  0  0  0  0  0  0  0  0  0
  -29.8020  -16.2760   20.3990 N   0  0  0  0  0  0  0  0  0  0  0  0
  -28.8880  -16.0080   20.7430 H   0  0  0  0  0  0  0  0  0  0  0  0
  -25.2860  -13.9110   20.4860 C   0  0  0  0  0  0  0  0  0  0  0  0
  -24.2240  -13.1300   20.8500 C   0  0  0  0  0  0  0  0  0  0  0  0
  -24.6960  -11.7810   20.8170 C   0  0  0  0  0  0  0  0  0  0  0  0
  -26.3400  -13.0450   20.2530 N   0  0  0  0  0  0  0  0  0  0  0  0
  -25.9930  -11.7570   20.5160 N   0  0  0  0  0  0  0  0  0  0  0  0
  -23.9720  -10.5140   21.0080 C   0  0  0  0  0  0  0  0  0  0  0  0
  -24.3930   -9.5550   21.9580 C   0  0  0  0  0  3  0  0  0  0  0  0
  -23.6690   -8.3560   22.1330 C   0  0  0  0  0  3  0  0  0  0  0  0
  -22.5060   -8.1090   21.3670 C   0  0  0  0  0  0  0  0  0  0  0  0
  -22.1070   -9.0520   20.4090 C   0  0  0  0  0  3  0  0  0  0  0  0
  -22.8310  -10.2420   20.2270 C   0  0  0  0  0  3  0  0  0  0  0  0
  -21.7520   -6.9620   21.4530 O   0  0  0  0  0  0  0  0  0  0  0  0
  -21.6820   -6.2340   22.6120 C   0  0  0  0  0  0  0  0  0  0  0  0
  -21.2100   -6.7980   23.8200 C   0  0  0  0  0  3  0  0  0  0  0  0
  -21.0890   -5.9960   24.9710 C   0  0  0  0  0  3  0  0  0  0  0  0
  -21.4230   -4.6280   24.9180 C   0  0  0  0  0  0  0  0  0  0  0  0
  -21.8850   -4.0650   23.7150 C   0  0  0  0  0  3  0  0  0  0  0  0
  -22.0110   -4.8640   22.5650 C   0  0  0  0  0  0  0  0  0  0  0  0
  -22.4370   -4.3110   21.4050 F   0  0  0  0  0  0  0  0  0  0  0  0
  -21.2990   -3.8540   26.0220 F   0  0  0  0  0  0  0  0  0  0  0  0
  -22.8210  -13.5990   21.1060 C   0  0  0  0  0  0  0  0  0  0  0  0
  -22.0830  -12.9010   21.9630 N   0  0  0  0  0  0  0  0  0  0  0  0
  -22.3860  -14.6270   20.5840 O   0  0  0  0  0  0  0  0  0  0  0  0
  -22.4440  -12.0720   22.4140 H   0  0  0  0  0  0  0  0  0  0  0  0
  -21.1390  -13.1970   22.1700 H   0  0  0  0  0  0  0  0  0  0  0  0
  -25.4460  -15.2820   20.3030 N   0  0  0  0  0  0  0  0  0  0  0  0
  -24.6740  -15.9290   20.4100 H   0  0  0  0  0  0  0  0  0  0  0  0
  -26.2780  -15.7150   19.9240 H   0  0  0  0  0  0  0  0  0  0  0  0
  -29.0650  -23.3580   20.6730 C   0  0  0  0  0  3  0  0  0  0  0  0
  -28.1770  -24.6530   20.0060 C   0  0  0  0  0  3  0  0  0  0  0  0
  -28.2950  -26.1900   20.3360 O   0  0  0  0  0  0  0  0  0  0  0  0
  -24.6280  -31.9200   23.2320 C   0  0  0  0  0  0  0  0  0  0  0  0
  -27.2150  -27.1590   20.2440 C   0  0  0  0  0  0  0  0  0  0  0  0
  -23.4240  -30.5110   21.6020 C   0  0  0  0  0  3  0  0  0  0  0  0
  -24.8740  -28.9100   20.1900 C   0  0  0  0  0  0  0  0  0  0  0  0
  -25.9770  -30.7670   21.4410 C   0  0  0  0  0  2  0  0  0  0  0  0
  -26.0520  -29.3640   20.7970 C   0  0  0  0  0  0  0  0  0  0  0  0
  -27.2150  -28.5060   20.8070 C   0  0  0  0  0  3  0  0  0  0  0  0
  -26.0090  -26.8120   19.5940 C   0  0  0  0  0  3  0  0  0  0  0  0
  -24.8650  -27.6500   19.5680 C   0  0  0  0  0  3  0  0  0  0  0  0
  -23.6430  -29.8110   20.2300 C   0  0  0  0  0  2  0  0  0  0  0  0
  -24.6940  -31.0900   22.1450 N   0  0  0  0  0  0  0  0  0  0  0  0
  -23.5420  -32.2120   23.7590 O   0  0  0  0  0  0  0  0  0  0  0  0
  -22.7430  -29.5170   22.5780 C   0  0  0  0  0  0  0  0  0  0  0  0
  -21.4150  -29.3480   22.4550 N   0  0  0  0  0  0  0  0  0  0  0  0
  -23.4120  -28.9030   23.4140 O   0  0  0  0  0  0  0  0  0  0  0  0
  -20.9310  -29.9030   21.7620 H   0  0  0  0  0  0  0  0  0  0  0  0
  -18.0330  -28.1590   22.9790 C   0  0  0  0  0  0  0  0  0  0  0  0
  -20.5930  -28.4220   23.2390 C   0  0  0  0  0  3  0  0  0  0  0  0
  -20.6880  -26.9830   22.6800 C   0  0  0  0  0  2  0  0  0  0  0  0
  -19.5830  -26.6490   21.6720 C   0  0  0  0  0  2  0  0  0  0  0  0
  -18.2050  -26.8030   22.3160 C   0  0  0  0  0  2  0  0  0  0  0  0
  -19.1520  -28.9260   23.3960 C   0  0  0  0  0  0  0  0  0  0  0  0
  -18.9330  -30.1950   23.9790 C   0  0  0  0  0  3  0  0  0  0  0  0
  -17.6260  -30.6930   24.1490 C   0  0  0  0  0  3  0  0  0  0  0  0
  -16.5230  -29.9250   23.7430 C   0  0  0  0  0  3  0  0  0  0  0  0
  -16.7270  -28.6610   23.1630 C   0  0  0  0  0  3  0  0  0  0  0  0
  -25.9080  -32.5600   23.8510 C   0  0  0  0  0  3  0  0  0  0  0  0
  -25.5960  -33.9600   24.1840 N   0  0  0  0  0  0  0  0  0  0  0  0
  -25.9140  -35.0160   23.4240 C   0  0  0  0  0  0  0  0  0  0  0  0
  -26.5690  -34.9160   22.3840 O   0  0  0  0  0  0  0  0  0  0  0  0
  -25.0260  -34.1100   25.0020 H   0  0  0  0  0  0  0  0  0  0  0  0
  -24.1820  -36.8100   23.0980 C   0  0  0  0  0  1  0  0  0  0  0  0
  -25.4320  -36.4020   23.8940 C   0  0  0  0  0  3  0  0  0  0  0  0
  -27.5720  -37.2920   24.7120 C   0  0  0  0  0  1  0  0  0  0  0  0
  -26.4610  -37.4600   23.7760 N   0  0  0  0  0  0  0  0  0  0  0  0
  -26.0520  -38.3780   23.9320 H   0  0  0  0  0  0  0  0  0  0  0  0
  -26.4240  -31.7990   25.1340 C   0  0  1  0  0  0  0  0  0  0  0  0
  -25.3330  -31.5680   26.2060 C   0  0  0  0  0  1  0  0  0  0  0  0
  -27.0130  -30.4220   24.7560 C   0  0  0  0  0  1  0  0  0  0  0  0
  -27.5720  -32.6000   25.7930 C   0  0  0  0  0  1  0  0  0  0  0  0
  -32.0470  -22.4610   19.6270 C   0  0  0  0  0  2  0  0  0  0  0  0
  -33.1460  -23.3720   20.0570 N   0  0  0  0  0  4  0  0  0  0  0  0
  -34.0150  -22.8570   20.0470 H   0  0  0  0  0  0  0  0  0  0  0  0
  -32.9860  -23.6560   21.0080 H   0  0  0  0  0  0  0  0  0  0  0  0
  -33.3370  -24.6010   19.2360 C   0  0  0  0  0  2  0  0  0  0  0  0
  -33.5260  -25.8800   20.0950 C   0  0  0  0  0  2  0  0  0  0  0  0
  -33.8160  -27.1740   19.2880 C   0  0  0  0  0  2  0  0  0  0  0  0
  -32.6170  -27.8160   18.6900 N   0  0  0  0  0  4  0  0  0  0  0  0
  -32.1670  -27.1670   18.0670 H   0  0  0  0  0  0  0  0  0  0  0  0
  -31.9590  -28.0600   19.4150 H   0  0  0  0  0  0  0  0  0  0  0  0
  -32.9270  -29.0350   17.9070 C   0  0  0  0  0  2  0  0  0  0  0  0
  -31.7330  -29.4980   17.0410 C   0  0  0  0  0  2  0  0  0  0  0  0
  -32.1230  -30.5270   15.9580 C   0  0  0  0  0  2  0  0  0  0  0  0
  -32.9570  -28.9860   14.1260 C   0  0  0  0  0  0  0  0  0  0  0  0
  -34.1500  -28.4830   13.3750 C   0  0  0  0  0  1  0  0  0  0  0  0
  -31.7570  -28.4200   13.9100 N   0  0  0  0  0  4  0  0  0  0  0  0
  -33.1220  -29.9830   15.0190 N   0  0  0  0  0  0  0  0  0  0  0  0
  -31.6690  -27.6330   13.2760 H   0  0  0  0  0  0  0  0  0  0  0  0
  -30.8950  -28.7750   14.2990 H   0  0  0  0  0  0  0  0  0  0  0  0
  -34.0440  -30.3990   15.0870 H   0  0  0  0  0  0  0  0  0  0  0  0
  1 10  1  0
  1 50  1  0
  3  5  1  0
  4  2  1  0
  4  8  1  0
  6  2  1  0
  6  3  1  0
  6  7  1  0
  7 10  1  0
  8 20  1  0
  8  7  1  0
  9 93  1  0
  9  5  1  0
 10  9  1  0
 11  1  2  0
 12 20  1  0
 13 18  1  0
 14 15  1  0
 14 13  1  0
 16 15  1  0
 16 25  1  0
 16 17  1  0
 18 12  1  0
 18 17  1  0
 19 12  2  0
 20 21  1  0
 22 23  2  0
 23 42  1  0
 24 23  1  0
 24 27  1  0
 25 22  1  0
 25 26  1  0
 26 24  2  0
 27 28  1  0
 28 29  2  0
 30 33  1  0
 30 29  1  0
 31 30  2  0
 32 31  1  0
 32 27  2  0
 33 34  1  0
 34 35  1  0
 35 36  2  0
 37 36  1  0
 37 41  1  0
 38 37  2  0
 39 34  2  0
 39 38  1  0
 40 39  1  0
 42 43  1  0
 43 46  1  0
 43 45  1  0
 44 42  2  0
 47 48  1  0
 47 22  1  0
 49 47  1  0
 51 52  1  0
 51 50  2  0
 53 64  2  0
 54 52  1  0
 54 59  1  0
 55 63  1  0
 55 65  1  0
 56 62  1  0
 56 58  1  0
 57 63  1  0
 58 59  2  0
 58 57  1  0
 60 54  2  0
 61 60  1  0
 61 56  2  0
 62 55  1  0
 63 53  1  0
 65 67  2  0
 66 65  1  0
 68 66  1  0
 69 78  2  0
 69 74  1  0
 70 66  1  0
 70 74  1  0
 71 70  1  0
 72 73  1  0
 72 71  1  0
 73 69  1  0
 74 75  2  0
 75 76  1  0
 77 76  2  0
 78 77  1  0
 79 53  1  0
 79 80  1  0
 79 89  1  0
 80 83  1  0
 81 85  1  0
 81 80  1  0
 82 81  2  0
 85 84  1  0
 87 85  1  0
 87 88  1  0
 87 86  1  0
 89 92  1  1
 89 90  1  0
 91 89  1  0
 93 94  1  0
 94 96  1  0
 95 94  1  0
 97 94  1  0
 97 98  1  0
 99 98  1  0
100 99  1  0
100102  1  0
101100  1  0
103100  1  0
104103  1  0
105104  1  0
106109  1  0
107106  1  0
108106  2  0
108111  1  0
109112  1  0
109105  1  0
110108  1  0
M  ISO  4  12 100  20 100  51 101  52 101
M  END
>  <TORSDO>  (9) 
F 28

>  <SCORE>  (9) 
-12.758

>  <name>  (9) 
8

>  <ligand_id>  (9) 
8

>  <original_smiles>  (9) 
[H]c1c([H])c([H])c2c(c1[H])C([H])([H])C([H])([H])C([H])([H])C2([H])N([H])C(=O)C1([H])N(C(=O)C([H])(N([H])C(=O)C([H])(N([H])C([H])([H])[H])C([H])([H])[H])C(C([H])([H])[H])(C([H])([H])[H])C([H])([H])[H])C([H])([H])c2c([H])c(OC([H])([H])C([H])([H])C(=O)N3C4([H])C([H])(N([H])C(=O)N5C([H])([H])C([H])([H])C([H])([H])C([H])(n6nc(-c7c([H])c([H])c(Oc8c([H])c([H])c(F)c([H])c8F)c([H])c7[H])c(C(=O)N([H])[H])c6N([H])[H])C5([H])[H])C([H])([H])C([H])([H])C4([H])C([H])([H])C([H])([H])C3([H])C([H])([H])[N+]([H])([H])C([H])([H])C([H])([H])C([H])([H])[N+]([H])([H])C([H])([H])C([H])([H])C([H])([H])[N+]([H])=C(N([H])[H])C([H])([H])[H])c([H])c([H])c2C1([H])[H]

>  <smiles>  (9) 
[H]c1c([H])c([H])c2c(c1[H])C([H])([H])C([H])([H])C([H])([H])C2([H])N([H])C(=O)C1([H])N(C(=O)C([H])(N([H])C(=O)C([H])(N([H])C([H])([H])[H])C([H])([H])[H])C(C([H])([H])[H])(C([H])([H])[H])C([H])([H])[H])C([H])([H])c2c([H])c(OC([H])([H])C([H])([H])C(=O)N3C4([H])C([H])(N([H])C(=O)N5C([H])([H])C([H])([H])C([H])([H])C([H])(n6nc(-c7c([H])c([H])c(Oc8c([H])c([H])c(F)c([H])c8F)c([H])c7[H])c(C(=O)N([H])[H])c6N([H])[H])C5([H])[H])C([H])([H])C([H])([H])C4([H])C([H])([H])C([H])([H])C3([H])C([H])([H])[N+]([H])([H])C([H])([H])C([H])([H])C([H])([H])[N+]([H])([H])C([H])([H])C([H])([H])C([H])([H])[N+]([H])=C(N([H])[H])C([H])([H])[H])c([H])c([H])c2C1([H])[H]

$$$$
9:0:0
     RDKit          3D

 91 99  0  0  1  0  0  0  0  0999 V2000
  -29.8110  -20.9750   18.9820 C   0  0  0  0  0  3  0  0  0  0  0  0
  -29.5520  -22.3620   18.7140 C   0  0  0  0  0  3  0  0  0  0  0  0
  -27.2580  -21.8960   18.5170 C   0  0  0  0  0  3  0  0  0  0  0  0
  -28.8480  -19.8840   19.0360 C   0  0  0  0  0  0  0  0  0  0  0  0
  -28.2880  -22.9090   18.4280 C   0  0  0  0  0  0  0  0  0  0  0  0
  -27.5000  -20.4640   18.8060 C   0  0  0  0  0  0  0  0  0  0  0  0
  -26.3950  -19.7100   18.8830 F   0  0  0  0  0  0  0  0  0  0  0  0
  -28.1060  -24.8230   16.6570 C   0  0  0  0  0  1  0  0  0  0  0  0
  -28.2690  -24.3200   18.0040 N   0  0  0  0  0  0  0  0  0  0  0  0
  -28.1010  -25.5070   18.7230 C   0  0  0  0  0  2  0  0  0  0  0  0
  -28.5840  -25.8290   20.0220 C   0  0  0  0  0  2  0  0  0  0  0  0
  -28.2670  -27.1650   20.4720 O   0  0  0  0  0  0  0  0  0  0  0  0
  -24.5570  -31.9640   23.3370 C   0  0  0  0  0  0  0  0  0  0  0  0
  -27.0160  -27.6790   20.2760 C   0  0  0  0  0  0  0  0  0  0  0  0
  -23.2650  -30.6030   21.7310 C   0  0  0  0  0  3  0  0  0  0  0  0
  -24.5940  -29.0830   20.3510 C   0  0  0  0  0  0  0  0  0  0  0  0
  -25.6790  -31.0490   21.3710 C   0  0  0  0  0  2  0  0  0  0  0  0
  -25.7650  -29.6690   20.9020 C   0  0  0  0  0  0  0  0  0  0  0  0
  -26.9380  -28.9430   20.8540 C   0  0  0  0  0  3  0  0  0  0  0  0
  -25.8150  -26.9380   20.1980 C   0  0  0  0  0  3  0  0  0  0  0  0
  -24.6200  -27.6450   20.0320 C   0  0  0  0  0  3  0  0  0  0  0  0
  -23.3760  -30.0000   20.3720 C   0  0  0  0  0  2  0  0  0  0  0  0
  -24.5380  -31.2020   22.2200 N   0  0  0  0  0  0  0  0  0  0  0  0
  -23.4910  -32.2370   23.8760 O   0  0  0  0  0  0  0  0  0  0  0  0
  -22.6810  -29.5350   22.6490 C   0  0  0  0  0  0  0  0  0  0  0  0
  -21.3810  -29.3160   22.5240 N   0  0  0  0  0  0  0  0  0  0  0  0
  -23.3610  -28.8490   23.3980 O   0  0  0  0  0  0  0  0  0  0  0  0
  -20.9080  -29.8750   21.8520 H   0  0  0  0  0  0  0  0  0  0  0  0
  -17.9910  -28.0940   22.9150 C   0  0  0  0  0  0  0  0  0  0  0  0
  -20.5390  -28.3680   23.2600 C   0  0  0  0  0  3  0  0  0  0  0  0
  -20.6530  -26.9230   22.7260 C   0  0  0  0  0  2  0  0  0  0  0  0
  -19.5910  -26.5730   21.6880 C   0  0  0  0  0  2  0  0  0  0  0  0
  -18.1920  -26.7320   22.2780 C   0  0  0  0  0  2  0  0  0  0  0  0
  -19.0910  -28.8730   23.3630 C   0  0  0  0  0  0  0  0  0  0  0  0
  -18.8380  -30.1450   23.9200 C   0  0  0  0  0  3  0  0  0  0  0  0
  -17.5260  -30.6510   24.0060 C   0  0  0  0  0  3  0  0  0  0  0  0
  -16.4430  -29.8700   23.5550 C   0  0  0  0  0  3  0  0  0  0  0  0
  -16.6780  -28.5890   23.0240 C   0  0  0  0  0  3  0  0  0  0  0  0
  -25.8450  -32.5550   23.9540 C   0  0  0  0  0  3  0  0  0  0  0  0
  -26.3450  -31.7940   25.2280 C   0  0  1  0  0  0  0  0  0  0  0  0
  -25.2700  -31.5650   26.3060 C   0  0  0  0  0  1  0  0  0  0  0  0
  -26.9020  -30.4140   24.8120 C   0  0  0  0  0  1  0  0  0  0  0  0
  -27.5110  -32.5860   25.8760 C   0  0  0  0  0  1  0  0  0  0  0  0
  -25.5370  -33.9620   24.2460 N   0  0  0  0  0  0  0  0  0  0  0  0
  -25.9080  -34.9920   23.4710 C   0  0  0  0  0  0  0  0  0  0  0  0
  -26.6040  -34.8660   22.4570 O   0  0  0  0  0  0  0  0  0  0  0  0
  -24.8730  -34.1650   24.9760 H   0  0  0  0  0  0  0  0  0  0  0  0
  -24.1910  -36.7830   23.0380 C   0  0  0  0  0  1  0  0  0  0  0  0
  -25.4170  -36.3920   23.8830 C   0  0  0  0  0  3  0  0  0  0  0  0
  -27.5450  -37.2560   24.7530 C   0  0  0  0  0  1  0  0  0  0  0  0
  -26.4670  -37.4390   23.7780 N   0  0  0  0  0  0  0  0  0  0  0  0
  -26.0690  -38.3630   23.9160 H   0  0  0  0  0  0  0  0  0  0  0  0
  -29.6040  -18.3230   19.3120 C   0  0  0  0  0  2  0  0  0  0  0  0
  -30.2170  -15.4480   19.7010 C   0  0  0  0  0  0  0  0  0  0  0  0
  -30.3220  -13.0040   18.9370 C   0  0  0  0  0  2  0  0  0  0  0  0
  -29.3360  -12.6300   17.8120 C   0  0  0  0  0  2  0  0  0  0  0  0
  -27.9510  -12.3000   18.3930 C   0  0  0  0  0  2  0  0  0  0  0  0
  -27.5080  -13.3210   19.4670 C   0  0  0  0  0  3  0  0  0  0  0  0
  -28.5990  -13.5930   20.5070 C   0  0  0  0  0  2  0  0  0  0  0  0
  -29.7310  -14.1310   19.7410 N   0  0  0  0  0  0  0  0  0  0  0  0
  -31.4460  -15.4760   19.5900 O   0  0  0  0  0  0  0  0  0  0  0  0
  -29.3630  -16.6710   19.5700 N   0  0  0  0  0  0  0  0  0  0  0  0
  -28.3620  -16.4860   19.5820 H   0  0  0  0  0  0  0  0  0  0  0  0
  -25.2240  -13.8970   20.4120 C   0  0  0  0  0  0  0  0  0  0  0  0
  -24.1780  -13.1230   20.8290 C   0  0  0  0  0  0  0  0  0  0  0  0
  -24.6300  -11.7720   20.7520 C   0  0  0  0  0  0  0  0  0  0  0  0
  -26.2320  -13.0120   20.0790 N   0  0  0  0  0  0  0  0  0  0  0  0
  -25.8980  -11.7260   20.3620 N   0  0  0  0  0  0  0  0  0  0  0  0
  -23.9050  -10.5140   20.9590 C   0  0  0  0  0  0  0  0  0  0  0  0
  -24.3610   -9.5400   21.8740 C   0  0  0  0  0  3  0  0  0  0  0  0
  -23.6310   -8.3470   22.0710 C   0  0  0  0  0  3  0  0  0  0  0  0
  -22.4320   -8.1230   21.3530 C   0  0  0  0  0  0  0  0  0  0  0  0
  -21.9960   -9.0860   20.4260 C   0  0  0  0  0  3  0  0  0  0  0  0
  -22.7270  -10.2690   20.2260 C   0  0  0  0  0  3  0  0  0  0  0  0
  -21.6710   -6.9860   21.4610 O   0  0  0  0  0  0  0  0  0  0  0  0
  -21.6470   -6.2440   22.6150 C   0  0  0  0  0  0  0  0  0  0  0  0
  -21.2390   -6.7970   23.8480 C   0  0  0  0  0  3  0  0  0  0  0  0
  -21.1630   -5.9800   24.9950 C   0  0  0  0  0  3  0  0  0  0  0  0
  -21.4860   -4.6130   24.9080 C   0  0  0  0  0  0  0  0  0  0  0  0
  -21.8870   -4.0600   23.6810 C   0  0  0  0  0  3  0  0  0  0  0  0
  -21.9650   -4.8730   22.5360 C   0  0  0  0  0  0  0  0  0  0  0  0
  -22.3330   -4.3300   21.3500 F   0  0  0  0  0  0  0  0  0  0  0  0
  -21.4040   -3.8270   26.0080 F   0  0  0  0  0  0  0  0  0  0  0  0
  -22.8030  -13.6120   21.1740 C   0  0  0  0  0  0  0  0  0  0  0  0
  -22.1090  -12.9090   22.0620 N   0  0  0  0  0  0  0  0  0  0  0  0
  -22.3550  -14.6500   20.6900 O   0  0  0  0  0  0  0  0  0  0  0  0
  -22.4870  -12.0700   22.4740 H   0  0  0  0  0  0  0  0  0  0  0  0
  -21.1850  -13.2160   22.3340 H   0  0  0  0  0  0  0  0  0  0  0  0
  -25.3850  -15.2690   20.2520 N   0  0  0  0  0  0  0  0  0  0  0  0
  -24.6280  -15.9180   20.4340 H   0  0  0  0  0  0  0  0  0  0  0  0
  -26.2060  -15.7230   19.8760 H   0  0  0  0  0  0  0  0  0  0  0  0
  1  4  1  0
  2  1  2  0
  3  6  1  0
  4 53  1  0
  5  3  2  0
  5  2  1  0
  6  7  1  0
  6  4  2  0
  8  9  1  0
  9  5  1  0
  9 10  1  0
 10 11  1  0
 11 12  1  0
 13 24  2  0
 14 12  1  0
 14 19  1  0
 15 23  1  0
 15 25  1  0
 16 22  1  0
 16 18  1  0
 17 23  1  0
 18 17  1  0
 19 18  2  0
 20 14  2  0
 21 20  1  0
 21 16  2  0
 22 15  1  0
 23 13  1  0
 25 27  2  0
 26 25  1  0
 28 26  1  0
 29 38  2  0
 29 34  1  0
 30 26  1  0
 30 34  1  0
 31 30  1  0
 32 33  1  0
 32 31  1  0
 33 29  1  0
 34 35  2  0
 35 36  1  0
 37 36  2  0
 38 37  1  0
 39 13  1  0
 39 44  1  0
 39 40  1  0
 40 43  1  1
 40 41  1  0
 42 40  1  0
 44 47  1  0
 45 49  1  0
 45 44  1  0
 46 45  2  0
 49 48  1  0
 51 49  1  0
 51 52  1  0
 51 50  1  0
 53 62  1  0
 54 60  1  0
 55 60  1  0
 56 57  1  0
 56 55  1  0
 58 57  1  0
 58 67  1  0
 58 59  1  0
 60 59  1  0
 61 54  2  0
 62 63  1  0
 62 54  1  0
 64 65  2  0
 65 84  1  0
 66 65  1  0
 66 69  1  0
 67 68  1  0
 67 64  1  0
 68 66  2  0
 69 70  1  0
 70 71  2  0
 72 75  1  0
 72 71  1  0
 73 72  2  0
 74 73  1  0
 74 69  2  0
 75 76  1  0
 76 77  1  0
 77 78  2  0
 79 78  1  0
 79 83  1  0
 80 79  2  0
 81 76  2  0
 81 80  1  0
 82 81  1  0
 84 85  1  0
 85 88  1  0
 85 87  1  0
 86 84  2  0
 89 64  1  0
 89 90  1  0
 91 89  1  0
M  ISO  4  11 101  12 101  54 100  62 100
M  END
>  <TORSDO>  (10) 
F 20

>  <SCORE>  (10) 
-14.430

>  <name>  (10) 
9

>  <ligand_id>  (10) 
9

>  <original_smiles>  (10) 
[H]c1c([H])c([H])c2c(c1[H])C([H])([H])C([H])([H])C([H])([H])C2([H])N([H])C(=O)C1([H])N(C(=O)C([H])(N([H])C(=O)C([H])(N([H])C([H])([H])[H])C([H])([H])[H])C(C([H])([H])[H])(C([H])([H])[H])C([H])([H])[H])C([H])([H])c2c([H])c(OC([H])([H])C([H])([H])N(c3c([H])c([H])c(C([H])([H])N([H])C(=O)N4C([H])([H])C([H])([H])C([H])([H])C([H])(n5nc(-c6c([H])c([H])c(Oc7c([H])c([H])c(F)c([H])c7F)c([H])c6[H])c(C(=O)N([H])[H])c5N([H])[H])C4([H])[H])c(F)c3[H])C([H])([H])[H])c([H])c([H])c2C1([H])[H]

>  <smiles>  (10) 
[H]c1c([H])c([H])c2c(c1[H])C([H])([H])C([H])([H])C([H])([H])C2([H])N([H])C(=O)C1([H])N(C(=O)C([H])(N([H])C(=O)C([H])(N([H])C([H])([H])[H])C([H])([H])[H])C(C([H])([H])[H])(C([H])([H])[H])C([H])([H])[H])C([H])([H])c2c([H])c(OC([H])([H])C([H])([H])N(c3c([H])c([H])c(C([H])([H])N([H])C(=O)N4C([H])([H])C([H])([H])C([H])([H])C([H])(n5nc(-c6c([H])c([H])c(Oc7c([H])c([H])c(F)c([H])c7F)c([H])c6[H])c(C(=O)N([H])[H])c5N([H])[H])C4([H])[H])c(F)c3[H])C([H])([H])[H])c([H])c([H])c2C1([H])[H]

$$$$
10:0:0
     RDKit          3D

 89 98  0  0  1  0  0  0  0  0999 V2000
  -29.3650  -21.2990   17.7330 C   0  0  0  0  0  3  0  0  0  0  0  0
  -29.6420  -20.0200   18.2990 C   0  0  0  0  0  3  0  0  0  0  0  0
  -29.0920  -22.4890   18.4710 C   0  0  0  0  0  3  0  0  0  0  0  0
  -29.3760  -21.1190   20.4270 C   0  0  0  0  0  3  0  0  0  0  0  0
  -29.6960  -19.7840   19.6880 C   0  0  0  0  0  0  0  0  0  0  0  0
  -29.0560  -22.5390   19.8810 C   0  0  0  0  0  0  0  0  0  0  0  0
  -30.5580  -15.2340   19.5330 C   0  0  0  0  0  0  0  0  0  0  0  0
  -30.3720  -12.8280   18.4950 C   0  0  0  0  0  2  0  0  0  0  0  0
  -29.2710  -12.6280   17.4180 C   0  0  0  0  0  2  0  0  0  0  0  0
  -27.9010  -12.3350   18.0590 C   0  0  0  0  0  2  0  0  0  0  0  0
  -27.6340  -13.2490   19.2770 C   0  0  0  0  0  3  0  0  0  0  0  0
  -28.8520  -13.3100   20.2320 C   0  0  0  0  0  2  0  0  0  0  0  0
  -29.9470  -13.9290   19.4480 N   0  0  0  0  0  0  0  0  0  0  0  0
  -31.7540  -15.1720   19.1990 O   0  0  0  0  0  0  0  0  0  0  0  0
  -28.4490  -17.3660   21.5490 C   0  0  0  0  0  2  0  0  0  0  0  0
  -29.8030  -18.0600   21.6590 C   0  0  0  0  0  2  0  0  0  0  0  0
  -28.4820  -16.6270   20.2010 C   0  0  0  0  0  2  0  0  0  0  0  0
  -30.2270  -18.1710   20.1980 C   0  0  0  0  0  3  0  0  0  0  0  0
  -29.8740  -16.5740   19.7710 N   0  0  0  0  0  0  0  0  0  0  0  0
  -25.4070  -13.8300   20.3910 C   0  0  0  0  0  0  0  0  0  0  0  0
  -24.3850  -13.0620   20.8680 C   0  0  0  0  0  0  0  0  0  0  0  0
  -24.7940  -11.7060   20.6850 C   0  0  0  0  0  0  0  0  0  0  0  0
  -26.3800  -12.9450   19.9550 N   0  0  0  0  0  0  0  0  0  0  0  0
  -26.0270  -11.6550   20.1940 N   0  0  0  0  0  0  0  0  0  0  0  0
  -24.0510  -10.4580   20.8910 C   0  0  0  0  0  0  0  0  0  0  0  0
  -24.5260   -9.4510   21.7580 C   0  0  0  0  0  3  0  0  0  0  0  0
  -23.7800   -8.2680   21.9560 C   0  0  0  0  0  3  0  0  0  0  0  0
  -22.5450   -8.0880   21.2890 C   0  0  0  0  0  0  0  0  0  0  0  0
  -22.0880   -9.0850   20.4090 C   0  0  0  0  0  3  0  0  0  0  0  0
  -22.8350  -10.2570   20.2070 C   0  0  0  0  0  3  0  0  0  0  0  0
  -21.7660   -6.9620   21.4020 O   0  0  0  0  0  0  0  0  0  0  0  0
  -21.7230   -6.2310   22.5610 C   0  0  0  0  0  0  0  0  0  0  0  0
  -21.3250   -6.8050   23.7880 C   0  0  0  0  0  3  0  0  0  0  0  0
  -21.2280   -6.0020   24.9420 C   0  0  0  0  0  3  0  0  0  0  0  0
  -21.5180   -4.6260   24.8710 C   0  0  0  0  0  0  0  0  0  0  0  0
  -21.9100   -4.0530   23.6480 C   0  0  0  0  0  3  0  0  0  0  0  0
  -22.0090   -4.8540   22.4960 C   0  0  0  0  0  0  0  0  0  0  0  0
  -22.3660   -4.2910   21.3160 F   0  0  0  0  0  0  0  0  0  0  0  0
  -21.4170   -3.8530   25.9760 F   0  0  0  0  0  0  0  0  0  0  0  0
  -23.0590  -13.5630   21.3610 C   0  0  0  0  0  0  0  0  0  0  0  0
  -22.4400  -12.8430   22.2880 N   0  0  0  0  0  0  0  0  0  0  0  0
  -22.5890  -14.6280   20.9610 O   0  0  0  0  0  0  0  0  0  0  0  0
  -22.8370  -11.9810   22.6320 H   0  0  0  0  0  0  0  0  0  0  0  0
  -21.5540  -13.1580   22.6590 H   0  0  0  0  0  0  0  0  0  0  0  0
  -25.5570  -15.2050   20.2600 N   0  0  0  0  0  0  0  0  0  0  0  0
  -24.8190  -15.8510   20.5160 H   0  0  0  0  0  0  0  0  0  0  0  0
  -26.3340  -15.6570   19.7990 H   0  0  0  0  0  0  0  0  0  0  0  0
  -28.4780  -24.0460   20.6060 C   0  0  0  0  0  2  0  0  0  0  0  0
  -28.6450  -25.6740   20.2890 O   0  0  0  0  0  0  0  0  0  0  0  0
  -24.6990  -31.5520   23.1120 C   0  0  0  0  0  0  0  0  0  0  0  0
  -27.5790  -26.7330   20.2610 C   0  0  0  0  0  0  0  0  0  0  0  0
  -23.6320  -30.0930   21.4430 C   0  0  0  0  0  3  0  0  0  0  0  0
  -25.2030  -28.5300   20.1030 C   0  0  0  0  0  0  0  0  0  0  0  0
  -26.1940  -30.4050   21.3960 C   0  0  0  0  0  2  0  0  0  0  0  0
  -26.3520  -28.9880   20.7620 C   0  0  0  0  0  0  0  0  0  0  0  0
  -27.5360  -28.1150   20.8080 C   0  0  0  0  0  3  0  0  0  0  0  0
  -26.3910  -26.4310   19.5580 C   0  0  0  0  0  3  0  0  0  0  0  0
  -25.2490  -27.2720   19.4820 C   0  0  0  0  0  3  0  0  0  0  0  0
  -23.9480  -29.4040   20.0860 C   0  0  0  0  0  2  0  0  0  0  0  0
  -24.8600  -30.7120   22.0380 N   0  0  0  0  0  0  0  0  0  0  0  0
  -23.5780  -31.8010   23.5850 O   0  0  0  0  0  0  0  0  0  0  0  0
  -22.9380  -29.0810   22.3910 C   0  0  0  0  0  0  0  0  0  0  0  0
  -21.6140  -28.8870   22.2390 N   0  0  0  0  0  0  0  0  0  0  0  0
  -23.5990  -28.4680   23.2330 O   0  0  0  0  0  0  0  0  0  0  0  0
  -21.1330  -29.4340   21.5390 H   0  0  0  0  0  0  0  0  0  0  0  0
  -18.2440  -27.6180   22.6990 C   0  0  0  0  0  0  0  0  0  0  0  0
  -20.7970  -27.9270   22.9910 C   0  0  0  0  0  3  0  0  0  0  0  0
  -20.9290  -26.5040   22.4000 C   0  0  0  0  0  2  0  0  0  0  0  0
  -19.8430  -26.1740   21.3720 C   0  0  0  0  0  2  0  0  0  0  0  0
  -18.4530  -26.2830   22.0040 C   0  0  0  0  0  2  0  0  0  0  0  0
  -19.3460  -28.3970   23.1490 C   0  0  0  0  0  0  0  0  0  0  0  0
  -19.0950  -29.6420   23.7640 C   0  0  0  0  0  3  0  0  0  0  0  0
  -17.7790  -30.1120   23.9310 C   0  0  0  0  0  3  0  0  0  0  0  0
  -16.6930  -29.3330   23.4950 C   0  0  0  0  0  3  0  0  0  0  0  0
  -16.9280  -28.0870   22.8860 C   0  0  0  0  0  3  0  0  0  0  0  0
  -25.9140  -32.2550   23.7900 C   0  0  0  0  0  3  0  0  0  0  0  0
  -25.5240  -33.6430   24.0970 N   0  0  0  0  0  0  0  0  0  0  0  0
  -25.8210  -34.7090   23.3420 C   0  0  0  0  0  0  0  0  0  0  0  0
  -26.5130  -34.6320   22.3240 O   0  0  0  0  0  0  0  0  0  0  0  0
  -24.9070  -33.7730   24.8850 H   0  0  0  0  0  0  0  0  0  0  0  0
  -24.0060  -36.4180   22.9710 C   0  0  0  0  0  1  0  0  0  0  0  0
  -25.2640  -36.0790   23.7850 C   0  0  0  0  0  3  0  0  0  0  0  0
  -27.3480  -37.0850   24.6120 C   0  0  0  0  0  1  0  0  0  0  0  0
  -26.2440  -37.1820   23.6610 N   0  0  0  0  0  0  0  0  0  0  0  0
  -25.7910  -38.0830   23.7930 H   0  0  0  0  0  0  0  0  0  0  0  0
  -26.3940  -31.5250   25.1060 C   0  0  1  0  0  0  0  0  0  0  0  0
  -25.2590  -31.2640   26.1240 C   0  0  0  0  0  1  0  0  0  0  0  0
  -27.0470  -30.1650   24.7760 C   0  0  0  0  0  1  0  0  0  0  0  0
  -27.4810  -32.3750   25.8070 C   0  0  0  0  0  1  0  0  0  0  0  0
  1  2  2  0
  1  3  1  0
  2  5  1  0
  3  6  2  0
  5  4  2  0
  6  4  1  0
  6 48  1  0
  7 19  1  0
  8 13  1  0
  9 10  1  0
  9  8  1  0
 11 10  1  0
 11 23  1  0
 11 12  1  0
 13  7  1  0
 13 12  1  0
 14  7  2  0
 15 16  1  0
 17 15  1  0
 18  5  1  0
 18 16  1  0
 19 18  1  0
 19 17  1  0
 20 21  2  0
 21 40  1  0
 22 21  1  0
 22 25  1  0
 23 24  1  0
 23 20  1  0
 24 22  2  0
 25 26  1  0
 26 27  2  0
 28 31  1  0
 28 27  1  0
 29 28  2  0
 30 29  1  0
 30 25  2  0
 31 32  1  0
 32 33  1  0
 33 34  2  0
 35 34  1  0
 35 39  1  0
 36 35  2  0
 37 32  2  0
 37 36  1  0
 38 37  1  0
 40 41  1  0
 41 43  1  0
 41 44  1  0
 42 40  2  0
 45 20  1  0
 45 46  1  0
 47 45  1  0
 49 48  1  0
 50 61  2  0
 51 49  1  0
 51 56  1  0
 52 60  1  0
 52 62  1  0
 53 55  1  0
 54 60  1  0
 55 56  2  0
 55 54  1  0
 57 51  2  0
 58 57  1  0
 58 53  2  0
 59 53  1  0
 59 52  1  0
 60 50  1  0
 62 64  2  0
 63 62  1  0
 65 63  1  0
 66 75  2  0
 66 71  1  0
 67 63  1  0
 67 71  1  0
 68 67  1  0
 69 70  1  0
 69 68  1  0
 70 66  1  0
 71 72  2  0
 72 73  1  0
 74 73  2  0
 75 74  1  0
 76 50  1  0
 76 77  1  0
 76 86  1  0
 77 80  1  0
 78 82  1  0
 78 77  1  0
 79 78  2  0
 82 81  1  0
 84 82  1  0
 84 85  1  0
 84 83  1  0
 86 89  1  1
 86 87  1  0
 88 86  1  0
M  ISO  4   7 100  19 100  48 101  49 101
M  END
>  <TORSDO>  (11) 
F 17

>  <SCORE>  (11) 
-13.451

>  <name>  (11) 
10

>  <ligand_id>  (11) 
10

>  <original_smiles>  (11) 
[H]c1c([H])c([H])c2c(c1[H])C([H])([H])C([H])([H])C([H])([H])C2([H])N([H])C(=O)C1([H])N(C(=O)C([H])(N([H])C(=O)C([H])(N([H])C([H])([H])[H])C([H])([H])[H])C(C([H])([H])[H])(C([H])([H])[H])C([H])([H])[H])C([H])([H])c2c([H])c(OC([H])([H])c3c([H])c([H])c([H])c(C4([H])N(C(=O)N5C([H])([H])C([H])([H])C([H])([H])C([H])(n6nc(-c7c([H])c([H])c(Oc8c([H])c([H])c(F)c([H])c8F)c([H])c7[H])c(C(=O)N([H])[H])c6N([H])[H])C5([H])[H])C([H])([H])C([H])([H])C4([H])[H])c3[H])c([H])c([H])c2C1([H])[H]

>  <smiles>  (11) 
[H]c1c([H])c([H])c2c(c1[H])C([H])([H])C([H])([H])C([H])([H])C2([H])N([H])C(=O)C1([H])N(C(=O)C([H])(N([H])C(=O)C([H])(N([H])C([H])([H])[H])C([H])([H])[H])C(C([H])([H])[H])(C([H])([H])[H])C([H])([H])[H])C([H])([H])c2c([H])c(OC([H])([H])c3c([H])c([H])c([H])c(C4([H])N(C(=O)N5C([H])([H])C([H])([H])C([H])([H])C([H])(n6nc(-c7c([H])c([H])c(Oc8c([H])c([H])c(F)c([H])c8F)c([H])c7[H])c(C(=O)N([H])[H])c6N([H])[H])C5([H])[H])C([H])([H])C([H])([H])C4([H])[H])c3[H])c([H])c([H])c2C1([H])[H]

$$$$
11:0:0
     RDKit          3D

 94102  0  0  1  0  0  0  0  0999 V2000
  -29.9760  -20.1190   22.6220 C   0  0  0  0  0  3  0  0  0  0  0  0
  -29.5790  -21.2640   21.8980 C   0  0  0  0  0  3  0  0  0  0  0  0
  -29.7600  -19.9590   19.8690 C   0  0  0  0  0  3  0  0  0  0  0  0
  -30.2970  -18.8850   22.0000 C   0  0  0  0  0  0  0  0  0  0  0  0
  -30.1800  -18.7610   20.5860 C   0  0  0  0  0  0  0  0  0  0  0  0
  -29.4640  -21.2350   20.4960 C   0  0  0  0  0  0  0  0  0  0  0  0
  -30.7940  -17.7350   22.8830 C   0  0  1  0  0  0  0  0  0  0  0  0
  -30.9340  -18.1110   24.1550 F   0  0  0  0  0  0  0  0  0  0  0  0
  -29.9190  -16.7290   22.8610 F   0  0  0  0  0  0  0  0  0  0  0  0
  -31.9850  -17.2980   22.4760 F   0  0  0  0  0  0  0  0  0  0  0  0
  -29.0410  -22.4220   19.7820 N   0  0  0  0  0  0  0  0  0  0  0  0
  -28.8610  -22.3010   18.7880 H   0  0  0  0  0  0  0  0  0  0  0  0
  -29.2160  -23.8740   20.2110 C   0  0  0  0  0  3  0  0  0  0  0  0
  -28.1490  -24.9660   19.6790 C   0  0  0  0  0  3  0  0  0  0  0  0
  -28.3510  -26.4430   19.8580 O   0  0  0  0  0  0  0  0  0  0  0  0
  -24.6340  -31.7490   23.1010 C   0  0  0  0  0  0  0  0  0  0  0  0
  -27.2300  -27.3050   19.8370 C   0  0  0  0  0  0  0  0  0  0  0  0
  -23.4030  -30.3670   21.4670 C   0  0  0  0  0  3  0  0  0  0  0  0
  -24.8360  -28.8900   19.9440 C   0  0  0  0  0  0  0  0  0  0  0  0
  -25.9290  -30.7420   21.2050 C   0  0  0  0  0  2  0  0  0  0  0  0
  -26.0170  -29.3810   20.5170 C   0  0  0  0  0  0  0  0  0  0  0  0
  -27.2140  -28.6000   20.4540 C   0  0  0  0  0  3  0  0  0  0  0  0
  -26.0260  -26.8880   19.2230 C   0  0  0  0  0  3  0  0  0  0  0  0
  -24.8460  -27.6540   19.2840 C   0  0  0  0  0  3  0  0  0  0  0  0
  -23.5840  -29.7360   20.0610 C   0  0  0  0  0  2  0  0  0  0  0  0
  -24.6760  -30.9700   21.9810 N   0  0  0  0  0  0  0  0  0  0  0  0
  -23.5650  -31.9870   23.6800 O   0  0  0  0  0  0  0  0  0  0  0  0
  -22.7970  -29.3120   22.4230 C   0  0  0  0  0  0  0  0  0  0  0  0
  -21.4830  -29.0590   22.2930 N   0  0  0  0  0  0  0  0  0  0  0  0
  -23.5090  -28.7210   23.2410 O   0  0  0  0  0  0  0  0  0  0  0  0
  -20.9640  -29.5910   21.6070 H   0  0  0  0  0  0  0  0  0  0  0  0
  -18.1920  -27.6240   22.7380 C   0  0  0  0  0  0  0  0  0  0  0  0
  -20.7180  -28.0740   23.0600 C   0  0  0  0  0  3  0  0  0  0  0  0
  -20.9380  -26.6470   22.5070 C   0  0  0  0  0  2  0  0  0  0  0  0
  -19.8860  -26.2310   21.4740 C   0  0  0  0  0  2  0  0  0  0  0  0
  -18.4830  -26.2830   22.0860 C   0  0  0  0  0  2  0  0  0  0  0  0
  -19.2420  -28.4720   23.1810 C   0  0  0  0  0  0  0  0  0  0  0  0
  -18.9180  -29.7220   23.7500 C   0  0  0  0  0  3  0  0  0  0  0  0
  -17.5750  -30.1280   23.8820 C   0  0  0  0  0  3  0  0  0  0  0  0
  -16.5400  -29.2770   23.4570 C   0  0  0  0  0  3  0  0  0  0  0  0
  -16.8480  -28.0290   22.8890 C   0  0  0  0  0  3  0  0  0  0  0  0
  -25.9240  -32.3960   23.6940 C   0  0  0  0  0  3  0  0  0  0  0  0
  -25.5970  -33.7810   24.0630 N   0  0  0  0  0  0  0  0  0  0  0  0
  -25.8920  -34.8570   23.3220 C   0  0  0  0  0  0  0  0  0  0  0  0
  -26.5360  -34.7900   22.2710 O   0  0  0  0  0  0  0  0  0  0  0  0
  -25.0210  -33.9060   24.8820 H   0  0  0  0  0  0  0  0  0  0  0  0
  -24.1250  -36.6290   23.0560 C   0  0  0  0  0  1  0  0  0  0  0  0
  -25.3930  -36.2260   23.8250 C   0  0  0  0  0  3  0  0  0  0  0  0
  -27.5300  -37.1310   24.6250 C   0  0  0  0  0  1  0  0  0  0  0  0
  -26.4030  -37.3000   23.7120 N   0  0  0  0  0  0  0  0  0  0  0  0
  -25.9850  -38.2080   23.8910 H   0  0  0  0  0  0  0  0  0  0  0  0
  -26.4960  -31.6100   24.9380 C   0  0  1  0  0  0  0  0  0  0  0  0
  -25.4390  -31.3150   26.0280 C   0  0  0  0  0  1  0  0  0  0  0  0
  -27.1080  -30.2600   24.4990 C   0  0  0  0  0  1  0  0  0  0  0  0
  -27.6410  -32.4220   25.5890 C   0  0  0  0  0  1  0  0  0  0  0  0
  -30.6440  -17.4400   19.8180 C   0  0  0  0  0  2  0  0  0  0  0  0
  -30.9770  -14.8540   19.9000 C   0  0  0  0  0  0  0  0  0  0  0  0
  -30.6320  -12.6250   18.8380 C   0  0  0  0  0  2  0  0  0  0  0  0
  -29.6370  -12.7760   17.6670 C   0  0  0  0  0  2  0  0  0  0  0  0
  -28.1880  -12.6310   18.1690 C   0  0  0  0  0  2  0  0  0  0  0  0
  -27.9080  -13.4830   19.4360 C   0  0  0  0  0  3  0  0  0  0  0  0
  -29.0230  -13.3320   20.4970 C   0  0  0  0  0  2  0  0  0  0  0  0
  -30.2990  -13.6570   19.8480 N   0  0  0  0  0  0  0  0  0  0  0  0
  -32.1300  -14.9240   19.4680 O   0  0  0  0  0  0  0  0  0  0  0  0
  -30.2760  -16.0080   20.2070 N   0  0  0  0  0  0  0  0  0  0  0  0
  -29.3450  -15.8730   20.5710 H   0  0  0  0  0  0  0  0  0  0  0  0
  -25.5650  -14.1030   20.2800 C   0  0  0  0  0  0  0  0  0  0  0  0
  -24.5060  -13.3420   20.6930 C   0  0  0  0  0  0  0  0  0  0  0  0
  -24.9450  -11.9840   20.6270 C   0  0  0  0  0  0  0  0  0  0  0  0
  -26.5840  -13.2100   19.9870 N   0  0  0  0  0  0  0  0  0  0  0  0
  -26.2190  -11.9310   20.2570 N   0  0  0  0  0  0  0  0  0  0  0  0
  -24.2090  -10.7310   20.8380 C   0  0  0  0  0  0  0  0  0  0  0  0
  -24.6250   -9.7830   21.7990 C   0  0  0  0  0  3  0  0  0  0  0  0
  -23.8880   -8.5950   21.9970 C   0  0  0  0  0  3  0  0  0  0  0  0
  -22.7220   -8.3470   21.2370 C   0  0  0  0  0  0  0  0  0  0  0  0
  -22.3260   -9.2830   20.2660 C   0  0  0  0  0  3  0  0  0  0  0  0
  -23.0620  -10.4620   20.0650 C   0  0  0  0  0  3  0  0  0  0  0  0
  -21.9590   -7.2090   21.3430 O   0  0  0  0  0  0  0  0  0  0  0  0
  -21.8190   -6.5450   22.5350 C   0  0  0  0  0  0  0  0  0  0  0  0
  -21.3030   -7.1800   23.6870 C   0  0  0  0  0  3  0  0  0  0  0  0
  -21.1130   -6.4410   24.8720 C   0  0  0  0  0  3  0  0  0  0  0  0
  -21.4270   -5.0690   24.9050 C   0  0  0  0  0  0  0  0  0  0  0  0
  -21.9360   -4.4340   23.7590 C   0  0  0  0  0  3  0  0  0  0  0  0
  -22.1270   -5.1710   22.5750 C   0  0  0  0  0  0  0  0  0  0  0  0
  -22.5970   -4.5500   21.4670 F   0  0  0  0  0  0  0  0  0  0  0  0
  -21.2370   -4.3560   26.0410 F   0  0  0  0  0  0  0  0  0  0  0  0
  -23.1310  -13.8380   21.0330 C   0  0  0  0  0  0  0  0  0  0  0  0
  -22.4420  -13.1570   21.9420 N   0  0  0  0  0  0  0  0  0  0  0  0
  -22.6770  -14.8650   20.5290 O   0  0  0  0  0  0  0  0  0  0  0  0
  -22.8210  -12.3250   22.3700 H   0  0  0  0  0  0  0  0  0  0  0  0
  -21.5210  -13.4720   22.2130 H   0  0  0  0  0  0  0  0  0  0  0  0
  -25.7400  -15.4720   20.1050 N   0  0  0  0  0  0  0  0  0  0  0  0
  -24.9870  -16.1360   20.2560 H   0  0  0  0  0  0  0  0  0  0  0  0
  -26.5720  -15.9040   19.7220 H   0  0  0  0  0  0  0  0  0  0  0  0
  2  1  2  0
  3  6  2  0
  3  5  1  0
  4  1  1  0
  4  7  1  0
  5  4  2  0
  6  2  1  0
  7  8  1  1
  9  7  1  0
 10  7  1  0
 11 13  1  0
 11  6  1  0
 12 11  1  0
 14 15  1  0
 14 13  2  0
 16 27  2  0
 17 15  1  0
 17 22  1  0
 18 26  1  0
 18 28  1  0
 19 25  1  0
 19 21  1  0
 20 26  1  0
 21 20  1  0
 22 21  2  0
 23 24  1  0
 23 17  2  0
 24 19  2  0
 25 18  1  0
 26 16  1  0
 28 30  2  0
 29 28  1  0
 31 29  1  0
 32 41  2  0
 32 37  1  0
 33 29  1  0
 33 37  1  0
 34 33  1  0
 35 36  1  0
 35 34  1  0
 36 32  1  0
 37 38  2  0
 38 39  1  0
 40 39  2  0
 41 40  1  0
 42 16  1  0
 42 43  1  0
 42 52  1  0
 43 46  1  0
 44 48  1  0
 44 43  1  0
 45 44  2  0
 48 47  1  0
 50 48  1  0
 50 51  1  0
 50 49  1  0
 52 55  1  1
 52 53  1  0
 54 52  1  0
 56 65  1  0
 56  5  1  0
 57 65  1  0
 58 63  1  0
 59 60  1  0
 59 58  1  0
 61 60  1  0
 61 70  1  0
 61 62  1  0
 63 57  1  0
 63 62  1  0
 64 57  2  0
 65 66  1  0
 67 68  2  0
 68 87  1  0
 69 68  1  0
 69 72  1  0
 70 71  1  0
 70 67  1  0
 71 69  2  0
 72 73  1  0
 73 74  2  0
 75 78  1  0
 75 74  1  0
 76 75  2  0
 77 76  1  0
 77 72  2  0
 78 79  1  0
 79 84  2  0
 79 80  1  0
 80 81  2  0
 81 82  1  0
 82 86  1  0
 83 82  2  0
 84 83  1  0
 85 84  1  0
 87 88  1  0
 88 91  1  0
 88 90  1  0
 89 87  2  0
 92 93  1  0
 92 67  1  0
 94 92  1  0
M  ISO  4  14 101  15 101  57 100  65 100
M  END
>  <TORSDO>  (12) 
F 21

>  <SCORE>  (12) 
-11.042

>  <name>  (12) 
11

>  <ligand_id>  (12) 
11

>  <original_smiles>  (12) 
[H]c1c([H])c([H])c2c(c1[H])C([H])([H])C([H])([H])C([H])([H])C2([H])N([H])C(=O)C1([H])N(C(=O)C([H])(N([H])C(=O)C([H])(N([H])C([H])([H])[H])C([H])([H])[H])C(C([H])([H])[H])(C([H])([H])[H])C([H])([H])[H])C([H])([H])c2c([H])c(OC([H])([H])C([H])([H])N([H])c3c([H])c([H])c(C(F)(F)F)c(C([H])([H])N([H])C(=O)N4C([H])([H])C([H])([H])C([H])([H])C([H])(n5nc(-c6c([H])c([H])c(Oc7c([H])c([H])c(F)c([H])c7F)c([H])c6[H])c(C(=O)N([H])[H])c5N([H])[H])C4([H])[H])c3[H])c([H])c([H])c2C1([H])[H]

>  <smiles>  (12) 
[H]c1c([H])c([H])c2c(c1[H])C([H])([H])C([H])([H])C([H])([H])C2([H])N([H])C(=O)C1([H])N(C(=O)C([H])(N([H])C(=O)C([H])(N([H])C([H])([H])[H])C([H])([H])[H])C(C([H])([H])[H])(C([H])([H])[H])C([H])([H])[H])C([H])([H])c2c([H])c(OC([H])([H])C([H])([H])N([H])c3c([H])c([H])c(C(F)(F)F)c(C([H])([H])N([H])C(=O)N4C([H])([H])C([H])([H])C([H])([H])C([H])(n5nc(-c6c([H])c([H])c(Oc7c([H])c([H])c(F)c([H])c7F)c([H])c6[H])c(C(=O)N([H])[H])c5N([H])[H])C4([H])[H])c3[H])c([H])c([H])c2C1([H])[H]

$$$$
12:0:0
     RDKit          3D

110120  0  0  1  0  0  0  0  0999 V2000
  -30.6830  -17.8780   18.3440 C   0  0  0  0  0  0  0  0  0  0  0  0
  -28.5750  -19.6340   16.0840 C   0  0  0  0  0  2  0  0  0  0  0  0
  -30.5440  -21.0930   16.6620 C   0  0  0  0  0  2  0  0  0  0  0  0
  -29.4810  -18.4120   16.2690 C   0  0  0  0  0  2  0  0  0  0  0  0
  -31.4160  -19.8500   17.0000 C   0  0  0  0  0  3  0  0  0  0  0  0
  -29.4030  -20.8520   15.6650 C   0  0  0  0  0  3  0  0  0  0  0  0
  -30.5540  -18.6730   17.2510 N   0  0  0  0  0  0  0  0  0  0  0  0
  -29.7450  -17.2070   18.7810 O   0  0  0  0  0  0  0  0  0  0  0  0
  -29.8970  -20.6700   14.4410 F   0  0  0  0  0  0  0  0  0  0  0  0
  -32.7540  -16.5050   18.3470 C   0  0  0  0  0  3  0  0  0  0  0  0
  -34.0150  -16.1120   18.8280 C   0  0  0  0  0  3  0  0  0  0  0  0
  -33.9750  -17.9610   20.3920 C   0  0  0  0  0  3  0  0  0  0  0  0
  -32.0680  -17.6160   18.8880 C   0  0  0  0  0  0  0  0  0  0  0  0
  -34.6410  -16.8340   19.8630 C   0  0  0  0  0  0  0  0  0  0  0  0
  -32.6930  -18.3560   19.9450 C   0  0  0  0  0  0  0  0  0  0  0  0
  -30.9100  -19.9470   20.6770 C   0  0  0  0  0  0  0  0  0  0  0  0
  -29.4990  -21.9100   20.2560 C   0  0  0  0  0  2  0  0  0  0  0  0
  -29.6870  -22.3210   18.7800 C   0  0  0  0  0  2  0  0  0  0  0  0
  -30.8890  -23.2780   18.6420 C   0  0  0  0  0  2  0  0  0  0  0  0
  -32.1710  -22.7130   19.3170 C   0  0  0  0  0  3  0  0  0  0  0  0
  -31.8540  -22.2830   20.7650 C   0  0  0  0  0  2  0  0  0  0  0  0
  -30.7550  -21.2950   20.7110 N   0  0  0  0  0  0  0  0  0  0  0  0
  -29.9690  -19.1510   20.6660 O   0  0  0  0  0  0  0  0  0  0  0  0
  -32.1850  -19.5580   20.5170 N   0  0  0  0  0  0  0  0  0  0  0  0
  -32.8700  -20.2570   20.7640 H   0  0  0  0  0  0  0  0  0  0  0  0
  -34.6460  -23.4410   19.3700 C   0  0  0  0  0  0  0  0  0  0  0  0
  -35.2370  -24.6560   19.1430 C   0  0  0  0  0  0  0  0  0  0  0  0
  -34.1710  -25.5730   18.8910 C   0  0  0  0  0  0  0  0  0  0  0  0
  -33.2800  -23.6580   19.2470 N   0  0  0  0  0  0  0  0  0  0  0  0
  -33.0010  -24.9630   19.0060 N   0  0  0  0  0  0  0  0  0  0  0  0
  -34.1970  -26.9850   18.4930 C   0  0  0  0  0  0  0  0  0  0  0  0
  -33.4100  -27.9490   19.1610 C   0  0  0  0  0  3  0  0  0  0  0  0
  -33.4580  -29.3050   18.7690 C   0  0  0  0  0  3  0  0  0  0  0  0
  -34.3050  -29.7060   17.7090 C   0  0  0  0  0  0  0  0  0  0  0  0
  -35.0690  -28.7380   17.0350 C   0  0  0  0  0  3  0  0  0  0  0  0
  -35.0160  -27.3890   17.4200 C   0  0  0  0  0  3  0  0  0  0  0  0
  -34.4020  -30.9950   17.2480 O   0  0  0  0  0  0  0  0  0  0  0  0
  -34.0360  -32.0670   18.0230 C   0  0  0  0  0  0  0  0  0  0  0  0
  -34.5970  -32.2930   19.2990 C   0  0  0  0  0  3  0  0  0  0  0  0
  -34.2460  -33.4460   20.0270 C   0  0  0  0  0  3  0  0  0  0  0  0
  -33.3370  -34.3750   19.4840 C   0  0  0  0  0  0  0  0  0  0  0  0
  -32.7770  -34.1510   18.2130 C   0  0  0  0  0  3  0  0  0  0  0  0
  -33.1280  -33.0020   17.4840 C   0  0  0  0  0  0  0  0  0  0  0  0
  -32.6040  -32.8040   16.2510 F   0  0  0  0  0  0  0  0  0  0  0  0
  -33.0030  -35.4850   20.1810 F   0  0  0  0  0  0  0  0  0  0  0  0
  -36.7110  -24.9430   19.0850 C   0  0  0  0  0  0  0  0  0  0  0  0
  -37.1180  -26.1440   19.4830 N   0  0  0  0  0  0  0  0  0  0  0  0
  -37.5160  -24.0840   18.7300 O   0  0  0  0  0  0  0  0  0  0  0  0
  -36.4610  -26.8450   19.7900 H   0  0  0  0  0  0  0  0  0  0  0  0
  -38.1030  -26.3680   19.4760 H   0  0  0  0  0  0  0  0  0  0  0  0
  -35.1570  -22.1800   19.6770 N   0  0  0  0  0  0  0  0  0  0  0  0
  -36.1270  -22.1950   19.9700 H   0  0  0  0  0  0  0  0  0  0  0  0
  -34.5850  -21.6100   20.2840 H   0  0  0  0  0  0  0  0  0  0  0  0
  -37.2750  -16.7610   19.7490 C   0  0  0  0  0  2  0  0  0  0  0  0
  -36.8410  -15.3190   19.8830 C   0  0  0  0  0  2  0  0  0  0  0  0
  -35.9730  -16.4310   20.4460 C   0  0  0  0  0  3  0  0  0  0  0  0
  -32.4990  -19.6290   15.9370 C   0  0  0  0  0  0  0  0  0  0  0  0
  -33.3360  -20.6590   15.7580 N   0  0  0  0  0  0  0  0  0  0  0  0
  -32.6110  -18.5620   15.3320 O   0  0  0  0  0  0  0  0  0  0  0  0
  -33.1200  -21.5070   16.2720 H   0  0  0  0  0  0  0  0  0  0  0  0
  -34.5360  -20.6720   14.9270 C   0  0  0  0  0  2  0  0  0  0  0  0
  -35.6860  -19.8880   15.5960 C   0  0  0  0  0  2  0  0  0  0  0  0
  -36.0170  -18.5550   14.9060 C   0  0  0  0  0  2  0  0  0  0  0  0
  -37.4990  -16.6910   15.4810 C   0  0  0  0  0  1  0  0  0  0  0  0
  -37.4310  -18.1310   15.1250 N   0  0  2  0  0  4  0  0  0  0  0  0
  -37.8910  -18.2100   14.2310 H   0  0  0  0  0  0  0  0  0  0  0  0
  -38.1590  -19.0160   16.0850 C   0  0  0  0  0  2  0  0  0  0  0  0
  -39.3240  -18.3390   16.8600 C   0  0  0  0  0  2  0  0  0  0  0  0
  -40.7320  -18.8990   16.5220 C   0  0  0  0  0  2  0  0  0  0  0  0
  -41.2400  -19.7670   17.5490 O   0  0  0  0  0  0  0  0  0  0  0  0
  -41.9550  -26.5930   19.4630 C   0  0  0  0  0  0  0  0  0  0  0  0
  -41.7020  -21.0190   17.1910 C   0  0  0  0  0  0  0  0  0  0  0  0
  -42.4540  -26.0790   17.0990 C   0  0  0  0  0  3  0  0  0  0  0  0
  -42.6370  -23.6080   16.5200 C   0  0  0  0  0  0  0  0  0  0  0  0
  -42.7600  -24.2990   18.9150 C   0  0  0  0  0  2  0  0  0  0  0  0
  -42.4520  -23.2560   17.8610 C   0  0  0  0  0  0  0  0  0  0  0  0
  -41.9860  -21.9650   18.2020 C   0  0  0  0  0  3  0  0  0  0  0  0
  -41.9100  -21.3970   15.8410 C   0  0  0  0  0  3  0  0  0  0  0  0
  -42.3550  -22.6840   15.5040 C   0  0  0  0  0  3  0  0  0  0  0  0
  -43.1490  -24.9990   16.2310 C   0  0  0  0  0  2  0  0  0  0  0  0
  -42.3540  -25.6760   18.5380 N   0  0  0  0  0  0  0  0  0  0  0  0
  -41.7150  -27.7640   19.1420 O   0  0  0  0  0  0  0  0  0  0  0  0
  -41.0900  -26.4240   16.4600 C   0  0  0  0  0  0  0  0  0  0  0  0
  -41.1230  -27.2230   15.3820 N   0  0  0  0  0  0  0  0  0  0  0  0
  -40.0440  -25.9530   16.9120 O   0  0  0  0  0  0  0  0  0  0  0  0
  -42.0200  -27.5660   15.0710 H   0  0  0  0  0  0  0  0  0  0  0  0
  -40.1150  -29.1910   12.5260 C   0  0  0  0  0  0  0  0  0  0  0  0
  -39.9650  -27.6540   14.5970 C   0  0  0  0  0  3  0  0  0  0  0  0
  -39.5160  -26.5430   13.6200 C   0  0  0  0  0  2  0  0  0  0  0  0
  -40.1440  -26.6770   12.2300 C   0  0  0  0  0  2  0  0  0  0  0  0
  -39.7870  -28.0290   11.6030 C   0  0  0  0  0  2  0  0  0  0  0  0
  -40.2160  -29.0110   13.9310 C   0  0  0  0  0  0  0  0  0  0  0  0
  -40.5630  -30.1160   14.7390 C   0  0  0  0  0  3  0  0  0  0  0  0
  -40.7990  -31.3800   14.1700 C   0  0  0  0  0  3  0  0  0  0  0  0
  -40.6820  -31.5550   12.7780 C   0  0  0  0  0  3  0  0  0  0  0  0
  -40.3360  -30.4640   11.9610 C   0  0  0  0  0  3  0  0  0  0  0  0
  -41.8060  -26.2190   20.9730 C   0  0  0  0  0  3  0  0  0  0  0  0
  -40.3060  -26.0200   21.4190 C   0  0  1  0  0  0  0  0  0  0  0  0
  -39.3800  -27.1910   21.0210 C   0  0  0  0  0  1  0  0  0  0  0  0
  -39.7160  -24.7290   20.8040 C   0  0  0  0  0  1  0  0  0  0  0  0
  -40.2330  -25.8580   22.9550 C   0  0  0  0  0  1  0  0  0  0  0  0
  -42.4480  -27.2840   21.7570 N   0  0  0  0  0  0  0  0  0  0  0  0
  -43.7080  -27.2400   22.2100 C   0  0  0  0  0  0  0  0  0  0  0  0
  -44.4370  -26.2530   22.0710 O   0  0  0  0  0  0  0  0  0  0  0  0
  -41.9270  -28.1410   21.8660 H   0  0  0  0  0  0  0  0  0  0  0  0
  -45.1060  -29.3140   21.9560 C   0  0  0  0  0  1  0  0  0  0  0  0
  -44.2470  -28.4900   22.9300 C   0  0  0  0  0  3  0  0  0  0  0  0
  -44.2150  -27.6080   25.2210 C   0  0  0  0  0  1  0  0  0  0  0  0
  -45.0260  -28.1800   24.1490 N   0  0  0  0  0  0  0  0  0  0  0  0
  -45.4780  -29.0150   24.5080 H   0  0  0  0  0  0  0  0  0  0  0  0
  1  8  2  0
  1 13  1  0
  2  4  1  0
  3  5  1  0
  4  7  1  0
  5 57  1  0
  5  7  1  0
  6  9  1  0
  6  2  1  0
  6  3  1  0
  7  1  1  0
 10 11  2  0
 10 13  1  0
 11 14  1  0
 13 15  2  0
 14 12  2  0
 14 56  1  0
 15 12  1  0
 15 24  1  0
 16 22  1  0
 17 22  1  0
 18 17  1  0
 19 18  1  0
 20 19  1  0
 20 21  1  0
 22 21  1  0
 23 16  2  0
 24 16  1  0
 24 25  1  0
 26 51  1  0
 27 26  2  0
 28 30  2  0
 28 27  1  0
 29 20  1  0
 29 26  1  0
 30 29  1  0
 31 28  1  0
 31 32  1  0
 33 32  2  0
 34 33  1  0
 35 36  1  0
 35 34  2  0
 36 31  2  0
 37 34  1  0
 37 38  1  0
 38 39  1  0
 39 40  2  0
 41 40  1  0
 41 45  1  0
 42 41  2  0
 43 38  2  0
 43 42  1  0
 44 43  1  0
 46 27  1  0
 46 47  1  0
 47 49  1  0
 48 46  2  0
 50 47  1  0
 51 52  1  0
 51 53  1  0
 54 55  1  0
 54 56  1  0
 55 56  1  0
 58 57  1  0
 58 60  1  0
 59 57  2  0
 61 62  1  0
 61 58  1  0
 63 65  1  0
 63 62  1  0
 65 64  1  0
 65 67  1  0
 65 66  1  6
 67 68  1  0
 69 68  1  0
 69 70  1  0
 72 70  1  0
 72 77  1  0
 73 83  1  0
 73 81  1  0
 74 76  1  0
 76 77  2  0
 76 75  1  0
 78 72  2  0
 79 78  1  0
 79 74  2  0
 80 74  1  0
 80 73  1  0
 81 75  1  0
 81 71  1  0
 82 71  2  0
 83 85  2  0
 84 83  1  0
 86 84  1  0
 87 92  1  0
 88 84  1  0
 89 88  1  0
 90 89  1  0
 91 90  1  0
 91 87  1  0
 92 88  1  0
 92 93  2  0
 94 93  1  0
 95 94  2  0
 96 87  2  0
 96 95  1  0
 97 71  1  0
 97 98  1  0
 97102  1  0
 98101  1  1
 99 98  1  0
100 98  1  0
102105  1  0
102103  1  0
103107  1  0
104103  2  0
107106  1  0
107109  1  0
109110  1  0
109108  1  0
M  ISO  4  16 100  24 100  69 101  70 101
M  END
>  <TORSDO>  (13) 
F 26

>  <SCORE>  (13) 
-0.233

>  <name>  (13) 
12

>  <ligand_id>  (13) 
12

>  <original_smiles>  (13) 
[H]c1c([H])c([H])c2c(c1[H])C([H])([H])C([H])([H])C([H])([H])C2([H])N([H])C(=O)C1([H])N(C(=O)C([H])(N([H])C(=O)C([H])(N([H])C([H])([H])[H])C([H])([H])[H])C(C([H])([H])[H])(C([H])([H])[H])C([H])([H])[H])C([H])([H])c2c([H])c(OC([H])([H])C([H])([H])C([H])([H])[N+]([H])(C([H])([H])[H])C([H])([H])C([H])([H])C([H])([H])N([H])C(=O)C3([H])N(C(=O)c4c([H])c([H])c(C5([H])C([H])([H])C5([H])[H])c([H])c4N([H])C(=O)N4C([H])([H])C([H])([H])C([H])([H])C([H])(n5nc(-c6c([H])c([H])c(Oc7c([H])c([H])c(F)c([H])c7F)c([H])c6[H])c(C(=O)N([H])[H])c5N([H])[H])C4([H])[H])C([H])([H])C([H])([H])C([H])(F)C3([H])[H])c([H])c([H])c2C1([H])[H]

>  <smiles>  (13) 
[H]c1c([H])c([H])c2c(c1[H])C([H])([H])C([H])([H])C([H])([H])C2([H])N([H])C(=O)C1([H])N(C(=O)C([H])(N([H])C(=O)C([H])(N([H])C([H])([H])[H])C([H])([H])[H])C(C([H])([H])[H])(C([H])([H])[H])C([H])([H])[H])C([H])([H])c2c([H])c(OC([H])([H])C([H])([H])C([H])([H])[N+]([H])(C([H])([H])[H])C([H])([H])C([H])([H])C([H])([H])N([H])C(=O)C3([H])N(C(=O)c4c([H])c([H])c(C5([H])C([H])([H])C5([H])[H])c([H])c4N([H])C(=O)N4C([H])([H])C([H])([H])C([H])([H])C([H])(n5nc(-c6c([H])c([H])c(Oc7c([H])c([H])c(F)c([H])c7F)c([H])c6[H])c(C(=O)N([H])[H])c5N([H])[H])C4([H])[H])C([H])([H])C([H])([H])C([H])(F)C3([H])[H])c([H])c([H])c2C1([H])[H]

$$$$
13:0:0
     RDKit          3D

 90 98  0  0  1  0  0  0  0  0999 V2000
  -29.6470  -22.0000   20.6810 C   0  0  0  0  0  2  0  0  0  0  0  0
  -28.8430  -23.3070   20.4230 C   0  0  0  0  0  2  0  0  0  0  0  0
  -29.4090  -24.5650   21.1330 C   0  0  0  0  0  2  0  0  0  0  0  0
  -28.4280  -25.7610   21.2880 C   0  0  0  0  0  2  0  0  0  0  0  0
  -28.3950  -26.6750   20.1820 O   0  0  0  0  0  0  0  0  0  0  0  0
  -24.6030  -31.8870   23.2550 C   0  0  0  0  0  0  0  0  0  0  0  0
  -27.2580  -27.4510   20.1750 C   0  0  0  0  0  0  0  0  0  0  0  0
  -23.4000  -30.4840   21.6100 C   0  0  0  0  0  3  0  0  0  0  0  0
  -24.8610  -28.9510   20.1840 C   0  0  0  0  0  0  0  0  0  0  0  0
  -25.9260  -30.8480   21.4150 C   0  0  0  0  0  2  0  0  0  0  0  0
  -26.0170  -29.4770   20.7750 C   0  0  0  0  0  0  0  0  0  0  0  0
  -27.2210  -28.7340   20.7710 C   0  0  0  0  0  3  0  0  0  0  0  0
  -26.0900  -26.9400   19.5750 C   0  0  0  0  0  3  0  0  0  0  0  0
  -24.8920  -27.6800   19.5810 C   0  0  0  0  0  3  0  0  0  0  0  0
  -23.6130  -29.8050   20.2300 C   0  0  0  0  0  2  0  0  0  0  0  0
  -24.6610  -31.0880   22.1520 N   0  0  0  0  0  0  0  0  0  0  0  0
  -23.5210  -32.1570   23.7950 O   0  0  0  0  0  0  0  0  0  0  0  0
  -22.7500  -29.4620   22.5700 C   0  0  0  0  0  0  0  0  0  0  0  0
  -21.4250  -29.2810   22.4440 N   0  0  0  0  0  0  0  0  0  0  0  0
  -23.4330  -28.8350   23.3830 O   0  0  0  0  0  0  0  0  0  0  0  0
  -20.9340  -29.8390   21.7590 H   0  0  0  0  0  0  0  0  0  0  0  0
  -18.0480  -28.0940   22.9460 C   0  0  0  0  0  0  0  0  0  0  0  0
  -20.6080  -28.3420   23.2120 C   0  0  0  0  0  3  0  0  0  0  0  0
  -20.7040  -26.9130   22.6290 C   0  0  0  0  0  2  0  0  0  0  0  0
  -19.5980  -26.5980   21.6170 C   0  0  0  0  0  2  0  0  0  0  0  0
  -18.2190  -26.7450   22.2650 C   0  0  0  0  0  2  0  0  0  0  0  0
  -19.1710  -28.8500   23.3770 C   0  0  0  0  0  0  0  0  0  0  0  0
  -18.9580  -30.1110   23.9730 C   0  0  0  0  0  3  0  0  0  0  0  0
  -17.6550  -30.6170   24.1430 C   0  0  0  0  0  3  0  0  0  0  0  0
  -16.5470  -29.8580   23.7300 C   0  0  0  0  0  3  0  0  0  0  0  0
  -16.7450  -28.5970   23.1380 C   0  0  0  0  0  3  0  0  0  0  0  0
  -25.8880  -32.5190   23.8760 C   0  0  0  0  0  3  0  0  0  0  0  0
  -25.5820  -33.9190   24.1980 N   0  0  0  0  0  0  0  0  0  0  0  0
  -25.9200  -34.9670   23.4350 C   0  0  0  0  0  0  0  0  0  0  0  0
  -26.5950  -34.8560   22.4080 O   0  0  0  0  0  0  0  0  0  0  0  0
  -24.9840  -34.0790   24.9950 H   0  0  0  0  0  0  0  0  0  0  0  0
  -24.1980  -36.7610   23.0600 C   0  0  0  0  0  1  0  0  0  0  0  0
  -25.4320  -36.3580   23.8820 C   0  0  0  0  0  3  0  0  0  0  0  0
  -27.5650  -37.2390   24.7230 C   0  0  0  0  0  1  0  0  0  0  0  0
  -26.4680  -37.4080   23.7730 N   0  0  0  0  0  0  0  0  0  0  0  0
  -26.0630  -38.3290   23.9180 H   0  0  0  0  0  0  0  0  0  0  0  0
  -26.4030  -31.7510   25.1540 C   0  0  1  0  0  0  0  0  0  0  0  0
  -25.3110  -31.5170   26.2230 C   0  0  0  0  0  1  0  0  0  0  0  0
  -26.9860  -30.3720   24.7650 C   0  0  0  0  0  1  0  0  0  0  0  0
  -27.5550  -32.5450   25.8150 C   0  0  0  0  0  1  0  0  0  0  0  0
  -29.0300  -20.9170   19.9790 O   0  0  0  0  0  0  0  0  0  0  0  0
  -28.8060  -17.2360   19.9120 C   0  0  0  0  0  3  0  0  0  0  0  0
  -30.6640  -17.8150   21.3650 C   0  0  0  0  0  3  0  0  0  0  0  0
  -28.5840  -18.6040   19.6560 C   0  0  0  0  0  3  0  0  0  0  0  0
  -30.4340  -19.1910   21.1090 C   0  0  0  0  0  3  0  0  0  0  0  0
  -29.8440  -16.8240   20.7750 C   0  0  0  0  0  0  0  0  0  0  0  0
  -29.3730  -19.6040   20.2610 C   0  0  0  0  0  0  0  0  0  0  0  0
  -30.6440  -14.5020   20.4870 C   0  0  0  0  0  0  0  0  0  0  0  0
  -30.3760  -12.3470   19.3070 C   0  0  0  0  0  2  0  0  0  0  0  0
  -29.4250  -12.5620   18.1100 C   0  0  0  0  0  2  0  0  0  0  0  0
  -27.9510  -12.4190   18.5390 C   0  0  0  0  0  2  0  0  0  0  0  0
  -27.6180  -13.2380   19.8150 C   0  0  0  0  0  3  0  0  0  0  0  0
  -28.6750  -12.9850   20.9140 C   0  0  0  0  0  2  0  0  0  0  0  0
  -30.0010  -13.3070   20.3570 N   0  0  0  0  0  0  0  0  0  0  0  0
  -31.7510  -14.7300   19.9870 O   0  0  0  0  0  0  0  0  0  0  0  0
  -29.9400  -15.4470   21.1360 N   0  0  0  0  0  0  0  0  0  0  0  0
  -29.0990  -15.0650   21.5410 H   0  0  0  0  0  0  0  0  0  0  0  0
  -25.2150  -13.8540   20.5080 C   0  0  0  0  0  0  0  0  0  0  0  0
  -24.1460  -13.0850   20.8810 C   0  0  0  0  0  0  0  0  0  0  0  0
  -24.6070  -11.7330   20.8590 C   0  0  0  0  0  0  0  0  0  0  0  0
  -26.2620  -12.9700   20.2890 N   0  0  0  0  0  0  0  0  0  0  0  0
  -25.8970  -11.6900   20.5550 N   0  0  0  0  0  0  0  0  0  0  0  0
  -23.8800  -10.4720   21.0550 C   0  0  0  0  0  0  0  0  0  0  0  0
  -24.3150   -9.5080   21.9910 C   0  0  0  0  0  3  0  0  0  0  0  0
  -23.5900   -8.3120   22.1750 C   0  0  0  0  0  3  0  0  0  0  0  0
  -22.4170   -8.0700   21.4220 C   0  0  0  0  0  0  0  0  0  0  0  0
  -22.0000   -9.0230   20.4760 C   0  0  0  0  0  3  0  0  0  0  0  0
  -22.7250  -10.2120   20.2900 C   0  0  0  0  0  3  0  0  0  0  0  0
  -21.6630   -6.9250   21.5150 O   0  0  0  0  0  0  0  0  0  0  0  0
  -21.6230   -6.1820   22.6680 C   0  0  0  0  0  0  0  0  0  0  0  0
  -21.2060   -6.7360   23.8980 C   0  0  0  0  0  3  0  0  0  0  0  0
  -21.1130   -5.9190   25.0420 C   0  0  0  0  0  3  0  0  0  0  0  0
  -21.4270   -4.5480   24.9580 C   0  0  0  0  0  0  0  0  0  0  0  0
  -21.8360   -3.9950   23.7320 C   0  0  0  0  0  3  0  0  0  0  0  0
  -21.9310   -4.8090   22.5890 C   0  0  0  0  0  0  0  0  0  0  0  0
  -22.3070   -4.2660   21.4070 F   0  0  0  0  0  0  0  0  0  0  0  0
  -21.3300   -3.7620   26.0540 F   0  0  0  0  0  0  0  0  0  0  0  0
  -22.7480  -13.5650   21.1490 C   0  0  0  0  0  0  0  0  0  0  0  0
  -22.0180  -12.8730   22.0170 N   0  0  0  0  0  0  0  0  0  0  0  0
  -22.3110  -14.5880   20.6230 O   0  0  0  0  0  0  0  0  0  0  0  0
  -22.3840  -12.0450   22.4640 H   0  0  0  0  0  0  0  0  0  0  0  0
  -21.0810  -13.1780   22.2390 H   0  0  0  0  0  0  0  0  0  0  0  0
  -25.3780  -15.2240   20.3220 N   0  0  0  0  0  0  0  0  0  0  0  0
  -24.6070  -15.8740   20.4240 H   0  0  0  0  0  0  0  0  0  0  0  0
  -26.2270  -15.6660   19.9960 H   0  0  0  0  0  0  0  0  0  0  0  0
  2  1  1  0
  2  3  1  0
  3  4  1  0
  5  4  1  0
  6 17  2  0
  7  5  1  0
  7 12  1  0
  8 16  1  0
  8 18  1  0
  9 15  1  0
  9 11  1  0
 10 16  1  0
 11 10  1  0
 12 11  2  0
 13 14  1  0
 13  7  2  0
 14  9  2  0
 15  8  1  0
 16  6  1  0
 18 20  2  0
 19 18  1  0
 21 19  1  0
 22 31  2  0
 22 27  1  0
 23 19  1  0
 23 27  1  0
 24 23  1  0
 25 26  1  0
 25 24  1  0
 26 22  1  0
 27 28  2  0
 28 29  1  0
 30 29  2  0
 31 30  1  0
 32  6  1  0
 32 33  1  0
 32 42  1  0
 33 36  1  0
 34 38  1  0
 34 33  1  0
 35 34  2  0
 38 37  1  0
 40 38  1  0
 40 41  1  0
 40 39  1  0
 42 45  1  1
 42 43  1  0
 44 42  1  0
 46 52  1  0
 46  1  1  0
 47 51  1  0
 49 47  2  0
 49 52  1  0
 50 48  1  0
 51 61  1  0
 51 48  2  0
 52 50  2  0
 53 61  1  0
 54 59  1  0
 55 56  1  0
 55 54  1  0
 57 56  1  0
 57 66  1  0
 57 58  1  0
 59 53  1  0
 59 58  1  0
 60 53  2  0
 61 62  1  0
 63 64  2  0
 64 83  1  0
 65 64  1  0
 65 68  1  0
 66 63  1  0
 66 67  1  0
 67 65  2  0
 68 69  1  0
 69 70  2  0
 71 74  1  0
 71 70  1  0
 72 71  2  0
 73 72  1  0
 73 68  2  0
 74 75  1  0
 75 76  1  0
 76 77  2  0
 78 77  1  0
 78 82  1  0
 79 78  2  0
 80 75  2  0
 80 79  1  0
 81 80  1  0
 83 84  1  0
 84 87  1  0
 84 86  1  0
 85 83  2  0
 88 89  1  0
 88 63  1  0
 90 88  1  0
M  ISO  4   4 101   5 101  53 100  61 100
M  END
>  <TORSDO>  (14) 
F 21

>  <SCORE>  (14) 
-13.693

>  <name>  (14) 
13

>  <ligand_id>  (14) 
13

>  <original_smiles>  (14) 
[H]c1c([H])c([H])c2c(c1[H])C([H])([H])C([H])([H])C([H])([H])C2([H])N([H])C(=O)C1([H])N(C(=O)C([H])(N([H])C(=O)C([H])(N([H])C([H])([H])[H])C([H])([H])[H])C(C([H])([H])[H])(C([H])([H])[H])C([H])([H])[H])C([H])([H])c2c([H])c(OC([H])([H])C([H])([H])C([H])([H])C([H])([H])Oc3c([H])c([H])c(N([H])C(=O)N4C([H])([H])C([H])([H])C([H])([H])C([H])(n5nc(-c6c([H])c([H])c(Oc7c([H])c([H])c(F)c([H])c7F)c([H])c6[H])c(C(=O)N([H])[H])c5N([H])[H])C4([H])[H])c([H])c3[H])c([H])c([H])c2C1([H])[H]

>  <smiles>  (14) 
[H]c1c([H])c([H])c2c(c1[H])C([H])([H])C([H])([H])C([H])([H])C2([H])N([H])C(=O)C1([H])N(C(=O)C([H])(N([H])C(=O)C([H])(N([H])C([H])([H])[H])C([H])([H])[H])C(C([H])([H])[H])(C([H])([H])[H])C([H])([H])[H])C([H])([H])c2c([H])c(OC([H])([H])C([H])([H])C([H])([H])C([H])([H])Oc3c([H])c([H])c(N([H])C(=O)N4C([H])([H])C([H])([H])C([H])([H])C([H])(n5nc(-c6c([H])c([H])c(Oc7c([H])c([H])c(F)c([H])c7F)c([H])c6[H])c(C(=O)N([H])[H])c5N([H])[H])C4([H])[H])c([H])c3[H])c([H])c([H])c2C1([H])[H]

$$$$
14:0:0
     RDKit          3D

 95104  0  0  1  0  0  0  0  0999 V2000
  -30.4560  -18.9260   21.5040 C   0  0  0  0  0  3  0  0  0  0  0  0
  -30.2270  -20.3600   21.3280 C   0  0  0  0  0  3  0  0  0  0  0  0
  -30.7160  -20.1200   19.0390 C   0  0  0  0  0  3  0  0  0  0  0  0
  -30.9390  -18.6920   19.1900 C   0  0  0  0  0  0  0  0  0  0  0  0
  -30.8140  -18.0010   20.4540 C   0  0  0  0  0  0  0  0  0  0  0  0
  -30.3220  -21.0370   20.0670 C   0  0  0  0  0  0  0  0  0  0  0  0
  -31.5920  -15.3460   20.3120 C   0  0  0  0  0  0  0  0  0  0  0  0
  -31.3970  -13.1060   19.1630 C   0  0  0  0  0  2  0  0  0  0  0  0
  -30.4430  -13.2640   17.9580 C   0  0  0  0  0  2  0  0  0  0  0  0
  -28.9670  -13.1070   18.3790 C   0  0  0  0  0  2  0  0  0  0  0  0
  -28.6310  -13.8880   19.6760 C   0  0  0  0  0  3  0  0  0  0  0  0
  -29.7030  -13.6820   20.7670 C   0  0  0  0  0  2  0  0  0  0  0  0
  -30.9860  -14.1030   20.1880 N   0  0  0  0  0  0  0  0  0  0  0  0
  -32.7920  -15.4380   20.0320 O   0  0  0  0  0  0  0  0  0  0  0  0
  -30.7660  -16.4720   20.5660 N   0  0  0  0  0  0  0  0  0  0  0  0
  -29.8220  -16.1430   20.6910 H   0  0  0  0  0  0  0  0  0  0  0  0
  -26.2650  -14.5160   20.4350 C   0  0  0  0  0  0  0  0  0  0  0  0
  -25.1780  -13.7670   20.7830 C   0  0  0  0  0  0  0  0  0  0  0  0
  -25.5990  -12.4000   20.7010 C   0  0  0  0  0  0  0  0  0  0  0  0
  -27.2820  -13.6140   20.1620 N   0  0  0  0  0  0  0  0  0  0  0  0
  -26.8870  -12.3330   20.3820 N   0  0  0  0  0  0  0  0  0  0  0  0
  -24.8320  -11.1550   20.8450 C   0  0  0  0  0  0  0  0  0  0  0  0
  -25.2050  -10.1570   21.7730 C   0  0  0  0  0  3  0  0  0  0  0  0
  -24.4380   -8.9770   21.9020 C   0  0  0  0  0  3  0  0  0  0  0  0
  -23.2860   -8.7890   21.1030 C   0  0  0  0  0  0  0  0  0  0  0  0
  -22.9330   -9.7760   20.1660 C   0  0  0  0  0  3  0  0  0  0  0  0
  -23.6990  -10.9450   20.0340 C   0  0  0  0  0  3  0  0  0  0  0  0
  -22.4980   -7.6640   21.1420 O   0  0  0  0  0  0  0  0  0  0  0  0
  -22.2610   -6.9930   22.3140 C   0  0  0  0  0  0  0  0  0  0  0  0
  -21.7290   -7.6440   23.4480 C   0  0  0  0  0  3  0  0  0  0  0  0
  -21.4340   -6.9050   24.6110 C   0  0  0  0  0  3  0  0  0  0  0  0
  -21.6580   -5.5140   24.6380 C   0  0  0  0  0  0  0  0  0  0  0  0
  -22.1870   -4.8650   23.5090 C   0  0  0  0  0  3  0  0  0  0  0  0
  -22.4830   -5.6030   22.3500 C   0  0  0  0  0  0  0  0  0  0  0  0
  -22.9700   -4.9690   21.2560 F   0  0  0  0  0  0  0  0  0  0  0  0
  -21.3690   -4.8020   25.7530 F   0  0  0  0  0  0  0  0  0  0  0  0
  -23.7960  -14.2800   21.0710 C   0  0  0  0  0  0  0  0  0  0  0  0
  -23.0650  -13.6160   21.9600 N   0  0  0  0  0  0  0  0  0  0  0  0
  -23.3760  -15.3110   20.5470 O   0  0  0  0  0  0  0  0  0  0  0  0
  -23.4190  -12.7880   22.4150 H   0  0  0  0  0  0  0  0  0  0  0  0
  -22.1430  -13.9520   22.1980 H   0  0  0  0  0  0  0  0  0  0  0  0
  -26.4680  -15.8850   20.2930 N   0  0  0  0  0  0  0  0  0  0  0  0
  -25.6730  -16.5150   20.2770 H   0  0  0  0  0  0  0  0  0  0  0  0
  -27.2820  -16.2720   19.8400 H   0  0  0  0  0  0  0  0  0  0  0  0
  -31.9860  -17.5380   14.7390 C   0  0  0  0  0  2  0  0  0  0  0  0
  -33.1530  -16.7300   15.3360 C   0  0  0  0  0  2  0  0  0  0  0  0
  -30.6370  -17.4540   15.4740 C   0  0  0  0  0  2  0  0  0  0  0  0
  -33.2860  -16.6540   16.8700 C   0  0  0  0  0  2  0  0  0  0  0  0
  -30.5510  -18.4100   16.6760 C   0  0  0  0  0  2  0  0  0  0  0  0
  -32.8350  -17.8770   17.6900 C   0  0  0  0  0  2  0  0  0  0  0  0
  -31.3090  -17.9100   17.9210 C   0  0  0  0  0  3  0  0  0  0  0  0
  -30.0570  -22.4250   19.6860 O   0  0  0  0  0  0  0  0  0  0  0  0
  -30.0470  -23.7420   20.4640 C   0  0  0  0  0  3  0  0  0  0  0  0
  -29.2080  -25.0760   19.8680 C   0  0  0  0  0  3  0  0  0  0  0  0
  -29.2980  -26.5830   20.2430 O   0  0  0  0  0  0  0  0  0  0  0  0
  -25.0000  -31.7460   23.2680 C   0  0  0  0  0  0  0  0  0  0  0  0
  -28.1480  -27.4490   20.1660 C   0  0  0  0  0  0  0  0  0  0  0  0
  -23.9990  -30.2790   21.5600 C   0  0  0  0  0  3  0  0  0  0  0  0
  -25.6440  -28.9240   20.1260 C   0  0  0  0  0  0  0  0  0  0  0  0
  -26.5110  -30.8260   21.4750 C   0  0  0  0  0  2  0  0  0  0  0  0
  -26.7510  -29.4740   20.7830 C   0  0  0  0  0  0  0  0  0  0  0  0
  -28.0010  -28.7510   20.7940 C   0  0  0  0  0  3  0  0  0  0  0  0
  -27.0070  -27.0030   19.4610 C   0  0  0  0  0  3  0  0  0  0  0  0
  -25.7840  -27.7020   19.4510 C   0  0  0  0  0  3  0  0  0  0  0  0
  -24.3250  -29.6770   20.1660 C   0  0  0  0  0  2  0  0  0  0  0  0
  -25.1860  -30.9720   22.1550 N   0  0  0  0  0  0  0  0  0  0  0  0
  -23.8770  -31.8970   23.7720 O   0  0  0  0  0  0  0  0  0  0  0  0
  -23.4130  -29.1740   22.4720 C   0  0  0  0  0  0  0  0  0  0  0  0
  -22.1610  -28.7620   22.2110 N   0  0  0  0  0  0  0  0  0  0  0  0
  -24.0910  -28.6910   23.3830 O   0  0  0  0  0  0  0  0  0  0  0  0
  -21.6600  -29.2120   21.4580 H   0  0  0  0  0  0  0  0  0  0  0  0
  -19.0150  -26.9730   22.3880 C   0  0  0  0  0  0  0  0  0  0  0  0
  -21.4410  -27.6990   22.9180 C   0  0  0  0  0  3  0  0  0  0  0  0
  -21.8590  -26.3010   22.4030 C   0  0  0  0  0  2  0  0  0  0  0  0
  -20.9520  -25.7710   21.2870 C   0  0  0  0  0  2  0  0  0  0  0  0
  -19.5040  -25.6710   21.7740 C   0  0  0  0  0  2  0  0  0  0  0  0
  -19.9250  -27.9310   22.9100 C   0  0  0  0  0  0  0  0  0  0  0  0
  -19.4170  -29.1380   23.4370 C   0  0  0  0  0  3  0  0  0  0  0  0
  -18.0320  -29.3920   23.4530 C   0  0  0  0  0  3  0  0  0  0  0  0
  -17.1360  -28.4330   22.9510 C   0  0  0  0  0  3  0  0  0  0  0  0
  -17.6270  -27.2270   22.4220 C   0  0  0  0  0  3  0  0  0  0  0  0
  -26.1880  -32.4970   23.9460 C   0  0  0  0  0  3  0  0  0  0  0  0
  -26.7160  -31.7740   25.2470 C   0  0  1  0  0  0  0  0  0  0  0  0
  -25.5930  -31.3400   26.2180 C   0  0  0  0  0  1  0  0  0  0  0  0
  -27.5370  -30.5160   24.8850 C   0  0  0  0  0  1  0  0  0  0  0  0
  -27.6750  -32.7150   26.0140 C   0  0  0  0  0  1  0  0  0  0  0  0
  -25.7310  -33.8590   24.2660 N   0  0  0  0  0  0  0  0  0  0  0  0
  -26.0090  -34.9490   23.5400 C   0  0  0  0  0  0  0  0  0  0  0  0
  -26.7450  -34.9220   22.5500 O   0  0  0  0  0  0  0  0  0  0  0  0
  -25.0830  -33.9480   25.0360 H   0  0  0  0  0  0  0  0  0  0  0  0
  -24.1620  -36.5990   23.0900 C   0  0  0  0  0  1  0  0  0  0  0  0
  -25.3740  -36.2830   23.9810 C   0  0  0  0  0  3  0  0  0  0  0  0
  -27.3790  -37.3180   24.9530 C   0  0  0  0  0  1  0  0  0  0  0  0
  -26.3180  -37.4210   23.9540 N   0  0  0  0  0  0  0  0  0  0  0  0
  -25.8270  -38.2990   24.1000 H   0  0  0  0  0  0  0  0  0  0  0  0
  2  1  1  0
  3  4  2  0
  3  6  1  0
  4  5  1  0
  5 15  1  0
  5  1  2  0
  6  2  2  0
  7 15  1  0
  8 13  1  0
  9 10  1  0
  9  8  1  0
 11 10  1  0
 11 20  1  0
 11 12  1  0
 13  7  1  0
 13 12  1  0
 14  7  2  0
 15 16  1  0
 17 18  2  0
 18 37  1  0
 19 18  1  0
 19 22  1  0
 20 21  1  0
 20 17  1  0
 21 19  2  0
 22 23  1  0
 23 24  2  0
 25 28  1  0
 25 24  1  0
 26 25  2  0
 27 26  1  0
 27 22  2  0
 28 29  1  0
 29 34  2  0
 29 30  1  0
 30 31  2  0
 31 32  1  0
 32 36  1  0
 33 32  2  0
 34 33  1  0
 35 34  1  0
 37 38  1  0
 38 41  1  0
 38 40  1  0
 39 37  2  0
 42 17  1  0
 43 42  1  0
 44 42  1  0
 45 46  1  0
 45 47  1  0
 46 48  1  0
 47 49  1  0
 48 50  1  0
 49 51  1  0
 50 51  1  0
 51  4  1  0
 52  6  1  0
 52 53  1  0
 54 55  1  0
 54 53  2  0
 56 67  2  0
 57 55  1  0
 57 62  1  0
 58 66  1  0
 58 68  1  0
 59 65  1  0
 59 61  1  0
 60 66  1  0
 61 62  2  0
 61 60  1  0
 63 57  2  0
 64 63  1  0
 64 59  2  0
 65 58  1  0
 66 56  1  0
 68 70  2  0
 69 68  1  0
 71 69  1  0
 72 81  2  0
 72 77  1  0
 73 69  1  0
 74 73  1  0
 75 76  1  0
 75 74  1  0
 76 72  1  0
 77 73  1  0
 77 78  2  0
 78 79  1  0
 80 79  2  0
 81 80  1  0
 82 56  1  0
 82 87  1  0
 82 83  1  0
 83 86  1  1
 83 84  1  0
 85 83  1  0
 87 90  1  0
 88 92  1  0
 88 87  1  0
 89 88  2  0
 92 91  1  0
 94 92  1  0
 94 95  1  0
 94 93  1  0
M  ISO  4   7 100  15 100  54 101  55 101
M  END
>  <TORSDO>  (15) 
F 20

>  <SCORE>  (15) 
-10.827

>  <name>  (15) 
14

>  <ligand_id>  (15) 
14

>  <original_smiles>  (15) 
[H]c1c([H])c([H])c2c(c1[H])C([H])([H])C([H])([H])C([H])([H])C2([H])N([H])C(=O)C1([H])N(C(=O)C([H])(N([H])C(=O)C([H])(N([H])C([H])([H])[H])C([H])([H])[H])C(C([H])([H])[H])(C([H])([H])[H])C([H])([H])[H])C([H])([H])c2c([H])c(OC([H])([H])C([H])([H])Oc3c([H])c([H])c(N([H])C(=O)N4C([H])([H])C([H])([H])C([H])([H])C([H])(n5nc(-c6c([H])c([H])c(Oc7c([H])c([H])c(F)c([H])c7F)c([H])c6[H])c(C(=O)N([H])[H])c5N([H])[H])C4([H])[H])c(C4([H])C([H])([H])C([H])([H])C([H])([H])C([H])([H])C([H])([H])C4([H])[H])c3[H])c([H])c([H])c2C1([H])[H]

>  <smiles>  (15) 
[H]c1c([H])c([H])c2c(c1[H])C([H])([H])C([H])([H])C([H])([H])C2([H])N([H])C(=O)C1([H])N(C(=O)C([H])(N([H])C(=O)C([H])(N([H])C([H])([H])[H])C([H])([H])[H])C(C([H])([H])[H])(C([H])([H])[H])C([H])([H])[H])C([H])([H])c2c([H])c(OC([H])([H])C([H])([H])Oc3c([H])c([H])c(N([H])C(=O)N4C([H])([H])C([H])([H])C([H])([H])C([H])(n5nc(-c6c([H])c([H])c(Oc7c([H])c([H])c(F)c([H])c7F)c([H])c6[H])c(C(=O)N([H])[H])c5N([H])[H])C4([H])[H])c(C4([H])C([H])([H])C([H])([H])C([H])([H])C([H])([H])C([H])([H])C4([H])[H])c3[H])c([H])c([H])c2C1([H])[H]

$$$$
15:0:0
     RDKit          3D

 97106  0  0  1  0  0  0  0  0999 V2000
  -31.9990  -17.9390   17.9300 C   0  0  0  0  0  3  0  0  0  0  0  0
  -32.1170  -19.1830   18.5620 C   0  0  0  0  0  3  0  0  0  0  0  0
  -31.3040  -16.8990   18.5680 C   0  0  0  0  0  3  0  0  0  0  0  0
  -31.4730  -19.4100   19.7910 C   0  0  0  0  0  0  0  0  0  0  0  0
  -30.6660  -18.3980   20.3910 C   0  0  0  0  0  0  0  0  0  0  0  0
  -30.6910  -17.0770   19.8370 C   0  0  0  0  0  0  0  0  0  0  0  0
  -31.6630  -20.7720   20.4480 C   0  0  0  0  0  2  0  0  0  0  0  0
  -29.8150  -18.7630   21.6200 C   0  0  0  0  0  2  0  0  0  0  0  0
  -31.0280  -20.8500   21.8430 C   0  0  0  0  0  2  0  0  0  0  0  0
  -29.6770  -20.2380   21.8240 N   0  0  1  0  0  4  0  0  0  0  0  0
  -29.2920  -20.3680   22.7490 H   0  0  0  0  0  0  0  0  0  0  0  0
  -30.9060  -14.7730   20.6600 C   0  0  0  0  0  0  0  0  0  0  0  0
  -30.7150  -12.4690   19.8660 C   0  0  0  0  0  2  0  0  0  0  0  0
  -29.9090  -12.4780   18.5530 C   0  0  0  0  0  2  0  0  0  0  0  0
  -28.4040  -12.3510   18.8530 C   0  0  0  0  0  2  0  0  0  0  0  0
  -27.9180  -13.3470   19.9420 C   0  0  0  0  0  3  0  0  0  0  0  0
  -28.8640  -13.3680   21.1640 C   0  0  0  0  0  2  0  0  0  0  0  0
  -30.2280  -13.5960   20.6760 N   0  0  0  0  0  0  0  0  0  0  0  0
  -32.1290  -14.8110   20.5160 O   0  0  0  0  0  0  0  0  0  0  0  0
  -30.1790  -15.9110   20.5200 N   0  0  0  0  0  0  0  0  0  0  0  0
  -29.1930  -15.8730   20.7330 H   0  0  0  0  0  0  0  0  0  0  0  0
  -25.4740  -13.9620   20.4390 C   0  0  0  0  0  0  0  0  0  0  0  0
  -24.3840  -13.2000   20.7640 C   0  0  0  0  0  0  0  0  0  0  0  0
  -24.8530  -11.8520   20.8380 C   0  0  0  0  0  0  0  0  0  0  0  0
  -26.5360  -13.0810   20.3330 N   0  0  0  0  0  0  0  0  0  0  0  0
  -26.1640  -11.8100   20.6340 N   0  0  0  0  0  0  0  0  0  0  0  0
  -24.1190  -10.5940   21.0300 C   0  0  0  0  0  0  0  0  0  0  0  0
  -24.4930   -9.6640   22.0260 C   0  0  0  0  0  3  0  0  0  0  0  0
  -23.7590   -8.4710   22.2030 C   0  0  0  0  0  3  0  0  0  0  0  0
  -22.6370   -8.2000   21.3850 C   0  0  0  0  0  0  0  0  0  0  0  0
  -22.2820   -9.1190   20.3810 C   0  0  0  0  0  3  0  0  0  0  0  0
  -23.0170  -10.3030   20.2020 C   0  0  0  0  0  3  0  0  0  0  0  0
  -21.8800   -7.0580   21.4700 O   0  0  0  0  0  0  0  0  0  0  0  0
  -21.7820   -6.3430   22.6370 C   0  0  0  0  0  0  0  0  0  0  0  0
  -21.3120   -6.9280   23.8330 C   0  0  0  0  0  3  0  0  0  0  0  0
  -21.1620   -6.1400   24.9920 C   0  0  0  0  0  3  0  0  0  0  0  0
  -21.4730   -4.7670   24.9560 C   0  0  0  0  0  0  0  0  0  0  0  0
  -21.9360   -4.1820   23.7640 C   0  0  0  0  0  3  0  0  0  0  0  0
  -22.0890   -4.9670   22.6080 C   0  0  0  0  0  0  0  0  0  0  0  0
  -22.5150   -4.3920   21.4580 F   0  0  0  0  0  0  0  0  0  0  0  0
  -21.3230   -4.0090   26.0660 F   0  0  0  0  0  0  0  0  0  0  0  0
  -22.9670  -13.6780   20.8970 C   0  0  0  0  0  0  0  0  0  0  0  0
  -22.1760  -13.0250   21.7400 N   0  0  0  0  0  0  0  0  0  0  0  0
  -22.5680  -14.6700   20.2860 O   0  0  0  0  0  0  0  0  0  0  0  0
  -22.5060  -12.2250   22.2560 H   0  0  0  0  0  0  0  0  0  0  0  0
  -21.2210  -13.3310   21.8710 H   0  0  0  0  0  0  0  0  0  0  0  0
  -25.6480  -15.3230   20.2040 N   0  0  0  0  0  0  0  0  0  0  0  0
  -24.8650  -15.9690   20.1930 H   0  0  0  0  0  0  0  0  0  0  0  0
  -26.5070  -15.7380   19.8680 H   0  0  0  0  0  0  0  0  0  0  0  0
  -28.7020  -20.9170   20.9060 C   0  0  0  0  0  2  0  0  0  0  0  0
  -28.3880  -22.3710   21.3180 C   0  0  0  0  0  0  0  0  0  0  0  0
  -28.2560  -23.3040   20.3560 N   0  0  0  0  0  0  0  0  0  0  0  0
  -28.2810  -22.6430   22.5150 O   0  0  0  0  0  0  0  0  0  0  0  0
  -28.3190  -23.0020   19.3910 H   0  0  0  0  0  0  0  0  0  0  0  0
  -28.0260  -24.7400   20.5840 C   0  0  0  0  0  2  0  0  0  0  0  0
  -28.5530  -25.6080   19.4130 C   0  0  0  0  0  2  0  0  0  0  0  0
  -28.5340  -27.0200   19.6810 O   0  0  0  0  0  0  0  0  0  0  0  0
  -24.7040  -31.8580   23.1950 C   0  0  0  0  0  0  0  0  0  0  0  0
  -27.3320  -27.7020   19.7290 C   0  0  0  0  0  0  0  0  0  0  0  0
  -23.4800  -30.5740   21.4720 C   0  0  0  0  0  3  0  0  0  0  0  0
  -24.9200  -29.1760   19.9010 C   0  0  0  0  0  0  0  0  0  0  0  0
  -25.9970  -30.9820   21.2520 C   0  0  0  0  0  2  0  0  0  0  0  0
  -26.0830  -29.6690   20.5030 C   0  0  0  0  0  0  0  0  0  0  0  0
  -27.2910  -28.9420   20.4080 C   0  0  0  0  0  3  0  0  0  0  0  0
  -26.1460  -27.2230   19.1240 C   0  0  0  0  0  3  0  0  0  0  0  0
  -24.9480  -27.9550   19.2070 C   0  0  0  0  0  3  0  0  0  0  0  0
  -23.6650  -30.0080   20.0390 C   0  0  0  0  0  2  0  0  0  0  0  0
  -24.7460  -31.1500   22.0300 N   0  0  0  0  0  0  0  0  0  0  0  0
  -23.6300  -32.0670   23.7790 O   0  0  0  0  0  0  0  0  0  0  0  0
  -22.8660  -29.4680   22.3630 C   0  0  0  0  0  0  0  0  0  0  0  0
  -21.5420  -29.2740   22.2480 N   0  0  0  0  0  0  0  0  0  0  0  0
  -23.5760  -28.7920   23.1120 O   0  0  0  0  0  0  0  0  0  0  0  0
  -21.0280  -29.8780   21.6200 H   0  0  0  0  0  0  0  0  0  0  0  0
  -18.2000  -27.9740   22.6990 C   0  0  0  0  0  0  0  0  0  0  0  0
  -20.7560  -28.2640   22.9580 C   0  0  0  0  0  3  0  0  0  0  0  0
  -20.8780  -26.8810   22.2760 C   0  0  0  0  0  2  0  0  0  0  0  0
  -19.7690  -26.6090   21.2550 C   0  0  0  0  0  2  0  0  0  0  0  0
  -18.3940  -26.6800   21.9250 C   0  0  0  0  0  2  0  0  0  0  0  0
  -19.3090  -28.7250   23.1710 C   0  0  0  0  0  0  0  0  0  0  0  0
  -19.0740  -29.9370   23.8550 C   0  0  0  0  0  3  0  0  0  0  0  0
  -17.7630  -30.3980   24.0750 C   0  0  0  0  0  3  0  0  0  0  0  0
  -16.6680  -29.6430   23.6190 C   0  0  0  0  0  3  0  0  0  0  0  0
  -16.8870  -28.4320   22.9380 C   0  0  0  0  0  3  0  0  0  0  0  0
  -25.9940  -32.4580   23.8370 C   0  0  0  0  0  3  0  0  0  0  0  0
  -26.5590  -31.5940   25.0300 C   0  0  1  0  0  0  0  0  0  0  0  0
  -25.5010  -31.2520   26.1040 C   0  0  0  0  0  1  0  0  0  0  0  0
  -27.1530  -30.2640   24.5100 C   0  0  0  0  0  1  0  0  0  0  0  0
  -27.7140  -32.3510   25.7260 C   0  0  0  0  0  1  0  0  0  0  0  0
  -25.6700  -33.8170   24.2920 N   0  0  0  0  0  0  0  0  0  0  0  0
  -25.9750  -34.9360   23.6210 C   0  0  0  0  0  0  0  0  0  0  0  0
  -26.6320  -34.9340   22.5760 O   0  0  0  0  0  0  0  0  0  0  0  0
  -25.0910  -33.8920   25.1150 H   0  0  0  0  0  0  0  0  0  0  0  0
  -24.2170  -36.7260   23.4440 C   0  0  0  0  0  1  0  0  0  0  0  0
  -25.4730  -36.2720   24.2040 C   0  0  0  0  0  3  0  0  0  0  0  0
  -27.6060  -37.1110   25.0830 C   0  0  0  0  0  1  0  0  0  0  0  0
  -26.4890  -37.3460   24.1730 N   0  0  0  0  0  0  0  0  0  0  0  0
  -26.0720  -38.2430   24.4080 H   0  0  0  0  0  0  0  0  0  0  0  0
  1  2  2  0
  1  3  1  0
  2  4  1  0
  3  6  2  0
  4  5  2  0
  4  7  1  0
  5  8  1  0
  6  5  1  0
  6 20  1  0
  7  9  1  0
  8 10  1  0
 10  9  1  0
 10 11  1  1
 12 18  1  0
 13 18  1  0
 14 15  1  0
 14 13  1  0
 16 15  1  0
 16 25  1  0
 16 17  1  0
 18 17  1  0
 19 12  2  0
 20 12  1  0
 20 21  1  0
 22 23  2  0
 23 24  1  0
 23 42  1  0
 24 27  1  0
 25 22  1  0
 25 26  1  0
 26 24  2  0
 27 28  1  0
 28 29  2  0
 30 33  1  0
 30 29  1  0
 31 30  2  0
 32 31  1  0
 32 27  2  0
 33 34  1  0
 34 35  1  0
 35 36  2  0
 37 36  1  0
 37 41  1  0
 38 37  2  0
 39 34  2  0
 39 38  1  0
 40 39  1  0
 42 43  1  0
 43 46  1  0
 43 45  1  0
 44 42  2  0
 47 22  1  0
 48 47  1  0
 49 47  1  0
 50 51  1  0
 50 10  1  0
 51 53  2  0
 52 55  1  0
 52 51  1  0
 54 52  1  0
 56 57  1  0
 56 55  1  0
 57 59  1  0
 58 69  2  0
 59 64  1  0
 60 68  1  0
 60 70  1  0
 61 67  1  0
 61 63  1  0
 62 68  1  0
 63 62  1  0
 64 63  2  0
 65 66  1  0
 65 59  2  0
 66 61  2  0
 67 60  1  0
 68 58  1  0
 70 72  2  0
 71 70  1  0
 73 71  1  0
 74 83  2  0
 74 79  1  0
 75 71  1  0
 75 79  1  0
 76 75  1  0
 77 78  1  0
 77 76  1  0
 78 74  1  0
 79 80  2  0
 80 81  1  0
 82 81  2  0
 83 82  1  0
 84 58  1  0
 84 89  1  0
 84 85  1  0
 85 88  1  1
 85 86  1  0
 87 85  1  0
 89 92  1  0
 90 94  1  0
 90 89  1  0
 91 90  2  0
 94 93  1  0
 96 94  1  0
 96 97  1  0
 96 95  1  0
M  ISO  4  12 100  20 100  56 101  57 101
M  END
>  <TORSDO>  (16) 
F 20

>  <SCORE>  (16) 
-13.045

>  <name>  (16) 
15

>  <ligand_id>  (16) 
15

>  <original_smiles>  (16) 
[H]c1c([H])c([H])c2c(c1[H])C([H])([H])C([H])([H])C([H])([H])C2([H])N([H])C(=O)C1([H])N(C(=O)C([H])(N([H])C(=O)C([H])(N([H])C([H])([H])[H])C([H])([H])[H])C(C([H])([H])[H])(C([H])([H])[H])C([H])([H])[H])C([H])([H])c2c([H])c(OC([H])([H])C([H])([H])N([H])C(=O)C([H])([H])[N+]3([H])C([H])([H])c4c(N([H])C(=O)N5C([H])([H])C([H])([H])C([H])([H])C([H])(n6nc(-c7c([H])c([H])c(Oc8c([H])c([H])c(F)c([H])c8F)c([H])c7[H])c(C(=O)N([H])[H])c6N([H])[H])C5([H])[H])c([H])c([H])c([H])c4C([H])([H])C3([H])[H])c([H])c([H])c2C1([H])[H]

>  <smiles>  (16) 
[H]c1c([H])c([H])c2c(c1[H])C([H])([H])C([H])([H])C([H])([H])C2([H])N([H])C(=O)C1([H])N(C(=O)C([H])(N([H])C(=O)C([H])(N([H])C([H])([H])[H])C([H])([H])[H])C(C([H])([H])[H])(C([H])([H])[H])C([H])([H])[H])C([H])([H])c2c([H])c(OC([H])([H])C([H])([H])N([H])C(=O)C([H])([H])[N+]3([H])C([H])([H])c4c(N([H])C(=O)N5C([H])([H])C([H])([H])C([H])([H])C([H])(n6nc(-c7c([H])c([H])c(Oc8c([H])c([H])c(F)c([H])c8F)c([H])c7[H])c(C(=O)N([H])[H])c6N([H])[H])C5([H])[H])c([H])c([H])c([H])c4C([H])([H])C3([H])[H])c([H])c([H])c2C1([H])[H]

$$$$
16:0:0
     RDKit          3D

100110  0  0  1  0  0  0  0  0999 V2000
  -28.5450  -18.2880   17.9860 C   0  0  0  0  0  0  0  0  0  0  0  0
  -30.6670  -19.2290   15.7490 C   0  0  0  0  0  2  0  0  0  0  0  0
  -31.1910  -19.9090   17.0380 C   0  0  0  0  0  2  0  0  0  0  0  0
  -28.8810  -20.9850   15.6330 C   0  0  0  0  0  2  0  0  0  0  0  0
  -29.1480  -19.4880   15.8710 C   0  0  0  0  0  3  0  0  0  0  0  0
  -29.8870  -20.4550   17.6550 C   0  0  0  0  0  3  0  0  0  0  0  0
  -28.9910  -19.3700   17.3110 N   0  0  0  0  0  0  0  0  0  0  0  0
  -29.4750  -21.6230   16.8320 N   0  0  2  0  0  4  0  0  0  0  0  0
  -27.8190  -17.4410   17.4610 O   0  0  0  0  0  0  0  0  0  0  0  0
  -30.3160  -22.0980   16.5420 H   0  0  0  0  0  0  0  0  0  0  0  0
  -29.5070  -18.5860   21.7030 C   0  0  0  0  0  3  0  0  0  0  0  0
  -30.1530  -17.3510   21.8970 C   0  0  0  0  0  3  0  0  0  0  0  0
  -29.7530  -16.7870   19.5690 C   0  0  0  0  0  3  0  0  0  0  0  0
  -29.0990  -18.0260   19.3610 C   0  0  0  0  0  0  0  0  0  0  0  0
  -28.9370  -18.9200   20.4540 C   0  0  0  0  0  0  0  0  0  0  0  0
  -30.2600  -16.4290   20.8380 C   0  0  0  0  0  0  0  0  0  0  0  0
  -28.0960  -20.1870   20.3560 C   0  0  0  0  0  1  0  0  0  0  0  0
  -31.3000  -14.2790   20.2370 C   0  0  0  0  0  0  0  0  0  0  0  0
  -30.8560  -12.2540   18.9040 C   0  0  0  0  0  2  0  0  0  0  0  0
  -29.9010  -12.6210   17.7480 C   0  0  0  0  0  2  0  0  0  0  0  0
  -28.4270  -12.5670   18.2020 C   0  0  0  0  0  2  0  0  0  0  0  0
  -28.1810  -13.3200   19.5350 C   0  0  0  0  0  3  0  0  0  0  0  0
  -29.2300  -12.8920   20.5880 C   0  0  0  0  0  2  0  0  0  0  0  0
  -30.5750  -13.1470   20.0350 N   0  0  0  0  0  0  0  0  0  0  0  0
  -32.3500  -14.5400   19.6360 O   0  0  0  0  0  0  0  0  0  0  0  0
  -30.7690  -15.1320   21.1260 N   0  0  0  0  0  0  0  0  0  0  0  0
  -30.2710  -14.6690   21.8710 H   0  0  0  0  0  0  0  0  0  0  0  0
  -25.8090  -14.0520   20.2270 C   0  0  0  0  0  0  0  0  0  0  0  0
  -24.7070  -13.3360   20.6090 C   0  0  0  0  0  0  0  0  0  0  0  0
  -25.1050  -11.9630   20.6010 C   0  0  0  0  0  0  0  0  0  0  0  0
  -26.8130  -13.1210   20.0130 N   0  0  0  0  0  0  0  0  0  0  0  0
  -26.3900  -11.8610   20.2910 N   0  0  0  0  0  0  0  0  0  0  0  0
  -24.3230  -10.7390   20.8170 C   0  0  0  0  0  0  0  0  0  0  0  0
  -24.6810   -9.7990   21.8070 C   0  0  0  0  0  3  0  0  0  0  0  0
  -23.9040   -8.6380   22.0080 C   0  0  0  0  0  3  0  0  0  0  0  0
  -22.7550   -8.4080   21.2150 C   0  0  0  0  0  0  0  0  0  0  0  0
  -22.4140   -9.3360   20.2160 C   0  0  0  0  0  3  0  0  0  0  0  0
  -23.1920  -10.4880   20.0150 C   0  0  0  0  0  3  0  0  0  0  0  0
  -21.9540   -7.2960   21.3220 O   0  0  0  0  0  0  0  0  0  0  0  0
  -21.7790   -6.6490   22.5170 C   0  0  0  0  0  0  0  0  0  0  0  0
  -21.2660   -7.3100   23.6550 C   0  0  0  0  0  3  0  0  0  0  0  0
  -21.0370   -6.5880   24.8440 C   0  0  0  0  0  3  0  0  0  0  0  0
  -21.3110   -5.2090   24.8960 C   0  0  0  0  0  0  0  0  0  0  0  0
  -21.8150   -4.5480   23.7630 C   0  0  0  0  0  3  0  0  0  0  0  0
  -22.0470   -5.2660   22.5760 C   0  0  0  0  0  0  0  0  0  0  0  0
  -22.5140   -4.6210   21.4800 F   0  0  0  0  0  0  0  0  0  0  0  0
  -21.0850   -4.5140   26.0370 F   0  0  0  0  0  0  0  0  0  0  0  0
  -23.3320  -13.8790   20.8820 C   0  0  0  0  0  0  0  0  0  0  0  0
  -22.5850  -13.2400   21.7750 N   0  0  0  0  0  0  0  0  0  0  0  0
  -22.9310  -14.9060   20.3360 O   0  0  0  0  0  0  0  0  0  0  0  0
  -22.9230  -12.4110   22.2390 H   0  0  0  0  0  0  0  0  0  0  0  0
  -21.6630  -13.5870   22.0030 H   0  0  0  0  0  0  0  0  0  0  0  0
  -26.0370  -15.4120   20.0320 N   0  0  0  0  0  0  0  0  0  0  0  0
  -25.3080  -16.1070   20.1540 H   0  0  0  0  0  0  0  0  0  0  0  0
  -26.9230  -15.8110   19.7480 H   0  0  0  0  0  0  0  0  0  0  0  0
  -28.5980  -22.6400   17.4610 C   0  0  0  0  0  2  0  0  0  0  0  0
  -29.2610  -23.3680   18.6480 C   0  0  0  0  0  2  0  0  0  0  0  0
  -28.7980  -24.8300   18.7980 C   0  0  0  0  0  2  0  0  0  0  0  0
  -28.6310  -25.2460   20.2680 C   0  0  0  0  0  2  0  0  0  0  0  0
  -28.5850  -26.6600   20.4240 O   0  0  0  0  0  0  0  0  0  0  0  0
  -24.5500  -31.7280   23.2890 C   0  0  0  0  0  0  0  0  0  0  0  0
  -27.3740  -27.3120   20.3650 C   0  0  0  0  0  0  0  0  0  0  0  0
  -23.4320  -30.3200   21.5880 C   0  0  0  0  0  3  0  0  0  0  0  0
  -24.9630  -28.7840   20.2510 C   0  0  0  0  0  0  0  0  0  0  0  0
  -25.9590  -30.6980   21.5140 C   0  0  0  0  0  2  0  0  0  0  0  0
  -26.0850  -29.3270   20.8860 C   0  0  0  0  0  0  0  0  0  0  0  0
  -27.2920  -28.6000   20.9370 C   0  0  0  0  0  3  0  0  0  0  0  0
  -26.2240  -26.7670   19.7480 C   0  0  0  0  0  3  0  0  0  0  0  0
  -25.0260  -27.5020   19.6810 C   0  0  0  0  0  3  0  0  0  0  0  0
  -23.7130  -29.6340   20.2250 C   0  0  0  0  0  2  0  0  0  0  0  0
  -24.6620  -30.9300   22.1910 N   0  0  0  0  0  0  0  0  0  0  0  0
  -23.4420  -31.9970   23.7750 O   0  0  0  0  0  0  0  0  0  0  0  0
  -22.7380  -29.2970   22.5170 C   0  0  0  0  0  0  0  0  0  0  0  0
  -21.4090  -29.1670   22.3750 N   0  0  0  0  0  0  0  0  0  0  0  0
  -23.3920  -28.6280   23.3210 O   0  0  0  0  0  0  0  0  0  0  0  0
  -20.9460  -29.7580   21.6990 H   0  0  0  0  0  0  0  0  0  0  0  0
  -17.9820  -28.1460   22.8710 C   0  0  0  0  0  0  0  0  0  0  0  0
  -20.5530  -28.2400   23.1140 C   0  0  0  0  0  3  0  0  0  0  0  0
  -20.5650  -26.8360   22.4670 C   0  0  0  0  0  2  0  0  0  0  0  0
  -19.4320  -26.6290   21.4570 C   0  0  0  0  0  2  0  0  0  0  0  0
  -18.0700  -26.8230   22.1300 C   0  0  0  0  0  2  0  0  0  0  0  0
  -19.1490  -28.8180   23.3200 C   0  0  0  0  0  0  0  0  0  0  0  0
  -19.0150  -30.0640   23.9730 C   0  0  0  0  0  3  0  0  0  0  0  0
  -17.7450  -30.6320   24.1840 C   0  0  0  0  0  3  0  0  0  0  0  0
  -16.5910  -29.9540   23.7530 C   0  0  0  0  0  3  0  0  0  0  0  0
  -16.7110  -28.7140   23.1010 C   0  0  0  0  0  3  0  0  0  0  0  0
  -25.8020  -32.3630   23.9720 C   0  0  0  0  0  3  0  0  0  0  0  0
  -25.4810  -33.7650   24.2670 N   0  0  0  0  0  0  0  0  0  0  0  0
  -25.8410  -34.8050   23.5040 C   0  0  0  0  0  0  0  0  0  0  0  0
  -26.5510  -34.6860   22.5020 O   0  0  0  0  0  0  0  0  0  0  0  0
  -24.8530  -33.9300   25.0400 H   0  0  0  0  0  0  0  0  0  0  0  0
  -24.1210  -36.5850   23.0590 C   0  0  0  0  0  1  0  0  0  0  0  0
  -25.3330  -36.1980   23.9200 C   0  0  0  0  0  3  0  0  0  0  0  0
  -27.4270  -37.1120   24.8180 C   0  0  0  0  0  1  0  0  0  0  0  0
  -26.3650  -37.2530   23.8260 N   0  0  0  0  0  0  0  0  0  0  0  0
  -25.9480  -38.1730   23.9380 H   0  0  0  0  0  0  0  0  0  0  0  0
  -26.2520  -31.6030   25.2800 C   0  0  1  0  0  0  0  0  0  0  0  0
  -25.1060  -31.3850   26.2950 C   0  0  0  0  0  1  0  0  0  0  0  0
  -26.8440  -30.2170   24.9320 C   0  0  0  0  0  1  0  0  0  0  0  0
  -27.3720  -32.3970   25.9910 C   0  0  0  0  0  1  0  0  0  0  0  0
  1 14  1  0
  2  5  1  0
  2  3  1  0
  4  8  1  0
  5  4  1  0
  5  7  1  0
  6  3  1  0
  7  6  1  0
  7  1  1  0
  8 56  1  0
  8  6  1  0
  9  1  2  0
  8 10  1  6
 11 12  1  0
 13 16  1  0
 14 13  2  0
 14 15  1  0
 15 11  2  0
 16 26  1  0
 16 12  2  0
 17 15  1  0
 18 26  1  0
 19 24  1  0
 20 21  1  0
 20 19  1  0
 22 21  1  0
 22 31  1  0
 22 23  1  0
 24 18  1  0
 24 23  1  0
 25 18  2  0
 26 27  1  0
 28 29  2  0
 29 48  1  0
 30 29  1  0
 30 33  1  0
 31 28  1  0
 31 32  1  0
 32 30  2  0
 33 34  1  0
 34 35  2  0
 36 39  1  0
 36 35  1  0
 37 36  2  0
 38 37  1  0
 38 33  2  0
 39 40  1  0
 40 45  2  0
 40 41  1  0
 41 42  2  0
 42 43  1  0
 43 47  1  0
 44 43  2  0
 45 44  1  0
 46 45  1  0
 48 49  1  0
 49 52  1  0
 49 51  1  0
 50 48  2  0
 53 54  1  0
 53 28  1  0
 55 53  1  0
 56 57  1  0
 57 58  1  0
 58 59  1  0
 59 60  1  0
 61 72  2  0
 62 60  1  0
 62 67  1  0
 63 71  1  0
 63 73  1  0
 64 66  1  0
 65 71  1  0
 66 67  2  0
 66 65  1  0
 68 62  2  0
 69 68  1  0
 69 64  2  0
 70 64  1  0
 70 63  1  0
 71 61  1  0
 73 75  2  0
 74 73  1  0
 76 74  1  0
 77 86  2  0
 77 82  1  0
 78 74  1  0
 78 82  1  0
 79 78  1  0
 80 81  1  0
 80 79  1  0
 81 77  1  0
 82 83  2  0
 83 84  1  0
 85 84  2  0
 86 85  1  0
 87 61  1  0
 87 88  1  0
 87 97  1  0
 88 91  1  0
 89 93  1  0
 89 88  1  0
 90 89  2  0
 93 92  1  0
 95 93  1  0
 95 96  1  0
 95 94  1  0
 97100  1  1
 97 98  1  0
 99 97  1  0
M  ISO  4  18 100  26 100  59 101  60 101
M  END
>  <TORSDO>  (17) 
F 21

>  <SCORE>  (17) 
-11.527

>  <name>  (17) 
16

>  <ligand_id>  (17) 
16

>  <original_smiles>  (17) 
[H]c1c([H])c([H])c2c(c1[H])C([H])([H])C([H])([H])C([H])([H])C2([H])N([H])C(=O)C1([H])N(C(=O)C([H])(N([H])C(=O)C([H])(N([H])C([H])([H])[H])C([H])([H])[H])C(C([H])([H])[H])(C([H])([H])[H])C([H])([H])[H])C([H])([H])c2c([H])c(OC([H])([H])C([H])([H])C([H])([H])C([H])([H])[N+]3([H])C([H])([H])C4([H])N(C(=O)c5c([H])c(N([H])C(=O)N6C([H])([H])C([H])([H])C([H])([H])C([H])(n7nc(-c8c([H])c([H])c(Oc9c([H])c([H])c(F)c([H])c9F)c([H])c8[H])c(C(=O)N([H])[H])c7N([H])[H])C6([H])[H])c([H])c([H])c5C([H])([H])[H])C3([H])C([H])([H])C4([H])[H])c([H])c([H])c2C1([H])[H]

>  <smiles>  (17) 
[H]c1c([H])c([H])c2c(c1[H])C([H])([H])C([H])([H])C([H])([H])C2([H])N([H])C(=O)C1([H])N(C(=O)C([H])(N([H])C(=O)C([H])(N([H])C([H])([H])[H])C([H])([H])[H])C(C([H])([H])[H])(C([H])([H])[H])C([H])([H])[H])C([H])([H])c2c([H])c(OC([H])([H])C([H])([H])C([H])([H])C([H])([H])[N+]3([H])C([H])([H])C4([H])N(C(=O)c5c([H])c(N([H])C(=O)N6C([H])([H])C([H])([H])C([H])([H])C([H])(n7nc(-c8c([H])c([H])c(Oc9c([H])c([H])c(F)c([H])c9F)c([H])c8[H])c(C(=O)N([H])[H])c7N([H])[H])C6([H])[H])c([H])c([H])c5C([H])([H])[H])C3([H])C([H])([H])C4([H])[H])c([H])c([H])c2C1([H])[H]

$$$$
17:0:0
     RDKit          3D

100109  0  0  1  0  0  0  0  0999 V2000
  -31.7250  -22.1830   17.3660 C   0  0  0  0  0  3  0  0  0  0  0  0
  -32.5390  -21.1710   17.9040 C   0  0  0  0  0  3  0  0  0  0  0  0
  -30.0770  -21.7830   19.1180 C   0  0  0  0  0  3  0  0  0  0  0  0
  -30.4870  -22.4880   17.9640 C   0  0  0  0  0  0  0  0  0  0  0  0
  -30.8790  -20.7490   19.6560 C   0  0  0  0  0  0  0  0  0  0  0  0
  -32.1230  -20.4490   19.0400 C   0  0  0  0  0  0  0  0  0  0  0  0
  -33.1410  -19.1810   19.6240 Cl  0  0  0  0  0  0  0  0  0  0  0  0
  -29.5920  -23.5510   17.3440 C   0  0  0  0  0  2  0  0  0  0  0  0
  -29.9730  -24.8990   17.7990 N   0  0  0  0  0  4  0  0  0  0  0  0
  -30.9280  -25.0620   17.5280 H   0  0  0  0  0  0  0  0  0  0  0  0
  -29.9210  -24.9060   18.8040 H   0  0  0  0  0  0  0  0  0  0  0  0
  -29.1130  -25.9750   17.2600 C   0  0  0  0  0  2  0  0  0  0  0  0
  -29.4810  -27.3780   17.7870 C   0  0  0  0  0  2  0  0  0  0  0  0
  -29.5840  -27.4760   19.3200 C   0  0  0  0  0  2  0  0  0  0  0  0
  -28.4770  -26.8180   19.9310 O   0  0  0  0  0  0  0  0  0  0  0  0
  -24.6410  -31.8560   23.2010 C   0  0  0  0  0  0  0  0  0  0  0  0
  -27.3130  -27.5400   20.0050 C   0  0  0  0  0  0  0  0  0  0  0  0
  -23.4300  -30.4710   21.5430 C   0  0  0  0  0  3  0  0  0  0  0  0
  -24.8880  -28.9740   20.0810 C   0  0  0  0  0  0  0  0  0  0  0  0
  -25.9450  -30.8730   21.3230 C   0  0  0  0  0  2  0  0  0  0  0  0
  -26.0410  -29.5160   20.6630 C   0  0  0  0  0  0  0  0  0  0  0  0
  -27.2560  -28.8060   20.6270 C   0  0  0  0  0  3  0  0  0  0  0  0
  -26.1410  -26.9880   19.4490 C   0  0  0  0  0  3  0  0  0  0  0  0
  -24.9300  -27.7040   19.4760 C   0  0  0  0  0  3  0  0  0  0  0  0
  -23.6320  -29.8100   20.1520 C   0  0  0  0  0  2  0  0  0  0  0  0
  -24.6910  -31.0780   22.0820 N   0  0  0  0  0  0  0  0  0  0  0  0
  -23.5640  -32.1090   23.7570 O   0  0  0  0  0  0  0  0  0  0  0  0
  -22.8000  -29.4270   22.4910 C   0  0  0  0  0  0  0  0  0  0  0  0
  -21.4750  -29.2410   22.3780 N   0  0  0  0  0  0  0  0  0  0  0  0
  -23.4980  -28.7870   23.2840 O   0  0  0  0  0  0  0  0  0  0  0  0
  -20.9760  -29.8090   21.7080 H   0  0  0  0  0  0  0  0  0  0  0  0
  -18.1120  -28.0390   22.9000 C   0  0  0  0  0  0  0  0  0  0  0  0
  -20.6730  -28.2870   23.1400 C   0  0  0  0  0  3  0  0  0  0  0  0
  -20.7660  -26.8700   22.5270 C   0  0  0  0  0  2  0  0  0  0  0  0
  -19.6470  -26.5720   21.5240 C   0  0  0  0  0  2  0  0  0  0  0  0
  -18.2760  -26.7040   22.1930 C   0  0  0  0  0  2  0  0  0  0  0  0
  -19.2370  -28.7890   23.3320 C   0  0  0  0  0  0  0  0  0  0  0  0
  -19.0290  -30.0380   23.9550 C   0  0  0  0  0  3  0  0  0  0  0  0
  -17.7270  -30.5380   24.1490 C   0  0  0  0  0  3  0  0  0  0  0  0
  -16.6160  -29.7830   23.7370 C   0  0  0  0  0  3  0  0  0  0  0  0
  -16.8100  -28.5340   23.1190 C   0  0  0  0  0  3  0  0  0  0  0  0
  -25.9300  -32.4860   23.8180 C   0  0  0  0  0  3  0  0  0  0  0  0
  -25.6170  -33.8780   24.1640 N   0  0  0  0  0  0  0  0  0  0  0  0
  -25.9480  -34.9400   23.4160 C   0  0  0  0  0  0  0  0  0  0  0  0
  -26.6210  -34.8480   22.3860 O   0  0  0  0  0  0  0  0  0  0  0  0
  -25.0140  -34.0230   24.9620 H   0  0  0  0  0  0  0  0  0  0  0  0
  -24.2200  -36.7330   23.0730 C   0  0  0  0  0  1  0  0  0  0  0  0
  -25.4560  -36.3220   23.8870 C   0  0  0  0  0  3  0  0  0  0  0  0
  -27.5820  -37.1980   24.7470 C   0  0  0  0  0  1  0  0  0  0  0  0
  -26.4890  -37.3750   23.7940 N   0  0  0  0  0  0  0  0  0  0  0  0
  -26.0830  -38.2940   23.9470 H   0  0  0  0  0  0  0  0  0  0  0  0
  -26.4650  -31.6990   25.0770 C   0  0  1  0  0  0  0  0  0  0  0  0
  -25.3850  -31.4400   26.1520 C   0  0  0  0  0  1  0  0  0  0  0  0
  -27.0490  -30.3300   24.6610 C   0  0  0  0  0  1  0  0  0  0  0  0
  -27.6200  -32.4900   25.7370 C   0  0  0  0  0  1  0  0  0  0  0  0
  -30.3730  -19.9490   20.8560 C   0  0  0  0  0  2  0  0  0  0  0  0
  -29.4990  -18.8500   20.3980 N   0  0  0  0  0  4  0  0  0  0  0  0
  -28.5650  -19.2100   20.2930 H   0  0  0  0  0  0  0  0  0  0  0  0
  -29.8150  -18.5900   19.4780 H   0  0  0  0  0  0  0  0  0  0  0  0
  -30.5450  -14.6060   20.4220 C   0  0  0  0  0  0  0  0  0  0  0  0
  -30.1950  -12.4920   19.2210 C   0  0  0  0  0  2  0  0  0  0  0  0
  -29.2620  -12.7310   18.0170 C   0  0  0  0  0  2  0  0  0  0  0  0
  -27.7930  -12.5590   18.4440 C   0  0  0  0  0  2  0  0  0  0  0  0
  -27.4430  -13.3670   19.7210 C   0  0  0  0  0  3  0  0  0  0  0  0
  -28.5020  -13.1610   20.8320 C   0  0  0  0  0  2  0  0  0  0  0  0
  -29.8300  -13.4580   20.2710 N   0  0  0  0  0  0  0  0  0  0  0  0
  -31.6470  -14.7630   19.8940 O   0  0  0  0  0  0  0  0  0  0  0  0
  -28.8960  -16.4100   20.5330 C   0  0  0  0  0  2  0  0  0  0  0  0
  -29.4670  -17.6280   21.2400 C   0  0  0  0  0  3  0  0  0  0  0  0
  -30.7710  -16.8590   21.3690 C   0  0  0  0  0  3  0  0  0  0  0  0
  -31.5040  -16.7910   22.7060 C   0  0  0  0  0  1  0  0  0  0  0  0
  -29.9880  -15.6210   21.1250 N   0  0  0  0  0  0  0  0  0  0  0  0
  -25.0190  -13.9180   20.3930 C   0  0  0  0  0  0  0  0  0  0  0  0
  -23.9720  -13.1210   20.7690 C   0  0  0  0  0  0  0  0  0  0  0  0
  -24.4740  -11.7840   20.7710 C   0  0  0  0  0  0  0  0  0  0  0  0
  -26.0930  -13.0640   20.1920 N   0  0  0  0  0  0  0  0  0  0  0  0
  -25.7690  -11.7770   20.4780 N   0  0  0  0  0  0  0  0  0  0  0  0
  -23.7870  -10.5040   20.9800 C   0  0  0  0  0  0  0  0  0  0  0  0
  -24.2410   -9.5700   21.9350 C   0  0  0  0  0  3  0  0  0  0  0  0
  -23.5510   -8.3530   22.1320 C   0  0  0  0  0  3  0  0  0  0  0  0
  -22.3950   -8.0630   21.3690 C   0  0  0  0  0  0  0  0  0  0  0  0
  -21.9610   -8.9870   20.4030 C   0  0  0  0  0  3  0  0  0  0  0  0
  -22.6500  -10.1940   20.2060 C   0  0  0  0  0  3  0  0  0  0  0  0
  -21.6770   -6.8950   21.4720 O   0  0  0  0  0  0  0  0  0  0  0  0
  -21.6560   -6.1650   22.6340 C   0  0  0  0  0  0  0  0  0  0  0  0
  -21.2230   -6.7230   23.8560 C   0  0  0  0  0  3  0  0  0  0  0  0
  -21.1490   -5.9170   25.0100 C   0  0  0  0  0  3  0  0  0  0  0  0
  -21.4980   -4.5550   24.9420 C   0  0  0  0  0  0  0  0  0  0  0  0
  -21.9230   -3.9970   23.7240 C   0  0  0  0  0  3  0  0  0  0  0  0
  -21.9980   -4.7990   22.5720 C   0  0  0  0  0  0  0  0  0  0  0  0
  -22.3880   -4.2510   21.3960 F   0  0  0  0  0  0  0  0  0  0  0  0
  -21.4200   -3.7790   26.0480 F   0  0  0  0  0  0  0  0  0  0  0  0
  -22.5580  -13.5600   21.0160 C   0  0  0  0  0  0  0  0  0  0  0  0
  -21.8450  -12.8660   21.8960 N   0  0  0  0  0  0  0  0  0  0  0  0
  -22.0920  -14.5570   20.4640 O   0  0  0  0  0  0  0  0  0  0  0  0
  -22.2340  -12.0610   22.3650 H   0  0  0  0  0  0  0  0  0  0  0  0
  -20.8970  -13.1440   22.1050 H   0  0  0  0  0  0  0  0  0  0  0  0
  -25.1400  -15.2880   20.1830 N   0  0  0  0  0  0  0  0  0  0  0  0
  -24.3430  -15.9110   20.2620 H   0  0  0  0  0  0  0  0  0  0  0  0
  -25.9590  -15.7390   19.8020 H   0  0  0  0  0  0  0  0  0  0  0  0
  1  2  2  0
  1  4  1  0
  2  6  1  0
  3  5  1  0
  4  3  2  0
  5 56  1  0
  6  7  1  0
  6  5  2  0
  8  9  1  0
  8  4  1  0
  9 11  1  0
 10  9  1  0
 12 13  1  0
 12  9  1  0
 13 14  1  0
 14 15  1  0
 15 17  1  0
 16 27  2  0
 17 22  1  0
 18 26  1  0
 18 28  1  0
 19 25  1  0
 19 21  1  0
 20 26  1  0
 21 20  1  0
 22 21  2  0
 23 24  1  0
 23 17  2  0
 24 19  2  0
 25 18  1  0
 26 16  1  0
 28 30  2  0
 29 28  1  0
 31 29  1  0
 32 41  2  0
 32 37  1  0
 33 29  1  0
 33 37  1  0
 34 33  1  0
 35 36  1  0
 35 34  1  0
 36 32  1  0
 37 38  2  0
 38 39  1  0
 40 39  2  0
 41 40  1  0
 42 16  1  0
 42 43  1  0
 42 52  1  0
 43 46  1  0
 44 48  1  0
 44 43  1  0
 45 44  2  0
 48 47  1  0
 50 48  1  0
 50 51  1  0
 50 49  1  0
 52 55  1  1
 52 53  1  0
 54 52  1  0
 57 56  1  0
 58 57  1  0
 59 57  1  0
 60 72  1  0
 61 66  1  0
 62 63  1  0
 62 61  1  0
 64 63  1  0
 64 76  1  0
 64 65  1  0
 66 60  1  0
 66 65  1  0
 67 60  2  0
 68 72  1  0
 68 69  1  0
 69 57  1  0
 69 70  1  0
 70 71  1  0
 72 70  1  0
 73 74  2  0
 74 75  1  0
 74 93  1  0
 75 78  1  0
 76 73  1  0
 76 77  1  0
 77 75  2  0
 78 79  1  0
 79 80  2  0
 81 84  1  0
 81 80  1  0
 82 81  2  0
 83 82  1  0
 83 78  2  0
 84 85  1  0
 85 86  1  0
 86 87  2  0
 88 87  1  0
 88 92  1  0
 89 88  2  0
 90 85  2  0
 90 89  1  0
 91 90  1  0
 93 94  1  0
 94 97  1  0
 94 96  1  0
 95 93  2  0
 98 99  1  0
 98 73  1  0
100 98  1  0
M  ISO  4  14 101  15 101  60 100  72 100
M  END
>  <TORSDO>  (18) 
F 23

>  <SCORE>  (18) 
-12.054

>  <name>  (18) 
17

>  <ligand_id>  (18) 
17

>  <original_smiles>  (18) 
[H]c1c([H])c([H])c2c(c1[H])C([H])([H])C([H])([H])C([H])([H])C2([H])N([H])C(=O)C1([H])N(C(=O)C([H])(N([H])C(=O)C([H])(N([H])C([H])([H])[H])C([H])([H])[H])C(C([H])([H])[H])(C([H])([H])[H])C([H])([H])[H])C([H])([H])c2c([H])c(OC([H])([H])C([H])([H])C([H])([H])[N+]([H])([H])C([H])([H])c3c([H])c([H])c(Cl)c(C([H])([H])[N+]([H])([H])C4([H])C([H])([H])N(C(=O)N5C([H])([H])C([H])([H])C([H])([H])C([H])(n6nc(-c7c([H])c([H])c(Oc8c([H])c([H])c(F)c([H])c8F)c([H])c7[H])c(C(=O)N([H])[H])c6N([H])[H])C5([H])[H])C4([H])C([H])([H])[H])c3[H])c([H])c([H])c2C1([H])[H]

>  <smiles>  (18) 
[H]c1c([H])c([H])c2c(c1[H])C([H])([H])C([H])([H])C([H])([H])C2([H])N([H])C(=O)C1([H])N(C(=O)C([H])(N([H])C(=O)C([H])(N([H])C([H])([H])[H])C([H])([H])[H])C(C([H])([H])[H])(C([H])([H])[H])C([H])([H])[H])C([H])([H])c2c([H])c(OC([H])([H])C([H])([H])C([H])([H])[N+]([H])([H])C([H])([H])c3c([H])c([H])c(Cl)c(C([H])([H])[N+]([H])([H])C4([H])C([H])([H])N(C(=O)N5C([H])([H])C([H])([H])C([H])([H])C([H])(n6nc(-c7c([H])c([H])c(Oc8c([H])c([H])c(F)c([H])c8F)c([H])c7[H])c(C(=O)N([H])[H])c6N([H])[H])C5([H])[H])C4([H])C([H])([H])[H])c3[H])c([H])c([H])c2C1([H])[H]

$$$$
18:0:0
     RDKit          3D

 90 98  0  0  1  0  0  0  0  0999 V2000
  -30.3170  -18.5490   19.0200 C   0  0  0  0  0  3  0  0  0  0  0  0
  -30.3730  -19.7280   18.2550 C   0  0  0  0  0  3  0  0  0  0  0  0
  -29.3400  -19.8670   20.8080 C   0  0  0  0  0  3  0  0  0  0  0  0
  -29.8220  -18.5740   20.3290 C   0  0  0  0  0  0  0  0  0  0  0  0
  -29.9180  -20.9850   18.7280 C   0  0  0  0  0  0  0  0  0  0  0  0
  -29.3510  -21.1110   20.0410 C   0  0  0  0  0  0  0  0  0  0  0  0
  -30.1000  -22.1400   17.7510 C   0  0  0  0  0  1  0  0  0  0  0  0
  -30.0070  -17.2530   21.2000 C   0  0  0  0  0  2  0  0  0  0  0  0
  -30.5450  -14.7490   20.4300 C   0  0  0  0  0  0  0  0  0  0  0  0
  -30.3850  -12.4810   19.3640 C   0  0  0  0  0  2  0  0  0  0  0  0
  -29.4370  -12.5530   18.1450 C   0  0  0  0  0  2  0  0  0  0  0  0
  -27.9670  -12.3720   18.5770 C   0  0  0  0  0  2  0  0  0  0  0  0
  -27.5960  -13.2540   19.7990 C   0  0  0  0  0  3  0  0  0  0  0  0
  -28.6530  -13.1390   20.9140 C   0  0  0  0  0  2  0  0  0  0  0  0
  -29.9440  -13.5150   20.3250 N   0  0  0  0  0  0  0  0  0  0  0  0
  -31.7360  -14.8860   20.1360 O   0  0  0  0  0  0  0  0  0  0  0  0
  -29.7260  -15.8340   20.7040 N   0  0  0  0  0  0  0  0  0  0  0  0
  -28.7540  -15.5730   20.7760 H   0  0  0  0  0  0  0  0  0  0  0  0
  -25.2100  -13.8540   20.5210 C   0  0  0  0  0  0  0  0  0  0  0  0
  -24.1440  -13.0790   20.8960 C   0  0  0  0  0  0  0  0  0  0  0  0
  -24.6090  -11.7280   20.8710 C   0  0  0  0  0  0  0  0  0  0  0  0
  -26.2520  -12.9710   20.2900 N   0  0  0  0  0  0  0  0  0  0  0  0
  -25.8980  -11.6900   20.5650 N   0  0  0  0  0  0  0  0  0  0  0  0
  -23.8840  -10.4650   21.0640 C   0  0  0  0  0  0  0  0  0  0  0  0
  -24.3280   -9.4910   21.9860 C   0  0  0  0  0  3  0  0  0  0  0  0
  -23.6030   -8.2940   22.1660 C   0  0  0  0  0  3  0  0  0  0  0  0
  -22.4210   -8.0620   21.4250 C   0  0  0  0  0  0  0  0  0  0  0  0
  -21.9970   -9.0240   20.4890 C   0  0  0  0  0  3  0  0  0  0  0  0
  -22.7220  -10.2120   20.3080 C   0  0  0  0  0  3  0  0  0  0  0  0
  -21.6660   -6.9170   21.5150 O   0  0  0  0  0  0  0  0  0  0  0  0
  -21.6430   -6.1590   22.6590 C   0  0  0  0  0  0  0  0  0  0  0  0
  -21.2620   -6.7020   23.9060 C   0  0  0  0  0  3  0  0  0  0  0  0
  -21.1860   -5.8730   25.0410 C   0  0  0  0  0  3  0  0  0  0  0  0
  -21.4810   -4.5000   24.9320 C   0  0  0  0  0  0  0  0  0  0  0  0
  -21.8550   -3.9560   23.6900 C   0  0  0  0  0  3  0  0  0  0  0  0
  -21.9330   -4.7840   22.5560 C   0  0  0  0  0  0  0  0  0  0  0  0
  -22.2740   -4.2510   21.3580 F   0  0  0  0  0  0  0  0  0  0  0  0
  -21.4000   -3.7010   26.0210 F   0  0  0  0  0  0  0  0  0  0  0  0
  -22.7460  -13.5550   21.1630 C   0  0  0  0  0  0  0  0  0  0  0  0
  -22.0180  -12.8590   22.0320 N   0  0  0  0  0  0  0  0  0  0  0  0
  -22.3050  -14.5760   20.6390 O   0  0  0  0  0  0  0  0  0  0  0  0
  -22.3870  -12.0280   22.4740 H   0  0  0  0  0  0  0  0  0  0  0  0
  -21.0810  -13.1570   22.2580 H   0  0  0  0  0  0  0  0  0  0  0  0
  -25.3750  -15.2230   20.3340 N   0  0  0  0  0  0  0  0  0  0  0  0
  -24.6050  -15.8780   20.4040 H   0  0  0  0  0  0  0  0  0  0  0  0
  -26.2200  -15.6480   19.9740 H   0  0  0  0  0  0  0  0  0  0  0  0
  -28.8420  -22.3250   20.6280 O   0  0  0  0  0  0  0  0  0  0  0  0
  -28.7540  -23.6820   19.9810 C   0  0  0  0  0  3  0  0  0  0  0  0
  -28.1590  -24.9720   20.7670 C   0  0  0  0  0  3  0  0  0  0  0  0
  -28.3450  -26.3810   20.2550 O   0  0  0  0  0  0  0  0  0  0  0  0
  -24.6230  -31.8700   23.2220 C   0  0  0  0  0  0  0  0  0  0  0  0
  -27.2440  -27.2630   20.2180 C   0  0  0  0  0  0  0  0  0  0  0  0
  -23.4330  -30.4640   21.5780 C   0  0  0  0  0  3  0  0  0  0  0  0
  -24.8940  -28.9060   20.1630 C   0  0  0  0  0  0  0  0  0  0  0  0
  -25.9770  -30.7750   21.4170 C   0  0  0  0  0  2  0  0  0  0  0  0
  -26.0620  -29.3940   20.7640 C   0  0  0  0  0  0  0  0  0  0  0  0
  -27.2440  -28.5860   20.7730 C   0  0  0  0  0  3  0  0  0  0  0  0
  -26.0570  -26.8360   19.5880 C   0  0  0  0  0  3  0  0  0  0  0  0
  -24.8970  -27.6370   19.5630 C   0  0  0  0  0  3  0  0  0  0  0  0
  -23.6540  -29.7810   20.2020 C   0  0  0  0  0  2  0  0  0  0  0  0
  -24.6950  -31.0570   22.1260 N   0  0  0  0  0  0  0  0  0  0  0  0
  -23.5360  -32.1520   23.7470 O   0  0  0  0  0  0  0  0  0  0  0  0
  -22.7640  -29.4520   22.5420 C   0  0  0  0  0  0  0  0  0  0  0  0
  -21.4410  -29.2650   22.4000 N   0  0  0  0  0  0  0  0  0  0  0  0
  -23.4350  -28.8380   23.3730 O   0  0  0  0  0  0  0  0  0  0  0  0
  -20.9620  -29.8030   21.6910 H   0  0  0  0  0  0  0  0  0  0  0  0
  -18.0660  -28.0400   22.8530 C   0  0  0  0  0  0  0  0  0  0  0  0
  -20.6160  -28.3290   23.1680 C   0  0  0  0  0  3  0  0  0  0  0  0
  -20.7470  -26.8950   22.6080 C   0  0  0  0  0  2  0  0  0  0  0  0
  -19.6670  -26.5490   21.5790 C   0  0  0  0  0  2  0  0  0  0  0  0
  -18.2700  -26.6860   22.1950 C   0  0  0  0  0  2  0  0  0  0  0  0
  -19.1690  -28.8200   23.2930 C   0  0  0  0  0  0  0  0  0  0  0  0
  -18.9260  -30.0850   23.8670 C   0  0  0  0  0  3  0  0  0  0  0  0
  -17.6130  -30.5720   24.0100 C   0  0  0  0  0  3  0  0  0  0  0  0
  -16.5240  -29.7900   23.5900 C   0  0  0  0  0  3  0  0  0  0  0  0
  -16.7500  -28.5260   23.0150 C   0  0  0  0  0  3  0  0  0  0  0  0
  -25.9020  -32.5030   23.8520 C   0  0  0  0  0  3  0  0  0  0  0  0
  -26.4100  -31.7370   25.1350 C   0  0  1  0  0  0  0  0  0  0  0  0
  -25.3100  -31.5030   26.1960 C   0  0  0  0  0  1  0  0  0  0  0  0
  -26.9980  -30.3570   24.7590 C   0  0  0  0  0  1  0  0  0  0  0  0
  -27.5590  -32.5350   25.7990 C   0  0  0  0  0  1  0  0  0  0  0  0
  -25.5860  -33.9010   24.1800 N   0  0  0  0  0  0  0  0  0  0  0  0
  -25.9200  -34.9550   23.4240 C   0  0  0  0  0  0  0  0  0  0  0  0
  -26.5930  -34.8580   22.3960 O   0  0  0  0  0  0  0  0  0  0  0  0
  -24.9840  -34.0540   24.9750 H   0  0  0  0  0  0  0  0  0  0  0  0
  -24.1820  -36.7460   23.0780 C   0  0  0  0  0  1  0  0  0  0  0  0
  -25.4260  -36.3430   23.8850 C   0  0  0  0  0  3  0  0  0  0  0  0
  -27.5580  -37.2350   24.7150 C   0  0  0  0  0  1  0  0  0  0  0  0
  -26.4550  -37.4000   23.7730 N   0  0  0  0  0  0  0  0  0  0  0  0
  -26.0430  -38.3180   23.9240 H   0  0  0  0  0  0  0  0  0  0  0  0
  1  4  1  0
  2  5  1  0
  2  1  2  0
  4  3  2  0
  4  8  1  0
  5  6  2  0
  6 47  1  0
  6  3  1  0
  7  5  1  0
  9 17  1  0
 10 15  1  0
 11 12  1  0
 11 10  1  0
 13 12  1  0
 13 22  1  0
 13 14  1  0
 15  9  1  0
 15 14  1  0
 16  9  2  0
 17 18  1  0
 17  8  1  0
 19 20  2  0
 20 39  1  0
 21 20  1  0
 21 24  1  0
 22 19  1  0
 22 23  1  0
 23 21  2  0
 24 25  1  0
 25 26  2  0
 27 30  1  0
 27 26  1  0
 28 27  2  0
 29 28  1  0
 29 24  2  0
 30 31  1  0
 31 32  1  0
 32 33  2  0
 34 33  1  0
 34 38  1  0
 35 34  2  0
 36 31  2  0
 36 35  1  0
 37 36  1  0
 39 40  1  0
 40 43  1  0
 40 42  1  0
 41 39  2  0
 44 45  1  0
 44 19  1  0
 46 44  1  0
 48 47  1  0
 48 49  2  0
 50 49  1  0
 51 62  2  0
 52 50  1  0
 52 57  1  0
 53 61  1  0
 53 63  1  0
 54 60  1  0
 54 56  1  0
 55 61  1  0
 56 57  2  0
 56 55  1  0
 58 52  2  0
 59 58  1  0
 59 54  2  0
 60 53  1  0
 61 51  1  0
 63 65  2  0
 64 63  1  0
 66 64  1  0
 67 76  2  0
 67 72  1  0
 68 64  1  0
 68 72  1  0
 69 68  1  0
 70 71  1  0
 70 69  1  0
 71 67  1  0
 72 73  2  0
 73 74  1  0
 75 74  2  0
 76 75  1  0
 77 51  1  0
 77 82  1  0
 77 78  1  0
 78 81  1  1
 78 79  1  0
 80 78  1  0
 82 85  1  0
 83 87  1  0
 83 82  1  0
 84 83  2  0
 87 86  1  0
 89 87  1  0
 89 90  1  0
 89 88  1  0
M  ISO  4   9 100  17 100  49 101  50 101
M  END
>  <TORSDO>  (19) 
F 20

>  <SCORE>  (19) 
-13.860

>  <name>  (19) 
18

>  <ligand_id>  (19) 
18

>  <original_smiles>  (19) 
[H]c1c([H])c([H])c2c(c1[H])C([H])([H])C([H])([H])C([H])([H])C2([H])N([H])C(=O)C1([H])N(C(=O)C([H])(N([H])C(=O)C([H])(N([H])C([H])([H])[H])C([H])([H])[H])C(C([H])([H])[H])(C([H])([H])[H])C([H])([H])[H])C([H])([H])c2c([H])c(OC([H])([H])C([H])([H])Oc3c([H])c(C([H])([H])N([H])C(=O)N4C([H])([H])C([H])([H])C([H])([H])C([H])(n5nc(-c6c([H])c([H])c(Oc7c([H])c([H])c(F)c([H])c7F)c([H])c6[H])c(C(=O)N([H])[H])c5N([H])[H])C4([H])[H])c([H])c([H])c3C([H])([H])[H])c([H])c([H])c2C1([H])[H]

>  <smiles>  (19) 
[H]c1c([H])c([H])c2c(c1[H])C([H])([H])C([H])([H])C([H])([H])C2([H])N([H])C(=O)C1([H])N(C(=O)C([H])(N([H])C(=O)C([H])(N([H])C([H])([H])[H])C([H])([H])[H])C(C([H])([H])[H])(C([H])([H])[H])C([H])([H])[H])C([H])([H])c2c([H])c(OC([H])([H])C([H])([H])Oc3c([H])c(C([H])([H])N([H])C(=O)N4C([H])([H])C([H])([H])C([H])([H])C([H])(n5nc(-c6c([H])c([H])c(Oc7c([H])c([H])c(F)c([H])c7F)c([H])c6[H])c(C(=O)N([H])[H])c5N([H])[H])C4([H])[H])c([H])c([H])c3C([H])([H])[H])c([H])c([H])c2C1([H])[H]

$$$$
19:0:0
     RDKit          3D

 93102  0  0  1  0  0  0  0  0999 V2000
  -27.0290  -20.2370   20.5020 C   0  0  0  0  0  2  0  0  0  0  0  0
  -27.8240  -19.7520   19.2950 C   0  0  0  0  0  2  0  0  0  0  0  0
  -27.2530  -21.7500   20.4900 C   0  0  0  0  0  2  0  0  0  0  0  0
  -29.1150  -20.5680   19.3880 C   0  0  0  0  0  3  0  0  0  0  0  0
  -28.6280  -21.9970   19.9930 N   0  0  1  0  0  4  0  0  0  0  0  0
  -29.1810  -22.0860   20.8330 H   0  0  0  0  0  0  0  0  0  0  0  0
  -32.2640  -20.2130   21.5030 C   0  0  0  0  0  3  0  0  0  0  0  0
  -32.5510  -18.8740   21.7270 C   0  0  0  0  0  3  0  0  0  0  0  0
  -31.1580  -20.5530   20.7230 C   0  0  0  0  0  3  0  0  0  0  0  0
  -31.7650  -17.8870   21.1260 C   0  0  0  0  0  3  0  0  0  0  0  0
  -30.2670  -19.6220   20.1210 C   0  0  0  0  0  0  0  0  0  0  0  0
  -30.6460  -18.1220   20.2710 C   0  0  0  0  0  0  0  0  0  0  0  0
  -30.8370  -15.4500   19.7300 C   0  0  0  0  0  0  0  0  0  0  0  0
  -30.6850  -13.0270   18.9400 C   0  0  0  0  0  2  0  0  0  0  0  0
  -29.6970  -12.8280   17.7690 C   0  0  0  0  0  2  0  0  0  0  0  0
  -28.2720  -12.6040   18.3030 C   0  0  0  0  0  2  0  0  0  0  0  0
  -27.8910  -13.6210   19.4090 C   0  0  0  0  0  3  0  0  0  0  0  0
  -28.9990  -13.7930   20.4680 C   0  0  0  0  0  2  0  0  0  0  0  0
  -30.2110  -14.1970   19.7450 N   0  0  0  0  0  0  0  0  0  0  0  0
  -32.0330  -15.4320   19.4170 O   0  0  0  0  0  0  0  0  0  0  0  0
  -30.1410  -16.7220   19.8190 N   0  0  0  0  0  0  0  0  0  0  0  0
  -29.1390  -16.6420   19.7290 H   0  0  0  0  0  0  0  0  0  0  0  0
  -25.5900  -14.2110   20.3520 C   0  0  0  0  0  0  0  0  0  0  0  0
  -24.5410  -13.4410   20.7730 C   0  0  0  0  0  0  0  0  0  0  0  0
  -24.9750  -12.0850   20.6630 C   0  0  0  0  0  0  0  0  0  0  0  0
  -26.5940  -13.3230   20.0050 N   0  0  0  0  0  0  0  0  0  0  0  0
  -26.2400  -12.0370   20.2580 N   0  0  0  0  0  0  0  0  0  0  0  0
  -24.2370  -10.8310   20.8620 C   0  0  0  0  0  0  0  0  0  0  0  0
  -24.6440   -9.8760   21.8190 C   0  0  0  0  0  3  0  0  0  0  0  0
  -23.9020   -8.6880   22.0050 C   0  0  0  0  0  3  0  0  0  0  0  0
  -22.7410   -8.4480   21.2330 C   0  0  0  0  0  0  0  0  0  0  0  0
  -22.3550   -9.3910   20.2640 C   0  0  0  0  0  3  0  0  0  0  0  0
  -23.0960  -10.5690   20.0770 C   0  0  0  0  0  3  0  0  0  0  0  0
  -21.9730   -7.3120   21.3270 O   0  0  0  0  0  0  0  0  0  0  0  0
  -21.8130   -6.6480   22.5180 C   0  0  0  0  0  0  0  0  0  0  0  0
  -21.2210   -7.2650   23.6410 C   0  0  0  0  0  3  0  0  0  0  0  0
  -21.0130   -6.5250   24.8220 C   0  0  0  0  0  3  0  0  0  0  0  0
  -21.3860   -5.1690   24.8800 C   0  0  0  0  0  0  0  0  0  0  0  0
  -21.9720   -4.5520   23.7600 C   0  0  0  0  0  3  0  0  0  0  0  0
  -22.1810   -5.2900   22.5820 C   0  0  0  0  0  0  0  0  0  0  0  0
  -22.7260   -4.6840   21.4980 F   0  0  0  0  0  0  0  0  0  0  0  0
  -21.1800   -4.4550   26.0110 F   0  0  0  0  0  0  0  0  0  0  0  0
  -23.1770  -13.9360   21.1570 C   0  0  0  0  0  0  0  0  0  0  0  0
  -22.5020  -13.2300   22.0570 N   0  0  0  0  0  0  0  0  0  0  0  0
  -22.7240  -14.9830   20.6960 O   0  0  0  0  0  0  0  0  0  0  0  0
  -22.8830  -12.3830   22.4500 H   0  0  0  0  0  0  0  0  0  0  0  0
  -21.5900  -13.5430   22.3580 H   0  0  0  0  0  0  0  0  0  0  0  0
  -25.7670  -15.5840   20.2070 N   0  0  0  0  0  0  0  0  0  0  0  0
  -25.0170  -16.2420   20.3920 H   0  0  0  0  0  0  0  0  0  0  0  0
  -26.5890  -16.0210   19.8120 H   0  0  0  0  0  0  0  0  0  0  0  0
  -28.7040  -23.4580   19.3060 C   0  0  0  0  0  3  0  0  0  0  0  0
  -27.9070  -24.8670   19.9020 C   0  0  0  0  0  3  0  0  0  0  0  0
  -28.1140  -26.4110   19.6000 O   0  0  0  0  0  0  0  0  0  0  0  0
  -24.5940  -31.9440   23.0990 C   0  0  0  0  0  0  0  0  0  0  0  0
  -27.0540  -27.4030   19.6900 C   0  0  0  0  0  0  0  0  0  0  0  0
  -23.3300  -30.6350   21.4400 C   0  0  0  0  0  3  0  0  0  0  0  0
  -24.7200  -29.1540   19.8600 C   0  0  0  0  0  0  0  0  0  0  0  0
  -25.8730  -30.9260   21.1730 C   0  0  0  0  0  2  0  0  0  0  0  0
  -25.9270  -29.5690   20.4390 C   0  0  0  0  0  0  0  0  0  0  0  0
  -27.0940  -28.7130   20.3320 C   0  0  0  0  0  3  0  0  0  0  0  0
  -25.8200  -27.1070   19.0730 C   0  0  0  0  0  3  0  0  0  0  0  0
  -24.6810  -27.9390   19.1590 C   0  0  0  0  0  3  0  0  0  0  0  0
  -23.4930  -30.0420   20.0150 C   0  0  0  0  0  2  0  0  0  0  0  0
  -24.6220  -31.1890   21.9590 N   0  0  0  0  0  0  0  0  0  0  0  0
  -23.5310  -32.1860   23.6930 O   0  0  0  0  0  0  0  0  0  0  0  0
  -22.7030  -29.5670   22.3720 C   0  0  0  0  0  0  0  0  0  0  0  0
  -21.3740  -29.3780   22.2870 N   0  0  0  0  0  0  0  0  0  0  0  0
  -23.4160  -28.9140   23.1390 O   0  0  0  0  0  0  0  0  0  0  0  0
  -20.8520  -29.9580   21.6440 H   0  0  0  0  0  0  0  0  0  0  0  0
  -18.0410  -28.0640   22.8310 C   0  0  0  0  0  0  0  0  0  0  0  0
  -20.5990  -28.3870   23.0390 C   0  0  0  0  0  3  0  0  0  0  0  0
  -20.7230  -26.9830   22.4000 C   0  0  0  0  0  2  0  0  0  0  0  0
  -19.6010  -26.6740   21.4030 C   0  0  0  0  0  2  0  0  0  0  0  0
  -18.2340  -26.7520   22.0900 C   0  0  0  0  0  2  0  0  0  0  0  0
  -19.1510  -28.8380   23.2630 C   0  0  0  0  0  0  0  0  0  0  0  0
  -18.9140  -30.0640   23.9220 C   0  0  0  0  0  3  0  0  0  0  0  0
  -17.6010  -30.5180   24.1490 C   0  0  0  0  0  3  0  0  0  0  0  0
  -16.5070  -29.7410   23.7310 C   0  0  0  0  0  3  0  0  0  0  0  0
  -16.7280  -28.5150   23.0790 C   0  0  0  0  0  3  0  0  0  0  0  0
  -25.8930  -32.5590   23.7040 C   0  0  0  0  0  3  0  0  0  0  0  0
  -26.4610  -31.7300   24.9210 C   0  0  1  0  0  0  0  0  0  0  0  0
  -25.4120  -31.4360   26.0190 C   0  0  0  0  0  1  0  0  0  0  0  0
  -27.0340  -30.3740   24.4480 C   0  0  0  0  0  1  0  0  0  0  0  0
  -27.6360  -32.4970   25.5740 C   0  0  0  0  0  1  0  0  0  0  0  0
  -25.5890  -33.9360   24.1220 N   0  0  0  0  0  0  0  0  0  0  0  0
  -25.8880  -35.0340   23.4150 C   0  0  0  0  0  0  0  0  0  0  0  0
  -26.5160  -34.9930   22.3530 O   0  0  0  0  0  0  0  0  0  0  0  0
  -25.0270  -34.0430   24.9540 H   0  0  0  0  0  0  0  0  0  0  0  0
  -24.1480  -36.8440   23.2320 C   0  0  0  0  0  1  0  0  0  0  0  0
  -25.4190  -36.3940   23.9710 C   0  0  0  0  0  3  0  0  0  0  0  0
  -27.5770  -37.2420   24.7800 C   0  0  0  0  0  1  0  0  0  0  0  0
  -26.4450  -37.4540   23.8810 N   0  0  0  0  0  0  0  0  0  0  0  0
  -26.0430  -38.3650   24.0880 H   0  0  0  0  0  0  0  0  0  0  0  0
  2  4  1  0
  2  1  1  0
  3  1  1  0
  4  5  1  0
  4 11  1  0
  5  3  1  0
  5  6  1  1
  7  8  1  0
  9  7  2  0
 10  8  2  0
 11 12  2  0
 11  9  1  0
 12 10  1  0
 13 19  1  0
 13 21  1  0
 14 19  1  0
 15 16  1  0
 15 14  1  0
 17 16  1  0
 17 26  1  0
 17 18  1  0
 19 18  1  0
 20 13  2  0
 21 12  1  0
 22 21  1  0
 23 24  2  0
 24 43  1  0
 25 24  1  0
 25 28  1  0
 26 27  1  0
 26 23  1  0
 27 25  2  0
 28 29  1  0
 29 30  2  0
 31 34  1  0
 31 30  1  0
 32 31  2  0
 33 32  1  0
 33 28  2  0
 34 35  1  0
 35 40  2  0
 35 36  1  0
 36 37  2  0
 37 38  1  0
 38 42  1  0
 39 38  2  0
 40 39  1  0
 41 40  1  0
 43 44  1  0
 44 47  1  0
 44 46  1  0
 45 43  2  0
 48 23  1  0
 48 49  1  0
 50 48  1  0
 51 52  2  0
 51  5  1  0
 53 55  1  0
 53 52  1  0
 54 65  2  0
 55 60  1  0
 56 64  1  0
 56 66  1  0
 57 63  1  0
 57 59  1  0
 58 64  1  0
 59 58  1  0
 60 59  2  0
 61 62  1  0
 61 55  2  0
 62 57  2  0
 63 56  1  0
 64 54  1  0
 66 68  2  0
 67 66  1  0
 69 67  1  0
 70 79  2  0
 70 75  1  0
 71 67  1  0
 71 75  1  0
 72 71  1  0
 73 74  1  0
 73 72  1  0
 74 70  1  0
 75 76  2  0
 76 77  1  0
 78 77  2  0
 79 78  1  0
 80 54  1  0
 80 85  1  0
 80 81  1  0
 81 84  1  1
 81 82  1  0
 83 81  1  0
 85 88  1  0
 86 90  1  0
 86 85  1  0
 87 86  2  0
 90 89  1  0
 92 90  1  0
 92 93  1  0
 92 91  1  0
M  ISO  4  13 100  21 100  52 101  53 101
M  END
>  <TORSDO>  (20) 
F 19

>  <SCORE>  (20) 
-13.135

>  <name>  (20) 
19

>  <ligand_id>  (20) 
19

>  <original_smiles>  (20) 
[H]c1c([H])c([H])c(C2([H])C([H])([H])C([H])([H])C([H])([H])[N+]2([H])C([H])([H])C([H])([H])Oc2c([H])c([H])c3c(c2[H])C([H])([H])N(C(=O)C([H])(N([H])C(=O)C([H])(N([H])C([H])([H])[H])C([H])([H])[H])C(C([H])([H])[H])(C([H])([H])[H])C([H])([H])[H])C([H])(C(=O)N([H])C2([H])c4c([H])c([H])c([H])c([H])c4C([H])([H])C([H])([H])C2([H])[H])C3([H])[H])c(N([H])C(=O)N2C([H])([H])C([H])([H])C([H])([H])C([H])(n3nc(-c4c([H])c([H])c(Oc5c([H])c([H])c(F)c([H])c5F)c([H])c4[H])c(C(=O)N([H])[H])c3N([H])[H])C2([H])[H])c1[H]

>  <smiles>  (20) 
[H]c1c([H])c([H])c(C2([H])C([H])([H])C([H])([H])C([H])([H])[N+]2([H])C([H])([H])C([H])([H])Oc2c([H])c([H])c3c(c2[H])C([H])([H])N(C(=O)C([H])(N([H])C(=O)C([H])(N([H])C([H])([H])[H])C([H])([H])[H])C(C([H])([H])[H])(C([H])([H])[H])C([H])([H])[H])C([H])(C(=O)N([H])C2([H])c4c([H])c([H])c([H])c([H])c4C([H])([H])C([H])([H])C2([H])[H])C3([H])[H])c(N([H])C(=O)N2C([H])([H])C([H])([H])C([H])([H])C([H])(n3nc(-c4c([H])c([H])c(Oc5c([H])c([H])c(F)c([H])c5F)c([H])c4[H])c(C(=O)N([H])[H])c3N([H])[H])C2([H])[H])c1[H]

$$$$
20:0:0
     RDKit          3D

113122  0  0  1  0  0  0  0  0999 V2000
  -25.9730  -19.8830   18.0520 C   0  0  0  0  0  2  0  0  0  0  0  0
  -24.5850  -20.4960   17.9270 C   0  0  0  0  0  2  0  0  0  0  0  0
  -25.1090  -22.2040   16.2290 C   0  0  0  0  0  2  0  0  0  0  0  0
  -27.1780  -20.8010   17.6980 C   0  0  0  0  0  3  0  0  0  0  0  0
  -26.5660  -22.3410   16.7920 C   0  0  0  0  0  3  0  0  0  0  0  0
  -24.3900  -20.9650   16.5490 N   0  0  0  0  0  4  0  0  0  0  0  0
  -23.4110  -21.1470   16.4060 H   0  0  0  0  0  0  0  0  0  0  0  0
  -24.6450  -20.2450   15.8930 H   0  0  0  0  0  0  0  0  0  0  0  0
  -28.3600  -19.5250   17.3580 C   0  0  0  0  0  0  0  0  0  0  0  0
  -31.1190  -17.5030   20.1890 C   0  0  0  0  0  3  0  0  0  0  0  0
  -31.6560  -16.9010   18.0340 C   0  0  0  0  0  2  0  0  0  0  0  0
  -29.9540  -18.6070   19.5680 C   0  0  0  0  0  3  0  0  0  0  0  0
  -30.1970  -17.5350   17.4900 C   0  0  0  0  0  2  0  0  0  0  0  0
  -31.8450  -16.2020   19.4870 C   0  0  0  0  0  3  0  0  0  0  0  0
  -29.4040  -18.7160   18.1150 N   0  0  0  0  0  0  0  0  0  0  0  0
  -28.2560  -19.1780   16.1780 O   0  0  0  0  0  0  0  0  0  0  0  0
  -33.2170  -15.3740   20.0490 O   0  0  0  0  0  0  0  0  0  0  0  0
  -33.3410   -7.7980   20.7550 C   0  0  0  0  0  0  0  0  0  0  0  0
  -33.1830  -14.0920   20.7890 C   0  0  0  0  0  0  0  0  0  0  0  0
  -31.6610   -9.2120   21.8370 C   0  0  0  0  0  3  0  0  0  0  0  0
  -32.2210  -11.6970   22.1310 C   0  0  0  0  0  0  0  0  0  0  0  0
  -34.0320  -10.1570   21.4360 C   0  0  0  0  0  2  0  0  0  0  0  0
  -33.4280  -11.5970   21.4230 C   0  0  0  0  0  0  0  0  0  0  0  0
  -33.9250  -12.8010   20.7390 C   0  0  0  0  0  3  0  0  0  0  0  0
  -32.1440  -14.0890   21.7120 C   0  0  0  0  0  3  0  0  0  0  0  0
  -31.6140  -12.9400   22.2910 C   0  0  0  0  0  3  0  0  0  0  0  0
  -31.5880  -10.4610   22.7430 C   0  0  0  0  0  2  0  0  0  0  0  0
  -33.0460   -9.0220   21.3040 N   0  0  0  0  0  0  0  0  0  0  0  0
  -32.4950   -6.8950   20.6840 O   0  0  0  0  0  0  0  0  0  0  0  0
  -30.5900   -9.2940   20.7180 C   0  0  0  0  0  0  0  0  0  0  0  0
  -29.3130   -9.4880   21.0920 N   0  0  0  0  0  0  0  0  0  0  0  0
  -30.9210   -9.1850   19.5340 O   0  0  0  0  0  0  0  0  0  0  0  0
  -29.1060   -9.5430   22.0810 H   0  0  0  0  0  0  0  0  0  0  0  0
  -25.7700  -10.2380   20.9370 C   0  0  0  0  0  0  0  0  0  0  0  0
  -28.1670   -9.6220   20.1870 C   0  0  0  0  0  3  0  0  0  0  0  0
  -28.1810  -10.9900   19.4670 C   0  0  0  0  0  2  0  0  0  0  0  0
  -27.3620  -12.0640   20.1880 C   0  0  0  0  0  2  0  0  0  0  0  0
  -25.9000  -11.6230   20.3190 C   0  0  0  0  0  2  0  0  0  0  0  0
  -26.8400   -9.3050   20.8880 C   0  0  0  0  0  0  0  0  0  0  0  0
  -26.6800   -8.0450   21.5020 C   0  0  0  0  0  3  0  0  0  0  0  0
  -25.4810   -7.7110   22.1580 C   0  0  0  0  0  3  0  0  0  0  0  0
  -24.4200   -8.6310   22.1930 C   0  0  0  0  0  3  0  0  0  0  0  0
  -24.5610   -9.8890   21.5770 C   0  0  0  0  0  3  0  0  0  0  0  0
  -34.7640   -7.4710   20.2160 C   0  0  0  0  0  3  0  0  0  0  0  0
  -34.9830   -6.0220   20.3810 N   0  0  0  0  0  0  0  0  0  0  0  0
  -35.7640   -5.4590   21.3130 C   0  0  0  0  0  0  0  0  0  0  0  0
  -36.4420   -6.1210   22.1010 O   0  0  0  0  0  0  0  0  0  0  0  0
  -34.4230   -5.4150   19.8010 H   0  0  0  0  0  0  0  0  0  0  0  0
  -34.9060   -3.4210   22.5240 C   0  0  0  0  0  1  0  0  0  0  0  0
  -35.8030   -3.9170   21.3790 C   0  0  0  0  0  3  0  0  0  0  0  0
  -38.0070   -3.5470   20.3620 C   0  0  0  0  0  1  0  0  0  0  0  0
  -37.1670   -3.3690   21.5440 N   0  0  0  0  0  0  0  0  0  0  0  0
  -37.1340   -2.3760   21.7600 H   0  0  0  0  0  0  0  0  0  0  0  0
  -34.9600   -7.8750   18.7010 C   0  0  1  0  0  0  0  0  0  0  0  0
  -33.8330   -7.3620   17.7750 C   0  0  0  0  0  1  0  0  0  0  0  0
  -35.0420   -9.4100   18.5340 C   0  0  0  0  0  1  0  0  0  0  0  0
  -36.2990   -7.3060   18.1750 C   0  0  0  0  0  1  0  0  0  0  0  0
  -26.5270  -23.9720   17.1840 N   0  0  0  0  0  0  0  0  0  0  0  0
  -25.7000  -25.4370   16.7740 C   0  0  0  0  0  2  0  0  0  0  0  0
  -25.6660  -28.8660   12.9450 C   0  0  0  0  0  1  0  0  0  0  0  0
  -23.6980  -28.0280   14.6040 C   0  0  0  0  0  1  0  0  0  0  0  0
  -27.1780  -28.7510   13.8080 C   0  0  0  0  0  2  0  0  0  0  0  0
  -24.2870  -27.4550   16.0590 C   0  0  0  0  0  2  0  0  0  0  0  0
  -27.2080  -28.2040   15.4960 C   0  0  0  0  0  3  0  0  0  0  0  0
  -25.8950  -27.2790   16.4060 C   0  0  0  0  0  3  0  0  0  0  0  0
  -28.0780  -29.4180   15.9880 C   0  0  0  0  0  1  0  0  0  0  0  0
  -26.8990  -23.8910   18.5950 C   0  0  0  0  0  2  0  0  0  0  0  0
  -31.3130  -25.0340   18.5780 C   0  0  0  0  0  2  0  0  0  0  0  0
  -30.5100  -24.4120   17.4080 C   0  0  0  0  0  2  0  0  0  0  0  0
  -28.5840  -25.3390   19.9520 C   0  0  0  0  0  3  0  0  0  0  0  0
  -30.1220  -25.7060   20.1730 C   0  0  0  0  0  2  0  0  0  0  0  0
  -28.1670  -24.6230   18.6570 C   0  0  0  0  0  3  0  0  0  0  0  0
  -29.0100  -24.3480   17.4300 C   0  0  0  0  0  3  0  0  0  0  0  0
  -28.2260  -24.3880   15.8730 Cl  0  0  0  0  0  0  0  0  0  0  0  0
  -30.2060  -26.4210   21.5200 C   0  0  0  0  0  2  0  0  0  0  0  0
  -29.4000  -24.4380   21.9270 C   0  0  0  0  0  0  0  0  0  0  0  0
  -29.2040  -24.5320   19.5110 C   0  0  0  0  0  3  0  0  0  0  0  0
  -29.7420  -25.9560   18.4660 C   0  0  0  0  0  3  0  0  0  0  0  0
  -29.0700  -27.6400   18.5720 C   0  0  0  0  0  1  0  0  0  0  0  0
  -26.9710  -27.3390   21.1940 C   0  0  0  0  0  2  0  0  0  0  0  0
  -27.1190  -25.5270   21.6190 C   0  0  0  0  0  2  0  0  0  0  0  0
  -28.4050  -24.5820   21.0220 N   0  0  0  0  0  0  0  0  0  0  0  0
  -30.4020  -23.7440   21.7950 O   0  0  0  0  0  0  0  0  0  0  0  0
  -29.6610  -25.5660   22.5350 N   0  0  0  0  0  0  0  0  0  0  0  0
  -30.2730  -25.4990   23.3340 H   0  0  0  0  0  0  0  0  0  0  0  0
  -25.3300  -28.8000   22.5930 C   0  0  0  0  0  3  0  0  0  0  0  0
  -23.9680  -28.9430   22.5220 C   0  0  0  0  0  3  0  0  0  0  0  0
  -23.5750  -27.8260   21.8330 C   0  0  0  0  0  3  0  0  0  0  0  0
  -25.6690  -27.7590   21.7580 N   0  0  0  0  0  0  0  0  0  0  0  0
  -24.6230  -26.9940   22.0400 N   0  0  0  0  0  2  0  0  0  0  0  0
  -22.3730  -27.6270   20.9150 C   0  0  0  0  0  3  0  0  0  0  0  0
  -21.8800  -26.0030   19.0090 C   0  0  0  0  0  1  0  0  0  0  0  0
  -20.2160  -25.7540   18.8370 C   0  0  0  0  0  3  0  0  0  0  0  0
  -19.1340  -26.6190   19.7100 C   0  0  0  0  0  0  0  0  0  0  0  0
  -19.4130  -27.7400   20.8860 C   0  0  0  0  0  2  0  0  0  0  0  0
  -20.8830  -28.2450   21.5030 C   0  0  0  0  0  3  0  0  0  0  0  0
  -17.8740  -26.4700   19.3330 O   0  0  0  0  0  0  0  0  0  0  0  0
  -17.2020  -25.5060   19.9840 C   0  0  0  0  0  0  0  0  0  0  0  0
  -16.8360  -25.6560   21.3350 C   0  0  0  0  0  3  0  0  0  0  0  0
  -15.9420  -24.7390   21.9050 C   0  0  0  0  0  3  0  0  0  0  0  0
  -15.4300  -23.6910   21.1180 C   0  0  0  0  0  0  0  0  0  0  0  0
  -15.8520  -23.5150   19.7890 C   0  0  0  0  0  3  0  0  0  0  0  0
  -16.7610  -24.4220   19.2230 C   0  0  0  0  0  0  0  0  0  0  0  0
  -17.1760  -24.2860   17.9400 F   0  0  0  0  0  0  0  0  0  0  0  0
  -14.5150  -22.8450   21.6430 F   0  0  0  0  0  0  0  0  0  0  0  0
  -23.1250  -30.1040   22.8420 C   0  0  0  0  0  0  0  0  0  0  0  0
  -22.0520  -29.8910   23.5750 N   0  0  0  0  0  0  0  0  0  0  0  0
  -23.4410  -31.2310   22.5250 O   0  0  0  0  0  0  0  0  0  0  0  0
  -21.8520  -28.9740   23.9360 H   0  0  0  0  0  0  0  0  0  0  0  0
  -21.4970  -30.6750   23.8840 H   0  0  0  0  0  0  0  0  0  0  0  0
  -26.3260  -29.4780   23.2550 N   0  0  0  0  0  0  0  0  0  0  0  0
  -26.1710  -30.2710   23.8670 H   0  0  0  0  0  0  0  0  0  0  0  0
  -27.3020  -29.2520   23.1320 H   0  0  0  0  0  0  0  0  0  0  0  0
  2  1  1  0
  3  6  1  0
  3  5  1  0
  4  9  1  0
  4  1  1  0
  5 58  1  0
  5  4  1  0
  6  2  1  0
  7  6  1  0
  8  6  1  0
  9 15  1  0
 11 14  1  0
 12 10  2  0
 13 11  1  0
 13 15  1  0
 14 17  1  0
 14 10  1  0
 15 12  1  0
 16  9  2  0
 17 19  1  0
 18 28  1  0
 19 25  1  0
 20 30  1  0
 20 27  1  0
 21 26  1  0
 21 27  1  0
 23 22  1  0
 23 21  2  0
 24 19  2  0
 24 23  1  0
 25 26  2  0
 28 22  1  0
 28 20  1  0
 29 18  2  0
 30 31  1  0
 31 33  1  0
 32 30  2  0
 34 43  1  0
 35 39  1  0
 35 31  1  0
 36 35  1  0
 36 37  1  0
 37 38  1  0
 38 34  1  0
 39 34  2  0
 39 40  1  0
 40 41  2  0
 41 42  1  0
 43 42  2  0
 44 45  1  0
 44 18  1  0
 45 46  1  0
 46 50  1  0
 46 47  2  0
 48 45  1  0
 50 52  1  0
 50 49  1  0
 51 52  1  0
 52 53  1  0
 54 44  1  0
 54 55  1  6
 56 54  1  0
 57 54  1  0
 58 67  1  0
 59 58  1  0
 60 62  1  0
 61 63  1  0
 62 64  1  0
 64 66  1  0
 64 65  1  0
 65 63  1  0
 65 59  1  0
 69 73  1  0
 69 68  1  0
 70 71  1  0
 70 82  1  0
 71 75  1  0
 72 67  1  0
 72 77  1  0
 73 74  1  0
 73 72  1  0
 75 84  1  0
 76 84  1  0
 77 70  1  0
 78 79  1  0
 78 68  1  0
 78 77  1  0
 80 81  1  0
 80 89  1  0
 82 81  1  0
 82 76  1  0
 83 76  2  0
 84 85  1  0
 86111  1  0
 87 86  1  0
 87106  1  0
 88 91  1  0
 88 90  1  0
 88 87  1  0
 89 90  1  0
 89 86  1  0
 91 96  2  0
 93 92  1  0
 93 94  2  0
 94 95  1  0
 95 96  1  0
 97 94  1  0
 97 98  1  0
 98 99  1  0
 99100  2  0
101105  1  0
101100  1  0
102101  2  0
103102  1  0
103 98  2  0
104103  1  0
106107  1  0
107110  1  0
107109  1  0
108106  2  0
111112  1  0
113111  1  0
M  ISO  4  14 101  17 101  76 100  84 100
M  END
>  <TORSDO>  (21) 
F 23

>  <SCORE>  (21) 
-2.246

>  <name>  (21) 
20

>  <ligand_id>  (21) 
20

>  <original_smiles>  (21) 
[H]c1c([H])c([H])c(C([H])([H])N(C([H])([H])c2c([H])c(C([H])([H])N([H])C(=O)N3C([H])([H])C([H])([H])C([H])([H])C([H])(n4nc(-c5c([H])c([H])c(Oc6c([H])c([H])c(F)c([H])c6F)c([H])c5[H])c(C(=O)N([H])[H])c4N([H])[H])C3([H])[H])c([H])c([H])c2Cl)C2([H])C([H])(C(=O)N3C([H])([H])C([H])([H])C([H])(Oc4c([H])c([H])c5c(c4[H])C([H])([H])N(C(=O)C([H])(N([H])C(=O)C([H])(N([H])C([H])([H])[H])C([H])([H])[H])C(C([H])([H])[H])(C([H])([H])[H])C([H])([H])[H])C([H])(C(=O)N([H])C4([H])c6c([H])c([H])c([H])c([H])c6C([H])([H])C([H])([H])C4([H])[H])C5([H])[H])C([H])([H])C3([H])[H])C([H])([H])C([H])([H])[N+]([H])([H])C2([H])[H])c(C([H])([H])[H])c1[H]

>  <smiles>  (21) 
[H]c1c([H])c([H])c(C([H])([H])N(C([H])([H])c2c([H])c(C([H])([H])N([H])C(=O)N3C([H])([H])C([H])([H])C([H])([H])C([H])(n4nc(-c5c([H])c([H])c(Oc6c([H])c([H])c(F)c([H])c6F)c([H])c5[H])c(C(=O)N([H])[H])c4N([H])[H])C3([H])[H])c([H])c([H])c2Cl)C2([H])C([H])(C(=O)N3C([H])([H])C([H])([H])C([H])(Oc4c([H])c([H])c5c(c4[H])C([H])([H])N(C(=O)C([H])(N([H])C(=O)C([H])(N([H])C([H])([H])[H])C([H])([H])[H])C(C([H])([H])[H])(C([H])([H])[H])C([H])([H])[H])C([H])(C(=O)N([H])C4([H])c6c([H])c([H])c([H])c([H])c6C([H])([H])C([H])([H])C4([H])[H])C5([H])[H])C([H])([H])C3([H])[H])C([H])([H])C([H])([H])[N+]([H])([H])C2([H])[H])c(C([H])([H])[H])c1[H]

$$$$
21:0:0
     RDKit          3D

110120  0  0  1  0  0  0  0  0999 V2000
  -34.3740  -18.6990   17.8480 C   0  0  0  0  0  3  0  0  0  0  0  0
  -35.1330  -17.9200   16.9600 C   0  0  0  0  0  3  0  0  0  0  0  0
  -34.2230  -16.8010   19.3610 C   0  0  0  0  0  3  0  0  0  0  0  0
  -33.8810  -18.1270   19.0320 C   0  0  0  0  0  0  0  0  0  0  0  0
  -35.4220  -16.5660   17.2360 C   0  0  0  0  0  0  0  0  0  0  0  0
  -35.0070  -16.0130   18.4930 C   0  0  0  0  0  0  0  0  0  0  0  0
  -36.0040  -15.7800   16.0470 C   0  0  0  0  0  2  0  0  0  0  0  0
  -38.5180  -12.8960   16.0020 C   0  0  0  0  0  3  0  0  0  0  0  0
  -41.0010  -15.5850   16.6910 C   0  0  0  0  0  3  0  0  0  0  0  0
  -37.3190  -13.6340   15.9710 C   0  0  0  0  0  3  0  0  0  0  0  0
  -42.2000  -14.8360   16.7350 C   0  0  0  0  0  3  0  0  0  0  0  0
  -38.5660  -15.6940   16.3620 C   0  0  0  0  0  3  0  0  0  0  0  0
  -40.9440  -12.8010   16.2770 C   0  0  0  0  0  3  0  0  0  0  0  0
  -39.7700  -14.9510   16.4210 C   0  0  0  0  0  0  0  0  0  0  0  0
  -39.7460  -13.5470   16.2230 C   0  0  0  0  0  0  0  0  0  0  0  0
  -37.3320  -15.0320   16.1470 C   0  0  0  0  0  0  0  0  0  0  0  0
  -42.1750  -13.4400   16.5230 C   0  0  0  0  0  0  0  0  0  0  0  0
  -43.3530  -12.6900   16.5520 N   0  0  0  0  0  0  0  0  0  0  0  0
  -44.2610  -13.1480   16.5400 H   0  0  0  0  0  0  0  0  0  0  0  0
  -43.3770  -11.7530   16.1510 H   0  0  0  0  0  0  0  0  0  0  0  0
  -35.3530  -14.5890   18.9210 C   0  0  0  0  0  2  0  0  0  0  0  0
  -35.4670  -13.3500   21.0180 C   0  0  0  0  0  0  0  0  0  0  0  0
  -35.8040  -11.2300   19.9410 C   0  0  0  0  0  2  0  0  0  0  0  0
  -34.9290  -11.2010   18.6690 C   0  0  0  0  0  2  0  0  0  0  0  0
  -33.4880  -10.7650   18.9620 C   0  0  0  0  0  2  0  0  0  0  0  0
  -32.8690  -11.4130   20.2310 C   0  0  0  0  0  3  0  0  0  0  0  0
  -33.8650  -11.4370   21.4100 C   0  0  0  0  0  2  0  0  0  0  0  0
  -35.1250  -12.0440   20.9560 N   0  0  0  0  0  0  0  0  0  0  0  0
  -36.6010  -13.7610   21.2400 O   0  0  0  0  0  0  0  0  0  0  0  0
  -34.7260  -14.0550   20.1500 N   0  0  0  0  0  0  0  0  0  0  0  0
  -33.8020  -13.6790   19.9990 H   0  0  0  0  0  0  0  0  0  0  0  0
  -30.3190  -11.1980   20.4250 C   0  0  0  0  0  0  0  0  0  0  0  0
  -29.5190  -10.1590   20.8090 C   0  0  0  0  0  0  0  0  0  0  0  0
  -30.3990   -9.1000   21.1950 C   0  0  0  0  0  0  0  0  0  0  0  0
  -31.6190  -10.7540   20.5860 N   0  0  0  0  0  0  0  0  0  0  0  0
  -31.6580   -9.5010   21.1100 N   0  0  0  0  0  0  0  0  0  0  0  0
  -30.1230   -7.7100   21.5750 C   0  0  0  0  0  0  0  0  0  0  0  0
  -30.7950   -7.0980   22.6580 C   0  0  0  0  0  3  0  0  0  0  0  0
  -30.5000   -5.7640   23.0180 C   0  0  0  0  0  3  0  0  0  0  0  0
  -29.5240   -5.0350   22.2960 C   0  0  0  0  0  0  0  0  0  0  0  0
  -28.8720   -5.6450   21.2100 C   0  0  0  0  0  3  0  0  0  0  0  0
  -29.1730   -6.9670   20.8480 C   0  0  0  0  0  3  0  0  0  0  0  0
  -29.1850   -3.7300   22.5650 O   0  0  0  0  0  0  0  0  0  0  0  0
  -29.3430   -3.1880   23.8150 C   0  0  0  0  0  0  0  0  0  0  0  0
  -28.4770   -3.5080   24.8830 C   0  0  0  0  0  3  0  0  0  0  0  0
  -28.6380   -2.8780   26.1320 C   0  0  0  0  0  3  0  0  0  0  0  0
  -29.6530   -1.9190   26.3120 C   0  0  0  0  0  0  0  0  0  0  0  0
  -30.5150   -1.5960   25.2490 C   0  0  0  0  0  3  0  0  0  0  0  0
  -30.3590   -2.2290   24.0020 C   0  0  0  0  0  0  0  0  0  0  0  0
  -31.1770   -1.8980   22.9730 F   0  0  0  0  0  0  0  0  0  0  0  0
  -29.8020   -1.3070   27.5100 F   0  0  0  0  0  0  0  0  0  0  0  0
  -28.0190  -10.1120   20.7400 C   0  0  0  0  0  0  0  0  0  0  0  0
  -27.3830   -9.3890   21.6560 N   0  0  0  0  0  0  0  0  0  0  0  0
  -27.3960  -10.7610   19.8990 O   0  0  0  0  0  0  0  0  0  0  0  0
  -27.8930   -8.8840   22.3660 H   0  0  0  0  0  0  0  0  0  0  0  0
  -26.3740   -9.3560   21.6610 H   0  0  0  0  0  0  0  0  0  0  0  0
  -30.0570  -12.4760   19.9370 N   0  0  0  0  0  0  0  0  0  0  0  0
  -29.1200  -12.8010   19.7320 H   0  0  0  0  0  0  0  0  0  0  0  0
  -30.7700  -13.1510   19.6990 H   0  0  0  0  0  0  0  0  0  0  0  0
  -32.9310  -18.9290   19.8960 C   0  0  0  0  0  2  0  0  0  0  0  0
  -31.8580  -19.4790   19.0470 N   0  0  0  0  0  4  0  0  0  0  0  0
  -32.0250  -19.1630   18.1040 H   0  0  0  0  0  0  0  0  0  0  0  0
  -31.9410  -20.4820   19.0520 H   0  0  0  0  0  0  0  0  0  0  0  0
  -30.4880  -19.1010   19.4390 C   0  0  0  0  0  2  0  0  0  0  0  0
  -29.4470  -19.6870   18.4610 C   0  0  0  0  0  2  0  0  0  0  0  0
  -28.3280  -20.2560   19.2100 N   0  0  0  0  0  0  0  0  0  0  0  0
  -28.6860  -20.7340   20.0340 H   0  0  0  0  0  0  0  0  0  0  0  0
  -27.5940  -21.2370   18.4190 C   0  0  0  0  0  2  0  0  0  0  0  0
  -26.9990  -22.2860   19.3690 C   0  0  0  0  0  2  0  0  0  0  0  0
  -27.3180  -23.5830   18.8920 O   0  0  0  0  0  0  0  0  0  0  0  0
  -23.7640  -28.6630   22.3190 C   0  0  0  0  0  0  0  0  0  0  0  0
  -26.3020  -24.5030   18.8310 C   0  0  0  0  0  0  0  0  0  0  0  0
  -22.8310  -28.0090   20.1180 C   0  0  0  0  0  3  0  0  0  0  0  0
  -24.3090  -26.4910   18.7020 C   0  0  0  0  0  0  0  0  0  0  0  0
  -25.3260  -27.7630   20.6010 C   0  0  0  0  0  2  0  0  0  0  0  0
  -25.3290  -26.5820   19.6580 C   0  0  0  0  0  0  0  0  0  0  0  0
  -26.3310  -25.5940   19.7200 C   0  0  0  0  0  3  0  0  0  0  0  0
  -25.2670  -24.4140   17.8760 C   0  0  0  0  0  3  0  0  0  0  0  0
  -24.2680  -25.4030   17.8110 C   0  0  0  0  0  3  0  0  0  0  0  0
  -23.2900  -27.6050   18.6890 C   0  0  0  0  0  2  0  0  0  0  0  0
  -23.9750  -28.1400   21.0770 N   0  0  0  0  0  0  0  0  0  0  0  0
  -22.6460  -29.0800   22.6550 O   0  0  0  0  0  0  0  0  0  0  0  0
  -21.7510  -27.0110   20.5870 C   0  0  0  0  0  0  0  0  0  0  0  0
  -20.4840  -27.2920   20.2360 N   0  0  0  0  0  0  0  0  0  0  0  0
  -22.0590  -25.9970   21.2210 O   0  0  0  0  0  0  0  0  0  0  0  0
  -20.3160  -28.1450   19.7190 H   0  0  0  0  0  0  0  0  0  0  0  0
  -16.8830  -27.2050   20.0310 C   0  0  0  0  0  0  0  0  0  0  0  0
  -19.3100  -26.4750   20.5330 C   0  0  0  0  0  3  0  0  0  0  0  0
  -19.1020  -25.3920   19.4490 C   0  0  0  0  0  2  0  0  0  0  0  0
  -18.1570  -25.8360   18.3270 C   0  0  0  0  0  2  0  0  0  0  0  0
  -16.7830  -26.2030   18.8940 C   0  0  0  0  0  2  0  0  0  0  0  0
  -18.0740  -27.3430   20.7900 C   0  0  0  0  0  0  0  0  0  0  0  0
  -18.1270  -28.3120   21.8150 C   0  0  0  0  0  3  0  0  0  0  0  0
  -17.0160  -29.1330   22.0860 C   0  0  0  0  0  3  0  0  0  0  0  0
  -15.8330  -28.9830   21.3410 C   0  0  0  0  0  3  0  0  0  0  0  0
  -15.7660  -28.0180   20.3210 C   0  0  0  0  0  3  0  0  0  0  0  0
  -24.9160  -28.7860   23.3640 C   0  0  0  0  0  3  0  0  0  0  0  0
  -25.0860  -30.2120   23.6700 N   0  0  0  0  0  0  0  0  0  0  0  0
  -26.0860  -30.9740   23.2070 C   0  0  0  0  0  0  0  0  0  0  0  0
  -27.0140  -30.5220   22.5290 O   0  0  0  0  0  0  0  0  0  0  0  0
  -24.3350  -30.6580   24.1770 H   0  0  0  0  0  0  0  0  0  0  0  0
  -25.5350  -33.2680   22.3380 C   0  0  0  0  0  1  0  0  0  0  0  0
  -26.0510  -32.4760   23.5500 C   0  0  0  0  0  3  0  0  0  0  0  0
  -27.7910  -32.5280   25.2810 C   0  0  0  0  0  1  0  0  0  0  0  0
  -27.3630  -33.0130   23.9720 N   0  0  0  0  0  0  0  0  0  0  0  0
  -27.3410  -34.0290   24.0020 H   0  0  0  0  0  0  0  0  0  0  0  0
  -24.6530  -27.9580   24.6810 C   0  0  1  0  0  0  0  0  0  0  0  0
  -23.2950  -28.2700   25.3490 C   0  0  0  0  0  1  0  0  0  0  0  0
  -24.7000  -26.4390   24.3900 C   0  0  0  0  0  1  0  0  0  0  0  0
  -25.7680  -28.2470   25.7130 C   0  0  0  0  0  1  0  0  0  0  0  0
  1  4  1  0
  2  5  1  0
  2  1  2  0
  4  3  2  0
  4 60  1  0
  5  6  2  0
  6 21  1  0
  6  3  1  0
  7 16  1  0
  7  5  1  0
  8 15  1  0
  9 11  1  0
 10  8  2  0
 10 16  1  0
 12 14  1  0
 13 17  1  0
 14  9  2  0
 15 13  2  0
 15 14  1  0
 16 12  2  0
 17 18  1  0
 17 11  2  0
 19 18  1  0
 20 18  1  0
 21 30  1  0
 22 29  2  0
 23 28  1  0
 24 25  1  0
 24 23  1  0
 26 25  1  0
 26 35  1  0
 26 27  1  0
 28 22  1  0
 28 27  1  0
 30 22  1  0
 31 30  1  0
 32 35  1  0
 32 33  2  0
 33 34  1  0
 34 37  1  0
 35 36  1  0
 36 34  2  0
 37 38  1  0
 38 39  2  0
 40 43  1  0
 40 39  1  0
 41 40  2  0
 42 41  1  0
 42 37  2  0
 43 44  1  0
 44 49  2  0
 44 45  1  0
 45 46  2  0
 46 47  1  0
 47 51  1  0
 48 47  2  0
 49 48  1  0
 50 49  1  0
 52 33  1  0
 52 53  1  0
 53 56  1  0
 53 55  1  0
 54 52  2  0
 57 32  1  0
 58 57  1  0
 59 57  1  0
 61 63  1  0
 61 64  1  0
 61 60  1  0
 62 61  1  0
 65 66  1  0
 65 64  1  0
 66 67  1  0
 68 66  1  0
 68 69  1  0
 70 69  1  0
 71 82  2  0
 72 70  1  0
 72 77  1  0
 73 83  1  0
 73 81  1  0
 74 76  1  0
 75 81  1  0
 76 77  2  0
 76 75  1  0
 78 72  2  0
 79 78  1  0
 79 74  2  0
 80 74  1  0
 80 73  1  0
 81 71  1  0
 83 85  2  0
 84 83  1  0
 86 84  1  0
 87 96  2  0
 87 92  1  0
 88 84  1  0
 88 92  1  0
 89 88  1  0
 90 91  1  0
 90 89  1  0
 91 87  1  0
 92 93  2  0
 93 94  1  0
 95 94  2  0
 96 95  1  0
 97 71  1  0
 97 98  1  0
 97107  1  0
 98101  1  0
 99103  1  0
 99 98  1  0
100 99  2  0
103102  1  0
103105  1  0
105106  1  0
105104  1  0
107108  1  1
107110  1  0
109107  1  0
M  ISO  4  22 100  30 100  69 101  70 101
M  END
>  <TORSDO>  (22) 
F 27

>  <SCORE>  (22) 
0.285

>  <name>  (22) 
21

>  <ligand_id>  (22) 
21

>  <original_smiles>  (22) 
[H]c1c([H])c([H])c2c(c1[H])C([H])([H])C([H])([H])C([H])([H])C2([H])N([H])C(=O)C1([H])N(C(=O)C([H])(N([H])C(=O)C([H])(N([H])C([H])([H])[H])C([H])([H])[H])C(C([H])([H])[H])(C([H])([H])[H])C([H])([H])[H])C([H])([H])c2c([H])c(OC([H])([H])C([H])([H])N([H])C([H])([H])C([H])([H])[N+]([H])([H])C([H])([H])c3c([H])c([H])c(C([H])([H])c4c([H])c([H])c5c([H])c(N([H])[H])c([H])c([H])c5c4[H])c(C([H])([H])N([H])C(=O)N4C([H])([H])C([H])([H])C([H])([H])C([H])(n5nc(-c6c([H])c([H])c(Oc7c([H])c([H])c(F)c([H])c7F)c([H])c6[H])c(C(=O)N([H])[H])c5N([H])[H])C4([H])[H])c3[H])c([H])c([H])c2C1([H])[H]

>  <smiles>  (22) 
[H]c1c([H])c([H])c2c(c1[H])C([H])([H])C([H])([H])C([H])([H])C2([H])N([H])C(=O)C1([H])N(C(=O)C([H])(N([H])C(=O)C([H])(N([H])C([H])([H])[H])C([H])([H])[H])C(C([H])([H])[H])(C([H])([H])[H])C([H])([H])[H])C([H])([H])c2c([H])c(OC([H])([H])C([H])([H])N([H])C([H])([H])C([H])([H])[N+]([H])([H])C([H])([H])c3c([H])c([H])c(C([H])([H])c4c([H])c([H])c5c([H])c(N([H])[H])c([H])c([H])c5c4[H])c(C([H])([H])N([H])C(=O)N4C([H])([H])C([H])([H])C([H])([H])C([H])(n5nc(-c6c([H])c([H])c(Oc7c([H])c([H])c(F)c([H])c7F)c([H])c6[H])c(C(=O)N([H])[H])c5N([H])[H])C4([H])[H])c3[H])c([H])c([H])c2C1([H])[H]

$$$$
22:0:0
     RDKit          3D

106114  0  0  1  0  0  0  0  0999 V2000
  -31.2920  -23.1800   26.9130 C   0  0  0  0  0  1  0  0  0  0  0  0
  -30.8950  -23.6580   25.5010 C   0  0  0  0  0  3  0  0  0  0  0  0
  -29.9880  -22.7100   24.8020 N   0  0  0  0  0  4  0  0  0  0  0  0
  -29.1060  -22.6890   25.2890 H   0  0  0  0  0  0  0  0  0  0  0  0
  -29.7990  -23.0660   23.8790 H   0  0  0  0  0  0  0  0  0  0  0  0
  -30.4420  -21.3070   24.6500 C   0  0  0  0  0  2  0  0  0  0  0  0
  -31.9570  -21.1610   24.3630 C   0  0  0  0  0  2  0  0  0  0  0  0
  -32.3060  -19.7790   23.7720 C   0  0  0  0  0  2  0  0  0  0  0  0
  -33.6800  -19.6570   23.3940 O   0  0  0  0  0  0  0  0  0  0  0  0
  -33.3420  -21.2520   21.5520 C   0  0  0  0  0  3  0  0  0  0  0  0
  -33.8230  -21.8760   20.3860 C   0  0  0  0  0  3  0  0  0  0  0  0
  -35.8400  -20.5270   20.5130 C   0  0  0  0  0  3  0  0  0  0  0  0
  -35.3580  -19.8760   21.6720 C   0  0  0  0  0  0  0  0  0  0  0  0
  -34.1040  -20.2590   22.2230 C   0  0  0  0  0  0  0  0  0  0  0  0
  -35.0870  -21.5340   19.8800 C   0  0  0  0  0  0  0  0  0  0  0  0
  -35.6990  -22.3400   18.4830 Cl  0  0  0  0  0  0  0  0  0  0  0  0
  -36.2020  -18.7680   22.3030 C   0  0  0  0  0  2  0  0  0  0  0  0
  -38.1300  -17.5130   21.3090 C   0  0  0  0  0  0  0  0  0  0  0  0
  -39.9420  -16.5830   19.9110 C   0  0  0  0  0  2  0  0  0  0  0  0
  -40.5430  -17.6910   19.0250 C   0  0  0  0  0  2  0  0  0  0  0  0
  -39.7570  -17.8060   17.7020 C   0  0  0  0  0  2  0  0  0  0  0  0
  -38.2290  -17.9320   17.9450 C   0  0  0  0  0  3  0  0  0  0  0  0
  -37.7460  -16.8270   18.9130 C   0  0  0  0  0  2  0  0  0  0  0  0
  -38.5340  -16.9150   20.1580 N   0  0  0  0  0  0  0  0  0  0  0  0
  -38.8750  -17.7070   22.2740 O   0  0  0  0  0  0  0  0  0  0  0  0
  -36.8590  -17.9260   21.3020 N   0  0  0  0  0  0  0  0  0  0  0  0
  -36.3180  -17.6810   20.4870 H   0  0  0  0  0  0  0  0  0  0  0  0
  -36.5280  -18.7920   16.2070 C   0  0  0  0  0  0  0  0  0  0  0  0
  -36.1990  -18.3510   14.9550 C   0  0  0  0  0  0  0  0  0  0  0  0
  -37.0010  -17.1920   14.7240 C   0  0  0  0  0  0  0  0  0  0  0  0
  -37.4860  -17.9090   16.6860 N   0  0  0  0  0  0  0  0  0  0  0  0
  -37.7280  -16.9120   15.7980 N   0  0  0  0  0  0  0  0  0  0  0  0
  -37.1620  -16.3660   13.5230 C   0  0  0  0  0  0  0  0  0  0  0  0
  -37.0260  -14.9610   13.5710 C   0  0  0  0  0  3  0  0  0  0  0  0
  -37.1690  -14.1870   12.3980 C   0  0  0  0  0  3  0  0  0  0  0  0
  -37.4450  -14.8190   11.1620 C   0  0  0  0  0  0  0  0  0  0  0  0
  -37.6030  -16.2160   11.1240 C   0  0  0  0  0  3  0  0  0  0  0  0
  -37.4660  -16.9830   12.2930 C   0  0  0  0  0  3  0  0  0  0  0  0
  -37.6260  -14.1450    9.9770 O   0  0  0  0  0  0  0  0  0  0  0  0
  -37.0550  -12.9160    9.7530 C   0  0  0  0  0  0  0  0  0  0  0  0
  -35.6620  -12.7140    9.8590 C   0  0  0  0  0  3  0  0  0  0  0  0
  -35.1080  -11.4530    9.5510 C   0  0  0  0  0  3  0  0  0  0  0  0
  -35.9440  -10.4020    9.1290 C   0  0  0  0  0  0  0  0  0  0  0  0
  -37.3310  -10.6040    9.0190 C   0  0  0  0  0  3  0  0  0  0  0  0
  -37.8830  -11.8600    9.3250 C   0  0  0  0  0  0  0  0  0  0  0  0
  -39.2180  -12.0570    9.1940 F   0  0  0  0  0  0  0  0  0  0  0  0
  -35.4130   -9.1950    8.8260 F   0  0  0  0  0  0  0  0  0  0  0  0
  -35.2650  -19.0150   13.9850 C   0  0  0  0  0  0  0  0  0  0  0  0
  -34.6060  -18.2360   13.1330 N   0  0  0  0  0  0  0  0  0  0  0  0
  -35.0790  -20.2310   14.0110 O   0  0  0  0  0  0  0  0  0  0  0  0
  -34.7440  -17.2360   13.1240 H   0  0  0  0  0  0  0  0  0  0  0  0
  -33.9530  -18.6450   12.4790 H   0  0  0  0  0  0  0  0  0  0  0  0
  -36.1080  -19.8760   16.9690 N   0  0  0  0  0  0  0  0  0  0  0  0
  -35.4710  -20.5720   16.6020 H   0  0  0  0  0  0  0  0  0  0  0  0
  -36.4700  -20.1210   17.8790 H   0  0  0  0  0  0  0  0  0  0  0  0
  -30.2470  -25.0560   25.6230 C   0  0  0  0  0  2  0  0  0  0  0  0
  -29.6920  -25.6840   24.3320 C   0  0  0  0  0  2  0  0  0  0  0  0
  -30.7360  -25.8530   23.2160 C   0  0  0  0  0  2  0  0  0  0  0  0
  -30.2180  -26.7570   22.0870 C   0  0  0  0  0  2  0  0  0  0  0  0
  -30.9830  -26.5970   20.7580 C   0  0  0  0  0  2  0  0  0  0  0  0
  -29.7560  -24.7400   19.5010 C   0  0  0  0  0  0  0  0  0  0  0  0
  -30.8010  -25.2780   20.1530 N   0  0  0  0  0  0  0  0  0  0  0  0
  -29.8840  -23.6070   19.0360 O   0  0  0  0  0  0  0  0  0  0  0  0
  -31.6150  -24.6810   20.2000 H   0  0  0  0  0  0  0  0  0  0  0  0
  -28.3910  -25.4420   19.3090 C   0  0  0  0  0  2  0  0  0  0  0  0
  -28.3470  -26.7700   19.8250 O   0  0  0  0  0  0  0  0  0  0  0  0
  -24.4380  -31.6430   23.2290 C   0  0  0  0  0  0  0  0  0  0  0  0
  -27.1320  -27.4160   19.8900 C   0  0  0  0  0  0  0  0  0  0  0  0
  -23.2410  -30.3000   21.5350 C   0  0  0  0  0  3  0  0  0  0  0  0
  -24.7040  -28.8530   20.0290 C   0  0  0  0  0  0  0  0  0  0  0  0
  -25.7580  -30.7070   21.3350 C   0  0  0  0  0  2  0  0  0  0  0  0
  -25.8580  -29.3720   20.6290 C   0  0  0  0  0  0  0  0  0  0  0  0
  -27.0730  -28.6580   20.5600 C   0  0  0  0  0  3  0  0  0  0  0  0
  -25.9520  -26.8980   19.3050 C   0  0  0  0  0  3  0  0  0  0  0  0
  -24.7420  -27.6110   19.3740 C   0  0  0  0  0  3  0  0  0  0  0  0
  -23.4490  -29.6920   20.1240 C   0  0  0  0  0  2  0  0  0  0  0  0
  -24.4980  -30.8940   22.0930 N   0  0  0  0  0  0  0  0  0  0  0  0
  -23.3580  -31.8780   23.7860 O   0  0  0  0  0  0  0  0  0  0  0  0
  -22.6160  -29.2210   22.4480 C   0  0  0  0  0  0  0  0  0  0  0  0
  -21.2990  -29.0020   22.2950 N   0  0  0  0  0  0  0  0  0  0  0  0
  -23.3090  -28.5890   23.2470 O   0  0  0  0  0  0  0  0  0  0  0  0
  -20.8050  -29.5600   21.6180 H   0  0  0  0  0  0  0  0  0  0  0  0
  -17.9710  -27.6410   22.6410 C   0  0  0  0  0  0  0  0  0  0  0  0
  -20.5000  -28.0120   23.0170 C   0  0  0  0  0  3  0  0  0  0  0  0
  -20.6940  -26.6010   22.4200 C   0  0  0  0  0  2  0  0  0  0  0  0
  -19.6460  -26.2450   21.3590 C   0  0  0  0  0  2  0  0  0  0  0  0
  -18.2360  -26.3120   21.9530 C   0  0  0  0  0  2  0  0  0  0  0  0
  -19.0330  -28.4470   23.1260 C   0  0  0  0  0  0  0  0  0  0  0  0
  -18.7360  -29.6900   23.7240 C   0  0  0  0  0  3  0  0  0  0  0  0
  -17.4040  -30.1280   23.8490 C   0  0  0  0  0  3  0  0  0  0  0  0
  -16.3530  -29.3170   23.3840 C   0  0  0  0  0  3  0  0  0  0  0  0
  -16.6370  -28.0760   22.7860 C   0  0  0  0  0  3  0  0  0  0  0  0
  -25.7210  -32.2610   23.8670 C   0  0  0  0  0  3  0  0  0  0  0  0
  -25.4170  -33.6610   24.1970 N   0  0  0  0  0  0  0  0  0  0  0  0
  -25.7800  -34.7100   23.4480 C   0  0  0  0  0  0  0  0  0  0  0  0
  -26.4750  -34.6010   22.4330 O   0  0  0  0  0  0  0  0  0  0  0  0
  -24.7940  -33.8180   24.9760 H   0  0  0  0  0  0  0  0  0  0  0  0
  -24.0630  -36.5090   23.0640 C   0  0  0  0  0  1  0  0  0  0  0  0
  -25.2920  -36.1010   23.8950 C   0  0  0  0  0  3  0  0  0  0  0  0
  -27.4370  -36.9610   24.7280 C   0  0  0  0  0  1  0  0  0  0  0  0
  -26.3310  -37.1480   23.7910 N   0  0  0  0  0  0  0  0  0  0  0  0
  -25.9330  -38.0690   23.9530 H   0  0  0  0  0  0  0  0  0  0  0  0
  -26.2150  -31.4760   25.1440 C   0  0  1  0  0  0  0  0  0  0  0  0
  -25.1130  -31.2390   26.2020 C   0  0  0  0  0  1  0  0  0  0  0  0
  -26.7880  -30.0940   24.7490 C   0  0  0  0  0  1  0  0  0  0  0  0
  -27.3700  -32.2560   25.8180 C   0  0  0  0  0  1  0  0  0  0  0  0
  2 56  1  0
  2  1  1  0
  3  4  1  0
  3  2  1  0
  5  3  1  0
  6  3  1  0
  7  6  1  0
  8  7  1  0
  9  8  1  0
 10 14  1  0
 11 10  2  0
 12 13  1  0
 13 14  2  0
 13 17  1  0
 14  9  1  0
 15 11  1  0
 15 12  2  0
 16 15  1  0
 18 25  2  0
 19 24  1  0
 20 19  1  0
 21 22  1  0
 21 20  1  0
 22 31  1  0
 22 23  1  0
 23 24  1  0
 24 18  1  0
 26 18  1  0
 26 17  1  0
 27 26  1  0
 28 31  1  0
 28 53  1  0
 29 28  2  0
 30 29  1  0
 30 32  2  0
 32 31  1  0
 33 34  1  0
 33 30  1  0
 35 34  2  0
 36 35  1  0
 37 36  2  0
 37 38  1  0
 38 33  2  0
 39 36  1  0
 40 41  1  0
 40 39  1  0
 42 41  2  0
 43 42  1  0
 44 43  2  0
 44 45  1  0
 45 40  2  0
 46 45  1  0
 47 43  1  0
 48 50  2  0
 48 29  1  0
 49 48  1  0
 51 49  1  0
 52 49  1  0
 53 55  1  0
 54 53  1  0
 57 56  1  0
 58 57  1  0
 59 58  1  0
 60 59  1  0
 61 62  1  0
 62 64  1  0
 62 60  1  0
 63 61  2  0
 65 61  1  0
 65 66  1  0
 66 68  1  0
 67 78  2  0
 68 73  1  0
 69 77  1  0
 69 79  1  0
 70 76  1  0
 70 72  1  0
 71 77  1  0
 72 71  1  0
 73 72  2  0
 74 75  1  0
 74 68  2  0
 75 70  2  0
 76 69  1  0
 77 67  1  0
 79 81  2  0
 80 79  1  0
 82 80  1  0
 83 92  2  0
 83 88  1  0
 84 80  1  0
 84 88  1  0
 85 84  1  0
 86 87  1  0
 86 85  1  0
 87 83  1  0
 88 89  2  0
 89 90  1  0
 91 90  2  0
 92 91  1  0
 93 67  1  0
 93 94  1  0
 93103  1  0
 94 97  1  0
 95 99  1  0
 95 94  1  0
 96 95  2  0
 99 98  1  0
101 99  1  0
101102  1  0
101100  1  0
103106  1  1
103104  1  0
105103  1  0
M  ISO  4  18 100  26 100  65 101  66 101
M  END
>  <TORSDO>  (23) 
F 30

>  <SCORE>  (23) 
6.340

>  <name>  (23) 
22

>  <ligand_id>  (23) 
22

>  <original_smiles>  (23) 
[H]c1c([H])c([H])c2c(c1[H])C([H])([H])C([H])([H])C([H])([H])C2([H])N([H])C(=O)C1([H])N(C(=O)C([H])(N([H])C(=O)C([H])(N([H])C([H])([H])[H])C([H])([H])[H])C(C([H])([H])[H])(C([H])([H])[H])C([H])([H])[H])C([H])([H])c2c([H])c(OC([H])([H])C(=O)N([H])C([H])([H])C([H])([H])C([H])([H])C([H])([H])C([H])([H])C([H])(C([H])([H])[H])[N+]([H])([H])C([H])([H])C([H])([H])C([H])([H])Oc3c([H])c([H])c(Cl)c([H])c3C([H])([H])N([H])C(=O)N3C([H])([H])C([H])([H])C([H])([H])C([H])(n4nc(-c5c([H])c([H])c(Oc6c([H])c([H])c(F)c([H])c6F)c([H])c5[H])c(C(=O)N([H])[H])c4N([H])[H])C3([H])[H])c([H])c([H])c2C1([H])[H]

>  <smiles>  (23) 
[H]c1c([H])c([H])c2c(c1[H])C([H])([H])C([H])([H])C([H])([H])C2([H])N([H])C(=O)C1([H])N(C(=O)C([H])(N([H])C(=O)C([H])(N([H])C([H])([H])[H])C([H])([H])[H])C(C([H])([H])[H])(C([H])([H])[H])C([H])([H])[H])C([H])([H])c2c([H])c(OC([H])([H])C(=O)N([H])C([H])([H])C([H])([H])C([H])([H])C([H])([H])C([H])([H])C([H])(C([H])([H])[H])[N+]([H])([H])C([H])([H])C([H])([H])C([H])([H])Oc3c([H])c([H])c(Cl)c([H])c3C([H])([H])N([H])C(=O)N3C([H])([H])C([H])([H])C([H])([H])C([H])(n4nc(-c5c([H])c([H])c(Oc6c([H])c([H])c(F)c([H])c6F)c([H])c5[H])c(C(=O)N([H])[H])c4N([H])[H])C3([H])[H])c([H])c([H])c2C1([H])[H]

$$$$
23:0:0
     RDKit          3D

102111  0  0  1  0  0  0  0  0999 V2000
  -32.3960  -22.8150   20.9010 C   0  0  0  0  0  2  0  0  0  0  0  0
  -32.8460  -21.8720   18.5480 C   0  0  0  0  0  2  0  0  0  0  0  0
  -31.3960  -21.6340   20.9950 C   0  0  0  0  0  2  0  0  0  0  0  0
  -33.0090  -20.5910   19.3810 C   0  0  0  0  0  2  0  0  0  0  0  0
  -32.8900  -23.1170   19.4580 C   0  0  0  0  0  3  0  0  0  0  0  0
  -31.8520  -20.3910   20.2960 N   0  0  2  0  0  4  0  0  0  0  0  0
  -32.2060  -19.7740   21.0130 H   0  0  0  0  0  0  0  0  0  0  0  0
  -32.2780  -24.3090   18.8130 N   0  0  0  0  0  4  0  0  0  0  0  0
  -32.6420  -24.3600   17.8740 H   0  0  0  0  0  0  0  0  0  0  0  0
  -32.6060  -25.1430   19.2760 H   0  0  0  0  0  0  0  0  0  0  0  0
  -30.7990  -24.3660   18.7120 C   0  0  0  0  0  2  0  0  0  0  0  0
  -30.2180  -25.4700   19.6030 C   0  0  0  0  0  2  0  0  0  0  0  0
  -28.7060  -25.6750   19.4360 C   0  0  0  0  0  2  0  0  0  0  0  0
  -28.4600  -26.8550   20.1700 O   0  0  0  0  0  0  0  0  0  0  0  0
  -24.6040  -31.8750   23.2100 C   0  0  0  0  0  0  0  0  0  0  0  0
  -27.2450  -27.4860   20.1140 C   0  0  0  0  0  0  0  0  0  0  0  0
  -23.3890  -30.4940   21.5500 C   0  0  0  0  0  3  0  0  0  0  0  0
  -24.8380  -28.9590   20.1140 C   0  0  0  0  0  0  0  0  0  0  0  0
  -25.9030  -30.8620   21.3450 C   0  0  0  0  0  2  0  0  0  0  0  0
  -25.9850  -29.4910   20.7110 C   0  0  0  0  0  0  0  0  0  0  0  0
  -27.1830  -28.7560   20.7160 C   0  0  0  0  0  3  0  0  0  0  0  0
  -26.0840  -26.9450   19.5170 C   0  0  0  0  0  3  0  0  0  0  0  0
  -24.8790  -27.6810   19.5200 C   0  0  0  0  0  3  0  0  0  0  0  0
  -23.5940  -29.8190   20.1630 C   0  0  0  0  0  2  0  0  0  0  0  0
  -24.6510  -31.0900   22.0970 N   0  0  0  0  0  0  0  0  0  0  0  0
  -23.5270  -32.1480   23.7560 O   0  0  0  0  0  0  0  0  0  0  0  0
  -22.7340  -29.4680   22.5010 C   0  0  0  0  0  0  0  0  0  0  0  0
  -21.4090  -29.3030   22.3780 N   0  0  0  0  0  0  0  0  0  0  0  0
  -23.4140  -28.8210   23.3030 O   0  0  0  0  0  0  0  0  0  0  0  0
  -20.9210  -29.8790   21.7070 H   0  0  0  0  0  0  0  0  0  0  0  0
  -18.0270  -28.1370   22.8490 C   0  0  0  0  0  0  0  0  0  0  0  0
  -20.5860  -28.3640   23.1350 C   0  0  0  0  0  3  0  0  0  0  0  0
  -20.6770  -26.9400   22.5420 C   0  0  0  0  0  2  0  0  0  0  0  0
  -19.5760  -26.6390   21.5200 C   0  0  0  0  0  2  0  0  0  0  0  0
  -18.1930  -26.7920   22.1610 C   0  0  0  0  0  2  0  0  0  0  0  0
  -19.1520  -28.8810   23.2920 C   0  0  0  0  0  0  0  0  0  0  0  0
  -18.9460  -30.1420   23.8920 C   0  0  0  0  0  3  0  0  0  0  0  0
  -17.6470  -30.6570   24.0580 C   0  0  0  0  0  3  0  0  0  0  0  0
  -16.5350  -29.9090   23.6310 C   0  0  0  0  0  3  0  0  0  0  0  0
  -16.7270  -28.6510   23.0320 C   0  0  0  0  0  3  0  0  0  0  0  0
  -25.8960  -32.4850   23.8390 C   0  0  0  0  0  3  0  0  0  0  0  0
  -25.5870  -33.8650   24.2360 N   0  0  0  0  0  0  0  0  0  0  0  0
  -25.9020  -34.9500   23.5150 C   0  0  0  0  0  0  0  0  0  0  0  0
  -26.5590  -34.8930   22.4710 O   0  0  0  0  0  0  0  0  0  0  0  0
  -25.0030  -33.9830   25.0510 H   0  0  0  0  0  0  0  0  0  0  0  0
  -24.1490  -36.7320   23.2640 C   0  0  0  0  0  1  0  0  0  0  0  0
  -25.4100  -36.3120   24.0360 C   0  0  0  0  0  3  0  0  0  0  0  0
  -27.5590  -37.1800   24.8480 C   0  0  0  0  0  1  0  0  0  0  0  0
  -26.4300  -37.3810   23.9430 N   0  0  0  0  0  0  0  0  0  0  0  0
  -26.0190  -38.2890   24.1420 H   0  0  0  0  0  0  0  0  0  0  0  0
  -26.4430  -31.6580   25.0670 C   0  0  1  0  0  0  0  0  0  0  0  0
  -25.3720  -31.3630   26.1430 C   0  0  0  0  0  1  0  0  0  0  0  0
  -27.0240  -30.3060   24.5880 C   0  0  0  0  0  1  0  0  0  0  0  0
  -27.6030  -32.4270   25.7430 C   0  0  0  0  0  1  0  0  0  0  0  0
  -30.7370  -19.6320   19.6660 C   0  0  0  0  0  2  0  0  0  0  0  0
  -28.2640  -18.2180   22.2320 C   0  0  0  0  0  3  0  0  0  0  0  0
  -30.5210  -17.3820   20.7910 C   0  0  0  0  0  3  0  0  0  0  0  0
  -28.7230  -16.8880   22.3830 C   0  0  0  0  0  0  0  0  0  0  0  0
  -30.0500  -18.7010   20.6470 C   0  0  0  0  0  0  0  0  0  0  0  0
  -29.8450  -16.4580   21.6210 C   0  0  0  0  0  0  0  0  0  0  0  0
  -28.9150  -19.1160   21.3680 C   0  0  0  0  0  0  0  0  0  0  0  0
  -28.4470  -20.3800   21.2350 F   0  0  0  0  0  0  0  0  0  0  0  0
  -30.7300  -14.3540   20.6890 C   0  0  0  0  0  0  0  0  0  0  0  0
  -30.4330  -12.2820   19.3860 C   0  0  0  0  0  2  0  0  0  0  0  0
  -29.4950  -12.5390   18.1900 C   0  0  0  0  0  2  0  0  0  0  0  0
  -28.0160  -12.3960   18.6020 C   0  0  0  0  0  2  0  0  0  0  0  0
  -27.6770  -13.1940   19.8890 C   0  0  0  0  0  3  0  0  0  0  0  0
  -28.7110  -12.8820   20.9920 C   0  0  0  0  0  2  0  0  0  0  0  0
  -30.0590  -13.1950   20.4740 N   0  0  0  0  0  0  0  0  0  0  0  0
  -31.7500  -14.6760   20.0700 O   0  0  0  0  0  0  0  0  0  0  0  0
  -30.2280  -15.0920   21.6900 N   0  0  0  0  0  0  0  0  0  0  0  0
  -29.6200  -14.5440   22.2790 H   0  0  0  0  0  0  0  0  0  0  0  0
  -25.2660  -13.8130   20.5650 C   0  0  0  0  0  0  0  0  0  0  0  0
  -24.1890  -13.0440   20.9140 C   0  0  0  0  0  0  0  0  0  0  0  0
  -24.6420  -11.6890   20.8710 C   0  0  0  0  0  0  0  0  0  0  0  0
  -26.3110  -12.9290   20.3400 N   0  0  0  0  0  0  0  0  0  0  0  0
  -25.9340  -11.6460   20.5740 N   0  0  0  0  0  0  0  0  0  0  0  0
  -23.9060  -10.4300   21.0390 C   0  0  0  0  0  0  0  0  0  0  0  0
  -24.3610   -9.4210   21.9170 C   0  0  0  0  0  3  0  0  0  0  0  0
  -23.6290   -8.2250   22.0750 C   0  0  0  0  0  3  0  0  0  0  0  0
  -22.4270   -8.0290   21.3540 C   0  0  0  0  0  0  0  0  0  0  0  0
  -21.9910   -9.0260   20.4640 C   0  0  0  0  0  3  0  0  0  0  0  0
  -22.7230  -10.2140   20.3040 C   0  0  0  0  0  3  0  0  0  0  0  0
  -21.6640   -6.8880   21.4240 O   0  0  0  0  0  0  0  0  0  0  0  0
  -21.6860   -6.0730   22.5280 C   0  0  0  0  0  0  0  0  0  0  0  0
  -21.4010   -6.5630   23.8210 C   0  0  0  0  0  3  0  0  0  0  0  0
  -21.3650   -5.6790   24.9180 C   0  0  0  0  0  3  0  0  0  0  0  0
  -21.6050   -4.3050   24.7230 C   0  0  0  0  0  0  0  0  0  0  0  0
  -21.8820   -3.8140   23.4350 C   0  0  0  0  0  3  0  0  0  0  0  0
  -21.9190   -4.6960   22.3400 C   0  0  0  0  0  0  0  0  0  0  0  0
  -22.1660   -4.2140   21.0980 F   0  0  0  0  0  0  0  0  0  0  0  0
  -21.5630   -3.4540   25.7740 F   0  0  0  0  0  0  0  0  0  0  0  0
  -22.7910  -13.5250   21.1820 C   0  0  0  0  0  0  0  0  0  0  0  0
  -22.0550  -12.8250   22.0370 N   0  0  0  0  0  0  0  0  0  0  0  0
  -22.3600  -14.5570   20.6680 O   0  0  0  0  0  0  0  0  0  0  0  0
  -22.4150  -11.9900   22.4740 H   0  0  0  0  0  0  0  0  0  0  0  0
  -21.1160  -13.1270   22.2560 H   0  0  0  0  0  0  0  0  0  0  0  0
  -25.4440  -15.1840   20.4020 N   0  0  0  0  0  0  0  0  0  0  0  0
  -24.6960  -15.8520   20.5430 H   0  0  0  0  0  0  0  0  0  0  0  0
  -26.3250  -15.6170   20.1590 H   0  0  0  0  0  0  0  0  0  0  0  0
  -26.7290  -16.0710   23.6860 C   0  0  0  0  0  2  0  0  0  0  0  0
  -28.0030  -15.9510   23.2730 C   0  0  0  0  0  3  0  0  0  0  0  0
  1  3  1  0
  2  4  1  0
  2  5  1  0
  4  6  1  0
  5  8  1  0
  5  1  1  0
  6  3  1  0
  6  7  1  1
  8 10  1  0
  9  8  1  0
 11  8  1  0
 11 12  1  0
 13 12  1  0
 13 14  1  0
 15 26  2  0
 16 14  1  0
 16 21  1  0
 17 25  1  0
 17 27  1  0
 18 24  1  0
 18 20  1  0
 19 25  1  0
 20 21  2  0
 20 19  1  0
 22 23  1  0
 22 16  2  0
 23 18  2  0
 24 17  1  0
 25 15  1  0
 27 29  2  0
 28 27  1  0
 30 28  1  0
 31 40  2  0
 31 36  1  0
 32 28  1  0
 32 36  1  0
 33 32  1  0
 34 35  1  0
 34 33  1  0
 35 31  1  0
 36 37  2  0
 37 38  1  0
 39 38  2  0
 40 39  1  0
 41 15  1  0
 41 42  1  0
 41 51  1  0
 42 45  1  0
 43 47  1  0
 43 42  1  0
 44 43  2  0
 47 46  1  0
 49 47  1  0
 49 50  1  0
 49 48  1  0
 51 54  1  1
 51 52  1  0
 53 51  1  0
 55  6  1  0
 55 59  1  0
 56 58  1  0
 57 60  1  0
 58102  1  0
 59 57  2  0
 59 61  1  0
 60 71  1  0
 60 58  2  0
 61 56  2  0
 62 61  1  0
 63 71  1  0
 64 69  1  0
 65 66  1  0
 65 64  1  0
 67 66  1  0
 67 76  1  0
 67 68  1  0
 69 63  1  0
 69 68  1  0
 70 63  2  0
 71 72  1  0
 73 74  2  0
 74 93  1  0
 75 74  1  0
 75 78  1  0
 76 73  1  0
 76 77  1  0
 77 75  2  0
 78 79  1  0
 79 80  2  0
 81 84  1  0
 81 80  1  0
 82 81  2  0
 83 82  1  0
 83 78  2  0
 84 85  1  0
 85 86  1  0
 86 87  2  0
 88 87  1  0
 88 92  1  0
 89 88  2  0
 90 85  2  0
 90 89  1  0
 91 90  1  0
 93 94  1  0
 94 97  1  0
 94 96  1  0
 95 93  2  0
 98 99  1  0
 98 73  1  0
100 98  1  0
102101  2  0
M  ISO  4  13 101  14 101  63 100  71 100
M  END
>  <TORSDO>  (24) 
F 23

>  <SCORE>  (24) 
10.926

>  <name>  (24) 
23

>  <ligand_id>  (24) 
23

>  <original_smiles>  (24) 
[H]C([H])=C([H])c1c([H])c(F)c(C([H])([H])[N+]2([H])C([H])([H])C([H])([H])C([H])([N+]([H])([H])C([H])([H])C([H])([H])C([H])([H])Oc3c([H])c([H])c4c(c3[H])C([H])([H])N(C(=O)C([H])(N([H])C(=O)C([H])(N([H])C([H])([H])[H])C([H])([H])[H])C(C([H])([H])[H])(C([H])([H])[H])C([H])([H])[H])C([H])(C(=O)N([H])C3([H])c5c([H])c([H])c([H])c([H])c5C([H])([H])C([H])([H])C3([H])[H])C4([H])[H])C([H])([H])C2([H])[H])c([H])c1N([H])C(=O)N1C([H])([H])C([H])([H])C([H])([H])C([H])(n2nc(-c3c([H])c([H])c(Oc4c([H])c([H])c(F)c([H])c4F)c([H])c3[H])c(C(=O)N([H])[H])c2N([H])[H])C1([H])[H]

>  <smiles>  (24) 
[H]C([H])=C([H])c1c([H])c(F)c(C([H])([H])[N+]2([H])C([H])([H])C([H])([H])C([H])([N+]([H])([H])C([H])([H])C([H])([H])C([H])([H])Oc3c([H])c([H])c4c(c3[H])C([H])([H])N(C(=O)C([H])(N([H])C(=O)C([H])(N([H])C([H])([H])[H])C([H])([H])[H])C(C([H])([H])[H])(C([H])([H])[H])C([H])([H])[H])C([H])(C(=O)N([H])C3([H])c5c([H])c([H])c([H])c([H])c5C([H])([H])C([H])([H])C3([H])[H])C4([H])[H])C([H])([H])C2([H])[H])c([H])c1N([H])C(=O)N1C([H])([H])C([H])([H])C([H])([H])C([H])(n2nc(-c3c([H])c([H])c(Oc4c([H])c([H])c(F)c([H])c4F)c([H])c3[H])c(C(=O)N([H])[H])c2N([H])[H])C1([H])[H]

$$$$
24:0:0
     RDKit          3D

108118  0  0  1  0  0  0  0  0999 V2000
  -29.7550  -22.5030   23.1500 C   0  0  0  0  0  0  0  0  0  0  0  0
  -27.5220  -25.3140   22.5250 C   0  0  0  0  0  2  0  0  0  0  0  0
  -27.2160  -24.4410   21.3110 C   0  0  0  0  0  2  0  0  0  0  0  0
  -28.5760  -22.4260   20.4740 C   0  0  0  0  0  2  0  0  0  0  0  0
  -29.4320  -21.2650   20.9990 C   0  0  0  0  0  2  0  0  0  0  0  0
  -28.8840  -24.8060   23.0240 C   0  0  0  0  0  3  0  0  0  0  0  0
  -27.8640  -23.0900   21.6520 C   0  0  0  0  0  3  0  0  0  0  0  0
  -30.1990  -21.6230   22.2170 N   0  0  0  0  0  0  0  0  0  0  0  0
  -28.8750  -23.3940   22.6600 N   0  0  0  0  0  0  0  0  0  0  0  0
  -30.3060  -22.6830   24.2440 O   0  0  0  0  0  0  0  0  0  0  0  0
  -30.0610  -25.5050   22.3110 C   0  0  0  0  0  0  0  0  0  0  0  0
  -30.3250  -26.7550   22.6850 N   0  0  0  0  0  0  0  0  0  0  0  0
  -30.7080  -24.9330   21.4300 O   0  0  0  0  0  0  0  0  0  0  0  0
  -29.7790  -27.1410   23.4440 H   0  0  0  0  0  0  0  0  0  0  0  0
  -31.2350  -27.6530   21.9910 C   0  0  0  0  0  2  0  0  0  0  0  0
  -30.4310  -28.6990   21.2060 C   0  0  0  0  0  2  0  0  0  0  0  0
  -29.7780  -28.2140   19.8800 C   0  0  0  0  0  2  0  0  0  0  0  0
  -28.5550  -27.4580   19.9740 O   0  0  0  0  0  0  0  0  0  0  0  0
  -24.6640  -32.1320   23.6500 C   0  0  0  0  0  0  0  0  0  0  0  0
  -27.3720  -28.1600   20.0870 C   0  0  0  0  0  0  0  0  0  0  0  0
  -23.4480  -30.9110   21.8640 C   0  0  0  0  0  3  0  0  0  0  0  0
  -24.9090  -29.5450   20.2760 C   0  0  0  0  0  0  0  0  0  0  0  0
  -25.9530  -31.3450   21.6750 C   0  0  0  0  0  2  0  0  0  0  0  0
  -26.0520  -30.0530   20.8980 C   0  0  0  0  0  0  0  0  0  0  0  0
  -27.2750  -29.3750   20.7960 C   0  0  0  0  0  3  0  0  0  0  0  0
  -26.2050  -27.6360   19.4840 C   0  0  0  0  0  3  0  0  0  0  0  0
  -24.9760  -28.3300   19.5650 C   0  0  0  0  0  3  0  0  0  0  0  0
  -23.6480  -30.3680   20.4190 C   0  0  0  0  0  2  0  0  0  0  0  0
  -24.7070  -31.4700   22.4590 N   0  0  0  0  0  0  0  0  0  0  0  0
  -23.5880  -32.3310   24.2320 O   0  0  0  0  0  0  0  0  0  0  0  0
  -22.8130  -29.7900   22.7150 C   0  0  0  0  0  0  0  0  0  0  0  0
  -21.4970  -29.5920   22.5450 N   0  0  0  0  0  0  0  0  0  0  0  0
  -23.5010  -29.1050   23.4760 O   0  0  0  0  0  0  0  0  0  0  0  0
  -21.0100  -30.1980   21.9000 H   0  0  0  0  0  0  0  0  0  0  0  0
  -18.1540  -28.2520   22.8010 C   0  0  0  0  0  0  0  0  0  0  0  0
  -20.6890  -28.5650   23.1990 C   0  0  0  0  0  3  0  0  0  0  0  0
  -20.8640  -27.1940   22.5050 C   0  0  0  0  0  2  0  0  0  0  0  0
  -19.8110  -26.9260   21.4240 C   0  0  0  0  0  2  0  0  0  0  0  0
  -18.4030  -26.9700   22.0230 C   0  0  0  0  0  2  0  0  0  0  0  0
  -19.2280  -29.0080   23.3400 C   0  0  0  0  0  0  0  0  0  0  0  0
  -18.9450  -30.2110   24.0230 C   0  0  0  0  0  3  0  0  0  0  0  0
  -17.6190  -30.6550   24.1760 C   0  0  0  0  0  3  0  0  0  0  0  0
  -16.5570  -29.8900   23.6590 C   0  0  0  0  0  3  0  0  0  0  0  0
  -16.8270  -28.6900   22.9760 C   0  0  0  0  0  3  0  0  0  0  0  0
  -25.9540  -32.6910   24.3320 C   0  0  0  0  0  3  0  0  0  0  0  0
  -25.6740  -34.0720   24.7480 N   0  0  0  0  0  0  0  0  0  0  0  0
  -26.0780  -35.1640   24.0850 C   0  0  0  0  0  0  0  0  0  0  0  0
  -26.7970  -35.1110   23.0830 O   0  0  0  0  0  0  0  0  0  0  0  0
  -25.0460  -34.1880   25.5300 H   0  0  0  0  0  0  0  0  0  0  0  0
  -24.4290  -37.0320   23.7630 C   0  0  0  0  0  1  0  0  0  0  0  0
  -25.6070  -36.5320   24.6140 C   0  0  0  0  0  3  0  0  0  0  0  0
  -27.7160  -37.2710   25.6240 C   0  0  0  0  0  1  0  0  0  0  0  0
  -26.6740  -37.5560   24.6400 N   0  0  0  0  0  0  0  0  0  0  0  0
  -26.2930  -38.4770   24.8400 H   0  0  0  0  0  0  0  0  0  0  0  0
  -26.4410  -31.8220   25.5580 C   0  0  1  0  0  0  0  0  0  0  0  0
  -25.3250  -31.5080   26.5800 C   0  0  0  0  0  1  0  0  0  0  0  0
  -27.0250  -30.4780   25.0640 C   0  0  0  0  0  1  0  0  0  0  0  0
  -27.5810  -32.5560   26.3050 C   0  0  0  0  0  1  0  0  0  0  0  0
  -31.5400  -21.0350   22.3510 C   0  0  0  0  0  2  0  0  0  0  0  0
  -31.8980  -19.0880   20.8340 C   0  0  0  0  0  3  0  0  0  0  0  0
  -31.7780  -17.7370   20.4830 C   0  0  0  0  0  3  0  0  0  0  0  0
  -31.0790  -17.2220   22.7560 C   0  0  0  0  0  3  0  0  0  0  0  0
  -31.1850  -18.5800   23.1260 C   0  0  0  0  0  0  0  0  0  0  0  0
  -31.5730  -19.5280   22.1350 C   0  0  0  0  0  0  0  0  0  0  0  0
  -31.3430  -16.7960   21.4400 C   0  0  0  0  0  0  0  0  0  0  0  0
  -31.3930  -14.7250   20.0500 C   0  0  0  0  0  0  0  0  0  0  0  0
  -30.9590  -12.5830   18.9080 C   0  0  0  0  0  2  0  0  0  0  0  0
  -29.9950  -12.7530   17.7210 C   0  0  0  0  0  2  0  0  0  0  0  0
  -28.5300  -12.6650   18.1900 C   0  0  0  0  0  2  0  0  0  0  0  0
  -28.2400  -13.5940   19.3970 C   0  0  0  0  0  3  0  0  0  0  0  0
  -29.3020  -13.3980   20.5010 C   0  0  0  0  0  2  0  0  0  0  0  0
  -30.6440  -13.6050   19.9150 N   0  0  0  0  0  0  0  0  0  0  0  0
  -32.3500  -14.9900   19.3110 O   0  0  0  0  0  0  0  0  0  0  0  0
  -31.0990  -15.4310   21.1490 N   0  0  0  0  0  0  0  0  0  0  0  0
  -30.4330  -14.9710   21.7530 H   0  0  0  0  0  0  0  0  0  0  0  0
  -25.8870  -14.3170   20.1620 C   0  0  0  0  0  0  0  0  0  0  0  0
  -24.7960  -13.5940   20.5690 C   0  0  0  0  0  0  0  0  0  0  0  0
  -25.1970  -12.2250   20.5360 C   0  0  0  0  0  0  0  0  0  0  0  0
  -26.8860  -13.3880   19.9120 N   0  0  0  0  0  0  0  0  0  0  0  0
  -26.4750  -12.1240   20.1900 N   0  0  0  0  0  0  0  0  0  0  0  0
  -24.4230  -10.9970   20.7590 C   0  0  0  0  0  0  0  0  0  0  0  0
  -24.7930  -10.0580   21.7470 C   0  0  0  0  0  3  0  0  0  0  0  0
  -24.0250   -8.8930   21.9540 C   0  0  0  0  0  3  0  0  0  0  0  0
  -22.8680   -8.6580   21.1720 C   0  0  0  0  0  0  0  0  0  0  0  0
  -22.5170   -9.5830   20.1740 C   0  0  0  0  0  3  0  0  0  0  0  0
  -23.2870  -10.7400   19.9660 C   0  0  0  0  0  3  0  0  0  0  0  0
  -22.0740   -7.5420   21.2840 O   0  0  0  0  0  0  0  0  0  0  0  0
  -21.8770   -6.9170   22.4900 C   0  0  0  0  0  0  0  0  0  0  0  0
  -21.3510   -7.6030   23.6060 C   0  0  0  0  0  3  0  0  0  0  0  0
  -21.0990   -6.9060   24.8060 C   0  0  0  0  0  3  0  0  0  0  0  0
  -21.3630   -5.5260   24.8870 C   0  0  0  0  0  0  0  0  0  0  0  0
  -21.8820   -4.8420   23.7740 C   0  0  0  0  0  3  0  0  0  0  0  0
  -22.1360   -5.5350   22.5790 C   0  0  0  0  0  0  0  0  0  0  0  0
  -22.6160   -4.8660   21.5020 F   0  0  0  0  0  0  0  0  0  0  0  0
  -21.1140   -4.8540   26.0360 F   0  0  0  0  0  0  0  0  0  0  0  0
  -23.4300  -14.1350   20.8790 C   0  0  0  0  0  0  0  0  0  0  0  0
  -22.7140  -13.4990   21.8000 N   0  0  0  0  0  0  0  0  0  0  0  0
  -23.0070  -15.1540   20.3380 O   0  0  0  0  0  0  0  0  0  0  0  0
  -23.0690  -12.6740   22.2600 H   0  0  0  0  0  0  0  0  0  0  0  0
  -21.7990  -13.8460   22.0510 H   0  0  0  0  0  0  0  0  0  0  0  0
  -26.1070  -15.6780   19.9700 N   0  0  0  0  0  0  0  0  0  0  0  0
  -25.3750  -16.3690   20.1000 H   0  0  0  0  0  0  0  0  0  0  0  0
  -26.9760  -16.0750   19.6340 H   0  0  0  0  0  0  0  0  0  0  0  0
  -30.7990  -18.9500   24.5340 C   0  0  0  0  0  0  0  0  0  0  0  0
  -31.4530  -19.9560   25.0980 N   0  0  0  0  0  0  0  0  0  0  0  0
  -29.9620  -18.3010   25.1580 O   0  0  0  0  0  0  0  0  0  0  0  0
  -32.1610  -20.4550   24.5820 H   0  0  0  0  0  0  0  0  0  0  0  0
  -31.2490  -20.2240   26.0490 H   0  0  0  0  0  0  0  0  0  0  0  0
  1 10  2  0
  2  6  1  0
  3  7  1  0
  3  2  1  0
  4  5  1  0
  5  8  1  0
  6 11  1  0
  7  4  1  0
  7  9  1  0
  8 59  1  0
  8  1  1  0
  9  6  1  0
  9  1  1  0
 11 12  1  0
 12 14  1  0
 13 11  2  0
 15 12  1  0
 16 15  1  0
 17 18  1  0
 17 16  1  0
 18 20  1  0
 19 30  2  0
 20 25  1  0
 21 29  1  0
 21 31  1  0
 22 28  1  0
 22 24  1  0
 23 29  1  0
 24 23  1  0
 25 24  2  0
 26 27  1  0
 26 20  2  0
 27 22  2  0
 28 21  1  0
 29 19  1  0
 31 33  2  0
 32 31  1  0
 34 32  1  0
 35 44  2  0
 35 40  1  0
 36 32  1  0
 36 40  1  0
 37 36  1  0
 38 39  1  0
 38 37  1  0
 39 35  1  0
 40 41  2  0
 41 42  1  0
 43 42  2  0
 44 43  1  0
 45 19  1  0
 45 46  1  0
 45 55  1  0
 46 49  1  0
 47 51  1  0
 47 46  1  0
 48 47  2  0
 51 50  1  0
 51 53  1  0
 53 54  1  0
 53 52  1  0
 55 58  1  1
 55 56  1  0
 57 55  1  0
 60 64  1  0
 61 60  2  0
 61 65  1  0
 62 63  1  0
 63104  1  0
 64 59  1  0
 64 63  2  0
 65 62  2  0
 66 74  1  0
 67 72  1  0
 68 69  1  0
 68 67  1  0
 70 69  1  0
 70 79  1  0
 70 71  1  0
 72 66  1  0
 72 71  1  0
 73 66  2  0
 74 65  1  0
 74 75  1  0
 76 77  2  0
 77 96  1  0
 78 77  1  0
 78 81  1  0
 79 76  1  0
 79 80  1  0
 80 78  2  0
 81 82  1  0
 82 83  2  0
 84 87  1  0
 84 83  1  0
 85 84  2  0
 86 85  1  0
 86 81  2  0
 87 88  1  0
 88 93  2  0
 88 89  1  0
 89 90  2  0
 90 91  1  0
 91 95  1  0
 92 91  2  0
 93 92  1  0
 94 93  1  0
 96 97  1  0
 97100  1  0
 97 99  1  0
 98 96  2  0
101102  1  0
101 76  1  0
103101  1  0
104105  1  0
104106  2  0
105108  1  0
107105  1  0
M  ISO  4  17 101  18 101  66 100  74 100
M  END
>  <TORSDO>  (25) 
F 23

>  <SCORE>  (25) 
-8.612

>  <name>  (25) 
24

>  <ligand_id>  (25) 
24

>  <original_smiles>  (25) 
[H]c1c([H])c([H])c2c(c1[H])C([H])([H])C([H])([H])C([H])([H])C2([H])N([H])C(=O)C1([H])N(C(=O)C([H])(N([H])C(=O)C([H])(N([H])C([H])([H])[H])C([H])([H])[H])C(C([H])([H])[H])(C([H])([H])[H])C([H])([H])[H])C([H])([H])c2c([H])c(OC([H])([H])C([H])([H])C([H])([H])N([H])C(=O)C3([H])N4C(=O)N(C([H])([H])c5c([H])c([H])c(N([H])C(=O)N6C([H])([H])C([H])([H])C([H])([H])C([H])(n7nc(-c8c([H])c([H])c(Oc9c([H])c([H])c(F)c([H])c9F)c([H])c8[H])c(C(=O)N([H])[H])c7N([H])[H])C6([H])[H])c([H])c5C(=O)N([H])[H])C([H])([H])C([H])([H])C4([H])C([H])([H])C3([H])[H])c([H])c([H])c2C1([H])[H]

>  <smiles>  (25) 
[H]c1c([H])c([H])c2c(c1[H])C([H])([H])C([H])([H])C([H])([H])C2([H])N([H])C(=O)C1([H])N(C(=O)C([H])(N([H])C(=O)C([H])(N([H])C([H])([H])[H])C([H])([H])[H])C(C([H])([H])[H])(C([H])([H])[H])C([H])([H])[H])C([H])([H])c2c([H])c(OC([H])([H])C([H])([H])C([H])([H])N([H])C(=O)C3([H])N4C(=O)N(C([H])([H])c5c([H])c([H])c(N([H])C(=O)N6C([H])([H])C([H])([H])C([H])([H])C([H])(n7nc(-c8c([H])c([H])c(Oc9c([H])c([H])c(F)c([H])c9F)c([H])c8[H])c(C(=O)N([H])[H])c7N([H])[H])C6([H])[H])c([H])c5C(=O)N([H])[H])C([H])([H])C([H])([H])C4([H])C([H])([H])C3([H])[H])c([H])c([H])c2C1([H])[H]

$$$$
25:0:0
     RDKit          3D

102111  0  0  1  0  0  0  0  0999 V2000
  -28.3590  -19.6680   20.8260 C   0  0  0  0  0  2  0  0  0  0  0  0
  -30.4300  -19.9750   19.4570 C   0  0  0  0  0  2  0  0  0  0  0  0
  -29.0750  -18.5880   21.6510 C   0  0  0  0  0  2  0  0  0  0  0  0
  -31.1330  -18.9000   20.3010 C   0  0  0  0  0  2  0  0  0  0  0  0
  -29.3680  -20.7080   20.3070 C   0  0  0  0  0  3  0  0  0  0  0  0
  -30.1630  -17.9690   20.8890 N   0  0  0  0  0  0  0  0  0  0  0  0
  -31.2910  -15.9990   23.8280 C   0  0  0  0  0  3  0  0  0  0  0  0
  -31.7140  -14.8120   23.2200 C   0  0  0  0  0  3  0  0  0  0  0  0
  -30.7850  -17.0350   23.0370 C   0  0  0  0  0  3  0  0  0  0  0  0
  -31.6610  -14.6440   21.8160 C   0  0  0  0  0  0  0  0  0  0  0  0
  -31.2170  -15.7320   20.9890 C   0  0  0  0  0  0  0  0  0  0  0  0
  -30.7410  -16.9190   21.6280 C   0  0  0  0  0  0  0  0  0  0  0  0
  -32.0180  -13.2540   21.2750 C   0  0  1  0  0  0  0  0  0  0  0  0
  -33.0820  -13.2700   20.4760 F   0  0  0  0  0  0  0  0  0  0  0  0
  -32.3040  -12.3960   22.2560 F   0  0  0  0  0  0  0  0  0  0  0  0
  -30.9700  -12.7450   20.6350 F   0  0  0  0  0  0  0  0  0  0  0  0
  -31.2070  -15.6470   19.4430 C   0  0  0  0  0  2  0  0  0  0  0  0
  -31.7820  -13.7510   17.8840 C   0  0  0  0  0  0  0  0  0  0  0  0
  -31.0530  -11.4450   17.3660 C   0  0  0  0  0  2  0  0  0  0  0  0
  -29.7320  -11.3970   16.5740 C   0  0  0  0  0  2  0  0  0  0  0  0
  -28.5110  -11.4650   17.5090 C   0  0  0  0  0  2  0  0  0  0  0  0
  -28.6250  -12.6180   18.5380 C   0  0  0  0  0  3  0  0  0  0  0  0
  -29.9980  -12.5590   19.2310 C   0  0  0  0  0  2  0  0  0  0  0  0
  -31.0540  -12.6500   18.2110 N   0  0  0  0  0  0  0  0  0  0  0  0
  -32.4260  -13.8310   16.8320 O   0  0  0  0  0  0  0  0  0  0  0  0
  -32.0730  -14.5980   18.8850 N   0  0  0  0  0  0  0  0  0  0  0  0
  -33.0030  -14.9660   18.7480 H   0  0  0  0  0  0  0  0  0  0  0  0
  -27.0660  -13.5940   20.3440 C   0  0  0  0  0  0  0  0  0  0  0  0
  -25.9910  -13.0640   21.0080 C   0  0  0  0  0  0  0  0  0  0  0  0
  -25.8560  -11.7260   20.5300 C   0  0  0  0  0  0  0  0  0  0  0  0
  -27.5340  -12.5880   19.5120 N   0  0  0  0  0  0  0  0  0  0  0  0
  -26.8240  -11.4410   19.6680 N   0  0  0  0  0  0  0  0  0  0  0  0
  -24.8270  -10.7150   20.7990 C   0  0  0  0  0  0  0  0  0  0  0  0
  -25.1300   -9.5090   21.4680 C   0  0  0  0  0  3  0  0  0  0  0  0
  -24.1190   -8.5590   21.7250 C   0  0  0  0  0  3  0  0  0  0  0  0
  -22.7870   -8.8150   21.3210 C   0  0  0  0  0  0  0  0  0  0  0  0
  -22.4940  -10.0070   20.6350 C   0  0  0  0  0  3  0  0  0  0  0  0
  -23.5030  -10.9470   20.3720 C   0  0  0  0  0  3  0  0  0  0  0  0
  -21.7420   -7.9420   21.5070 O   0  0  0  0  0  0  0  0  0  0  0  0
  -21.6740   -7.1250   22.6050 C   0  0  0  0  0  0  0  0  0  0  0  0
  -21.6330   -7.6430   23.9180 C   0  0  0  0  0  3  0  0  0  0  0  0
  -21.4960   -6.7690   25.0160 C   0  0  0  0  0  3  0  0  0  0  0  0
  -21.3870   -5.3830   24.8030 C   0  0  0  0  0  0  0  0  0  0  0  0
  -21.4210   -4.8650   23.4960 C   0  0  0  0  0  3  0  0  0  0  0  0
  -21.5620   -5.7340   22.4010 C   0  0  0  0  0  0  0  0  0  0  0  0
  -21.5730   -5.2320   21.1420 F   0  0  0  0  0  0  0  0  0  0  0  0
  -21.2470   -4.5440   25.8570 F   0  0  0  0  0  0  0  0  0  0  0  0
  -25.0830  -13.7890   21.9620 C   0  0  0  0  0  0  0  0  0  0  0  0
  -24.5520  -13.0890   22.9580 N   0  0  0  0  0  0  0  0  0  0  0  0
  -24.8770  -14.9960   21.8540 O   0  0  0  0  0  0  0  0  0  0  0  0
  -24.7370  -12.1030   23.0630 H   0  0  0  0  0  0  0  0  0  0  0  0
  -23.9540  -13.5470   23.6300 H   0  0  0  0  0  0  0  0  0  0  0  0
  -27.6670  -14.8490   20.3700 N   0  0  0  0  0  0  0  0  0  0  0  0
  -27.2960  -15.6010   20.9420 H   0  0  0  0  0  0  0  0  0  0  0  0
  -28.4350  -15.1390   19.7800 H   0  0  0  0  0  0  0  0  0  0  0  0
  -28.6890  -21.7890   19.5590 N   0  0  0  0  0  4  0  0  0  0  0  0
  -27.8770  -22.0630   20.0900 H   0  0  0  0  0  0  0  0  0  0  0  0
  -28.3630  -21.4390   18.6710 H   0  0  0  0  0  0  0  0  0  0  0  0
  -29.5120  -23.0010   19.3540 C   0  0  0  0  0  2  0  0  0  0  0  0
  -28.7070  -24.1310   18.7000 C   0  0  0  0  0  2  0  0  0  0  0  0
  -29.4810  -25.4540   18.6660 C   0  0  0  0  0  2  0  0  0  0  0  0
  -28.7910  -26.3700   17.8340 O   0  0  0  0  0  0  0  0  0  0  0  0
  -25.7320  -29.5460   23.4200 C   0  0  0  0  0  0  0  0  0  0  0  0
  -27.6690  -26.9310   18.3830 C   0  0  0  0  0  0  0  0  0  0  0  0
  -24.2280  -28.9990   21.5290 C   0  0  0  0  0  3  0  0  0  0  0  0
  -25.3810  -28.2290   19.3900 C   0  0  0  0  0  0  0  0  0  0  0  0
  -26.7170  -29.4190   21.1390 C   0  0  0  0  0  2  0  0  0  0  0  0
  -26.6320  -28.4560   19.9770 C   0  0  0  0  0  0  0  0  0  0  0  0
  -27.7800  -27.8060   19.4810 C   0  0  0  0  0  3  0  0  0  0  0  0
  -26.4080  -26.6990   17.7990 C   0  0  0  0  0  3  0  0  0  0  0  0
  -25.2580  -27.3410   18.3040 C   0  0  0  0  0  3  0  0  0  0  0  0
  -24.2090  -28.9810   19.9770 C   0  0  0  0  0  2  0  0  0  0  0  0
  -25.5850  -29.3080   22.0850 N   0  0  0  0  0  0  0  0  0  0  0  0
  -24.7530  -29.5560   24.1790 O   0  0  0  0  0  0  0  0  0  0  0  0
  -23.6470  -27.6630   22.0410 C   0  0  0  0  0  0  0  0  0  0  0  0
  -22.3450  -27.4470   21.7980 N   0  0  0  0  0  0  0  0  0  0  0  0
  -24.3650  -26.8390   22.6140 O   0  0  0  0  0  0  0  0  0  0  0  0
  -21.8230  -28.1750   21.3320 H   0  0  0  0  0  0  0  0  0  0  0  0
  -19.1340  -25.8260   21.4720 C   0  0  0  0  0  0  0  0  0  0  0  0
  -21.5920  -26.2440   22.1510 C   0  0  0  0  0  3  0  0  0  0  0  0
  -21.9470  -25.0700   21.2100 C   0  0  0  0  0  2  0  0  0  0  0  0
  -21.0050  -24.9580   20.0060 C   0  0  0  0  0  2  0  0  0  0  0  0
  -19.5600  -24.7650   20.4710 C   0  0  0  0  0  2  0  0  0  0  0  0
  -20.0910  -26.5320   22.2490 C   0  0  0  0  0  0  0  0  0  0  0  0
  -19.6460  -27.5330   23.1390 C   0  0  0  0  0  3  0  0  0  0  0  0
  -18.2760  -27.8310   23.2620 C   0  0  0  0  0  3  0  0  0  0  0  0
  -17.3320  -27.1190   22.5010 C   0  0  0  0  0  3  0  0  0  0  0  0
  -17.7620  -26.1160   21.6130 C   0  0  0  0  0  3  0  0  0  0  0  0
  -27.1290  -29.8400   24.0510 C   0  0  0  0  0  3  0  0  0  0  0  0
  -26.9710  -30.9770   24.9670 N   0  0  0  0  0  0  0  0  0  0  0  0
  -27.3930  -32.2210   24.7130 C   0  0  0  0  0  0  0  0  0  0  0  0
  -28.0320  -32.5190   23.6990 O   0  0  0  0  0  0  0  0  0  0  0  0
  -26.4100  -30.8170   25.7920 H   0  0  0  0  0  0  0  0  0  0  0  0
  -25.8770  -34.1570   25.2360 C   0  0  0  0  0  1  0  0  0  0  0  0
  -27.0540  -33.3110   25.7470 C   0  0  0  0  0  3  0  0  0  0  0  0
  -29.2620  -33.5120   26.8020 C   0  0  0  0  0  1  0  0  0  0  0  0
  -28.1980  -34.1930   26.0690 N   0  0  0  0  0  0  0  0  0  0  0  0
  -27.8930  -34.9910   26.6190 H   0  0  0  0  0  0  0  0  0  0  0  0
  -27.7470  -28.5970   24.8020 C   0  0  1  0  0  0  0  0  0  0  0  0
  -26.7790  -27.9380   25.8120 C   0  0  0  0  0  1  0  0  0  0  0  0
  -28.1890  -27.5130   23.7910 C   0  0  0  0  0  1  0  0  0  0  0  0
  -29.0180  -29.0270   25.5700 C   0  0  0  0  0  1  0  0  0  0  0  0
  1  3  1  0
  2  4  1  0
  2  5  1  0
  4  6  1  0
  5 56  1  0
  5  1  1  0
  6 12  1  0
  6  3  1  0
  8  7  1  0
  9  7  2  0
 10  8  2  0
 11 12  2  0
 11 10  1  0
 12  9  1  0
 13 10  1  0
 13 15  1  1
 14 13  1  0
 16 13  1  0
 17 11  1  0
 18 24  1  0
 18 26  1  0
 19 24  1  0
 20 19  1  0
 20 21  1  0
 22 21  1  0
 22 23  1  0
 22 31  1  0
 24 23  1  0
 25 18  2  0
 26 17  1  0
 27 26  1  0
 28 53  1  0
 28 29  2  0
 29 48  1  0
 30 33  1  0
 30 29  1  0
 31 32  1  0
 31 28  1  0
 32 30  2  0
 33 34  1  0
 34 35  2  0
 36 39  1  0
 36 35  1  0
 37 36  2  0
 38 37  1  0
 38 33  2  0
 39 40  1  0
 40 41  1  0
 41 42  2  0
 43 42  1  0
 43 47  1  0
 44 43  2  0
 45 40  2  0
 45 44  1  0
 46 45  1  0
 48 49  1  0
 49 51  1  0
 49 52  1  0
 50 48  2  0
 53 54  1  0
 55 53  1  0
 56 57  1  0
 58 56  1  0
 59 56  1  0
 60 59  1  0
 61 60  1  0
 62 64  1  0
 62 61  1  0
 63 74  2  0
 64 69  1  0
 65 75  1  0
 65 73  1  0
 66 68  1  0
 66 72  1  0
 67 73  1  0
 68 67  1  0
 69 68  2  0
 70 71  1  0
 70 64  2  0
 71 66  2  0
 72 65  1  0
 73 63  1  0
 75 77  2  0
 76 75  1  0
 78 76  1  0
 79 88  2  0
 79 84  1  0
 80 76  1  0
 80 84  1  0
 81 80  1  0
 82 83  1  0
 82 81  1  0
 83 79  1  0
 84 85  2  0
 85 86  1  0
 87 86  2  0
 88 87  1  0
 89 63  1  0
 89 99  1  0
 89 90  1  0
 90 93  1  0
 91 90  1  0
 91 95  1  0
 92 91  2  0
 95 94  1  0
 95 97  1  0
 97 98  1  0
 97 96  1  0
 99102  1  1
 99100  1  0
101 99  1  0
M  ISO  4  18 100  26 100  61 101  62 101
M  END
>  <TORSDO>  (26) 
F 23

>  <SCORE>  (26) 
2.982

>  <name>  (26) 
25

>  <ligand_id>  (26) 
25

>  <original_smiles>  (26) 
[H]c1c([H])c(N2C([H])([H])C([H])([H])C([H])([N+]([H])([H])C([H])([H])C([H])([H])C([H])([H])Oc3c([H])c([H])c4c(c3[H])C([H])([H])N(C(=O)C([H])(N([H])C(=O)C([H])(N([H])C([H])([H])[H])C([H])([H])[H])C(C([H])([H])[H])(C([H])([H])[H])C([H])([H])[H])C([H])(C(=O)N([H])C3([H])c5c([H])c([H])c([H])c([H])c5C([H])([H])C([H])([H])C3([H])[H])C4([H])[H])C([H])([H])C2([H])[H])c(C([H])([H])N([H])C(=O)N2C([H])([H])C([H])([H])C([H])([H])C([H])(n3nc(-c4c([H])c([H])c(Oc5c([H])c([H])c(F)c([H])c5F)c([H])c4[H])c(C(=O)N([H])[H])c3N([H])[H])C2([H])[H])c(C(F)(F)F)c1[H]

>  <smiles>  (26) 
[H]c1c([H])c(N2C([H])([H])C([H])([H])C([H])([N+]([H])([H])C([H])([H])C([H])([H])C([H])([H])Oc3c([H])c([H])c4c(c3[H])C([H])([H])N(C(=O)C([H])(N([H])C(=O)C([H])(N([H])C([H])([H])[H])C([H])([H])[H])C(C([H])([H])[H])(C([H])([H])[H])C([H])([H])[H])C([H])(C(=O)N([H])C3([H])c5c([H])c([H])c([H])c([H])c5C([H])([H])C([H])([H])C3([H])[H])C4([H])[H])C([H])([H])C2([H])[H])c(C([H])([H])N([H])C(=O)N2C([H])([H])C([H])([H])C([H])([H])C([H])(n3nc(-c4c([H])c([H])c(Oc5c([H])c([H])c(F)c([H])c5F)c([H])c4[H])c(C(=O)N([H])[H])c3N([H])[H])C2([H])[H])c(C(F)(F)F)c1[H]

$$$$
26:0:0
     RDKit          3D

 93101  0  0  1  0  0  0  0  0999 V2000
  -30.3100  -20.0870   19.8220 C   0  0  0  0  0  3  0  0  0  0  0  0
  -28.3640  -18.1570   20.1310 C   0  0  0  0  0  3  0  0  0  0  0  0
  -30.6700  -18.6590   19.8980 C   0  0  0  0  0  0  0  0  0  0  0  0
  -29.6810  -17.5970   20.0670 C   0  0  0  0  0  0  0  0  0  0  0  0
  -28.9720  -20.6140   19.8730 C   0  0  0  0  0  0  0  0  0  0  0  0
  -28.0280  -19.5540   20.0350 C   0  0  0  0  0  0  0  0  0  0  0  0
  -26.7150  -19.8870   20.0990 F   0  0  0  0  0  0  0  0  0  0  0  0
  -30.6110  -14.9550   19.8780 C   0  0  0  0  0  0  0  0  0  0  0  0
  -30.4570  -12.6080   18.9410 C   0  0  0  0  0  2  0  0  0  0  0  0
  -29.4390  -12.5810   17.7760 C   0  0  0  0  0  2  0  0  0  0  0  0
  -28.0060  -12.3720   18.3030 C   0  0  0  0  0  2  0  0  0  0  0  0
  -27.6810  -13.2900   19.5090 C   0  0  0  0  0  3  0  0  0  0  0  0
  -28.8090  -13.2740   20.5630 C   0  0  0  0  0  2  0  0  0  0  0  0
  -30.0460  -13.6840   19.8820 N   0  0  0  0  0  0  0  0  0  0  0  0
  -31.7800  -15.0560   19.4960 O   0  0  0  0  0  0  0  0  0  0  0  0
  -29.7660  -16.0580   20.1570 N   0  0  0  0  0  0  0  0  0  0  0  0
  -28.8940  -15.6760   20.4880 H   0  0  0  0  0  0  0  0  0  0  0  0
  -25.3670  -13.8810   20.4340 C   0  0  0  0  0  0  0  0  0  0  0  0
  -24.3210  -13.1080   20.8570 C   0  0  0  0  0  0  0  0  0  0  0  0
  -24.7610  -11.7530   20.7500 C   0  0  0  0  0  0  0  0  0  0  0  0
  -26.3760  -12.9970   20.0920 N   0  0  0  0  0  0  0  0  0  0  0  0
  -26.0250  -11.7090   20.3460 N   0  0  0  0  0  0  0  0  0  0  0  0
  -24.0310  -10.4940   20.9500 C   0  0  0  0  0  0  0  0  0  0  0  0
  -24.4850   -9.5130   21.8600 C   0  0  0  0  0  3  0  0  0  0  0  0
  -23.7530   -8.3200   22.0500 C   0  0  0  0  0  3  0  0  0  0  0  0
  -22.5560   -8.0990   21.3300 C   0  0  0  0  0  0  0  0  0  0  0  0
  -22.1220   -9.0680   20.4070 C   0  0  0  0  0  3  0  0  0  0  0  0
  -22.8530  -10.2530   20.2150 C   0  0  0  0  0  3  0  0  0  0  0  0
  -21.7950   -6.9580   21.4300 O   0  0  0  0  0  0  0  0  0  0  0  0
  -21.7290   -6.2380   22.5950 C   0  0  0  0  0  0  0  0  0  0  0  0
  -21.2640   -6.8100   23.7990 C   0  0  0  0  0  3  0  0  0  0  0  0
  -21.1450   -6.0150   24.9570 C   0  0  0  0  0  3  0  0  0  0  0  0
  -21.4840   -4.6490   24.9110 C   0  0  0  0  0  0  0  0  0  0  0  0
  -21.9440   -4.0770   23.7110 C   0  0  0  0  0  3  0  0  0  0  0  0
  -22.0630   -4.8690   22.5570 C   0  0  0  0  0  0  0  0  0  0  0  0
  -22.4860   -4.3080   21.3970 F   0  0  0  0  0  0  0  0  0  0  0  0
  -21.3640   -3.8830   26.0210 F   0  0  0  0  0  0  0  0  0  0  0  0
  -22.9530  -13.5930   21.2400 C   0  0  0  0  0  0  0  0  0  0  0  0
  -22.2830  -12.8900   22.1450 N   0  0  0  0  0  0  0  0  0  0  0  0
  -22.4890  -14.6320   20.7710 O   0  0  0  0  0  0  0  0  0  0  0  0
  -22.6720  -12.0490   22.5470 H   0  0  0  0  0  0  0  0  0  0  0  0
  -21.3680  -13.1960   22.4430 H   0  0  0  0  0  0  0  0  0  0  0  0
  -25.5380  -15.2540   20.2850 N   0  0  0  0  0  0  0  0  0  0  0  0
  -24.7800  -15.9070   20.4590 H   0  0  0  0  0  0  0  0  0  0  0  0
  -26.3200  -15.6810   19.8060 H   0  0  0  0  0  0  0  0  0  0  0  0
  -32.1510  -18.3110   19.7660 C   0  0  1  0  0  0  0  0  0  0  0  0
  -32.9130  -19.3900   19.5700 F   0  0  0  0  0  0  0  0  0  0  0  0
  -32.5800  -17.7210   20.8790 F   0  0  0  0  0  0  0  0  0  0  0  0
  -32.3350  -17.5080   18.7190 F   0  0  0  0  0  0  0  0  0  0  0  0
  -28.4450  -21.9740   19.7420 O   0  0  0  0  0  0  0  0  0  0  0  0
  -29.0690  -23.3690   19.7540 C   0  0  0  0  0  3  0  0  0  0  0  0
  -28.0810  -24.7110   19.5210 C   0  0  0  0  0  3  0  0  0  0  0  0
  -28.3360  -26.2200   19.7800 O   0  0  0  0  0  0  0  0  0  0  0  0
  -24.5610  -31.6230   23.0610 C   0  0  0  0  0  0  0  0  0  0  0  0
  -27.2490  -27.1660   19.7710 C   0  0  0  0  0  0  0  0  0  0  0  0
  -23.3930  -30.2980   21.3430 C   0  0  0  0  0  3  0  0  0  0  0  0
  -24.8770  -28.8430   19.8360 C   0  0  0  0  0  0  0  0  0  0  0  0
  -25.9400  -30.6320   21.1980 C   0  0  0  0  0  2  0  0  0  0  0  0
  -26.0460  -29.2850   20.4690 C   0  0  0  0  0  0  0  0  0  0  0  0
  -27.2330  -28.4650   20.4190 C   0  0  0  0  0  3  0  0  0  0  0  0
  -26.0480  -26.8220   19.1110 C   0  0  0  0  0  3  0  0  0  0  0  0
  -24.8890  -27.6240   19.1440 C   0  0  0  0  0  3  0  0  0  0  0  0
  -23.6300  -29.7060   19.9290 C   0  0  0  0  0  2  0  0  0  0  0  0
  -24.6510  -30.8690   21.9230 N   0  0  0  0  0  0  0  0  0  0  0  0
  -23.4680  -31.8560   23.6000 O   0  0  0  0  0  0  0  0  0  0  0  0
  -22.7350  -29.2220   22.2430 C   0  0  0  0  0  0  0  0  0  0  0  0
  -21.4060  -29.0510   22.1200 N   0  0  0  0  0  0  0  0  0  0  0  0
  -23.4200  -28.5490   23.0160 O   0  0  0  0  0  0  0  0  0  0  0  0
  -20.9090  -29.6490   21.4760 H   0  0  0  0  0  0  0  0  0  0  0  0
  -18.0330  -27.8310   22.6190 C   0  0  0  0  0  0  0  0  0  0  0  0
  -20.5990  -28.0600   22.8380 C   0  0  0  0  0  3  0  0  0  0  0  0
  -20.6760  -26.6760   22.1530 C   0  0  0  0  0  2  0  0  0  0  0  0
  -19.5450  -26.4370   21.1460 C   0  0  0  0  0  2  0  0  0  0  0  0
  -18.1830  -26.5380   21.8360 C   0  0  0  0  0  2  0  0  0  0  0  0
  -19.1670  -28.5540   23.0760 C   0  0  0  0  0  0  0  0  0  0  0  0
  -18.9700  -29.7650   23.7720 C   0  0  0  0  0  3  0  0  0  0  0  0
  -17.6730  -30.2550   24.0140 C   0  0  0  0  0  3  0  0  0  0  0  0
  -16.5540  -29.5290   23.5710 C   0  0  0  0  0  3  0  0  0  0  0  0
  -16.7350  -28.3180   22.8790 C   0  0  0  0  0  3  0  0  0  0  0  0
  -25.8240  -32.2470   23.7280 C   0  0  0  0  0  3  0  0  0  0  0  0
  -26.3230  -31.4410   24.9900 C   0  0  1  0  0  0  0  0  0  0  0  0
  -25.2140  -31.1680   26.0320 C   0  0  0  0  0  1  0  0  0  0  0  0
  -26.9190  -30.0770   24.5700 C   0  0  0  0  0  1  0  0  0  0  0  0
  -27.4590  -32.2200   25.6940 C   0  0  0  0  0  1  0  0  0  0  0  0
  -25.4970  -33.6320   24.1000 N   0  0  0  0  0  0  0  0  0  0  0  0
  -25.8070  -34.7130   23.3730 C   0  0  0  0  0  0  0  0  0  0  0  0
  -26.4660  -34.6510   22.3320 O   0  0  0  0  0  0  0  0  0  0  0  0
  -24.9070  -33.7540   24.9110 H   0  0  0  0  0  0  0  0  0  0  0  0
  -24.0390  -36.4850   23.1140 C   0  0  0  0  0  1  0  0  0  0  0  0
  -25.3080  -36.0810   23.8800 C   0  0  0  0  0  3  0  0  0  0  0  0
  -27.4420  -36.9890   24.6870 C   0  0  0  0  0  1  0  0  0  0  0  0
  -26.3200  -37.1550   23.7670 N   0  0  0  0  0  0  0  0  0  0  0  0
  -25.9000  -38.0640   23.9400 H   0  0  0  0  0  0  0  0  0  0  0  0
  1  5  2  0
  1  3  1  0
  3  4  2  0
  4  2  1  0
  4 16  1  0
  5  6  1  0
  6  7  1  0
  6  2  2  0
  8 14  1  0
  8 16  1  0
  9 14  1  0
 10 11  1  0
 10  9  1  0
 12 11  1  0
 12 21  1  0
 12 13  1  0
 14 13  1  0
 15  8  2  0
 16 17  1  0
 18 19  2  0
 19 38  1  0
 20 19  1  0
 20 23  1  0
 21 22  1  0
 21 18  1  0
 22 20  2  0
 23 24  1  0
 24 25  2  0
 26 29  1  0
 26 25  1  0
 27 26  2  0
 28 27  1  0
 28 23  2  0
 29 30  1  0
 30 31  1  0
 31 32  2  0
 33 32  1  0
 33 37  1  0
 34 33  2  0
 35 30  2  0
 35 34  1  0
 36 35  1  0
 38 39  1  0
 39 42  1  0
 39 41  1  0
 40 38  2  0
 43 18  1  0
 43 44  1  0
 45 43  1  0
 46  3  1  0
 46 48  1  1
 47 46  1  0
 49 46  1  0
 50 51  1  0
 50  5  1  0
 52 51  2  0
 52 53  1  0
 54 65  2  0
 55 53  1  0
 55 60  1  0
 56 64  1  0
 56 66  1  0
 57 63  1  0
 57 59  1  0
 58 64  1  0
 59 58  1  0
 60 59  2  0
 61 62  1  0
 61 55  2  0
 62 57  2  0
 63 56  1  0
 64 54  1  0
 66 68  2  0
 67 66  1  0
 69 67  1  0
 70 79  2  0
 70 75  1  0
 71 67  1  0
 71 75  1  0
 72 71  1  0
 73 74  1  0
 73 72  1  0
 74 70  1  0
 75 76  2  0
 76 77  1  0
 78 77  2  0
 79 78  1  0
 80 54  1  0
 80 85  1  0
 80 81  1  0
 81 84  1  1
 81 82  1  0
 83 81  1  0
 85 88  1  0
 86 90  1  0
 86 85  1  0
 87 86  2  0
 90 89  1  0
 92 90  1  0
 92 93  1  0
 92 91  1  0
M  ISO  4   8 100  16 100  52 101  53 101
M  END
>  <TORSDO>  (27) 
F 20

>  <SCORE>  (27) 
-13.202

>  <name>  (27) 
26

>  <ligand_id>  (27) 
26

>  <original_smiles>  (27) 
[H]c1c([H])c([H])c2c(c1[H])C([H])([H])C([H])([H])C([H])([H])C2([H])N([H])C(=O)C1([H])N(C(=O)C([H])(N([H])C(=O)C([H])(N([H])C([H])([H])[H])C([H])([H])[H])C(C([H])([H])[H])(C([H])([H])[H])C([H])([H])[H])C([H])([H])c2c([H])c(OC([H])([H])C([H])([H])Oc3c([H])c(C(F)(F)F)c(N([H])C(=O)N4C([H])([H])C([H])([H])C([H])([H])C([H])(n5nc(-c6c([H])c([H])c(Oc7c([H])c([H])c(F)c([H])c7F)c([H])c6[H])c(C(=O)N([H])[H])c5N([H])[H])C4([H])[H])c([H])c3F)c([H])c([H])c2C1([H])[H]

>  <smiles>  (27) 
[H]c1c([H])c([H])c2c(c1[H])C([H])([H])C([H])([H])C([H])([H])C2([H])N([H])C(=O)C1([H])N(C(=O)C([H])(N([H])C(=O)C([H])(N([H])C([H])([H])[H])C([H])([H])[H])C(C([H])([H])[H])(C([H])([H])[H])C([H])([H])[H])C([H])([H])c2c([H])c(OC([H])([H])C([H])([H])Oc3c([H])c(C(F)(F)F)c(N([H])C(=O)N4C([H])([H])C([H])([H])C([H])([H])C([H])(n5nc(-c6c([H])c([H])c(Oc7c([H])c([H])c(F)c([H])c7F)c([H])c6[H])c(C(=O)N([H])[H])c5N([H])[H])C4([H])[H])c([H])c3F)c([H])c([H])c2C1([H])[H]

$$$$
27:0:0
     RDKit          3D

122133  0  0  1  0  0  0  0  0999 V2000
  -32.9020  -19.7730   20.5170 C   0  0  0  0  0  2  0  0  0  0  0  0
  -32.6610  -21.1980   20.0220 C   0  0  0  0  0  2  0  0  0  0  0  0
  -32.3330  -19.6550   21.9330 C   0  0  0  0  0  2  0  0  0  0  0  0
  -31.1590  -21.5210   20.0250 C   0  0  0  0  0  2  0  0  0  0  0  0
  -30.8240  -20.0000   21.9850 C   0  0  0  0  0  3  0  0  0  0  0  0
  -30.5100  -21.3290   21.3580 N   0  0  2  0  0  4  0  0  0  0  0  0
  -30.8930  -22.0070   22.0000 H   0  0  0  0  0  0  0  0  0  0  0  0
  -30.3630  -19.9620   23.4540 C   0  0  0  0  0  0  0  0  0  0  0  0
  -30.5050  -18.8040   24.1110 N   0  0  0  0  0  0  0  0  0  0  0  0
  -29.8290  -20.9550   23.9530 O   0  0  0  0  0  0  0  0  0  0  0  0
  -31.0190  -18.0620   23.6560 H   0  0  0  0  0  0  0  0  0  0  0  0
  -29.8460  -18.4680   25.3720 C   0  0  0  0  0  2  0  0  0  0  0  0
  -28.3840  -18.0320   25.1330 C   0  0  0  0  0  2  0  0  0  0  0  0
  -28.2150  -17.0350   23.9650 C   0  0  0  0  0  2  0  0  0  0  0  0
  -27.1140  -17.4510   22.9730 C   0  0  0  0  0  2  0  0  0  0  0  0
  -27.0180  -16.5540   21.7190 C   0  0  0  0  0  2  0  0  0  0  0  0
  -29.0630  -17.1550   20.4380 C   0  0  0  0  0  0  0  0  0  0  0  0
  -28.3290  -16.2770   21.1300 N   0  0  0  0  0  4  0  0  0  0  0  0
  -28.6290  -18.2550   20.0950 O   0  0  0  0  0  0  0  0  0  0  0  0
  -28.7270  -15.3630   21.2950 H   0  0  0  0  0  0  0  0  0  0  0  0
  -32.5430  -17.2270   18.8670 C   0  0  0  0  0  3  0  0  0  0  0  0
  -31.2020  -17.5280   19.1590 C   0  0  0  0  0  3  0  0  0  0  0  0
  -33.1660  -16.1280   19.4800 C   0  0  0  0  0  3  0  0  0  0  0  0
  -31.1120  -15.6550   20.7150 C   0  0  0  0  0  3  0  0  0  0  0  0
  -30.4760  -16.7600   20.0990 C   0  0  0  0  0  0  0  0  0  0  0  0
  -32.4400  -15.3110   20.3820 C   0  0  0  0  0  0  0  0  0  0  0  0
  -33.3460  -13.0810   20.1270 C   0  0  0  0  0  0  0  0  0  0  0  0
  -32.5020  -11.2170   18.7610 C   0  0  0  0  0  2  0  0  0  0  0  0
  -31.6820  -11.7960   17.5900 C   0  0  0  0  0  2  0  0  0  0  0  0
  -30.2150  -12.0270   18.0030 C   0  0  0  0  0  2  0  0  0  0  0  0
  -30.0860  -12.7980   19.3440 C   0  0  0  0  0  3  0  0  0  0  0  0
  -31.0100  -12.1780   20.4200 C   0  0  0  0  0  2  0  0  0  0  0  0
  -32.3890  -12.1450   19.8940 N   0  0  0  0  0  0  0  0  0  0  0  0
  -34.4520  -13.0850   19.5770 O   0  0  0  0  0  0  0  0  0  0  0  0
  -32.9600  -14.0980   20.9070 N   0  0  0  0  0  0  0  0  0  0  0  0
  -32.4530  -13.7820   21.7200 H   0  0  0  0  0  0  0  0  0  0  0  0
  -27.8630  -13.9620   19.9250 C   0  0  0  0  0  0  0  0  0  0  0  0
  -26.6490  -13.4710   20.3190 C   0  0  0  0  0  0  0  0  0  0  0  0
  -26.8070  -12.0530   20.3970 C   0  0  0  0  0  0  0  0  0  0  0  0
  -28.6980  -12.8630   19.7940 N   0  0  0  0  0  0  0  0  0  0  0  0
  -28.0610  -11.7120   20.1290 N   0  0  0  0  0  0  0  0  0  0  0  0
  -25.8230  -10.9960   20.6560 C   0  0  0  0  0  0  0  0  0  0  0  0
  -26.0140  -10.0460   21.6830 C   0  0  0  0  0  3  0  0  0  0  0  0
  -25.0440   -9.0480   21.9250 C   0  0  0  0  0  3  0  0  0  0  0  0
  -23.8690   -8.9970   21.1390 C   0  0  0  0  0  0  0  0  0  0  0  0
  -23.6920   -9.9320   20.1040 C   0  0  0  0  0  3  0  0  0  0  0  0
  -24.6610  -10.9210   19.8610 C   0  0  0  0  0  3  0  0  0  0  0  0
  -22.8840   -8.0500   21.2860 O   0  0  0  0  0  0  0  0  0  0  0  0
  -22.6180   -7.4700   22.5000 C   0  0  0  0  0  0  0  0  0  0  0  0
  -22.2370   -8.2350   23.6240 C   0  0  0  0  0  3  0  0  0  0  0  0
  -21.9060   -7.5940   24.8340 C   0  0  0  0  0  3  0  0  0  0  0  0
  -21.9470   -6.1890   24.9200 C   0  0  0  0  0  0  0  0  0  0  0  0
  -22.3210   -5.4260   23.8000 C   0  0  0  0  0  3  0  0  0  0  0  0
  -22.6550   -6.0640   22.5940 C   0  0  0  0  0  0  0  0  0  0  0  0
  -22.9960   -5.3240   21.5110 F   0  0  0  0  0  0  0  0  0  0  0  0
  -21.6190   -5.5710   26.0780 F   0  0  0  0  0  0  0  0  0  0  0  0
  -25.3870  -14.2580   20.5200 C   0  0  0  0  0  0  0  0  0  0  0  0
  -24.5240  -13.8170   21.4280 N   0  0  0  0  0  0  0  0  0  0  0  0
  -25.1810  -15.3030   19.9030 O   0  0  0  0  0  0  0  0  0  0  0  0
  -24.7010  -12.9720   21.9510 H   0  0  0  0  0  0  0  0  0  0  0  0
  -23.6740  -14.3340   21.6050 H   0  0  0  0  0  0  0  0  0  0  0  0
  -28.3130  -15.2470   19.6470 N   0  0  0  0  0  4  0  0  0  0  0  0
  -27.6860  -16.0420   19.6600 H   0  0  0  0  0  0  0  0  0  0  0  0
  -29.2430  -15.4750   19.3170 H   0  0  0  0  0  0  0  0  0  0  0  0
  -29.0420  -21.6130   21.2850 C   0  0  0  0  0  2  0  0  0  0  0  0
  -28.7020  -22.8640   20.4850 C   0  0  0  0  0  0  0  0  0  0  0  0
  -28.6390  -22.8430   19.2230 N   0  0  0  0  0  0  0  0  0  0  0  0
  -28.3920  -23.7480   18.8340 H   0  0  0  0  0  0  0  0  0  0  0  0
  -28.4290  -24.1420   21.2760 C   0  0  0  0  0  2  0  0  0  0  0  0
  -24.7570  -24.3030   21.8350 C   0  0  0  0  0  2  0  0  0  0  0  0
  -25.3140  -25.1360   22.9830 C   0  0  0  0  0  2  0  0  0  0  0  0
  -25.9990  -23.8100   21.0880 C   0  0  0  0  0  2  0  0  0  0  0  0
  -26.7280  -25.4780   22.5190 C   0  0  0  0  0  3  0  0  0  0  0  0
  -27.1240  -24.1860   21.9490 N   0  0  0  0  0  0  0  0  0  0  0  0
  -27.6530  -26.0020   23.6460 C   0  0  0  0  0  2  0  0  0  0  0  0
  -28.1450  -27.3590   23.3230 N   0  0  0  0  0  4  0  0  0  0  0  0
  -27.5200  -28.0070   23.7790 H   0  0  0  0  0  0  0  0  0  0  0  0
  -28.0650  -27.5170   22.3300 H   0  0  0  0  0  0  0  0  0  0  0  0
  -29.5320  -27.6830   23.7320 C   0  0  0  0  0  2  0  0  0  0  0  0
  -30.5690  -27.3940   22.6250 C   0  0  0  0  0  2  0  0  0  0  0  0
  -30.4240  -28.1820   21.2970 C   0  0  0  0  0  2  0  0  0  0  0  0
  -29.3350  -27.7390   20.4780 O   0  0  0  0  0  0  0  0  0  0  0  0
  -24.8510  -32.2850   23.6770 C   0  0  0  0  0  0  0  0  0  0  0  0
  -28.1300  -28.4160   20.4780 C   0  0  0  0  0  0  0  0  0  0  0  0
  -23.8830  -30.8880   21.8750 C   0  0  0  0  0  3  0  0  0  0  0  0
  -25.5660  -29.6140   20.4430 C   0  0  0  0  0  0  0  0  0  0  0  0
  -26.3520  -31.5330   21.8430 C   0  0  0  0  0  2  0  0  0  0  0  0
  -26.6180  -30.2260   21.1320 C   0  0  0  0  0  0  0  0  0  0  0  0
  -27.8960  -29.6370   21.1520 C   0  0  0  0  0  3  0  0  0  0  0  0
  -27.0600  -27.8180   19.7750 C   0  0  0  0  0  3  0  0  0  0  0  0
  -25.7800  -28.4040   19.7590 C   0  0  0  0  0  3  0  0  0  0  0  0
  -24.2310  -30.3240   20.4690 C   0  0  0  0  0  2  0  0  0  0  0  0
  -25.0420  -31.5790   22.5270 N   0  0  0  0  0  0  0  0  0  0  0  0
  -23.7220  -32.4060   24.1720 O   0  0  0  0  0  0  0  0  0  0  0  0
  -23.2980  -29.7410   22.7270 C   0  0  0  0  0  0  0  0  0  0  0  0
  -22.0060  -29.4440   22.5140 N   0  0  0  0  0  0  0  0  0  0  0  0
  -24.0060  -29.1230   23.5270 O   0  0  0  0  0  0  0  0  0  0  0  0
  -21.4970  -30.0030   21.8440 H   0  0  0  0  0  0  0  0  0  0  0  0
  -18.7460  -27.9060   22.7220 C   0  0  0  0  0  0  0  0  0  0  0  0
  -21.2480  -28.3780   23.1660 C   0  0  0  0  0  3  0  0  0  0  0  0
  -21.5210  -27.0100   22.4970 C   0  0  0  0  0  2  0  0  0  0  0  0
  -20.5090  -26.6640   21.3990 C   0  0  0  0  0  2  0  0  0  0  0  0
  -19.0890  -26.6320   21.9680 C   0  0  0  0  0  2  0  0  0  0  0  0
  -19.7610  -28.7330   23.2710 C   0  0  0  0  0  0  0  0  0  0  0  0
  -19.3900  -29.9240   23.9320 C   0  0  0  0  0  3  0  0  0  0  0  0
  -18.0350  -30.2890   24.0520 C   0  0  0  0  0  3  0  0  0  0  0  0
  -17.0340  -29.4570   23.5220 C   0  0  0  0  0  3  0  0  0  0  0  0
  -17.3890  -28.2660   22.8630 C   0  0  0  0  0  3  0  0  0  0  0  0
  -26.0350  -32.9890   24.4140 C   0  0  0  0  0  3  0  0  0  0  0  0
  -26.5070  -32.2230   25.7100 C   0  0  1  0  0  0  0  0  0  0  0  0
  -25.3550  -31.8750   26.6800 C   0  0  0  0  0  1  0  0  0  0  0  0
  -27.2230  -30.9050   25.3310 C   0  0  0  0  0  1  0  0  0  0  0  0
  -27.5360  -33.0840   26.4820 C   0  0  0  0  0  1  0  0  0  0  0  0
  -25.6000  -34.3520   24.7430 N   0  0  0  0  0  0  0  0  0  0  0  0
  -25.9100  -35.4410   24.0270 C   0  0  0  0  0  0  0  0  0  0  0  0
  -26.6610  -35.4090   23.0480 O   0  0  0  0  0  0  0  0  0  0  0  0
  -24.9360  -34.4460   25.4980 H   0  0  0  0  0  0  0  0  0  0  0  0
  -24.0770  -37.1000   23.5760 C   0  0  0  0  0  1  0  0  0  0  0  0
  -25.2880  -36.7790   24.4660 C   0  0  0  0  0  3  0  0  0  0  0  0
  -27.2920  -37.8050   25.4470 C   0  0  0  0  0  1  0  0  0  0  0  0
  -26.2430  -37.9080   24.4370 N   0  0  0  0  0  0  0  0  0  0  0  0
  -25.7590  -38.7920   24.5730 H   0  0  0  0  0  0  0  0  0  0  0  0
  1  3  1  0
  2  4  1  0
  2  1  1  0
  3  5  1  0
  4  6  1  0
  5  8  1  0
  6  5  1  0
  6  7  1  1
  8 10  2  0
  8  9  1  0
  9 12  1  0
 11  9  1  0
 13 12  1  0
 14 13  1  0
 15 14  1  0
 16 15  1  0
 17 18  1  0
 18 20  1  0
 18 16  1  0
 19 17  2  0
 21 22  2  0
 21 23  1  0
 22 25  1  0
 23 26  2  0
 25 17  1  0
 25 24  2  0
 26 24  1  0
 26 35  1  0
 27 35  1  0
 28 33  1  0
 29 30  1  0
 29 28  1  0
 31 30  1  0
 31 40  1  0
 31 32  1  0
 33 27  1  0
 33 32  1  0
 34 27  2  0
 35 36  1  0
 37 38  2  0
 38 39  1  0
 38 57  1  0
 39 42  1  0
 40 37  1  0
 40 41  1  0
 41 39  2  0
 42 43  1  0
 43 44  2  0
 45 48  1  0
 45 44  1  0
 46 45  2  0
 47 46  1  0
 47 42  2  0
 48 49  1  0
 49 54  2  0
 49 50  1  0
 50 51  2  0
 51 52  1  0
 52 56  1  0
 53 52  2  0
 54 53  1  0
 55 54  1  0
 57 58  1  0
 58 61  1  0
 58 60  1  0
 59 57  2  0
 62 63  1  0
 62 37  1  0
 62 18  1  0
 64 62  1  0
 65  6  1  0
 66 69  1  0
 66 65  1  0
 67 66  2  0
 68 67  1  0
 69 74  1  0
 70 71  1  0
 72 70  1  0
 72 74  1  0
 73 71  1  0
 73 75  1  0
 74 73  1  0
 76 75  1  0
 76 79  1  0
 76 77  1  0
 78 76  1  0
 80 79  1  0
 81 80  1  0
 82 84  1  0
 82 81  1  0
 83 94  2  0
 84 89  1  0
 85 93  1  0
 85 95  1  0
 86 92  1  0
 86 88  1  0
 87 93  1  0
 88 89  2  0
 88 87  1  0
 90 84  2  0
 91 90  1  0
 91 86  2  0
 92 85  1  0
 93 83  1  0
 95 97  2  0
 96 95  1  0
 98 96  1  0
 99108  2  0
 99104  1  0
100 96  1  0
100104  1  0
101100  1  0
102103  1  0
102101  1  0
103 99  1  0
104105  2  0
105106  1  0
107106  2  0
108107  1  0
109 83  1  0
109114  1  0
109110  1  0
110113  1  1
110111  1  0
112110  1  0
114117  1  0
115119  1  0
115114  1  0
116115  2  0
119118  1  0
121119  1  0
121122  1  0
121120  1  0
M  ISO  4  27 100  35 100  81 101  82 101
M  END
>  <TORSDO>  (28) 
F 33

>  <SCORE>  (28) 
14.652

>  <name>  (28) 
27

>  <ligand_id>  (28) 
27

>  <original_smiles>  (28) 
[H]N=C(C([H])([H])N1C([H])([H])C([H])([H])C([H])([H])C1([H])C([H])([H])[N+]([H])([H])C([H])([H])C([H])([H])C([H])([H])Oc1c([H])c([H])c2c(c1[H])C([H])([H])N(C(=O)C([H])(N([H])C(=O)C([H])(N([H])C([H])([H])[H])C([H])([H])[H])C(C([H])([H])[H])(C([H])([H])[H])C([H])([H])[H])C([H])(C(=O)N([H])C1([H])c3c([H])c([H])c([H])c([H])c3C([H])([H])C([H])([H])C1([H])[H])C2([H])[H])C([H])([H])[N+]1([H])C([H])([H])C([H])([H])C([H])([H])C([H])([H])C1([H])C(=O)N([H])C([H])([H])C([H])([H])C([H])([H])C([H])([H])C([H])([H])N([H])C(=O)c1c([H])c([H])c([H])c(N([H])C(=O)N2C([H])([H])C([H])([H])C([H])([H])C([H])(n3nc(-c4c([H])c([H])c(Oc5c([H])c([H])c(F)c([H])c5F)c([H])c4[H])c(C(=O)N([H])[H])c3N([H])[H])C2([H])[H])c1[H]

>  <smiles>  (28) 
[H]N=C(C([H])([H])N1C([H])([H])C([H])([H])C([H])([H])C1([H])C([H])([H])[N+]([H])([H])C([H])([H])C([H])([H])C([H])([H])Oc1c([H])c([H])c2c(c1[H])C([H])([H])N(C(=O)C([H])(N([H])C(=O)C([H])(N([H])C([H])([H])[H])C([H])([H])[H])C(C([H])([H])[H])(C([H])([H])[H])C([H])([H])[H])C([H])(C(=O)N([H])C1([H])c3c([H])c([H])c([H])c([H])c3C([H])([H])C([H])([H])C1([H])[H])C2([H])[H])C([H])([H])[N+]1([H])C([H])([H])C([H])([H])C([H])([H])C([H])([H])C1([H])C(=O)N([H])C([H])([H])C([H])([H])C([H])([H])C([H])([H])C([H])([H])N([H])C(=O)c1c([H])c([H])c([H])c(N([H])C(=O)N2C([H])([H])C([H])([H])C([H])([H])C([H])(n3nc(-c4c([H])c([H])c(Oc5c([H])c([H])c(F)c([H])c5F)c([H])c4[H])c(C(=O)N([H])[H])c3N([H])[H])C2([H])[H])c1[H]

$$$$
28:0:0
     RDKit          3D

100109  0  0  1  0  0  0  0  0999 V2000
  -30.0880  -22.8650   22.7180 C   0  0  0  0  0  2  0  0  0  0  0  0
  -30.1550  -22.8660   20.1820 C   0  0  0  0  0  2  0  0  0  0  0  0
  -30.7860  -21.4850   22.6980 C   0  0  0  0  0  2  0  0  0  0  0  0
  -30.8990  -21.5190   20.2370 C   0  0  0  0  0  2  0  0  0  0  0  0
  -30.3810  -23.7180   21.4530 C   0  0  0  0  0  3  0  0  0  0  0  0
  -30.4940  -20.8060   21.4410 N   0  0  0  0  0  0  0  0  0  0  0  0
  -31.6060  -18.7040   21.9470 C   0  0  0  0  0  3  0  0  0  0  0  0
  -31.6770  -17.2960   21.9070 C   0  0  0  0  0  3  0  0  0  0  0  0
  -29.5240  -17.2360   20.7860 C   0  0  0  0  0  3  0  0  0  0  0  0
  -29.4400  -18.6480   20.8090 C   0  0  0  0  0  0  0  0  0  0  0  0
  -30.5010  -19.3970   21.4000 C   0  0  0  0  0  0  0  0  0  0  0  0
  -30.6390  -16.5510   21.3060 C   0  0  0  0  0  0  0  0  0  0  0  0
  -31.0890  -14.3860   20.1940 C   0  0  0  0  0  0  0  0  0  0  0  0
  -30.6720  -12.3480   18.8600 C   0  0  0  0  0  2  0  0  0  0  0  0
  -29.7000  -12.6540   17.7040 C   0  0  0  0  0  2  0  0  0  0  0  0
  -28.2360  -12.5270   18.1670 C   0  0  0  0  0  2  0  0  0  0  0  0
  -27.9630  -13.3100   19.4780 C   0  0  0  0  0  3  0  0  0  0  0  0
  -29.0310  -12.9720   20.5430 C   0  0  0  0  0  2  0  0  0  0  0  0
  -30.3660  -13.2550   19.9770 N   0  0  0  0  0  0  0  0  0  0  0  0
  -32.0960  -14.6820   19.5410 O   0  0  0  0  0  0  0  0  0  0  0  0
  -30.6440  -15.1320   21.2170 N   0  0  0  0  0  0  0  0  0  0  0  0
  -29.9220  -14.6640   21.7450 H   0  0  0  0  0  0  0  0  0  0  0  0
  -25.5830  -13.9570   20.2220 C   0  0  0  0  0  0  0  0  0  0  0  0
  -24.5110  -13.2030   20.6200 C   0  0  0  0  0  0  0  0  0  0  0  0
  -24.9540  -11.8460   20.5910 C   0  0  0  0  0  0  0  0  0  0  0  0
  -26.6120  -13.0610   19.9780 N   0  0  0  0  0  0  0  0  0  0  0  0
  -26.2360  -11.7870   20.2550 N   0  0  0  0  0  0  0  0  0  0  0  0
  -24.2180  -10.5940   20.8090 C   0  0  0  0  0  0  0  0  0  0  0  0
  -24.6270   -9.6550   21.7810 C   0  0  0  0  0  3  0  0  0  0  0  0
  -23.8930   -8.4660   21.9830 C   0  0  0  0  0  3  0  0  0  0  0  0
  -22.7340   -8.2090   21.2130 C   0  0  0  0  0  0  0  0  0  0  0  0
  -22.3430   -9.1370   20.2310 C   0  0  0  0  0  3  0  0  0  0  0  0
  -23.0790  -10.3170   20.0280 C   0  0  0  0  0  3  0  0  0  0  0  0
  -21.9750   -7.0690   21.3210 O   0  0  0  0  0  0  0  0  0  0  0  0
  -21.8170   -6.4220   22.5200 C   0  0  0  0  0  0  0  0  0  0  0  0
  -21.3360   -7.0870   23.6690 C   0  0  0  0  0  3  0  0  0  0  0  0
  -21.1180   -6.3680   24.8610 C   0  0  0  0  0  3  0  0  0  0  0  0
  -21.3730   -4.9830   24.9040 C   0  0  0  0  0  0  0  0  0  0  0  0
  -21.8480   -4.3180   23.7600 C   0  0  0  0  0  3  0  0  0  0  0  0
  -22.0650   -5.0360   22.5710 C   0  0  0  0  0  0  0  0  0  0  0  0
  -22.5010   -4.3860   21.4650 F   0  0  0  0  0  0  0  0  0  0  0  0
  -21.1590   -4.2890   26.0470 F   0  0  0  0  0  0  0  0  0  0  0  0
  -23.1270  -13.7020   20.9190 C   0  0  0  0  0  0  0  0  0  0  0  0
  -22.4170  -13.0390   21.8250 N   0  0  0  0  0  0  0  0  0  0  0  0
  -22.6820  -14.7160   20.3830 O   0  0  0  0  0  0  0  0  0  0  0  0
  -22.7870  -12.2170   22.2800 H   0  0  0  0  0  0  0  0  0  0  0  0
  -21.4900  -13.3580   22.0660 H   0  0  0  0  0  0  0  0  0  0  0  0
  -25.7630  -15.3240   20.0280 N   0  0  0  0  0  0  0  0  0  0  0  0
  -25.0090  -15.9910   20.1480 H   0  0  0  0  0  0  0  0  0  0  0  0
  -26.6120  -15.7460   19.6740 H   0  0  0  0  0  0  0  0  0  0  0  0
  -28.1760  -19.2630   20.1970 C   0  0  1  0  0  0  0  0  0  0  0  0
  -27.9530  -18.7220   18.9980 F   0  0  0  0  0  0  0  0  0  0  0  0
  -27.1350  -18.9640   20.9760 F   0  0  0  0  0  0  0  0  0  0  0  0
  -28.1960  -20.5840   20.0290 F   0  0  0  0  0  0  0  0  0  0  0  0
  -29.5080  -24.9180   21.4020 N   0  0  0  0  0  4  0  0  0  0  0  0
  -28.7480  -24.7910   22.0510 H   0  0  0  0  0  0  0  0  0  0  0  0
  -29.1020  -24.9690   20.4780 H   0  0  0  0  0  0  0  0  0  0  0  0
  -30.1280  -26.2460   21.6360 C   0  0  0  0  0  2  0  0  0  0  0  0
  -30.3880  -26.9950   20.3160 C   0  0  0  0  0  2  0  0  0  0  0  0
  -29.2900  -26.8060   19.4180 O   0  0  0  0  0  0  0  0  0  0  0  0
  -24.9970  -31.1290   23.2140 C   0  0  0  0  0  0  0  0  0  0  0  0
  -28.0860  -27.4560   19.6040 C   0  0  0  0  0  0  0  0  0  0  0  0
  -23.9310  -29.8500   21.3830 C   0  0  0  0  0  3  0  0  0  0  0  0
  -25.5340  -28.6680   19.7870 C   0  0  0  0  0  0  0  0  0  0  0  0
  -26.4040  -30.4830   21.2690 C   0  0  0  0  0  2  0  0  0  0  0  0
  -26.6270  -29.2240   20.4620 C   0  0  0  0  0  0  0  0  0  0  0  0
  -27.9020  -28.6230   20.3830 C   0  0  0  0  0  3  0  0  0  0  0  0
  -26.9750  -26.9130   18.9230 C   0  0  0  0  0  3  0  0  0  0  0  0
  -25.7010  -27.5040   19.0170 C   0  0  0  0  0  3  0  0  0  0  0  0
  -24.2050  -29.3770   19.9300 C   0  0  0  0  0  2  0  0  0  0  0  0
  -25.1250  -30.4960   22.0150 N   0  0  0  0  0  0  0  0  0  0  0  0
  -23.8960  -31.2200   23.7740 O   0  0  0  0  0  0  0  0  0  0  0  0
  -23.3830  -28.6520   22.1900 C   0  0  0  0  0  0  0  0  0  0  0  0
  -22.1070  -28.3050   21.9530 N   0  0  0  0  0  0  0  0  0  0  0  0
  -24.1050  -28.0380   22.9810 O   0  0  0  0  0  0  0  0  0  0  0  0
  -21.5840  -28.8560   21.2870 H   0  0  0  0  0  0  0  0  0  0  0  0
  -18.9550  -26.5450   22.0030 C   0  0  0  0  0  0  0  0  0  0  0  0
  -21.3920  -27.1890   22.5680 C   0  0  0  0  0  3  0  0  0  0  0  0
  -21.7910  -25.8470   21.9120 C   0  0  0  0  0  2  0  0  0  0  0  0
  -20.8650  -25.4360   20.7620 C   0  0  0  0  0  2  0  0  0  0  0  0
  -19.4220  -25.3040   21.2590 C   0  0  0  0  0  2  0  0  0  0  0  0
  -19.8810  -27.4380   22.6020 C   0  0  0  0  0  0  0  0  0  0  0  0
  -19.3980  -28.5970   23.2470 C   0  0  0  0  0  3  0  0  0  0  0  0
  -18.0190  -28.8690   23.2990 C   0  0  0  0  0  3  0  0  0  0  0  0
  -17.1040  -27.9700   22.7230 C   0  0  0  0  0  3  0  0  0  0  0  0
  -17.5710  -26.8090   22.0830 C   0  0  0  0  0  3  0  0  0  0  0  0
  -26.2190  -31.7890   23.9260 C   0  0  0  0  0  3  0  0  0  0  0  0
  -25.8100  -33.1360   24.3460 N   0  0  0  0  0  0  0  0  0  0  0  0
  -26.1120  -34.2620   23.6840 C   0  0  0  0  0  0  0  0  0  0  0  0
  -26.8340  -34.2770   22.6840 O   0  0  0  0  0  0  0  0  0  0  0  0
  -25.1730  -33.1950   25.1270 H   0  0  0  0  0  0  0  0  0  0  0  0
  -24.2940  -35.9690   23.3760 C   0  0  0  0  0  1  0  0  0  0  0  0
  -25.5180  -35.5790   24.2180 C   0  0  0  0  0  3  0  0  0  0  0  0
  -27.5580  -36.5110   25.2150 C   0  0  0  0  0  1  0  0  0  0  0  0
  -26.4890  -36.6950   24.2380 N   0  0  0  0  0  0  0  0  0  0  0  0
  -26.0220  -37.5750   24.4400 H   0  0  0  0  0  0  0  0  0  0  0  0
  -26.7470  -30.9560   25.1590 C   0  0  1  0  0  0  0  0  0  0  0  0
  -25.6370  -30.5760   26.1670 C   0  0  0  0  0  1  0  0  0  0  0  0
  -27.4240  -29.6490   24.6850 C   0  0  0  0  0  1  0  0  0  0  0  0
  -27.8280  -31.7680   25.9120 C   0  0  0  0  0  1  0  0  0  0  0  0
  2  4  1  0
  2  5  1  0
  3  1  1  0
  4  6  1  0
  5 55  1  0
  5  1  1  0
  6  3  1  0
  8  7  1  0
  9 10  2  0
  9 12  1  0
 10 11  1  0
 11  6  1  0
 11  7  2  0
 12  8  2  0
 13 21  1  0
 14 19  1  0
 15 16  1  0
 15 14  1  0
 17 16  1  0
 17 26  1  0
 17 18  1  0
 19 13  1  0
 19 18  1  0
 20 13  2  0
 21 12  1  0
 21 22  1  0
 23 24  2  0
 24 43  1  0
 25 24  1  0
 25 28  1  0
 26 23  1  0
 26 27  1  0
 27 25  2  0
 28 29  1  0
 29 30  2  0
 31 34  1  0
 31 30  1  0
 32 31  2  0
 33 32  1  0
 33 28  2  0
 34 35  1  0
 35 40  2  0
 35 36  1  0
 36 37  2  0
 37 38  1  0
 38 42  1  0
 39 38  2  0
 40 39  1  0
 41 40  1  0
 43 44  1  0
 44 47  1  0
 44 46  1  0
 45 43  2  0
 48 49  1  0
 48 23  1  0
 50 48  1  0
 51 10  1  0
 51 53  1  1
 52 51  1  0
 54 51  1  0
 55 58  1  0
 55 56  1  0
 57 55  1  0
 59 58  1  0
 60 62  1  0
 60 59  1  0
 61 72  2  0
 62 67  1  0
 63 71  1  0
 63 73  1  0
 64 70  1  0
 64 66  1  0
 65 71  1  0
 66 65  1  0
 67 66  2  0
 68 69  1  0
 68 62  2  0
 69 64  2  0
 70 63  1  0
 71 61  1  0
 73 75  2  0
 74 73  1  0
 76 74  1  0
 77 86  2  0
 77 82  1  0
 78 74  1  0
 78 82  1  0
 79 78  1  0
 80 81  1  0
 80 79  1  0
 81 77  1  0
 82 83  2  0
 83 84  1  0
 85 84  2  0
 86 85  1  0
 87 61  1  0
 87 88  1  0
 87 97  1  0
 88 91  1  0
 89 93  1  0
 89 88  1  0
 90 89  2  0
 93 92  1  0
 93 95  1  0
 95 96  1  0
 95 94  1  0
 97100  1  1
 97 98  1  0
 99 97  1  0
M  ISO  4  13 100  21 100  59 101  60 101
M  END
>  <TORSDO>  (29) 
F 21

>  <SCORE>  (29) 
-11.181

>  <name>  (29) 
28

>  <ligand_id>  (29) 
28

>  <original_smiles>  (29) 
[H]c1c([H])c([H])c2c(c1[H])C([H])([H])C([H])([H])C([H])([H])C2([H])N([H])C(=O)C1([H])N(C(=O)C([H])(N([H])C(=O)C([H])(N([H])C([H])([H])[H])C([H])([H])[H])C(C([H])([H])[H])(C([H])([H])[H])C([H])([H])[H])C([H])([H])c2c([H])c(OC([H])([H])C([H])([H])[N+]([H])([H])C3([H])C([H])([H])C([H])([H])N(c4c([H])c([H])c(N([H])C(=O)N5C([H])([H])C([H])([H])C([H])([H])C([H])(n6nc(-c7c([H])c([H])c(Oc8c([H])c([H])c(F)c([H])c8F)c([H])c7[H])c(C(=O)N([H])[H])c6N([H])[H])C5([H])[H])c([H])c4C(F)(F)F)C([H])([H])C3([H])[H])c([H])c([H])c2C1([H])[H]

>  <smiles>  (29) 
[H]c1c([H])c([H])c2c(c1[H])C([H])([H])C([H])([H])C([H])([H])C2([H])N([H])C(=O)C1([H])N(C(=O)C([H])(N([H])C(=O)C([H])(N([H])C([H])([H])[H])C([H])([H])[H])C(C([H])([H])[H])(C([H])([H])[H])C([H])([H])[H])C([H])([H])c2c([H])c(OC([H])([H])C([H])([H])[N+]([H])([H])C3([H])C([H])([H])C([H])([H])N(c4c([H])c([H])c(N([H])C(=O)N5C([H])([H])C([H])([H])C([H])([H])C([H])(n6nc(-c7c([H])c([H])c(Oc8c([H])c([H])c(F)c([H])c8F)c([H])c7[H])c(C(=O)N([H])[H])c6N([H])[H])C5([H])[H])c([H])c4C(F)(F)F)C([H])([H])C3([H])[H])c([H])c([H])c2C1([H])[H]

$$$$
29:0:0
     RDKit          3D

101110  0  0  1  0  0  0  0  0999 V2000
  -26.1520  -14.9360   18.1530 C   0  0  0  0  0  3  0  0  0  0  0  0
  -26.4450  -13.3330   18.2950 C   0  0  0  0  0  3  0  0  0  0  0  0
  -28.3710  -15.9690   19.0170 C   0  0  0  0  0  3  0  0  0  0  0  0
  -27.0110  -16.2300   18.5300 C   0  0  0  0  0  0  0  0  0  0  0  0
  -29.0850  -14.6000   19.2850 C   0  0  0  0  0  3  0  0  0  0  0  0
  -27.9170  -12.8020   18.9240 C   0  0  0  0  0  3  0  0  0  0  0  0
  -28.0010  -11.0380   19.0200 Cl  0  0  0  0  0  0  0  0  0  0  0  0
  -30.5410  -15.2700   19.0920 C   0  0  0  0  0  2  0  0  0  0  0  0
  -32.6080  -17.9550   20.3720 C   0  0  0  0  0  3  0  0  0  0  0  0
  -32.0820  -17.7080   21.7200 C   0  0  0  0  0  2  0  0  0  0  0  0
  -31.9640  -17.3440   19.3410 C   0  0  0  0  0  3  0  0  0  0  0  0
  -30.8470  -17.1400   21.8190 C   0  0  0  0  0  3  0  0  0  0  0  0
  -30.0110  -17.1940   20.6280 C   0  0  0  0  0  0  0  0  0  0  0  0
  -30.7170  -16.7070   19.5620 N   0  0  0  0  0  0  0  0  0  0  0  0
  -28.8120  -17.4830   20.6490 O   0  0  0  0  0  0  0  0  0  0  0  0
  -31.2950  -14.8600   21.9570 C   0  0  0  0  0  0  0  0  0  0  0  0
  -31.5280  -12.7390   20.6290 C   0  0  0  0  0  3  0  0  0  0  0  0
  -31.2810  -12.3850   18.8160 C   0  0  0  0  0  3  0  0  0  0  0  0
  -29.6980  -12.8510   17.8340 C   0  0  0  0  0  1  0  0  0  0  0  0
  -27.8280  -13.9510   20.3280 C   0  0  1  0  0  0  0  0  0  0  0  0
  -28.9550  -13.8590   21.7860 C   0  0  0  0  0  2  0  0  0  0  0  0
  -30.6070  -13.7040   21.6740 N   0  0  0  0  0  0  0  0  0  0  0  0
  -32.4310  -15.0600   21.5210 O   0  0  0  0  0  0  0  0  0  0  0  0
  -30.6600  -15.9220   22.5100 N   0  0  0  0  0  0  0  0  0  0  0  0
  -29.7220  -15.7390   22.8310 H   0  0  0  0  0  0  0  0  0  0  0  0
  -25.5480  -13.7570   21.2080 C   0  0  0  0  0  0  0  0  0  0  0  0
  -24.6160  -12.8220   21.4730 C   0  0  0  0  0  0  0  0  0  0  0  0
  -25.1790  -11.5340   21.2180 C   0  0  0  0  0  0  0  0  0  0  0  0
  -26.6750  -13.1120   20.8920 N   0  0  0  0  0  0  0  0  0  0  0  0
  -26.4620  -11.7180   20.8640 N   0  0  0  0  0  0  0  0  0  0  0  0
  -24.5090  -10.2040   21.3260 C   0  0  0  0  0  0  0  0  0  0  0  0
  -24.9070   -9.2210   22.2640 C   0  0  0  0  0  3  0  0  0  0  0  0
  -24.1650   -8.0240   22.4300 C   0  0  0  0  0  3  0  0  0  0  0  0
  -23.0000   -7.7890   21.6620 C   0  0  0  0  0  0  0  0  0  0  0  0
  -22.6190   -8.7490   20.7080 C   0  0  0  0  0  3  0  0  0  0  0  0
  -23.3640   -9.9340   20.5400 C   0  0  0  0  0  3  0  0  0  0  0  0
  -22.2290   -6.6480   21.7390 O   0  0  0  0  0  0  0  0  0  0  0  0
  -22.0350   -5.9760   22.9210 C   0  0  0  0  0  0  0  0  0  0  0  0
  -21.4420   -6.5960   24.0420 C   0  0  0  0  0  3  0  0  0  0  0  0
  -21.1980   -5.8530   25.2150 C   0  0  0  0  0  3  0  0  0  0  0  0
  -21.5380   -4.4880   25.2680 C   0  0  0  0  0  0  0  0  0  0  0  0
  -22.1180   -3.8640   24.1500 C   0  0  0  0  0  3  0  0  0  0  0  0
  -22.3610   -4.6040   22.9790 C   0  0  0  0  0  0  0  0  0  0  0  0
  -22.9000   -3.9900   21.8980 F   0  0  0  0  0  0  0  0  0  0  0  0
  -21.3020   -3.7720   26.3930 F   0  0  0  0  0  0  0  0  0  0  0  0
  -23.2540  -13.1930   21.9110 C   0  0  0  0  0  0  0  0  0  0  0  0
  -22.6900  -12.4170   22.8210 N   0  0  0  0  0  0  0  0  0  0  0  0
  -22.7390  -14.2430   21.5270 O   0  0  0  0  0  0  0  0  0  0  0  0
  -23.1590  -11.5890   23.1590 H   0  0  0  0  0  0  0  0  0  0  0  0
  -21.7790  -12.6520   23.1900 H   0  0  0  0  0  0  0  0  0  0  0  0
  -25.5430  -15.1420   21.1990 N   0  0  0  0  0  0  0  0  0  0  0  0
  -24.6730  -15.6530   21.2930 H   0  0  0  0  0  0  0  0  0  0  0  0
  -26.2830  -15.6650   20.7470 H   0  0  0  0  0  0  0  0  0  0  0  0
  -26.6020  -17.9480   18.4420 C   0  0  0  0  0  2  0  0  0  0  0  0
  -26.9910  -20.8560   18.8470 C   0  0  0  0  0  0  0  0  0  0  0  0
  -27.2920  -19.3960   18.9740 N   0  0  0  0  0  0  0  0  0  0  0  0
  -25.9980  -21.0990   18.1600 O   0  0  0  0  0  0  0  0  0  0  0  0
  -28.0850  -19.2280   19.5790 H   0  0  0  0  0  0  0  0  0  0  0  0
  -27.7500  -22.3320   19.4620 C   0  0  0  0  0  3  0  0  0  0  0  0
  -27.2990  -24.0990   19.3870 C   0  0  0  0  0  3  0  0  0  0  0  0
  -27.8650  -25.6040   19.8840 O   0  0  0  0  0  0  0  0  0  0  0  0
  -24.6520  -31.7580   23.1310 C   0  0  0  0  0  0  0  0  0  0  0  0
  -27.0330  -26.8390   19.9340 C   0  0  0  0  0  0  0  0  0  0  0  0
  -23.4530  -30.4040   21.4850 C   0  0  0  0  0  3  0  0  0  0  0  0
  -24.8580  -28.8290   20.0110 C   0  0  0  0  0  0  0  0  0  0  0  0
  -26.0320  -30.5470   21.3560 C   0  0  0  0  0  2  0  0  0  0  0  0
  -26.0630  -29.1540   20.6470 C   0  0  0  0  0  0  0  0  0  0  0  0
  -27.1600  -28.1690   20.5980 C   0  0  0  0  0  3  0  0  0  0  0  0
  -25.8180  -26.7090   19.2530 C   0  0  0  0  0  3  0  0  0  0  0  0
  -24.7620  -27.6290   19.3060 C   0  0  0  0  0  3  0  0  0  0  0  0
  -23.6690  -29.7790   20.0890 C   0  0  0  0  0  2  0  0  0  0  0  0
  -24.7380  -30.9300   22.0420 N   0  0  0  0  0  0  0  0  0  0  0  0
  -23.5610  -32.0490   23.6490 O   0  0  0  0  0  0  0  0  0  0  0  0
  -22.7610  -29.3780   22.4190 C   0  0  0  0  0  0  0  0  0  0  0  0
  -21.4280  -29.2310   22.3040 N   0  0  0  0  0  0  0  0  0  0  0  0
  -23.4280  -28.7220   23.2230 O   0  0  0  0  0  0  0  0  0  0  0  0
  -20.9410  -29.8110   21.6340 H   0  0  0  0  0  0  0  0  0  0  0  0
  -18.0320  -28.0840   22.8490 C   0  0  0  0  0  0  0  0  0  0  0  0
  -20.6010  -28.2880   23.0640 C   0  0  0  0  0  3  0  0  0  0  0  0
  -20.6600  -26.8720   22.4460 C   0  0  0  0  0  2  0  0  0  0  0  0
  -19.5290  -26.6030   21.4480 C   0  0  0  0  0  2  0  0  0  0  0  0
  -18.1650  -26.7550   22.1260 C   0  0  0  0  0  2  0  0  0  0  0  0
  -19.1750  -28.8120   23.2760 C   0  0  0  0  0  0  0  0  0  0  0  0
  -18.9920  -30.0560   23.9160 C   0  0  0  0  0  3  0  0  0  0  0  0
  -17.7000  -30.5740   24.1300 C   0  0  0  0  0  3  0  0  0  0  0  0
  -16.5730  -29.8430   23.7160 C   0  0  0  0  0  3  0  0  0  0  0  0
  -16.7390  -28.6010   23.0800 C   0  0  0  0  0  3  0  0  0  0  0  0
  -25.9200  -32.3930   23.7710 C   0  0  0  0  0  3  0  0  0  0  0  0
  -25.5990  -33.7890   24.1170 N   0  0  0  0  0  0  0  0  0  0  0  0
  -25.9310  -34.8590   23.3820 C   0  0  0  0  0  0  0  0  0  0  0  0
  -26.6080  -34.7750   22.3540 O   0  0  0  0  0  0  0  0  0  0  0  0
  -24.9950  -33.9290   24.9130 H   0  0  0  0  0  0  0  0  0  0  0  0
  -24.2050  -36.6650   23.0590 C   0  0  0  0  0  1  0  0  0  0  0  0
  -25.4420  -36.2400   23.8660 C   0  0  0  0  0  3  0  0  0  0  0  0
  -27.5700  -37.1160   24.7280 C   0  0  0  0  0  1  0  0  0  0  0  0
  -26.4750  -37.2970   23.7780 N   0  0  0  0  0  0  0  0  0  0  0  0
  -26.0650  -38.2140   23.9370 H   0  0  0  0  0  0  0  0  0  0  0  0
  -26.4130  -31.6190   25.0560 C   0  0  1  0  0  0  0  0  0  0  0  0
  -25.3020  -31.3900   26.1080 C   0  0  0  0  0  1  0  0  0  0  0  0
  -26.9930  -30.2360   24.6850 C   0  0  0  0  0  1  0  0  0  0  0  0
  -27.5600  -32.4080   25.7310 C   0  0  0  0  0  1  0  0  0  0  0  0
  1  2  2  0
  1  4  1  0
  2  6  1  0
  4  3  2  0
  5  3  1  0
  5 20  1  0
  6  7  1  0
  6 20  1  0
  8  5  1  0
  8 14  1  0
  9 10  1  0
 11 14  1  0
 11  9  2  0
 12 10  1  0
 12 24  1  0
 13 15  2  0
 13 12  1  0
 14 13  1  0
 16 24  1  0
 17 22  1  0
 18 17  2  0
 19 18  1  0
 20 29  1  1
 20 21  1  0
 22 21  1  0
 22 16  1  0
 23 16  2  0
 24 25  1  0
 26 27  2  0
 27 46  1  0
 28 31  1  0
 28 27  1  0
 29 26  1  0
 30 29  1  0
 30 28  2  0
 31 32  1  0
 32 33  2  0
 34 37  1  0
 34 33  1  0
 35 34  2  0
 36 35  1  0
 36 31  2  0
 37 38  1  0
 38 43  2  0
 38 39  1  0
 39 40  2  0
 40 41  1  0
 41 45  1  0
 42 41  2  0
 43 42  1  0
 44 43  1  0
 46 47  1  0
 47 49  1  0
 47 50  1  0
 48 46  2  0
 51 26  1  0
 51 52  1  0
 53 51  1  0
 54  4  1  0
 54 56  1  0
 55 56  1  0
 55 59  1  0
 56 58  1  0
 57 55  2  0
 60 59  2  0
 60 61  1  0
 61 63  1  0
 62 73  2  0
 63 68  1  0
 64 72  1  0
 64 74  1  0
 65 71  1  0
 65 67  1  0
 66 72  1  0
 67 66  1  0
 68 67  2  0
 69 70  1  0
 69 63  2  0
 70 65  2  0
 71 64  1  0
 72 62  1  0
 74 76  2  0
 75 74  1  0
 77 75  1  0
 78 87  2  0
 78 83  1  0
 79 75  1  0
 79 83  1  0
 80 79  1  0
 81 82  1  0
 81 80  1  0
 82 78  1  0
 83 84  2  0
 84 85  1  0
 86 85  2  0
 87 86  1  0
 88 62  1  0
 88 89  1  0
 88 98  1  0
 89 92  1  0
 90 94  1  0
 90 89  1  0
 91 90  2  0
 94 93  1  0
 96 94  1  0
 96 97  1  0
 96 95  1  0
 98101  1  1
 98 99  1  0
100 98  1  0
M  ISO  4  16 100  24 100  60 101  61 101
M  END
>  <TORSDO>  (30) 
F 22

>  <SCORE>  (30) 
-6.286

>  <name>  (30) 
29

>  <ligand_id>  (30) 
29

>  <original_smiles>  (30) 
[H]c1c([H])c([H])c2c(c1[H])C([H])([H])C([H])([H])C([H])([H])C2([H])N([H])C(=O)C1([H])N(C(=O)C([H])(N([H])C(=O)C([H])(N([H])C([H])([H])[H])C([H])([H])[H])C(C([H])([H])[H])(C([H])([H])[H])C([H])([H])[H])C([H])([H])c2c([H])c(OC([H])([H])C([H])([H])C(=O)N([H])C([H])([H])c3c([H])c([H])c(Cl)c(C([H])([H])n4c([H])c([H])c([H])c(N([H])C(=O)N5C([H])([H])C([H])([H])C([H])([H])C([H])(n6nc(-c7c([H])c([H])c(Oc8c([H])c([H])c(F)c([H])c8F)c([H])c7[H])c(C(=O)N([H])[H])c6N([H])[H])C5([H])[H])c4=O)c3[H])c([H])c([H])c2C1([H])[H]

>  <smiles>  (30) 
[H]c1c([H])c([H])c2c(c1[H])C([H])([H])C([H])([H])C([H])([H])C2([H])N([H])C(=O)C1([H])N(C(=O)C([H])(N([H])C(=O)C([H])(N([H])C([H])([H])[H])C([H])([H])[H])C(C([H])([H])[H])(C([H])([H])[H])C([H])([H])[H])C([H])([H])c2c([H])c(OC([H])([H])C([H])([H])C(=O)N([H])C([H])([H])c3c([H])c([H])c(Cl)c(C([H])([H])n4c([H])c([H])c([H])c(N([H])C(=O)N5C([H])([H])C([H])([H])C([H])([H])C([H])(n6nc(-c7c([H])c([H])c(Oc8c([H])c([H])c(F)c([H])c8F)c([H])c7[H])c(C(=O)N([H])[H])c6N([H])[H])C5([H])[H])c4=O)c3[H])c([H])c([H])c2C1([H])[H]

$$$$
30:0:0
     RDKit          3D

 89 96  0  0  1  0  0  0  0  0999 V2000
  -29.3200  -24.3400   20.4390 C   0  0  0  0  0  0  0  0  0  0  0  0
  -29.1230  -23.0090   20.3400 N   0  0  0  0  0  0  0  0  0  0  0  0
  -30.3230  -24.8240   20.9690 O   0  0  0  0  0  0  0  0  0  0  0  0
  -28.2690  -22.7160   19.8820 H   0  0  0  0  0  0  0  0  0  0  0  0
  -28.2060  -25.2360   19.8610 C   0  0  0  0  0  2  0  0  0  0  0  0
  -28.3570  -26.6420   20.1770 O   0  0  0  0  0  0  0  0  0  0  0  0
  -24.5850  -31.8720   23.2400 C   0  0  0  0  0  0  0  0  0  0  0  0
  -27.2010  -27.4110   20.1340 C   0  0  0  0  0  0  0  0  0  0  0  0
  -23.3710  -30.4790   21.6010 C   0  0  0  0  0  3  0  0  0  0  0  0
  -24.8140  -28.9490   20.1600 C   0  0  0  0  0  0  0  0  0  0  0  0
  -25.9000  -30.8250   21.3970 C   0  0  0  0  0  2  0  0  0  0  0  0
  -25.9790  -29.4560   20.7500 C   0  0  0  0  0  0  0  0  0  0  0  0
  -27.1740  -28.6940   20.7360 C   0  0  0  0  0  3  0  0  0  0  0  0
  -26.0140  -26.9420   19.5160 C   0  0  0  0  0  3  0  0  0  0  0  0
  -24.8290  -27.6920   19.5390 C   0  0  0  0  0  3  0  0  0  0  0  0
  -23.5720  -29.8110   20.2170 C   0  0  0  0  0  2  0  0  0  0  0  0
  -24.6380  -31.0730   22.1370 N   0  0  0  0  0  0  0  0  0  0  0  0
  -23.5070  -32.1460   23.7840 O   0  0  0  0  0  0  0  0  0  0  0  0
  -22.7230  -29.4530   22.5590 C   0  0  0  0  0  0  0  0  0  0  0  0
  -21.3980  -29.2720   22.4380 N   0  0  0  0  0  0  0  0  0  0  0  0
  -23.4090  -28.8240   23.3700 O   0  0  0  0  0  0  0  0  0  0  0  0
  -20.9040  -29.8330   21.7560 H   0  0  0  0  0  0  0  0  0  0  0  0
  -18.0250  -28.0790   22.9450 C   0  0  0  0  0  0  0  0  0  0  0  0
  -20.5830  -28.3340   23.2100 C   0  0  0  0  0  3  0  0  0  0  0  0
  -20.6830  -26.9040   22.6300 C   0  0  0  0  0  2  0  0  0  0  0  0
  -19.5760  -26.5840   21.6200 C   0  0  0  0  0  2  0  0  0  0  0  0
  -18.1970  -26.7290   22.2690 C   0  0  0  0  0  2  0  0  0  0  0  0
  -19.1450  -28.8390   23.3740 C   0  0  0  0  0  0  0  0  0  0  0  0
  -18.9290  -30.1020   23.9660 C   0  0  0  0  0  3  0  0  0  0  0  0
  -17.6260  -30.6050   24.1360 C   0  0  0  0  0  3  0  0  0  0  0  0
  -16.5200  -29.8420   23.7250 C   0  0  0  0  0  3  0  0  0  0  0  0
  -16.7200  -28.5800   23.1350 C   0  0  0  0  0  3  0  0  0  0  0  0
  -25.8750  -32.5020   23.8540 C   0  0  0  0  0  3  0  0  0  0  0  0
  -25.5660  -33.8960   24.1960 N   0  0  0  0  0  0  0  0  0  0  0  0
  -25.8800  -34.9530   23.4350 C   0  0  0  0  0  0  0  0  0  0  0  0
  -26.5330  -34.8580   22.3930 O   0  0  0  0  0  0  0  0  0  0  0  0
  -24.9840  -34.0440   25.0080 H   0  0  0  0  0  0  0  0  0  0  0  0
  -24.1310  -36.7340   23.1260 C   0  0  0  0  0  1  0  0  0  0  0  0
  -25.3940  -36.3370   23.9060 C   0  0  0  0  0  3  0  0  0  0  0  0
  -27.5420  -37.2340   24.6870 C   0  0  0  0  0  1  0  0  0  0  0  0
  -26.4160  -37.3970   23.7710 N   0  0  0  0  0  0  0  0  0  0  0  0
  -26.0060  -38.3140   23.9320 H   0  0  0  0  0  0  0  0  0  0  0  0
  -26.4050  -31.7210   25.1180 C   0  0  1  0  0  0  0  0  0  0  0  0
  -25.3220  -31.4720   26.1940 C   0  0  0  0  0  1  0  0  0  0  0  0
  -26.9880  -30.3480   24.7080 C   0  0  0  0  0  1  0  0  0  0  0  0
  -27.5590  -32.5120   25.7770 C   0  0  0  0  0  1  0  0  0  0  0  0
  -29.9950  -21.9430   20.8530 C   0  0  0  0  0  2  0  0  0  0  0  0
  -29.4380  -20.5280   20.5370 C   0  0  0  0  0  2  0  0  0  0  0  0
  -30.2930  -19.3630   21.1000 C   0  0  0  0  0  2  0  0  0  0  0  0
  -29.7520  -17.9420   20.7850 C   0  0  0  0  0  2  0  0  0  0  0  0
  -30.6310  -16.8070   21.3730 C   0  0  0  0  0  2  0  0  0  0  0  0
  -30.7320  -14.4520   20.4810 C   0  0  0  0  0  0  0  0  0  0  0  0
  -30.4070  -12.2920   19.3300 C   0  0  0  0  0  2  0  0  0  0  0  0
  -29.4830  -12.4860   18.1110 C   0  0  0  0  0  2  0  0  0  0  0  0
  -28.0030  -12.3710   18.5250 C   0  0  0  0  0  2  0  0  0  0  0  0
  -27.6580  -13.2300   19.7700 C   0  0  0  0  0  3  0  0  0  0  0  0
  -28.6960  -13.0140   20.8950 C   0  0  0  0  0  2  0  0  0  0  0  0
  -30.0310  -13.2930   20.3410 N   0  0  0  0  0  0  0  0  0  0  0  0
  -31.8450  -14.6220   19.9770 O   0  0  0  0  0  0  0  0  0  0  0  0
  -30.1000  -15.4530   21.1210 N   0  0  0  0  0  0  0  0  0  0  0  0
  -29.1820  -15.2400   21.4860 H   0  0  0  0  0  0  0  0  0  0  0  0
  -25.2550  -13.8710   20.4340 C   0  0  0  0  0  0  0  0  0  0  0  0
  -24.1740  -13.1140   20.7990 C   0  0  0  0  0  0  0  0  0  0  0  0
  -24.6230  -11.7580   20.7970 C   0  0  0  0  0  0  0  0  0  0  0  0
  -26.2950  -12.9760   20.2330 N   0  0  0  0  0  0  0  0  0  0  0  0
  -25.9170  -11.7010   20.5080 N   0  0  0  0  0  0  0  0  0  0  0  0
  -23.8800  -10.5070   20.9960 C   0  0  0  0  0  0  0  0  0  0  0  0
  -24.2990   -9.5420   21.9390 C   0  0  0  0  0  3  0  0  0  0  0  0
  -23.5610   -8.3540   22.1260 C   0  0  0  0  0  3  0  0  0  0  0  0
  -22.3870   -8.1230   21.3700 C   0  0  0  0  0  0  0  0  0  0  0  0
  -21.9870   -9.0760   20.4160 C   0  0  0  0  0  3  0  0  0  0  0  0
  -22.7280  -10.2550   20.2280 C   0  0  0  0  0  3  0  0  0  0  0  0
  -21.6190   -6.9870   21.4650 O   0  0  0  0  0  0  0  0  0  0  0  0
  -21.5660   -6.2480   22.6200 C   0  0  0  0  0  0  0  0  0  0  0  0
  -21.1660   -6.8150   23.8490 C   0  0  0  0  0  3  0  0  0  0  0  0
  -21.0600   -6.0040   24.9960 C   0  0  0  0  0  3  0  0  0  0  0  0
  -21.3440   -4.6270   24.9150 C   0  0  0  0  0  0  0  0  0  0  0  0
  -21.7370   -4.0600   23.6900 C   0  0  0  0  0  3  0  0  0  0  0  0
  -21.8450   -4.8680   22.5460 C   0  0  0  0  0  0  0  0  0  0  0  0
  -22.2050   -4.3130   21.3630 F   0  0  0  0  0  0  0  0  0  0  0  0
  -21.2330   -3.8470   26.0160 F   0  0  0  0  0  0  0  0  0  0  0  0
  -22.7780  -13.6100   21.0450 C   0  0  0  0  0  0  0  0  0  0  0  0
  -22.0320  -12.9360   21.9140 N   0  0  0  0  0  0  0  0  0  0  0  0
  -22.3560  -14.6310   20.5020 O   0  0  0  0  0  0  0  0  0  0  0  0
  -22.3860  -12.1120   22.3770 H   0  0  0  0  0  0  0  0  0  0  0  0
  -21.0950  -13.2500   22.1220 H   0  0  0  0  0  0  0  0  0  0  0  0
  -25.4370  -15.2370   20.2370 N   0  0  0  0  0  0  0  0  0  0  0  0
  -24.6790  -15.9040   20.3290 H   0  0  0  0  0  0  0  0  0  0  0  0
  -26.3010  -15.6600   19.9230 H   0  0  0  0  0  0  0  0  0  0  0  0
  1  3  2  0
  2  1  1  0
  2 47  1  0
  4  2  1  0
  5  6  1  0
  5  1  1  0
  7 18  2  0
  8  6  1  0
  8 13  1  0
  9 17  1  0
  9 19  1  0
 10 16  1  0
 10 12  1  0
 11 17  1  0
 12 11  1  0
 13 12  2  0
 14 15  1  0
 14  8  2  0
 15 10  2  0
 16  9  1  0
 17  7  1  0
 19 21  2  0
 20 19  1  0
 22 20  1  0
 23 32  2  0
 23 28  1  0
 24 20  1  0
 24 28  1  0
 25 24  1  0
 26 27  1  0
 26 25  1  0
 27 23  1  0
 28 29  2  0
 29 30  1  0
 31 30  2  0
 32 31  1  0
 33  7  1  0
 33 34  1  0
 33 43  1  0
 34 37  1  0
 35 39  1  0
 35 34  1  0
 36 35  2  0
 39 38  1  0
 41 39  1  0
 41 42  1  0
 41 40  1  0
 43 46  1  1
 43 44  1  0
 45 43  1  0
 48 47  1  0
 48 49  1  0
 50 49  1  0
 50 51  1  0
 52 60  1  0
 53 58  1  0
 54 55  1  0
 54 53  1  0
 56 55  1  0
 56 65  1  0
 56 57  1  0
 58 52  1  0
 58 57  1  0
 59 52  2  0
 60 51  1  0
 60 61  1  0
 62 63  2  0
 63 82  1  0
 64 63  1  0
 64 67  1  0
 65 62  1  0
 65 66  1  0
 66 64  2  0
 67 68  1  0
 68 69  2  0
 70 73  1  0
 70 69  1  0
 71 70  2  0
 72 71  1  0
 72 67  2  0
 73 74  1  0
 74 75  1  0
 75 76  2  0
 77 76  1  0
 77 81  1  0
 78 77  2  0
 79 74  2  0
 79 78  1  0
 80 79  1  0
 82 83  1  0
 83 86  1  0
 83 85  1  0
 84 82  2  0
 87 88  1  0
 87 62  1  0
 89 87  1  0
M  ISO  4   5 101   6 101  52 100  60 100
M  END
>  <TORSDO>  (31) 
F 22

>  <SCORE>  (31) 
-13.006

>  <name>  (31) 
30

>  <ligand_id>  (31) 
30

>  <original_smiles>  (31) 
[H]c1c([H])c([H])c2c(c1[H])C([H])([H])C([H])([H])C([H])([H])C2([H])N([H])C(=O)C1([H])N(C(=O)C([H])(N([H])C(=O)C([H])(N([H])C([H])([H])[H])C([H])([H])[H])C(C([H])([H])[H])(C([H])([H])[H])C([H])([H])[H])C([H])([H])c2c([H])c(OC([H])([H])C(=O)N([H])C([H])([H])C([H])([H])C([H])([H])C([H])([H])C([H])([H])N([H])C(=O)N3C([H])([H])C([H])([H])C([H])([H])C([H])(n4nc(-c5c([H])c([H])c(Oc6c([H])c([H])c(F)c([H])c6F)c([H])c5[H])c(C(=O)N([H])[H])c4N([H])[H])C3([H])[H])c([H])c([H])c2C1([H])[H]

>  <smiles>  (31) 
[H]c1c([H])c([H])c2c(c1[H])C([H])([H])C([H])([H])C([H])([H])C2([H])N([H])C(=O)C1([H])N(C(=O)C([H])(N([H])C(=O)C([H])(N([H])C([H])([H])[H])C([H])([H])[H])C(C([H])([H])[H])(C([H])([H])[H])C([H])([H])[H])C([H])([H])c2c([H])c(OC([H])([H])C(=O)N([H])C([H])([H])C([H])([H])C([H])([H])C([H])([H])C([H])([H])N([H])C(=O)N3C([H])([H])C([H])([H])C([H])([H])C([H])(n4nc(-c5c([H])c([H])c(Oc6c([H])c([H])c(F)c([H])c6F)c([H])c5[H])c(C(=O)N([H])[H])c4N([H])[H])C3([H])[H])c([H])c([H])c2C1([H])[H]

$$$$
31:0:0
     RDKit          3D

 88 96  0  0  1  0  0  0  0  0999 V2000
  -30.5810  -19.2010   20.7390 C   0  0  0  0  0  2  0  0  0  0  0  0
  -28.5630  -18.9160   19.4600 C   0  0  0  0  0  2  0  0  0  0  0  0
  -30.0840  -20.7350   21.1300 C   0  0  0  0  0  2  0  0  0  0  0  0
  -28.1050  -20.4830   19.7770 C   0  0  0  0  0  2  0  0  0  0  0  0
  -29.4620  -18.0610   20.5000 C   0  0  0  0  0  3  0  0  0  0  0  0
  -29.1430  -21.5440   20.2000 N   0  0  1  0  0  4  0  0  0  0  0  0
  -29.7000  -21.7290   19.3740 H   0  0  0  0  0  0  0  0  0  0  0  0
  -30.4360  -15.2140   20.2770 C   0  0  0  0  0  0  0  0  0  0  0  0
  -30.4010  -12.7930   19.3720 C   0  0  0  0  0  2  0  0  0  0  0  0
  -29.4660  -12.6360   18.1460 C   0  0  0  0  0  2  0  0  0  0  0  0
  -28.0210  -12.3660   18.6090 C   0  0  0  0  0  2  0  0  0  0  0  0
  -27.5830  -13.3360   19.7360 C   0  0  0  0  0  3  0  0  0  0  0  0
  -28.6410  -13.4250   20.8590 C   0  0  0  0  0  2  0  0  0  0  0  0
  -29.8800  -13.9150   20.2280 N   0  0  0  0  0  0  0  0  0  0  0  0
  -31.6460  -15.2680   20.0270 O   0  0  0  0  0  0  0  0  0  0  0  0
  -29.6000  -16.4080   20.4150 N   0  0  0  0  0  0  0  0  0  0  0  0
  -28.6760  -16.0330   20.5670 H   0  0  0  0  0  0  0  0  0  0  0  0
  -25.1970  -13.9060   20.4680 C   0  0  0  0  0  0  0  0  0  0  0  0
  -24.1370  -13.1320   20.8400 C   0  0  0  0  0  0  0  0  0  0  0  0
  -24.6030  -11.7780   20.8170 C   0  0  0  0  0  0  0  0  0  0  0  0
  -26.2470  -13.0310   20.2370 N   0  0  0  0  0  0  0  0  0  0  0  0
  -25.8990  -11.7460   20.5160 N   0  0  0  0  0  0  0  0  0  0  0  0
  -23.8790  -10.5160   21.0110 C   0  0  0  0  0  0  0  0  0  0  0  0
  -24.3130   -9.5540   21.9510 C   0  0  0  0  0  3  0  0  0  0  0  0
  -23.5890   -8.3560   22.1340 C   0  0  0  0  0  3  0  0  0  0  0  0
  -22.4200   -8.1100   21.3790 C   0  0  0  0  0  0  0  0  0  0  0  0
  -22.0020   -9.0600   20.4300 C   0  0  0  0  0  3  0  0  0  0  0  0
  -22.7250  -10.2500   20.2450 C   0  0  0  0  0  3  0  0  0  0  0  0
  -21.6710   -6.9600   21.4690 O   0  0  0  0  0  0  0  0  0  0  0  0
  -21.6260   -6.2210   22.6240 C   0  0  0  0  0  0  0  0  0  0  0  0
  -21.1950   -6.7780   23.8480 C   0  0  0  0  0  3  0  0  0  0  0  0
  -21.0980   -5.9660   24.9950 C   0  0  0  0  0  3  0  0  0  0  0  0
  -21.4210   -4.5970   24.9200 C   0  0  0  0  0  0  0  0  0  0  0  0
  -21.8440   -4.0390   23.6990 C   0  0  0  0  0  3  0  0  0  0  0  0
  -21.9420   -4.8490   22.5550 C   0  0  0  0  0  0  0  0  0  0  0  0
  -22.3310   -4.3030   21.3780 F   0  0  0  0  0  0  0  0  0  0  0  0
  -21.3200   -3.8150   26.0190 F   0  0  0  0  0  0  0  0  0  0  0  0
  -22.7350  -13.6010   21.1050 C   0  0  0  0  0  0  0  0  0  0  0  0
  -22.0090  -12.9080   21.9680 N   0  0  0  0  0  0  0  0  0  0  0  0
  -22.2960  -14.6240   20.5750 O   0  0  0  0  0  0  0  0  0  0  0  0
  -22.3780  -12.0790   22.4140 H   0  0  0  0  0  0  0  0  0  0  0  0
  -21.0720  -13.2090   22.1940 H   0  0  0  0  0  0  0  0  0  0  0  0
  -25.3590  -15.2770   20.2760 N   0  0  0  0  0  0  0  0  0  0  0  0
  -24.5800  -15.9260   20.3700 H   0  0  0  0  0  0  0  0  0  0  0  0
  -26.1730  -15.6910   19.8440 H   0  0  0  0  0  0  0  0  0  0  0  0
  -28.6640  -23.0240   20.7570 C   0  0  0  0  0  2  0  0  0  0  0  0
  -28.2830  -24.5010   19.9140 C   0  0  0  0  0  2  0  0  0  0  0  0
  -28.2590  -26.0460   20.3910 O   0  0  0  0  0  0  0  0  0  0  0  0
  -24.6190  -31.8780   23.2640 C   0  0  0  0  0  0  0  0  0  0  0  0
  -27.2130  -27.0730   20.2620 C   0  0  0  0  0  0  0  0  0  0  0  0
  -23.4290  -30.4760   21.6160 C   0  0  0  0  0  3  0  0  0  0  0  0
  -24.8930  -28.8870   20.2020 C   0  0  0  0  0  0  0  0  0  0  0  0
  -26.0050  -30.7060   21.4950 C   0  0  0  0  0  2  0  0  0  0  0  0
  -26.0740  -29.3200   20.8150 C   0  0  0  0  0  0  0  0  0  0  0  0
  -27.2340  -28.4380   20.8090 C   0  0  0  0  0  3  0  0  0  0  0  0
  -25.9950  -26.7590   19.6240 C   0  0  0  0  0  3  0  0  0  0  0  0
  -24.8750  -27.6260   19.5830 C   0  0  0  0  0  3  0  0  0  0  0  0
  -23.6620  -29.7830   20.2450 C   0  0  0  0  0  2  0  0  0  0  0  0
  -24.7020  -31.0520   22.1710 N   0  0  0  0  0  0  0  0  0  0  0  0
  -23.5300  -32.1690   23.7820 O   0  0  0  0  0  0  0  0  0  0  0  0
  -22.7430  -29.4810   22.5840 C   0  0  0  0  0  0  0  0  0  0  0  0
  -21.4160  -29.3080   22.4490 N   0  0  0  0  0  0  0  0  0  0  0  0
  -23.4070  -28.8660   23.4220 O   0  0  0  0  0  0  0  0  0  0  0  0
  -20.9500  -29.8460   21.7320 H   0  0  0  0  0  0  0  0  0  0  0  0
  -18.0170  -28.1240   22.9470 C   0  0  0  0  0  0  0  0  0  0  0  0
  -20.5780  -28.3780   23.2130 C   0  0  0  0  0  3  0  0  0  0  0  0
  -20.6650  -26.9440   22.6390 C   0  0  0  0  0  2  0  0  0  0  0  0
  -19.5670  -26.6350   21.6170 C   0  0  0  0  0  2  0  0  0  0  0  0
  -18.1860  -26.7770   22.2640 C   0  0  0  0  0  2  0  0  0  0  0  0
  -19.1390  -28.8880   23.3720 C   0  0  0  0  0  0  0  0  0  0  0  0
  -18.9210  -30.1480   23.9660 C   0  0  0  0  0  3  0  0  0  0  0  0
  -17.6150  -30.6500   24.1330 C   0  0  0  0  0  3  0  0  0  0  0  0
  -16.5100  -29.8830   23.7240 C   0  0  0  0  0  3  0  0  0  0  0  0
  -16.7120  -28.6190   23.1420 C   0  0  0  0  0  3  0  0  0  0  0  0
  -25.8920  -32.5100   23.9040 C   0  0  0  0  0  3  0  0  0  0  0  0
  -25.5790  -33.9160   24.2150 N   0  0  0  0  0  0  0  0  0  0  0  0
  -25.9130  -34.9660   23.4500 C   0  0  0  0  0  0  0  0  0  0  0  0
  -26.5890  -34.8540   22.4240 O   0  0  0  0  0  0  0  0  0  0  0  0
  -24.9700  -34.0740   25.0030 H   0  0  0  0  0  0  0  0  0  0  0  0
  -24.1830  -36.7540   23.0740 C   0  0  0  0  0  1  0  0  0  0  0  0
  -25.4220  -36.3590   23.8930 C   0  0  0  0  0  3  0  0  0  0  0  0
  -27.5550  -37.2570   24.7170 C   0  0  0  0  0  1  0  0  0  0  0  0
  -26.4530  -37.4150   23.7710 N   0  0  0  0  0  0  0  0  0  0  0  0
  -26.0420  -38.3350   23.9120 H   0  0  0  0  0  0  0  0  0  0  0  0
  -26.3880  -31.7550   25.2050 C   0  0  1  0  0  0  0  0  0  0  0  0
  -25.2980  -31.5220   26.2760 C   0  0  0  0  0  1  0  0  0  0  0  0
  -26.9740  -30.3620   24.8700 C   0  0  0  0  0  1  0  0  0  0  0  0
  -27.5340  -32.5600   25.8620 C   0  0  0  0  0  1  0  0  0  0  0  0
  1  3  1  0
  2  4  1  0
  2  5  1  0
  4  6  1  0
  5 16  1  0
  5  1  1  0
  6 46  1  0
  6  3  1  0
  6  7  1  6
  8 16  1  0
  9 14  1  0
 10 11  1  0
 10  9  1  0
 12 11  1  0
 12 21  1  0
 12 13  1  0
 14  8  1  0
 14 13  1  0
 15  8  2  0
 16 17  1  0
 18 19  2  0
 19 38  1  0
 20 19  1  0
 20 23  1  0
 21 18  1  0
 21 22  1  0
 22 20  2  0
 23 24  1  0
 24 25  2  0
 26 29  1  0
 26 25  1  0
 27 26  2  0
 28 27  1  0
 28 23  2  0
 29 30  1  0
 30 31  1  0
 31 32  2  0
 33 32  1  0
 33 37  1  0
 34 33  2  0
 35 30  2  0
 35 34  1  0
 36 35  1  0
 38 39  1  0
 39 42  1  0
 39 41  1  0
 40 38  2  0
 43 44  1  0
 43 18  1  0
 45 43  1  0
 47 48  1  0
 47 46  1  0
 49 60  2  0
 50 48  1  0
 50 55  1  0
 51 59  1  0
 51 61  1  0
 52 58  1  0
 52 54  1  0
 53 59  1  0
 54 53  1  0
 55 54  2  0
 56 50  2  0
 57 56  1  0
 57 52  2  0
 58 51  1  0
 59 49  1  0
 61 63  2  0
 62 61  1  0
 64 62  1  0
 65 74  2  0
 65 70  1  0
 66 62  1  0
 66 70  1  0
 67 66  1  0
 68 69  1  0
 68 67  1  0
 69 65  1  0
 70 71  2  0
 71 72  1  0
 73 72  2  0
 74 73  1  0
 75 49  1  0
 75 76  1  0
 75 85  1  0
 76 79  1  0
 77 81  1  0
 77 76  1  0
 78 77  2  0
 81 80  1  0
 83 81  1  0
 83 84  1  0
 83 82  1  0
 85 88  1  1
 85 86  1  0
 87 85  1  0
M  ISO  4   8 100  16 100  47 101  48 101
M  END
>  <TORSDO>  (32) 
F 18

>  <SCORE>  (32) 
-15.423

>  <name>  (32) 
31

>  <ligand_id>  (32) 
31

>  <original_smiles>  (32) 
[H]c1c([H])c([H])c2c(c1[H])C([H])([H])C([H])([H])C([H])([H])C2([H])N([H])C(=O)C1([H])N(C(=O)C([H])(N([H])C(=O)C([H])(N([H])C([H])([H])[H])C([H])([H])[H])C(C([H])([H])[H])(C([H])([H])[H])C([H])([H])[H])C([H])([H])c2c([H])c(OC([H])([H])C([H])([H])[N+]3([H])C([H])([H])C([H])([H])C([H])(N([H])C(=O)N4C([H])([H])C([H])([H])C([H])([H])C([H])(n5nc(-c6c([H])c([H])c(Oc7c([H])c([H])c(F)c([H])c7F)c([H])c6[H])c(C(=O)N([H])[H])c5N([H])[H])C4([H])[H])C([H])([H])C3([H])[H])c([H])c([H])c2C1([H])[H]

>  <smiles>  (32) 
[H]c1c([H])c([H])c2c(c1[H])C([H])([H])C([H])([H])C([H])([H])C2([H])N([H])C(=O)C1([H])N(C(=O)C([H])(N([H])C(=O)C([H])(N([H])C([H])([H])[H])C([H])([H])[H])C(C([H])([H])[H])(C([H])([H])[H])C([H])([H])[H])C([H])([H])c2c([H])c(OC([H])([H])C([H])([H])[N+]3([H])C([H])([H])C([H])([H])C([H])(N([H])C(=O)N4C([H])([H])C([H])([H])C([H])([H])C([H])(n5nc(-c6c([H])c([H])c(Oc7c([H])c([H])c(F)c([H])c7F)c([H])c6[H])c(C(=O)N([H])[H])c5N([H])[H])C4([H])[H])C([H])([H])C3([H])[H])c([H])c([H])c2C1([H])[H]

$$$$
32:0:0
     RDKit          3D

 97106  0  0  1  0  0  0  0  0999 V2000
  -31.3720  -24.6740   21.8290 C   0  0  0  0  0  3  0  0  0  0  0  0
  -30.2070  -25.3760   21.4660 C   0  0  0  0  0  3  0  0  0  0  0  0
  -31.7360  -23.5020   21.1360 C   0  0  0  0  0  3  0  0  0  0  0  0
  -29.7710  -23.7340   19.7180 C   0  0  0  0  0  3  0  0  0  0  0  0
  -29.4060  -24.9070   20.4020 C   0  0  0  0  0  0  0  0  0  0  0  0
  -30.9340  -23.0180   20.0820 C   0  0  0  0  0  0  0  0  0  0  0  0
  -31.3240  -21.8430   19.4290 N   0  0  0  0  0  0  0  0  0  0  0  0
  -32.1910  -21.3960   19.7120 H   0  0  0  0  0  0  0  0  0  0  0  0
  -30.3030  -20.9780   18.8550 C   0  0  0  0  0  2  0  0  0  0  0  0
  -30.8440  -18.6230   18.1210 C   0  0  0  0  0  3  0  0  0  0  0  0
  -30.4550  -19.0480   20.4890 C   0  0  0  0  0  3  0  0  0  0  0  0
  -31.0420  -17.2570   18.3950 C   0  0  0  0  0  3  0  0  0  0  0  0
  -30.6520  -17.6820   20.7660 C   0  0  0  0  0  3  0  0  0  0  0  0
  -30.5440  -19.5190   19.1650 C   0  0  0  0  0  0  0  0  0  0  0  0
  -30.9470  -16.7780   19.7250 C   0  0  0  0  0  0  0  0  0  0  0  0
  -31.5300  -14.4020   19.3140 C   0  0  0  0  0  0  0  0  0  0  0  0
  -31.2810  -12.0090   18.7710 C   0  0  0  0  0  2  0  0  0  0  0  0
  -30.2630  -11.8280   17.6280 C   0  0  0  0  0  2  0  0  0  0  0  0
  -28.8240  -11.7570   18.1760 C   0  0  0  0  0  2  0  0  0  0  0  0
  -28.5060  -12.9090   19.1650 C   0  0  0  0  0  3  0  0  0  0  0  0
  -29.6230  -13.0340   20.2250 C   0  0  0  0  0  2  0  0  0  0  0  0
  -30.9150  -13.2120   19.5320 N   0  0  0  0  0  0  0  0  0  0  0  0
  -32.4880  -14.5420   18.5430 O   0  0  0  0  0  0  0  0  0  0  0  0
  -31.0570  -15.4060   20.0620 N   0  0  0  0  0  0  0  0  0  0  0  0
  -30.4910  -15.1090   20.8420 H   0  0  0  0  0  0  0  0  0  0  0  0
  -26.2170  -13.6750   20.0680 C   0  0  0  0  0  0  0  0  0  0  0  0
  -25.1590  -12.9770   20.5870 C   0  0  0  0  0  0  0  0  0  0  0  0
  -25.5530  -11.6040   20.5850 C   0  0  0  0  0  0  0  0  0  0  0  0
  -27.1940  -12.7330   19.7850 N   0  0  0  0  0  0  0  0  0  0  0  0
  -26.8010  -11.4850   20.1490 N   0  0  0  0  0  0  0  0  0  0  0  0
  -24.7960  -10.3920   20.9200 C   0  0  0  0  0  0  0  0  0  0  0  0
  -25.0050   -9.7050   22.1360 C   0  0  0  0  0  3  0  0  0  0  0  0
  -24.2530   -8.5500   22.4440 C   0  0  0  0  0  3  0  0  0  0  0  0
  -23.2790   -8.0740   21.5350 C   0  0  0  0  0  0  0  0  0  0  0  0
  -23.0910   -8.7480   20.3150 C   0  0  0  0  0  3  0  0  0  0  0  0
  -23.8450   -9.8940   20.0080 C   0  0  0  0  0  3  0  0  0  0  0  0
  -22.5210   -6.9450   21.7370 O   0  0  0  0  0  0  0  0  0  0  0  0
  -21.8530   -6.7290   22.9160 C   0  0  0  0  0  0  0  0  0  0  0  0
  -20.8640   -7.6210   23.3870 C   0  0  0  0  0  3  0  0  0  0  0  0
  -20.1530   -7.3240   24.5670 C   0  0  0  0  0  3  0  0  0  0  0  0
  -20.4210   -6.1350   25.2710 C   0  0  0  0  0  0  0  0  0  0  0  0
  -21.4010   -5.2440   24.8010 C   0  0  0  0  0  3  0  0  0  0  0  0
  -22.1130   -5.5400   23.6250 C   0  0  0  0  0  0  0  0  0  0  0  0
  -23.0410   -4.6660   23.1650 F   0  0  0  0  0  0  0  0  0  0  0  0
  -19.7330   -5.8460   26.4010 F   0  0  0  0  0  0  0  0  0  0  0  0
  -23.8200  -13.5360   20.9760 C   0  0  0  0  0  0  0  0  0  0  0  0
  -23.1830  -12.9560   21.9870 N   0  0  0  0  0  0  0  0  0  0  0  0
  -23.3510  -14.5240   20.4130 O   0  0  0  0  0  0  0  0  0  0  0  0
  -23.5770  -12.1590   22.4640 H   0  0  0  0  0  0  0  0  0  0  0  0
  -22.2880  -13.3150   22.2890 H   0  0  0  0  0  0  0  0  0  0  0  0
  -26.4230  -15.0240   19.7990 N   0  0  0  0  0  0  0  0  0  0  0  0
  -25.7070  -15.7250   19.9570 H   0  0  0  0  0  0  0  0  0  0  0  0
  -27.2670  -15.4050   19.3880 H   0  0  0  0  0  0  0  0  0  0  0  0
  -28.1550  -25.6550   19.9870 C   0  0  0  0  0  2  0  0  0  0  0  0
  -28.4690  -26.8880   19.2840 N   0  0  0  0  0  0  0  0  0  0  0  0
  -28.2680  -27.6550   19.9150 H   0  0  0  0  0  0  0  0  0  0  0  0
  -27.4980  -27.0200   18.2180 O   0  0  0  0  0  0  0  0  0  0  0  0
  -24.3850  -31.2600   23.0220 C   0  0  0  0  0  0  0  0  0  0  0  0
  -26.3900  -27.7340   18.6160 C   0  0  0  0  0  0  0  0  0  0  0  0
  -22.8910  -30.3160   21.2850 C   0  0  0  0  0  3  0  0  0  0  0  0
  -24.0600  -29.1590   19.3370 C   0  0  0  0  0  0  0  0  0  0  0  0
  -25.3640  -30.7180   20.8000 C   0  0  0  0  0  2  0  0  0  0  0  0
  -25.3050  -29.5430   19.8500 C   0  0  0  0  0  0  0  0  0  0  0  0
  -26.4720  -28.8510   19.4800 C   0  0  0  0  0  3  0  0  0  0  0  0
  -25.1310  -27.3480   18.1130 C   0  0  0  0  0  3  0  0  0  0  0  0
  -23.9650  -28.0570   18.4670 C   0  0  0  0  0  3  0  0  0  0  0  0
  -22.8690  -29.9820   19.7680 C   0  0  0  0  0  2  0  0  0  0  0  0
  -24.2400  -30.7620   21.7610 N   0  0  0  0  0  0  0  0  0  0  0  0
  -23.4070  -31.3970   23.7690 O   0  0  0  0  0  0  0  0  0  0  0  0
  -22.3400  -29.0980   22.0590 C   0  0  0  0  0  0  0  0  0  0  0  0
  -21.0130  -28.9060   22.0000 N   0  0  0  0  0  0  0  0  0  0  0  0
  -23.1000  -28.3380   22.6650 O   0  0  0  0  0  0  0  0  0  0  0  0
  -20.4600  -29.5790   21.4880 H   0  0  0  0  0  0  0  0  0  0  0  0
  -17.7200  -27.4880   22.4130 C   0  0  0  0  0  0  0  0  0  0  0  0
  -20.2770  -27.8030   22.6140 C   0  0  0  0  0  3  0  0  0  0  0  0
  -20.4010  -26.5130   21.7710 C   0  0  0  0  0  2  0  0  0  0  0  0
  -19.2590  -26.3390   20.7640 C   0  0  0  0  0  2  0  0  0  0  0  0
  -17.9080  -26.2970   21.4870 C   0  0  0  0  0  2  0  0  0  0  0  0
  -18.8330  -28.2040   22.9300 C   0  0  0  0  0  0  0  0  0  0  0  0
  -18.6030  -29.3230   23.7570 C   0  0  0  0  0  3  0  0  0  0  0  0
  -17.2910  -29.7270   24.0740 C   0  0  0  0  0  3  0  0  0  0  0  0
  -16.1940  -29.0060   23.5740 C   0  0  0  0  0  3  0  0  0  0  0  0
  -16.4090  -27.8870   22.7500 C   0  0  0  0  0  3  0  0  0  0  0  0
  -25.7770  -31.7030   23.5760 C   0  0  0  0  0  3  0  0  0  0  0  0
  -25.6310  -33.0720   24.0870 N   0  0  0  0  0  0  0  0  0  0  0  0
  -26.0470  -34.1700   23.4440 C   0  0  0  0  0  0  0  0  0  0  0  0
  -26.6640  -34.1290   22.3750 O   0  0  0  0  0  0  0  0  0  0  0  0
  -25.0860  -33.1850   24.9290 H   0  0  0  0  0  0  0  0  0  0  0  0
  -24.5110  -36.1600   23.3880 C   0  0  0  0  0  1  0  0  0  0  0  0
  -25.7280  -35.5330   24.0870 C   0  0  0  0  0  3  0  0  0  0  0  0
  -27.9640  -36.0920   24.9320 C   0  0  0  0  0  1  0  0  0  0  0  0
  -26.8640  -36.4800   24.0540 N   0  0  0  0  0  0  0  0  0  0  0  0
  -26.5620  -37.4140   24.3190 H   0  0  0  0  0  0  0  0  0  0  0  0
  -26.3380  -30.7420   24.6940 C   0  0  1  0  0  0  0  0  0  0  0  0
  -25.3280  -30.4520   25.8280 C   0  0  0  0  0  1  0  0  0  0  0  0
  -26.7670  -29.3870   24.0810 C   0  0  0  0  0  1  0  0  0  0  0  0
  -27.6050  -31.3610   25.3300 C   0  0  0  0  0  1  0  0  0  0  0  0
  2  1  1  0
  3  1  2  0
  4  6  2  0
  4  5  1  0
  5  2  2  0
  6  3  1  0
  7  8  1  0
  7  6  1  0
  9 14  1  0
  9  7  1  0
 10 12  2  0
 10 14  1  0
 11 13  1  0
 12 15  1  0
 14 11  2  0
 15 24  1  0
 15 13  2  0
 16 22  1  0
 16 24  1  0
 17 22  1  0
 18 19  1  0
 18 17  1  0
 20 19  1  0
 20 29  1  0
 20 21  1  0
 22 21  1  0
 23 16  2  0
 24 25  1  0
 26 27  2  0
 27 46  1  0
 28 27  1  0
 28 31  1  0
 29 26  1  0
 29 30  1  0
 30 28  2  0
 31 32  1  0
 32 33  2  0
 34 37  1  0
 34 33  1  0
 35 34  2  0
 36 35  1  0
 36 31  2  0
 37 38  1  0
 38 39  2  0
 38 43  1  0
 39 40  1  0
 40 41  2  0
 41 45  1  0
 42 41  1  0
 43 42  2  0
 44 43  1  0
 46 47  1  0
 47 50  1  0
 47 49  1  0
 48 46  2  0
 51 52  1  0
 51 26  1  0
 53 51  1  0
 54  5  1  0
 55 56  1  0
 55 54  1  0
 57 59  1  0
 57 55  1  0
 58 69  2  0
 59 64  1  0
 60 68  1  0
 60 70  1  0
 61 67  1  0
 61 63  1  0
 62 68  1  0
 63 62  1  0
 64 63  2  0
 65 66  1  0
 65 59  2  0
 66 61  2  0
 67 60  1  0
 68 58  1  0
 70 72  2  0
 71 70  1  0
 73 71  1  0
 74 83  2  0
 74 79  1  0
 75 71  1  0
 75 79  1  0
 76 75  1  0
 77 78  1  0
 77 76  1  0
 78 74  1  0
 79 80  2  0
 80 81  1  0
 82 81  2  0
 83 82  1  0
 84 58  1  0
 84 85  1  0
 84 94  1  0
 85 88  1  0
 86 85  1  0
 86 90  1  0
 87 86  2  0
 90 89  1  0
 92 90  1  0
 92 93  1  0
 92 91  1  0
 94 97  1  1
 94 95  1  0
 96 94  1  0
M  ISO  4  16 100  24 100  55 101  57 101
M  END
>  <TORSDO>  (33) 
F 21

>  <SCORE>  (33) 
-7.954

>  <name>  (33) 
32

>  <ligand_id>  (33) 
32

>  <original_smiles>  (33) 
[H]c1c([H])c(N([H])C([H])([H])c2c([H])c([H])c(N([H])C(=O)N3C([H])([H])C([H])([H])C([H])([H])C([H])(n4nc(-c5c([H])c([H])c(Oc6c([H])c([H])c(F)c([H])c6F)c([H])c5[H])c(C(=O)N([H])[H])c4N([H])[H])C3([H])[H])c([H])c2[H])c([H])c(C([H])([H])N([H])Oc2c([H])c([H])c3c(c2[H])C([H])([H])N(C(=O)C([H])(N([H])C(=O)C([H])(N([H])C([H])([H])[H])C([H])([H])[H])C(C([H])([H])[H])(C([H])([H])[H])C([H])([H])[H])C([H])(C(=O)N([H])C2([H])c4c([H])c([H])c([H])c([H])c4C([H])([H])C([H])([H])C2([H])[H])C3([H])[H])c1[H]

>  <smiles>  (33) 
[H]c1c([H])c(N([H])C([H])([H])c2c([H])c([H])c(N([H])C(=O)N3C([H])([H])C([H])([H])C([H])([H])C([H])(n4nc(-c5c([H])c([H])c(Oc6c([H])c([H])c(F)c([H])c6F)c([H])c5[H])c(C(=O)N([H])[H])c4N([H])[H])C3([H])[H])c([H])c2[H])c([H])c(C([H])([H])N([H])Oc2c([H])c([H])c3c(c2[H])C([H])([H])N(C(=O)C([H])(N([H])C(=O)C([H])(N([H])C([H])([H])[H])C([H])([H])[H])C(C([H])([H])[H])(C([H])([H])[H])C([H])([H])[H])C([H])(C(=O)N([H])C2([H])c4c([H])c([H])c([H])c([H])c4C([H])([H])C([H])([H])C2([H])[H])C3([H])[H])c1[H]

$$$$
33:0:0
     RDKit          3D

 86 94  0  0  1  0  0  0  0  0999 V2000
  -28.9280  -22.4220   20.4370 C   0  0  0  0  0  3  0  0  0  0  0  0
  -30.3970  -15.6130   20.0550 C   0  0  0  0  0  0  0  0  0  0  0  0
  -30.3460  -13.1130   19.2130 C   0  0  0  0  0  2  0  0  0  0  0  0
  -29.4130  -12.7660   18.0250 C   0  0  0  0  0  2  0  0  0  0  0  0
  -28.0010  -12.4430   18.5290 C   0  0  0  0  0  2  0  0  0  0  0  0
  -27.5450  -13.4400   19.6210 C   0  0  0  0  0  3  0  0  0  0  0  0
  -28.6170  -13.7290   20.6970 C   0  0  0  0  0  2  0  0  0  0  0  0
  -29.7790  -14.3040   19.9890 N   0  0  0  0  0  0  0  0  0  0  0  0
  -31.6150  -15.4720   19.8380 O   0  0  0  0  0  0  0  0  0  0  0  0
  -28.5110  -17.8360   20.4010 C   0  0  0  0  0  2  0  0  0  0  0  0
  -30.5540  -18.3250   19.5020 C   0  0  0  0  0  2  0  0  0  0  0  0
  -28.2930  -19.5360   20.7270 C   0  0  0  0  0  2  0  0  0  0  0  0
  -30.3320  -19.9820   19.8790 C   0  0  0  0  0  2  0  0  0  0  0  0
  -29.8290  -17.0540   20.0570 N   0  0  0  0  0  0  0  0  0  0  0  0
  -28.9680  -20.7400   19.9630 N   0  0  2  0  0  4  0  0  0  0  0  0
  -28.5950  -20.7230   19.0250 H   0  0  0  0  0  0  0  0  0  0  0  0
  -25.2180  -13.9680   20.4890 C   0  0  0  0  0  0  0  0  0  0  0  0
  -24.1710  -13.1820   20.8780 C   0  0  0  0  0  0  0  0  0  0  0  0
  -24.6360  -11.8320   20.8020 C   0  0  0  0  0  0  0  0  0  0  0  0
  -26.2490  -13.0990   20.1870 N   0  0  0  0  0  0  0  0  0  0  0  0
  -25.9160  -11.8060   20.4430 N   0  0  0  0  0  0  0  0  0  0  0  0
  -23.9130  -10.5670   20.9900 C   0  0  0  0  0  0  0  0  0  0  0  0
  -24.3460   -9.5980   21.9220 C   0  0  0  0  0  3  0  0  0  0  0  0
  -23.6190   -8.4010   22.1010 C   0  0  0  0  0  3  0  0  0  0  0  0
  -22.4440   -8.1650   21.3490 C   0  0  0  0  0  0  0  0  0  0  0  0
  -22.0300   -9.1220   20.4060 C   0  0  0  0  0  3  0  0  0  0  0  0
  -22.7580  -10.3100   20.2250 C   0  0  0  0  0  3  0  0  0  0  0  0
  -21.6880   -7.0210   21.4370 O   0  0  0  0  0  0  0  0  0  0  0  0
  -21.6050   -6.3010   22.6030 C   0  0  0  0  0  0  0  0  0  0  0  0
  -21.1020   -6.8690   23.7940 C   0  0  0  0  0  3  0  0  0  0  0  0
  -20.9680   -6.0750   24.9510 C   0  0  0  0  0  3  0  0  0  0  0  0
  -21.3280   -4.7150   24.9160 C   0  0  0  0  0  0  0  0  0  0  0  0
  -21.8230   -4.1460   23.7300 C   0  0  0  0  0  3  0  0  0  0  0  0
  -21.9580   -4.9380   22.5760 C   0  0  0  0  0  0  0  0  0  0  0  0
  -22.4170   -4.3790   21.4300 F   0  0  0  0  0  0  0  0  0  0  0  0
  -21.1910   -3.9490   26.0250 F   0  0  0  0  0  0  0  0  0  0  0  0
  -22.7840  -13.6550   21.2010 C   0  0  0  0  0  0  0  0  0  0  0  0
  -22.0860  -12.9480   22.0810 N   0  0  0  0  0  0  0  0  0  0  0  0
  -22.3330  -14.6880   20.7090 O   0  0  0  0  0  0  0  0  0  0  0  0
  -22.4670  -12.1120   22.4990 H   0  0  0  0  0  0  0  0  0  0  0  0
  -21.1570  -13.2480   22.3420 H   0  0  0  0  0  0  0  0  0  0  0  0
  -25.3760  -15.3420   20.3330 N   0  0  0  0  0  0  0  0  0  0  0  0
  -24.6110  -15.9920   20.4820 H   0  0  0  0  0  0  0  0  0  0  0  0
  -26.2090  -15.7840   19.9680 H   0  0  0  0  0  0  0  0  0  0  0  0
  -28.0550  -24.0330   19.9590 C   0  0  0  0  0  3  0  0  0  0  0  0
  -28.1800  -25.7260   20.2860 O   0  0  0  0  0  0  0  0  0  0  0  0
  -24.6740  -31.8880   23.2420 C   0  0  0  0  0  0  0  0  0  0  0  0
  -27.1960  -26.8980   20.2060 C   0  0  0  0  0  0  0  0  0  0  0  0
  -23.4770  -30.4990   21.6020 C   0  0  0  0  0  3  0  0  0  0  0  0
  -24.9190  -28.8760   20.1690 C   0  0  0  0  0  0  0  0  0  0  0  0
  -26.0500  -30.6680   21.4620 C   0  0  0  0  0  2  0  0  0  0  0  0
  -26.1130  -29.2480   20.7980 C   0  0  0  0  0  0  0  0  0  0  0  0
  -27.2390  -28.2830   20.7890 C   0  0  0  0  0  3  0  0  0  0  0  0
  -25.9730  -26.7190   19.5190 C   0  0  0  0  0  3  0  0  0  0  0  0
  -24.8830  -27.6370   19.5060 C   0  0  0  0  0  3  0  0  0  0  0  0
  -23.7080  -29.8150   20.2250 C   0  0  0  0  0  2  0  0  0  0  0  0
  -24.7570  -31.0490   22.1550 N   0  0  0  0  0  0  0  0  0  0  0  0
  -23.5840  -32.1810   23.7630 O   0  0  0  0  0  0  0  0  0  0  0  0
  -22.7740  -29.5100   22.5700 C   0  0  0  0  0  0  0  0  0  0  0  0
  -21.4440  -29.3430   22.4430 N   0  0  0  0  0  0  0  0  0  0  0  0
  -23.4360  -28.8900   23.4060 O   0  0  0  0  0  0  0  0  0  0  0  0
  -20.9600  -29.8950   21.7470 H   0  0  0  0  0  0  0  0  0  0  0  0
  -18.0650  -28.1090   22.9460 C   0  0  0  0  0  0  0  0  0  0  0  0
  -20.6230  -28.4010   23.2130 C   0  0  0  0  0  3  0  0  0  0  0  0
  -20.7360  -26.9690   22.6400 C   0  0  0  0  0  2  0  0  0  0  0  0
  -19.6390  -26.6360   21.6240 C   0  0  0  0  0  2  0  0  0  0  0  0
  -18.2550  -26.7640   22.2660 C   0  0  0  0  0  2  0  0  0  0  0  0
  -19.1750  -28.8860   23.3760 C   0  0  0  0  0  0  0  0  0  0  0  0
  -18.9390  -30.1400   23.9780 C   0  0  0  0  0  3  0  0  0  0  0  0
  -17.6280  -30.6220   24.1490 C   0  0  0  0  0  3  0  0  0  0  0  0
  -16.5330  -29.8460   23.7320 C   0  0  0  0  0  3  0  0  0  0  0  0
  -16.7530  -28.5910   23.1370 C   0  0  0  0  0  3  0  0  0  0  0  0
  -25.9430  -32.5330   23.8780 C   0  0  0  0  0  3  0  0  0  0  0  0
  -25.6300  -33.9390   24.1990 N   0  0  0  0  0  0  0  0  0  0  0  0
  -25.9440  -34.9920   23.4330 C   0  0  0  0  0  0  0  0  0  0  0  0
  -26.5850  -34.8830   22.3850 O   0  0  0  0  0  0  0  0  0  0  0  0
  -25.0550  -34.0960   25.0140 H   0  0  0  0  0  0  0  0  0  0  0  0
  -24.1960  -36.7850   23.1450 C   0  0  0  0  0  1  0  0  0  0  0  0
  -25.4750  -36.3870   23.9000 C   0  0  0  0  0  3  0  0  0  0  0  0
  -27.6370  -37.3000   24.6290 C   0  0  0  0  0  1  0  0  0  0  0  0
  -26.4980  -37.4430   23.7260 N   0  0  0  0  0  0  0  0  0  0  0  0
  -26.0940  -38.3640   23.8700 H   0  0  0  0  0  0  0  0  0  0  0  0
  -26.4300  -31.7820   25.1810 C   0  0  1  0  0  0  0  0  0  0  0  0
  -25.3170  -31.5720   26.2340 C   0  0  0  0  0  1  0  0  0  0  0  0
  -27.0110  -30.3920   24.8340 C   0  0  0  0  0  1  0  0  0  0  0  0
  -27.5750  -32.5810   25.8470 C   0  0  0  0  0  1  0  0  0  0  0  0
  2 14  1  0
  3  8  1  0
  4  5  1  0
  4  3  1  0
  6  5  1  0
  6 20  1  0
  6  7  1  0
  8  2  1  0
  8  7  1  0
  9  2  2  0
 10 12  1  0
 11 13  1  0
 11 14  1  0
 13 15  1  0
 14 10  1  0
 15  1  1  0
 15 12  1  0
 15 16  1  6
 17 18  2  0
 18 37  1  0
 19 18  1  0
 19 22  1  0
 20 21  1  0
 20 17  1  0
 21 19  2  0
 22 23  1  0
 23 24  2  0
 25 28  1  0
 25 24  1  0
 26 25  2  0
 27 26  1  0
 27 22  2  0
 28 29  1  0
 29 30  1  0
 30 31  2  0
 32 31  1  0
 32 36  1  0
 33 32  2  0
 34 29  2  0
 34 33  1  0
 35 34  1  0
 37 38  1  0
 38 41  1  0
 38 40  1  0
 39 37  2  0
 42 43  1  0
 42 17  1  0
 44 42  1  0
 45 46  1  0
 45  1  2  0
 47 58  2  0
 48 46  1  0
 48 53  1  0
 49 57  1  0
 49 59  1  0
 50 56  1  0
 50 52  1  0
 51 57  1  0
 52 51  1  0
 53 52  2  0
 54 48  2  0
 55 54  1  0
 55 50  2  0
 56 49  1  0
 57 47  1  0
 59 61  2  0
 60 59  1  0
 62 60  1  0
 63 72  2  0
 63 68  1  0
 64 60  1  0
 64 68  1  0
 65 64  1  0
 66 67  1  0
 66 65  1  0
 67 63  1  0
 68 69  2  0
 69 70  1  0
 71 70  2  0
 72 71  1  0
 73 47  1  0
 73 74  1  0
 73 83  1  0
 74 77  1  0
 75 79  1  0
 75 74  1  0
 76 75  2  0
 79 78  1  0
 81 82  1  0
 81 79  1  0
 81 80  1  0
 83 86  1  1
 83 84  1  0
 85 83  1  0
M  ISO  4   2 100  14 100  45 101  46 101
M  END
>  <TORSDO>  (34) 
F 17

>  <SCORE>  (34) 
-16.400

>  <name>  (34) 
33

>  <ligand_id>  (34) 
33

>  <original_smiles>  (34) 
[H]c1c([H])c([H])c2c(c1[H])C([H])([H])C([H])([H])C([H])([H])C2([H])N([H])C(=O)C1([H])N(C(=O)C([H])(N([H])C(=O)C([H])(N([H])C([H])([H])[H])C([H])([H])[H])C(C([H])([H])[H])(C([H])([H])[H])C([H])([H])[H])C([H])([H])c2c([H])c(OC([H])([H])C([H])([H])[N+]3([H])C([H])([H])C([H])([H])N(C(=O)N4C([H])([H])C([H])([H])C([H])([H])C([H])(n5nc(-c6c([H])c([H])c(Oc7c([H])c([H])c(F)c([H])c7F)c([H])c6[H])c(C(=O)N([H])[H])c5N([H])[H])C4([H])[H])C([H])([H])C3([H])[H])c([H])c([H])c2C1([H])[H]

>  <smiles>  (34) 
[H]c1c([H])c([H])c2c(c1[H])C([H])([H])C([H])([H])C([H])([H])C2([H])N([H])C(=O)C1([H])N(C(=O)C([H])(N([H])C(=O)C([H])(N([H])C([H])([H])[H])C([H])([H])[H])C(C([H])([H])[H])(C([H])([H])[H])C([H])([H])[H])C([H])([H])c2c([H])c(OC([H])([H])C([H])([H])[N+]3([H])C([H])([H])C([H])([H])N(C(=O)N4C([H])([H])C([H])([H])C([H])([H])C([H])(n5nc(-c6c([H])c([H])c(Oc7c([H])c([H])c(F)c([H])c7F)c([H])c6[H])c(C(=O)N([H])[H])c5N([H])[H])C4([H])[H])C([H])([H])C3([H])[H])c([H])c([H])c2C1([H])[H]

$$$$
34:0:0
     RDKit          3D

 95103  0  0  1  0  0  0  0  0999 V2000
  -28.9000  -19.5240   20.2940 C   0  0  0  0  0  3  0  0  0  0  0  0
  -28.8160  -18.0990   20.2630 C   0  0  0  0  0  3  0  0  0  0  0  0
  -31.1970  -17.9360   20.4430 C   0  0  0  0  0  3  0  0  0  0  0  0
  -30.1350  -20.2120   20.4450 C   0  0  0  0  0  0  0  0  0  0  0  0
  -31.3070  -19.3690   20.4450 C   0  0  0  0  0  0  0  0  0  0  0  0
  -29.9530  -17.2570   20.4070 C   0  0  0  0  0  0  0  0  0  0  0  0
  -30.5750  -14.7120   20.3250 C   0  0  0  0  0  0  0  0  0  0  0  0
  -30.3220  -12.4810   19.2570 C   0  0  0  0  0  2  0  0  0  0  0  0
  -29.3590  -12.6330   18.0600 C   0  0  0  0  0  2  0  0  0  0  0  0
  -27.8940  -12.4770   18.5130 C   0  0  0  0  0  2  0  0  0  0  0  0
  -27.5600  -13.3200   19.7730 C   0  0  0  0  0  3  0  0  0  0  0  0
  -28.6430  -13.1560   20.8640 C   0  0  0  0  0  2  0  0  0  0  0  0
  -29.9410  -13.4970   20.2580 N   0  0  0  0  0  0  0  0  0  0  0  0
  -31.7590  -14.8320   19.9930 O   0  0  0  0  0  0  0  0  0  0  0  0
  -29.7650  -15.8010   20.5350 N   0  0  0  0  0  0  0  0  0  0  0  0
  -28.8210  -15.5280   20.7630 H   0  0  0  0  0  0  0  0  0  0  0  0
  -25.1720  -13.9070   20.5230 C   0  0  0  0  0  0  0  0  0  0  0  0
  -24.1090  -13.1270   20.8960 C   0  0  0  0  0  0  0  0  0  0  0  0
  -24.5750  -11.7780   20.8510 C   0  0  0  0  0  0  0  0  0  0  0  0
  -26.2180  -13.0310   20.2760 N   0  0  0  0  0  0  0  0  0  0  0  0
  -25.8640  -11.7470   20.5340 N   0  0  0  0  0  0  0  0  0  0  0  0
  -23.8530  -10.5130   21.0360 C   0  0  0  0  0  0  0  0  0  0  0  0
  -24.2830   -9.5470   21.9700 C   0  0  0  0  0  3  0  0  0  0  0  0
  -23.5640   -8.3450   22.1430 C   0  0  0  0  0  3  0  0  0  0  0  0
  -22.3970   -8.1030   21.3790 C   0  0  0  0  0  0  0  0  0  0  0  0
  -21.9860   -9.0560   20.4310 C   0  0  0  0  0  3  0  0  0  0  0  0
  -22.7070  -10.2490   20.2570 C   0  0  0  0  0  3  0  0  0  0  0  0
  -21.6490   -6.9520   21.4600 O   0  0  0  0  0  0  0  0  0  0  0  0
  -21.5750   -6.2220   22.6190 C   0  0  0  0  0  0  0  0  0  0  0  0
  -21.0750   -6.7730   23.8180 C   0  0  0  0  0  3  0  0  0  0  0  0
  -20.9540   -5.9670   24.9670 C   0  0  0  0  0  3  0  0  0  0  0  0
  -21.3220   -4.6090   24.9160 C   0  0  0  0  0  0  0  0  0  0  0  0
  -21.8160   -4.0560   23.7220 C   0  0  0  0  0  3  0  0  0  0  0  0
  -21.9390   -4.8610   22.5760 C   0  0  0  0  0  0  0  0  0  0  0  0
  -22.3950   -4.3180   21.4210 F   0  0  0  0  0  0  0  0  0  0  0  0
  -21.1990   -3.8310   26.0170 F   0  0  0  0  0  0  0  0  0  0  0  0
  -22.7120  -13.5980   21.1790 C   0  0  0  0  0  0  0  0  0  0  0  0
  -21.9910  -12.8920   22.0460 N   0  0  0  0  0  0  0  0  0  0  0  0
  -22.2680  -14.6270   20.6730 O   0  0  0  0  0  0  0  0  0  0  0  0
  -22.3620  -12.0580   22.4740 H   0  0  0  0  0  0  0  0  0  0  0  0
  -21.0530  -13.1890   22.2780 H   0  0  0  0  0  0  0  0  0  0  0  0
  -25.3290  -15.2780   20.3450 N   0  0  0  0  0  0  0  0  0  0  0  0
  -24.5500  -15.9200   20.4420 H   0  0  0  0  0  0  0  0  0  0  0  0
  -26.1430  -15.7060   19.9220 H   0  0  0  0  0  0  0  0  0  0  0  0
  -32.7290  -19.9490   20.4400 C   0  0  1  0  0  0  0  0  0  0  0  0
  -33.6090  -19.0390   20.0120 F   0  0  0  0  0  0  0  0  0  0  0  0
  -32.8370  -20.9870   19.6100 F   0  0  0  0  0  0  0  0  0  0  0  0
  -33.1070  -20.3130   21.6650 F   0  0  0  0  0  0  0  0  0  0  0  0
  -30.1960  -21.7340   20.7490 C   0  0  0  0  0  0  0  0  0  0  0  0
  -29.3990  -22.6630   20.1330 N   0  0  0  0  0  0  0  0  0  0  0  0
  -30.9950  -22.1210   21.6030 O   0  0  0  0  0  0  0  0  0  0  0  0
  -28.7400  -22.3240   19.4430 H   0  0  0  0  0  0  0  0  0  0  0  0
  -29.4820  -24.1590   20.4040 C   0  0  0  0  0  3  0  0  0  0  0  0
  -28.3200  -25.1360   19.9160 C   0  0  0  0  0  3  0  0  0  0  0  0
  -28.3980  -26.5630   20.3310 O   0  0  0  0  0  0  0  0  0  0  0  0
  -24.6240  -31.9540   23.3070 C   0  0  0  0  0  0  0  0  0  0  0  0
  -27.2600  -27.3910   20.2740 C   0  0  0  0  0  0  0  0  0  0  0  0
  -23.4260  -30.5510   21.6590 C   0  0  0  0  0  3  0  0  0  0  0  0
  -24.8890  -29.0050   20.2400 C   0  0  0  0  0  0  0  0  0  0  0  0
  -25.9680  -30.8680   21.5010 C   0  0  0  0  0  2  0  0  0  0  0  0
  -26.0510  -29.4940   20.8450 C   0  0  0  0  0  0  0  0  0  0  0  0
  -27.2370  -28.6990   20.8520 C   0  0  0  0  0  3  0  0  0  0  0  0
  -26.0680  -26.9510   19.6530 C   0  0  0  0  0  3  0  0  0  0  0  0
  -24.9020  -27.7400   19.6330 C   0  0  0  0  0  3  0  0  0  0  0  0
  -23.6480  -29.8770   20.2780 C   0  0  0  0  0  2  0  0  0  0  0  0
  -24.6910  -31.1440   22.2100 N   0  0  0  0  0  0  0  0  0  0  0  0
  -23.5390  -32.2340   23.8320 O   0  0  0  0  0  0  0  0  0  0  0  0
  -22.7590  -29.5400   22.6180 C   0  0  0  0  0  0  0  0  0  0  0  0
  -21.4360  -29.3520   22.4750 N   0  0  0  0  0  0  0  0  0  0  0  0
  -23.4300  -28.9250   23.4530 O   0  0  0  0  0  0  0  0  0  0  0  0
  -20.9500  -29.8990   21.7750 H   0  0  0  0  0  0  0  0  0  0  0  0
  -18.0590  -28.1460   22.9410 C   0  0  0  0  0  0  0  0  0  0  0  0
  -20.6130  -28.4180   23.2470 C   0  0  0  0  0  3  0  0  0  0  0  0
  -20.7290  -26.9800   22.6900 C   0  0  0  0  0  2  0  0  0  0  0  0
  -19.6430  -26.6440   21.6630 C   0  0  0  0  0  2  0  0  0  0  0  0
  -18.2500  -26.7940   22.2820 C   0  0  0  0  0  2  0  0  0  0  0  0
  -19.1690  -28.9160   23.3830 C   0  0  0  0  0  0  0  0  0  0  0  0
  -18.9360  -30.1870   23.9550 C   0  0  0  0  0  3  0  0  0  0  0  0
  -17.6260  -30.6820   24.0980 C   0  0  0  0  0  3  0  0  0  0  0  0
  -16.5300  -29.9070   23.6770 C   0  0  0  0  0  3  0  0  0  0  0  0
  -16.7490  -28.6430   23.1000 C   0  0  0  0  0  3  0  0  0  0  0  0
  -25.9070  -32.5850   23.9340 C   0  0  0  0  0  3  0  0  0  0  0  0
  -26.4090  -31.8240   25.2230 C   0  0  1  0  0  0  0  0  0  0  0  0
  -25.3060  -31.6090   26.2830 C   0  0  0  0  0  1  0  0  0  0  0  0
  -26.9880  -30.4360   24.8600 C   0  0  0  0  0  1  0  0  0  0  0  0
  -27.5580  -32.6190   25.8870 C   0  0  0  0  0  1  0  0  0  0  0  0
  -25.6010  -33.9880   24.2500 N   0  0  0  0  0  0  0  0  0  0  0  0
  -25.9180  -35.0300   23.4710 C   0  0  0  0  0  0  0  0  0  0  0  0
  -26.5700  -34.9160   22.4310 O   0  0  0  0  0  0  0  0  0  0  0  0
  -25.0290  -34.1570   25.0630 H   0  0  0  0  0  0  0  0  0  0  0  0
  -24.1780  -36.8120   23.1350 C   0  0  0  0  0  1  0  0  0  0  0  0
  -25.4400  -36.4230   23.9210 C   0  0  0  0  0  3  0  0  0  0  0  0
  -27.5880  -37.3320   24.6900 C   0  0  0  0  0  1  0  0  0  0  0  0
  -26.4660  -37.4770   23.7660 N   0  0  0  0  0  0  0  0  0  0  0  0
  -26.0610  -38.3980   23.9050 H   0  0  0  0  0  0  0  0  0  0  0  0
  1  4  1  0
  2  1  2  0
  2  6  1  0
  3  5  1  0
  4  5  2  0
  4 49  1  0
  6  3  2  0
  6 15  1  0
  7 15  1  0
  8 13  1  0
  9 10  1  0
  9  8  1  0
 11 10  1  0
 11 20  1  0
 11 12  1  0
 13  7  1  0
 13 12  1  0
 14  7  2  0
 15 16  1  0
 17 18  2  0
 18 37  1  0
 19 18  1  0
 19 22  1  0
 20 17  1  0
 20 21  1  0
 21 19  2  0
 22 23  1  0
 23 24  2  0
 25 28  1  0
 25 24  1  0
 26 25  2  0
 27 26  1  0
 27 22  2  0
 28 29  1  0
 29 30  1  0
 30 31  2  0
 32 31  1  0
 32 36  1  0
 33 32  2  0
 34 29  2  0
 34 33  1  0
 35 34  1  0
 37 38  1  0
 38 41  1  0
 38 40  1  0
 39 37  2  0
 42 43  1  0
 42 17  1  0
 44 42  1  0
 45  5  1  0
 45 48  1  1
 46 45  1  0
 47 45  1  0
 49 51  2  0
 50 53  1  0
 50 49  1  0
 52 50  1  0
 54 55  1  0
 54 53  2  0
 56 67  2  0
 57 55  1  0
 57 62  1  0
 58 66  1  0
 58 68  1  0
 59 65  1  0
 59 61  1  0
 60 66  1  0
 61 62  2  0
 61 60  1  0
 63 57  2  0
 64 63  1  0
 64 59  2  0
 65 58  1  0
 66 56  1  0
 68 70  2  0
 69 68  1  0
 71 69  1  0
 72 81  2  0
 72 77  1  0
 73 69  1  0
 73 77  1  0
 74 73  1  0
 75 76  1  0
 75 74  1  0
 76 72  1  0
 77 78  2  0
 78 79  1  0
 80 79  2  0
 81 80  1  0
 82 56  1  0
 82 87  1  0
 82 83  1  0
 83 86  1  1
 83 84  1  0
 85 83  1  0
 87 90  1  0
 88 92  1  0
 88 87  1  0
 89 88  2  0
 92 91  1  0
 94 95  1  0
 94 92  1  0
 94 93  1  0
M  ISO  4   7 100  15 100  54 101  55 101
M  END
>  <TORSDO>  (35) 
F 20

>  <SCORE>  (35) 
-14.290

>  <name>  (35) 
34

>  <ligand_id>  (35) 
34

>  <original_smiles>  (35) 
[H]c1c([H])c([H])c2c(c1[H])C([H])([H])C([H])([H])C([H])([H])C2([H])N([H])C(=O)C1([H])N(C(=O)C([H])(N([H])C(=O)C([H])(N([H])C([H])([H])[H])C([H])([H])[H])C(C([H])([H])[H])(C([H])([H])[H])C([H])([H])[H])C([H])([H])c2c([H])c(OC([H])([H])C([H])([H])N([H])C(=O)c3c([H])c([H])c(N([H])C(=O)N4C([H])([H])C([H])([H])C([H])([H])C([H])(n5nc(-c6c([H])c([H])c(Oc7c([H])c([H])c(F)c([H])c7F)c([H])c6[H])c(C(=O)N([H])[H])c5N([H])[H])C4([H])[H])c([H])c3C(F)(F)F)c([H])c([H])c2C1([H])[H]

>  <smiles>  (35) 
[H]c1c([H])c([H])c2c(c1[H])C([H])([H])C([H])([H])C([H])([H])C2([H])N([H])C(=O)C1([H])N(C(=O)C([H])(N([H])C(=O)C([H])(N([H])C([H])([H])[H])C([H])([H])[H])C(C([H])([H])[H])(C([H])([H])[H])C([H])([H])[H])C([H])([H])c2c([H])c(OC([H])([H])C([H])([H])N([H])C(=O)c3c([H])c([H])c(N([H])C(=O)N4C([H])([H])C([H])([H])C([H])([H])C([H])(n5nc(-c6c([H])c([H])c(Oc7c([H])c([H])c(F)c([H])c7F)c([H])c6[H])c(C(=O)N([H])[H])c5N([H])[H])C4([H])[H])c([H])c3C(F)(F)F)c([H])c([H])c2C1([H])[H]

$$$$
35:0:0
     RDKit          3D

103113  0  0  1  0  0  0  0  0999 V2000
  -30.8870  -18.7620   21.5750 C   0  0  0  0  0  3  0  0  0  0  0  0
  -31.4090  -17.5040   21.9550 C   0  0  0  0  0  3  0  0  0  0  0  0
  -29.7520  -16.3770   20.5390 C   0  0  0  0  0  3  0  0  0  0  0  0
  -29.7940  -18.8090   20.6820 C   0  0  0  0  0  0  0  0  0  0  0  0
  -29.2580  -17.6350   20.1670 C   0  0  0  0  0  0  0  0  0  0  0  0
  -30.8330  -16.3130   21.4470 C   0  0  0  0  0  0  0  0  0  0  0  0
  -28.0930  -17.8940   19.2560 C   0  0  0  0  0  3  0  0  0  0  0  0
  -27.8280  -19.4070   19.4130 C   0  0  0  0  0  3  0  0  0  0  0  0
  -28.4910  -22.2980   20.8960 C   0  0  0  0  0  2  0  0  0  0  0  0
  -28.5030  -20.8680   21.4180 C   0  0  0  0  0  2  0  0  0  0  0  0
  -29.7140  -22.3140   19.9870 C   0  0  0  0  0  2  0  0  0  0  0  0
  -29.0080  -20.0330   20.2200 C   0  0  1  0  0  0  0  0  0  0  0  0
  -29.7410  -20.9850   19.3300 N   0  0  2  0  0  4  0  0  0  0  0  0
  -29.1400  -21.0700   18.5260 H   0  0  0  0  0  0  0  0  0  0  0  0
  -31.7380  -14.0820   21.1460 C   0  0  0  0  0  0  0  0  0  0  0  0
  -31.4970  -11.6940   20.5510 C   0  0  0  0  0  2  0  0  0  0  0  0
  -30.7680  -11.5020   19.2080 C   0  0  0  0  0  2  0  0  0  0  0  0
  -29.2380  -11.5470   19.3780 C   0  0  0  0  0  2  0  0  0  0  0  0
  -28.7640  -12.7570   20.2210 C   0  0  0  0  0  3  0  0  0  0  0  0
  -29.5830  -12.8400   21.5260 C   0  0  0  0  0  2  0  0  0  0  0  0
  -31.0190  -12.9310   21.1800 N   0  0  0  0  0  0  0  0  0  0  0  0
  -32.8320  -14.1990   20.5790 O   0  0  0  0  0  0  0  0  0  0  0  0
  -31.2190  -15.0410   21.9170 N   0  0  0  0  0  0  0  0  0  0  0  0
  -30.5240  -14.6300   22.5230 H   0  0  0  0  0  0  0  0  0  0  0  0
  -26.3730  -13.6980   20.4580 C   0  0  0  0  0  0  0  0  0  0  0  0
  -25.1740  -13.0920   20.7230 C   0  0  0  0  0  0  0  0  0  0  0  0
  -25.4630  -11.7030   20.8840 C   0  0  0  0  0  0  0  0  0  0  0  0
  -27.3270  -12.6910   20.4870 N   0  0  0  0  0  0  0  0  0  0  0  0
  -26.7700  -11.4910   20.7940 N   0  0  0  0  0  0  0  0  0  0  0  0
  -24.5650  -10.5550   21.0600 C   0  0  0  0  0  0  0  0  0  0  0  0
  -24.8040   -9.5750   22.0510 C   0  0  0  0  0  3  0  0  0  0  0  0
  -23.9180   -8.4900   22.2130 C   0  0  0  0  0  3  0  0  0  0  0  0
  -22.7760   -8.3760   21.3880 C   0  0  0  0  0  0  0  0  0  0  0  0
  -22.5510   -9.3420   20.3910 C   0  0  0  0  0  3  0  0  0  0  0  0
  -23.4370  -10.4190   20.2270 C   0  0  0  0  0  3  0  0  0  0  0  0
  -21.8750   -7.3400   21.4550 O   0  0  0  0  0  0  0  0  0  0  0  0
  -21.7360   -6.5820   22.5900 C   0  0  0  0  0  0  0  0  0  0  0  0
  -21.4280   -7.1590   23.8410 C   0  0  0  0  0  3  0  0  0  0  0  0
  -21.2260   -6.3380   24.9670 C   0  0  0  0  0  3  0  0  0  0  0  0
  -21.3220   -4.9390   24.8440 C   0  0  0  0  0  0  0  0  0  0  0  0
  -21.6250   -4.3610   23.5980 C   0  0  0  0  0  3  0  0  0  0  0  0
  -21.8280   -5.1800   22.4750 C   0  0  0  0  0  0  0  0  0  0  0  0
  -22.0990   -4.6170   21.2720 F   0  0  0  0  0  0  0  0  0  0  0  0
  -21.1220   -4.1470   25.9230 F   0  0  0  0  0  0  0  0  0  0  0  0
  -23.8210  -13.7470   20.7230 C   0  0  0  0  0  0  0  0  0  0  0  0
  -22.8940  -13.2490   21.5350 N   0  0  0  0  0  0  0  0  0  0  0  0
  -23.5940  -14.7400   20.0340 O   0  0  0  0  0  0  0  0  0  0  0  0
  -23.0800  -12.4510   22.1230 H   0  0  0  0  0  0  0  0  0  0  0  0
  -21.9820  -13.6810   21.5720 H   0  0  0  0  0  0  0  0  0  0  0  0
  -26.7250  -15.0140   20.1710 N   0  0  0  0  0  0  0  0  0  0  0  0
  -26.0160  -15.7270   20.0380 H   0  0  0  0  0  0  0  0  0  0  0  0
  -27.6340  -15.2930   19.8250 H   0  0  0  0  0  0  0  0  0  0  0  0
  -31.0680  -20.5660   18.8020 C   0  0  0  0  0  2  0  0  0  0  0  0
  -31.6470  -21.5580   17.7720 C   0  0  0  0  0  2  0  0  0  0  0  0
  -33.0030  -21.0940   17.2000 C   0  0  0  0  0  2  0  0  0  0  0  0
  -33.7670  -22.1950   16.4400 C   0  0  0  0  0  2  0  0  0  0  0  0
  -33.8920  -24.5670   17.1960 C   0  0  0  0  0  0  0  0  0  0  0  0
  -34.1680  -23.2660   17.3480 N   0  0  0  0  0  0  0  0  0  0  0  0
  -33.3990  -25.0230   16.1630 O   0  0  0  0  0  0  0  0  0  0  0  0
  -34.6240  -22.9900   18.2080 H   0  0  0  0  0  0  0  0  0  0  0  0
  -34.2010  -25.4730   18.3930 C   0  0  0  0  0  2  0  0  0  0  0  0
  -32.9860  -26.2820   18.8810 C   0  0  0  0  0  2  0  0  0  0  0  0
  -32.0240  -25.4100   19.4690 O   0  0  0  0  0  0  0  0  0  0  0  0
  -27.2820  -29.1150   23.2920 C   0  0  0  0  0  0  0  0  0  0  0  0
  -30.7800  -25.9700   19.5690 C   0  0  0  0  0  0  0  0  0  0  0  0
  -26.4470  -28.1230   21.1820 C   0  0  0  0  0  3  0  0  0  0  0  0
  -28.2280  -27.1560   19.6370 C   0  0  0  0  0  0  0  0  0  0  0  0
  -28.9120  -28.7430   21.4480 C   0  0  0  0  0  2  0  0  0  0  0  0
  -29.2350  -27.6110   20.4990 C   0  0  0  0  0  0  0  0  0  0  0  0
  -30.5150  -27.0210   20.4710 C   0  0  0  0  0  3  0  0  0  0  0  0
  -29.7560  -25.4990   18.7250 C   0  0  0  0  0  3  0  0  0  0  0  0
  -28.4800  -26.0930   18.7500 C   0  0  0  0  0  3  0  0  0  0  0  0
  -26.8940  -27.8610   19.7180 C   0  0  0  0  0  2  0  0  0  0  0  0
  -27.5560  -28.6590   22.0370 N   0  0  0  0  0  0  0  0  0  0  0  0
  -26.1220  -29.1370   23.7250 O   0  0  0  0  0  0  0  0  0  0  0  0
  -25.8150  -26.8300   21.7400 C   0  0  0  0  0  0  0  0  0  0  0  0
  -24.5370  -26.5940   21.4010 N   0  0  0  0  0  0  0  0  0  0  0  0
  -26.4760  -26.0490   22.4320 O   0  0  0  0  0  0  0  0  0  0  0  0
  -24.0630  -27.2860   20.8370 H   0  0  0  0  0  0  0  0  0  0  0  0
  -21.2630  -25.0910   21.1540 C   0  0  0  0  0  0  0  0  0  0  0  0
  -23.7490  -25.4220   21.7770 C   0  0  0  0  0  3  0  0  0  0  0  0
  -24.0390  -24.2320   20.8330 C   0  0  0  0  0  2  0  0  0  0  0  0
  -23.0680  -24.1490   19.6510 C   0  0  0  0  0  2  0  0  0  0  0  0
  -21.6270  -24.0120   20.1490 C   0  0  0  0  0  2  0  0  0  0  0  0
  -22.2610  -25.7650   21.9070 C   0  0  0  0  0  0  0  0  0  0  0  0
  -21.8730  -26.7850   22.8020 C   0  0  0  0  0  3  0  0  0  0  0  0
  -20.5170  -27.1330   22.9530 C   0  0  0  0  0  3  0  0  0  0  0  0
  -19.5320  -26.4510   22.2170 C   0  0  0  0  0  3  0  0  0  0  0  0
  -19.9050  -25.4320   21.3240 C   0  0  0  0  0  3  0  0  0  0  0  0
  -28.4070  -29.6510   24.2330 C   0  0  0  0  0  3  0  0  0  0  0  0
  -27.9160  -30.8930   24.8450 N   0  0  0  0  0  0  0  0  0  0  0  0
  -28.2600  -32.1240   24.4450 C   0  0  0  0  0  0  0  0  0  0  0  0
  -29.0920  -32.3330   23.5570 O   0  0  0  0  0  0  0  0  0  0  0  0
  -27.1910  -30.7990   25.5400 H   0  0  0  0  0  0  0  0  0  0  0  0
  -26.4440  -33.8510   24.2470 C   0  0  0  0  0  1  0  0  0  0  0  0
  -27.5720  -33.3130   25.1410 C   0  0  0  0  0  3  0  0  0  0  0  0
  -29.4510  -34.0560   26.5360 C   0  0  0  0  0  1  0  0  0  0  0  0
  -28.5010  -34.4110   25.4850 N   0  0  0  0  0  0  0  0  0  0  0  0
  -27.9890  -35.2360   25.7860 H   0  0  0  0  0  0  0  0  0  0  0  0
  -28.8410  -28.6150   25.3410 C   0  0  1  0  0  0  0  0  0  0  0  0
  -27.6550  -28.0380   26.1490 C   0  0  0  0  0  1  0  0  0  0  0  0
  -29.6030  -27.4270   24.7080 C   0  0  0  0  0  1  0  0  0  0  0  0
  -29.8160  -29.2860   26.3360 C   0  0  0  0  0  1  0  0  0  0  0  0
  1  2  1  0
  3  6  1  0
  4  1  2  0
  5  3  2  0
  5  4  1  0
  6 23  1  0
  6  2  2  0
  7  8  2  0
  7  5  1  0
  9 10  1  0
 11  9  1  0
 12  8  1  0
 12  4  1  0
 12 10  1  1
 13 11  1  0
 13 12  1  0
 13 14  1  6
 15 21  1  0
 15 23  1  0
 16 21  1  0
 17 18  1  0
 17 16  1  0
 19 18  1  0
 19 28  1  0
 19 20  1  0
 21 20  1  0
 22 15  2  0
 23 24  1  0
 25 28  1  0
 25 26  2  0
 26 27  1  0
 27 30  1  0
 28 29  1  0
 29 27  2  0
 30 31  1  0
 31 32  2  0
 33 36  1  0
 33 32  1  0
 34 33  2  0
 35 34  1  0
 35 30  2  0
 36 37  1  0
 37 38  1  0
 38 39  2  0
 40 39  1  0
 40 44  1  0
 41 40  2  0
 42 37  2  0
 42 41  1  0
 43 42  1  0
 45 26  1  0
 45 46  1  0
 46 49  1  0
 46 48  1  0
 47 45  2  0
 50 25  1  0
 51 50  1  0
 52 50  1  0
 53 13  1  0
 54 53  1  0
 55 54  1  0
 56 55  1  0
 56 58  1  0
 57 58  1  0
 57 61  1  0
 58 60  1  0
 59 57  2  0
 61 62  1  0
 62 63  1  0
 63 65  1  0
 64 75  2  0
 65 70  1  0
 66 76  1  0
 66 74  1  0
 67 73  1  0
 67 69  1  0
 68 74  1  0
 69 68  1  0
 70 69  2  0
 71 72  1  0
 71 65  2  0
 72 67  2  0
 73 66  1  0
 74 64  1  0
 76 78  2  0
 77 76  1  0
 79 77  1  0
 80 89  2  0
 80 85  1  0
 81 77  1  0
 81 85  1  0
 82 81  1  0
 83 84  1  0
 83 82  1  0
 84 80  1  0
 85 86  2  0
 86 87  1  0
 88 87  2  0
 89 88  1  0
 90 64  1  0
 90 91  1  0
 90100  1  0
 91 94  1  0
 92 91  1  0
 92 96  1  0
 93 92  2  0
 96 95  1  0
 96 98  1  0
 98 99  1  0
 98 97  1  0
100101  1  1
100103  1  0
102100  1  0
M  ISO  4  15 100  23 100  62 101  63 101
M  END
>  <TORSDO>  (36) 
F 23

>  <SCORE>  (36) 
-9.469

>  <name>  (36) 
35

>  <ligand_id>  (36) 
35

>  <original_smiles>  (36) 
[H]c1c([H])c([H])c2c(c1[H])C([H])([H])C([H])([H])C([H])([H])C2([H])N([H])C(=O)C1([H])N(C(=O)C([H])(N([H])C(=O)C([H])(N([H])C([H])([H])[H])C([H])([H])[H])C(C([H])([H])[H])(C([H])([H])[H])C([H])([H])[H])C([H])([H])c2c([H])c(OC([H])([H])C([H])([H])C(=O)N([H])C([H])([H])C([H])([H])C([H])([H])C([H])([H])[N+]3([H])C([H])([H])C([H])([H])C([H])([H])C34c3c([H])c([H])c(N([H])C(=O)N5C([H])([H])C([H])([H])C([H])([H])C([H])(n6nc(-c7c([H])c([H])c(Oc8c([H])c([H])c(F)c([H])c8F)c([H])c7[H])c(C(=O)N([H])[H])c6N([H])[H])C5([H])[H])c([H])c3C([H])([H])C4([H])[H])c([H])c([H])c2C1([H])[H]

>  <smiles>  (36) 
[H]c1c([H])c([H])c2c(c1[H])C([H])([H])C([H])([H])C([H])([H])C2([H])N([H])C(=O)C1([H])N(C(=O)C([H])(N([H])C(=O)C([H])(N([H])C([H])([H])[H])C([H])([H])[H])C(C([H])([H])[H])(C([H])([H])[H])C([H])([H])[H])C([H])([H])c2c([H])c(OC([H])([H])C([H])([H])C(=O)N([H])C([H])([H])C([H])([H])C([H])([H])C([H])([H])[N+]3([H])C([H])([H])C([H])([H])C([H])([H])C34c3c([H])c([H])c(N([H])C(=O)N5C([H])([H])C([H])([H])C([H])([H])C([H])(n6nc(-c7c([H])c([H])c(Oc8c([H])c([H])c(F)c([H])c8F)c([H])c7[H])c(C(=O)N([H])[H])c6N([H])[H])C5([H])[H])c([H])c3C([H])([H])C4([H])[H])c([H])c([H])c2C1([H])[H]

$$$$
36:0:0
     RDKit          3D

 97106  0  0  1  0  0  0  0  0999 V2000
  -31.5240  -20.9370   19.9580 C   0  0  0  0  0  2  0  0  0  0  0  0
  -30.7770  -20.7340   22.3700 C   0  0  0  0  0  3  0  0  0  0  0  0
  -31.1240  -18.6880   21.0950 C   0  0  0  0  0  3  0  0  0  0  0  0
  -30.3970  -19.9790   23.4980 C   0  0  0  0  0  0  0  0  0  0  0  0
  -30.3620  -18.5620   23.4240 C   0  0  0  0  0  0  0  0  0  0  0  0
  -31.1380  -20.0980   21.1670 C   0  0  0  0  0  0  0  0  0  0  0  0
  -30.7370  -17.9140   22.2180 C   0  0  0  0  0  0  0  0  0  0  0  0
  -30.0030  -20.7260   24.7670 C   0  0  0  0  0  2  0  0  0  0  0  0
  -29.9630  -17.7270   24.6450 C   0  0  0  0  0  2  0  0  0  0  0  0
  -30.0390  -19.8500   26.0260 C   0  0  0  0  0  2  0  0  0  0  0  0
  -29.3130  -18.5260   25.7840 C   0  0  0  0  0  2  0  0  0  0  0  0
  -31.3160  -15.5950   21.4470 C   0  0  0  0  0  0  0  0  0  0  0  0
  -31.4310  -13.1980   20.8420 C   0  0  0  0  0  2  0  0  0  0  0  0
  -30.7390  -12.9160   19.4950 C   0  0  0  0  0  2  0  0  0  0  0  0
  -29.2270  -12.6960   19.6850 C   0  0  0  0  0  2  0  0  0  0  0  0
  -28.5690  -13.8070   20.5420 C   0  0  0  0  0  3  0  0  0  0  0  0
  -29.3760  -14.0340   21.8390 C   0  0  0  0  0  2  0  0  0  0  0  0
  -30.7740  -14.3500   21.4770 N   0  0  0  0  0  0  0  0  0  0  0  0
  -32.3970  -15.8530   20.9060 O   0  0  0  0  0  0  0  0  0  0  0  0
  -30.6180  -16.4990   22.1500 N   0  0  0  0  0  0  0  0  0  0  0  0
  -29.8710  -16.1000   22.6960 H   0  0  0  0  0  0  0  0  0  0  0  0
  -26.0890  -14.3680   20.9650 C   0  0  0  0  0  0  0  0  0  0  0  0
  -24.9920  -13.5690   21.1550 C   0  0  0  0  0  0  0  0  0  0  0  0
  -25.4710  -12.2250   21.1100 C   0  0  0  0  0  0  0  0  0  0  0  0
  -27.1670  -13.5050   20.8240 N   0  0  0  0  0  0  0  0  0  0  0  0
  -26.7890  -12.2090   20.9660 N   0  0  0  0  0  0  0  0  0  0  0  0
  -24.7430  -10.9500   21.1420 C   0  0  0  0  0  0  0  0  0  0  0  0
  -25.0460   -9.9490   22.0910 C   0  0  0  0  0  3  0  0  0  0  0  0
  -24.3210   -8.7370   22.1110 C   0  0  0  0  0  3  0  0  0  0  0  0
  -23.2780   -8.5200   21.1810 C   0  0  0  0  0  0  0  0  0  0  0  0
  -22.9950   -9.5100   20.2220 C   0  0  0  0  0  3  0  0  0  0  0  0
  -23.7210  -10.7120   20.2000 C   0  0  0  0  0  3  0  0  0  0  0  0
  -22.5370   -7.3640   21.1090 O   0  0  0  0  0  0  0  0  0  0  0  0
  -22.2530   -6.6220   22.2260 C   0  0  0  0  0  0  0  0  0  0  0  0
  -21.5630   -7.1700   23.3290 C   0  0  0  0  0  3  0  0  0  0  0  0
  -21.2300   -6.3530   24.4280 C   0  0  0  0  0  3  0  0  0  0  0  0
  -21.5740   -4.9890   24.4220 C   0  0  0  0  0  0  0  0  0  0  0  0
  -22.2560   -4.4400   23.3210 C   0  0  0  0  0  3  0  0  0  0  0  0
  -22.5910   -5.2530   22.2250 C   0  0  0  0  0  0  0  0  0  0  0  0
  -23.2290   -4.7150   21.1580 F   0  0  0  0  0  0  0  0  0  0  0  0
  -21.2480   -4.2010   25.4730 F   0  0  0  0  0  0  0  0  0  0  0  0
  -23.5650  -14.0230   21.2750 C   0  0  0  0  0  0  0  0  0  0  0  0
  -22.7480  -13.2840   22.0170 N   0  0  0  0  0  0  0  0  0  0  0  0
  -23.1780  -15.0660   20.7490 O   0  0  0  0  0  0  0  0  0  0  0  0
  -23.0700  -12.4390   22.4650 H   0  0  0  0  0  0  0  0  0  0  0  0
  -21.7860  -13.5670   22.1380 H   0  0  0  0  0  0  0  0  0  0  0  0
  -26.2600  -15.7460   20.8840 N   0  0  0  0  0  0  0  0  0  0  0  0
  -25.4820  -16.3950   20.9370 H   0  0  0  0  0  0  0  0  0  0  0  0
  -27.1470  -16.2040   20.7130 H   0  0  0  0  0  0  0  0  0  0  0  0
  -30.6720  -23.0080   18.8790 C   0  0  0  0  0  0  0  0  0  0  0  0
  -30.4870  -21.9020   19.6090 N   0  0  0  0  0  0  0  0  0  0  0  0
  -31.7830  -23.3620   18.4790 O   0  0  0  0  0  0  0  0  0  0  0  0
  -29.5470  -21.6820   19.9060 H   0  0  0  0  0  0  0  0  0  0  0  0
  -29.4130  -23.8050   18.5210 C   0  0  0  0  0  2  0  0  0  0  0  0
  -29.6190  -25.3220   18.2970 C   0  0  0  0  0  2  0  0  0  0  0  0
  -28.2890  -26.0030   17.9440 C   0  0  0  0  0  2  0  0  0  0  0  0
  -28.2990  -27.4060   18.2220 O   0  0  0  0  0  0  0  0  0  0  0  0
  -24.3780  -31.2630   22.7170 C   0  0  0  0  0  0  0  0  0  0  0  0
  -27.0660  -27.9790   18.4610 C   0  0  0  0  0  0  0  0  0  0  0  0
  -23.1330  -30.1590   20.8870 C   0  0  0  0  0  3  0  0  0  0  0  0
  -24.5600  -29.1650   19.0250 C   0  0  0  0  0  0  0  0  0  0  0  0
  -25.5840  -30.8290   20.5820 C   0  0  0  0  0  2  0  0  0  0  0  0
  -25.7220  -29.6640   19.6250 C   0  0  0  0  0  0  0  0  0  0  0  0
  -26.9770  -29.0810   19.3400 C   0  0  0  0  0  3  0  0  0  0  0  0
  -25.8790  -27.4910   17.8600 C   0  0  0  0  0  3  0  0  0  0  0  0
  -24.6320  -28.0760   18.1420 C   0  0  0  0  0  3  0  0  0  0  0  0
  -23.2580  -29.8450   19.3730 C   0  0  0  0  0  2  0  0  0  0  0  0
  -24.3880  -30.7520   21.4540 N   0  0  0  0  0  0  0  0  0  0  0  0
  -23.3390  -31.2850   23.3910 O   0  0  0  0  0  0  0  0  0  0  0  0
  -22.6760  -28.8780   21.6190 C   0  0  0  0  0  0  0  0  0  0  0  0
  -21.3660  -28.5880   21.5500 N   0  0  0  0  0  0  0  0  0  0  0  0
  -23.4890  -28.1610   22.2070 O   0  0  0  0  0  0  0  0  0  0  0  0
  -20.7640  -29.2280   21.0520 H   0  0  0  0  0  0  0  0  0  0  0  0
  -18.1750  -26.9560   21.9970 C   0  0  0  0  0  0  0  0  0  0  0  0
  -20.7150  -27.4130   22.1310 C   0  0  0  0  0  3  0  0  0  0  0  0
  -20.8850  -26.1750   21.2210 C   0  0  0  0  0  2  0  0  0  0  0  0
  -19.7200  -25.9810   20.2450 C   0  0  0  0  0  2  0  0  0  0  0  0
  -18.4000  -25.8250   21.0070 C   0  0  0  0  0  2  0  0  0  0  0  0
  -19.2620  -27.7110   22.5130 C   0  0  0  0  0  0  0  0  0  0  0  0
  -18.9950  -28.7750   23.4030 C   0  0  0  0  0  3  0  0  0  0  0  0
  -17.6740  -29.0830   23.7810 C   0  0  0  0  0  3  0  0  0  0  0  0
  -16.6050  -28.3210   23.2810 C   0  0  0  0  0  3  0  0  0  0  0  0
  -16.8560  -27.2580   22.3950 C   0  0  0  0  0  3  0  0  0  0  0  0
  -25.6630  -31.8660   23.3650 C   0  0  0  0  0  3  0  0  0  0  0  0
  -25.2970  -33.1650   23.9440 N   0  0  0  0  0  0  0  0  0  0  0  0
  -25.5220  -34.3480   23.3580 C   0  0  0  0  0  0  0  0  0  0  0  0
  -26.1350  -34.4650   22.2930 O   0  0  0  0  0  0  0  0  0  0  0  0
  -24.7430  -33.1440   24.7870 H   0  0  0  0  0  0  0  0  0  0  0  0
  -23.6780  -36.0590   23.3950 C   0  0  0  0  0  1  0  0  0  0  0  0
  -24.9830  -35.6050   24.0680 C   0  0  0  0  0  3  0  0  0  0  0  0
  -27.1040  -36.4750   24.9460 C   0  0  0  0  0  1  0  0  0  0  0  0
  -25.9460  -36.7280   24.0930 N   0  0  0  0  0  0  0  0  0  0  0  0
  -25.4950  -37.5800   24.4140 H   0  0  0  0  0  0  0  0  0  0  0  0
  -26.3060  -30.9280   24.4590 C   0  0  1  0  0  0  0  0  0  0  0  0
  -25.3020  -30.4470   25.5310 C   0  0  0  0  0  1  0  0  0  0  0  0
  -26.9350  -29.6770   23.8030 C   0  0  0  0  0  1  0  0  0  0  0  0
  -27.4520  -31.6740   25.1810 C   0  0  0  0  0  1  0  0  0  0  0  0
  1  6  1  0
  2  4  1  0
  3  6  1  0
  3  7  2  0
  4  8  1  0
  5  4  2  0
  5  9  1  0
  6  2  2  0
  7  5  1  0
  8 10  1  0
  9 11  1  0
 11 10  1  0
 12 18  1  0
 12 20  1  0
 13 18  1  0
 14 15  1  0
 14 13  1  0
 16 15  1  0
 16 25  1  0
 16 17  1  0
 18 17  1  0
 19 12  2  0
 20  7  1  0
 20 21  1  0
 22 23  2  0
 23 42  1  0
 24 27  1  0
 24 23  1  0
 25 22  1  0
 25 26  1  0
 26 24  2  0
 27 28  1  0
 28 29  2  0
 30 29  1  0
 31 30  2  0
 32 31  1  0
 32 27  2  0
 33 30  1  0
 33 34  1  0
 34 35  1  0
 35 36  2  0
 37 36  1  0
 37 41  1  0
 38 37  2  0
 39 34  2  0
 39 38  1  0
 40 39  1  0
 42 43  1  0
 43 46  1  0
 43 45  1  0
 44 42  2  0
 47 48  1  0
 47 22  1  0
 49 47  1  0
 50 51  1  0
 51 53  1  0
 51  1  1  0
 52 50  2  0
 54 50  1  0
 55 54  1  0
 56 57  1  0
 56 55  1  0
 57 59  1  0
 58 69  2  0
 59 64  1  0
 60 68  1  0
 60 70  1  0
 61 67  1  0
 61 63  1  0
 62 68  1  0
 63 62  1  0
 64 63  2  0
 65 66  1  0
 65 59  2  0
 66 61  2  0
 67 60  1  0
 68 58  1  0
 70 72  2  0
 71 70  1  0
 73 71  1  0
 74 83  2  0
 74 79  1  0
 75 71  1  0
 75 79  1  0
 76 75  1  0
 77 78  1  0
 77 76  1  0
 78 74  1  0
 79 80  2  0
 80 81  1  0
 82 81  2  0
 83 82  1  0
 84 58  1  0
 84 85  1  0
 84 94  1  0
 85 88  1  0
 86 85  1  0
 86 90  1  0
 87 86  2  0
 90 89  1  0
 90 92  1  0
 92 93  1  0
 92 91  1  0
 94 97  1  1
 94 95  1  0
 96 94  1  0
M  ISO  4  12 100  20 100  56 101  57 101
M  END
>  <TORSDO>  (37) 
F 21

>  <SCORE>  (37) 
-0.034

>  <name>  (37) 
36

>  <ligand_id>  (37) 
36

>  <original_smiles>  (37) 
[H]c1c([H])c([H])c2c(c1[H])C([H])([H])C([H])([H])C([H])([H])C2([H])N([H])C(=O)C1([H])N(C(=O)C([H])(N([H])C(=O)C([H])(N([H])C([H])([H])[H])C([H])([H])[H])C(C([H])([H])[H])(C([H])([H])[H])C([H])([H])[H])C([H])([H])c2c([H])c(OC([H])([H])C([H])([H])C([H])([H])C(=O)N([H])C([H])([H])c3c([H])c(N([H])C(=O)N4C([H])([H])C([H])([H])C([H])([H])C([H])(n5nc(-c6c([H])c([H])c(Oc7c([H])c([H])c(F)c([H])c7F)c([H])c6[H])c(C(=O)N([H])[H])c5N([H])[H])C4([H])[H])c4c(c3[H])C([H])([H])C([H])([H])C([H])([H])C4([H])[H])c([H])c([H])c2C1([H])[H]

>  <smiles>  (37) 
[H]c1c([H])c([H])c2c(c1[H])C([H])([H])C([H])([H])C([H])([H])C2([H])N([H])C(=O)C1([H])N(C(=O)C([H])(N([H])C(=O)C([H])(N([H])C([H])([H])[H])C([H])([H])[H])C(C([H])([H])[H])(C([H])([H])[H])C([H])([H])[H])C([H])([H])c2c([H])c(OC([H])([H])C([H])([H])C([H])([H])C(=O)N([H])C([H])([H])c3c([H])c(N([H])C(=O)N4C([H])([H])C([H])([H])C([H])([H])C([H])(n5nc(-c6c([H])c([H])c(Oc7c([H])c([H])c(F)c([H])c7F)c([H])c6[H])c(C(=O)N([H])[H])c5N([H])[H])C4([H])[H])c4c(c3[H])C([H])([H])C([H])([H])C([H])([H])C4([H])[H])c([H])c([H])c2C1([H])[H]

$$$$
37:0:0
     RDKit          3D

 89 98  0  0  1  0  0  0  0  0999 V2000
  -30.5330  -15.1090   20.3750 C   0  0  0  0  0  0  0  0  0  0  0  0
  -30.4620  -12.6940   19.5140 C   0  0  0  0  0  2  0  0  0  0  0  0
  -29.5700  -12.5200   18.2630 C   0  0  0  0  0  2  0  0  0  0  0  0
  -28.1060  -12.2640   18.6690 C   0  0  0  0  0  2  0  0  0  0  0  0
  -27.6350  -13.2370   19.7780 C   0  0  0  0  0  3  0  0  0  0  0  0
  -28.6610  -13.3620   20.9260 C   0  0  0  0  0  2  0  0  0  0  0  0
  -29.9180  -13.8380   20.3220 N   0  0  0  0  0  0  0  0  0  0  0  0
  -31.7540  -15.0790   20.1690 O   0  0  0  0  0  0  0  0  0  0  0  0
  -31.9050  -19.6070   19.6390 C   0  0  0  0  0  3  0  0  0  0  0  0
  -31.6150  -18.2310   19.8340 C   0  0  0  0  0  3  0  0  0  0  0  0
  -30.9340  -20.6400   19.7630 C   0  0  0  0  0  3  0  0  0  0  0  0
  -29.3380  -18.9180   20.3050 C   0  0  0  0  0  0  0  0  0  0  0  0
  -30.3110  -17.8280   20.1800 C   0  0  0  0  0  0  0  0  0  0  0  0
  -29.5780  -20.3990   20.0960 C   0  0  0  0  0  0  0  0  0  0  0  0
  -28.0700  -18.1940   20.7050 C   0  0  0  0  0  3  0  0  0  0  0  0
  -28.4030  -16.6360   20.7190 C   0  0  0  0  0  3  0  0  0  0  0  0
  -29.8370  -16.4010   20.4180 N   0  0  0  0  0  0  0  0  0  0  0  0
  -25.2320  -13.8110   20.4450 C   0  0  0  0  0  0  0  0  0  0  0  0
  -24.1690  -13.0360   20.8080 C   0  0  0  0  0  0  0  0  0  0  0  0
  -24.6490  -11.6910   20.8250 C   0  0  0  0  0  0  0  0  0  0  0  0
  -26.2920  -12.9390   20.2560 N   0  0  0  0  0  0  0  0  0  0  0  0
  -25.9480  -11.6590   20.5530 N   0  0  0  0  0  0  0  0  0  0  0  0
  -23.9300  -10.4290   21.0250 C   0  0  0  0  0  0  0  0  0  0  0  0
  -24.3620   -9.4750   21.9720 C   0  0  0  0  0  3  0  0  0  0  0  0
  -23.6390   -8.2780   22.1610 C   0  0  0  0  0  3  0  0  0  0  0  0
  -22.4710   -8.0260   21.4010 C   0  0  0  0  0  0  0  0  0  0  0  0
  -22.0600   -8.9680   20.4430 C   0  0  0  0  0  3  0  0  0  0  0  0
  -22.7830  -10.1570   20.2530 C   0  0  0  0  0  3  0  0  0  0  0  0
  -21.7210   -6.8790   21.4980 O   0  0  0  0  0  0  0  0  0  0  0  0
  -21.6850   -6.1380   22.6510 C   0  0  0  0  0  0  0  0  0  0  0  0
  -21.2920   -6.6990   23.8870 C   0  0  0  0  0  3  0  0  0  0  0  0
  -21.2030   -5.8850   25.0320 C   0  0  0  0  0  3  0  0  0  0  0  0
  -21.4960   -4.5110   24.9460 C   0  0  0  0  0  0  0  0  0  0  0  0
  -21.8820   -3.9490   23.7160 C   0  0  0  0  0  3  0  0  0  0  0  0
  -21.9740   -4.7610   22.5720 C   0  0  0  0  0  0  0  0  0  0  0  0
  -22.3260   -4.2100   21.3850 F   0  0  0  0  0  0  0  0  0  0  0  0
  -21.4020   -3.7260   26.0450 F   0  0  0  0  0  0  0  0  0  0  0  0
  -22.7610  -13.5080   21.0220 C   0  0  0  0  0  0  0  0  0  0  0  0
  -22.0140  -12.8360   21.8910 N   0  0  0  0  0  0  0  0  0  0  0  0
  -22.3280  -14.5100   20.4520 O   0  0  0  0  0  0  0  0  0  0  0  0
  -22.3780  -12.0320   22.3800 H   0  0  0  0  0  0  0  0  0  0  0  0
  -21.0660  -13.1340   22.0710 H   0  0  0  0  0  0  0  0  0  0  0  0
  -25.3690  -15.1780   20.2290 N   0  0  0  0  0  0  0  0  0  0  0  0
  -24.5720  -15.8020   20.2900 H   0  0  0  0  0  0  0  0  0  0  0  0
  -26.1940  -15.6240   19.8530 H   0  0  0  0  0  0  0  0  0  0  0  0
  -28.6620  -21.5690   20.1700 O   0  0  0  0  0  0  0  0  0  0  0  0
  -29.0150  -23.1110   20.0100 C   0  0  0  0  0  3  0  0  0  0  0  0
  -27.9550  -24.4800   19.9440 C   0  0  0  0  0  3  0  0  0  0  0  0
  -28.2280  -26.0510   19.9900 O   0  0  0  0  0  0  0  0  0  0  0  0
  -24.6770  -31.8170   23.0900 C   0  0  0  0  0  0  0  0  0  0  0  0
  -27.1810  -27.0700   19.9690 C   0  0  0  0  0  0  0  0  0  0  0  0
  -23.4450  -30.4420   21.4570 C   0  0  0  0  0  3  0  0  0  0  0  0
  -24.8630  -28.8670   19.9940 C   0  0  0  0  0  0  0  0  0  0  0  0
  -26.0000  -30.6850   21.2530 C   0  0  0  0  0  2  0  0  0  0  0  0
  -26.0590  -29.2910   20.5860 C   0  0  0  0  0  0  0  0  0  0  0  0
  -27.2170  -28.4140   20.5500 C   0  0  0  0  0  3  0  0  0  0  0  0
  -25.9530  -26.7650   19.3400 C   0  0  0  0  0  3  0  0  0  0  0  0
  -24.8270  -27.6190   19.3540 C   0  0  0  0  0  3  0  0  0  0  0  0
  -23.6430  -29.7770   20.0690 C   0  0  0  0  0  2  0  0  0  0  0  0
  -24.7290  -31.0030   21.9890 N   0  0  0  0  0  0  0  0  0  0  0  0
  -23.6010  -32.1000   23.6370 O   0  0  0  0  0  0  0  0  0  0  0  0
  -22.7750  -29.4320   22.4230 C   0  0  0  0  0  0  0  0  0  0  0  0
  -21.4400  -29.2790   22.3300 N   0  0  0  0  0  0  0  0  0  0  0  0
  -23.4580  -28.7860   23.2220 O   0  0  0  0  0  0  0  0  0  0  0  0
  -20.9420  -29.8550   21.6650 H   0  0  0  0  0  0  0  0  0  0  0  0
  -18.0630  -28.0980   22.9050 C   0  0  0  0  0  0  0  0  0  0  0  0
  -20.6300  -28.3380   23.1090 C   0  0  0  0  0  3  0  0  0  0  0  0
  -20.7050  -26.9110   22.5140 C   0  0  0  0  0  2  0  0  0  0  0  0
  -19.5760  -26.6090   21.5240 C   0  0  0  0  0  2  0  0  0  0  0  0
  -18.2120  -26.7560   22.2060 C   0  0  0  0  0  2  0  0  0  0  0  0
  -19.1990  -28.8470   23.3160 C   0  0  0  0  0  0  0  0  0  0  0  0
  -19.0030  -30.0990   23.9360 C   0  0  0  0  0  3  0  0  0  0  0  0
  -17.7070  -30.6070   24.1440 C   0  0  0  0  0  3  0  0  0  0  0  0
  -16.5870  -29.8560   23.7470 C   0  0  0  0  0  3  0  0  0  0  0  0
  -16.7660  -28.6030   23.1350 C   0  0  0  0  0  3  0  0  0  0  0  0
  -25.9650  -32.4470   23.7010 C   0  0  0  0  0  3  0  0  0  0  0  0
  -25.6520  -33.8310   24.0900 N   0  0  0  0  0  0  0  0  0  0  0  0
  -25.9460  -34.9160   23.3610 C   0  0  0  0  0  0  0  0  0  0  0  0
  -26.5760  -34.8570   22.3030 O   0  0  0  0  0  0  0  0  0  0  0  0
  -25.0910  -33.9490   24.9210 H   0  0  0  0  0  0  0  0  0  0  0  0
  -24.1860  -36.7040   23.1510 C   0  0  0  0  0  1  0  0  0  0  0  0
  -25.4670  -36.2830   23.8900 C   0  0  0  0  0  3  0  0  0  0  0  0
  -27.6310  -37.1650   24.6470 C   0  0  0  0  0  1  0  0  0  0  0  0
  -26.4820  -37.3520   23.7650 N   0  0  0  0  0  0  0  0  0  0  0  0
  -26.0750  -38.2610   23.9670 H   0  0  0  0  0  0  0  0  0  0  0  0
  -26.5190  -31.6410   24.9430 C   0  0  1  0  0  0  0  0  0  0  0  0
  -25.4580  -31.3730   26.0350 C   0  0  0  0  0  1  0  0  0  0  0  0
  -27.0920  -30.2760   24.5010 C   0  0  0  0  0  1  0  0  0  0  0  0
  -27.6860  -32.4210   25.5930 C   0  0  0  0  0  1  0  0  0  0  0  0
  1 17  1  0
  2  7  1  0
  3  4  1  0
  3  2  1  0
  5  4  1  0
  5 21  1  0
  5  6  1  0
  7  1  1  0
  7  6  1  0
  8  1  2  0
  9 11  2  0
  9 10  1  0
 10 13  2  0
 11 14  1  0
 12 15  1  0
 13 12  1  0
 13 17  1  0
 14 46  1  0
 14 12  2  0
 15 16  2  0
 17 16  1  0
 18 19  2  0
 19 20  1  0
 19 38  1  0
 20 23  1  0
 21 18  1  0
 21 22  1  0
 22 20  2  0
 23 24  1  0
 24 25  2  0
 26 29  1  0
 26 25  1  0
 27 26  2  0
 28 27  1  0
 28 23  2  0
 29 30  1  0
 30 31  1  0
 31 32  2  0
 33 32  1  0
 33 37  1  0
 34 33  2  0
 35 30  2  0
 35 34  1  0
 36 35  1  0
 38 39  1  0
 39 42  1  0
 39 41  1  0
 40 38  2  0
 43 44  1  0
 43 18  1  0
 45 43  1  0
 47 46  1  0
 48 49  1  0
 48 47  2  0
 50 61  2  0
 51 49  1  0
 51 56  1  0
 52 60  1  0
 52 62  1  0
 53 59  1  0
 53 55  1  0
 54 60  1  0
 55 54  1  0
 56 55  2  0
 57 58  1  0
 57 51  2  0
 58 53  2  0
 59 52  1  0
 60 50  1  0
 62 64  2  0
 63 62  1  0
 65 63  1  0
 66 75  2  0
 66 71  1  0
 67 63  1  0
 67 71  1  0
 68 67  1  0
 69 70  1  0
 69 68  1  0
 70 66  1  0
 71 72  2  0
 72 73  1  0
 74 73  2  0
 75 74  1  0
 76 50  1  0
 76 77  1  0
 76 86  1  0
 77 80  1  0
 78 82  1  0
 78 77  1  0
 79 78  2  0
 82 81  1  0
 84 82  1  0
 84 85  1  0
 84 83  1  0
 86 89  1  1
 86 87  1  0
 88 86  1  0
M  ISO  4   1 100  17 100  48 101  49 101
M  END
>  <TORSDO>  (38) 
F 18

>  <SCORE>  (38) 
-15.017

>  <name>  (38) 
37

>  <ligand_id>  (38) 
37

>  <original_smiles>  (38) 
[H]c1c([H])c(OC([H])([H])C([H])([H])Oc2c([H])c([H])c3c(c2[H])C([H])([H])N(C(=O)C([H])(N([H])C(=O)C([H])(N([H])C([H])([H])[H])C([H])([H])[H])C(C([H])([H])[H])(C([H])([H])[H])C([H])([H])[H])C([H])(C(=O)N([H])C2([H])c4c([H])c([H])c([H])c([H])c4C([H])([H])C([H])([H])C2([H])[H])C3([H])[H])c2c(c1[H])N(C(=O)N1C([H])([H])C([H])([H])C([H])([H])C([H])(n3nc(-c4c([H])c([H])c(Oc5c([H])c([H])c(F)c([H])c5F)c([H])c4[H])c(C(=O)N([H])[H])c3N([H])[H])C1([H])[H])C([H])([H])C2([H])[H]

>  <smiles>  (38) 
[H]c1c([H])c(OC([H])([H])C([H])([H])Oc2c([H])c([H])c3c(c2[H])C([H])([H])N(C(=O)C([H])(N([H])C(=O)C([H])(N([H])C([H])([H])[H])C([H])([H])[H])C(C([H])([H])[H])(C([H])([H])[H])C([H])([H])[H])C([H])(C(=O)N([H])C2([H])c4c([H])c([H])c([H])c([H])c4C([H])([H])C([H])([H])C2([H])[H])C3([H])[H])c2c(c1[H])N(C(=O)N1C([H])([H])C([H])([H])C([H])([H])C([H])(n3nc(-c4c([H])c([H])c(Oc5c([H])c([H])c(F)c([H])c5F)c([H])c4[H])c(C(=O)N([H])[H])c3N([H])[H])C1([H])[H])C([H])([H])C2([H])[H]

$$$$
38:0:0
     RDKit          3D

114121  0  0  1  0  0  0  0  0999 V2000
  -28.4740  -18.1860   19.9120 C   0  0  0  0  0  0  0  0  0  0  0  0
  -28.1180  -16.8890   19.5980 N   0  0  0  0  0  0  0  0  0  0  0  0
  -28.0540  -18.6640   20.9660 O   0  0  0  0  0  0  0  0  0  0  0  0
  -28.1870  -16.5910   18.6290 H   0  0  0  0  0  0  0  0  0  0  0  0
  -27.4890  -13.3210   21.9880 C   0  0  0  0  0  3  0  0  0  0  0  0
  -28.8440  -15.2560   21.3200 C   0  0  0  0  0  3  0  0  0  0  0  0
  -26.5620  -15.0470   20.5350 C   0  0  0  0  0  3  0  0  0  0  0  0
  -28.7190  -14.0360   22.0290 C   0  0  0  0  0  0  0  0  0  0  0  0
  -26.3730  -13.8200   21.2590 C   0  0  0  0  0  0  0  0  0  0  0  0
  -27.8040  -15.7810   20.5230 C   0  0  0  0  0  0  0  0  0  0  0  0
  -29.9670  -13.4160   22.7020 C   0  0  0  0  0  2  0  0  0  0  0  0
  -31.6640  -12.3660   20.9300 C   0  0  0  0  0  0  0  0  0  0  0  0
  -32.2000  -10.3630   19.6570 C   0  0  0  0  0  2  0  0  0  0  0  0
  -31.8020  -10.3180   17.7850 C   0  0  0  0  0  1  0  0  0  0  0  0
  -28.5680  -10.5230   17.7230 C   0  0  0  0  0  1  0  0  0  0  0  0
  -28.2080  -10.9540   19.5400 C   0  0  0  0  0  3  0  0  0  0  0  0
  -29.4410  -10.9230   20.9020 C   0  0  0  0  0  2  0  0  0  0  0  0
  -31.1290  -11.1000   20.7660 N   0  0  0  0  0  0  0  0  0  0  0  0
  -32.6380  -12.7450   20.2620 O   0  0  0  0  0  0  0  0  0  0  0  0
  -31.1620  -13.2540   21.8360 N   0  0  0  0  0  0  0  0  0  0  0  0
  -31.7280  -14.0950   21.8560 H   0  0  0  0  0  0  0  0  0  0  0  0
  -25.9480  -11.4850   19.4340 C   0  0  0  0  0  0  0  0  0  0  0  0
  -24.8440  -10.8650   19.8250 C   0  0  0  0  0  0  0  0  0  0  0  0
  -25.2530   -9.5690   20.3070 C   0  0  0  0  0  0  0  0  0  0  0  0
  -26.9360  -10.6310   19.8050 N   0  0  0  0  0  0  0  0  0  0  0  0
  -26.5730   -9.4440   20.3080 N   0  0  0  0  0  0  0  0  0  0  0  0
  -24.4560   -8.4510   20.7550 C   0  0  0  0  0  0  0  0  0  0  0  0
  -24.8300   -7.6960   21.8820 C   0  0  0  0  0  3  0  0  0  0  0  0
  -24.0270   -6.6230   22.3120 C   0  0  0  0  0  3  0  0  0  0  0  0
  -22.8510   -6.2950   21.5990 C   0  0  0  0  0  0  0  0  0  0  0  0
  -22.4960   -7.0550   20.4780 C   0  0  0  0  0  3  0  0  0  0  0  0
  -23.2840   -8.1300   20.0630 C   0  0  0  0  0  3  0  0  0  0  0  0
  -22.0240   -5.2480   21.8860 O   0  0  0  0  0  0  0  0  0  0  0  0
  -21.9760   -4.7000   23.1430 C   0  0  0  0  0  0  0  0  0  0  0  0
  -21.6860   -5.4710   24.2870 C   0  0  0  0  0  3  0  0  0  0  0  0
  -21.5250   -4.8400   25.5320 C   0  0  0  0  0  3  0  0  0  0  0  0
  -21.7240   -3.4570   25.6620 C   0  0  0  0  0  0  0  0  0  0  0  0
  -22.0570   -2.6910   24.5200 C   0  0  0  0  0  3  0  0  0  0  0  0
  -22.1390   -3.3120   23.2640 C   0  0  0  0  0  0  0  0  0  0  0  0
  -22.3900   -2.5740   22.1530 F   0  0  0  0  0  0  0  0  0  0  0  0
  -21.6070   -2.8650   26.8670 F   0  0  0  0  0  0  0  0  0  0  0  0
  -23.5030  -11.4750   19.6390 C   0  0  0  0  0  0  0  0  0  0  0  0
  -22.4970  -10.9700   20.2940 N   0  0  0  0  0  0  0  0  0  0  0  0
  -23.3490  -12.4880   18.9470 O   0  0  0  0  0  0  0  0  0  0  0  0
  -22.4920   -9.9910   20.5580 H   0  0  0  0  0  0  0  0  0  0  0  0
  -21.6360  -11.5030   20.3070 H   0  0  0  0  0  0  0  0  0  0  0  0
  -26.2060  -12.6730   18.7360 N   0  0  0  0  0  0  0  0  0  0  0  0
  -25.4120  -13.0170   18.2020 H   0  0  0  0  0  0  0  0  0  0  0  0
  -27.0370  -12.6560   18.1610 H   0  0  0  0  0  0  0  0  0  0  0  0
  -24.9670  -13.1250   21.3760 C   0  0  0  0  0  2  0  0  0  0  0  0
  -24.6730  -12.0610   22.4290 N   0  0  0  0  0  4  0  0  0  0  0  0
  -24.8830  -12.3460   23.3800 H   0  0  0  0  0  0  0  0  0  0  0  0
  -25.3150  -11.3190   22.2370 H   0  0  0  0  0  0  0  0  0  0  0  0
  -23.3150  -11.3940   22.3110 C   0  0  0  0  0  2  0  0  0  0  0  0
  -22.2250  -11.1920   23.4320 C   0  0  0  0  0  2  0  0  0  0  0  0
  -21.1710  -10.0520   23.0590 C   0  0  0  0  0  2  0  0  0  0  0  0
  -20.0080   -8.5390   24.6720 C   0  0  0  0  0  1  0  0  0  0  0  0
  -21.1550   -7.5310   22.8160 C   0  0  0  0  0  1  0  0  0  0  0  0
  -21.1670   -8.7000   23.7520 N   0  0  1  0  0  4  0  0  0  0  0  0
  -21.9910   -8.5910   24.3220 H   0  0  0  0  0  0  0  0  0  0  0  0
  -29.3750  -19.1660   19.0140 C   0  0  0  0  0  3  0  0  0  0  0  0
  -28.8980  -20.7500   19.5030 N   0  0  0  0  0  4  0  0  0  0  0  0
  -27.9240  -20.5270   19.6590 H   0  0  0  0  0  0  0  0  0  0  0  0
  -29.2450  -20.8260   20.4450 H   0  0  0  0  0  0  0  0  0  0  0  0
  -28.7400  -22.3530   18.9060 C   0  0  0  0  0  2  0  0  0  0  0  0
  -28.1400  -23.9600   19.6590 C   0  0  0  0  0  2  0  0  0  0  0  0
  -28.4160  -25.6550   19.7030 O   0  0  0  0  0  0  0  0  0  0  0  0
  -24.9020  -31.7280   22.9760 C   0  0  0  0  0  0  0  0  0  0  0  0
  -27.4690  -26.8340   19.8130 C   0  0  0  0  0  0  0  0  0  0  0  0
  -23.7470  -30.3560   21.3040 C   0  0  0  0  0  3  0  0  0  0  0  0
  -25.2120  -28.7840   19.8640 C   0  0  0  0  0  0  0  0  0  0  0  0
  -26.3230  -30.5550   21.1980 C   0  0  0  0  0  2  0  0  0  0  0  0
  -26.4040  -29.1530   20.4980 C   0  0  0  0  0  0  0  0  0  0  0  0
  -27.5360  -28.1950   20.4480 C   0  0  0  0  0  3  0  0  0  0  0  0
  -26.2460  -26.6540   19.1500 C   0  0  0  0  0  3  0  0  0  0  0  0
  -25.1590  -27.5590   19.1830 C   0  0  0  0  0  3  0  0  0  0  0  0
  -23.9970  -29.7110   19.9200 C   0  0  0  0  0  2  0  0  0  0  0  0
  -25.0160  -30.9070   21.8810 N   0  0  0  0  0  0  0  0  0  0  0  0
  -23.8000  -31.9920   23.4860 O   0  0  0  0  0  0  0  0  0  0  0  0
  -23.0570  -29.3250   22.2380 C   0  0  0  0  0  0  0  0  0  0  0  0
  -21.7220  -29.1790   22.1280 N   0  0  0  0  0  0  0  0  0  0  0  0
  -23.7280  -28.6610   23.0330 O   0  0  0  0  0  0  0  0  0  0  0  0
  -21.2330  -29.7680   21.4680 H   0  0  0  0  0  0  0  0  0  0  0  0
  -18.3270  -28.0550   22.7270 C   0  0  0  0  0  0  0  0  0  0  0  0
  -20.9010  -28.2150   22.8730 C   0  0  0  0  0  3  0  0  0  0  0  0
  -20.9230  -26.8270   22.1950 C   0  0  0  0  0  2  0  0  0  0  0  0
  -19.7600  -26.6140   21.2210 C   0  0  0  0  0  2  0  0  0  0  0  0
  -18.4190  -26.7560   21.9460 C   0  0  0  0  0  2  0  0  0  0  0  0
  -19.4900  -28.7510   23.1470 C   0  0  0  0  0  0  0  0  0  0  0  0
  -19.3430  -29.9700   23.8440 C   0  0  0  0  0  3  0  0  0  0  0  0
  -18.0660  -30.4930   24.1190 C   0  0  0  0  0  3  0  0  0  0  0  0
  -16.9170  -29.7940   23.7100 C   0  0  0  0  0  3  0  0  0  0  0  0
  -17.0480  -28.5750   23.0190 C   0  0  0  0  0  3  0  0  0  0  0  0
  -26.1490  -32.3820   23.6400 C   0  0  0  0  0  3  0  0  0  0  0  0
  -25.7640  -33.7270   24.1110 N   0  0  0  0  0  0  0  0  0  0  0  0
  -26.0750  -34.8760   23.4930 C   0  0  0  0  0  0  0  0  0  0  0  0
  -26.7750  -34.9150   22.4770 O   0  0  0  0  0  0  0  0  0  0  0  0
  -25.1440  -33.7690   24.9080 H   0  0  0  0  0  0  0  0  0  0  0  0
  -24.2930  -36.6450   23.2980 C   0  0  0  0  0  1  0  0  0  0  0  0
  -25.5260  -36.1890   24.0930 C   0  0  0  0  0  3  0  0  0  0  0  0
  -27.6130  -37.0370   25.0780 C   0  0  0  0  0  1  0  0  0  0  0  0
  -26.5250  -37.2820   24.1340 N   0  0  0  0  0  0  0  0  0  0  0  0
  -26.0820  -38.1630   24.3800 H   0  0  0  0  0  0  0  0  0  0  0  0
  -26.7220  -31.5390   24.8470 C   0  0  1  0  0  0  0  0  0  0  0  0
  -25.6460  -31.1180   25.8770 C   0  0  0  0  0  1  0  0  0  0  0  0
  -27.4040  -30.2500   24.3380 C   0  0  0  0  0  1  0  0  0  0  0  0
  -27.8170  -32.3480   25.5810 C   0  0  0  0  0  1  0  0  0  0  0  0
  -30.9830  -18.3200   19.1470 C   0  0  0  0  0  2  0  0  0  0  0  0
  -33.9260  -14.3140   17.1110 C   0  0  0  0  0  3  0  0  0  0  0  0
  -32.5530  -13.7670   17.7920 C   0  0  0  0  0  1  0  0  0  0  0  0
  -34.2080  -15.8950   17.1570 C   0  0  0  0  0  3  0  0  0  0  0  0
  -31.4070  -15.3650   18.6710 C   0  0  0  0  0  1  0  0  0  0  0  0
  -33.2780  -17.0230   17.8080 C   0  0  0  0  0  3  0  0  0  0  0  0
  -31.8690  -16.9110   18.5210 C   0  0  0  0  0  0  0  0  0  0  0  0
  1  3  2  0
  2  1  1  0
  2 10  1  0
  4  2  1  0
  5  8  1  0
  6  8  2  0
  7  9  1  0
  8 11  1  0
  9 50  1  0
  9  5  2  0
 10  7  2  0
 10  6  1  0
 12 20  1  0
 13 18  1  0
 14 13  1  0
 16 15  1  0
 16 25  1  0
 16 17  1  0
 18 17  1  0
 18 12  1  0
 19 12  2  0
 20 21  1  0
 20 11  1  0
 22 25  1  0
 22 23  2  0
 23 24  1  0
 24 26  2  0
 24 27  1  0
 25 26  1  0
 27 28  1  0
 28 29  2  0
 30 33  1  0
 30 29  1  0
 31 30  2  0
 32 31  1  0
 32 27  2  0
 33 34  1  0
 34 39  2  0
 34 35  1  0
 35 36  2  0
 36 37  1  0
 37 41  1  0
 38 37  2  0
 39 38  1  0
 40 39  1  0
 42 23  1  0
 42 43  1  0
 43 46  1  0
 43 45  1  0
 44 42  2  0
 47 22  1  0
 48 47  1  0
 49 47  1  0
 50 51  1  0
 51 52  1  0
 53 51  1  0
 54 51  1  0
 54 55  1  0
 56 55  1  0
 56 59  1  0
 58 59  1  0
 59 60  1  1
 59 57  1  0
 61108  1  0
 61 62  1  0
 61  1  1  0
 62 63  1  0
 62 64  1  0
 65 62  1  0
 65 66  1  0
 66 67  1  0
 67 69  1  0
 68 79  2  0
 69 74  1  0
 70 78  1  0
 70 80  1  0
 71 77  1  0
 71 73  1  0
 72 78  1  0
 73 72  1  0
 74 73  2  0
 75 76  1  0
 75 69  2  0
 76 71  2  0
 77 70  1  0
 78 68  1  0
 80 82  2  0
 81 80  1  0
 83 81  1  0
 84 93  2  0
 84 89  1  0
 85 81  1  0
 85 89  1  0
 86 85  1  0
 87 88  1  0
 87 86  1  0
 88 84  1  0
 89 90  2  0
 90 91  1  0
 92 91  2  0
 93 92  1  0
 94 68  1  0
 94 95  1  0
 94104  1  0
 95 98  1  0
 96100  1  0
 96 95  1  0
 97 96  2  0
100 99  1  0
100102  1  0
102103  1  0
102101  1  0
104107  1  1
104105  1  0
106104  1  0
109111  2  0
109110  1  0
111113  1  0
113114  2  0
114112  1  0
114108  1  0
M  ISO  4  12 100  20 100  66 101  67 101
M  END
>  <TORSDO>  (39) 
F 30

>  <SCORE>  (39) 
8.247

>  <name>  (39) 
38

>  <ligand_id>  (39) 
38

>  <original_smiles>  (39) 
[H]c1c([H])c([H])c(C([H])([H])C([H])(C(=O)N([H])c2c([H])c(C([H])([H])N([H])C(=O)N3C([H])([H])C([H])([H])C([H])([H])C([H])(n4nc(-c5c([H])c([H])c(Oc6c([H])c([H])c(F)c([H])c6F)c([H])c5[H])c(C(=O)N([H])[H])c4N([H])[H])C3([H])[H])c([H])c(C([H])([H])[N+]([H])([H])C([H])([H])C([H])([H])C([H])([H])[N+]([H])(C([H])([H])[H])C([H])([H])[H])c2[H])[N+]([H])([H])C([H])([H])C([H])([H])Oc2c([H])c([H])c3c(c2[H])C([H])([H])N(C(=O)C([H])(N([H])C(=O)C([H])(N([H])C([H])([H])[H])C([H])([H])[H])C(C([H])([H])[H])(C([H])([H])[H])C([H])([H])[H])C([H])(C(=O)N([H])C2([H])c4c([H])c([H])c([H])c([H])c4C([H])([H])C([H])([H])C2([H])[H])C3([H])[H])c([H])c1[H]

>  <smiles>  (39) 
[H]c1c([H])c([H])c(C([H])([H])C([H])(C(=O)N([H])c2c([H])c(C([H])([H])N([H])C(=O)N3C([H])([H])C([H])([H])C([H])([H])C([H])(n4nc(-c5c([H])c([H])c(Oc6c([H])c([H])c(F)c([H])c6F)c([H])c5[H])c(C(=O)N([H])[H])c4N([H])[H])C3([H])[H])c([H])c(C([H])([H])[N+]([H])([H])C([H])([H])C([H])([H])C([H])([H])[N+]([H])(C([H])([H])[H])C([H])([H])[H])c2[H])[N+]([H])([H])C([H])([H])C([H])([H])Oc2c([H])c([H])c3c(c2[H])C([H])([H])N(C(=O)C([H])(N([H])C(=O)C([H])(N([H])C([H])([H])[H])C([H])([H])[H])C(C([H])([H])[H])(C([H])([H])[H])C([H])([H])[H])C([H])(C(=O)N([H])C2([H])c4c([H])c([H])c([H])c([H])c4C([H])([H])C([H])([H])C2([H])[H])C3([H])[H])c([H])c1[H]

$$$$
39:0:0
     RDKit          3D

 95104  0  0  1  0  0  0  0  0999 V2000
  -30.1530  -20.9840   25.0580 C   0  0  0  0  0  2  0  0  0  0  0  0
  -29.6650  -22.2400   24.3240 C   0  0  0  0  0  2  0  0  0  0  0  0
  -30.7720  -20.0930   23.9760 C   0  0  0  0  0  2  0  0  0  0  0  0
  -30.0160  -22.0190   22.8440 C   0  0  0  0  0  3  0  0  0  0  0  0
  -30.1900  -20.5460   22.6940 N   0  0  1  0  0  4  0  0  0  0  0  0
  -29.2640  -20.1450   22.6620 H   0  0  0  0  0  0  0  0  0  0  0  0
  -30.8870  -20.1210   21.4400 C   0  0  0  0  0  2  0  0  0  0  0  0
  -31.8590  -14.5620   19.8300 C   0  0  0  0  0  0  0  0  0  0  0  0
  -31.2890  -12.4220   18.7320 C   0  0  0  0  0  2  0  0  0  0  0  0
  -30.2450  -12.6390   17.6200 C   0  0  0  0  0  2  0  0  0  0  0  0
  -28.8120  -12.5950   18.1870 C   0  0  0  0  0  2  0  0  0  0  0  0
  -28.6510  -13.4390   19.4830 C   0  0  0  0  0  3  0  0  0  0  0  0
  -29.8030  -13.1370   20.4680 C   0  0  0  0  0  2  0  0  0  0  0  0
  -31.0490  -13.4580   19.7630 N   0  0  0  0  0  0  0  0  0  0  0  0
  -32.9920  -14.4840   19.3390 O   0  0  0  0  0  0  0  0  0  0  0  0
  -31.7100  -18.3600   19.8460 C   0  0  0  0  0  2  0  0  0  0  0  0
  -30.2650  -17.5480   21.7080 C   0  0  0  0  0  2  0  0  0  0  0  0
  -32.2690  -16.9430   19.6750 C   0  0  0  0  0  2  0  0  0  0  0  0
  -30.1280  -16.3170   20.7490 C   0  0  0  0  0  2  0  0  0  0  0  0
  -31.3060  -18.6200   21.2960 C   0  0  0  0  0  3  0  0  0  0  0  0
  -31.3960  -15.8300   20.1390 N   0  0  0  0  0  0  0  0  0  0  0  0
  -26.4290  -14.1910   20.5270 C   0  0  0  0  0  0  0  0  0  0  0  0
  -25.3320  -13.4890   20.9410 C   0  0  0  0  0  0  0  0  0  0  0  0
  -25.6360  -12.1110   20.7180 C   0  0  0  0  0  0  0  0  0  0  0  0
  -27.3400  -13.2450   20.0890 N   0  0  0  0  0  0  0  0  0  0  0  0
  -26.8730  -11.9810   20.2550 N   0  0  0  0  0  0  0  0  0  0  0  0
  -24.8000  -10.9140   20.8600 C   0  0  0  0  0  0  0  0  0  0  0  0
  -25.1830   -9.8410   21.6950 C   0  0  0  0  0  3  0  0  0  0  0  0
  -24.3540   -8.7080   21.8320 C   0  0  0  0  0  3  0  0  0  0  0  0
  -23.1250   -8.6410   21.1330 C   0  0  0  0  0  0  0  0  0  0  0  0
  -22.7590   -9.7000   20.2830 C   0  0  0  0  0  3  0  0  0  0  0  0
  -23.5890  -10.8250   20.1450 C   0  0  0  0  0  3  0  0  0  0  0  0
  -22.2670   -7.5690   21.1860 O   0  0  0  0  0  0  0  0  0  0  0  0
  -22.0410   -6.8830   22.3520 C   0  0  0  0  0  0  0  0  0  0  0  0
  -21.5680   -7.5280   23.5160 C   0  0  0  0  0  3  0  0  0  0  0  0
  -21.2900   -6.7730   24.6730 C   0  0  0  0  0  3  0  0  0  0  0  0
  -21.4690   -5.3770   24.6640 C   0  0  0  0  0  0  0  0  0  0  0  0
  -21.9340   -4.7340   23.5030 C   0  0  0  0  0  3  0  0  0  0  0  0
  -22.2170   -5.4860   22.3500 C   0  0  0  0  0  0  0  0  0  0  0  0
  -22.6460   -4.8580   21.2280 F   0  0  0  0  0  0  0  0  0  0  0  0
  -21.1930   -4.6500   25.7710 F   0  0  0  0  0  0  0  0  0  0  0  0
  -24.0330  -14.0660   21.4270 C   0  0  0  0  0  0  0  0  0  0  0  0
  -23.3680  -13.3840   22.3520 N   0  0  0  0  0  0  0  0  0  0  0  0
  -23.6280  -15.1560   21.0250 O   0  0  0  0  0  0  0  0  0  0  0  0
  -23.7110  -12.5000   22.6980 H   0  0  0  0  0  0  0  0  0  0  0  0
  -22.5010  -13.7520   22.7180 H   0  0  0  0  0  0  0  0  0  0  0  0
  -26.7180  -15.5500   20.4690 N   0  0  0  0  0  0  0  0  0  0  0  0
  -26.0350  -16.2530   20.7260 H   0  0  0  0  0  0  0  0  0  0  0  0
  -27.5610  -15.9430   20.0720 H   0  0  0  0  0  0  0  0  0  0  0  0
  -28.9770  -22.6560   21.8720 C   0  0  0  0  0  2  0  0  0  0  0  0
  -29.8860  -24.8820   22.0670 C   0  0  0  0  0  1  0  0  0  0  0  0
  -29.4750  -23.8300   21.1320 N   0  0  0  0  0  0  0  0  0  0  0  0
  -28.3990  -24.3670   20.2820 C   0  0  0  0  0  2  0  0  0  0  0  0
  -28.8680  -25.4780   19.2960 C   0  0  0  0  0  2  0  0  0  0  0  0
  -28.7770  -26.8130   19.8220 O   0  0  0  0  0  0  0  0  0  0  0  0
  -24.7080  -31.4170   23.3900 C   0  0  0  0  0  0  0  0  0  0  0  0
  -27.5610  -27.4670   19.8510 C   0  0  0  0  0  0  0  0  0  0  0  0
  -23.5780  -30.1710   21.5790 C   0  0  0  0  0  3  0  0  0  0  0  0
  -25.1060  -28.8800   19.9980 C   0  0  0  0  0  0  0  0  0  0  0  0
  -26.0910  -30.6490   21.4630 C   0  0  0  0  0  2  0  0  0  0  0  0
  -26.2360  -29.3730   20.6580 C   0  0  0  0  0  0  0  0  0  0  0  0
  -27.4640  -28.6750   20.5780 C   0  0  0  0  0  3  0  0  0  0  0  0
  -26.4040  -26.9840   19.1910 C   0  0  0  0  0  3  0  0  0  0  0  0
  -25.1850  -27.6860   19.2620 C   0  0  0  0  0  3  0  0  0  0  0  0
  -23.8240  -29.6760   20.1310 C   0  0  0  0  0  2  0  0  0  0  0  0
  -24.8090  -30.7550   22.2010 N   0  0  0  0  0  0  0  0  0  0  0  0
  -23.6120  -31.5780   23.9430 O   0  0  0  0  0  0  0  0  0  0  0  0
  -22.9690  -29.0120   22.3990 C   0  0  0  0  0  0  0  0  0  0  0  0
  -21.6750  -28.7340   22.1710 N   0  0  0  0  0  0  0  0  0  0  0  0
  -23.6580  -28.3690   23.1950 O   0  0  0  0  0  0  0  0  0  0  0  0
  -21.1780  -29.3100   21.5070 H   0  0  0  0  0  0  0  0  0  0  0  0
  -18.4540  -27.0940   22.1890 C   0  0  0  0  0  0  0  0  0  0  0  0
  -20.9000  -27.6670   22.8030 C   0  0  0  0  0  3  0  0  0  0  0  0
  -21.2660  -26.2870   22.2110 C   0  0  0  0  0  2  0  0  0  0  0  0
  -20.3550  -25.8690   21.0520 C   0  0  0  0  0  2  0  0  0  0  0  0
  -18.8950  -25.8090   21.5110 C   0  0  0  0  0  2  0  0  0  0  0  0
  -19.3990  -27.9730   22.7830 C   0  0  0  0  0  0  0  0  0  0  0  0
  -18.9430  -29.1730   23.3730 C   0  0  0  0  0  3  0  0  0  0  0  0
  -17.5740  -29.4950   23.3800 C   0  0  0  0  0  3  0  0  0  0  0  0
  -16.6410  -28.6150   22.8070 C   0  0  0  0  0  3  0  0  0  0  0  0
  -17.0810  -27.4170   22.2160 C   0  0  0  0  0  3  0  0  0  0  0  0
  -25.9610  -32.0240   24.0950 C   0  0  0  0  0  3  0  0  0  0  0  0
  -25.7160  -33.4620   24.2670 N   0  0  0  0  0  0  0  0  0  0  0  0
  -26.2490  -34.4220   23.5000 C   0  0  0  0  0  0  0  0  0  0  0  0
  -27.0660  -34.1890   22.6050 O   0  0  0  0  0  0  0  0  0  0  0  0
  -25.0090  -33.7240   24.9380 H   0  0  0  0  0  0  0  0  0  0  0  0
  -24.7580  -36.2920   22.7250 C   0  0  0  0  0  1  0  0  0  0  0  0
  -25.8050  -35.8720   23.7690 C   0  0  0  0  0  3  0  0  0  0  0  0
  -27.8450  -36.6510   24.8880 C   0  0  0  0  0  1  0  0  0  0  0  0
  -26.9230  -36.8400   23.7700 N   0  0  0  0  0  0  0  0  0  0  0  0
  -26.5750  -37.7940   23.8060 H   0  0  0  0  0  0  0  0  0  0  0  0
  -26.2890  -31.3440   25.4820 C   0  0  1  0  0  0  0  0  0  0  0  0
  -25.0780  -31.2790   26.4410 C   0  0  0  0  0  1  0  0  0  0  0  0
  -26.8050  -29.9010   25.2760 C   0  0  0  0  0  1  0  0  0  0  0  0
  -27.4220  -32.1230   26.1930 C   0  0  0  0  0  1  0  0  0  0  0  0
  2  1  1  0
  3  1  1  0
  4 50  1  0
  4  2  1  0
  5  4  1  0
  5  3  1  0
  5  6  1  6
  7  5  1  0
  8 21  1  0
  9 14  1  0
 10 11  1  0
 10  9  1  0
 12 11  1  0
 12 25  1  0
 12 13  1  0
 14  8  1  0
 14 13  1  0
 15  8  2  0
 16 20  1  0
 18 16  1  0
 18 21  1  0
 19 17  1  0
 20  7  1  0
 20 17  1  0
 21 19  1  0
 22 23  2  0
 23 42  1  0
 24 27  1  0
 24 23  1  0
 25 26  1  0
 25 22  1  0
 26 24  2  0
 27 28  1  0
 28 29  2  0
 30 33  1  0
 30 29  1  0
 31 30  2  0
 32 31  1  0
 32 27  2  0
 33 34  1  0
 34 35  1  0
 35 36  2  0
 37 36  1  0
 37 41  1  0
 38 37  2  0
 39 34  2  0
 39 38  1  0
 40 39  1  0
 42 43  1  0
 43 45  1  0
 43 46  1  0
 44 42  2  0
 47 22  1  0
 47 48  1  0
 49 47  1  0
 52 50  1  0
 52 51  1  0
 53 52  1  0
 54 55  1  0
 54 53  1  0
 55 57  1  0
 56 67  2  0
 57 62  1  0
 58 66  1  0
 58 68  1  0
 59 65  1  0
 59 61  1  0
 60 66  1  0
 61 60  1  0
 62 61  2  0
 63 64  1  0
 63 57  2  0
 64 59  2  0
 65 58  1  0
 66 56  1  0
 68 70  2  0
 69 68  1  0
 71 69  1  0
 72 81  2  0
 72 77  1  0
 73 69  1  0
 74 73  1  0
 75 76  1  0
 75 74  1  0
 76 72  1  0
 77 73  1  0
 77 78  2  0
 78 79  1  0
 80 79  2  0
 81 80  1  0
 82 56  1  0
 82 83  1  0
 82 92  1  0
 83 86  1  0
 84 88  1  0
 84 83  1  0
 85 84  2  0
 88 87  1  0
 88 90  1  0
 90 91  1  0
 90 89  1  0
 92 95  1  1
 92 93  1  0
 94 92  1  0
M  ISO  4   8 100  21 100  54 101  55 101
M  END
>  <TORSDO>  (40) 
F 21

>  <SCORE>  (40) 
-10.935

>  <name>  (40) 
39

>  <ligand_id>  (40) 
39

>  <original_smiles>  (40) 
[H]c1c([H])c([H])c2c(c1[H])C([H])([H])C([H])([H])C([H])([H])C2([H])N([H])C(=O)C1([H])N(C(=O)C([H])(N([H])C(=O)C([H])(N([H])C([H])([H])[H])C([H])([H])[H])C(C([H])([H])[H])(C([H])([H])[H])C([H])([H])[H])C([H])([H])c2c([H])c(OC([H])([H])C([H])([H])N(C([H])([H])[H])C([H])([H])C3([H])C([H])([H])C([H])([H])C([H])([H])[N+]3([H])C([H])([H])C3([H])C([H])([H])C([H])([H])N(C(=O)N4C([H])([H])C([H])([H])C([H])([H])C([H])(n5nc(-c6c([H])c([H])c(Oc7c([H])c([H])c(F)c([H])c7F)c([H])c6[H])c(C(=O)N([H])[H])c5N([H])[H])C4([H])[H])C([H])([H])C3([H])[H])c([H])c([H])c2C1([H])[H]

>  <smiles>  (40) 
[H]c1c([H])c([H])c2c(c1[H])C([H])([H])C([H])([H])C([H])([H])C2([H])N([H])C(=O)C1([H])N(C(=O)C([H])(N([H])C(=O)C([H])(N([H])C([H])([H])[H])C([H])([H])[H])C(C([H])([H])[H])(C([H])([H])[H])C([H])([H])[H])C([H])([H])c2c([H])c(OC([H])([H])C([H])([H])N(C([H])([H])[H])C([H])([H])C3([H])C([H])([H])C([H])([H])C([H])([H])[N+]3([H])C([H])([H])C3([H])C([H])([H])C([H])([H])N(C(=O)N4C([H])([H])C([H])([H])C([H])([H])C([H])(n5nc(-c6c([H])c([H])c(Oc7c([H])c([H])c(F)c([H])c7F)c([H])c6[H])c(C(=O)N([H])[H])c5N([H])[H])C4([H])[H])C([H])([H])C3([H])[H])c([H])c([H])c2C1([H])[H]

$$$$
40:0:0
     RDKit          3D

103112  0  0  1  0  0  0  0  0999 V2000
  -26.9770  -21.1630   17.4980 C   0  0  0  0  0  0  0  0  0  0  0  0
  -27.1260  -18.3930   15.0470 C   0  0  0  0  0  2  0  0  0  0  0  0
  -28.2450  -19.3120   14.5730 C   0  0  0  0  0  2  0  0  0  0  0  0
  -26.3830  -19.2130   16.1040 C   0  0  0  0  0  2  0  0  0  0  0  0
  -28.5640  -20.2250   15.7710 C   0  0  0  0  0  3  0  0  0  0  0  0
  -27.3050  -20.2680   16.5340 N   0  0  0  0  0  0  0  0  0  0  0  0
  -25.9180  -21.0800   18.1280 O   0  0  0  0  0  0  0  0  0  0  0  0
  -29.7070  -19.6610   16.6420 C   0  0  0  0  0  0  0  0  0  0  0  0
  -30.5490  -20.5480   17.1950 N   0  0  0  0  0  0  0  0  0  0  0  0
  -29.8140  -18.4450   16.8200 O   0  0  0  0  0  0  0  0  0  0  0  0
  -30.4360  -21.5220   16.9540 H   0  0  0  0  0  0  0  0  0  0  0  0
  -31.6030  -20.2410   18.1580 C   0  0  0  0  0  2  0  0  0  0  0  0
  -30.0180  -18.2170   21.6820 C   0  0  0  0  0  3  0  0  0  0  0  0
  -30.3880  -19.5750   21.7710 C   0  0  0  0  0  3  0  0  0  0  0  0
  -30.6960  -18.2080   19.3480 C   0  0  0  0  0  3  0  0  0  0  0  0
  -30.1700  -17.5250   20.4650 C   0  0  0  0  0  0  0  0  0  0  0  0
  -30.9150  -20.2560   20.6500 C   0  0  0  0  0  0  0  0  0  0  0  0
  -31.0710  -19.5650   19.4220 C   0  0  0  0  0  0  0  0  0  0  0  0
  -31.3080  -21.7200   20.7860 C   0  0  0  0  0  1  0  0  0  0  0  0
  -29.6810  -16.0960   20.2680 C   0  0  0  0  0  2  0  0  0  0  0  0
  -30.7500  -14.0650   21.0790 C   0  0  0  0  0  0  0  0  0  0  0  0
  -30.4490  -12.0070   19.7960 C   0  0  0  0  0  2  0  0  0  0  0  0
  -29.5540  -12.3920   18.5980 C   0  0  0  0  0  2  0  0  0  0  0  0
  -28.0600  -12.2640   18.9650 C   0  0  0  0  0  2  0  0  0  0  0  0
  -27.7120  -12.9590   20.3070 C   0  0  0  0  0  3  0  0  0  0  0  0
  -28.7360  -12.5920   21.4130 C   0  0  0  0  0  2  0  0  0  0  0  0
  -30.0880  -12.8900   20.9120 N   0  0  0  0  0  0  0  0  0  0  0  0
  -31.9140  -14.2530   20.7180 O   0  0  0  0  0  0  0  0  0  0  0  0
  -29.9370  -15.1030   21.3220 N   0  0  0  0  0  0  0  0  0  0  0  0
  -29.1030  -14.8400   21.8250 H   0  0  0  0  0  0  0  0  0  0  0  0
  -25.3130  -13.5640   21.0160 C   0  0  0  0  0  0  0  0  0  0  0  0
  -24.2150  -12.7880   21.2790 C   0  0  0  0  0  0  0  0  0  0  0  0
  -24.6430  -11.4340   21.1230 C   0  0  0  0  0  0  0  0  0  0  0  0
  -26.3410  -12.6800   20.7230 N   0  0  0  0  0  0  0  0  0  0  0  0
  -25.9390  -11.3880   20.8420 N   0  0  0  0  0  0  0  0  0  0  0  0
  -23.8800  -10.1820   21.1660 C   0  0  0  0  0  0  0  0  0  0  0  0
  -24.2990   -9.0930   21.9630 C   0  0  0  0  0  3  0  0  0  0  0  0
  -23.5410   -7.9030   22.0030 C   0  0  0  0  0  3  0  0  0  0  0  0
  -22.3500   -7.7950   21.2460 C   0  0  0  0  0  0  0  0  0  0  0  0
  -21.9490   -8.8730   20.4380 C   0  0  0  0  0  3  0  0  0  0  0  0
  -22.7070  -10.0560   20.3950 C   0  0  0  0  0  3  0  0  0  0  0  0
  -21.5650   -6.6680   21.2010 O   0  0  0  0  0  0  0  0  0  0  0  0
  -21.5390   -5.7670   22.2350 C   0  0  0  0  0  0  0  0  0  0  0  0
  -21.1830   -6.1480   23.5470 C   0  0  0  0  0  3  0  0  0  0  0  0
  -21.1020   -5.1770   24.5650 C   0  0  0  0  0  3  0  0  0  0  0  0
  -21.3680   -3.8270   24.2730 C   0  0  0  0  0  0  0  0  0  0  0  0
  -21.7160   -3.4430   22.9650 C   0  0  0  0  0  3  0  0  0  0  0  0
  -21.8000   -4.4110   21.9500 C   0  0  0  0  0  0  0  0  0  0  0  0
  -22.1170   -4.0340   20.6870 F   0  0  0  0  0  0  0  0  0  0  0  0
  -21.2820   -2.8920   25.2490 F   0  0  0  0  0  0  0  0  0  0  0  0
  -22.8250  -13.2740   21.5670 C   0  0  0  0  0  0  0  0  0  0  0  0
  -22.0620  -12.5160   22.3460 N   0  0  0  0  0  0  0  0  0  0  0  0
  -22.4240  -14.3570   21.1410 O   0  0  0  0  0  0  0  0  0  0  0  0
  -22.3990  -11.6350   22.7060 H   0  0  0  0  0  0  0  0  0  0  0  0
  -21.1270  -12.8160   22.5860 H   0  0  0  0  0  0  0  0  0  0  0  0
  -25.5140  -14.9400   20.9800 N   0  0  0  0  0  0  0  0  0  0  0  0
  -24.7490  -15.5910   21.1250 H   0  0  0  0  0  0  0  0  0  0  0  0
  -26.3740  -15.3990   20.7150 H   0  0  0  0  0  0  0  0  0  0  0  0
  -27.9380  -22.3280   17.7900 C   0  0  0  0  0  2  0  0  0  0  0  0
  -27.4560  -23.3380   18.8480 C   0  0  0  0  0  2  0  0  0  0  0  0
  -28.2780  -24.6390   18.7970 C   0  0  0  0  0  2  0  0  0  0  0  0
  -28.2150  -25.4480   20.1030 C   0  0  0  0  0  2  0  0  0  0  0  0
  -28.3060  -26.8510   19.8520 O   0  0  0  0  0  0  0  0  0  0  0  0
  -24.5080  -31.7950   23.2310 C   0  0  0  0  0  0  0  0  0  0  0  0
  -27.1200  -27.5510   19.8840 C   0  0  0  0  0  0  0  0  0  0  0  0
  -23.2740  -30.4560   21.5590 C   0  0  0  0  0  3  0  0  0  0  0  0
  -24.7040  -29.0080   20.0270 C   0  0  0  0  0  0  0  0  0  0  0  0
  -25.7880  -30.8640   21.3080 C   0  0  0  0  0  2  0  0  0  0  0  0
  -25.8730  -29.5290   20.5990 C   0  0  0  0  0  0  0  0  0  0  0  0
  -27.0840  -28.8110   20.5180 C   0  0  0  0  0  3  0  0  0  0  0  0
  -25.9310  -27.0400   19.3120 C   0  0  0  0  0  3  0  0  0  0  0  0
  -24.7270  -27.7620   19.3820 C   0  0  0  0  0  3  0  0  0  0  0  0
  -23.4510  -29.8440   20.1450 C   0  0  0  0  0  2  0  0  0  0  0  0
  -24.5430  -31.0490   22.0900 N   0  0  0  0  0  0  0  0  0  0  0  0
  -23.4380  -32.0270   23.8110 O   0  0  0  0  0  0  0  0  0  0  0  0
  -22.6640  -29.3790   22.4860 C   0  0  0  0  0  0  0  0  0  0  0  0
  -21.3530  -29.1350   22.3330 N   0  0  0  0  0  0  0  0  0  0  0  0
  -23.3670  -28.7700   23.2940 O   0  0  0  0  0  0  0  0  0  0  0  0
  -20.8460  -29.6820   21.6510 H   0  0  0  0  0  0  0  0  0  0  0  0
  -18.0510  -27.7150   22.6930 C   0  0  0  0  0  0  0  0  0  0  0  0
  -20.5720  -28.1420   23.0710 C   0  0  0  0  0  3  0  0  0  0  0  0
  -20.7950  -26.7230   22.5000 C   0  0  0  0  0  2  0  0  0  0  0  0
  -19.7600  -26.3290   21.4410 C   0  0  0  0  0  2  0  0  0  0  0  0
  -18.3450  -26.3810   22.0280 C   0  0  0  0  0  2  0  0  0  0  0  0
  -19.0980  -28.5500   23.1670 C   0  0  0  0  0  0  0  0  0  0  0  0
  -18.7710  -29.7970   23.7450 C   0  0  0  0  0  3  0  0  0  0  0  0
  -17.4300  -30.2090   23.8550 C   0  0  0  0  0  3  0  0  0  0  0  0
  -16.3970  -29.3720   23.3970 C   0  0  0  0  0  3  0  0  0  0  0  0
  -16.7090  -28.1260   22.8240 C   0  0  0  0  0  3  0  0  0  0  0  0
  -25.8030  -32.4140   23.8440 C   0  0  0  0  0  3  0  0  0  0  0  0
  -25.4960  -33.8030   24.2120 N   0  0  0  0  0  0  0  0  0  0  0  0
  -25.8410  -34.8740   23.4850 C   0  0  0  0  0  0  0  0  0  0  0  0
  -26.5210  -34.7980   22.4580 O   0  0  0  0  0  0  0  0  0  0  0  0
  -24.8950  -33.9370   25.0100 H   0  0  0  0  0  0  0  0  0  0  0  0
  -24.1240  -36.6830   23.1570 C   0  0  0  0  0  1  0  0  0  0  0  0
  -25.3510  -36.2510   23.9750 C   0  0  0  0  0  3  0  0  0  0  0  0
  -27.4810  -37.0950   24.8580 C   0  0  0  0  0  1  0  0  0  0  0  0
  -26.3900  -37.3020   23.9100 N   0  0  0  0  0  0  0  0  0  0  0  0
  -25.9860  -38.2180   24.0850 H   0  0  0  0  0  0  0  0  0  0  0  0
  -26.3450  -31.6130   25.0910 C   0  0  1  0  0  0  0  0  0  0  0  0
  -25.2720  -31.3420   26.1720 C   0  0  0  0  0  1  0  0  0  0  0  0
  -26.9260  -30.2490   24.6520 C   0  0  0  0  0  1  0  0  0  0  0  0
  -27.5030  -32.3960   25.7530 C   0  0  0  0  0  1  0  0  0  0  0  0
  1 59  1  0
  1  7  2  0
  2  4  1  0
  3  2  1  0
  3  5  1  0
  4  6  1  0
  5  6  1  0
  5  8  1  0
  6  1  1  0
  8 10  2  0
  8  9  1  0
  9 12  1  0
 11  9  1  0
 12 18  1  0
 13 14  1  0
 15 18  2  0
 15 16  1  0
 16 13  2  0
 17 19  1  0
 17 14  2  0
 18 17  1  0
 20 16  1  0
 20 29  1  0
 21 29  1  0
 22 27  1  0
 23 24  1  0
 23 22  1  0
 25 24  1  0
 25 34  1  0
 25 26  1  0
 27 21  1  0
 27 26  1  0
 28 21  2  0
 29 30  1  0
 31 32  2  0
 32 51  1  0
 33 36  1  0
 33 32  1  0
 34 35  1  0
 34 31  1  0
 35 33  2  0
 36 37  1  0
 37 38  2  0
 39 38  1  0
 40 39  2  0
 41 40  1  0
 41 36  2  0
 42 39  1  0
 42 43  1  0
 43 44  1  0
 44 45  2  0
 46 45  1  0
 46 50  1  0
 47 46  2  0
 48 43  2  0
 48 47  1  0
 49 48  1  0
 51 52  1  0
 52 55  1  0
 52 54  1  0
 53 51  2  0
 56 31  1  0
 56 57  1  0
 58 56  1  0
 59 60  1  0
 61 60  1  0
 61 62  1  0
 63 65  1  0
 63 62  1  0
 64 75  2  0
 65 70  1  0
 66 74  1  0
 66 76  1  0
 67 73  1  0
 67 69  1  0
 68 74  1  0
 69 68  1  0
 70 69  2  0
 71 72  1  0
 71 65  2  0
 72 67  2  0
 73 66  1  0
 74 64  1  0
 76 78  2  0
 77 76  1  0
 79 77  1  0
 80 89  2  0
 80 85  1  0
 81 77  1  0
 81 85  1  0
 82 81  1  0
 83 84  1  0
 83 82  1  0
 84 80  1  0
 85 86  2  0
 86 87  1  0
 88 87  2  0
 89 88  1  0
 90 64  1  0
 90 91  1  0
 90100  1  0
 91 94  1  0
 92 96  1  0
 92 91  1  0
 93 92  2  0
 96 95  1  0
 98 96  1  0
 98 99  1  0
 98 97  1  0
100103  1  1
100101  1  0
102100  1  0
M  ISO  4  21 100  29 100  62 101  63 101
M  END
>  <TORSDO>  (41) 
F 24

>  <SCORE>  (41) 
-8.190

>  <name>  (41) 
40

>  <ligand_id>  (41) 
40

>  <original_smiles>  (41) 
[H]c1c([H])c([H])c2c(c1[H])C([H])([H])C([H])([H])C([H])([H])C2([H])N([H])C(=O)C1([H])N(C(=O)C([H])(N([H])C(=O)C([H])(N([H])C([H])([H])[H])C([H])([H])[H])C(C([H])([H])[H])(C([H])([H])[H])C([H])([H])[H])C([H])([H])c2c([H])c(OC([H])([H])C([H])([H])C([H])([H])C([H])([H])C(=O)N3C([H])([H])C([H])([H])C([H])([H])C3([H])C(=O)N([H])C([H])([H])c3c([H])c(C([H])([H])N([H])C(=O)N4C([H])([H])C([H])([H])C([H])([H])C([H])(n5nc(-c6c([H])c([H])c(Oc7c([H])c([H])c(F)c([H])c7F)c([H])c6[H])c(C(=O)N([H])[H])c5N([H])[H])C4([H])[H])c([H])c([H])c3C([H])([H])[H])c([H])c([H])c2C1([H])[H]

>  <smiles>  (41) 
[H]c1c([H])c([H])c2c(c1[H])C([H])([H])C([H])([H])C([H])([H])C2([H])N([H])C(=O)C1([H])N(C(=O)C([H])(N([H])C(=O)C([H])(N([H])C([H])([H])[H])C([H])([H])[H])C(C([H])([H])[H])(C([H])([H])[H])C([H])([H])[H])C([H])([H])c2c([H])c(OC([H])([H])C([H])([H])C([H])([H])C([H])([H])C(=O)N3C([H])([H])C([H])([H])C([H])([H])C3([H])C(=O)N([H])C([H])([H])c3c([H])c(C([H])([H])N([H])C(=O)N4C([H])([H])C([H])([H])C([H])([H])C([H])(n5nc(-c6c([H])c([H])c(Oc7c([H])c([H])c(F)c([H])c7F)c([H])c6[H])c(C(=O)N([H])[H])c5N([H])[H])C4([H])[H])c([H])c([H])c3C([H])([H])[H])c([H])c([H])c2C1([H])[H]

$$$$
41:0:0
     RDKit          3D

 99108  0  0  1  0  0  0  0  0999 V2000
  -31.8150  -20.5520   23.6140 C   0  0  0  0  0  2  0  0  0  0  0  0
  -31.9570  -18.7060   21.9040 C   0  0  0  0  0  3  0  0  0  0  0  0
  -31.6630  -17.4220   21.4110 C   0  0  0  0  0  3  0  0  0  0  0  0
  -30.1850  -17.0610   23.3050 C   0  0  0  0  0  3  0  0  0  0  0  0
  -30.4520  -18.3580   23.8000 C   0  0  0  0  0  0  0  0  0  0  0  0
  -31.3700  -19.1850   23.0970 C   0  0  0  0  0  0  0  0  0  0  0  0
  -30.7730  -16.5850   22.1170 C   0  0  0  0  0  0  0  0  0  0  0  0
  -31.0360  -14.4520   20.8260 C   0  0  0  0  0  0  0  0  0  0  0  0
  -30.7810  -12.3210   19.6020 C   0  0  0  0  0  2  0  0  0  0  0  0
  -29.8750  -12.5000   18.3690 C   0  0  0  0  0  2  0  0  0  0  0  0
  -28.3880  -12.3500   18.7480 C   0  0  0  0  0  2  0  0  0  0  0  0
  -28.0010  -13.2070   19.9820 C   0  0  0  0  0  3  0  0  0  0  0  0
  -29.0080  -12.9810   21.1300 C   0  0  0  0  0  2  0  0  0  0  0  0
  -30.3620  -13.2890   20.6250 N   0  0  0  0  0  0  0  0  0  0  0  0
  -32.0810  -14.7360   20.2290 O   0  0  0  0  0  0  0  0  0  0  0  0
  -30.4640  -15.2540   21.7370 N   0  0  0  0  0  0  0  0  0  0  0  0
  -29.6080  -14.8800   22.1170 H   0  0  0  0  0  0  0  0  0  0  0  0
  -25.5780  -13.8180   20.6150 C   0  0  0  0  0  0  0  0  0  0  0  0
  -24.4960  -13.0450   20.9420 C   0  0  0  0  0  0  0  0  0  0  0  0
  -24.9530  -11.6910   20.9090 C   0  0  0  0  0  0  0  0  0  0  0  0
  -26.6280  -12.9360   20.4090 N   0  0  0  0  0  0  0  0  0  0  0  0
  -26.2510  -11.6510   20.6380 N   0  0  0  0  0  0  0  0  0  0  0  0
  -24.2190  -10.4290   21.0620 C   0  0  0  0  0  0  0  0  0  0  0  0
  -24.5720   -9.4840   22.0500 C   0  0  0  0  0  3  0  0  0  0  0  0
  -23.8400   -8.2850   22.1890 C   0  0  0  0  0  3  0  0  0  0  0  0
  -22.7410   -8.0230   21.3370 C   0  0  0  0  0  0  0  0  0  0  0  0
  -22.4080   -8.9560   20.3390 C   0  0  0  0  0  3  0  0  0  0  0  0
  -23.1410  -10.1470   20.2000 C   0  0  0  0  0  3  0  0  0  0  0  0
  -21.9870   -6.8750   21.3820 O   0  0  0  0  0  0  0  0  0  0  0  0
  -21.7680   -6.2030   22.5580 C   0  0  0  0  0  0  0  0  0  0  0  0
  -21.1650   -6.8280   23.6710 C   0  0  0  0  0  3  0  0  0  0  0  0
  -20.8940   -6.0820   24.8360 C   0  0  0  0  0  3  0  0  0  0  0  0
  -21.2170   -4.7120   24.8860 C   0  0  0  0  0  0  0  0  0  0  0  0
  -21.8120   -4.0870   23.7760 C   0  0  0  0  0  3  0  0  0  0  0  0
  -22.0840   -4.8300   22.6150 C   0  0  0  0  0  0  0  0  0  0  0  0
  -22.6380   -4.2190   21.5410 F   0  0  0  0  0  0  0  0  0  0  0  0
  -20.9500   -3.9930   26.0010 F   0  0  0  0  0  0  0  0  0  0  0  0
  -23.0920  -13.5220   21.1790 C   0  0  0  0  0  0  0  0  0  0  0  0
  -22.3450  -12.8310   22.0340 N   0  0  0  0  0  0  0  0  0  0  0  0
  -22.6640  -14.5410   20.6390 O   0  0  0  0  0  0  0  0  0  0  0  0
  -22.7030  -12.0060   22.4910 H   0  0  0  0  0  0  0  0  0  0  0  0
  -21.4020  -13.1330   22.2330 H   0  0  0  0  0  0  0  0  0  0  0  0
  -25.7530  -15.1890   20.4610 N   0  0  0  0  0  0  0  0  0  0  0  0
  -24.9890  -15.8470   20.5530 H   0  0  0  0  0  0  0  0  0  0  0  0
  -26.6220  -15.6270   20.1770 H   0  0  0  0  0  0  0  0  0  0  0  0
  -29.7480  -17.4110   27.1410 C   0  0  0  0  0  2  0  0  0  0  0  0
  -28.3060  -17.7600   26.7810 C   0  0  0  0  0  2  0  0  0  0  0  0
  -30.5910  -18.4150   26.3510 C   0  0  0  0  0  2  0  0  0  0  0  0
  -28.3720  -18.1600   25.3070 C   0  0  0  0  0  2  0  0  0  0  0  0
  -29.7690  -18.7880   25.1030 C   0  0  0  0  0  3  0  0  0  0  0  0
  -31.7530  -21.9900   21.6020 C   0  0  0  0  0  1  0  0  0  0  0  0
  -31.1660  -21.7060   22.9380 N   0  0  2  0  0  4  0  0  0  0  0  0
  -30.2060  -21.4460   22.7640 H   0  0  0  0  0  0  0  0  0  0  0  0
  -31.1220  -22.8780   23.8610 C   0  0  0  0  0  2  0  0  0  0  0  0
  -30.8290  -24.2340   23.2020 C   0  0  0  0  0  2  0  0  0  0  0  0
  -29.6320  -24.1810   22.4300 O   0  0  0  0  0  0  0  0  0  0  0  0
  -29.4860  -25.3710   21.6610 C   0  0  0  0  0  2  0  0  0  0  0  0
  -28.1630  -25.4090   20.8870 C   0  0  0  0  0  2  0  0  0  0  0  0
  -28.1650  -26.6280   20.1530 O   0  0  0  0  0  0  0  0  0  0  0  0
  -24.5000  -31.8700   23.2210 C   0  0  0  0  0  0  0  0  0  0  0  0
  -26.9960  -27.3400   20.1840 C   0  0  0  0  0  0  0  0  0  0  0  0
  -23.2360  -30.4710   21.6160 C   0  0  0  0  0  3  0  0  0  0  0  0
  -24.6310  -28.8720   20.2040 C   0  0  0  0  0  0  0  0  0  0  0  0
  -25.7630  -30.7730   21.3770 C   0  0  0  0  0  2  0  0  0  0  0  0
  -25.8070  -29.3910   20.7620 C   0  0  0  0  0  0  0  0  0  0  0  0
  -26.9940  -28.6330   20.7450 C   0  0  0  0  0  3  0  0  0  0  0  0
  -25.8060  -26.8170   19.6350 C   0  0  0  0  0  3  0  0  0  0  0  0
  -24.6240  -27.5820   19.6390 C   0  0  0  0  0  3  0  0  0  0  0  0
  -23.4090  -29.7590   20.2470 C   0  0  0  0  0  2  0  0  0  0  0  0
  -24.5190  -31.0520   22.1300 N   0  0  0  0  0  0  0  0  0  0  0  0
  -23.4340  -32.1770   23.7720 O   0  0  0  0  0  0  0  0  0  0  0  0
  -22.5720  -29.4850   22.6020 C   0  0  0  0  0  0  0  0  0  0  0  0
  -21.2470  -29.3120   22.4720 N   0  0  0  0  0  0  0  0  0  0  0  0
  -23.2460  -28.8750   23.4360 O   0  0  0  0  0  0  0  0  0  0  0  0
  -20.7660  -29.8530   21.7680 H   0  0  0  0  0  0  0  0  0  0  0  0
  -17.8640  -28.1440   22.9550 C   0  0  0  0  0  0  0  0  0  0  0  0
  -20.4170  -28.4040   23.2620 C   0  0  0  0  0  3  0  0  0  0  0  0
  -20.5260  -26.9530   22.7380 C   0  0  0  0  0  2  0  0  0  0  0  0
  -19.4410  -26.5990   21.7170 C   0  0  0  0  0  2  0  0  0  0  0  0
  -18.0480  -26.7710   22.3310 C   0  0  0  0  0  2  0  0  0  0  0  0
  -18.9770  -28.9170   23.3760 C   0  0  0  0  0  0  0  0  0  0  0  0
  -18.7550  -30.2030   23.9150 C   0  0  0  0  0  3  0  0  0  0  0  0
  -17.4500  -30.7150   24.0390 C   0  0  0  0  0  3  0  0  0  0  0  0
  -16.3490  -29.9390   23.6350 C   0  0  0  0  0  3  0  0  0  0  0  0
  -16.5570  -28.6560   23.0980 C   0  0  0  0  0  3  0  0  0  0  0  0
  -25.8110  -32.4730   23.8160 C   0  0  0  0  0  3  0  0  0  0  0  0
  -25.5360  -33.8740   24.1620 N   0  0  0  0  0  0  0  0  0  0  0  0
  -25.8910  -34.9260   23.4130 C   0  0  0  0  0  0  0  0  0  0  0  0
  -26.5550  -34.8170   22.3770 O   0  0  0  0  0  0  0  0  0  0  0  0
  -24.9490  -34.0330   24.9680 H   0  0  0  0  0  0  0  0  0  0  0  0
  -24.1990  -36.7540   23.0790 C   0  0  0  0  0  1  0  0  0  0  0  0
  -25.4340  -36.3180   23.8840 C   0  0  0  0  0  3  0  0  0  0  0  0
  -27.5920  -37.1430   24.7150 C   0  0  0  0  0  1  0  0  0  0  0  0
  -26.4890  -37.3500   23.7800 N   0  0  0  0  0  0  0  0  0  0  0  0
  -26.1050  -38.2770   23.9420 H   0  0  0  0  0  0  0  0  0  0  0  0
  -26.3500  -31.6810   25.0690 C   0  0  1  0  0  0  0  0  0  0  0  0
  -25.2770  -31.4360   26.1570 C   0  0  0  0  0  1  0  0  0  0  0  0
  -26.9140  -30.3050   24.6410 C   0  0  0  0  0  1  0  0  0  0  0  0
  -27.5210  -32.4560   25.7170 C   0  0  0  0  0  1  0  0  0  0  0  0
  2  6  1  0
  3  2  2  0
  3  7  1  0
  4  5  1  0
  5 50  1  0
  6  1  1  0
  6  5  2  0
  7  4  2  0
  8 16  1  0
  9 14  1  0
 10 11  1  0
 10  9  1  0
 12 11  1  0
 12 21  1  0
 12 13  1  0
 14  8  1  0
 14 13  1  0
 15  8  2  0
 16 17  1  0
 16  7  1  0
 18 19  2  0
 19 38  1  0
 20 19  1  0
 20 23  1  0
 21 18  1  0
 21 22  1  0
 22 20  2  0
 23 24  1  0
 24 25  2  0
 26 29  1  0
 26 25  1  0
 27 26  2  0
 28 27  1  0
 28 23  2  0
 29 30  1  0
 30 35  2  0
 30 31  1  0
 31 32  2  0
 32 33  1  0
 33 37  1  0
 34 33  2  0
 35 34  1  0
 36 35  1  0
 38 39  1  0
 39 42  1  0
 39 41  1  0
 40 38  2  0
 43 44  1  0
 43 18  1  0
 45 43  1  0
 47 46  1  0
 48 46  1  0
 49 47  1  0
 50 49  1  0
 50 48  1  0
 51 52  1  0
 52  1  1  0
 52 54  1  0
 52 53  1  6
 55 54  1  0
 56 55  1  0
 57 56  1  0
 58 57  1  0
 59 61  1  0
 59 58  1  0
 60 71  2  0
 61 66  1  0
 62 70  1  0
 62 72  1  0
 63 69  1  0
 63 65  1  0
 64 70  1  0
 65 64  1  0
 66 65  2  0
 67 68  1  0
 67 61  2  0
 68 63  2  0
 69 62  1  0
 70 60  1  0
 72 74  2  0
 73 72  1  0
 75 73  1  0
 76 85  2  0
 76 81  1  0
 77 73  1  0
 77 81  1  0
 78 77  1  0
 79 80  1  0
 79 78  1  0
 80 76  1  0
 81 82  2  0
 82 83  1  0
 84 83  2  0
 85 84  1  0
 86 60  1  0
 86 87  1  0
 86 96  1  0
 87 90  1  0
 88 92  1  0
 88 87  1  0
 89 88  2  0
 92 91  1  0
 94 92  1  0
 94 95  1  0
 94 93  1  0
 96 99  1  1
 96 97  1  0
 98 96  1  0
M  ISO  4   8 100  16 100  58 101  59 101
M  END
>  <TORSDO>  (42) 
F 24

>  <SCORE>  (42) 
6.802

>  <name>  (42) 
41

>  <ligand_id>  (42) 
41

>  <original_smiles>  (42) 
[H]c1c([H])c([H])c2c(c1[H])C([H])([H])C([H])([H])C([H])([H])C2([H])N([H])C(=O)C1([H])N(C(=O)C([H])(N([H])C(=O)C([H])(N([H])C([H])([H])[H])C([H])([H])[H])C(C([H])([H])[H])(C([H])([H])[H])C([H])([H])[H])C([H])([H])c2c([H])c(OC([H])([H])C([H])([H])OC([H])([H])C([H])([H])[N+]([H])(C([H])([H])[H])C([H])([H])c3c([H])c([H])c(N([H])C(=O)N4C([H])([H])C([H])([H])C([H])([H])C([H])(n5nc(-c6c([H])c([H])c(Oc7c([H])c([H])c(F)c([H])c7F)c([H])c6[H])c(C(=O)N([H])[H])c5N([H])[H])C4([H])[H])c([H])c3C3([H])C([H])([H])C([H])([H])C([H])([H])C3([H])[H])c([H])c([H])c2C1([H])[H]

>  <smiles>  (42) 
[H]c1c([H])c([H])c2c(c1[H])C([H])([H])C([H])([H])C([H])([H])C2([H])N([H])C(=O)C1([H])N(C(=O)C([H])(N([H])C(=O)C([H])(N([H])C([H])([H])[H])C([H])([H])[H])C(C([H])([H])[H])(C([H])([H])[H])C([H])([H])[H])C([H])([H])c2c([H])c(OC([H])([H])C([H])([H])OC([H])([H])C([H])([H])[N+]([H])(C([H])([H])[H])C([H])([H])c3c([H])c([H])c(N([H])C(=O)N4C([H])([H])C([H])([H])C([H])([H])C([H])(n5nc(-c6c([H])c([H])c(Oc7c([H])c([H])c(F)c([H])c7F)c([H])c6[H])c(C(=O)N([H])[H])c5N([H])[H])C4([H])[H])c([H])c3C3([H])C([H])([H])C([H])([H])C([H])([H])C3([H])[H])c([H])c([H])c2C1([H])[H]

$$$$
42:0:0
     RDKit          3D

 94103  0  0  1  0  0  0  0  0999 V2000
  -29.2880  -22.3700   20.8780 C   0  0  0  0  0  0  0  0  0  0  0  0
  -30.7180  -24.1860   17.9660 C   0  0  0  0  0  2  0  0  0  0  0  0
  -30.7650  -25.2310   19.0700 C   0  0  0  0  0  2  0  0  0  0  0  0
  -30.4690  -22.8790   18.7180 C   0  0  0  0  0  2  0  0  0  0  0  0
  -29.7660  -24.7160   20.1170 C   0  0  0  0  0  3  0  0  0  0  0  0
  -29.7900  -23.2460   19.9660 N   0  0  0  0  0  0  0  0  0  0  0  0
  -28.6470  -22.7380   21.8660 O   0  0  0  0  0  0  0  0  0  0  0  0
  -30.8150  -20.3410   20.6290 C   0  0  0  0  0  3  0  0  0  0  0  0
  -28.4080  -20.0110   20.5510 C   0  0  0  0  0  3  0  0  0  0  0  0
  -31.0110  -18.9690   20.3670 C   0  0  0  0  0  3  0  0  0  0  0  0
  -28.6040  -18.6350   20.2970 C   0  0  0  0  0  3  0  0  0  0  0  0
  -29.5110  -20.8900   20.6680 C   0  0  0  0  0  0  0  0  0  0  0  0
  -29.9080  -18.1150   20.1600 C   0  0  0  0  0  0  0  0  0  0  0  0
  -30.1330  -16.7050   19.6230 C   0  0  0  0  0  2  0  0  0  0  0  0
  -30.7200  -14.4750   20.4350 C   0  0  0  0  0  0  0  0  0  0  0  0
  -30.4070  -12.2990   19.3600 C   0  0  0  0  0  2  0  0  0  0  0  0
  -29.4990  -12.5340   18.1340 C   0  0  0  0  0  2  0  0  0  0  0  0
  -28.0160  -12.4190   18.5350 C   0  0  0  0  0  2  0  0  0  0  0  0
  -27.6630  -13.2590   19.7940 C   0  0  0  0  0  3  0  0  0  0  0  0
  -28.7010  -13.0460   20.9240 C   0  0  0  0  0  2  0  0  0  0  0  0
  -30.0380  -13.3020   20.3710 N   0  0  0  0  0  0  0  0  0  0  0  0
  -31.8980  -14.5850   20.0890 O   0  0  0  0  0  0  0  0  0  0  0  0
  -29.9430  -15.5690   20.5390 N   0  0  0  0  0  0  0  0  0  0  0  0
  -29.0040  -15.4170   20.8690 H   0  0  0  0  0  0  0  0  0  0  0  0
  -25.2540  -13.8810   20.4440 C   0  0  0  0  0  0  0  0  0  0  0  0
  -24.1770  -13.1160   20.8030 C   0  0  0  0  0  0  0  0  0  0  0  0
  -24.6370  -11.7630   20.8040 C   0  0  0  0  0  0  0  0  0  0  0  0
  -26.3020  -12.9950   20.2510 N   0  0  0  0  0  0  0  0  0  0  0  0
  -25.9330  -11.7170   20.5250 N   0  0  0  0  0  0  0  0  0  0  0  0
  -23.9050  -10.5060   21.0000 C   0  0  0  0  0  0  0  0  0  0  0  0
  -24.3210   -9.5500   21.9530 C   0  0  0  0  0  3  0  0  0  0  0  0
  -23.5900   -8.3560   22.1360 C   0  0  0  0  0  3  0  0  0  0  0  0
  -22.4300   -8.1090   21.3650 C   0  0  0  0  0  0  0  0  0  0  0  0
  -22.0350   -9.0530   20.4010 C   0  0  0  0  0  3  0  0  0  0  0  0
  -22.7660  -10.2380   20.2160 C   0  0  0  0  0  3  0  0  0  0  0  0
  -21.6720   -6.9670   21.4550 O   0  0  0  0  0  0  0  0  0  0  0  0
  -21.6070   -6.2370   22.6160 C   0  0  0  0  0  0  0  0  0  0  0  0
  -21.1700   -6.8070   23.8310 C   0  0  0  0  0  3  0  0  0  0  0  0
  -21.0520   -6.0040   24.9830 C   0  0  0  0  0  3  0  0  0  0  0  0
  -21.3600   -4.6320   24.9200 C   0  0  0  0  0  0  0  0  0  0  0  0
  -21.7900   -4.0610   23.7090 C   0  0  0  0  0  3  0  0  0  0  0  0
  -21.9100   -4.8620   22.5590 C   0  0  0  0  0  0  0  0  0  0  0  0
  -22.3060   -4.3040   21.3890 F   0  0  0  0  0  0  0  0  0  0  0  0
  -21.2380   -3.8570   26.0230 F   0  0  0  0  0  0  0  0  0  0  0  0
  -22.7740  -13.5990   21.0390 C   0  0  0  0  0  0  0  0  0  0  0  0
  -22.0290  -12.9170   21.9030 N   0  0  0  0  0  0  0  0  0  0  0  0
  -22.3480  -14.6150   20.4940 O   0  0  0  0  0  0  0  0  0  0  0  0
  -22.3880  -12.0950   22.3650 H   0  0  0  0  0  0  0  0  0  0  0  0
  -21.0880  -13.2200   22.1050 H   0  0  0  0  0  0  0  0  0  0  0  0
  -25.4230  -15.2480   20.2470 N   0  0  0  0  0  0  0  0  0  0  0  0
  -24.6510  -15.9020   20.3300 H   0  0  0  0  0  0  0  0  0  0  0  0
  -26.2740  -15.6830   19.9160 H   0  0  0  0  0  0  0  0  0  0  0  0
  -28.3580  -25.3230   19.8950 C   0  0  0  0  0  2  0  0  0  0  0  0
  -28.3960  -26.7370   20.1310 O   0  0  0  0  0  0  0  0  0  0  0  0
  -24.5830  -31.8850   23.2180 C   0  0  0  0  0  0  0  0  0  0  0  0
  -27.2050  -27.4370   20.1230 C   0  0  0  0  0  0  0  0  0  0  0  0
  -23.3670  -30.4860   21.5820 C   0  0  0  0  0  3  0  0  0  0  0  0
  -24.8090  -28.9460   20.1500 C   0  0  0  0  0  0  0  0  0  0  0  0
  -25.8930  -30.8400   21.3710 C   0  0  0  0  0  2  0  0  0  0  0  0
  -25.9710  -29.4690   20.7300 C   0  0  0  0  0  0  0  0  0  0  0  0
  -27.1700  -28.7230   20.7110 C   0  0  0  0  0  3  0  0  0  0  0  0
  -26.0210  -26.9260   19.5430 C   0  0  0  0  0  3  0  0  0  0  0  0
  -24.8290  -27.6750   19.5540 C   0  0  0  0  0  3  0  0  0  0  0  0
  -23.5670  -29.8070   20.2010 C   0  0  0  0  0  2  0  0  0  0  0  0
  -24.6330  -31.0850   22.1160 N   0  0  0  0  0  0  0  0  0  0  0  0
  -23.5050  -32.1590   23.7630 O   0  0  0  0  0  0  0  0  0  0  0  0
  -22.7180  -29.4670   22.5450 C   0  0  0  0  0  0  0  0  0  0  0  0
  -21.3930  -29.2880   22.4220 N   0  0  0  0  0  0  0  0  0  0  0  0
  -23.4040  -28.8380   23.3550 O   0  0  0  0  0  0  0  0  0  0  0  0
  -20.9020  -29.8480   21.7390 H   0  0  0  0  0  0  0  0  0  0  0  0
  -18.0150  -28.1110   22.9380 C   0  0  0  0  0  0  0  0  0  0  0  0
  -20.5770  -28.3520   23.1940 C   0  0  0  0  0  3  0  0  0  0  0  0
  -20.6660  -26.9230   22.6120 C   0  0  0  0  0  2  0  0  0  0  0  0
  -19.5560  -26.6110   21.6030 C   0  0  0  0  0  2  0  0  0  0  0  0
  -18.1790  -26.7620   22.2560 C   0  0  0  0  0  2  0  0  0  0  0  0
  -19.1410  -28.8640   23.3640 C   0  0  0  0  0  0  0  0  0  0  0  0
  -18.9350  -30.1270   23.9580 C   0  0  0  0  0  3  0  0  0  0  0  0
  -17.6340  -30.6370   24.1330 C   0  0  0  0  0  3  0  0  0  0  0  0
  -16.5220  -29.8800   23.7220 C   0  0  0  0  0  3  0  0  0  0  0  0
  -16.7140  -28.6190   23.1320 C   0  0  0  0  0  3  0  0  0  0  0  0
  -25.8740  -32.5110   23.8340 C   0  0  0  0  0  3  0  0  0  0  0  0
  -26.4010  -31.7320   25.1000 C   0  0  1  0  0  0  0  0  0  0  0  0
  -25.3170  -31.4870   26.1760 C   0  0  0  0  0  1  0  0  0  0  0  0
  -26.9800  -30.3580   24.6930 C   0  0  0  0  0  1  0  0  0  0  0  0
  -27.5560  -32.5230   25.7580 C   0  0  0  0  0  1  0  0  0  0  0  0
  -25.5680  -33.9080   24.1730 N   0  0  0  0  0  0  0  0  0  0  0  0
  -25.8960  -34.9630   23.4150 C   0  0  0  0  0  0  0  0  0  0  0  0
  -26.5600  -34.8640   22.3790 O   0  0  0  0  0  0  0  0  0  0  0  0
  -24.9790  -34.0590   24.9770 H   0  0  0  0  0  0  0  0  0  0  0  0
  -24.1700  -36.7600   23.0720 C   0  0  0  0  0  1  0  0  0  0  0  0
  -25.4120  -36.3490   23.8790 C   0  0  0  0  0  3  0  0  0  0  0  0
  -27.5490  -37.2280   24.7100 C   0  0  0  0  0  1  0  0  0  0  0  0
  -26.4450  -37.4020   23.7690 N   0  0  0  0  0  0  0  0  0  0  0  0
  -26.0410  -38.3220   23.9200 H   0  0  0  0  0  0  0  0  0  0  0  0
  1  7  2  0
  2  4  1  0
  2  3  1  0
  3  5  1  0
  4  6  1  0
  5 53  1  0
  6  5  1  0
  6  1  1  0
  8 12  1  0
  9 12  2  0
 10  8  2  0
 11  9  1  0
 12  1  1  0
 13 11  2  0
 13 10  1  0
 14 13  1  0
 14 23  1  0
 15 23  1  0
 16 21  1  0
 17 18  1  0
 17 16  1  0
 19 18  1  0
 19 28  1  0
 19 20  1  0
 21 15  1  0
 21 20  1  0
 22 15  2  0
 23 24  1  0
 25 26  2  0
 26 27  1  0
 26 45  1  0
 27 30  1  0
 28 25  1  0
 28 29  1  0
 29 27  2  0
 30 31  1  0
 31 32  2  0
 33 36  1  0
 33 32  1  0
 34 33  2  0
 35 34  1  0
 35 30  2  0
 36 37  1  0
 37 38  1  0
 38 39  2  0
 40 39  1  0
 40 44  1  0
 41 40  2  0
 42 37  2  0
 42 41  1  0
 43 42  1  0
 45 46  1  0
 46 49  1  0
 46 48  1  0
 47 45  2  0
 50 51  1  0
 50 25  1  0
 52 50  1  0
 53 54  1  0
 55 66  2  0
 56 54  1  0
 56 61  1  0
 57 65  1  0
 57 67  1  0
 58 64  1  0
 58 60  1  0
 59 65  1  0
 60 59  1  0
 61 60  2  0
 62 63  1  0
 62 56  2  0
 63 58  2  0
 64 57  1  0
 65 55  1  0
 67 69  2  0
 68 67  1  0
 70 68  1  0
 71 80  2  0
 71 76  1  0
 72 68  1  0
 72 76  1  0
 73 72  1  0
 74 75  1  0
 74 73  1  0
 75 71  1  0
 76 77  2  0
 77 78  1  0
 79 78  2  0
 80 79  1  0
 81 55  1  0
 81 86  1  0
 81 82  1  0
 82 85  1  1
 82 83  1  0
 84 82  1  0
 86 89  1  0
 87 91  1  0
 87 86  1  0
 88 87  2  0
 91 90  1  0
 93 91  1  0
 93 94  1  0
 93 92  1  0
M  ISO  4  15 100  23 100  53 101  54 101
M  END
>  <TORSDO>  (43) 
F 19

>  <SCORE>  (43) 
-14.490

>  <name>  (43) 
42

>  <ligand_id>  (43) 
42

>  <original_smiles>  (43) 
[H]c1c([H])c([H])c2c(c1[H])C([H])([H])C([H])([H])C([H])([H])C2([H])N([H])C(=O)C1([H])N(C(=O)C([H])(N([H])C(=O)C([H])(N([H])C([H])([H])[H])C([H])([H])[H])C(C([H])([H])[H])(C([H])([H])[H])C([H])([H])[H])C([H])([H])c2c([H])c(OC([H])([H])C3([H])N(C(=O)c4c([H])c([H])c(C([H])([H])N([H])C(=O)N5C([H])([H])C([H])([H])C([H])([H])C([H])(n6nc(-c7c([H])c([H])c(Oc8c([H])c([H])c(F)c([H])c8F)c([H])c7[H])c(C(=O)N([H])[H])c6N([H])[H])C5([H])[H])c([H])c4[H])C([H])([H])C([H])([H])C3([H])[H])c([H])c([H])c2C1([H])[H]

>  <smiles>  (43) 
[H]c1c([H])c([H])c2c(c1[H])C([H])([H])C([H])([H])C([H])([H])C2([H])N([H])C(=O)C1([H])N(C(=O)C([H])(N([H])C(=O)C([H])(N([H])C([H])([H])[H])C([H])([H])[H])C(C([H])([H])[H])(C([H])([H])[H])C([H])([H])[H])C([H])([H])c2c([H])c(OC([H])([H])C3([H])N(C(=O)c4c([H])c([H])c(C([H])([H])N([H])C(=O)N5C([H])([H])C([H])([H])C([H])([H])C([H])(n6nc(-c7c([H])c([H])c(Oc8c([H])c([H])c(F)c([H])c8F)c([H])c7[H])c(C(=O)N([H])[H])c6N([H])[H])C5([H])[H])c([H])c4[H])C([H])([H])C([H])([H])C3([H])[H])c([H])c([H])c2C1([H])[H]

$$$$
43:0:0
     RDKit          3D

 97105  0  0  1  0  0  0  0  0999 V2000
  -26.9870  -19.0340   19.5930 C   0  0  0  0  0  1  0  0  0  0  0  0
  -28.1830  -19.9840   19.4210 C   0  0  0  0  0  3  0  0  0  0  0  0
  -30.9020  -20.5260   22.0870 C   0  0  0  0  0  3  0  0  0  0  0  0
  -29.6590  -20.5180   21.4300 C   0  0  0  0  0  3  0  0  0  0  0  0
  -31.5660  -18.5690   20.8390 C   0  0  0  0  0  3  0  0  0  0  0  0
  -31.9230  -19.6560   21.6580 C   0  0  0  0  0  0  0  0  0  0  0  0
  -29.3800  -19.6180   20.3720 C   0  0  0  0  0  0  0  0  0  0  0  0
  -30.2900  -18.4900   20.2270 C   0  0  0  0  0  0  0  0  0  0  0  0
  -30.0910  -17.2030   19.3800 C   0  0  0  0  0  2  0  0  0  0  0  0
  -30.7650  -14.8220   20.1740 C   0  0  0  0  0  0  0  0  0  0  0  0
  -30.6040  -12.4940   19.3770 C   0  0  0  0  0  2  0  0  0  0  0  0
  -29.6860  -12.5140   18.1350 C   0  0  0  0  0  2  0  0  0  0  0  0
  -28.2060  -12.3770   18.5580 C   0  0  0  0  0  2  0  0  0  0  0  0
  -27.8100  -13.3270   19.7240 C   0  0  0  0  0  3  0  0  0  0  0  0
  -28.8630  -13.2800   20.8520 C   0  0  0  0  0  2  0  0  0  0  0  0
  -30.1700  -13.5930   20.2600 N   0  0  0  0  0  0  0  0  0  0  0  0
  -31.9540  -14.9350   19.8750 O   0  0  0  0  0  0  0  0  0  0  0  0
  -29.9290  -15.9040   20.1240 N   0  0  0  0  0  0  0  0  0  0  0  0
  -29.0000  -15.7270   20.4610 H   0  0  0  0  0  0  0  0  0  0  0  0
  -25.4150  -13.9230   20.4700 C   0  0  0  0  0  0  0  0  0  0  0  0
  -24.3520  -13.1530   20.8370 C   0  0  0  0  0  0  0  0  0  0  0  0
  -24.8130  -11.7990   20.7910 C   0  0  0  0  0  0  0  0  0  0  0  0
  -26.4630  -13.0490   20.2210 N   0  0  0  0  0  0  0  0  0  0  0  0
  -26.1050  -11.7630   20.4790 N   0  0  0  0  0  0  0  0  0  0  0  0
  -24.0850  -10.5370   20.9780 C   0  0  0  0  0  0  0  0  0  0  0  0
  -24.5140   -9.5690   21.9120 C   0  0  0  0  0  3  0  0  0  0  0  0
  -23.7890   -8.3720   22.0890 C   0  0  0  0  0  3  0  0  0  0  0  0
  -22.6190   -8.1330   21.3330 C   0  0  0  0  0  0  0  0  0  0  0  0
  -22.2060   -9.0880   20.3870 C   0  0  0  0  0  3  0  0  0  0  0  0
  -22.9310  -10.2760   20.2090 C   0  0  0  0  0  3  0  0  0  0  0  0
  -21.8690   -6.9880   21.4180 O   0  0  0  0  0  0  0  0  0  0  0  0
  -21.8030   -6.2510   22.5720 C   0  0  0  0  0  0  0  0  0  0  0  0
  -21.3540   -6.8080   23.7880 C   0  0  0  0  0  3  0  0  0  0  0  0
  -21.2310   -5.9920   24.9320 C   0  0  0  0  0  3  0  0  0  0  0  0
  -21.5540   -4.6270   24.8610 C   0  0  0  0  0  0  0  0  0  0  0  0
  -22.0000   -4.0670   23.6510 C   0  0  0  0  0  3  0  0  0  0  0  0
  -22.1200   -4.8760   22.5070 C   0  0  0  0  0  0  0  0  0  0  0  0
  -22.5260   -4.3320   21.3350 F   0  0  0  0  0  0  0  0  0  0  0  0
  -21.4310   -3.8430   25.9580 F   0  0  0  0  0  0  0  0  0  0  0  0
  -22.9530  -13.6250   21.1170 C   0  0  0  0  0  0  0  0  0  0  0  0
  -22.2300  -12.9350   21.9910 N   0  0  0  0  0  0  0  0  0  0  0  0
  -22.5150  -14.6510   20.5950 O   0  0  0  0  0  0  0  0  0  0  0  0
  -22.6010  -12.1110   22.4430 H   0  0  0  0  0  0  0  0  0  0  0  0
  -21.2920  -13.2340   22.2110 H   0  0  0  0  0  0  0  0  0  0  0  0
  -25.5710  -15.2960   20.3000 N   0  0  0  0  0  0  0  0  0  0  0  0
  -24.7930  -15.9250   20.4370 H   0  0  0  0  0  0  0  0  0  0  0  0
  -26.4000  -15.7550   19.9590 H   0  0  0  0  0  0  0  0  0  0  0  0
  -33.3940  -19.9330   21.9880 C   0  0  0  0  0  2  0  0  0  0  0  0
  -35.3700  -21.1000   21.2260 C   0  0  0  0  0  1  0  0  0  0  0  0
  -34.0080  -20.7400   20.9740 O   0  0  0  0  0  0  0  0  0  0  0  0
  -27.6440  -21.4110   19.4720 N   0  0  0  0  0  4  0  0  0  0  0  0
  -26.8960  -21.3880   18.7920 H   0  0  0  0  0  0  0  0  0  0  0  0
  -27.1880  -21.5440   20.3610 H   0  0  0  0  0  0  0  0  0  0  0  0
  -28.5060  -22.6120   19.1180 C   0  0  0  0  0  2  0  0  0  0  0  0
  -27.8340  -24.0710   19.0440 C   0  0  0  0  0  2  0  0  0  0  0  0
  -28.1080  -25.1410   20.1880 C   0  0  0  0  0  2  0  0  0  0  0  0
  -28.1850  -26.5860   19.8700 O   0  0  0  0  0  0  0  0  0  0  0  0
  -24.5370  -31.8640   23.1840 C   0  0  0  0  0  0  0  0  0  0  0  0
  -27.0500  -27.3910   19.9480 C   0  0  0  0  0  0  0  0  0  0  0  0
  -23.2780  -30.5120   21.5430 C   0  0  0  0  0  3  0  0  0  0  0  0
  -24.6850  -28.9870   20.0470 C   0  0  0  0  0  0  0  0  0  0  0  0
  -25.8130  -30.8320   21.3020 C   0  0  0  0  0  2  0  0  0  0  0  0
  -25.8700  -29.4710   20.6170 C   0  0  0  0  0  0  0  0  0  0  0  0
  -27.0590  -28.6880   20.5500 C   0  0  0  0  0  3  0  0  0  0  0  0
  -25.8420  -26.9490   19.3740 C   0  0  0  0  0  3  0  0  0  0  0  0
  -24.6730  -27.7310   19.4220 C   0  0  0  0  0  3  0  0  0  0  0  0
  -23.4530  -29.8620   20.1430 C   0  0  0  0  0  2  0  0  0  0  0  0
  -24.5610  -31.0850   22.0650 N   0  0  0  0  0  0  0  0  0  0  0  0
  -23.4720  -32.1330   23.7550 O   0  0  0  0  0  0  0  0  0  0  0  0
  -22.6390  -29.4760   22.4970 C   0  0  0  0  0  0  0  0  0  0  0  0
  -21.3120  -29.2990   22.3940 N   0  0  0  0  0  0  0  0  0  0  0  0
  -23.3350  -28.8390   23.2920 O   0  0  0  0  0  0  0  0  0  0  0  0
  -20.8100  -29.8680   21.7290 H   0  0  0  0  0  0  0  0  0  0  0  0
  -17.9550  -28.0750   22.9180 C   0  0  0  0  0  0  0  0  0  0  0  0
  -20.5120  -28.3490   23.1660 C   0  0  0  0  0  3  0  0  0  0  0  0
  -20.6210  -26.9260   22.5740 C   0  0  0  0  0  2  0  0  0  0  0  0
  -19.5120  -26.6060   21.5700 C   0  0  0  0  0  2  0  0  0  0  0  0
  -18.1340  -26.7330   22.2280 C   0  0  0  0  0  2  0  0  0  0  0  0
  -19.0690  -28.8420   23.3480 C   0  0  0  0  0  0  0  0  0  0  0  0
  -18.8490  -30.1000   23.9540 C   0  0  0  0  0  3  0  0  0  0  0  0
  -17.5420  -30.5860   24.1400 C   0  0  0  0  0  3  0  0  0  0  0  0
  -16.4410  -29.8140   23.7270 C   0  0  0  0  0  3  0  0  0  0  0  0
  -16.6490  -28.5610   23.1220 C   0  0  0  0  0  3  0  0  0  0  0  0
  -25.8430  -32.4700   23.7850 C   0  0  0  0  0  3  0  0  0  0  0  0
  -25.5570  -33.8650   24.1560 N   0  0  0  0  0  0  0  0  0  0  0  0
  -25.8820  -34.9310   23.4140 C   0  0  0  0  0  0  0  0  0  0  0  0
  -26.5290  -34.8410   22.3690 O   0  0  0  0  0  0  0  0  0  0  0  0
  -24.9810  -34.0090   24.9720 H   0  0  0  0  0  0  0  0  0  0  0  0
  -24.1700  -36.7500   23.1300 C   0  0  0  0  0  1  0  0  0  0  0  0
  -25.4150  -36.3100   23.9140 C   0  0  0  0  0  3  0  0  0  0  0  0
  -27.5660  -37.1560   24.7390 C   0  0  0  0  0  1  0  0  0  0  0  0
  -26.4530  -37.3550   23.8170 N   0  0  0  0  0  0  0  0  0  0  0  0
  -26.0550  -38.2730   23.9850 H   0  0  0  0  0  0  0  0  0  0  0  0
  -26.3880  -31.6670   25.0320 C   0  0  1  0  0  0  0  0  0  0  0  0
  -25.3250  -31.4250   26.1250 C   0  0  0  0  0  1  0  0  0  0  0  0
  -26.9500  -30.2880   24.6070 C   0  0  0  0  0  1  0  0  0  0  0  0
  -27.5600  -32.4400   25.6820 C   0  0  0  0  0  1  0  0  0  0  0  0
  2 51  1  0
  2  1  1  0
  2  7  1  0
  4  3  2  0
  5  6  2  0
  6 48  1  0
  6  3  1  0
  7  4  1  0
  8  7  2  0
  8  5  1  0
  9 18  1  0
  9  8  1  0
 10 16  1  0
 11 16  1  0
 12 13  1  0
 12 11  1  0
 14 13  1  0
 14 23  1  0
 14 15  1  0
 16 15  1  0
 17 10  2  0
 18 10  1  0
 18 19  1  0
 20 21  2  0
 21 40  1  0
 22 21  1  0
 22 25  1  0
 23 20  1  0
 23 24  1  0
 24 22  2  0
 25 26  1  0
 26 27  2  0
 28 31  1  0
 28 27  1  0
 29 28  2  0
 30 29  1  0
 30 25  2  0
 31 32  1  0
 32 33  1  0
 33 34  2  0
 35 34  1  0
 35 39  1  0
 36 35  2  0
 37 32  2  0
 37 36  1  0
 38 37  1  0
 40 41  1  0
 41 44  1  0
 41 43  1  0
 42 40  2  0
 45 46  1  0
 45 20  1  0
 47 45  1  0
 50 49  1  0
 50 48  1  0
 51 53  1  0
 52 51  1  0
 54 51  1  0
 55 54  1  0
 55 56  1  0
 57 59  1  0
 57 56  1  0
 58 69  2  0
 59 64  1  0
 60 68  1  0
 60 70  1  0
 61 67  1  0
 61 63  1  0
 62 68  1  0
 63 62  1  0
 64 63  2  0
 65 66  1  0
 65 59  2  0
 66 61  2  0
 67 60  1  0
 68 58  1  0
 70 72  2  0
 71 70  1  0
 73 71  1  0
 74 83  2  0
 74 79  1  0
 75 71  1  0
 75 79  1  0
 76 75  1  0
 77 78  1  0
 77 76  1  0
 78 74  1  0
 79 80  2  0
 80 81  1  0
 82 81  2  0
 83 82  1  0
 84 58  1  0
 84 85  1  0
 84 94  1  0
 85 88  1  0
 86 90  1  0
 86 85  1  0
 87 86  2  0
 90 89  1  0
 92 90  1  0
 92 93  1  0
 92 91  1  0
 94 97  1  1
 94 95  1  0
 96 94  1  0
M  ISO  4  10 100  18 100  56 101  57 101
M  END
>  <TORSDO>  (44) 
F 24

>  <SCORE>  (44) 
-12.727

>  <name>  (44) 
43

>  <ligand_id>  (44) 
43

>  <original_smiles>  (44) 
[H]c1c([H])c([H])c2c(c1[H])C([H])([H])C([H])([H])C([H])([H])C2([H])N([H])C(=O)C1([H])N(C(=O)C([H])(N([H])C(=O)C([H])(N([H])C([H])([H])[H])C([H])([H])[H])C(C([H])([H])[H])(C([H])([H])[H])C([H])([H])[H])C([H])([H])c2c([H])c(OC([H])([H])C([H])([H])C([H])([H])[N+]([H])([H])C([H])(c3c([H])c([H])c(C([H])([H])OC([H])([H])[H])c([H])c3C([H])([H])N([H])C(=O)N3C([H])([H])C([H])([H])C([H])([H])C([H])(n4nc(-c5c([H])c([H])c(Oc6c([H])c([H])c(F)c([H])c6F)c([H])c5[H])c(C(=O)N([H])[H])c4N([H])[H])C3([H])[H])C([H])([H])[H])c([H])c([H])c2C1([H])[H]

>  <smiles>  (44) 
[H]c1c([H])c([H])c2c(c1[H])C([H])([H])C([H])([H])C([H])([H])C2([H])N([H])C(=O)C1([H])N(C(=O)C([H])(N([H])C(=O)C([H])(N([H])C([H])([H])[H])C([H])([H])[H])C(C([H])([H])[H])(C([H])([H])[H])C([H])([H])[H])C([H])([H])c2c([H])c(OC([H])([H])C([H])([H])C([H])([H])[N+]([H])([H])C([H])(c3c([H])c([H])c(C([H])([H])OC([H])([H])[H])c([H])c3C([H])([H])N([H])C(=O)N3C([H])([H])C([H])([H])C([H])([H])C([H])(n4nc(-c5c([H])c([H])c(Oc6c([H])c([H])c(F)c([H])c6F)c([H])c5[H])c(C(=O)N([H])[H])c4N([H])[H])C3([H])[H])C([H])([H])[H])c([H])c([H])c2C1([H])[H]

$$$$
44:0:0
     RDKit          3D

 92100  0  0  1  0  0  0  0  0999 V2000
  -29.6900  -21.9380   21.1270 C   0  0  0  0  0  2  0  0  0  0  0  0
  -32.2790  -19.3690   19.8630 C   0  0  0  0  0  3  0  0  0  0  0  0
  -31.6090  -18.1400   20.0430 C   0  0  0  0  0  3  0  0  0  0  0  0
  -31.6500  -20.5890   20.1800 C   0  0  0  0  0  3  0  0  0  0  0  0
  -29.6540  -19.3540   20.8260 C   0  0  0  0  0  3  0  0  0  0  0  0
  -30.2840  -18.1090   20.5230 C   0  0  0  0  0  0  0  0  0  0  0  0
  -30.3250  -20.6020   20.6700 C   0  0  0  0  0  0  0  0  0  0  0  0
  -29.4800  -16.7850   20.5970 C   0  0  0  0  0  2  0  0  0  0  0  0
  -30.6600  -14.5410   20.4360 C   0  0  0  0  0  0  0  0  0  0  0  0
  -30.3730  -12.3570   19.3140 C   0  0  0  0  0  2  0  0  0  0  0  0
  -29.4440  -12.5620   18.0970 C   0  0  0  0  0  2  0  0  0  0  0  0
  -27.9620  -12.4390   18.5030 C   0  0  0  0  0  2  0  0  0  0  0  0
  -27.6200  -13.2710   19.7700 C   0  0  0  0  0  3  0  0  0  0  0  0
  -28.6670  -13.0450   20.8880 C   0  0  0  0  0  2  0  0  0  0  0  0
  -30.0060  -13.3430   20.3460 N   0  0  0  0  0  0  0  0  0  0  0  0
  -31.7260  -14.7520   19.8540 O   0  0  0  0  0  0  0  0  0  0  0  0
  -30.0380  -15.5160   21.1380 N   0  0  0  0  0  0  0  0  0  0  0  0
  -29.4330  -15.1250   21.8430 H   0  0  0  0  0  0  0  0  0  0  0  0
  -25.2140  -13.8880   20.4560 C   0  0  0  0  0  0  0  0  0  0  0  0
  -24.1430  -13.1230   20.8280 C   0  0  0  0  0  0  0  0  0  0  0  0
  -24.6000  -11.7690   20.8100 C   0  0  0  0  0  0  0  0  0  0  0  0
  -26.2610  -13.0050   20.2400 N   0  0  0  0  0  0  0  0  0  0  0  0
  -25.8930  -11.7260   20.5090 N   0  0  0  0  0  0  0  0  0  0  0  0
  -23.8660  -10.5110   21.0080 C   0  0  0  0  0  0  0  0  0  0  0  0
  -24.2970   -9.5460   21.9460 C   0  0  0  0  0  3  0  0  0  0  0  0
  -23.5650   -8.3530   22.1340 C   0  0  0  0  0  3  0  0  0  0  0  0
  -22.3880   -8.1170   21.3840 C   0  0  0  0  0  0  0  0  0  0  0  0
  -21.9750   -9.0730   20.4360 C   0  0  0  0  0  3  0  0  0  0  0  0
  -22.7080  -10.2560   20.2480 C   0  0  0  0  0  3  0  0  0  0  0  0
  -21.6280   -6.9770   21.4800 O   0  0  0  0  0  0  0  0  0  0  0  0
  -21.5870   -6.2310   22.6310 C   0  0  0  0  0  0  0  0  0  0  0  0
  -21.1870   -6.7880   23.8660 C   0  0  0  0  0  3  0  0  0  0  0  0
  -21.0950   -5.9690   25.0090 C   0  0  0  0  0  3  0  0  0  0  0  0
  -21.3920   -4.5970   24.9190 C   0  0  0  0  0  0  0  0  0  0  0  0
  -21.7830   -4.0390   23.6890 C   0  0  0  0  0  3  0  0  0  0  0  0
  -21.8780   -4.8540   22.5480 C   0  0  0  0  0  0  0  0  0  0  0  0
  -22.2370   -4.3100   21.3600 F   0  0  0  0  0  0  0  0  0  0  0  0
  -21.2940   -3.8080   26.0150 F   0  0  0  0  0  0  0  0  0  0  0  0
  -22.7450  -13.6080   21.0900 C   0  0  0  0  0  0  0  0  0  0  0  0
  -22.0110  -12.9250   21.9600 N   0  0  0  0  0  0  0  0  0  0  0  0
  -22.3130  -14.6280   20.5550 O   0  0  0  0  0  0  0  0  0  0  0  0
  -22.3760  -12.1030   22.4170 H   0  0  0  0  0  0  0  0  0  0  0  0
  -21.0700  -13.2300   22.1710 H   0  0  0  0  0  0  0  0  0  0  0  0
  -25.3790  -15.2570   20.2690 N   0  0  0  0  0  0  0  0  0  0  0  0
  -24.6010  -15.9020   20.3610 H   0  0  0  0  0  0  0  0  0  0  0  0
  -26.2300  -15.7030   19.9540 H   0  0  0  0  0  0  0  0  0  0  0  0
  -29.5380  -22.9980   20.0810 N   0  0  0  0  0  4  0  0  0  0  0  0
  -30.3400  -22.9520   19.4720 H   0  0  0  0  0  0  0  0  0  0  0  0
  -28.7370  -22.7620   19.5180 H   0  0  0  0  0  0  0  0  0  0  0  0
  -29.4110  -24.4100   20.5870 C   0  0  0  0  0  2  0  0  0  0  0  0
  -28.4140  -25.2920   19.7760 C   0  0  0  0  0  2  0  0  0  0  0  0
  -28.4030  -26.6840   20.1840 O   0  0  0  0  0  0  0  0  0  0  0  0
  -24.5920  -31.8910   23.2290 C   0  0  0  0  0  0  0  0  0  0  0  0
  -27.2220  -27.4160   20.1390 C   0  0  0  0  0  0  0  0  0  0  0  0
  -23.3780  -30.4930   21.5900 C   0  0  0  0  0  3  0  0  0  0  0  0
  -24.8260  -28.9540   20.1540 C   0  0  0  0  0  0  0  0  0  0  0  0
  -25.9070  -30.8390   21.3850 C   0  0  0  0  0  2  0  0  0  0  0  0
  -25.9870  -29.4650   20.7460 C   0  0  0  0  0  0  0  0  0  0  0  0
  -27.1820  -28.7040   20.7380 C   0  0  0  0  0  3  0  0  0  0  0  0
  -26.0360  -26.9390   19.5250 C   0  0  0  0  0  3  0  0  0  0  0  0
  -24.8490  -27.6920   19.5400 C   0  0  0  0  0  3  0  0  0  0  0  0
  -23.5820  -29.8140   20.2090 C   0  0  0  0  0  2  0  0  0  0  0  0
  -24.6440  -31.0880   22.1280 N   0  0  0  0  0  0  0  0  0  0  0  0
  -23.5130  -32.1650   23.7730 O   0  0  0  0  0  0  0  0  0  0  0  0
  -22.7270  -29.4730   22.5510 C   0  0  0  0  0  0  0  0  0  0  0  0
  -21.4000  -29.2950   22.4290 N   0  0  0  0  0  0  0  0  0  0  0  0
  -23.4110  -28.8420   23.3640 O   0  0  0  0  0  0  0  0  0  0  0  0
  -20.9100  -29.8530   21.7430 H   0  0  0  0  0  0  0  0  0  0  0  0
  -18.0250  -28.1150   22.9390 C   0  0  0  0  0  0  0  0  0  0  0  0
  -20.5830  -28.3580   23.2010 C   0  0  0  0  0  3  0  0  0  0  0  0
  -20.6770  -26.9300   22.6180 C   0  0  0  0  0  2  0  0  0  0  0  0
  -19.5690  -26.6180   21.6070 C   0  0  0  0  0  2  0  0  0  0  0  0
  -18.1900  -26.7670   22.2570 C   0  0  0  0  0  2  0  0  0  0  0  0
  -19.1480  -28.8690   23.3680 C   0  0  0  0  0  0  0  0  0  0  0  0
  -18.9390  -30.1330   23.9630 C   0  0  0  0  0  3  0  0  0  0  0  0
  -17.6390  -30.6420   24.1320 C   0  0  0  0  0  3  0  0  0  0  0  0
  -16.5290  -29.8850   23.7200 C   0  0  0  0  0  3  0  0  0  0  0  0
  -16.7220  -28.6230   23.1300 C   0  0  0  0  0  3  0  0  0  0  0  0
  -25.8810  -32.5170   23.8470 C   0  0  0  0  0  3  0  0  0  0  0  0
  -25.5770  -33.9140   24.1800 N   0  0  0  0  0  0  0  0  0  0  0  0
  -25.9130  -34.9690   23.4240 C   0  0  0  0  0  0  0  0  0  0  0  0
  -26.5820  -34.8650   22.3930 O   0  0  0  0  0  0  0  0  0  0  0  0
  -24.9780  -34.0690   24.9790 H   0  0  0  0  0  0  0  0  0  0  0  0
  -24.1870  -36.7650   23.0710 C   0  0  0  0  0  1  0  0  0  0  0  0
  -25.4260  -36.3580   23.8840 C   0  0  0  0  0  3  0  0  0  0  0  0
  -27.5640  -37.2320   24.7140 C   0  0  0  0  0  1  0  0  0  0  0  0
  -26.4620  -37.4080   23.7720 N   0  0  0  0  0  0  0  0  0  0  0  0
  -26.0610  -38.3300   23.9220 H   0  0  0  0  0  0  0  0  0  0  0  0
  -26.4000  -31.7410   25.1200 C   0  0  1  0  0  0  0  0  0  0  0  0
  -25.3080  -31.5050   26.1890 C   0  0  0  0  0  1  0  0  0  0  0  0
  -26.9750  -30.3640   24.7170 C   0  0  0  0  0  1  0  0  0  0  0  0
  -27.5530  -32.5300   25.7800 C   0  0  0  0  0  1  0  0  0  0  0  0
  2  3  2  0
  2  4  1  0
  3  6  1  0
  4  7  2  0
  6  8  1  0
  6  5  2  0
  7  5  1  0
  7  1  1  0
  8 17  1  0
  9 17  1  0
 10 15  1  0
 11 12  1  0
 11 10  1  0
 13 12  1  0
 13 22  1  0
 13 14  1  0
 15  9  1  0
 15 14  1  0
 16  9  2  0
 17 18  1  0
 19 20  2  0
 20 39  1  0
 21 20  1  0
 21 24  1  0
 22 19  1  0
 22 23  1  0
 23 21  2  0
 24 25  1  0
 25 26  2  0
 27 30  1  0
 27 26  1  0
 28 27  2  0
 29 28  1  0
 29 24  2  0
 30 31  1  0
 31 32  1  0
 32 33  2  0
 34 33  1  0
 34 38  1  0
 35 34  2  0
 36 31  2  0
 36 35  1  0
 37 36  1  0
 39 40  1  0
 40 43  1  0
 40 42  1  0
 41 39  2  0
 44 45  1  0
 44 19  1  0
 46 44  1  0
 47 50  1  0
 47  1  1  0
 48 47  1  0
 49 47  1  0
 51 52  1  0
 51 50  1  0
 53 64  2  0
 54 52  1  0
 54 59  1  0
 55 63  1  0
 55 65  1  0
 56 62  1  0
 56 58  1  0
 57 63  1  0
 58 57  1  0
 59 58  2  0
 60 61  1  0
 60 54  2  0
 61 56  2  0
 62 55  1  0
 63 53  1  0
 65 67  2  0
 66 65  1  0
 68 66  1  0
 69 78  2  0
 69 74  1  0
 70 66  1  0
 70 74  1  0
 71 70  1  0
 72 73  1  0
 72 71  1  0
 73 69  1  0
 74 75  2  0
 75 76  1  0
 77 76  2  0
 78 77  1  0
 79 53  1  0
 79 80  1  0
 79 89  1  0
 80 83  1  0
 81 85  1  0
 81 80  1  0
 82 81  2  0
 85 84  1  0
 87 85  1  0
 87 88  1  0
 87 86  1  0
 89 92  1  1
 89 90  1  0
 91 89  1  0
M  ISO  4   9 100  17 100  51 101  52 101
M  END
>  <TORSDO>  (45) 
F 21

>  <SCORE>  (45) 
-13.521

>  <name>  (45) 
44

>  <ligand_id>  (45) 
44

>  <original_smiles>  (45) 
[H]c1c([H])c([H])c2c(c1[H])C([H])([H])C([H])([H])C([H])([H])C2([H])N([H])C(=O)C1([H])N(C(=O)C([H])(N([H])C(=O)C([H])(N([H])C([H])([H])[H])C([H])([H])[H])C(C([H])([H])[H])(C([H])([H])[H])C([H])([H])[H])C([H])([H])c2c([H])c(OC([H])([H])C([H])([H])[N+]([H])([H])C([H])([H])c3c([H])c([H])c([H])c(C([H])([H])N([H])C(=O)N4C([H])([H])C([H])([H])C([H])([H])C([H])(n5nc(-c6c([H])c([H])c(Oc7c([H])c([H])c(F)c([H])c7F)c([H])c6[H])c(C(=O)N([H])[H])c5N([H])[H])C4([H])[H])c3[H])c([H])c([H])c2C1([H])[H]

>  <smiles>  (45) 
[H]c1c([H])c([H])c2c(c1[H])C([H])([H])C([H])([H])C([H])([H])C2([H])N([H])C(=O)C1([H])N(C(=O)C([H])(N([H])C(=O)C([H])(N([H])C([H])([H])[H])C([H])([H])[H])C(C([H])([H])[H])(C([H])([H])[H])C([H])([H])[H])C([H])([H])c2c([H])c(OC([H])([H])C([H])([H])[N+]([H])([H])C([H])([H])c3c([H])c([H])c([H])c(C([H])([H])N([H])C(=O)N4C([H])([H])C([H])([H])C([H])([H])C([H])(n5nc(-c6c([H])c([H])c(Oc7c([H])c([H])c(F)c([H])c7F)c([H])c6[H])c(C(=O)N([H])[H])c5N([H])[H])C4([H])[H])c3[H])c([H])c([H])c2C1([H])[H]

$$$$
45:0:0
     RDKit          3D

 96105  0  0  1  0  0  0  0  0999 V2000
  -26.7390  -19.9140   21.1660 C   0  0  0  0  0  3  0  0  0  0  0  0
  -27.3470  -21.1640   20.9510 C   0  0  0  0  0  3  0  0  0  0  0  0
  -27.3940  -18.7390   20.7610 C   0  0  0  0  0  3  0  0  0  0  0  0
  -28.6040  -21.2390   20.3220 C   0  0  0  0  0  3  0  0  0  0  0  0
  -29.2910  -17.6030   19.7630 C   0  0  0  0  0  3  0  0  0  0  0  0
  -31.1590  -18.8860   18.8790 C   0  0  0  0  0  3  0  0  0  0  0  0
  -28.6540  -18.8060   20.1320 C   0  0  0  0  0  0  0  0  0  0  0  0
  -29.2730  -20.0650   19.8900 C   0  0  0  0  0  0  0  0  0  0  0  0
  -30.5610  -17.6260   19.1510 C   0  0  0  0  0  0  0  0  0  0  0  0
  -30.5380  -20.1140   19.2370 C   0  0  0  0  0  0  0  0  0  0  0  0
  -31.3130  -16.3320   18.7960 C   0  0  0  0  0  2  0  0  0  0  0  0
  -31.7350  -14.0050   19.5680 C   0  0  0  0  0  0  0  0  0  0  0  0
  -31.6550  -11.5410   19.5780 C   0  0  0  0  0  2  0  0  0  0  0  0
  -30.7530  -11.0620   18.4220 C   0  0  0  0  0  2  0  0  0  0  0  0
  -29.2800  -11.0040   18.8730 C   0  0  0  0  0  2  0  0  0  0  0  0
  -28.8210  -12.3010   19.5910 C   0  0  0  0  0  3  0  0  0  0  0  0
  -29.8440  -12.7390   20.6650 C   0  0  0  0  0  2  0  0  0  0  0  0
  -31.1590  -12.8560   20.0160 N   0  0  0  0  0  0  0  0  0  0  0  0
  -32.8650  -14.0310   19.0750 O   0  0  0  0  0  0  0  0  0  0  0  0
  -30.9450  -15.0970   19.5190 N   0  0  0  0  0  0  0  0  0  0  0  0
  -30.0180  -15.0270   19.9070 H   0  0  0  0  0  0  0  0  0  0  0  0
  -26.5450  -13.1380   20.4520 C   0  0  0  0  0  0  0  0  0  0  0  0
  -25.4260  -12.4730   20.8760 C   0  0  0  0  0  0  0  0  0  0  0  0
  -25.7420  -11.0820   20.8010 C   0  0  0  0  0  0  0  0  0  0  0  0
  -27.4770  -12.1580   20.1470 N   0  0  0  0  0  0  0  0  0  0  0  0
  -27.0010  -10.9150   20.4150 N   0  0  0  0  0  0  0  0  0  0  0  0
  -24.9010   -9.8970   21.0200 C   0  0  0  0  0  0  0  0  0  0  0  0
  -25.1370   -9.0110   22.0950 C   0  0  0  0  0  3  0  0  0  0  0  0
  -24.3050   -7.8890   22.2940 C   0  0  0  0  0  3  0  0  0  0  0  0
  -23.2200   -7.6460   21.4190 C   0  0  0  0  0  0  0  0  0  0  0  0
  -23.0030   -8.5180   20.3370 C   0  0  0  0  0  3  0  0  0  0  0  0
  -23.8360   -9.6310   20.1370 C   0  0  0  0  0  3  0  0  0  0  0  0
  -22.3740   -6.5690   21.5210 O   0  0  0  0  0  0  0  0  0  0  0  0
  -21.9820   -6.0750   22.7390 C   0  0  0  0  0  0  0  0  0  0  0  0
  -21.2690   -6.8630   23.6690 C   0  0  0  0  0  3  0  0  0  0  0  0
  -20.8250   -6.2950   24.8800 C   0  0  0  0  0  3  0  0  0  0  0  0
  -21.0840   -4.9390   25.1590 C   0  0  0  0  0  0  0  0  0  0  0  0
  -21.7880   -4.1510   24.2300 C   0  0  0  0  0  3  0  0  0  0  0  0
  -22.2330   -4.7170   23.0230 C   0  0  0  0  0  0  0  0  0  0  0  0
  -22.8930   -3.9490   22.1240 F   0  0  0  0  0  0  0  0  0  0  0  0
  -20.6510   -4.3880   26.3170 F   0  0  0  0  0  0  0  0  0  0  0  0
  -24.1050  -13.0870   21.2360 C   0  0  0  0  0  0  0  0  0  0  0  0
  -23.3710  -12.4690   22.1550 N   0  0  0  0  0  0  0  0  0  0  0  0
  -23.7350  -14.1480   20.7360 O   0  0  0  0  0  0  0  0  0  0  0  0
  -23.6850  -11.6090   22.5800 H   0  0  0  0  0  0  0  0  0  0  0  0
  -22.4860  -12.8630   22.4410 H   0  0  0  0  0  0  0  0  0  0  0  0
  -26.8430  -14.4870   20.2800 N   0  0  0  0  0  0  0  0  0  0  0  0
  -26.1480  -15.2110   20.4300 H   0  0  0  0  0  0  0  0  0  0  0  0
  -27.7000  -14.8370   19.8740 H   0  0  0  0  0  0  0  0  0  0  0  0
  -31.2800  -21.4500   18.9890 C   0  0  0  0  0  2  0  0  0  0  0  0
  -30.5000  -22.4660   18.2260 N   0  0  0  0  0  4  0  0  0  0  0  0
  -29.5910  -22.5210   18.6560 H   0  0  0  0  0  0  0  0  0  0  0  0
  -30.3620  -22.1110   17.2920 H   0  0  0  0  0  0  0  0  0  0  0  0
  -31.0940  -23.8440   18.1650 C   0  0  0  0  0  2  0  0  0  0  0  0
  -30.0320  -24.9470   17.8900 C   0  0  0  0  0  2  0  0  0  0  0  0
  -30.4540  -26.3090   18.1730 O   0  0  0  0  0  0  0  0  0  0  0  0
  -28.0980  -29.7590   23.9570 C   0  0  0  0  0  0  0  0  0  0  0  0
  -29.4940  -27.1700   18.6910 C   0  0  0  0  0  0  0  0  0  0  0  0
  -26.5090  -29.5980   22.0720 C   0  0  0  0  0  3  0  0  0  0  0  0
  -27.4980  -28.8240   19.8510 C   0  0  0  0  0  0  0  0  0  0  0  0
  -29.0350  -29.6210   21.6490 C   0  0  0  0  0  2  0  0  0  0  0  0
  -28.7800  -28.7810   20.4120 C   0  0  0  0  0  0  0  0  0  0  0  0
  -29.7820  -27.9630   19.8310 C   0  0  0  0  0  3  0  0  0  0  0  0
  -28.1990  -27.2680   18.1240 C   0  0  0  0  0  3  0  0  0  0  0  0
  -27.2050  -28.0730   18.7030 C   0  0  0  0  0  3  0  0  0  0  0  0
  -26.4730  -29.7080   20.5260 C   0  0  0  0  0  2  0  0  0  0  0  0
  -27.9060  -29.6400   22.6130 N   0  0  0  0  0  0  0  0  0  0  0  0
  -27.1410  -29.8720   24.7350 O   0  0  0  0  0  0  0  0  0  0  0  0
  -25.7250  -28.3350   22.5000 C   0  0  0  0  0  0  0  0  0  0  0  0
  -24.3990  -28.3540   22.2890 N   0  0  0  0  0  0  0  0  0  0  0  0
  -26.3100  -27.3620   22.9830 O   0  0  0  0  0  0  0  0  0  0  0  0
  -23.9930  -29.1910   21.8960 H   0  0  0  0  0  0  0  0  0  0  0  0
  -20.9750  -27.2650   21.8920 C   0  0  0  0  0  0  0  0  0  0  0  0
  -23.4670  -27.2640   22.5810 C   0  0  0  0  0  3  0  0  0  0  0  0
  -23.6390  -26.1030   21.5750 C   0  0  0  0  0  2  0  0  0  0  0  0
  -22.6960  -26.2010   20.3720 C   0  0  0  0  0  2  0  0  0  0  0  0
  -21.2360  -26.2070   20.8330 C   0  0  0  0  0  2  0  0  0  0  0  0
  -22.0260  -27.7720   22.7020 C   0  0  0  0  0  0  0  0  0  0  0  0
  -21.7350  -28.7790   23.6480 C   0  0  0  0  0  3  0  0  0  0  0  0
  -20.4260  -29.2760   23.7930 C   0  0  0  0  0  3  0  0  0  0  0  0
  -19.3880  -28.7590   23.0000 C   0  0  0  0  0  3  0  0  0  0  0  0
  -19.6620  -27.7540   22.0560 C   0  0  0  0  0  3  0  0  0  0  0  0
  -29.5300  -29.7860   24.5770 C   0  0  0  0  0  3  0  0  0  0  0  0
  -29.5560  -30.8560   25.5830 N   0  0  0  0  0  0  0  0  0  0  0  0
  -30.1970  -32.0240   25.4350 C   0  0  0  0  0  0  0  0  0  0  0  0
  -30.8960  -32.2830   24.4530 O   0  0  0  0  0  0  0  0  0  0  0  0
  -28.9580  -30.7350   26.3880 H   0  0  0  0  0  0  0  0  0  0  0  0
  -29.0620  -34.1660   26.1020 C   0  0  0  0  0  1  0  0  0  0  0  0
  -30.0360  -33.0680   26.5560 C   0  0  0  0  0  3  0  0  0  0  0  0
  -32.1980  -32.7510   27.6760 C   0  0  0  0  0  1  0  0  0  0  0  0
  -31.3150  -33.6810   26.9770 N   0  0  0  0  0  0  0  0  0  0  0  0
  -31.1490  -34.4790   27.5850 H   0  0  0  0  0  0  0  0  0  0  0  0
  -29.9550  -28.4080   25.2190 C   0  0  1  0  0  0  0  0  0  0  0  0
  -28.9170  -27.8390   26.2130 C   0  0  0  0  0  1  0  0  0  0  0  0
  -30.1890  -27.3440   24.1200 C   0  0  0  0  0  1  0  0  0  0  0  0
  -31.2970  -28.5710   25.9710 C   0  0  0  0  0  1  0  0  0  0  0  0
  2  1  1  0
  3  1  2  0
  4  2  2  0
  5  7  1  0
  6  9  1  0
  6 10  2  0
  7  3  1  0
  8  7  2  0
  8  4  1  0
  9  5  2  0
 10  8  1  0
 11  9  1  0
 11 20  1  0
 12 18  1  0
 13 18  1  0
 14 15  1  0
 14 13  1  0
 16 15  1  0
 16 25  1  0
 16 17  1  0
 18 17  1  0
 19 12  2  0
 20 12  1  0
 20 21  1  0
 22 23  2  0
 23 42  1  0
 24 23  1  0
 24 27  1  0
 25 26  1  0
 25 22  1  0
 26 24  2  0
 27 28  1  0
 28 29  2  0
 30 33  1  0
 30 29  1  0
 31 30  2  0
 32 31  1  0
 32 27  2  0
 33 34  1  0
 34 39  2  0
 34 35  1  0
 35 36  2  0
 36 37  1  0
 37 41  1  0
 38 37  2  0
 39 38  1  0
 40 39  1  0
 42 43  1  0
 43 46  1  0
 43 45  1  0
 44 42  2  0
 47 48  1  0
 47 22  1  0
 49 47  1  0
 50 10  1  0
 51 52  1  0
 51 50  1  0
 53 51  1  0
 54 51  1  0
 55 54  1  0
 55 56  1  0
 56 58  1  0
 57 68  2  0
 58 63  1  0
 59 69  1  0
 59 67  1  0
 60 62  1  0
 60 66  1  0
 61 67  1  0
 62 61  1  0
 63 62  2  0
 64 58  2  0
 64 65  1  0
 65 60  2  0
 66 59  1  0
 67 57  1  0
 69 71  2  0
 70 69  1  0
 72 70  1  0
 73 82  2  0
 73 78  1  0
 74 70  1  0
 74 78  1  0
 75 74  1  0
 76 77  1  0
 76 75  1  0
 77 73  1  0
 78 79  2  0
 79 80  1  0
 81 80  2  0
 82 81  1  0
 83 57  1  0
 83 93  1  0
 83 84  1  0
 84 87  1  0
 85 84  1  0
 85 89  1  0
 86 85  2  0
 89 88  1  0
 89 91  1  0
 91 92  1  0
 91 90  1  0
 93 96  1  1
 93 94  1  0
 95 93  1  0
M  ISO  4  12 100  20 100  55 101  56 101
M  END
>  <TORSDO>  (46) 
F 21

>  <SCORE>  (46) 
-1.801

>  <name>  (46) 
45

>  <ligand_id>  (46) 
45

>  <original_smiles>  (46) 
[H]c1c([H])c([H])c2c(c1[H])C([H])([H])C([H])([H])C([H])([H])C2([H])N([H])C(=O)C1([H])N(C(=O)C([H])(N([H])C(=O)C([H])(N([H])C([H])([H])[H])C([H])([H])[H])C(C([H])([H])[H])(C([H])([H])[H])C([H])([H])[H])C([H])([H])c2c([H])c(OC([H])([H])C([H])([H])[N+]([H])([H])C([H])([H])c3c([H])c(C([H])([H])N([H])C(=O)N4C([H])([H])C([H])([H])C([H])([H])C([H])(n5nc(-c6c([H])c([H])c(Oc7c([H])c([H])c(F)c([H])c7F)c([H])c6[H])c(C(=O)N([H])[H])c5N([H])[H])C4([H])[H])c([H])c4c([H])c([H])c([H])c([H])c34)c([H])c([H])c2C1([H])[H]

>  <smiles>  (46) 
[H]c1c([H])c([H])c2c(c1[H])C([H])([H])C([H])([H])C([H])([H])C2([H])N([H])C(=O)C1([H])N(C(=O)C([H])(N([H])C(=O)C([H])(N([H])C([H])([H])[H])C([H])([H])[H])C(C([H])([H])[H])(C([H])([H])[H])C([H])([H])[H])C([H])([H])c2c([H])c(OC([H])([H])C([H])([H])[N+]([H])([H])C([H])([H])c3c([H])c(C([H])([H])N([H])C(=O)N4C([H])([H])C([H])([H])C([H])([H])C([H])(n5nc(-c6c([H])c([H])c(Oc7c([H])c([H])c(F)c([H])c7F)c([H])c6[H])c(C(=O)N([H])[H])c5N([H])[H])C4([H])[H])c([H])c4c([H])c([H])c([H])c([H])c34)c([H])c([H])c2C1([H])[H]

$$$$
46:0:0
     RDKit          3D

105115  0  0  1  0  0  0  0  0999 V2000
  -36.2150  -20.8150   22.8180 C   0  0  0  0  0  2  0  0  0  0  0  0
  -35.9250  -21.6580   24.0580 C   0  0  0  0  0  2  0  0  0  0  0  0
  -35.0000  -21.0380   21.9120 C   0  0  0  0  0  2  0  0  0  0  0  0
  -33.9470  -20.3180   25.0090 C   0  0  0  0  0  2  0  0  0  0  0  0
  -32.6970  -20.3660   22.9570 C   0  0  0  0  0  3  0  0  0  0  0  0
  -34.4050  -21.5710   24.2400 C   0  0  0  0  0  3  0  0  0  0  0  0
  -33.8200  -21.4230   22.8290 C   0  0  0  0  0  3  0  0  0  0  0  0
  -33.0740  -19.5210   24.1120 N   0  0  1  0  0  4  0  0  0  0  0  0
  -32.2000  -19.3820   24.6020 H   0  0  0  0  0  0  0  0  0  0  0  0
  -31.3280  -21.0260   23.2200 C   0  0  0  0  0  0  0  0  0  0  0  0
  -30.8080  -21.7590   22.2270 N   0  0  0  0  0  0  0  0  0  0  0  0
  -30.7700  -20.8890   24.3110 O   0  0  0  0  0  0  0  0  0  0  0  0
  -31.3210  -21.7820   21.3550 H   0  0  0  0  0  0  0  0  0  0  0  0
  -29.6470  -22.6370   22.3220 C   0  0  0  0  0  2  0  0  0  0  0  0
  -29.4670  -23.3880   20.9900 C   0  0  0  0  0  2  0  0  0  0  0  0
  -28.6290  -24.6730   21.0970 C   0  0  0  0  0  2  0  0  0  0  0  0
  -28.6090  -25.4610   19.7750 C   0  0  0  0  0  2  0  0  0  0  0  0
  -28.4700  -26.8480   20.0540 O   0  0  0  0  0  0  0  0  0  0  0  0
  -24.6100  -31.8710   23.2120 C   0  0  0  0  0  0  0  0  0  0  0  0
  -27.2410  -27.4680   20.0850 C   0  0  0  0  0  0  0  0  0  0  0  0
  -23.3950  -30.4950   21.5490 C   0  0  0  0  0  3  0  0  0  0  0  0
  -24.8390  -28.9590   20.1190 C   0  0  0  0  0  0  0  0  0  0  0  0
  -25.9190  -30.8470   21.3570 C   0  0  0  0  0  2  0  0  0  0  0  0
  -25.9950  -29.4810   20.7090 C   0  0  0  0  0  0  0  0  0  0  0  0
  -27.1930  -28.7410   20.6880 C   0  0  0  0  0  3  0  0  0  0  0  0
  -26.0610  -26.9410   19.5090 C   0  0  0  0  0  3  0  0  0  0  0  0
  -24.8650  -27.6860   19.5220 C   0  0  0  0  0  3  0  0  0  0  0  0
  -23.6000  -29.8240   20.1650 C   0  0  0  0  0  2  0  0  0  0  0  0
  -24.6590  -31.0850   22.0990 N   0  0  0  0  0  0  0  0  0  0  0  0
  -23.5300  -32.1430   23.7550 O   0  0  0  0  0  0  0  0  0  0  0  0
  -22.7390  -29.4670   22.5000 C   0  0  0  0  0  0  0  0  0  0  0  0
  -21.4110  -29.3030   22.3750 N   0  0  0  0  0  0  0  0  0  0  0  0
  -23.4200  -28.8210   23.3010 O   0  0  0  0  0  0  0  0  0  0  0  0
  -20.9250  -29.8770   21.7010 H   0  0  0  0  0  0  0  0  0  0  0  0
  -18.0270  -28.1360   22.8490 C   0  0  0  0  0  0  0  0  0  0  0  0
  -20.5850  -28.3630   23.1330 C   0  0  0  0  0  3  0  0  0  0  0  0
  -20.6760  -26.9370   22.5420 C   0  0  0  0  0  2  0  0  0  0  0  0
  -19.5740  -26.6370   21.5210 C   0  0  0  0  0  2  0  0  0  0  0  0
  -18.1920  -26.7910   22.1610 C   0  0  0  0  0  2  0  0  0  0  0  0
  -19.1520  -28.8810   23.2910 C   0  0  0  0  0  0  0  0  0  0  0  0
  -18.9450  -30.1420   23.8910 C   0  0  0  0  0  3  0  0  0  0  0  0
  -17.6460  -30.6570   24.0570 C   0  0  0  0  0  3  0  0  0  0  0  0
  -16.5350  -29.9080   23.6330 C   0  0  0  0  0  3  0  0  0  0  0  0
  -16.7260  -28.6490   23.0350 C   0  0  0  0  0  3  0  0  0  0  0  0
  -25.9010  -32.4840   23.8400 C   0  0  0  0  0  3  0  0  0  0  0  0
  -25.5890  -33.8640   24.2340 N   0  0  0  0  0  0  0  0  0  0  0  0
  -25.9020  -34.9490   23.5140 C   0  0  0  0  0  0  0  0  0  0  0  0
  -26.5590  -34.8940   22.4700 O   0  0  0  0  0  0  0  0  0  0  0  0
  -25.0120  -33.9830   25.0530 H   0  0  0  0  0  0  0  0  0  0  0  0
  -24.1480  -36.7310   23.2640 C   0  0  0  0  0  1  0  0  0  0  0  0
  -25.4110  -36.3130   24.0350 C   0  0  0  0  0  3  0  0  0  0  0  0
  -27.5590  -37.1800   24.8470 C   0  0  0  0  0  1  0  0  0  0  0  0
  -26.4300  -37.3810   23.9420 N   0  0  0  0  0  0  0  0  0  0  0  0
  -26.0200  -38.2890   24.1450 H   0  0  0  0  0  0  0  0  0  0  0  0
  -26.4440  -31.6630   25.0720 C   0  0  1  0  0  0  0  0  0  0  0  0
  -25.3720  -31.3760   26.1490 C   0  0  0  0  0  1  0  0  0  0  0  0
  -27.0260  -30.3080   24.6050 C   0  0  0  0  0  1  0  0  0  0  0  0
  -27.6030  -32.4340   25.7470 C   0  0  0  0  0  1  0  0  0  0  0  0
  -33.6060  -18.1780   23.7590 C   0  0  0  0  0  2  0  0  0  0  0  0
  -31.8720  -16.6620   22.6920 C   0  0  0  0  0  3  0  0  0  0  0  0
  -30.5340  -15.1110   24.0170 C   0  0  0  0  0  3  0  0  0  0  0  0
  -32.5290  -17.1040   23.8670 C   0  0  0  0  0  0  0  0  0  0  0  0
  -32.1920  -16.5260   25.1220 C   0  0  0  0  0  0  0  0  0  0  0  0
  -30.8900  -15.6500   22.7660 C   0  0  0  0  0  0  0  0  0  0  0  0
  -31.1870  -15.5360   25.1850 C   0  0  0  0  0  0  0  0  0  0  0  0
  -32.9010  -16.9370   26.4060 C   0  0  0  0  0  1  0  0  0  0  0  0
  -30.8480  -14.9750   26.3700 F   0  0  0  0  0  0  0  0  0  0  0  0
  -30.7560  -14.3790   20.7010 C   0  0  0  0  0  0  0  0  0  0  0  0
  -30.4320  -12.3110   19.3870 C   0  0  0  0  0  2  0  0  0  0  0  0
  -29.4840  -12.5110   18.1900 C   0  0  0  0  0  2  0  0  0  0  0  0
  -28.0120  -12.3590   18.6170 C   0  0  0  0  0  2  0  0  0  0  0  0
  -27.6660  -13.1940   19.8770 C   0  0  0  0  0  3  0  0  0  0  0  0
  -28.7050  -12.9350   20.9880 C   0  0  0  0  0  2  0  0  0  0  0  0
  -30.0410  -13.2540   20.4420 N   0  0  0  0  0  0  0  0  0  0  0  0
  -31.8070  -14.6720   20.1210 O   0  0  0  0  0  0  0  0  0  0  0  0
  -30.2030  -15.1710   21.6280 N   0  0  0  0  0  0  0  0  0  0  0  0
  -29.2620  -14.8680   21.8250 H   0  0  0  0  0  0  0  0  0  0  0  0
  -25.2620  -13.8130   20.5670 C   0  0  0  0  0  0  0  0  0  0  0  0
  -24.1850  -13.0430   20.9170 C   0  0  0  0  0  0  0  0  0  0  0  0
  -24.6390  -11.6890   20.8750 C   0  0  0  0  0  0  0  0  0  0  0  0
  -26.3040  -12.9270   20.3370 N   0  0  0  0  0  0  0  0  0  0  0  0
  -25.9310  -11.6450   20.5780 N   0  0  0  0  0  0  0  0  0  0  0  0
  -23.9050  -10.4280   21.0420 C   0  0  0  0  0  0  0  0  0  0  0  0
  -24.3600   -9.4200   21.9200 C   0  0  0  0  0  3  0  0  0  0  0  0
  -23.6280   -8.2240   22.0760 C   0  0  0  0  0  3  0  0  0  0  0  0
  -22.4270   -8.0280   21.3550 C   0  0  0  0  0  0  0  0  0  0  0  0
  -21.9890   -9.0260   20.4660 C   0  0  0  0  0  3  0  0  0  0  0  0
  -22.7220  -10.2140   20.3070 C   0  0  0  0  0  3  0  0  0  0  0  0
  -21.6630   -6.8870   21.4240 O   0  0  0  0  0  0  0  0  0  0  0  0
  -21.6850   -6.0730   22.5280 C   0  0  0  0  0  0  0  0  0  0  0  0
  -21.4010   -6.5640   23.8210 C   0  0  0  0  0  3  0  0  0  0  0  0
  -21.3660   -5.6790   24.9180 C   0  0  0  0  0  3  0  0  0  0  0  0
  -21.6040   -4.3060   24.7230 C   0  0  0  0  0  0  0  0  0  0  0  0
  -21.8820   -3.8150   23.4350 C   0  0  0  0  0  3  0  0  0  0  0  0
  -21.9190   -4.6960   22.3400 C   0  0  0  0  0  0  0  0  0  0  0  0
  -22.1660   -4.2140   21.0980 F   0  0  0  0  0  0  0  0  0  0  0  0
  -21.5630   -3.4540   25.7740 F   0  0  0  0  0  0  0  0  0  0  0  0
  -22.7880  -13.5250   21.1830 C   0  0  0  0  0  0  0  0  0  0  0  0
  -22.0510  -12.8280   22.0390 N   0  0  0  0  0  0  0  0  0  0  0  0
  -22.3590  -14.5570   20.6670 O   0  0  0  0  0  0  0  0  0  0  0  0
  -22.4120  -11.9950   22.4810 H   0  0  0  0  0  0  0  0  0  0  0  0
  -21.1130  -13.1330   22.2580 H   0  0  0  0  0  0  0  0  0  0  0  0
  -25.4380  -15.1840   20.4070 N   0  0  0  0  0  0  0  0  0  0  0  0
  -24.6750  -15.8430   20.5190 H   0  0  0  0  0  0  0  0  0  0  0  0
  -26.2950  -15.6200   20.0880 H   0  0  0  0  0  0  0  0  0  0  0  0
  1  2  1  0
  3  1  1  0
  5 10  1  0
  5  8  1  0
  6  2  1  0
  6  4  1  0
  7  3  1  0
  7  5  1  0
  7  6  1  0
  8  9  1  1
  8  4  1  0
 10 12  2  0
 11 14  1  0
 11 10  1  0
 13 11  1  0
 15 16  1  0
 15 14  1  0
 17 18  1  0
 17 16  1  0
 18 20  1  0
 19 30  2  0
 20 25  1  0
 21 29  1  0
 21 31  1  0
 22 28  1  0
 22 24  1  0
 23 29  1  0
 24 23  1  0
 25 24  2  0
 26 27  1  0
 26 20  2  0
 27 22  2  0
 28 21  1  0
 29 19  1  0
 31 33  2  0
 32 31  1  0
 34 32  1  0
 35 44  2  0
 35 40  1  0
 36 32  1  0
 36 40  1  0
 37 36  1  0
 38 39  1  0
 38 37  1  0
 39 35  1  0
 40 41  2  0
 41 42  1  0
 43 42  2  0
 44 43  1  0
 45 19  1  0
 45 46  1  0
 45 55  1  0
 46 49  1  0
 47 51  1  0
 47 46  1  0
 48 47  2  0
 51 50  1  0
 53 51  1  0
 53 54  1  0
 53 52  1  0
 55 58  1  1
 55 56  1  0
 57 55  1  0
 59 62  1  0
 59  8  1  0
 60 64  2  0
 60 62  1  0
 61 65  2  0
 62 63  2  0
 63 65  1  0
 63 66  1  0
 64 61  1  0
 65 67  1  0
 68 76  1  0
 69 74  1  0
 70 71  1  0
 70 69  1  0
 72 71  1  0
 72 81  1  0
 72 73  1  0
 74 68  1  0
 74 73  1  0
 75 68  2  0
 76 77  1  0
 76 64  1  0
 78 79  2  0
 79 98  1  0
 80 79  1  0
 80 83  1  0
 81 78  1  0
 81 82  1  0
 82 80  2  0
 83 84  1  0
 84 85  2  0
 86 89  1  0
 86 85  1  0
 87 86  2  0
 88 87  1  0
 88 83  2  0
 89 90  1  0
 90 91  1  0
 91 92  2  0
 93 92  1  0
 93 97  1  0
 94 93  2  0
 95 90  2  0
 95 94  1  0
 96 95  1  0
 98 99  1  0
 99102  1  0
 99101  1  0
100 98  2  0
103104  1  0
103 78  1  0
105103  1  0
M  ISO  4  17 101  18 101  68 100  76 100
M  END
>  <TORSDO>  (47) 
F 23

>  <SCORE>  (47) 
41.273

>  <name>  (47) 
46

>  <ligand_id>  (47) 
46

>  <original_smiles>  (47) 
[H]c1c([H])c([H])c2c(c1[H])C([H])([H])C([H])([H])C([H])([H])C2([H])N([H])C(=O)C1([H])N(C(=O)C([H])(N([H])C(=O)C([H])(N([H])C([H])([H])[H])C([H])([H])[H])C(C([H])([H])[H])(C([H])([H])[H])C([H])([H])[H])C([H])([H])c2c([H])c(OC([H])([H])C([H])([H])C([H])([H])C([H])([H])N([H])C(=O)C3([H])C4([H])C([H])([H])C([H])([H])C([H])([H])C4([H])C([H])([H])[N+]3([H])C([H])([H])c3c([H])c(N([H])C(=O)N4C([H])([H])C([H])([H])C([H])([H])C([H])(n5nc(-c6c([H])c([H])c(Oc7c([H])c([H])c(F)c([H])c7F)c([H])c6[H])c(C(=O)N([H])[H])c5N([H])[H])C4([H])[H])c([H])c(F)c3C([H])([H])[H])c([H])c([H])c2C1([H])[H]

>  <smiles>  (47) 
[H]c1c([H])c([H])c2c(c1[H])C([H])([H])C([H])([H])C([H])([H])C2([H])N([H])C(=O)C1([H])N(C(=O)C([H])(N([H])C(=O)C([H])(N([H])C([H])([H])[H])C([H])([H])[H])C(C([H])([H])[H])(C([H])([H])[H])C([H])([H])[H])C([H])([H])c2c([H])c(OC([H])([H])C([H])([H])C([H])([H])C([H])([H])N([H])C(=O)C3([H])C4([H])C([H])([H])C([H])([H])C([H])([H])C4([H])C([H])([H])[N+]3([H])C([H])([H])c3c([H])c(N([H])C(=O)N4C([H])([H])C([H])([H])C([H])([H])C([H])(n5nc(-c6c([H])c([H])c(Oc7c([H])c([H])c(F)c([H])c7F)c([H])c6[H])c(C(=O)N([H])[H])c5N([H])[H])C4([H])[H])c([H])c(F)c3C([H])([H])[H])c([H])c([H])c2C1([H])[H]

$$$$
47:0:0
     RDKit          3D

 98106  0  0  1  0  0  0  0  0999 V2000
  -29.9760  -20.7450   21.4960 C   0  0  0  0  0  3  0  0  0  0  0  0
  -31.2680  -19.5930   19.6080 C   0  0  0  0  0  3  0  0  0  0  0  0
  -31.5970  -18.4490   18.8660 C   0  0  0  0  0  3  0  0  0  0  0  0
  -30.2260  -18.1720   21.2840 C   0  0  0  0  0  3  0  0  0  0  0  0
  -30.5070  -19.4800   20.7880 C   0  0  0  0  0  0  0  0  0  0  0  0
  -31.2020  -17.1590   19.2820 C   0  0  0  0  0  0  0  0  0  0  0  0
  -30.5980  -16.9940   20.5710 C   0  0  0  0  0  0  0  0  0  0  0  0
  -31.0280  -14.5890   21.0930 C   0  0  0  0  0  0  0  0  0  0  0  0
  -30.8420  -12.3100   20.1670 C   0  0  0  0  0  2  0  0  0  0  0  0
  -30.0640  -12.3810   18.8380 C   0  0  0  0  0  2  0  0  0  0  0  0
  -28.5380  -12.3550   19.0760 C   0  0  0  0  0  2  0  0  0  0  0  0
  -28.0640  -13.2810   20.2310 C   0  0  0  0  0  3  0  0  0  0  0  0
  -28.9800  -13.1660   21.4690 C   0  0  0  0  0  2  0  0  0  0  0  0
  -30.3610  -13.4020   21.0310 N   0  0  0  0  0  0  0  0  0  0  0  0
  -32.2440  -14.6760   20.9240 O   0  0  0  0  0  0  0  0  0  0  0  0
  -30.2580  -15.7030   21.1290 N   0  0  0  0  0  0  0  0  0  0  0  0
  -29.2990  -15.5750   21.4110 H   0  0  0  0  0  0  0  0  0  0  0  0
  -25.6180  -13.9490   20.6700 C   0  0  0  0  0  0  0  0  0  0  0  0
  -24.5020  -13.2060   20.9390 C   0  0  0  0  0  0  0  0  0  0  0  0
  -24.9350  -11.8460   20.9980 C   0  0  0  0  0  0  0  0  0  0  0  0
  -26.6630  -13.0430   20.5740 N   0  0  0  0  0  0  0  0  0  0  0  0
  -26.2500  -11.7760   20.8360 N   0  0  0  0  0  0  0  0  0  0  0  0
  -24.1660  -10.6040   21.1450 C   0  0  0  0  0  0  0  0  0  0  0  0
  -24.5130   -9.6360   22.1130 C   0  0  0  0  0  3  0  0  0  0  0  0
  -23.7520   -8.4550   22.2490 C   0  0  0  0  0  3  0  0  0  0  0  0
  -22.6290   -8.2350   21.4160 C   0  0  0  0  0  0  0  0  0  0  0  0
  -22.2990   -9.1930   20.4410 C   0  0  0  0  0  3  0  0  0  0  0  0
  -23.0600  -10.3660   20.3030 C   0  0  0  0  0  3  0  0  0  0  0  0
  -21.8460   -7.1060   21.4590 O   0  0  0  0  0  0  0  0  0  0  0  0
  -21.7240   -6.3570   22.6000 C   0  0  0  0  0  0  0  0  0  0  0  0
  -21.2520   -6.9110   23.8100 C   0  0  0  0  0  3  0  0  0  0  0  0
  -21.0750   -6.0870   24.9390 C   0  0  0  0  0  3  0  0  0  0  0  0
  -21.3590   -4.7110   24.8590 C   0  0  0  0  0  0  0  0  0  0  0  0
  -21.8230   -4.1550   23.6530 C   0  0  0  0  0  3  0  0  0  0  0  0
  -22.0020   -4.9760   22.5250 C   0  0  0  0  0  0  0  0  0  0  0  0
  -22.4280   -4.4320   21.3610 F   0  0  0  0  0  0  0  0  0  0  0  0
  -21.1820   -3.9180   25.9420 F   0  0  0  0  0  0  0  0  0  0  0  0
  -23.0940  -13.7150   21.0410 C   0  0  0  0  0  0  0  0  0  0  0  0
  -22.2670  -13.0710   21.8570 N   0  0  0  0  0  0  0  0  0  0  0  0
  -22.7340  -14.7210   20.4340 O   0  0  0  0  0  0  0  0  0  0  0  0
  -22.5710  -12.2580   22.3720 H   0  0  0  0  0  0  0  0  0  0  0  0
  -21.3170  -13.3980   21.9690 H   0  0  0  0  0  0  0  0  0  0  0  0
  -25.8270  -15.3100   20.4760 N   0  0  0  0  0  0  0  0  0  0  0  0
  -25.0610  -15.9750   20.4830 H   0  0  0  0  0  0  0  0  0  0  0  0
  -26.7050  -15.7240   20.1910 H   0  0  0  0  0  0  0  0  0  0  0  0
  -31.3170  -16.0370   18.2460 C   0  0  1  0  0  0  0  0  0  0  0  0
  -31.4990  -16.5170   17.0140 F   0  0  0  0  0  0  0  0  0  0  0  0
  -32.3280  -15.2060   18.4900 F   0  0  0  0  0  0  0  0  0  0  0  0
  -30.1660  -15.3700   18.2190 F   0  0  0  0  0  0  0  0  0  0  0  0
  -30.8010  -21.0890   22.5970 O   0  0  0  0  0  0  0  0  0  0  0  0
  -31.7020  -21.1070   22.2890 H   0  0  0  0  0  0  0  0  0  0  0  0
  -29.7920  -22.0140   20.5900 C   0  0  0  0  0  2  0  0  0  0  0  0
  -29.2260  -23.1810   21.3240 N   0  0  0  0  0  4  0  0  0  0  0  0
  -28.2470  -23.0250   21.5100 H   0  0  0  0  0  0  0  0  0  0  0  0
  -29.6870  -23.1640   22.2220 H   0  0  0  0  0  0  0  0  0  0  0  0
  -29.4370  -24.5450   20.7270 C   0  0  0  0  0  2  0  0  0  0  0  0
  -28.1630  -25.2090   20.1340 C   0  0  0  0  0  2  0  0  0  0  0  0
  -28.3300  -26.6260   19.8750 O   0  0  0  0  0  0  0  0  0  0  0  0
  -24.5210  -31.7190   23.0720 C   0  0  0  0  0  0  0  0  0  0  0  0
  -27.1660  -27.3800   19.8500 C   0  0  0  0  0  0  0  0  0  0  0  0
  -23.3080  -30.3550   21.4030 C   0  0  0  0  0  3  0  0  0  0  0  0
  -24.7610  -28.8810   19.9100 C   0  0  0  0  0  0  0  0  0  0  0  0
  -25.8280  -30.7460   21.1840 C   0  0  0  0  0  2  0  0  0  0  0  0
  -25.9220  -29.3970   20.4980 C   0  0  0  0  0  0  0  0  0  0  0  0
  -27.1290  -28.6600   20.4560 C   0  0  0  0  0  3  0  0  0  0  0  0
  -25.9880  -26.8900   19.2420 C   0  0  0  0  0  3  0  0  0  0  0  0
  -24.7910  -27.6300   19.2710 C   0  0  0  0  0  3  0  0  0  0  0  0
  -23.5050  -29.7190   20.0010 C   0  0  0  0  0  2  0  0  0  0  0  0
  -24.5710  -30.9540   21.9450 N   0  0  0  0  0  0  0  0  0  0  0  0
  -23.4440  -31.9640   23.6350 O   0  0  0  0  0  0  0  0  0  0  0  0
  -22.6780  -29.3010   22.3410 C   0  0  0  0  0  0  0  0  0  0  0  0
  -21.3480  -29.1330   22.2460 N   0  0  0  0  0  0  0  0  0  0  0  0
  -23.3800  -28.6370   23.1070 O   0  0  0  0  0  0  0  0  0  0  0  0
  -20.8420  -29.7180   21.5970 H   0  0  0  0  0  0  0  0  0  0  0  0
  -17.9760  -27.9660   22.8180 C   0  0  0  0  0  0  0  0  0  0  0  0
  -20.5460  -28.1700   23.0020 C   0  0  0  0  0  3  0  0  0  0  0  0
  -20.6040  -26.7690   22.3520 C   0  0  0  0  0  2  0  0  0  0  0  0
  -19.4580  -26.5140   21.3670 C   0  0  0  0  0  2  0  0  0  0  0  0
  -18.1040  -26.6490   22.0700 C   0  0  0  0  0  2  0  0  0  0  0  0
  -19.1230  -28.6880   23.2410 C   0  0  0  0  0  0  0  0  0  0  0  0
  -18.9480  -29.9240   23.9010 C   0  0  0  0  0  3  0  0  0  0  0  0
  -17.6610  -30.4370   24.1420 C   0  0  0  0  0  3  0  0  0  0  0  0
  -16.5280  -29.7100   23.7360 C   0  0  0  0  0  3  0  0  0  0  0  0
  -16.6870  -28.4760   23.0780 C   0  0  0  0  0  3  0  0  0  0  0  0
  -25.8100  -32.3420   23.6960 C   0  0  0  0  0  3  0  0  0  0  0  0
  -25.4920  -33.7230   24.0780 N   0  0  0  0  0  0  0  0  0  0  0  0
  -25.8070  -34.8050   23.3530 C   0  0  0  0  0  0  0  0  0  0  0  0
  -26.4680  -34.7430   22.3110 O   0  0  0  0  0  0  0  0  0  0  0  0
  -24.9070  -33.8450   24.8910 H   0  0  0  0  0  0  0  0  0  0  0  0
  -24.0530  -36.5850   23.0840 C   0  0  0  0  0  1  0  0  0  0  0  0
  -25.3110  -36.1710   23.8630 C   0  0  0  0  0  3  0  0  0  0  0  0
  -27.4470  -37.0530   24.6930 C   0  0  0  0  0  1  0  0  0  0  0  0
  -26.3300  -37.2390   23.7710 N   0  0  0  0  0  0  0  0  0  0  0  0
  -25.9150  -38.1490   23.9540 H   0  0  0  0  0  0  0  0  0  0  0  0
  -26.3550  -31.5330   24.9360 C   0  0  1  0  0  0  0  0  0  0  0  0
  -25.2830  -31.2600   26.0170 C   0  0  0  0  0  1  0  0  0  0  0  0
  -26.9340  -30.1690   24.4880 C   0  0  0  0  0  1  0  0  0  0  0  0
  -27.5160  -32.3100   25.6010 C   0  0  0  0  0  1  0  0  0  0  0  0
  1 52  1  0
  1 50  1  0
  2  5  1  0
  3  6  1  0
  3  2  2  0
  5  4  2  0
  5  1  1  0
  6  7  2  0
  7 16  1  0
  7  4  1  0
  8 16  1  0
  9 14  1  0
 10 11  1  0
 10  9  1  0
 12 11  1  0
 12 21  1  0
 12 13  1  0
 14  8  1  0
 14 13  1  0
 15  8  2  0
 16 17  1  0
 18 19  2  0
 19 20  1  0
 19 38  1  0
 20 23  1  0
 21 18  1  0
 21 22  1  0
 22 20  2  0
 23 24  1  0
 24 25  2  0
 26 29  1  0
 26 25  1  0
 27 26  2  0
 28 27  1  0
 28 23  2  0
 29 30  1  0
 30 31  1  0
 31 32  2  0
 33 32  1  0
 33 37  1  0
 34 33  2  0
 35 30  2  0
 35 34  1  0
 36 35  1  0
 38 39  1  0
 39 42  1  0
 39 41  1  0
 40 38  2  0
 43 44  1  0
 43 18  1  0
 45 43  1  0
 46 48  1  1
 46  6  1  0
 47 46  1  0
 49 46  1  0
 51 50  1  0
 52 53  1  0
 53 54  1  0
 53 55  1  0
 56 53  1  0
 57 56  1  0
 58 57  1  0
 59 70  2  0
 60 58  1  0
 60 65  1  0
 61 69  1  0
 61 71  1  0
 62 68  1  0
 62 64  1  0
 63 69  1  0
 64 63  1  0
 65 64  2  0
 66 67  1  0
 66 60  2  0
 67 62  2  0
 68 61  1  0
 69 59  1  0
 71 73  2  0
 72 71  1  0
 74 72  1  0
 75 84  2  0
 75 80  1  0
 76 72  1  0
 76 80  1  0
 77 76  1  0
 78 79  1  0
 78 77  1  0
 79 75  1  0
 80 81  2  0
 81 82  1  0
 83 82  2  0
 84 83  1  0
 85 59  1  0
 85 86  1  0
 85 95  1  0
 86 89  1  0
 87 91  1  0
 87 86  1  0
 88 87  2  0
 91 90  1  0
 93 91  1  0
 93 94  1  0
 93 92  1  0
 95 98  1  1
 95 96  1  0
 97 95  1  0
M  ISO  4   8 100  16 100  57 101  58 101
M  END
>  <TORSDO>  (48) 
F 23

>  <SCORE>  (48) 
-12.338

>  <name>  (48) 
47

>  <ligand_id>  (48) 
47

>  <original_smiles>  (48) 
[H]OC([H])(c1c([H])c([H])c(C(F)(F)F)c(N([H])C(=O)N2C([H])([H])C([H])([H])C([H])([H])C([H])(n3nc(-c4c([H])c([H])c(Oc5c([H])c([H])c(F)c([H])c5F)c([H])c4[H])c(C(=O)N([H])[H])c3N([H])[H])C2([H])[H])c1[H])C([H])([H])[N+]([H])([H])C([H])([H])C([H])([H])Oc1c([H])c([H])c2c(c1[H])C([H])([H])N(C(=O)C([H])(N([H])C(=O)C([H])(N([H])C([H])([H])[H])C([H])([H])[H])C(C([H])([H])[H])(C([H])([H])[H])C([H])([H])[H])C([H])(C(=O)N([H])C1([H])c3c([H])c([H])c([H])c([H])c3C([H])([H])C([H])([H])C1([H])[H])C2([H])[H]

>  <smiles>  (48) 
[H]OC([H])(c1c([H])c([H])c(C(F)(F)F)c(N([H])C(=O)N2C([H])([H])C([H])([H])C([H])([H])C([H])(n3nc(-c4c([H])c([H])c(Oc5c([H])c([H])c(F)c([H])c5F)c([H])c4[H])c(C(=O)N([H])[H])c3N([H])[H])C2([H])[H])c1[H])C([H])([H])[N+]([H])([H])C([H])([H])C([H])([H])Oc1c([H])c([H])c2c(c1[H])C([H])([H])N(C(=O)C([H])(N([H])C(=O)C([H])(N([H])C([H])([H])[H])C([H])([H])[H])C(C([H])([H])[H])(C([H])([H])[H])C([H])([H])[H])C([H])(C(=O)N([H])C1([H])c3c([H])c([H])c([H])c([H])c3C([H])([H])C([H])([H])C1([H])[H])C2([H])[H]

$$$$
48:0:0
     RDKit          3D

 97106  0  0  1  0  0  0  0  0999 V2000
  -29.5800  -18.0380   21.7780 C   0  0  0  0  0  3  0  0  0  0  0  0
  -29.7560  -16.6840   21.4400 C   0  0  0  0  0  3  0  0  0  0  0  0
  -31.9360  -17.2050   20.4660 C   0  0  0  0  0  3  0  0  0  0  0  0
  -30.5820  -18.9860   21.4740 C   0  0  0  0  0  0  0  0  0  0  0  0
  -31.7600  -18.5610   20.8130 C   0  0  0  0  0  0  0  0  0  0  0  0
  -30.9310  -16.2690   20.7830 C   0  0  0  0  0  0  0  0  0  0  0  0
  -30.4080  -20.4280   21.8750 C   0  0  0  0  0  0  0  0  0  0  0  0
  -32.1980  -20.9580   20.2330 C   0  0  0  0  0  2  0  0  0  0  0  0
  -32.8380  -19.5800   20.4990 C   0  0  0  0  0  3  0  0  0  0  0  0
  -33.8760  -19.6430   21.6310 C   0  0  0  0  0  1  0  0  0  0  0  0
  -31.1760  -21.3360   21.2260 N   0  0  0  0  0  0  0  0  0  0  0  0
  -29.5530  -20.7380   22.7110 O   0  0  0  0  0  0  0  0  0  0  0  0
  -31.1760  -14.2920   19.3920 C   0  0  0  0  0  0  0  0  0  0  0  0
  -30.6640  -12.0910   18.3920 C   0  0  0  0  0  2  0  0  0  0  0  0
  -29.5290  -12.1400   17.3550 C   0  0  0  0  0  2  0  0  0  0  0  0
  -28.1530  -12.0350   18.0350 C   0  0  0  0  0  2  0  0  0  0  0  0
  -27.9980  -13.0360   19.2060 C   0  0  0  0  0  3  0  0  0  0  0  0
  -29.2080  -12.9410   20.1590 C   0  0  0  0  0  2  0  0  0  0  0  0
  -30.4500  -13.1490   19.3840 N   0  0  0  0  0  0  0  0  0  0  0  0
  -31.9530  -14.6310   18.4910 O   0  0  0  0  0  0  0  0  0  0  0  0
  -31.1480  -14.8930   20.5840 N   0  0  0  0  0  0  0  0  0  0  0  0
  -30.6720  -14.3110   21.2570 H   0  0  0  0  0  0  0  0  0  0  0  0
  -25.8580  -13.7700   20.4450 C   0  0  0  0  0  0  0  0  0  0  0  0
  -24.8040  -13.0560   20.9480 C   0  0  0  0  0  0  0  0  0  0  0  0
  -25.0970  -11.6820   20.6870 C   0  0  0  0  0  0  0  0  0  0  0  0
  -26.7370  -12.8340   19.9190 N   0  0  0  0  0  0  0  0  0  0  0  0
  -26.2900  -11.5670   20.1170 N   0  0  0  0  0  0  0  0  0  0  0  0
  -24.2880  -10.4740   20.8940 C   0  0  0  0  0  0  0  0  0  0  0  0
  -24.7130   -9.4420   21.7590 C   0  0  0  0  0  3  0  0  0  0  0  0
  -23.9100   -8.2970   21.9550 C   0  0  0  0  0  3  0  0  0  0  0  0
  -22.6670   -8.1800   21.2880 C   0  0  0  0  0  0  0  0  0  0  0  0
  -22.2600   -9.2000   20.4110 C   0  0  0  0  0  3  0  0  0  0  0  0
  -23.0640  -10.3360   20.2110 C   0  0  0  0  0  3  0  0  0  0  0  0
  -21.8320   -7.0940   21.3970 O   0  0  0  0  0  0  0  0  0  0  0  0
  -21.7160   -6.3910   22.5700 C   0  0  0  0  0  0  0  0  0  0  0  0
  -21.2790   -7.0030   23.7660 C   0  0  0  0  0  3  0  0  0  0  0  0
  -21.1080   -6.2280   24.9310 C   0  0  0  0  0  3  0  0  0  0  0  0
  -21.3630   -4.8440   24.9010 C   0  0  0  0  0  0  0  0  0  0  0  0
  -21.7930   -4.2330   23.7090 C   0  0  0  0  0  3  0  0  0  0  0  0
  -21.9660   -5.0050   22.5470 C   0  0  0  0  0  0  0  0  0  0  0  0
  -22.3600   -4.4070   21.3970 F   0  0  0  0  0  0  0  0  0  0  0  0
  -21.1910   -4.0990   26.0170 F   0  0  0  0  0  0  0  0  0  0  0  0
  -23.5460  -13.6170   21.5490 C   0  0  0  0  0  0  0  0  0  0  0  0
  -22.9450  -12.9000   22.4940 N   0  0  0  0  0  0  0  0  0  0  0  0
  -23.1150  -14.7200   21.2170 O   0  0  0  0  0  0  0  0  0  0  0  0
  -23.3100  -12.0040   22.7800 H   0  0  0  0  0  0  0  0  0  0  0  0
  -22.1100  -13.2550   22.9360 H   0  0  0  0  0  0  0  0  0  0  0  0
  -26.1340  -15.1320   20.3750 N   0  0  0  0  0  0  0  0  0  0  0  0
  -25.4760  -15.8330   20.6960 H   0  0  0  0  0  0  0  0  0  0  0  0
  -26.9400  -15.5300   19.9090 H   0  0  0  0  0  0  0  0  0  0  0  0
  -30.9220  -22.7780   21.3450 C   0  0  0  0  0  2  0  0  0  0  0  0
  -30.0690  -23.2530   20.1570 C   0  0  0  0  0  2  0  0  0  0  0  0
  -29.9740  -24.7740   20.0030 C   0  0  0  0  0  2  0  0  0  0  0  0
  -29.4340  -25.1130   18.6090 C   0  0  0  0  0  2  0  0  0  0  0  0
  -29.5680  -26.5840   18.1940 C   0  0  0  0  0  2  0  0  0  0  0  0
  -29.0890  -26.7780   16.7480 C   0  0  0  0  0  2  0  0  0  0  0  0
  -27.6900  -26.5150   16.6580 O   0  0  0  0  0  0  0  0  0  0  0  0
  -25.6480  -28.5460   23.2170 C   0  0  0  0  0  0  0  0  0  0  0  0
  -26.8090  -27.1580   17.4980 C   0  0  0  0  0  0  0  0  0  0  0  0
  -24.0100  -28.9130   21.3950 C   0  0  0  0  0  3  0  0  0  0  0  0
  -24.8980  -28.5700   19.0300 C   0  0  0  0  0  0  0  0  0  0  0  0
  -26.5160  -28.8920   20.9110 C   0  0  0  0  0  2  0  0  0  0  0  0
  -26.1810  -28.3440   19.5420 C   0  0  0  0  0  0  0  0  0  0  0  0
  -27.1340  -27.6300   18.7910 C   0  0  0  0  0  3  0  0  0  0  0  0
  -25.5080  -27.3830   17.0010 C   0  0  0  0  0  3  0  0  0  0  0  0
  -24.5490  -28.0820   17.7590 C   0  0  0  0  0  3  0  0  0  0  0  0
  -23.9470  -29.3540   19.9060 C   0  0  0  0  0  2  0  0  0  0  0  0
  -25.4160  -28.7480   21.8890 N   0  0  0  0  0  0  0  0  0  0  0  0
  -24.7180  -28.5430   24.0350 O   0  0  0  0  0  0  0  0  0  0  0  0
  -23.1480  -27.6440   21.5680 C   0  0  0  0  0  0  0  0  0  0  0  0
  -21.8210  -27.8020   21.4340 N   0  0  0  0  0  0  0  0  0  0  0  0
  -23.6710  -26.5480   21.7890 O   0  0  0  0  0  0  0  0  0  0  0  0
  -21.4730  -28.7350   21.2610 H   0  0  0  0  0  0  0  0  0  0  0  0
  -18.3100  -27.0910   20.9910 C   0  0  0  0  0  0  0  0  0  0  0  0
  -20.8180  -26.7430   21.5140 C   0  0  0  0  0  3  0  0  0  0  0  0
  -20.8510  -25.8470   20.2550 C   0  0  0  0  0  2  0  0  0  0  0  0
  -19.8740  -26.2990   19.1660 C   0  0  0  0  0  2  0  0  0  0  0  0
  -18.4390  -26.3000   19.7010 C   0  0  0  0  0  2  0  0  0  0  0  0
  -19.4310  -27.3120   21.8350 C   0  0  0  0  0  0  0  0  0  0  0  0
  -19.2650  -28.0800   23.0070 C   0  0  0  0  0  3  0  0  0  0  0  0
  -18.0100  -28.6230   23.3410 C   0  0  0  0  0  3  0  0  0  0  0  0
  -16.9000  -28.3890   22.5100 C   0  0  0  0  0  3  0  0  0  0  0  0
  -17.0500  -27.6200   21.3420 C   0  0  0  0  0  3  0  0  0  0  0  0
  -27.0920  -28.3330   23.7730 C   0  0  0  0  0  3  0  0  0  0  0  0
  -27.1800  -29.0500   25.0520 N   0  0  0  0  0  0  0  0  0  0  0  0
  -27.8260  -30.2110   25.2290 C   0  0  0  0  0  0  0  0  0  0  0  0
  -28.4770  -30.7590   24.3350 O   0  0  0  0  0  0  0  0  0  0  0  0
  -26.6200  -28.6910   25.8120 H   0  0  0  0  0  0  0  0  0  0  0  0
  -26.7020  -32.0050   26.5850 C   0  0  0  0  0  1  0  0  0  0  0  0
  -27.7350  -30.8690   26.6190 C   0  0  0  0  0  3  0  0  0  0  0  0
  -29.9910  -30.3380   27.4310 C   0  0  0  0  0  1  0  0  0  0  0  0
  -29.0300  -31.3900   27.1090 N   0  0  0  0  0  0  0  0  0  0  0  0
  -28.8970  -31.9620   27.9380 H   0  0  0  0  0  0  0  0  0  0  0  0
  -27.4710  -26.8120   23.9530 C   0  0  1  0  0  0  0  0  0  0  0  0
  -26.4100  -25.9950   24.7250 C   0  0  0  0  0  1  0  0  0  0  0  0
  -27.6770  -26.1400   22.5750 C   0  0  0  0  0  1  0  0  0  0  0  0
  -28.8140  -26.6920   24.7100 C   0  0  0  0  0  1  0  0  0  0  0  0
  2  1  2  0
  3  6  2  0
  3  5  1  0
  4  1  1  0
  4  7  1  0
  5  4  2  0
  6  2  1  0
  7 12  2  0
  8  9  1  0
  8 11  1  0
  9  5  1  0
  9 10  1  0
 11 51  1  0
 11  7  1  0
 13 21  1  0
 14 19  1  0
 15 16  1  0
 15 14  1  0
 17 16  1  0
 17 26  1  0
 17 18  1  0
 19 13  1  0
 19 18  1  0
 20 13  2  0
 21  6  1  0
 21 22  1  0
 23 24  2  0
 24 43  1  0
 25 28  1  0
 25 24  1  0
 26 27  1  0
 26 23  1  0
 27 25  2  0
 28 29  1  0
 29 30  2  0
 31 34  1  0
 31 30  1  0
 32 31  2  0
 33 32  1  0
 33 28  2  0
 34 35  1  0
 35 36  1  0
 36 37  2  0
 38 37  1  0
 38 42  1  0
 39 38  2  0
 40 35  2  0
 40 39  1  0
 41 40  1  0
 43 44  1  0
 44 46  1  0
 44 47  1  0
 45 43  2  0
 48 23  1  0
 48 49  1  0
 50 48  1  0
 52 51  1  0
 53 52  1  0
 54 53  1  0
 55 54  1  0
 56 55  1  0
 57 56  1  0
 57 59  1  0
 58 69  2  0
 59 64  1  0
 60 70  1  0
 60 68  1  0
 61 63  1  0
 61 67  1  0
 62 68  1  0
 63 62  1  0
 64 63  2  0
 65 59  2  0
 65 66  1  0
 66 61  2  0
 67 60  1  0
 68 58  1  0
 70 72  2  0
 71 70  1  0
 73 71  1  0
 74 83  2  0
 74 79  1  0
 75 71  1  0
 75 79  1  0
 76 75  1  0
 77 78  1  0
 77 76  1  0
 78 74  1  0
 79 80  2  0
 80 81  1  0
 82 81  2  0
 83 82  1  0
 84 58  1  0
 84 94  1  0
 84 85  1  0
 85 86  1  0
 85 88  1  0
 86 90  1  0
 87 86  2  0
 90 89  1  0
 90 92  1  0
 92 91  1  0
 92 93  1  0
 94 97  1  1
 94 95  1  0
 96 94  1  0
M  ISO  4  13 100  21 100  56 101  57 101
M  END
>  <TORSDO>  (49) 
F 22

>  <SCORE>  (49) 
-9.128

>  <name>  (49) 
48

>  <ligand_id>  (49) 
48

>  <original_smiles>  (49) 
[H]c1c([H])c([H])c2c(c1[H])C([H])([H])C([H])([H])C([H])([H])C2([H])N([H])C(=O)C1([H])N(C(=O)C([H])(N([H])C(=O)C([H])(N([H])C([H])([H])[H])C([H])([H])[H])C(C([H])([H])[H])(C([H])([H])[H])C([H])([H])[H])C([H])([H])c2c([H])c(OC([H])([H])C([H])([H])C([H])([H])C([H])([H])C([H])([H])C([H])([H])N3C(=O)c4c([H])c([H])c(N([H])C(=O)N5C([H])([H])C([H])([H])C([H])([H])C([H])(n6nc(-c7c([H])c([H])c(Oc8c([H])c([H])c(F)c([H])c8F)c([H])c7[H])c(C(=O)N([H])[H])c6N([H])[H])C5([H])[H])c([H])c4C([H])(C([H])([H])[H])C3([H])[H])c([H])c([H])c2C1([H])[H]

>  <smiles>  (49) 
[H]c1c([H])c([H])c2c(c1[H])C([H])([H])C([H])([H])C([H])([H])C2([H])N([H])C(=O)C1([H])N(C(=O)C([H])(N([H])C(=O)C([H])(N([H])C([H])([H])[H])C([H])([H])[H])C(C([H])([H])[H])(C([H])([H])[H])C([H])([H])[H])C([H])([H])c2c([H])c(OC([H])([H])C([H])([H])C([H])([H])C([H])([H])C([H])([H])C([H])([H])N3C(=O)c4c([H])c([H])c(N([H])C(=O)N5C([H])([H])C([H])([H])C([H])([H])C([H])(n6nc(-c7c([H])c([H])c(Oc8c([H])c([H])c(F)c([H])c8F)c([H])c7[H])c(C(=O)N([H])[H])c6N([H])[H])C5([H])[H])c([H])c4C([H])(C([H])([H])[H])C3([H])[H])c([H])c([H])c2C1([H])[H]

$$$$
49:0:0
     RDKit          3D

100110  0  0  1  0  0  0  0  0999 V2000
  -31.6370  -21.4960   18.1390 C   0  0  0  0  0  2  0  0  0  0  0  0
  -30.6000  -20.3860   17.9480 C   0  0  0  0  0  2  0  0  0  0  0  0
  -29.9580  -20.7890   20.3710 C   0  0  0  0  0  2  0  0  0  0  0  0
  -30.9950  -22.8880   18.2670 C   0  0  0  0  0  2  0  0  0  0  0  0
  -29.4020  -22.2050   20.0890 C   0  0  0  0  0  2  0  0  0  0  0  0
  -30.0280  -19.9030   19.2030 N   0  0  0  0  0  0  0  0  0  0  0  0
  -30.3960  -23.2040   19.5960 N   0  0  2  0  0  4  0  0  0  0  0  0
  -31.1490  -23.2120   20.2670 H   0  0  0  0  0  0  0  0  0  0  0  0
  -26.6760  -17.3780   18.5350 C   0  0  0  0  0  3  0  0  0  0  0  0
  -26.6240  -18.7380   18.1970 C   0  0  0  0  0  3  0  0  0  0  0  0
  -27.8490  -16.8510   19.1000 C   0  0  0  0  0  3  0  0  0  0  0  0
  -27.7420  -19.5580   18.4260 C   0  0  0  0  0  3  0  0  0  0  0  0
  -28.9740  -17.6650   19.3700 C   0  0  0  0  0  0  0  0  0  0  0  0
  -28.9230  -19.0470   19.0170 C   0  0  0  0  0  0  0  0  0  0  0  0
  -30.2200  -16.9880   19.9590 C   0  0  0  0  0  3  0  0  0  0  0  0
  -30.6250  -14.7950   21.1270 C   0  0  0  0  0  0  0  0  0  0  0  0
  -30.4290  -12.7380   19.8660 C   0  0  0  0  0  2  0  0  0  0  0  0
  -29.5200  -13.0650   18.6620 C   0  0  0  0  0  2  0  0  0  0  0  0
  -28.0350  -12.8670   19.0270 C   0  0  0  0  0  2  0  0  0  0  0  0
  -27.6300  -13.5200   20.3780 C   0  0  0  0  0  3  0  0  0  0  0  0
  -28.6740  -13.2450   21.4850 C   0  0  0  0  0  2  0  0  0  0  0  0
  -30.0060  -13.6010   20.9720 N   0  0  0  0  0  0  0  0  0  0  0  0
  -31.8450  -14.9430   21.0970 O   0  0  0  0  0  0  0  0  0  0  0  0
  -29.8300  -15.8200   20.7790 N   0  0  0  0  0  0  0  0  0  0  0  0
  -28.8430  -15.6240   20.8030 H   0  0  0  0  0  0  0  0  0  0  0  0
  -25.1820  -13.9460   21.0430 C   0  0  0  0  0  0  0  0  0  0  0  0
  -24.1420  -13.0910   21.2870 C   0  0  0  0  0  0  0  0  0  0  0  0
  -24.6730  -11.7730   21.1470 C   0  0  0  0  0  0  0  0  0  0  0  0
  -26.2800  -13.1400   20.7780 N   0  0  0  0  0  0  0  0  0  0  0  0
  -25.9760  -11.8240   20.8990 N   0  0  0  0  0  0  0  0  0  0  0  0
  -24.0080  -10.4650   21.1780 C   0  0  0  0  0  0  0  0  0  0  0  0
  -24.4530   -9.4310   22.0310 C   0  0  0  0  0  3  0  0  0  0  0  0
  -23.7870   -8.1880   22.0560 C   0  0  0  0  0  3  0  0  0  0  0  0
  -22.6610   -7.9700   21.2260 C   0  0  0  0  0  0  0  0  0  0  0  0
  -22.2370   -8.9940   20.3620 C   0  0  0  0  0  3  0  0  0  0  0  0
  -22.9050  -10.2300   20.3340 C   0  0  0  0  0  3  0  0  0  0  0  0
  -21.9670   -6.7850   21.1670 O   0  0  0  0  0  0  0  0  0  0  0  0
  -21.8850   -5.9440   22.2460 C   0  0  0  0  0  0  0  0  0  0  0  0
  -21.3540   -6.3690   23.4840 C   0  0  0  0  0  3  0  0  0  0  0  0
  -21.2250   -5.4520   24.5460 C   0  0  0  0  0  3  0  0  0  0  0  0
  -21.6150   -4.1110   24.3710 C   0  0  0  0  0  0  0  0  0  0  0  0
  -22.1380   -3.6850   23.1390 C   0  0  0  0  0  3  0  0  0  0  0  0
  -22.2700   -4.5980   22.0780 C   0  0  0  0  0  0  0  0  0  0  0  0
  -22.7550   -4.1780   20.8850 F   0  0  0  0  0  0  0  0  0  0  0  0
  -21.4830   -3.2280   25.3890 F   0  0  0  0  0  0  0  0  0  0  0  0
  -22.7110  -13.4710   21.5390 C   0  0  0  0  0  0  0  0  0  0  0  0
  -21.9910  -12.6680   22.3130 N   0  0  0  0  0  0  0  0  0  0  0  0
  -22.2380  -14.5140   21.0880 O   0  0  0  0  0  0  0  0  0  0  0  0
  -22.3840  -11.8240   22.7020 H   0  0  0  0  0  0  0  0  0  0  0  0
  -21.0300  -12.9010   22.5220 H   0  0  0  0  0  0  0  0  0  0  0  0
  -25.2790  -15.3340   21.0000 N   0  0  0  0  0  0  0  0  0  0  0  0
  -24.4670  -15.9290   21.1260 H   0  0  0  0  0  0  0  0  0  0  0  0
  -26.1010  -15.8520   20.7180 H   0  0  0  0  0  0  0  0  0  0  0  0
  -31.3980  -17.5230   17.5750 C   0  0  0  0  0  2  0  0  0  0  0  0
  -32.4710  -17.4700   18.6340 C   0  0  0  0  0  2  0  0  0  0  0  0
  -31.2030  -16.6630   18.8100 C   0  0  0  0  0  3  0  0  0  0  0  0
  -29.7740  -24.5630   19.6250 C   0  0  0  0  0  2  0  0  0  0  0  0
  -30.7380  -25.7540   19.4230 C   0  0  0  0  0  2  0  0  0  0  0  0
  -29.9960  -27.0960   19.4110 C   0  0  0  0  0  2  0  0  0  0  0  0
  -29.3310  -27.2740   20.6550 O   0  0  0  0  0  0  0  0  0  0  0  0
  -24.8850  -31.9330   23.6360 C   0  0  0  0  0  0  0  0  0  0  0  0
  -28.1150  -27.9040   20.5790 C   0  0  0  0  0  0  0  0  0  0  0  0
  -23.9360  -30.5620   21.8050 C   0  0  0  0  0  3  0  0  0  0  0  0
  -25.6210  -29.2110   20.4490 C   0  0  0  0  0  0  0  0  0  0  0  0
  -26.4340  -31.0980   21.8770 C   0  0  0  0  0  2  0  0  0  0  0  0
  -26.6730  -29.7760   21.1800 C   0  0  0  0  0  0  0  0  0  0  0  0
  -27.9200  -29.1220   21.2580 C   0  0  0  0  0  3  0  0  0  0  0  0
  -27.0480  -27.3300   19.8570 C   0  0  0  0  0  3  0  0  0  0  0  0
  -25.7990  -27.9810   19.7890 C   0  0  0  0  0  3  0  0  0  0  0  0
  -24.3210  -29.9800   20.4170 C   0  0  0  0  0  2  0  0  0  0  0  0
  -25.0960  -31.2100   22.5010 N   0  0  0  0  0  0  0  0  0  0  0  0
  -23.7420  -32.1030   24.0830 O   0  0  0  0  0  0  0  0  0  0  0  0
  -23.2690  -29.4440   22.6390 C   0  0  0  0  0  0  0  0  0  0  0  0
  -21.9700  -29.2120   22.3940 N   0  0  0  0  0  0  0  0  0  0  0  0
  -23.9210  -28.7940   23.4590 O   0  0  0  0  0  0  0  0  0  0  0  0
  -21.5060  -29.7940   21.7130 H   0  0  0  0  0  0  0  0  0  0  0  0
  -18.6260  -27.8560   22.5570 C   0  0  0  0  0  0  0  0  0  0  0  0
  -21.1460  -28.1850   23.0310 C   0  0  0  0  0  3  0  0  0  0  0  0
  -21.3490  -26.8100   22.3540 C   0  0  0  0  0  2  0  0  0  0  0  0
  -20.3340  -26.5290   21.2410 C   0  0  0  0  0  2  0  0  0  0  0  0
  -18.9060  -26.5720   21.7940 C   0  0  0  0  0  2  0  0  0  0  0  0
  -19.6790  -28.6220   23.1240 C   0  0  0  0  0  0  0  0  0  0  0  0
  -19.3680  -29.8250   23.7920 C   0  0  0  0  0  3  0  0  0  0  0  0
  -18.0360  -30.2650   23.9000 C   0  0  0  0  0  3  0  0  0  0  0  0
  -16.9960  -29.4940   23.3520 C   0  0  0  0  0  3  0  0  0  0  0  0
  -17.2920  -28.2920   22.6860 C   0  0  0  0  0  3  0  0  0  0  0  0
  -26.0630  -32.6010   24.4120 C   0  0  0  0  0  3  0  0  0  0  0  0
  -25.6540  -33.9730   24.7400 N   0  0  0  0  0  0  0  0  0  0  0  0
  -26.0130  -35.0590   24.0430 C   0  0  0  0  0  0  0  0  0  0  0  0
  -26.7920  -35.0150   23.0870 O   0  0  0  0  0  0  0  0  0  0  0  0
  -24.9720  -34.0770   25.4770 H   0  0  0  0  0  0  0  0  0  0  0  0
  -24.2410  -36.7730   23.5500 C   0  0  0  0  0  1  0  0  0  0  0  0
  -25.4110  -36.4090   24.4760 C   0  0  0  0  0  3  0  0  0  0  0  0
  -27.4040  -37.3740   25.5380 C   0  0  0  0  0  1  0  0  0  0  0  0
  -26.3950  -37.5130   24.4910 N   0  0  0  0  0  0  0  0  0  0  0  0
  -25.9300  -38.4080   24.6180 H   0  0  0  0  0  0  0  0  0  0  0  0
  -26.4760  -31.8130   25.7160 C   0  0  1  0  0  0  0  0  0  0  0  0
  -25.2850  -31.4880   26.6480 C   0  0  0  0  0  1  0  0  0  0  0  0
  -27.1660  -30.4780   25.3500 C   0  0  0  0  0  1  0  0  0  0  0  0
  -27.5050  -32.6380   26.5230 C   0  0  0  0  0  1  0  0  0  0  0  0
  1  4  1  0
  2  1  1  0
  2  6  1  0
  4  7  1  0
  5  3  1  0
  6  3  1  0
  7 57  1  0
  7  5  1  0
  7  8  1  1
  9 11  1  0
 10 12  1  0
 10  9  2  0
 11 13  2  0
 12 14  2  0
 13 15  1  0
 14  6  1  0
 14 13  1  0
 15 24  1  0
 17 22  1  0
 18 19  1  0
 18 17  1  0
 20 19  1  0
 20 29  1  0
 20 21  1  0
 22 16  1  0
 22 21  1  0
 23 16  2  0
 24 25  1  0
 24 16  1  0
 26 27  2  0
 27 46  1  0
 28 31  1  0
 28 27  1  0
 29 30  1  0
 29 26  1  0
 30 28  2  0
 31 32  1  0
 32 33  2  0
 34 33  1  0
 35 34  2  0
 36 35  1  0
 36 31  2  0
 37 34  1  0
 37 38  1  0
 38 39  1  0
 39 40  2  0
 41 40  1  0
 41 45  1  0
 42 41  2  0
 43 38  2  0
 43 42  1  0
 44 43  1  0
 46 47  1  0
 47 50  1  0
 47 49  1  0
 48 46  2  0
 51 26  1  0
 51 52  1  0
 53 51  1  0
 54 55  1  0
 54 56  1  0
 55 56  1  0
 56 15  1  0
 58 57  1  0
 59 58  1  0
 59 60  1  0
 61 72  2  0
 62 60  1  0
 62 67  1  0
 63 71  1  0
 63 73  1  0
 64 66  1  0
 65 71  1  0
 66 67  2  0
 66 65  1  0
 68 62  2  0
 69 68  1  0
 69 64  2  0
 70 64  1  0
 70 63  1  0
 71 61  1  0
 73 75  2  0
 74 73  1  0
 76 74  1  0
 77 86  2  0
 77 82  1  0
 78 74  1  0
 78 82  1  0
 79 78  1  0
 80 81  1  0
 80 79  1  0
 81 77  1  0
 82 83  2  0
 83 84  1  0
 85 84  2  0
 86 85  1  0
 87 61  1  0
 87 88  1  0
 87 97  1  0
 88 91  1  0
 89 93  1  0
 89 88  1  0
 90 89  2  0
 93 92  1  0
 93 95  1  0
 95 96  1  0
 95 94  1  0
 97100  1  1
 97 98  1  0
 99 97  1  0
M  ISO  4  16 100  24 100  59 101  60 101
M  END
>  <TORSDO>  (50) 
F 22

>  <SCORE>  (50) 
-10.861

>  <name>  (50) 
49

>  <ligand_id>  (50) 
49

>  <original_smiles>  (50) 
[H]c1c([H])c([H])c(C([H])(N([H])C(=O)N2C([H])([H])C([H])([H])C([H])([H])C([H])(n3nc(-c4c([H])c([H])c(Oc5c([H])c([H])c(F)c([H])c5F)c([H])c4[H])c(C(=O)N([H])[H])c3N([H])[H])C2([H])[H])C2([H])C([H])([H])C2([H])[H])c(N2C([H])([H])C([H])([H])C([H])([H])[N+]([H])(C([H])([H])C([H])([H])C([H])([H])Oc3c([H])c([H])c4c(c3[H])C([H])([H])N(C(=O)C([H])(N([H])C(=O)C([H])(N([H])C([H])([H])[H])C([H])([H])[H])C(C([H])([H])[H])(C([H])([H])[H])C([H])([H])[H])C([H])(C(=O)N([H])C3([H])c5c([H])c([H])c([H])c([H])c5C([H])([H])C([H])([H])C3([H])[H])C4([H])[H])C([H])([H])C2([H])[H])c1[H]

>  <smiles>  (50) 
[H]c1c([H])c([H])c(C([H])(N([H])C(=O)N2C([H])([H])C([H])([H])C([H])([H])C([H])(n3nc(-c4c([H])c([H])c(Oc5c([H])c([H])c(F)c([H])c5F)c([H])c4[H])c(C(=O)N([H])[H])c3N([H])[H])C2([H])[H])C2([H])C([H])([H])C2([H])[H])c(N2C([H])([H])C([H])([H])C([H])([H])[N+]([H])(C([H])([H])C([H])([H])C([H])([H])Oc3c([H])c([H])c4c(c3[H])C([H])([H])N(C(=O)C([H])(N([H])C(=O)C([H])(N([H])C([H])([H])[H])C([H])([H])[H])C(C([H])([H])[H])(C([H])([H])[H])C([H])([H])[H])C([H])(C(=O)N([H])C3([H])c5c([H])c([H])c([H])c([H])c5C([H])([H])C([H])([H])C3([H])[H])C4([H])[H])C([H])([H])C2([H])[H])c1[H]

$$$$
50:0:0
     RDKit          3D

102112  0  0  1  0  0  0  0  0999 V2000
  -25.3710  -23.9470   23.0390 C   0  0  0  0  0  2  0  0  0  0  0  0
  -25.0970  -25.3100   22.4110 C   0  0  0  0  0  2  0  0  0  0  0  0
  -26.3960  -23.3210   22.0860 C   0  0  0  0  0  2  0  0  0  0  0  0
  -26.4490  -25.7100   21.7930 C   0  0  0  0  0  3  0  0  0  0  0  0
  -27.0730  -24.4340   21.3670 N   0  0  2  0  0  4  0  0  0  0  0  0
  -28.0140  -24.5170   21.7350 H   0  0  0  0  0  0  0  0  0  0  0  0
  -27.4030  -26.3930   22.7970 C   0  0  0  0  0  0  0  0  0  0  0  0
  -27.0820  -27.5990   23.2890 N   0  0  0  0  0  0  0  0  0  0  0  0
  -28.4460  -25.8130   23.1120 O   0  0  0  0  0  0  0  0  0  0  0  0
  -26.2160  -28.0250   22.9820 H   0  0  0  0  0  0  0  0  0  0  0  0
  -27.9460  -28.3930   24.1690 C   0  0  0  0  0  2  0  0  0  0  0  0
  -27.1950  -29.4780   24.9620 C   0  0  0  0  0  2  0  0  0  0  0  0
  -27.4170  -29.3200   26.3660 O   0  0  0  0  0  0  0  0  0  0  0  0
  -26.0520  -30.8500   33.1540 C   0  0  0  0  0  0  0  0  0  0  0  0
  -26.4180  -29.5480   27.2890 C   0  0  0  0  0  0  0  0  0  0  0  0
  -24.0830  -30.2330   31.7870 C   0  0  0  0  0  3  0  0  0  0  0  0
  -24.4770  -30.1060   29.2720 C   0  0  0  0  0  0  0  0  0  0  0  0
  -26.1390  -31.3070   30.7050 C   0  0  0  0  0  2  0  0  0  0  0  0
  -25.7950  -30.5430   29.4430 C   0  0  0  0  0  0  0  0  0  0  0  0
  -26.7650  -30.2660   28.4560 C   0  0  0  0  0  3  0  0  0  0  0  0
  -25.0860  -29.0940   27.1440 C   0  0  0  0  0  3  0  0  0  0  0  0
  -24.1190  -29.3760   28.1260 C   0  0  0  0  0  3  0  0  0  0  0  0
  -23.4940  -30.4470   30.3690 C   0  0  0  0  0  2  0  0  0  0  0  0
  -25.4720  -30.7830   31.9220 N   0  0  0  0  0  0  0  0  0  0  0  0
  -25.4370  -30.5020   34.1720 O   0  0  0  0  0  0  0  0  0  0  0  0
  -23.9840  -28.7310   32.1390 C   0  0  0  0  0  0  0  0  0  0  0  0
  -23.0800  -28.3940   33.0730 N   0  0  0  0  0  0  0  0  0  0  0  0
  -24.6890  -27.8990   31.5620 O   0  0  0  0  0  0  0  0  0  0  0  0
  -22.5490  -29.1360   33.5060 H   0  0  0  0  0  0  0  0  0  0  0  0
  -21.6420  -26.4980   35.7900 C   0  0  0  0  0  0  0  0  0  0  0  0
  -22.7860  -27.0400   33.5370 C   0  0  0  0  0  3  0  0  0  0  0  0
  -21.5050  -26.4870   32.8700 C   0  0  0  0  0  2  0  0  0  0  0  0
  -20.2390  -26.7350   33.6970 C   0  0  0  0  0  2  0  0  0  0  0  0
  -20.3650  -26.0870   35.0780 C   0  0  0  0  0  2  0  0  0  0  0  0
  -22.7740  -26.9600   35.0680 C   0  0  0  0  0  0  0  0  0  0  0  0
  -23.9230  -27.3660   35.7800 C   0  0  0  0  0  3  0  0  0  0  0  0
  -23.9550  -27.3120   37.1860 C   0  0  0  0  0  3  0  0  0  0  0  0
  -22.8380  -26.8370   37.8960 C   0  0  0  0  0  3  0  0  0  0  0  0
  -21.6890  -26.4280   37.1980 C   0  0  0  0  0  3  0  0  0  0  0  0
  -27.5050  -31.3890   33.3460 C   0  0  0  0  0  3  0  0  0  0  0  0
  -27.5280  -32.1620   34.5940 N   0  0  0  0  0  0  0  0  0  0  0  0
  -27.3280  -33.4840   34.6710 C   0  0  0  0  0  0  0  0  0  0  0  0
  -27.1770  -34.1990   33.6760 O   0  0  0  0  0  0  0  0  0  0  0  0
  -27.5910  -31.6350   35.4530 H   0  0  0  0  0  0  0  0  0  0  0  0
  -25.8280  -34.3000   36.5180 C   0  0  0  0  0  1  0  0  0  0  0  0
  -27.2900  -34.1150   36.0770 C   0  0  0  0  0  3  0  0  0  0  0  0
  -29.4510  -35.2790   36.0170 C   0  0  0  0  0  1  0  0  0  0  0  0
  -28.0030  -35.4080   36.1630 N   0  0  0  0  0  0  0  0  0  0  0  0
  -27.8140  -35.8640   37.0500 H   0  0  0  0  0  0  0  0  0  0  0  0
  -28.5920  -30.2460   33.3770 C   0  0  1  0  0  0  0  0  0  0  0  0
  -28.2960  -29.1330   34.4090 C   0  0  0  0  0  1  0  0  0  0  0  0
  -28.7230  -29.5790   31.9870 C   0  0  0  0  0  1  0  0  0  0  0  0
  -29.9780  -30.8500   33.7090 C   0  0  0  0  0  1  0  0  0  0  0  0
  -27.1650  -24.1940   19.9030 C   0  0  0  0  0  2  0  0  0  0  0  0
  -33.2850  -25.1410   18.9270 C   0  0  0  0  0  3  0  0  0  0  0  0
  -32.1260  -24.7690   19.6320 C   0  0  0  0  0  3  0  0  0  0  0  0
  -29.4450  -25.7120   17.2140 C   0  0  0  0  0  3  0  0  0  0  0  0
  -28.3000  -25.3240   17.9370 C   0  0  0  0  0  3  0  0  0  0  0  0
  -33.1790  -25.6940   17.6390 C   0  0  0  0  0  3  0  0  0  0  0  0
  -29.7060  -24.5490   19.7630 C   0  0  0  0  0  3  0  0  0  0  0  0
  -30.8550  -24.9550   19.0510 C   0  0  0  0  0  0  0  0  0  0  0  0
  -30.7390  -25.5280   17.7570 C   0  0  0  0  0  0  0  0  0  0  0  0
  -28.4180  -24.7250   19.2090 C   0  0  0  0  0  0  0  0  0  0  0  0
  -31.9120  -25.9000   17.0400 C   0  0  0  0  0  0  0  0  0  0  0  0
  -32.5650  -27.2810   15.0510 C   0  0  0  0  0  0  0  0  0  0  0  0
  -32.7450  -28.6540   13.0060 C   0  0  0  0  0  2  0  0  0  0  0  0
  -31.8980  -29.9330   13.1400 C   0  0  0  0  0  2  0  0  0  0  0  0
  -30.4440  -29.6700   12.6980 C   0  0  0  0  0  2  0  0  0  0  0  0
  -29.8430  -28.4050   13.3670 C   0  0  0  0  0  3  0  0  0  0  0  0
  -30.8080  -27.2070   13.2380 C   0  0  0  0  0  2  0  0  0  0  0  0
  -32.1100  -27.6020   13.8110 N   0  0  0  0  0  0  0  0  0  0  0  0
  -33.5900  -27.7690   15.5350 O   0  0  0  0  0  0  0  0  0  0  0  0
  -31.7890  -26.4050   15.7130 N   0  0  0  0  0  0  0  0  0  0  0  0
  -30.9440  -26.1510   15.2250 H   0  0  0  0  0  0  0  0  0  0  0  0
  -27.3170  -27.9250   13.4950 C   0  0  0  0  0  0  0  0  0  0  0  0
  -26.3790  -27.7090   12.5220 C   0  0  0  0  0  0  0  0  0  0  0  0
  -27.0790  -27.7600   11.2780 C   0  0  0  0  0  0  0  0  0  0  0  0
  -28.5210  -28.0910   12.8290 N   0  0  0  0  0  0  0  0  0  0  0  0
  -28.3770  -27.9370   11.4890 N   0  0  0  0  0  0  0  0  0  0  0  0
  -26.5830  -27.7070    9.8960 C   0  0  0  0  0  0  0  0  0  0  0  0
  -27.1120  -26.7920    8.9600 C   0  0  0  0  0  3  0  0  0  0  0  0
  -26.6080  -26.7460    7.6410 C   0  0  0  0  0  3  0  0  0  0  0  0
  -25.5640  -27.6180    7.2500 C   0  0  0  0  0  0  0  0  0  0  0  0
  -25.0550  -28.5420    8.1810 C   0  0  0  0  0  3  0  0  0  0  0  0
  -25.5600  -28.5880    9.4910 C   0  0  0  0  0  3  0  0  0  0  0  0
  -25.0320  -27.6650    5.9840 O   0  0  0  0  0  0  0  0  0  0  0  0
  -25.0630  -26.5770    5.1500 C   0  0  0  0  0  0  0  0  0  0  0  0
  -24.5030  -25.3350    5.5240 C   0  0  0  0  0  3  0  0  0  0  0  0
  -24.4930  -24.2620    4.6100 C   0  0  0  0  0  3  0  0  0  0  0  0
  -25.0360  -24.4310    3.3220 C   0  0  0  0  0  0  0  0  0  0  0  0
  -25.5890  -25.6680    2.9450 C   0  0  0  0  0  3  0  0  0  0  0  0
  -25.6010  -26.7380    3.8570 C   0  0  0  0  0  0  0  0  0  0  0  0
  -26.1170  -27.9340    3.4820 F   0  0  0  0  0  0  0  0  0  0  0  0
  -25.0190  -23.4040    2.4410 F   0  0  0  0  0  0  0  0  0  0  0  0
  -24.8980  -27.5610   12.7240 C   0  0  0  0  0  0  0  0  0  0  0  0
  -24.2330  -26.7980   11.8640 N   0  0  0  0  0  0  0  0  0  0  0  0
  -24.3280  -28.0870   13.6810 O   0  0  0  0  0  0  0  0  0  0  0  0
  -24.7000  -26.3500   11.0900 H   0  0  0  0  0  0  0  0  0  0  0  0
  -23.2390  -26.6580   11.9850 H   0  0  0  0  0  0  0  0  0  0  0  0
  -27.2510  -28.0080   14.8820 N   0  0  0  0  0  0  0  0  0  0  0  0
  -26.3790  -27.9180   15.3890 H   0  0  0  0  0  0  0  0  0  0  0  0
  -28.0340  -28.2450   15.4780 H   0  0  0  0  0  0  0  0  0  0  0  0
  2  1  1  0
  3  1  1  0
  4  2  1  0
  4  7  1  0
  5  6  1  1
  5  4  1  0
  5  3  1  0
  7  9  2  0
  7  8  1  0
  8 11  1  0
 10  8  1  0
 11 12  1  0
 12 13  1  0
 13 15  1  0
 14 25  2  0
 15 20  1  0
 16 24  1  0
 16 26  1  0
 17 19  1  0
 17 23  1  0
 18 24  1  0
 19 18  1  0
 20 19  2  0
 21 15  2  0
 21 22  1  0
 22 17  2  0
 23 16  1  0
 24 14  1  0
 26 27  1  0
 27 29  1  0
 28 26  2  0
 30 39  1  0
 31 27  1  0
 31 35  1  0
 32 31  1  0
 32 33  1  0
 33 34  1  0
 34 30  1  0
 35 36  1  0
 35 30  2  0
 36 37  2  0
 37 38  1  0
 39 38  2  0
 40 14  1  0
 40 50  1  0
 40 41  1  0
 41 42  1  0
 41 44  1  0
 42 46  1  0
 43 42  2  0
 46 48  1  0
 46 45  1  0
 47 48  1  0
 48 49  1  0
 50 53  1  1
 50 51  1  0
 52 50  1  0
 54  5  1  0
 55 56  1  0
 57 62  1  0
 57 58  2  0
 58 63  1  0
 59 55  2  0
 61 56  2  0
 61 60  1  0
 62 61  1  0
 63 60  2  0
 63 54  1  0
 64 59  1  0
 64 62  2  0
 65 72  2  0
 65 73  1  0
 66 67  1  0
 66 71  1  0
 68 67  1  0
 69 68  1  0
 70 69  1  0
 70 71  1  0
 71 65  1  0
 73 64  1  0
 74 73  1  0
 75100  1  0
 76 95  1  0
 76 75  2  0
 77 79  2  0
 77 76  1  0
 78 69  1  0
 78 75  1  0
 79 78  1  0
 80 77  1  0
 81 80  2  0
 82 81  1  0
 83 82  2  0
 83 84  1  0
 84 85  2  0
 85 80  1  0
 86 83  1  0
 87 88  1  0
 87 86  1  0
 89 88  2  0
 90 89  1  0
 91 90  2  0
 91 92  1  0
 92 87  2  0
 93 92  1  0
 94 90  1  0
 95 97  2  0
 96 99  1  0
 96 95  1  0
 98 96  1  0
100101  1  0
100102  1  0
M  ISO  4  12 101  13 101  65 100  73 100
M  END
>  <TORSDO>  (51) 
F 21

>  <SCORE>  (51) 
0.256

>  <name>  (51) 
50

>  <ligand_id>  (51) 
50

>  <original_smiles>  (51) 
[H]c1c([H])c([H])c2c(c1[H])C([H])([H])C([H])([H])C([H])([H])C2([H])N([H])C(=O)C1([H])N(C(=O)C([H])(N([H])C(=O)C([H])(N([H])C([H])([H])[H])C([H])([H])[H])C(C([H])([H])[H])(C([H])([H])[H])C([H])([H])[H])C([H])([H])c2c([H])c(OC([H])([H])C([H])([H])N([H])C(=O)C3([H])C([H])([H])C([H])([H])C([H])([H])[N+]3([H])C([H])([H])c3c([H])c([H])c4c(N([H])C(=O)N5C([H])([H])C([H])([H])C([H])([H])C([H])(n6nc(-c7c([H])c([H])c(Oc8c([H])c([H])c(F)c([H])c8F)c([H])c7[H])c(C(=O)N([H])[H])c6N([H])[H])C5([H])[H])c([H])c([H])c([H])c4c3[H])c([H])c([H])c2C1([H])[H]

>  <smiles>  (51) 
[H]c1c([H])c([H])c2c(c1[H])C([H])([H])C([H])([H])C([H])([H])C2([H])N([H])C(=O)C1([H])N(C(=O)C([H])(N([H])C(=O)C([H])(N([H])C([H])([H])[H])C([H])([H])[H])C(C([H])([H])[H])(C([H])([H])[H])C([H])([H])[H])C([H])([H])c2c([H])c(OC([H])([H])C([H])([H])N([H])C(=O)C3([H])C([H])([H])C([H])([H])C([H])([H])[N+]3([H])C([H])([H])c3c([H])c([H])c4c(N([H])C(=O)N5C([H])([H])C([H])([H])C([H])([H])C([H])(n6nc(-c7c([H])c([H])c(Oc8c([H])c([H])c(F)c([H])c8F)c([H])c7[H])c(C(=O)N([H])[H])c6N([H])[H])C5([H])[H])c([H])c([H])c([H])c4c3[H])c([H])c([H])c2C1([H])[H]

$$$$
51:0:0
     RDKit          3D

 93102  0  0  1  0  0  0  0  0999 V2000
  -30.6780  -19.6550   19.5720 C   0  0  0  0  0  3  0  0  0  0  0  0
  -31.0390  -18.2940   19.8760 C   0  0  0  0  0  3  0  0  0  0  0  0
  -28.7170  -17.7450   20.0890 C   0  0  0  0  0  3  0  0  0  0  0  0
  -28.3580  -19.0830   19.7820 C   0  0  0  0  0  0  0  0  0  0  0  0
  -29.3190  -20.1020   19.4940 C   0  0  0  0  0  0  0  0  0  0  0  0
  -30.0550  -17.2950   20.1340 C   0  0  0  0  0  0  0  0  0  0  0  0
  -27.5270  -21.7030   18.9570 C   0  0  0  0  0  0  0  0  0  0  0  0
  -26.8830  -19.4260   19.7620 C   0  0  0  0  0  2  0  0  0  0  0  0
  -26.6140  -20.5010   18.7180 C   0  0  0  0  0  2  0  0  0  0  0  0
  -28.8590  -21.4880   19.1520 N   0  0  0  0  0  0  0  0  0  0  0  0
  -26.9900  -22.8120   19.0130 O   0  0  0  0  0  0  0  0  0  0  0  0
  -31.0500  -14.8480   20.0060 C   0  0  0  0  0  0  0  0  0  0  0  0
  -30.9230  -12.4720   19.2520 C   0  0  0  0  0  2  0  0  0  0  0  0
  -29.9820  -12.3990   18.0250 C   0  0  0  0  0  2  0  0  0  0  0  0
  -28.5050  -12.2830   18.4570 C   0  0  0  0  0  2  0  0  0  0  0  0
  -28.1270  -13.3180   19.5470 C   0  0  0  0  0  3  0  0  0  0  0  0
  -29.1650  -13.3090   20.6910 C   0  0  0  0  0  2  0  0  0  0  0  0
  -30.4840  -13.6010   20.0980 N   0  0  0  0  0  0  0  0  0  0  0  0
  -32.1800  -15.0140   19.5340 O   0  0  0  0  0  0  0  0  0  0  0  0
  -30.2250  -15.8660   20.4040 N   0  0  0  0  0  0  0  0  0  0  0  0
  -29.4310  -15.4770   20.8870 H   0  0  0  0  0  0  0  0  0  0  0  0
  -25.7790  -14.0490   20.2980 C   0  0  0  0  0  0  0  0  0  0  0  0
  -24.6720  -13.3350   20.6680 C   0  0  0  0  0  0  0  0  0  0  0  0
  -25.0530  -11.9590   20.6100 C   0  0  0  0  0  0  0  0  0  0  0  0
  -26.7670  -13.1130   20.0380 N   0  0  0  0  0  0  0  0  0  0  0  0
  -26.3350  -11.8490   20.2840 N   0  0  0  0  0  0  0  0  0  0  0  0
  -24.2580  -10.7390   20.7920 C   0  0  0  0  0  0  0  0  0  0  0  0
  -24.6760   -9.7080   21.6620 C   0  0  0  0  0  3  0  0  0  0  0  0
  -23.8840   -8.5510   21.8330 C   0  0  0  0  0  3  0  0  0  0  0  0
  -22.6610   -8.4190   21.1350 C   0  0  0  0  0  0  0  0  0  0  0  0
  -22.2590   -9.4380   20.2550 C   0  0  0  0  0  3  0  0  0  0  0  0
  -23.0500  -10.5860   20.0810 C   0  0  0  0  0  3  0  0  0  0  0  0
  -21.8390   -7.3200   21.2200 O   0  0  0  0  0  0  0  0  0  0  0  0
  -21.8510   -6.4960   22.3180 C   0  0  0  0  0  0  0  0  0  0  0  0
  -21.6030   -6.9860   23.6190 C   0  0  0  0  0  3  0  0  0  0  0  0
  -21.5550   -6.0950   24.7090 C   0  0  0  0  0  3  0  0  0  0  0  0
  -21.7430   -4.7140   24.5000 C   0  0  0  0  0  0  0  0  0  0  0  0
  -21.9840   -4.2260   23.2040 C   0  0  0  0  0  3  0  0  0  0  0  0
  -22.0340   -5.1140   22.1160 C   0  0  0  0  0  0  0  0  0  0  0  0
  -22.2460   -4.6340   20.8650 F   0  0  0  0  0  0  0  0  0  0  0  0
  -21.6880   -3.8580   25.5460 F   0  0  0  0  0  0  0  0  0  0  0  0
  -23.3090  -13.8880   20.9660 C   0  0  0  0  0  0  0  0  0  0  0  0
  -22.5700  -13.2430   21.8620 N   0  0  0  0  0  0  0  0  0  0  0  0
  -22.9120  -14.9270   20.4410 O   0  0  0  0  0  0  0  0  0  0  0  0
  -22.9070  -12.4030   22.3090 H   0  0  0  0  0  0  0  0  0  0  0  0
  -21.6560  -13.5970   22.1080 H   0  0  0  0  0  0  0  0  0  0  0  0
  -26.0190  -15.4110   20.1420 N   0  0  0  0  0  0  0  0  0  0  0  0
  -25.2850  -16.0990   20.2640 H   0  0  0  0  0  0  0  0  0  0  0  0
  -26.8810  -15.8110   19.7920 H   0  0  0  0  0  0  0  0  0  0  0  0
  -29.7220  -22.7350   19.2580 C   0  0  0  0  0  2  0  0  0  0  0  0
  -29.2940  -24.1410   18.5800 C   0  0  0  0  0  3  0  0  0  0  0  0
  -28.5470  -25.2880   19.4060 C   0  0  0  0  0  3  0  0  0  0  0  0
  -28.5280  -26.6700   18.8780 O   0  0  0  0  0  0  0  0  0  0  0  0
  -24.5880  -31.2810   22.7840 C   0  0  0  0  0  0  0  0  0  0  0  0
  -27.3530  -27.4130   19.0240 C   0  0  0  0  0  0  0  0  0  0  0  0
  -23.4030  -30.0450   21.0030 C   0  0  0  0  0  3  0  0  0  0  0  0
  -24.8880  -28.8170   19.3190 C   0  0  0  0  0  0  0  0  0  0  0  0
  -25.9000  -30.5790   20.7690 C   0  0  0  0  0  2  0  0  0  0  0  0
  -26.0460  -29.3130   19.9340 C   0  0  0  0  0  0  0  0  0  0  0  0
  -27.2830  -28.6260   19.7730 C   0  0  0  0  0  3  0  0  0  0  0  0
  -26.1740  -26.9600   18.3960 C   0  0  0  0  0  3  0  0  0  0  0  0
  -24.9510  -27.6490   18.5420 C   0  0  0  0  0  3  0  0  0  0  0  0
  -23.5950  -29.5810   19.5330 C   0  0  0  0  0  2  0  0  0  0  0  0
  -24.6510  -30.6440   21.5780 N   0  0  0  0  0  0  0  0  0  0  0  0
  -23.5140  -31.4050   23.3920 O   0  0  0  0  0  0  0  0  0  0  0  0
  -22.8520  -28.8600   21.8310 C   0  0  0  0  0  0  0  0  0  0  0  0
  -21.5370  -28.6080   21.7240 N   0  0  0  0  0  0  0  0  0  0  0  0
  -23.6050  -28.1740   22.5260 O   0  0  0  0  0  0  0  0  0  0  0  0
  -20.9840  -29.2280   21.1490 H   0  0  0  0  0  0  0  0  0  0  0  0
  -18.2680  -27.1180   22.1500 C   0  0  0  0  0  0  0  0  0  0  0  0
  -20.8140  -27.5130   22.3720 C   0  0  0  0  0  3  0  0  0  0  0  0
  -20.9820  -26.1880   21.5890 C   0  0  0  0  0  2  0  0  0  0  0  0
  -19.8600  -25.9400   20.5770 C   0  0  0  0  0  2  0  0  0  0  0  0
  -18.4990  -25.8950   21.2800 C   0  0  0  0  0  2  0  0  0  0  0  0
  -19.3530  -27.8880   22.6480 C   0  0  0  0  0  0  0  0  0  0  0  0
  -19.0780  -29.0370   23.4200 C   0  0  0  0  0  3  0  0  0  0  0  0
  -17.7530  -29.4160   23.7000 C   0  0  0  0  0  3  0  0  0  0  0  0
  -16.6830  -28.6420   23.2170 C   0  0  0  0  0  3  0  0  0  0  0  0
  -16.9430  -27.4940   22.4490 C   0  0  0  0  0  3  0  0  0  0  0  0
  -25.8550  -31.9060   23.4480 C   0  0  0  0  0  3  0  0  0  0  0  0
  -26.4560  -31.0120   24.6020 C   0  0  1  0  0  0  0  0  0  0  0  0
  -25.4140  -30.5860   25.6630 C   0  0  0  0  0  1  0  0  0  0  0  0
  -27.0910  -29.7290   24.0210 C   0  0  0  0  0  1  0  0  0  0  0  0
  -27.5900  -31.7800   25.3200 C   0  0  0  0  0  1  0  0  0  0  0  0
  -25.4820  -33.2320   23.9600 N   0  0  0  0  0  0  0  0  0  0  0  0
  -25.7590  -34.3900   23.3470 C   0  0  0  0  0  0  0  0  0  0  0  0
  -26.4240  -34.4560   22.3090 O   0  0  0  0  0  0  0  0  0  0  0  0
  -24.8840  -33.2500   24.7740 H   0  0  0  0  0  0  0  0  0  0  0  0
  -23.9370  -36.1230   23.2480 C   0  0  0  0  0  1  0  0  0  0  0  0
  -25.2120  -35.6820   23.9860 C   0  0  0  0  0  3  0  0  0  0  0  0
  -27.3160  -36.5590   24.8980 C   0  0  0  0  0  1  0  0  0  0  0  0
  -26.1900  -36.7940   23.9990 N   0  0  0  0  0  0  0  0  0  0  0  0
  -25.7410  -37.6640   24.2720 H   0  0  0  0  0  0  0  0  0  0  0  0
  1  2  1  0
  2  6  2  0
  3  6  1  0
  4  3  2  0
  5  1  2  0
  5  4  1  0
  6 20  1  0
  7 11  2  0
  7 10  1  0
  8  4  1  0
  9  7  1  0
  9  8  1  0
 10 50  1  0
 10  5  1  0
 12 18  1  0
 12 20  1  0
 13 18  1  0
 14 15  1  0
 14 13  1  0
 16 15  1  0
 16 25  1  0
 16 17  1  0
 18 17  1  0
 19 12  2  0
 20 21  1  0
 22 23  2  0
 23 42  1  0
 24 23  1  0
 24 27  1  0
 25 26  1  0
 25 22  1  0
 26 24  2  0
 27 28  1  0
 28 29  2  0
 30 33  1  0
 30 29  1  0
 31 30  2  0
 32 31  1  0
 32 27  2  0
 33 34  1  0
 34 35  1  0
 35 36  2  0
 37 36  1  0
 37 41  1  0
 38 37  2  0
 39 34  2  0
 39 38  1  0
 40 39  1  0
 42 43  1  0
 43 46  1  0
 43 45  1  0
 44 42  2  0
 47 48  1  0
 47 22  1  0
 49 47  1  0
 51 50  1  0
 51 52  2  0
 53 55  1  0
 53 52  1  0
 54 65  2  0
 55 60  1  0
 56 64  1  0
 56 66  1  0
 57 63  1  0
 57 59  1  0
 58 64  1  0
 59 58  1  0
 60 59  2  0
 61 62  1  0
 61 55  2  0
 62 57  2  0
 63 56  1  0
 64 54  1  0
 66 68  2  0
 67 66  1  0
 69 67  1  0
 70 79  2  0
 70 75  1  0
 71 67  1  0
 71 75  1  0
 72 71  1  0
 73 74  1  0
 73 72  1  0
 74 70  1  0
 75 76  2  0
 76 77  1  0
 78 77  2  0
 79 78  1  0
 80 54  1  0
 80 85  1  0
 80 81  1  0
 81 84  1  1
 81 82  1  0
 83 81  1  0
 85 88  1  0
 86 85  1  0
 86 90  1  0
 87 86  2  0
 90 89  1  0
 90 92  1  0
 92 93  1  0
 92 91  1  0
M  ISO  4  12 100  20 100  52 101  53 101
M  END
>  <TORSDO>  (52) 
F 19

>  <SCORE>  (52) 
-11.614

>  <name>  (52) 
51

>  <ligand_id>  (52) 
51

>  <original_smiles>  (52) 
[H]c1c([H])c([H])c2c(c1[H])C([H])([H])C([H])([H])C([H])([H])C2([H])N([H])C(=O)C1([H])N(C(=O)C([H])(N([H])C(=O)C([H])(N([H])C([H])([H])[H])C([H])([H])[H])C(C([H])([H])[H])(C([H])([H])[H])C([H])([H])[H])C([H])([H])c2c([H])c(OC([H])([H])C([H])([H])C([H])([H])N3C(=O)C([H])([H])C([H])([H])c4c([H])c(N([H])C(=O)N5C([H])([H])C([H])([H])C([H])([H])C([H])(n6nc(-c7c([H])c([H])c(Oc8c([H])c([H])c(F)c([H])c8F)c([H])c7[H])c(C(=O)N([H])[H])c6N([H])[H])C5([H])[H])c([H])c([H])c43)c([H])c([H])c2C1([H])[H]

>  <smiles>  (52) 
[H]c1c([H])c([H])c2c(c1[H])C([H])([H])C([H])([H])C([H])([H])C2([H])N([H])C(=O)C1([H])N(C(=O)C([H])(N([H])C(=O)C([H])(N([H])C([H])([H])[H])C([H])([H])[H])C(C([H])([H])[H])(C([H])([H])[H])C([H])([H])[H])C([H])([H])c2c([H])c(OC([H])([H])C([H])([H])C([H])([H])N3C(=O)C([H])([H])C([H])([H])c4c([H])c(N([H])C(=O)N5C([H])([H])C([H])([H])C([H])([H])C([H])(n6nc(-c7c([H])c([H])c(Oc8c([H])c([H])c(F)c([H])c8F)c([H])c7[H])c(C(=O)N([H])[H])c6N([H])[H])C5([H])[H])c([H])c([H])c43)c([H])c([H])c2C1([H])[H]

$$$$
52:0:0
     RDKit          3D

 93102  0  0  1  0  0  0  0  0999 V2000
  -30.5420  -23.8450   20.0250 C   0  0  0  0  0  2  0  0  0  0  0  0
  -30.5500  -22.4380   20.6310 C   0  0  0  0  0  2  0  0  0  0  0  0
  -28.3100  -23.0050   20.0050 C   0  0  0  0  0  2  0  0  0  0  0  0
  -29.0980  -24.3150   20.2110 C   0  0  0  0  0  3  0  0  0  0  0  0
  -29.2020  -21.8720   20.3840 N   0  0  1  0  0  4  0  0  0  0  0  0
  -28.8710  -21.5000   21.2610 H   0  0  0  0  0  0  0  0  0  0  0  0
  -29.1650  -20.7590   19.4010 C   0  0  0  0  0  2  0  0  0  0  0  0
  -30.8080  -18.8000   19.5420 C   0  0  0  0  0  3  0  0  0  0  0  0
  -28.7040  -18.6410   20.7470 C   0  0  0  0  0  3  0  0  0  0  0  0
  -31.1040  -17.4610   19.8830 C   0  0  0  0  0  3  0  0  0  0  0  0
  -28.9970  -17.3040   21.0850 C   0  0  0  0  0  3  0  0  0  0  0  0
  -29.5880  -19.3890   19.9400 C   0  0  0  0  0  0  0  0  0  0  0  0
  -30.1760  -16.6810   20.6200 C   0  0  0  0  0  0  0  0  0  0  0  0
  -30.8790  -14.3570   20.0880 C   0  0  0  0  0  0  0  0  0  0  0  0
  -30.4630  -12.2390   18.8940 C   0  0  0  0  0  2  0  0  0  0  0  0
  -29.4670  -12.5040   17.7470 C   0  0  0  0  0  2  0  0  0  0  0  0
  -28.0150  -12.3820   18.2460 C   0  0  0  0  0  2  0  0  0  0  0  0
  -27.7620  -13.1970   19.5440 C   0  0  0  0  0  3  0  0  0  0  0  0
  -28.8630  -12.9160   20.5920 C   0  0  0  0  0  2  0  0  0  0  0  0
  -30.1750  -13.1960   19.9750 N   0  0  0  0  0  0  0  0  0  0  0  0
  -31.9340  -14.5560   19.4790 O   0  0  0  0  0  0  0  0  0  0  0  0
  -30.3250  -15.2860   20.8890 N   0  0  0  0  0  0  0  0  0  0  0  0
  -29.6140  -14.9020   21.4920 H   0  0  0  0  0  0  0  0  0  0  0  0
  -25.4130  -13.8360   20.3900 C   0  0  0  0  0  0  0  0  0  0  0  0
  -24.3480  -13.0770   20.7930 C   0  0  0  0  0  0  0  0  0  0  0  0
  -24.7780  -11.7160   20.7070 C   0  0  0  0  0  0  0  0  0  0  0  0
  -26.4260  -12.9400   20.0830 N   0  0  0  0  0  0  0  0  0  0  0  0
  -26.0490  -11.6590   20.3290 N   0  0  0  0  0  0  0  0  0  0  0  0
  -24.0360  -10.4650   20.9080 C   0  0  0  0  0  0  0  0  0  0  0  0
  -24.4580   -9.4970   21.8460 C   0  0  0  0  0  3  0  0  0  0  0  0
  -23.7160   -8.3110   22.0340 C   0  0  0  0  0  3  0  0  0  0  0  0
  -22.5390   -8.0830   21.2810 C   0  0  0  0  0  0  0  0  0  0  0  0
  -22.1380   -9.0390   20.3290 C   0  0  0  0  0  3  0  0  0  0  0  0
  -22.8800  -10.2160   20.1410 C   0  0  0  0  0  3  0  0  0  0  0  0
  -21.7700   -6.9490   21.3760 O   0  0  0  0  0  0  0  0  0  0  0  0
  -21.6600   -6.2500   22.5520 C   0  0  0  0  0  0  0  0  0  0  0  0
  -21.1750   -6.8510   23.7320 C   0  0  0  0  0  3  0  0  0  0  0  0
  -21.0140   -6.0790   24.9010 C   0  0  0  0  0  3  0  0  0  0  0  0
  -21.3290   -4.7070   24.8870 C   0  0  0  0  0  0  0  0  0  0  0  0
  -21.8070   -4.1050   23.7100 C   0  0  0  0  0  3  0  0  0  0  0  0
  -21.9710   -4.8750   22.5450 C   0  0  0  0  0  0  0  0  0  0  0  0
  -22.4120   -4.2860   21.4080 F   0  0  0  0  0  0  0  0  0  0  0  0
  -21.1670   -3.9630   26.0070 F   0  0  0  0  0  0  0  0  0  0  0  0
  -22.9770  -13.5750   21.1520 C   0  0  0  0  0  0  0  0  0  0  0  0
  -22.2820  -12.8710   22.0390 N   0  0  0  0  0  0  0  0  0  0  0  0
  -22.5330  -14.6200   20.6820 O   0  0  0  0  0  0  0  0  0  0  0  0
  -22.6570  -12.0230   22.4400 H   0  0  0  0  0  0  0  0  0  0  0  0
  -21.3630  -13.1850   22.3210 H   0  0  0  0  0  0  0  0  0  0  0  0
  -25.5990  -15.2070   20.2460 N   0  0  0  0  0  0  0  0  0  0  0  0
  -24.8640  -15.8790   20.4360 H   0  0  0  0  0  0  0  0  0  0  0  0
  -26.4520  -15.6370   19.9100 H   0  0  0  0  0  0  0  0  0  0  0  0
  -28.6930  -25.4890   19.2800 C   0  0  0  0  0  2  0  0  0  0  0  0
  -28.4630  -26.6940   20.0190 O   0  0  0  0  0  0  0  0  0  0  0  0
  -24.5830  -31.7600   23.1220 C   0  0  0  0  0  0  0  0  0  0  0  0
  -27.2510  -27.3580   19.9940 C   0  0  0  0  0  0  0  0  0  0  0  0
  -23.3840  -30.3760   21.4590 C   0  0  0  0  0  3  0  0  0  0  0  0
  -24.8450  -28.8590   20.0230 C   0  0  0  0  0  0  0  0  0  0  0  0
  -25.9120  -30.7400   21.2780 C   0  0  0  0  0  2  0  0  0  0  0  0
  -25.9990  -29.3760   20.6220 C   0  0  0  0  0  0  0  0  0  0  0  0
  -27.1980  -28.6320   20.6070 C   0  0  0  0  0  3  0  0  0  0  0  0
  -26.0670  -26.8450   19.4090 C   0  0  0  0  0  3  0  0  0  0  0  0
  -24.8740  -27.5920   19.4170 C   0  0  0  0  0  3  0  0  0  0  0  0
  -23.6000  -29.7160   20.0710 C   0  0  0  0  0  2  0  0  0  0  0  0
  -24.6440  -30.9720   22.0110 N   0  0  0  0  0  0  0  0  0  0  0  0
  -23.5000  -32.0230   23.6620 O   0  0  0  0  0  0  0  0  0  0  0  0
  -22.7310  -29.3410   22.4030 C   0  0  0  0  0  0  0  0  0  0  0  0
  -21.4050  -29.1720   22.2780 N   0  0  0  0  0  0  0  0  0  0  0  0
  -23.4150  -28.6950   23.2030 O   0  0  0  0  0  0  0  0  0  0  0  0
  -20.9160  -29.7460   21.6050 H   0  0  0  0  0  0  0  0  0  0  0  0
  -18.0230  -28.0070   22.7750 C   0  0  0  0  0  0  0  0  0  0  0  0
  -20.5850  -28.2270   23.0350 C   0  0  0  0  0  3  0  0  0  0  0  0
  -20.6660  -26.8080   22.4270 C   0  0  0  0  0  2  0  0  0  0  0  0
  -19.5540  -26.5200   21.4150 C   0  0  0  0  0  2  0  0  0  0  0  0
  -18.1780  -26.6690   22.0710 C   0  0  0  0  0  2  0  0  0  0  0  0
  -19.1540  -28.7460   23.2130 C   0  0  0  0  0  0  0  0  0  0  0  0
  -18.9550  -30.0000   23.8310 C   0  0  0  0  0  3  0  0  0  0  0  0
  -17.6580  -30.5140   24.0160 C   0  0  0  0  0  3  0  0  0  0  0  0
  -16.5410  -29.7720   23.5950 C   0  0  0  0  0  3  0  0  0  0  0  0
  -16.7250  -28.5200   22.9790 C   0  0  0  0  0  3  0  0  0  0  0  0
  -25.8670  -32.3840   23.7550 C   0  0  0  0  0  3  0  0  0  0  0  0
  -26.3990  -31.5800   25.0050 C   0  0  1  0  0  0  0  0  0  0  0  0
  -25.3150  -31.2990   26.0720 C   0  0  0  0  0  1  0  0  0  0  0  0
  -26.9930  -30.2200   24.5670 C   0  0  0  0  0  1  0  0  0  0  0  0
  -27.5460  -32.3660   25.6850 C   0  0  0  0  0  1  0  0  0  0  0  0
  -25.5470  -33.7680   24.1260 N   0  0  0  0  0  0  0  0  0  0  0  0
  -25.8760  -34.8450   23.4000 C   0  0  0  0  0  0  0  0  0  0  0  0
  -26.5520  -34.7770   22.3690 O   0  0  0  0  0  0  0  0  0  0  0  0
  -24.9480  -33.8950   24.9280 H   0  0  0  0  0  0  0  0  0  0  0  0
  -24.1420  -36.6380   23.0810 C   0  0  0  0  0  1  0  0  0  0  0  0
  -25.3750  -36.2150   23.8960 C   0  0  0  0  0  3  0  0  0  0  0  0
  -27.4930  -37.0830   24.7840 C   0  0  0  0  0  1  0  0  0  0  0  0
  -26.4030  -37.2760   23.8300 N   0  0  0  0  0  0  0  0  0  0  0  0
  -25.9890  -38.1880   24.0030 H   0  0  0  0  0  0  0  0  0  0  0  0
  1  4  1  0
  1  2  1  0
  3  4  1  0
  3  5  1  0
  4 52  1  0
  5  2  1  0
  5  6  1  1
  7 12  1  0
  7  5  1  0
  8 10  2  0
  8 12  1  0
  9 11  1  0
 10 13  1  0
 12  9  2  0
 13 22  1  0
 13 11  2  0
 14 22  1  0
 15 20  1  0
 16 17  1  0
 16 15  1  0
 18 17  1  0
 18 27  1  0
 18 19  1  0
 20 14  1  0
 20 19  1  0
 21 14  2  0
 22 23  1  0
 24 25  2  0
 25 44  1  0
 26 25  1  0
 26 29  1  0
 27 28  1  0
 27 24  1  0
 28 26  2  0
 29 30  1  0
 30 31  2  0
 32 35  1  0
 32 31  1  0
 33 32  2  0
 34 33  1  0
 34 29  2  0
 35 36  1  0
 36 37  1  0
 37 38  2  0
 39 38  1  0
 39 43  1  0
 40 39  2  0
 41 36  2  0
 41 40  1  0
 42 41  1  0
 44 45  1  0
 45 48  1  0
 45 47  1  0
 46 44  2  0
 49 24  1  0
 49 50  1  0
 51 49  1  0
 52 53  1  0
 54 65  2  0
 55 53  1  0
 55 60  1  0
 56 64  1  0
 56 66  1  0
 57 63  1  0
 57 59  1  0
 58 64  1  0
 59 58  1  0
 60 59  2  0
 61 62  1  0
 61 55  2  0
 62 57  2  0
 63 56  1  0
 64 54  1  0
 66 68  2  0
 67 66  1  0
 69 67  1  0
 70 79  2  0
 70 75  1  0
 71 67  1  0
 71 75  1  0
 72 71  1  0
 73 74  1  0
 73 72  1  0
 74 70  1  0
 75 76  2  0
 76 77  1  0
 78 77  2  0
 79 78  1  0
 80 54  1  0
 80 85  1  0
 80 81  1  0
 81 84  1  1
 81 82  1  0
 83 81  1  0
 85 88  1  0
 86 90  1  0
 86 85  1  0
 87 86  2  0
 90 89  1  0
 92 90  1  0
 92 93  1  0
 92 91  1  0
M  ISO  4  14 100  22 100  52 101  53 101
M  END
>  <TORSDO>  (53) 
F 19

>  <SCORE>  (53) 
-13.851

>  <name>  (53) 
52

>  <ligand_id>  (53) 
52

>  <original_smiles>  (53) 
[H]c1c([H])c([H])c2c(c1[H])C([H])([H])C([H])([H])C([H])([H])C2([H])N([H])C(=O)C1([H])N(C(=O)C([H])(N([H])C(=O)C([H])(N([H])C([H])([H])[H])C([H])([H])[H])C(C([H])([H])[H])(C([H])([H])[H])C([H])([H])[H])C([H])([H])c2c([H])c(OC([H])([H])C3([H])C([H])([H])C([H])([H])[N+]([H])(C([H])([H])c4c([H])c([H])c(N([H])C(=O)N5C([H])([H])C([H])([H])C([H])([H])C([H])(n6nc(-c7c([H])c([H])c(Oc8c([H])c([H])c(F)c([H])c8F)c([H])c7[H])c(C(=O)N([H])[H])c6N([H])[H])C5([H])[H])c([H])c4[H])C3([H])[H])c([H])c([H])c2C1([H])[H]

>  <smiles>  (53) 
[H]c1c([H])c([H])c2c(c1[H])C([H])([H])C([H])([H])C([H])([H])C2([H])N([H])C(=O)C1([H])N(C(=O)C([H])(N([H])C(=O)C([H])(N([H])C([H])([H])[H])C([H])([H])[H])C(C([H])([H])[H])(C([H])([H])[H])C([H])([H])[H])C([H])([H])c2c([H])c(OC([H])([H])C3([H])C([H])([H])C([H])([H])[N+]([H])(C([H])([H])c4c([H])c([H])c(N([H])C(=O)N5C([H])([H])C([H])([H])C([H])([H])C([H])(n6nc(-c7c([H])c([H])c(Oc8c([H])c([H])c(F)c([H])c8F)c([H])c7[H])c(C(=O)N([H])[H])c6N([H])[H])C5([H])[H])c([H])c4[H])C3([H])[H])c([H])c([H])c2C1([H])[H]

$$$$
53:0:0
     RDKit          3D

102111  0  0  1  0  0  0  0  0999 V2000
  -31.4070  -21.2940   16.6590 C   0  0  0  0  0  3  0  0  0  0  0  0
  -31.0510  -20.4900   15.5610 C   0  0  0  0  0  3  0  0  0  0  0  0
  -33.5440  -20.1440   16.7870 C   0  0  0  0  0  3  0  0  0  0  0  0
  -32.6730  -21.1500   17.2620 C   0  0  0  0  0  0  0  0  0  0  0  0
  -31.9420  -19.5270   15.0460 C   0  0  0  0  0  0  0  0  0  0  0  0
  -33.1920  -19.3190   15.6960 C   0  0  0  0  0  0  0  0  0  0  0  0
  -35.2200  -16.2720   15.8200 C   0  0  0  0  0  2  0  0  0  0  0  0
  -33.8420  -16.9400   15.7070 C   0  0  0  0  0  2  0  0  0  0  0  0
  -35.5390  -18.6150   15.4740 C   0  0  0  0  0  2  0  0  0  0  0  0
  -36.1540  -17.4230   16.2320 C   0  0  0  0  0  3  0  0  0  0  0  0
  -34.1150  -18.3220   15.3300 N   0  0  0  0  0  0  0  0  0  0  0  0
  -38.4890  -18.0190   16.8130 C   0  0  0  0  0  1  0  0  0  0  0  0
  -37.9960  -15.7790   15.9650 C   0  0  0  0  0  1  0  0  0  0  0  0
  -37.6000  -17.2090   15.9420 N   0  0  1  0  0  4  0  0  0  0  0  0
  -37.7620  -17.5280   14.9990 H   0  0  0  0  0  0  0  0  0  0  0  0
  -33.0990  -22.0410   18.4260 C   0  0  0  0  0  2  0  0  0  0  0  0
  -31.3750  -23.8070   18.8460 C   0  0  0  0  0  0  0  0  0  0  0  0
  -31.9740  -22.6450   19.1420 N   0  0  0  0  0  0  0  0  0  0  0  0
  -31.7470  -24.5250   17.9170 O   0  0  0  0  0  0  0  0  0  0  0  0
  -31.6020  -22.1220   19.9230 H   0  0  0  0  0  0  0  0  0  0  0  0
  -30.1880  -24.2150   19.7320 C   0  0  0  0  0  2  0  0  0  0  0  0
  -29.6140  -25.6120   19.4080 C   0  0  0  0  0  2  0  0  0  0  0  0
  -29.5840  -26.4380   20.5730 O   0  0  0  0  0  0  0  0  0  0  0  0
  -33.6390  -32.2400   19.8670 C   0  0  0  0  0  0  0  0  0  0  0  0
  -30.7700  -27.0620   20.8520 C   0  0  0  0  0  0  0  0  0  0  0  0
  -34.7600  -30.2380   20.7990 C   0  0  0  0  0  3  0  0  0  0  0  0
  -33.2200  -28.3160   21.4600 C   0  0  0  0  0  0  0  0  0  0  0  0
  -32.2490  -30.5960   21.1210 C   0  0  0  0  0  2  0  0  0  0  0  0
  -32.0990  -29.0900   21.1330 C   0  0  0  0  0  0  0  0  0  0  0  0
  -30.8710  -28.4680   20.8270 C   0  0  0  0  0  3  0  0  0  0  0  0
  -31.8980  -26.2890   21.1920 C   0  0  0  0  0  3  0  0  0  0  0  0
  -33.1280  -26.9120   21.4840 C   0  0  0  0  0  3  0  0  0  0  0  0
  -34.4960  -29.0610   21.7790 C   0  0  0  0  0  2  0  0  0  0  0  0
  -33.5330  -31.0630   20.5470 N   0  0  0  0  0  0  0  0  0  0  0  0
  -34.7390  -32.6660   19.4900 O   0  0  0  0  0  0  0  0  0  0  0  0
  -35.3920  -29.6730   19.5080 C   0  0  0  0  0  0  0  0  0  0  0  0
  -36.7020  -29.3810   19.5630 N   0  0  0  0  0  0  0  0  0  0  0  0
  -34.7080  -29.4810   18.4990 O   0  0  0  0  0  0  0  0  0  0  0  0
  -37.1930  -29.5750   20.4240 H   0  0  0  0  0  0  0  0  0  0  0  0
  -40.0730  -28.5500   18.5650 C   0  0  0  0  0  0  0  0  0  0  0  0
  -37.5020  -28.8020   18.4830 C   0  0  0  0  0  3  0  0  0  0  0  0
  -37.4490  -27.2580   18.5180 C   0  0  0  0  0  2  0  0  0  0  0  0
  -38.5980  -26.6340   19.3150 C   0  0  0  0  0  2  0  0  0  0  0  0
  -39.9500  -27.0430   18.7210 C   0  0  0  0  0  2  0  0  0  0  0  0
  -38.9230  -29.3760   18.4690 C   0  0  0  0  0  0  0  0  0  0  0  0
  -39.0900  -30.7740   18.3600 C   0  0  0  0  0  3  0  0  0  0  0  0
  -40.3750  -31.3460   18.3400 C   0  0  0  0  0  3  0  0  0  0  0  0
  -41.5120  -30.5220   18.4170 C   0  0  0  0  0  3  0  0  0  0  0  0
  -41.3600  -29.1280   18.5250 C   0  0  0  0  0  3  0  0  0  0  0  0
  -32.3870  -33.1190   19.5530 C   0  0  0  0  0  3  0  0  0  0  0  0
  -32.3430  -34.2000   20.5450 N   0  0  0  0  0  0  0  0  0  0  0  0
  -31.7100  -34.1250   21.7230 C   0  0  0  0  0  0  0  0  0  0  0  0
  -31.0310  -33.1490   22.0580 O   0  0  0  0  0  0  0  0  0  0  0  0
  -32.9190  -35.0080   20.3590 H   0  0  0  0  0  0  0  0  0  0  0  0
  -33.0170  -35.0600   23.6560 C   0  0  0  0  0  1  0  0  0  0  0  0
  -31.8540  -35.3190   22.6840 C   0  0  0  0  0  3  0  0  0  0  0  0
  -29.5500  -36.1660   22.6250 C   0  0  0  0  0  1  0  0  0  0  0  0
  -30.6230  -35.6110   23.4490 N   0  0  0  0  0  0  0  0  0  0  0  0
  -30.8140  -36.2670   24.2010 H   0  0  0  0  0  0  0  0  0  0  0  0
  -32.3890  -33.7050   18.0890 C   0  0  1  0  0  0  0  0  0  0  0  0
  -33.6830  -34.4680   17.7280 C   0  0  0  0  0  1  0  0  0  0  0  0
  -32.1990  -32.5750   17.0500 C   0  0  0  0  0  1  0  0  0  0  0  0
  -31.1980  -34.6770   17.9100 C   0  0  0  0  0  1  0  0  0  0  0  0
  -31.5470  -18.8480   13.7400 C   0  0  0  0  0  2  0  0  0  0  0  0
  -30.3420  -19.7300   11.8150 C   0  0  0  0  0  0  0  0  0  0  0  0
  -29.3410  -20.3010    9.6460 C   0  0  0  0  0  2  0  0  0  0  0  0
  -29.9470  -19.4060    8.5490 C   0  0  0  0  0  2  0  0  0  0  0  0
  -31.2270  -20.0470    7.9810 C   0  0  0  0  0  2  0  0  0  0  0  0
  -32.2150  -20.5000    9.0910 C   0  0  0  0  0  3  0  0  0  0  0  0
  -31.4900  -21.2970   10.1980 C   0  0  0  0  0  2  0  0  0  0  0  0
  -30.3650  -20.4830   10.6870 N   0  0  0  0  0  0  0  0  0  0  0  0
  -29.3750  -19.0350   12.1340 O   0  0  0  0  0  0  0  0  0  0  0  0
  -31.4580  -19.7060   12.5570 N   0  0  0  0  0  0  0  0  0  0  0  0
  -32.2680  -20.2270   12.2580 H   0  0  0  0  0  0  0  0  0  0  0  0
  -34.6690  -20.8820    8.4170 C   0  0  0  0  0  0  0  0  0  0  0  0
  -35.2870  -21.9100    7.7550 C   0  0  0  0  0  0  0  0  0  0  0  0
  -34.2680  -22.8750    7.4850 C   0  0  0  0  0  0  0  0  0  0  0  0
  -33.3370  -21.2490    8.5290 N   0  0  0  0  0  0  0  0  0  0  0  0
  -33.1130  -22.4830    8.0080 N   0  0  0  0  0  0  0  0  0  0  0  0
  -34.3130  -24.1210    6.7090 C   0  0  0  0  0  0  0  0  0  0  0  0
  -34.6140  -25.3590    7.3170 C   0  0  0  0  0  3  0  0  0  0  0  0
  -34.6690  -26.5410    6.5460 C   0  0  0  0  0  3  0  0  0  0  0  0
  -34.4270  -26.4910    5.1530 C   0  0  0  0  0  0  0  0  0  0  0  0
  -34.1050  -25.2590    4.5560 C   0  0  0  0  0  3  0  0  0  0  0  0
  -34.0450  -24.0860    5.3260 C   0  0  0  0  0  3  0  0  0  0  0  0
  -34.4360  -27.5900    4.3290 O   0  0  0  0  0  0  0  0  0  0  0  0
  -35.5780  -28.3200    4.1120 C   0  0  0  0  0  0  0  0  0  0  0  0
  -36.6880  -27.7810    3.4260 C   0  0  0  0  0  3  0  0  0  0  0  0
  -37.8140  -28.5870    3.1650 C   0  0  0  0  0  3  0  0  0  0  0  0
  -37.8290  -29.9320    3.5810 C   0  0  0  0  0  0  0  0  0  0  0  0
  -36.7220  -30.4730    4.2580 C   0  0  0  0  0  3  0  0  0  0  0  0
  -35.5990  -29.6690    4.5220 C   0  0  0  0  0  0  0  0  0  0  0  0
  -34.5260  -30.1990    5.1570 F   0  0  0  0  0  0  0  0  0  0  0  0
  -38.9060  -30.7100    3.3240 F   0  0  0  0  0  0  0  0  0  0  0  0
  -36.7210  -21.9560    7.3120 C   0  0  0  0  0  0  0  0  0  0  0  0
  -37.3040  -23.1470    7.2440 N   0  0  0  0  0  0  0  0  0  0  0  0
  -37.3490  -20.9250    7.0730 O   0  0  0  0  0  0  0  0  0  0  0  0
  -36.7980  -23.9920    7.4610 H   0  0  0  0  0  0  0  0  0  0  0  0
  -38.2750  -23.2150    6.9690 H   0  0  0  0  0  0  0  0  0  0  0  0
  -35.1200  -19.6630    8.9120 N   0  0  0  0  0  0  0  0  0  0  0  0
  -36.0760  -19.3480    8.7890 H   0  0  0  0  0  0  0  0  0  0  0  0
  -34.5290  -18.9700    9.3530 H   0  0  0  0  0  0  0  0  0  0  0  0
  1  4  1  0
  2  1  2  0
  3  4  2  0
  4 16  1  0
  5  2  1  0
  5  6  2  0
  6  3  1  0
  7 10  1  0
  8  7  1  0
  9 10  1  0
 10 14  1  0
 11  9  1  0
 11  6  1  0
 11  8  1  0
 14 13  1  0
 14 12  1  0
 14 15  1  6
 16 18  1  0
 17 18  1  0
 17 21  1  0
 18 20  1  0
 19 17  2  0
 22 21  1  0
 22 23  1  0
 23 25  1  0
 24 34  1  0
 25 31  1  0
 26 36  1  0
 26 33  1  0
 27 32  1  0
 27 33  1  0
 28 29  1  0
 29 27  2  0
 30 25  2  0
 30 29  1  0
 31 32  2  0
 34 26  1  0
 34 28  1  0
 35 24  2  0
 36 37  1  0
 37 39  1  0
 38 36  2  0
 40 44  1  0
 41 42  1  0
 41 37  1  0
 42 43  1  0
 44 43  1  0
 45 41  1  0
 45 40  2  0
 46 45  1  0
 47 46  2  0
 47 48  1  0
 48 49  2  0
 49 40  1  0
 50 24  1  0
 50 51  1  0
 51 52  1  0
 52 53  2  0
 52 56  1  0
 54 51  1  0
 56 58  1  0
 56 55  1  0
 57 58  1  0
 58 59  1  0
 60 50  1  0
 60 61  1  6
 62 60  1  0
 63 60  1  0
 64  5  1  0
 65 72  2  0
 65 73  1  0
 66 71  1  0
 67 66  1  0
 68 67  1  0
 69 68  1  0
 69 70  1  0
 70 71  1  0
 71 65  1  0
 73 64  1  0
 74 73  1  0
 75 78  1  0
 75100  1  0
 76 75  2  0
 77 76  1  0
 77 79  2  0
 78 69  1  0
 79 78  1  0
 80 81  1  0
 80 77  1  0
 82 81  2  0
 83 82  1  0
 84 83  2  0
 84 85  1  0
 85 80  2  0
 86 83  1  0
 87 86  1  0
 87 92  1  0
 88 87  2  0
 89 88  1  0
 89 90  2  0
 90 91  1  0
 91 92  2  0
 92 93  1  0
 94 90  1  0
 95 76  1  0
 96 95  1  0
 96 98  1  0
 97 95  2  0
 99 96  1  0
100102  1  0
101100  1  0
M  ISO  4  22 101  23 101  65 100  73 100
M  END
>  <TORSDO>  (54) 
F 23

>  <SCORE>  (54) 
2.422

>  <name>  (54) 
53

>  <ligand_id>  (54) 
53

>  <original_smiles>  (54) 
[H]c1c([H])c([H])c2c(c1[H])C([H])([H])C([H])([H])C([H])([H])C2([H])N([H])C(=O)C1([H])N(C(=O)C([H])(N([H])C(=O)C([H])(N([H])C([H])([H])[H])C([H])([H])[H])C(C([H])([H])[H])(C([H])([H])[H])C([H])([H])[H])C([H])([H])c2c([H])c(OC([H])([H])C([H])([H])C(=O)N([H])C([H])([H])c3c([H])c([H])c(C([H])([H])N([H])C(=O)N4C([H])([H])C([H])([H])C([H])([H])C([H])(n5nc(-c6c([H])c([H])c(Oc7c([H])c([H])c(F)c([H])c7F)c([H])c6[H])c(C(=O)N([H])[H])c5N([H])[H])C4([H])[H])c(N4C([H])([H])C([H])([H])C([H])([N+]([H])(C([H])([H])[H])C([H])([H])[H])C4([H])[H])c3[H])c([H])c([H])c2C1([H])[H]

>  <smiles>  (54) 
[H]c1c([H])c([H])c2c(c1[H])C([H])([H])C([H])([H])C([H])([H])C2([H])N([H])C(=O)C1([H])N(C(=O)C([H])(N([H])C(=O)C([H])(N([H])C([H])([H])[H])C([H])([H])[H])C(C([H])([H])[H])(C([H])([H])[H])C([H])([H])[H])C([H])([H])c2c([H])c(OC([H])([H])C([H])([H])C(=O)N([H])C([H])([H])c3c([H])c([H])c(C([H])([H])N([H])C(=O)N4C([H])([H])C([H])([H])C([H])([H])C([H])(n5nc(-c6c([H])c([H])c(Oc7c([H])c([H])c(F)c([H])c7F)c([H])c6[H])c(C(=O)N([H])[H])c5N([H])[H])C4([H])[H])c(N4C([H])([H])C([H])([H])C([H])([N+]([H])(C([H])([H])[H])C([H])([H])[H])C4([H])[H])c3[H])c([H])c([H])c2C1([H])[H]

$$$$
54:0:0
     RDKit          3D

 94102  0  0  1  0  0  0  0  0999 V2000
  -30.1480  -19.6470   18.9790 C   0  0  0  0  0  0  0  0  0  0  0  0
  -29.6140  -20.8590   19.2350 N   0  0  0  0  0  0  0  0  0  0  0  0
  -30.3520  -19.2510   17.8280 O   0  0  0  0  0  0  0  0  0  0  0  0
  -29.5320  -21.1210   20.2070 H   0  0  0  0  0  0  0  0  0  0  0  0
  -30.1940  -19.1490   21.4810 C   0  0  0  0  0  3  0  0  0  0  0  0
  -30.3430  -18.2450   22.5520 C   0  0  0  0  0  3  0  0  0  0  0  0
  -30.8910  -17.4020   19.9240 C   0  0  0  0  0  3  0  0  0  0  0  0
  -30.4440  -18.7350   20.1500 C   0  0  0  0  0  0  0  0  0  0  0  0
  -31.0350  -16.4880   21.0010 C   0  0  0  0  0  0  0  0  0  0  0  0
  -30.7490  -16.9210   22.3130 C   0  0  0  0  0  0  0  0  0  0  0  0
  -30.8600  -16.0500   23.3470 F   0  0  0  0  0  0  0  0  0  0  0  0
  -31.6910  -14.4150   19.7800 C   0  0  0  0  0  0  0  0  0  0  0  0
  -31.0820  -12.4130   18.4600 C   0  0  0  0  0  2  0  0  0  0  0  0
  -30.0140  -12.7930   17.4160 C   0  0  0  0  0  2  0  0  0  0  0  0
  -28.5980  -12.7120   18.0220 C   0  0  0  0  0  2  0  0  0  0  0  0
  -28.4940  -13.4630   19.3770 C   0  0  0  0  0  3  0  0  0  0  0  0
  -29.6460  -13.0470   20.3150 C   0  0  0  0  0  2  0  0  0  0  0  0
  -30.9280  -13.2990   19.6250 N   0  0  0  0  0  0  0  0  0  0  0  0
  -32.6210  -14.7130   19.0270 O   0  0  0  0  0  0  0  0  0  0  0  0
  -31.4050  -15.1180   20.8860 N   0  0  0  0  0  0  0  0  0  0  0  0
  -30.9510  -14.5540   21.5900 H   0  0  0  0  0  0  0  0  0  0  0  0
  -26.2760  -14.2070   20.4630 C   0  0  0  0  0  0  0  0  0  0  0  0
  -25.1950  -13.4950   20.9120 C   0  0  0  0  0  0  0  0  0  0  0  0
  -25.5110  -12.1190   20.6960 C   0  0  0  0  0  0  0  0  0  0  0  0
  -27.1880  -13.2650   20.0070 N   0  0  0  0  0  0  0  0  0  0  0  0
  -26.7370  -11.9990   20.1990 N   0  0  0  0  0  0  0  0  0  0  0  0
  -24.6980  -10.9100   20.8790 C   0  0  0  0  0  0  0  0  0  0  0  0
  -25.0960   -9.8810   21.7630 C   0  0  0  0  0  3  0  0  0  0  0  0
  -24.2870   -8.7370   21.9360 C   0  0  0  0  0  3  0  0  0  0  0  0
  -23.0710   -8.6110   21.2280 C   0  0  0  0  0  0  0  0  0  0  0  0
  -22.6910   -9.6270   20.3330 C   0  0  0  0  0  3  0  0  0  0  0  0
  -23.4970  -10.7640   20.1570 C   0  0  0  0  0  3  0  0  0  0  0  0
  -22.2420   -7.5190   21.3080 O   0  0  0  0  0  0  0  0  0  0  0  0
  -22.1080   -6.8000   22.4700 C   0  0  0  0  0  0  0  0  0  0  0  0
  -21.6900   -7.4050   23.6740 C   0  0  0  0  0  3  0  0  0  0  0  0
  -21.4990   -6.6190   24.8280 C   0  0  0  0  0  3  0  0  0  0  0  0
  -21.7120   -5.2280   24.7770 C   0  0  0  0  0  0  0  0  0  0  0  0
  -22.1210   -4.6230   23.5750 C   0  0  0  0  0  3  0  0  0  0  0  0
  -22.3160   -5.4070   22.4240 C   0  0  0  0  0  0  0  0  0  0  0  0
  -22.6900   -4.8170   21.2640 F   0  0  0  0  0  0  0  0  0  0  0  0
  -21.5200   -4.4690   25.8800 F   0  0  0  0  0  0  0  0  0  0  0  0
  -23.9030  -14.0590   21.4240 C   0  0  0  0  0  0  0  0  0  0  0  0
  -23.2620  -13.3750   22.3670 N   0  0  0  0  0  0  0  0  0  0  0  0
  -23.4730  -15.1420   21.0240 O   0  0  0  0  0  0  0  0  0  0  0  0
  -23.6190  -12.4980   22.7100 H   0  0  0  0  0  0  0  0  0  0  0  0
  -22.3970  -13.7350   22.7440 H   0  0  0  0  0  0  0  0  0  0  0  0
  -26.5490  -15.5670   20.3850 N   0  0  0  0  0  0  0  0  0  0  0  0
  -25.8750  -16.2770   20.6500 H   0  0  0  0  0  0  0  0  0  0  0  0
  -27.3810  -15.9510   19.9530 H   0  0  0  0  0  0  0  0  0  0  0  0
  -28.9130  -21.6860   18.2390 C   0  0  0  0  0  2  0  0  0  0  0  0
  -29.3630  -23.1630   18.1530 C   0  0  0  0  0  2  0  0  0  0  0  0
  -28.6530  -24.1780   19.0810 C   0  0  0  0  0  2  0  0  0  0  0  0
  -28.7110  -25.6180   18.5090 C   0  0  0  0  0  2  0  0  0  0  0  0
  -28.5230  -26.6500   19.4810 O   0  0  0  0  0  0  0  0  0  0  0  0
  -24.8660  -31.6320   22.9780 C   0  0  0  0  0  0  0  0  0  0  0  0
  -27.3230  -27.3290   19.5570 C   0  0  0  0  0  0  0  0  0  0  0  0
  -23.5540  -30.2800   21.3700 C   0  0  0  0  0  3  0  0  0  0  0  0
  -24.9180  -28.8040   19.7950 C   0  0  0  0  0  0  0  0  0  0  0  0
  -26.0570  -30.6650   21.0160 C   0  0  0  0  0  2  0  0  0  0  0  0
  -26.1060  -29.3160   20.3270 C   0  0  0  0  0  0  0  0  0  0  0  0
  -27.3060  -28.5800   20.2170 C   0  0  0  0  0  3  0  0  0  0  0  0
  -26.1140  -26.8200   19.0340 C   0  0  0  0  0  3  0  0  0  0  0  0
  -24.9150  -27.5510   19.1520 C   0  0  0  0  0  3  0  0  0  0  0  0
  -23.6720  -29.6460   19.9570 C   0  0  0  0  0  2  0  0  0  0  0  0
  -24.8470  -30.8740   21.8460 N   0  0  0  0  0  0  0  0  0  0  0  0
  -23.8230  -31.8790   23.6000 O   0  0  0  0  0  0  0  0  0  0  0  0
  -22.9760  -29.2240   22.3370 C   0  0  0  0  0  0  0  0  0  0  0  0
  -21.6590  -28.9820   22.2400 N   0  0  0  0  0  0  0  0  0  0  0  0
  -23.7080  -28.6250   23.1300 O   0  0  0  0  0  0  0  0  0  0  0  0
  -21.1260  -29.5210   21.5710 H   0  0  0  0  0  0  0  0  0  0  0  0
  -18.3730  -27.5750   22.7450 C   0  0  0  0  0  0  0  0  0  0  0  0
  -20.9070  -27.9990   23.0180 C   0  0  0  0  0  3  0  0  0  0  0  0
  -21.1040  -26.5730   22.4540 C   0  0  0  0  0  2  0  0  0  0  0  0
  -20.0270  -26.1700   21.4410 C   0  0  0  0  0  2  0  0  0  0  0  0
  -18.6380  -26.2330   22.0830 C   0  0  0  0  0  2  0  0  0  0  0  0
  -19.4390  -28.4120   23.1690 C   0  0  0  0  0  0  0  0  0  0  0  0
  -19.1390  -29.6640   23.7480 C   0  0  0  0  0  3  0  0  0  0  0  0
  -17.8050  -30.0800   23.9100 C   0  0  0  0  0  3  0  0  0  0  0  0
  -16.7530  -29.2410   23.5040 C   0  0  0  0  0  3  0  0  0  0  0  0
  -17.0380  -27.9910   22.9260 C   0  0  0  0  0  3  0  0  0  0  0  0
  -26.1910  -32.2500   23.5290 C   0  0  0  0  0  3  0  0  0  0  0  0
  -25.8680  -33.5750   24.0730 N   0  0  0  0  0  0  0  0  0  0  0  0
  -26.0690  -34.7320   23.4250 C   0  0  0  0  0  0  0  0  0  0  0  0
  -26.6190  -34.7950   22.3230 O   0  0  0  0  0  0  0  0  0  0  0  0
  -25.3730  -33.5960   24.9520 H   0  0  0  0  0  0  0  0  0  0  0  0
  -24.2410  -36.4550   23.4950 C   0  0  0  0  0  1  0  0  0  0  0  0
  -25.5810  -36.0210   24.1100 C   0  0  0  0  0  3  0  0  0  0  0  0
  -27.7590  -36.9080   24.8180 C   0  0  0  0  0  1  0  0  0  0  0  0
  -26.5510  -37.1350   24.0280 N   0  0  0  0  0  0  0  0  0  0  0  0
  -26.1260  -38.0030   24.3430 H   0  0  0  0  0  0  0  0  0  0  0  0
  -26.8860  -31.3530   24.6260 C   0  0  1  0  0  0  0  0  0  0  0  0
  -25.9300  -30.8930   25.7490 C   0  0  0  0  0  1  0  0  0  0  0  0
  -27.5100  -30.0900   23.9860 C   0  0  0  0  0  1  0  0  0  0  0  0
  -28.0440  -32.1370   25.2900 C   0  0  0  0  0  1  0  0  0  0  0  0
  1  2  1  0
  1  8  1  0
  2  4  1  0
  3  1  2  0
  5  6  1  0
  7  8  1  0
  7  9  2  0
  8  5  2  0
  9 10  1  0
 10  6  2  0
 10 11  1  0
 12 20  1  0
 13 18  1  0
 14 15  1  0
 14 13  1  0
 16 15  1  0
 16 25  1  0
 16 17  1  0
 18 12  1  0
 18 17  1  0
 19 12  2  0
 20  9  1  0
 20 21  1  0
 22 23  2  0
 23 42  1  0
 24 27  1  0
 24 23  1  0
 25 26  1  0
 25 22  1  0
 26 24  2  0
 27 28  1  0
 28 29  2  0
 30 33  1  0
 30 29  1  0
 31 30  2  0
 32 31  1  0
 32 27  2  0
 33 34  1  0
 34 35  1  0
 35 36  2  0
 37 36  1  0
 37 41  1  0
 38 37  2  0
 39 34  2  0
 39 38  1  0
 40 39  1  0
 42 43  1  0
 43 45  1  0
 43 46  1  0
 44 42  2  0
 47 22  1  0
 47 48  1  0
 49 47  1  0
 50  2  1  0
 51 50  1  0
 51 52  1  0
 53 52  1  0
 53 54  1  0
 54 56  1  0
 55 66  2  0
 56 61  1  0
 57 65  1  0
 57 67  1  0
 58 64  1  0
 58 60  1  0
 59 65  1  0
 60 59  1  0
 61 60  2  0
 62 63  1  0
 62 56  2  0
 63 58  2  0
 64 57  1  0
 65 55  1  0
 67 69  2  0
 68 67  1  0
 70 68  1  0
 71 80  2  0
 71 76  1  0
 72 68  1  0
 72 76  1  0
 73 72  1  0
 74 75  1  0
 74 73  1  0
 75 71  1  0
 76 77  2  0
 77 78  1  0
 79 78  2  0
 80 79  1  0
 81 55  1  0
 81 82  1  0
 81 91  1  0
 82 85  1  0
 83 82  1  0
 83 87  1  0
 84 83  2  0
 87 86  1  0
 89 87  1  0
 89 90  1  0
 89 88  1  0
 91 94  1  1
 91 92  1  0
 93 91  1  0
M  ISO  4  12 100  20 100  53 101  54 101
M  END
>  <TORSDO>  (55) 
F 21

>  <SCORE>  (55) 
-10.096

>  <name>  (55) 
54

>  <ligand_id>  (55) 
54

>  <original_smiles>  (55) 
[H]c1c([H])c([H])c2c(c1[H])C([H])([H])C([H])([H])C([H])([H])C2([H])N([H])C(=O)C1([H])N(C(=O)C([H])(N([H])C(=O)C([H])(N([H])C([H])([H])[H])C([H])([H])[H])C(C([H])([H])[H])(C([H])([H])[H])C([H])([H])[H])C([H])([H])c2c([H])c(OC([H])([H])C([H])([H])C([H])([H])C([H])([H])N([H])C(=O)c3c([H])c([H])c(F)c(N([H])C(=O)N4C([H])([H])C([H])([H])C([H])([H])C([H])(n5nc(-c6c([H])c([H])c(Oc7c([H])c([H])c(F)c([H])c7F)c([H])c6[H])c(C(=O)N([H])[H])c5N([H])[H])C4([H])[H])c3[H])c([H])c([H])c2C1([H])[H]

>  <smiles>  (55) 
[H]c1c([H])c([H])c2c(c1[H])C([H])([H])C([H])([H])C([H])([H])C2([H])N([H])C(=O)C1([H])N(C(=O)C([H])(N([H])C(=O)C([H])(N([H])C([H])([H])[H])C([H])([H])[H])C(C([H])([H])[H])(C([H])([H])[H])C([H])([H])[H])C([H])([H])c2c([H])c(OC([H])([H])C([H])([H])C([H])([H])C([H])([H])N([H])C(=O)c3c([H])c([H])c(F)c(N([H])C(=O)N4C([H])([H])C([H])([H])C([H])([H])C([H])(n5nc(-c6c([H])c([H])c(Oc7c([H])c([H])c(F)c([H])c7F)c([H])c6[H])c(C(=O)N([H])[H])c5N([H])[H])C4([H])[H])c3[H])c([H])c([H])c2C1([H])[H]

$$$$
55:0:0
     RDKit          3D

109119  0  0  1  0  0  0  0  0999 V2000
  -30.1960  -18.0780   21.0900 C   0  0  0  0  0  3  0  0  0  0  0  0
  -28.3630  -17.1080   19.7640 C   0  0  0  0  0  3  0  0  0  0  0  0
  -29.9610  -19.2870   20.4170 C   0  0  0  0  0  0  0  0  0  0  0  0
  -28.9950  -19.4090   19.4200 C   0  0  0  0  0  0  0  0  0  0  0  0
  -28.1450  -18.3280   19.0930 C   0  0  0  0  0  0  0  0  0  0  0  0
  -29.4190  -16.9650   20.7070 C   0  0  0  0  0  0  0  0  0  0  0  0
  -30.8590  -20.4900   20.4170 C   0  0  0  0  0  2  0  0  0  0  0  0
  -29.2340  -20.6980   18.6570 C   0  0  0  0  0  2  0  0  0  0  0  0
  -30.6470  -20.9560   19.0290 N   0  0  1  0  0  4  0  0  0  0  0  0
  -31.1490  -20.2740   18.4830 H   0  0  0  0  0  0  0  0  0  0  0  0
  -30.5250  -14.8520   20.4940 C   0  0  0  0  0  0  0  0  0  0  0  0
  -30.2630  -12.9310   18.9930 C   0  0  0  0  0  2  0  0  0  0  0  0
  -29.2160  -13.3250   17.9300 C   0  0  0  0  0  2  0  0  0  0  0  0
  -27.7770  -13.0410   18.4180 C   0  0  0  0  0  2  0  0  0  0  0  0
  -27.5210  -13.5770   19.8550 C   0  0  0  0  0  3  0  0  0  0  0  0
  -28.6710  -13.1900   20.8170 C   0  0  0  0  0  2  0  0  0  0  0  0
  -29.9390  -13.6570   20.2280 N   0  0  0  0  0  0  0  0  0  0  0  0
  -31.5870  -15.2240   19.9900 O   0  0  0  0  0  0  0  0  0  0  0  0
  -29.7510  -15.6870   21.2050 N   0  0  0  0  0  0  0  0  0  0  0  0
  -29.0220  -15.2320   21.7290 H   0  0  0  0  0  0  0  0  0  0  0  0
  -25.1230  -13.9370   20.7130 C   0  0  0  0  0  0  0  0  0  0  0  0
  -24.1450  -13.0540   21.0750 C   0  0  0  0  0  0  0  0  0  0  0  0
  -24.7080  -11.7500   20.9130 C   0  0  0  0  0  0  0  0  0  0  0  0
  -26.2190  -13.1630   20.3640 N   0  0  0  0  0  0  0  0  0  0  0  0
  -25.9760  -11.8390   20.5350 N   0  0  0  0  0  0  0  0  0  0  0  0
  -24.0960  -10.4230   21.0310 C   0  0  0  0  0  0  0  0  0  0  0  0
  -24.6180   -9.4530   21.9140 C   0  0  0  0  0  3  0  0  0  0  0  0
  -24.0050   -8.1870   22.0250 C   0  0  0  0  0  3  0  0  0  0  0  0
  -22.8610   -7.8830   21.2490 C   0  0  0  0  0  0  0  0  0  0  0  0
  -22.3620   -8.8430   20.3520 C   0  0  0  0  0  3  0  0  0  0  0  0
  -22.9740  -10.1020   20.2390 C   0  0  0  0  0  3  0  0  0  0  0  0
  -22.2110   -6.6720   21.2730 O   0  0  0  0  0  0  0  0  0  0  0  0
  -22.1620   -5.9070   22.4080 C   0  0  0  0  0  0  0  0  0  0  0  0
  -21.6140   -6.3940   23.6150 C   0  0  0  0  0  3  0  0  0  0  0  0
  -21.5260   -5.5500   24.7390 C   0  0  0  0  0  3  0  0  0  0  0  0
  -21.9670   -4.2180   24.6540 C   0  0  0  0  0  0  0  0  0  0  0  0
  -22.5090   -3.7280   23.4530 C   0  0  0  0  0  3  0  0  0  0  0  0
  -22.6030   -4.5710   22.3320 C   0  0  0  0  0  0  0  0  0  0  0  0
  -23.1030   -4.0890   21.1690 F   0  0  0  0  0  0  0  0  0  0  0  0
  -21.8760   -3.4010   25.7300 F   0  0  0  0  0  0  0  0  0  0  0  0
  -22.7340  -13.3910   21.4560 C   0  0  0  0  0  0  0  0  0  0  0  0
  -22.1170  -12.5770   22.3060 N   0  0  0  0  0  0  0  0  0  0  0  0
  -22.1840  -14.4080   21.0390 O   0  0  0  0  0  0  0  0  0  0  0  0
  -22.5720  -11.7530   22.6720 H   0  0  0  0  0  0  0  0  0  0  0  0
  -21.1710  -12.7830   22.5910 H   0  0  0  0  0  0  0  0  0  0  0  0
  -25.1690  -15.3290   20.6440 N   0  0  0  0  0  0  0  0  0  0  0  0
  -24.3690  -15.9070   20.8840 H   0  0  0  0  0  0  0  0  0  0  0  0
  -25.9950  -15.8730   20.4380 H   0  0  0  0  0  0  0  0  0  0  0  0
  -27.1430  -18.3870   17.9440 C   0  0  0  0  0  2  0  0  0  0  0  0
  -25.7090  -18.8170   18.3200 C   0  0  0  0  0  2  0  0  0  0  0  0
  -24.9930  -17.8790   19.3140 C   0  0  0  0  0  2  0  0  0  0  0  0
  -22.8090  -16.9670   20.0430 C   0  0  0  0  0  1  0  0  0  0  0  0
  -23.5190  -17.9820   19.2350 N   0  0  0  0  0  4  0  0  0  0  0  0
  -23.2190  -18.8960   19.5300 H   0  0  0  0  0  0  0  0  0  0  0  0
  -23.2280  -17.8770   18.2790 H   0  0  0  0  0  0  0  0  0  0  0  0
  -31.2750  -22.2430   18.6590 C   0  0  0  0  0  2  0  0  0  0  0  0
  -34.7110  -20.5510   18.4070 C   0  0  0  0  0  3  0  0  0  0  0  0
  -35.5750  -21.5020   18.9670 C   0  0  0  0  0  3  0  0  0  0  0  0
  -33.3440  -20.8420   18.2610 C   0  0  0  0  0  3  0  0  0  0  0  0
  -35.0760  -22.7630   19.3410 C   0  0  0  0  0  3  0  0  0  0  0  0
  -32.8060  -22.0770   18.7000 C   0  0  0  0  0  0  0  0  0  0  0  0
  -33.7030  -23.0710   19.2000 C   0  0  0  0  0  0  0  0  0  0  0  0
  -33.2850  -24.5250   19.4170 C   0  0  0  0  0  2  0  0  0  0  0  0
  -32.2670  -24.8030   20.4590 N   0  0  0  0  0  4  0  0  0  0  0  0
  -32.7470  -24.9210   21.3380 H   0  0  0  0  0  0  0  0  0  0  0  0
  -31.6490  -24.0190   20.5600 H   0  0  0  0  0  0  0  0  0  0  0  0
  -31.5150  -26.0420   20.1160 C   0  0  0  0  0  2  0  0  0  0  0  0
  -30.0710  -26.1750   20.6510 C   0  0  0  0  0  2  0  0  0  0  0  0
  -29.4420  -26.9230   19.6090 O   0  0  0  0  0  0  0  0  0  0  0  0
  -25.0880  -31.3270   23.1560 C   0  0  0  0  0  0  0  0  0  0  0  0
  -28.1870  -27.4400   19.8100 C   0  0  0  0  0  0  0  0  0  0  0  0
  -24.0240  -29.8940   21.4440 C   0  0  0  0  0  3  0  0  0  0  0  0
  -25.6280  -28.6220   19.9260 C   0  0  0  0  0  0  0  0  0  0  0  0
  -26.4800  -30.5720   21.2350 C   0  0  0  0  0  2  0  0  0  0  0  0
  -26.7190  -29.2550   20.5310 C   0  0  0  0  0  0  0  0  0  0  0  0
  -28.0050  -28.6710   20.4740 C   0  0  0  0  0  3  0  0  0  0  0  0
  -27.0820  -26.8120   19.2000 C   0  0  0  0  0  3  0  0  0  0  0  0
  -25.8000  -27.3990   19.2580 C   0  0  0  0  0  3  0  0  0  0  0  0
  -24.2880  -29.3170   20.0250 C   0  0  0  0  0  2  0  0  0  0  0  0
  -25.2140  -30.6100   22.0040 N   0  0  0  0  0  0  0  0  0  0  0  0
  -23.9950  -31.4230   23.7300 O   0  0  0  0  0  0  0  0  0  0  0  0
  -23.5280  -28.7410   22.3460 C   0  0  0  0  0  0  0  0  0  0  0  0
  -22.2610  -28.3360   22.1560 N   0  0  0  0  0  0  0  0  0  0  0  0
  -24.2780  -28.2150   23.1700 O   0  0  0  0  0  0  0  0  0  0  0  0
  -21.7040  -28.8260   21.4720 H   0  0  0  0  0  0  0  0  0  0  0  0
  -19.1800  -26.4700   22.3730 C   0  0  0  0  0  0  0  0  0  0  0  0
  -21.5940  -27.2470   22.8660 C   0  0  0  0  0  3  0  0  0  0  0  0
  -22.0400  -25.8680   22.3280 C   0  0  0  0  0  2  0  0  0  0  0  0
  -21.1260  -25.3290   21.2240 C   0  0  0  0  0  2  0  0  0  0  0  0
  -19.6890  -25.1890   21.7380 C   0  0  0  0  0  2  0  0  0  0  0  0
  -20.0730  -27.4440   22.8910 C   0  0  0  0  0  0  0  0  0  0  0  0
  -19.5470  -28.6340   23.4390 C   0  0  0  0  0  3  0  0  0  0  0  0
  -18.1570  -28.8580   23.4770 C   0  0  0  0  0  3  0  0  0  0  0  0
  -17.2760  -27.8820   22.9800 C   0  0  0  0  0  3  0  0  0  0  0  0
  -17.7850  -26.6920   22.4340 C   0  0  0  0  0  3  0  0  0  0  0  0
  -26.3020  -32.0740   23.7950 C   0  0  0  0  0  3  0  0  0  0  0  0
  -26.8930  -31.3420   25.0620 C   0  0  1  0  0  0  0  0  0  0  0  0
  -25.8290  -30.9860   26.1280 C   0  0  0  0  0  1  0  0  0  0  0  0
  -27.6050  -30.0330   24.6470 C   0  0  0  0  0  1  0  0  0  0  0  0
  -27.9610  -32.2330   25.7420 C   0  0  0  0  0  1  0  0  0  0  0  0
  -25.8570  -33.4310   24.1410 N   0  0  0  0  0  0  0  0  0  0  0  0
  -26.1000  -34.5220   23.4020 C   0  0  0  0  0  0  0  0  0  0  0  0
  -26.7950  -34.4990   22.3820 O   0  0  0  0  0  0  0  0  0  0  0  0
  -25.2470  -33.5200   24.9410 H   0  0  0  0  0  0  0  0  0  0  0  0
  -24.2120  -36.1420   23.0440 C   0  0  0  0  0  1  0  0  0  0  0  0
  -25.4740  -35.8490   23.8690 C   0  0  0  0  0  3  0  0  0  0  0  0
  -27.5010  -36.9280   24.7450 C   0  0  0  0  0  1  0  0  0  0  0  0
  -26.4020  -36.9990   23.7850 N   0  0  0  0  0  0  0  0  0  0  0  0
  -25.9040  -37.8700   23.9440 H   0  0  0  0  0  0  0  0  0  0  0  0
  2  6  2  0
  3  1  2  0
  4  3  1  0
  5  4  2  0
  5  2  1  0
  6  1  1  0
  6 19  1  0
  7  3  1  0
  8  9  1  0
  8  4  1  0
  9  7  1  0
  9 10  1  6
 11 19  1  0
 12 17  1  0
 13 14  1  0
 13 12  1  0
 15 14  1  0
 15 24  1  0
 15 16  1  0
 17 11  1  0
 17 16  1  0
 18 11  2  0
 19 20  1  0
 21 22  2  0
 22 41  1  0
 23 26  1  0
 23 22  1  0
 24 25  1  0
 24 21  1  0
 25 23  2  0
 26 27  1  0
 27 28  2  0
 29 32  1  0
 29 28  1  0
 30 29  2  0
 31 30  1  0
 31 26  2  0
 32 33  1  0
 33 34  1  0
 34 35  2  0
 36 35  1  0
 36 40  1  0
 37 36  2  0
 38 33  2  0
 38 37  1  0
 39 38  1  0
 41 42  1  0
 42 45  1  0
 42 44  1  0
 43 41  2  0
 46 21  1  0
 46 47  1  0
 48 46  1  0
 49 50  1  0
 49  5  1  0
 50 51  1  0
 53 51  1  0
 53 54  1  0
 53 52  1  0
 55 53  1  0
 56 61  1  0
 56  9  1  0
 57 58  1  0
 58 60  2  0
 59 57  2  0
 59 61  1  0
 61 62  2  0
 62 60  1  0
 62 63  1  0
 63 64  1  0
 64 66  1  0
 64 65  1  0
 67 64  1  0
 67 68  1  0
 69 71  1  0
 69 68  1  0
 70 81  2  0
 71 76  1  0
 72 80  1  0
 72 82  1  0
 73 79  1  0
 73 75  1  0
 74 80  1  0
 75 74  1  0
 76 75  2  0
 77 78  1  0
 77 71  2  0
 78 73  2  0
 79 72  1  0
 80 70  1  0
 82 84  2  0
 83 82  1  0
 85 83  1  0
 86 95  2  0
 86 91  1  0
 87 83  1  0
 87 91  1  0
 88 87  1  0
 89 90  1  0
 89 88  1  0
 90 86  1  0
 91 92  2  0
 92 93  1  0
 94 93  2  0
 95 94  1  0
 96 70  1  0
 96101  1  0
 96 97  1  0
 97100  1  1
 97 98  1  0
 99 97  1  0
101104  1  0
102106  1  0
102101  1  0
103102  2  0
106105  1  0
108106  1  0
108109  1  0
108107  1  0
M  ISO  4  11 100  19 100  68 101  69 101
M  END
>  <TORSDO>  (56) 
F 26

>  <SCORE>  (56) 
-5.319

>  <name>  (56) 
55

>  <ligand_id>  (56) 
55

>  <original_smiles>  (56) 
[H]c1c([H])c([H])c2c(c1[H])C([H])([H])C([H])([H])C([H])([H])C2([H])N([H])C(=O)C1([H])N(C(=O)C([H])(N([H])C(=O)C([H])(N([H])C([H])([H])[H])C([H])([H])[H])C(C([H])([H])[H])(C([H])([H])[H])C([H])([H])[H])C([H])([H])c2c([H])c(OC([H])([H])C([H])([H])[N+]([H])([H])C([H])([H])c3c([H])c([H])c([H])c([H])c3C([H])([H])[N+]3([H])C([H])([H])c4c([H])c(N([H])C(=O)N5C([H])([H])C([H])([H])C([H])([H])C([H])(n6nc(-c7c([H])c([H])c(Oc8c([H])c([H])c(F)c([H])c8F)c([H])c7[H])c(C(=O)N([H])[H])c6N([H])[H])C5([H])[H])c([H])c(C([H])([H])C([H])([H])C([H])([H])[N+]([H])([H])C([H])([H])[H])c4C3([H])[H])c([H])c([H])c2C1([H])[H]

>  <smiles>  (56) 
[H]c1c([H])c([H])c2c(c1[H])C([H])([H])C([H])([H])C([H])([H])C2([H])N([H])C(=O)C1([H])N(C(=O)C([H])(N([H])C(=O)C([H])(N([H])C([H])([H])[H])C([H])([H])[H])C(C([H])([H])[H])(C([H])([H])[H])C([H])([H])[H])C([H])([H])c2c([H])c(OC([H])([H])C([H])([H])[N+]([H])([H])C([H])([H])c3c([H])c([H])c([H])c([H])c3C([H])([H])[N+]3([H])C([H])([H])c4c([H])c(N([H])C(=O)N5C([H])([H])C([H])([H])C([H])([H])C([H])(n6nc(-c7c([H])c([H])c(Oc8c([H])c([H])c(F)c([H])c8F)c([H])c7[H])c(C(=O)N([H])[H])c6N([H])[H])C5([H])[H])c([H])c(C([H])([H])C([H])([H])C([H])([H])[N+]([H])([H])C([H])([H])[H])c4C3([H])[H])c([H])c([H])c2C1([H])[H]

$$$$
56:0:0
     RDKit          3D

106116  0  0  1  0  0  0  0  0999 V2000
  -29.2390  -24.5060   23.0120 C   0  0  0  0  0  3  0  0  0  0  0  0
  -30.2800  -24.7720   21.8890 C   0  0  0  0  0  0  0  0  0  0  0  0
  -29.5930  -25.6410   18.5390 C   0  0  0  0  0  2  0  0  0  0  0  0
  -28.0000  -26.7100   20.1880 C   0  0  0  0  0  2  0  0  0  0  0  0
  -30.6930  -25.7740   19.6380 C   0  0  0  0  0  2  0  0  0  0  0  0
  -29.1740  -26.8960   21.1430 C   0  0  0  0  0  2  0  0  0  0  0  0
  -28.4760  -26.6920   18.7030 C   0  0  0  0  0  3  0  0  0  0  0  0
  -30.0830  -25.7630   20.9810 N   0  0  0  0  0  0  0  0  0  0  0  0
  -31.2310  -23.9910   21.7970 O   0  0  0  0  0  0  0  0  0  0  0  0
  -27.3710  -26.4680   17.7950 O   0  0  0  0  0  0  0  0  0  0  0  0
  -24.2400  -29.6190   23.2400 C   0  0  0  0  0  0  0  0  0  0  0  0
  -26.2630  -27.1940   18.1620 C   0  0  0  0  0  0  0  0  0  0  0  0
  -22.7380  -28.9600   21.3830 C   0  0  0  0  0  3  0  0  0  0  0  0
  -23.8970  -28.3190   19.1990 C   0  0  0  0  0  0  0  0  0  0  0  0
  -25.1670  -29.6050   20.9320 C   0  0  0  0  0  2  0  0  0  0  0  0
  -25.1350  -28.6620   19.7530 C   0  0  0  0  0  0  0  0  0  0  0  0
  -26.3210  -28.1180   19.2290 C   0  0  0  0  0  3  0  0  0  0  0  0
  -25.0160  -26.8770   17.5850 C   0  0  0  0  0  3  0  0  0  0  0  0
  -23.8280  -27.4320   18.1060 C   0  0  0  0  0  3  0  0  0  0  0  0
  -22.6790  -28.9540   19.8280 C   0  0  0  0  0  2  0  0  0  0  0  0
  -24.0790  -29.3770   21.9070 N   0  0  0  0  0  0  0  0  0  0  0  0
  -23.2820  -29.5430   24.0230 O   0  0  0  0  0  0  0  0  0  0  0  0
  -22.2780  -27.5800   21.9000 C   0  0  0  0  0  0  0  0  0  0  0  0
  -20.9790  -27.2800   21.7260 N   0  0  0  0  0  0  0  0  0  0  0  0
  -23.0800  -26.7960   22.4150 O   0  0  0  0  0  0  0  0  0  0  0  0
  -20.3880  -27.9770   21.2960 H   0  0  0  0  0  0  0  0  0  0  0  0
  -17.8740  -25.4490   21.5320 C   0  0  0  0  0  0  0  0  0  0  0  0
  -20.3260  -26.0260   22.1010 C   0  0  0  0  0  3  0  0  0  0  0  0
  -20.7140  -24.8880   21.1270 C   0  0  0  0  0  2  0  0  0  0  0  0
  -19.7260  -24.7230   19.9670 C   0  0  0  0  0  2  0  0  0  0  0  0
  -18.3200  -24.4300   20.4970 C   0  0  0  0  0  2  0  0  0  0  0  0
  -18.8160  -26.2100   22.2740 C   0  0  0  0  0  0  0  0  0  0  0  0
  -18.3490  -27.1690   23.1970 C   0  0  0  0  0  3  0  0  0  0  0  0
  -16.9700  -27.3720   23.3910 C   0  0  0  0  0  3  0  0  0  0  0  0
  -16.0400  -26.6040   22.6700 C   0  0  0  0  0  3  0  0  0  0  0  0
  -16.4920  -25.6410   21.7480 C   0  0  0  0  0  3  0  0  0  0  0  0
  -25.6230  -30.0220   23.8410 C   0  0  0  0  0  3  0  0  0  0  0  0
  -25.4980  -31.3850   24.3700 N   0  0  0  0  0  0  0  0  0  0  0  0
  -26.1230  -32.4570   23.8650 C   0  0  0  0  0  0  0  0  0  0  0  0
  -26.9340  -32.3850   22.9370 O   0  0  0  0  0  0  0  0  0  0  0  0
  -24.8200  -31.5250   25.1050 H   0  0  0  0  0  0  0  0  0  0  0  0
  -24.9020  -34.6250   23.5260 C   0  0  0  0  0  1  0  0  0  0  0  0
  -25.7980  -33.8270   24.4860 C   0  0  0  0  0  3  0  0  0  0  0  0
  -27.8020  -34.0370   25.8900 C   0  0  0  0  0  1  0  0  0  0  0  0
  -26.9990  -34.6230   24.8200 N   0  0  0  0  0  0  0  0  0  0  0  0
  -26.7410  -35.5650   25.1010 H   0  0  0  0  0  0  0  0  0  0  0  0
  -26.1240  -29.0320   24.9620 C   0  0  1  0  0  0  0  0  0  0  0  0
  -25.0360  -28.6760   26.0000 C   0  0  0  0  0  1  0  0  0  0  0  0
  -26.6310  -27.7120   24.3330 C   0  0  0  0  0  1  0  0  0  0  0  0
  -27.3190  -29.6560   25.7210 C   0  0  0  0  0  1  0  0  0  0  0  0
  -28.5680  -23.2150   22.7290 N   0  0  0  0  0  4  0  0  0  0  0  0
  -29.3050  -22.5310   22.6500 H   0  0  0  0  0  0  0  0  0  0  0  0
  -27.9710  -22.9580   23.4960 H   0  0  0  0  0  0  0  0  0  0  0  0
  -27.7830  -23.1210   21.4780 C   0  0  0  0  0  2  0  0  0  0  0  0
  -29.8080  -21.6810   18.5570 C   0  0  0  0  0  3  0  0  0  0  0  0
  -30.7680  -19.4610   18.2110 C   0  0  0  0  0  3  0  0  0  0  0  0
  -29.0490  -22.5660   19.3420 C   0  0  0  0  0  3  0  0  0  0  0  0
  -30.9150  -18.1240   18.6220 C   0  0  0  0  0  3  0  0  0  0  0  0
  -28.6030  -20.7890   20.9470 C   0  0  0  0  0  3  0  0  0  0  0  0
  -29.5130  -18.5640   20.5750 C   0  0  0  0  0  3  0  0  0  0  0  0
  -29.9800  -20.3480   18.9710 C   0  0  0  0  0  0  0  0  0  0  0  0
  -29.3600  -19.8990   20.1630 C   0  0  0  0  0  0  0  0  0  0  0  0
  -28.4700  -22.1330   20.5530 C   0  0  0  0  0  0  0  0  0  0  0  0
  -30.2640  -17.6690   19.7930 C   0  0  0  0  0  0  0  0  0  0  0  0
  -30.8900  -15.3370   19.5320 C   0  0  0  0  0  0  0  0  0  0  0  0
  -30.8130  -12.9290   19.0450 C   0  0  0  0  0  2  0  0  0  0  0  0
  -29.8360  -12.6550   17.8860 C   0  0  0  0  0  2  0  0  0  0  0  0
  -28.3950  -12.4870   18.4040 C   0  0  0  0  0  2  0  0  0  0  0  0
  -27.9710  -13.6210   19.3740 C   0  0  0  0  0  3  0  0  0  0  0  0
  -29.0570  -13.8620   20.4460 C   0  0  0  0  0  2  0  0  0  0  0  0
  -30.3450  -14.1190   19.7660 N   0  0  0  0  0  0  0  0  0  0  0  0
  -31.8460  -15.5190   18.7700 O   0  0  0  0  0  0  0  0  0  0  0  0
  -30.3410  -16.3330   20.2330 N   0  0  0  0  0  0  0  0  0  0  0  0
  -29.6080  -16.0310   20.8580 H   0  0  0  0  0  0  0  0  0  0  0  0
  -25.6940  -14.2260   20.4190 C   0  0  0  0  0  0  0  0  0  0  0  0
  -24.6410  -13.4510   20.8280 C   0  0  0  0  0  0  0  0  0  0  0  0
  -25.0310  -12.0970   20.5880 C   0  0  0  0  0  0  0  0  0  0  0  0
  -26.6670  -13.3420   19.9740 N   0  0  0  0  0  0  0  0  0  0  0  0
  -26.2730  -12.0510   20.1240 N   0  0  0  0  0  0  0  0  0  0  0  0
  -24.2720  -10.8470   20.7240 C   0  0  0  0  0  0  0  0  0  0  0  0
  -24.6720   -9.8350   21.6240 C   0  0  0  0  0  3  0  0  0  0  0  0
  -23.9160   -8.6480   21.7500 C   0  0  0  0  0  3  0  0  0  0  0  0
  -22.7470   -8.4670   20.9740 C   0  0  0  0  0  0  0  0  0  0  0  0
  -22.3670   -9.4670   20.0620 C   0  0  0  0  0  3  0  0  0  0  0  0
  -23.1230  -10.6450   19.9340 C   0  0  0  0  0  3  0  0  0  0  0  0
  -21.9650   -7.3380   21.0110 O   0  0  0  0  0  0  0  0  0  0  0  0
  -21.6240   -6.7360   22.1960 C   0  0  0  0  0  0  0  0  0  0  0  0
  -20.9550   -7.4380   23.2220 C   0  0  0  0  0  3  0  0  0  0  0  0
  -20.5600   -6.7640   24.3960 C   0  0  0  0  0  3  0  0  0  0  0  0
  -20.8260   -5.3890   24.5420 C   0  0  0  0  0  0  0  0  0  0  0  0
  -21.4870   -4.6870   23.5170 C   0  0  0  0  0  3  0  0  0  0  0  0
  -21.8820   -5.3590   22.3470 C   0  0  0  0  0  0  0  0  0  0  0  0
  -22.5000   -4.6720   21.3560 F   0  0  0  0  0  0  0  0  0  0  0  0
  -20.4400   -4.7390   25.6640 F   0  0  0  0  0  0  0  0  0  0  0  0
  -23.3090  -13.9380   21.3220 C   0  0  0  0  0  0  0  0  0  0  0  0
  -22.7030  -13.2170   22.2600 N   0  0  0  0  0  0  0  0  0  0  0  0
  -22.8220  -14.9920   20.9160 O   0  0  0  0  0  0  0  0  0  0  0  0
  -23.1130  -12.3640   22.6090 H   0  0  0  0  0  0  0  0  0  0  0  0
  -21.8150  -13.5210   22.6320 H   0  0  0  0  0  0  0  0  0  0  0  0
  -25.9000  -15.6010   20.3740 N   0  0  0  0  0  0  0  0  0  0  0  0
  -25.1770  -16.2660   20.6230 H   0  0  0  0  0  0  0  0  0  0  0  0
  -26.7280  -16.0440   19.9920 H   0  0  0  0  0  0  0  0  0  0  0  0
  -30.6960  -25.7040   24.7950 C   0  0  0  0  0  1  0  0  0  0  0  0
  -29.8250  -24.4730   24.4700 C   0  0  0  0  0  3  0  0  0  0  0  0
  -30.5040  -22.8130   26.3570 C   0  0  0  0  0  1  0  0  0  0  0  0
  -30.5420  -23.1480   24.8530 C   0  0  0  0  0  2  0  0  0  0  0  0
  1  2  1  0
  1104  1  0
  3  7  1  0
  3  5  1  0
  4  6  1  0
  5  8  1  0
  7 10  1  0
  7  4  1  0
  8  6  1  0
  8  2  1  0
  9  2  2  0
 10 12  1  0
 11 22  2  0
 12 17  1  0
 13 23  1  0
 13 21  1  0
 14 16  1  0
 14 20  1  0
 15 21  1  0
 16 15  1  0
 17 16  2  0
 18 19  1  0
 18 12  2  0
 19 14  2  0
 20 13  1  0
 21 11  1  0
 23 25  2  0
 24 23  1  0
 26 24  1  0
 27 36  2  0
 27 32  1  0
 28 24  1  0
 28 32  1  0
 29 28  1  0
 30 31  1  0
 30 29  1  0
 31 27  1  0
 32 33  2  0
 33 34  1  0
 35 34  2  0
 36 35  1  0
 37 11  1  0
 37 38  1  0
 37 47  1  0
 38 41  1  0
 39 38  1  0
 39 43  1  0
 40 39  2  0
 43 42  1  0
 43 45  1  0
 45 46  1  0
 45 44  1  0
 47 50  1  1
 47 48  1  0
 49 47  1  0
 51  1  1  0
 51 53  1  0
 52 51  1  0
 54 51  1  0
 55 61  2  0
 55 57  1  0
 56 58  2  0
 56 61  1  0
 57 63  2  0
 58 64  1  0
 61 62  1  0
 62 60  1  0
 62 59  2  0
 63 59  1  0
 63 54  1  0
 64 73  1  0
 64 60  2  0
 65 71  1  0
 65 73  1  0
 66 71  1  0
 67 68  1  0
 67 66  1  0
 69 68  1  0
 69 78  1  0
 69 70  1  0
 71 70  1  0
 72 65  2  0
 73 74  1  0
 75 76  2  0
 76 95  1  0
 77 80  1  0
 77 76  1  0
 78 79  1  0
 78 75  1  0
 79 77  2  0
 80 81  1  0
 81 82  2  0
 83 86  1  0
 83 82  1  0
 84 83  2  0
 85 84  1  0
 85 80  2  0
 86 87  1  0
 87 92  2  0
 87 88  1  0
 88 89  2  0
 89 90  1  0
 90 94  1  0
 91 90  2  0
 92 91  1  0
 93 92  1  0
 95 96  1  0
 96 98  1  0
 96 99  1  0
 97 95  2  0
100 75  1  0
100101  1  0
102100  1  0
104103  1  0
104106  1  0
106105  1  0
M  ISO  4   7 101  10 101  65 100  73 100
M  END
>  <TORSDO>  (57) 
F 22

>  <SCORE>  (57) 
-2.835

>  <name>  (57) 
56

>  <ligand_id>  (57) 
56

>  <original_smiles>  (57) 
[H]c1c([H])c([H])c2c(c1[H])C([H])([H])C([H])([H])C([H])([H])C2([H])N([H])C(=O)C1([H])N(C(=O)C([H])(N([H])C(=O)C([H])(N([H])C([H])([H])[H])C([H])([H])[H])C(C([H])([H])[H])(C([H])([H])[H])C([H])([H])[H])C([H])([H])c2c([H])c(OC3([H])C([H])([H])C([H])([H])N(C(=O)C([H])(C([H])(C([H])([H])[H])C([H])([H])C([H])([H])[H])[N+]([H])([H])C([H])([H])c4c([H])c([H])c5c([H])c([H])c(N([H])C(=O)N6C([H])([H])C([H])([H])C([H])([H])C([H])(n7nc(-c8c([H])c([H])c(Oc9c([H])c([H])c(F)c([H])c9F)c([H])c8[H])c(C(=O)N([H])[H])c7N([H])[H])C6([H])[H])c([H])c5c4[H])C([H])([H])C3([H])[H])c([H])c([H])c2C1([H])[H]

>  <smiles>  (57) 
[H]c1c([H])c([H])c2c(c1[H])C([H])([H])C([H])([H])C([H])([H])C2([H])N([H])C(=O)C1([H])N(C(=O)C([H])(N([H])C(=O)C([H])(N([H])C([H])([H])[H])C([H])([H])[H])C(C([H])([H])[H])(C([H])([H])[H])C([H])([H])[H])C([H])([H])c2c([H])c(OC3([H])C([H])([H])C([H])([H])N(C(=O)C([H])(C([H])(C([H])([H])[H])C([H])([H])C([H])([H])[H])[N+]([H])([H])C([H])([H])c4c([H])c([H])c5c([H])c([H])c(N([H])C(=O)N6C([H])([H])C([H])([H])C([H])([H])C([H])(n7nc(-c8c([H])c([H])c(Oc9c([H])c([H])c(F)c([H])c9F)c([H])c8[H])c(C(=O)N([H])[H])c7N([H])[H])C6([H])[H])c([H])c5c4[H])C([H])([H])C3([H])[H])c([H])c([H])c2C1([H])[H]

$$$$
57:0:0
     RDKit          3D

100109  0  0  1  0  0  0  0  0999 V2000
  -27.4460  -22.2570   20.4430 C   0  0  0  0  0  0  0  0  0  0  0  0
  -28.1290  -21.1720   20.8150 N   0  0  0  0  0  0  0  0  0  0  0  0
  -27.2110  -22.5300   19.2620 O   0  0  0  0  0  0  0  0  0  0  0  0
  -28.2590  -20.9960   21.8010 H   0  0  0  0  0  0  0  0  0  0  0  0
  -24.8740  -24.3770   21.9970 C   0  0  0  0  0  2  0  0  0  0  0  0
  -25.5160  -22.9870   21.9420 C   0  0  0  0  0  2  0  0  0  0  0  0
  -26.0240  -25.3670   21.7790 C   0  0  0  0  0  2  0  0  0  0  0  0
  -26.9880  -23.2130   21.5490 C   0  0  0  0  0  3  0  0  0  0  0  0
  -27.0930  -24.6170   21.0850 N   0  0  2  0  0  4  0  0  0  0  0  0
  -26.8390  -24.5450   20.1060 H   0  0  0  0  0  0  0  0  0  0  0  0
  -28.4570  -25.2270   21.1750 C   0  0  0  0  0  2  0  0  0  0  0  0
  -28.9840  -25.7750   19.8190 C   0  0  0  0  0  2  0  0  0  0  0  0
  -28.9450  -27.2070   19.7630 O   0  0  0  0  0  0  0  0  0  0  0  0
  -24.6330  -31.7540   23.0890 C   0  0  0  0  0  0  0  0  0  0  0  0
  -27.7070  -27.8100   19.7610 C   0  0  0  0  0  0  0  0  0  0  0  0
  -23.5800  -30.3520   21.3440 C   0  0  0  0  0  3  0  0  0  0  0  0
  -25.1850  -29.0660   19.8450 C   0  0  0  0  0  0  0  0  0  0  0  0
  -26.0650  -30.9670   21.2120 C   0  0  0  0  0  2  0  0  0  0  0  0
  -26.2840  -29.6620   20.4770 C   0  0  0  0  0  0  0  0  0  0  0  0
  -27.5490  -29.0410   20.4310 C   0  0  0  0  0  3  0  0  0  0  0  0
  -26.5910  -27.2280   19.1190 C   0  0  0  0  0  3  0  0  0  0  0  0
  -25.3320  -27.8500   19.1630 C   0  0  0  0  0  3  0  0  0  0  0  0
  -23.8670  -29.7950   19.9240 C   0  0  0  0  0  2  0  0  0  0  0  0
  -24.7750  -31.0380   21.9400 N   0  0  0  0  0  0  0  0  0  0  0  0
  -23.5270  -31.8820   23.6300 O   0  0  0  0  0  0  0  0  0  0  0  0
  -23.0310  -29.2080   22.2240 C   0  0  0  0  0  0  0  0  0  0  0  0
  -21.7290  -28.9110   22.0720 N   0  0  0  0  0  0  0  0  0  0  0  0
  -23.7710  -28.5940   22.9980 O   0  0  0  0  0  0  0  0  0  0  0  0
  -21.1970  -29.4590   21.4120 H   0  0  0  0  0  0  0  0  0  0  0  0
  -18.4720  -27.4020   22.4780 C   0  0  0  0  0  0  0  0  0  0  0  0
  -20.9980  -27.8560   22.7740 C   0  0  0  0  0  3  0  0  0  0  0  0
  -21.2210  -26.4820   22.1050 C   0  0  0  0  0  2  0  0  0  0  0  0
  -20.1510  -26.1280   21.0690 C   0  0  0  0  0  2  0  0  0  0  0  0
  -18.7600  -26.1220   21.7100 C   0  0  0  0  0  2  0  0  0  0  0  0
  -19.5220  -28.2250   22.9620 C   0  0  0  0  0  0  0  0  0  0  0  0
  -19.2030  -29.4170   23.6450 C   0  0  0  0  0  3  0  0  0  0  0  0
  -17.8610  -29.7930   23.8480 C   0  0  0  0  0  3  0  0  0  0  0  0
  -16.8230  -28.9690   23.3770 C   0  0  0  0  0  3  0  0  0  0  0  0
  -17.1290  -27.7750   22.6990 C   0  0  0  0  0  3  0  0  0  0  0  0
  -25.8480  -32.4610   23.7690 C   0  0  0  0  0  3  0  0  0  0  0  0
  -25.4230  -33.8230   24.1190 N   0  0  0  0  0  0  0  0  0  0  0  0
  -25.6810  -34.9120   23.3820 C   0  0  0  0  0  0  0  0  0  0  0  0
  -26.3700  -34.8820   22.3580 O   0  0  0  0  0  0  0  0  0  0  0  0
  -24.8080  -33.9160   24.9130 H   0  0  0  0  0  0  0  0  0  0  0  0
  -23.8030  -36.5520   23.0510 C   0  0  0  0  0  1  0  0  0  0  0  0
  -25.0760  -36.2470   23.8560 C   0  0  0  0  0  3  0  0  0  0  0  0
  -27.1270  -37.3040   24.6970 C   0  0  0  0  0  1  0  0  0  0  0  0
  -26.0140  -37.3860   23.7540 N   0  0  0  0  0  0  0  0  0  0  0  0
  -25.5310  -38.2670   23.9110 H   0  0  0  0  0  0  0  0  0  0  0  0
  -26.3870  -31.6970   25.0410 C   0  0  1  0  0  0  0  0  0  0  0  0
  -25.2850  -31.3550   26.0700 C   0  0  0  0  0  1  0  0  0  0  0  0
  -27.0860  -30.3760   24.6370 C   0  0  0  0  0  1  0  0  0  0  0  0
  -27.4550  -32.5580   25.7540 C   0  0  0  0  0  1  0  0  0  0  0  0
  -28.8050  -20.2880   19.8770 C   0  0  0  0  0  2  0  0  0  0  0  0
  -31.4320  -17.4580   21.9070 C   0  0  0  0  0  3  0  0  0  0  0  0
  -31.6400  -18.8390   22.0350 C   0  0  0  0  0  3  0  0  0  0  0  0
  -29.5150  -17.8830   20.4330 C   0  0  0  0  0  0  0  0  0  0  0  0
  -29.7170  -19.2820   20.5780 C   0  0  0  0  0  0  0  0  0  0  0  0
  -30.3670  -16.9770   21.1230 C   0  0  0  0  0  0  0  0  0  0  0  0
  -30.7830  -19.7500   21.3900 C   0  0  0  0  0  0  0  0  0  0  0  0
  -28.4060  -17.3620   19.5260 C   0  0  0  0  0  1  0  0  0  0  0  0
  -31.0630  -21.4410   21.6240 Cl  0  0  0  0  0  0  0  0  0  0  0  0
  -30.6750  -14.7340   20.2260 C   0  0  0  0  0  0  0  0  0  0  0  0
  -30.3290  -12.6260   18.9990 C   0  0  0  0  0  2  0  0  0  0  0  0
  -29.3290  -12.8430   17.8460 C   0  0  0  0  0  2  0  0  0  0  0  0
  -27.8760  -12.6630   18.3320 C   0  0  0  0  0  2  0  0  0  0  0  0
  -27.5820  -13.4650   19.6260 C   0  0  0  0  0  3  0  0  0  0  0  0
  -28.6890  -13.2430   20.6820 C   0  0  0  0  0  2  0  0  0  0  0  0
  -29.9940  -13.5700   20.0740 N   0  0  0  0  0  0  0  0  0  0  0  0
  -31.6990  -15.0150   19.5930 O   0  0  0  0  0  0  0  0  0  0  0  0
  -30.1310  -15.5860   21.1030 N   0  0  0  0  0  0  0  0  0  0  0  0
  -29.3060  -15.2540   21.5800 H   0  0  0  0  0  0  0  0  0  0  0  0
  -25.2240  -14.0460   20.4800 C   0  0  0  0  0  0  0  0  0  0  0  0
  -24.1780  -13.2570   20.8720 C   0  0  0  0  0  0  0  0  0  0  0  0
  -24.6440  -11.9120   20.7710 C   0  0  0  0  0  0  0  0  0  0  0  0
  -26.2560  -13.1760   20.1600 N   0  0  0  0  0  0  0  0  0  0  0  0
  -25.9140  -11.8860   20.3920 N   0  0  0  0  0  0  0  0  0  0  0  0
  -23.9370  -10.6400   20.9550 C   0  0  0  0  0  0  0  0  0  0  0  0
  -24.4030   -9.6610   21.8610 C   0  0  0  0  0  3  0  0  0  0  0  0
  -23.6970   -8.4520   22.0310 C   0  0  0  0  0  3  0  0  0  0  0  0
  -22.5110   -8.2130   21.2970 C   0  0  0  0  0  0  0  0  0  0  0  0
  -22.0630   -9.1800   20.3820 C   0  0  0  0  0  3  0  0  0  0  0  0
  -22.7700  -10.3820   20.2080 C   0  0  0  0  0  3  0  0  0  0  0  0
  -21.7720   -7.0570   21.3830 O   0  0  0  0  0  0  0  0  0  0  0  0
  -21.7400   -6.3080   22.5290 C   0  0  0  0  0  0  0  0  0  0  0  0
  -21.2960   -6.8430   23.7580 C   0  0  0  0  0  3  0  0  0  0  0  0
  -21.2110   -6.0170   24.8950 C   0  0  0  0  0  3  0  0  0  0  0  0
  -21.5620   -4.6560   24.8060 C   0  0  0  0  0  0  0  0  0  0  0  0
  -21.9990   -4.1210   23.5830 C   0  0  0  0  0  3  0  0  0  0  0  0
  -22.0850   -4.9440   22.4460 C   0  0  0  0  0  0  0  0  0  0  0  0
  -22.4870   -4.4180   21.2640 F   0  0  0  0  0  0  0  0  0  0  0  0
  -21.4730   -3.8590   25.8980 F   0  0  0  0  0  0  0  0  0  0  0  0
  -22.7940  -13.7170   21.2300 C   0  0  0  0  0  0  0  0  0  0  0  0
  -22.1150  -12.9880   22.1100 N   0  0  0  0  0  0  0  0  0  0  0  0
  -22.3250  -14.7540   20.7660 O   0  0  0  0  0  0  0  0  0  0  0  0
  -22.5080  -12.1470   22.5060 H   0  0  0  0  0  0  0  0  0  0  0  0
  -21.1890  -13.2780   22.3930 H   0  0  0  0  0  0  0  0  0  0  0  0
  -25.3740  -15.4240   20.3560 N   0  0  0  0  0  0  0  0  0  0  0  0
  -24.6220  -16.0650   20.5830 H   0  0  0  0  0  0  0  0  0  0  0  0
  -26.2110  -15.8900   20.0360 H   0  0  0  0  0  0  0  0  0  0  0  0
  1  2  1  0
  2  4  1  0
  3  1  2  0
  6  5  1  0
  7  5  1  0
  8  1  1  0
  8  6  1  0
  9 11  1  0
  9  8  1  0
  9  7  1  0
  9 10  1  6
 12 11  1  0
 13 12  1  0
 14 25  2  0
 15 13  1  0
 15 20  1  0
 16 24  1  0
 16 26  1  0
 17 23  1  0
 17 19  1  0
 18 24  1  0
 19 18  1  0
 20 19  2  0
 21 22  1  0
 21 15  2  0
 22 17  2  0
 23 16  1  0
 24 14  1  0
 26 28  2  0
 27 26  1  0
 29 27  1  0
 30 39  2  0
 30 35  1  0
 31 27  1  0
 31 35  1  0
 32 31  1  0
 33 34  1  0
 33 32  1  0
 34 30  1  0
 35 36  2  0
 36 37  1  0
 38 37  2  0
 39 38  1  0
 40 14  1  0
 40 41  1  0
 40 50  1  0
 41 44  1  0
 42 46  1  0
 42 41  1  0
 43 42  2  0
 46 45  1  0
 48 46  1  0
 48 49  1  0
 48 47  1  0
 50 53  1  1
 50 51  1  0
 52 50  1  0
 54 58  1  0
 54  2  1  0
 55 56  1  0
 57 58  2  0
 57 59  1  0
 58 60  1  0
 59 55  2  0
 60 62  1  0
 60 56  2  0
 61 57  1  0
 63 71  1  0
 64 69  1  0
 65 66  1  0
 65 64  1  0
 67 66  1  0
 67 76  1  0
 67 68  1  0
 69 63  1  0
 69 68  1  0
 70 63  2  0
 71 59  1  0
 71 72  1  0
 73 74  2  0
 74 93  1  0
 75 74  1  0
 75 78  1  0
 76 77  1  0
 76 73  1  0
 77 75  2  0
 78 79  1  0
 79 80  2  0
 81 84  1  0
 81 80  1  0
 82 81  2  0
 83 82  1  0
 83 78  2  0
 84 85  1  0
 85 86  1  0
 86 87  2  0
 88 87  1  0
 88 92  1  0
 89 88  2  0
 90 85  2  0
 90 89  1  0
 91 90  1  0
 93 94  1  0
 94 97  1  0
 94 96  1  0
 95 93  2  0
 98 73  1  0
 98 99  1  0
100 98  1  0
M  ISO  4  12 101  13 101  63 100  71 100
M  END
>  <TORSDO>  (58) 
F 21

>  <SCORE>  (58) 
-12.808

>  <name>  (58) 
57

>  <ligand_id>  (58) 
57

>  <original_smiles>  (58) 
[H]c1c([H])c([H])c2c(c1[H])C([H])([H])C([H])([H])C([H])([H])C2([H])N([H])C(=O)C1([H])N(C(=O)C([H])(N([H])C(=O)C([H])(N([H])C([H])([H])[H])C([H])([H])[H])C(C([H])([H])[H])(C([H])([H])[H])C([H])([H])[H])C([H])([H])c2c([H])c(OC([H])([H])C([H])([H])[N+]3([H])C([H])([H])C([H])([H])C([H])([H])C3([H])C(=O)N([H])C([H])([H])c3c(Cl)c([H])c([H])c(N([H])C(=O)N4C([H])([H])C([H])([H])C([H])([H])C([H])(n5nc(-c6c([H])c([H])c(Oc7c([H])c([H])c(F)c([H])c7F)c([H])c6[H])c(C(=O)N([H])[H])c5N([H])[H])C4([H])[H])c3C([H])([H])[H])c([H])c([H])c2C1([H])[H]

>  <smiles>  (58) 
[H]c1c([H])c([H])c2c(c1[H])C([H])([H])C([H])([H])C([H])([H])C2([H])N([H])C(=O)C1([H])N(C(=O)C([H])(N([H])C(=O)C([H])(N([H])C([H])([H])[H])C([H])([H])[H])C(C([H])([H])[H])(C([H])([H])[H])C([H])([H])[H])C([H])([H])c2c([H])c(OC([H])([H])C([H])([H])[N+]3([H])C([H])([H])C([H])([H])C([H])([H])C3([H])C(=O)N([H])C([H])([H])c3c(Cl)c([H])c([H])c(N([H])C(=O)N4C([H])([H])C([H])([H])C([H])([H])C([H])(n5nc(-c6c([H])c([H])c(Oc7c([H])c([H])c(F)c([H])c7F)c([H])c6[H])c(C(=O)N([H])[H])c5N([H])[H])C4([H])[H])c3C([H])([H])[H])c([H])c([H])c2C1([H])[H]

$$$$
58:0:0
     RDKit          3D

108117  0  0  1  0  0  0  0  0999 V2000
  -30.5370  -18.2010   25.0640 C   0  0  0  0  0  0  0  0  0  0  0  0
  -29.5450  -18.3950   24.1940 N   0  0  0  0  0  0  0  0  0  0  0  0
  -31.2160  -19.1120   25.5410 O   0  0  0  0  0  0  0  0  0  0  0  0
  -29.0020  -17.5790   23.9450 H   0  0  0  0  0  0  0  0  0  0  0  0
  -31.7990  -15.0870   26.8490 C   0  0  0  0  0  3  0  0  0  0  0  0
  -31.3800  -16.4070   26.6220 C   0  0  0  0  0  3  0  0  0  0  0  0
  -31.6850  -14.1230   25.8260 C   0  0  0  0  0  3  0  0  0  0  0  0
  -30.6450  -15.7720   24.3910 C   0  0  0  0  0  3  0  0  0  0  0  0
  -30.8230  -16.7660   25.3810 C   0  0  0  0  0  0  0  0  0  0  0  0
  -31.0920  -14.4480   24.5780 C   0  0  0  0  0  0  0  0  0  0  0  0
  -30.9020  -13.4710   23.3980 C   0  0  0  0  0  3  0  0  0  0  0  0
  -30.9610  -14.1410   20.8690 C   0  0  0  0  0  0  0  0  0  0  0  0
  -30.4240  -12.3050   19.3540 C   0  0  0  0  0  2  0  0  0  0  0  0
  -29.4570  -12.5600   18.1930 C   0  0  0  0  0  2  0  0  0  0  0  0
  -28.0160  -12.3290   18.6460 C   0  0  0  0  0  2  0  0  0  0  0  0
  -27.6690  -13.2030   19.8670 C   0  0  0  0  0  3  0  0  0  0  0  0
  -28.7150  -13.0480   21.0010 C   0  0  0  0  0  2  0  0  0  0  0  0
  -30.1000  -13.1620   20.5050 N   0  0  0  0  0  0  0  0  0  0  0  0
  -31.6630  -14.7560   20.0600 O   0  0  0  0  0  0  0  0  0  0  0  0
  -31.3490  -14.1520   22.1590 N   0  0  0  0  0  0  0  0  0  0  0  0
  -32.1070  -14.7970   22.3250 H   0  0  0  0  0  0  0  0  0  0  0  0
  -25.2670  -13.8150   20.5710 C   0  0  0  0  0  0  0  0  0  0  0  0
  -24.1920  -13.0410   20.9240 C   0  0  0  0  0  0  0  0  0  0  0  0
  -24.6480  -11.6890   20.8760 C   0  0  0  0  0  0  0  0  0  0  0  0
  -26.3110  -12.9320   20.3360 N   0  0  0  0  0  0  0  0  0  0  0  0
  -25.9400  -11.6460   20.5780 N   0  0  0  0  0  0  0  0  0  0  0  0
  -23.9140  -10.4260   21.0380 C   0  0  0  0  0  0  0  0  0  0  0  0
  -24.3660   -9.4150   21.9150 C   0  0  0  0  0  3  0  0  0  0  0  0
  -23.6280   -8.2230   22.0750 C   0  0  0  0  0  3  0  0  0  0  0  0
  -22.4280   -8.0270   21.3550 C   0  0  0  0  0  0  0  0  0  0  0  0
  -21.9940   -9.0270   20.4680 C   0  0  0  0  0  3  0  0  0  0  0  0
  -22.7310  -10.2120   20.3040 C   0  0  0  0  0  3  0  0  0  0  0  0
  -21.6660   -6.8850   21.4260 O   0  0  0  0  0  0  0  0  0  0  0  0
  -21.6850   -6.0690   22.5290 C   0  0  0  0  0  0  0  0  0  0  0  0
  -21.3990   -6.5610   23.8220 C   0  0  0  0  0  3  0  0  0  0  0  0
  -21.3640   -5.6780   24.9200 C   0  0  0  0  0  3  0  0  0  0  0  0
  -21.6060   -4.3040   24.7270 C   0  0  0  0  0  0  0  0  0  0  0  0
  -21.8810   -3.8110   23.4400 C   0  0  0  0  0  3  0  0  0  0  0  0
  -21.9180   -4.6900   22.3430 C   0  0  0  0  0  0  0  0  0  0  0  0
  -22.1650   -4.2080   21.1020 F   0  0  0  0  0  0  0  0  0  0  0  0
  -21.5680   -3.4530   25.7780 F   0  0  0  0  0  0  0  0  0  0  0  0
  -22.7950  -13.5180   21.1890 C   0  0  0  0  0  0  0  0  0  0  0  0
  -22.0600  -12.8190   22.0490 N   0  0  0  0  0  0  0  0  0  0  0  0
  -22.3610  -14.5440   20.6690 O   0  0  0  0  0  0  0  0  0  0  0  0
  -22.4110  -11.9760   22.4810 H   0  0  0  0  0  0  0  0  0  0  0  0
  -21.1190  -13.1230   22.2590 H   0  0  0  0  0  0  0  0  0  0  0  0
  -25.4400  -15.1850   20.4070 N   0  0  0  0  0  0  0  0  0  0  0  0
  -24.6840  -15.8520   20.5220 H   0  0  0  0  0  0  0  0  0  0  0  0
  -26.2990  -15.6170   20.0940 H   0  0  0  0  0  0  0  0  0  0  0  0
  -33.4040  -10.6250   23.9860 C   0  0  0  0  0  2  0  0  0  0  0  0
  -33.0390  -11.9540   23.3260 C   0  0  0  0  0  2  0  0  0  0  0  0
  -32.4380  -10.5360   25.1670 C   0  0  0  0  0  2  0  0  0  0  0  0
  -31.5180  -12.0300   23.5140 C   0  0  0  0  0  3  0  0  0  0  0  0
  -30.0170  -10.4030   24.6920 C   0  0  0  0  0  1  0  0  0  0  0  0
  -31.2120  -11.2720   24.7630 N   0  0  1  0  0  4  0  0  0  0  0  0
  -31.0240  -11.9400   25.4960 H   0  0  0  0  0  0  0  0  0  0  0  0
  -29.4290  -19.5480   23.3310 C   0  0  0  0  0  2  0  0  0  0  0  0
  -28.6920  -19.1380   22.0490 C   0  0  0  0  0  2  0  0  0  0  0  0
  -29.0030  -20.0940   20.8960 C   0  0  0  0  0  2  0  0  0  0  0  0
  -27.8340  -20.3190   19.9380 C   0  0  0  0  0  2  0  0  0  0  0  0
  -28.0640  -21.5820   19.0880 C   0  0  0  0  0  2  0  0  0  0  0  0
  -25.9860  -22.4060   18.1160 C   0  0  0  0  0  1  0  0  0  0  0  0
  -26.9220  -22.5080   19.2590 N   0  0  2  0  0  4  0  0  0  0  0  0
  -26.4180  -22.1650   20.0650 H   0  0  0  0  0  0  0  0  0  0  0  0
  -27.2330  -23.9300   19.5740 C   0  0  0  0  0  2  0  0  0  0  0  0
  -28.3770  -24.2420   20.5710 C   0  0  0  0  0  2  0  0  0  0  0  0
  -28.3470  -25.6900   21.1170 C   0  0  0  0  0  2  0  0  0  0  0  0
  -28.3550  -26.6870   20.0840 O   0  0  0  0  0  0  0  0  0  0  0  0
  -24.6120  -31.8710   23.2180 C   0  0  0  0  0  0  0  0  0  0  0  0
  -27.2200  -27.4620   20.0800 C   0  0  0  0  0  0  0  0  0  0  0  0
  -23.3970  -30.4970   21.5560 C   0  0  0  0  0  3  0  0  0  0  0  0
  -24.8450  -28.9780   20.1140 C   0  0  0  0  0  0  0  0  0  0  0  0
  -25.9250  -30.8410   21.3740 C   0  0  0  0  0  2  0  0  0  0  0  0
  -26.0030  -29.4800   20.7220 C   0  0  0  0  0  0  0  0  0  0  0  0
  -27.1960  -28.7200   20.7180 C   0  0  0  0  0  3  0  0  0  0  0  0
  -26.0570  -27.0020   19.4290 C   0  0  0  0  0  3  0  0  0  0  0  0
  -24.8640  -27.7370   19.4640 C   0  0  0  0  0  3  0  0  0  0  0  0
  -23.6050  -29.8390   20.1680 C   0  0  0  0  0  2  0  0  0  0  0  0
  -24.6620  -31.0830   22.1070 N   0  0  0  0  0  0  0  0  0  0  0  0
  -23.5320  -32.1470   23.7580 O   0  0  0  0  0  0  0  0  0  0  0  0
  -22.7390  -29.4670   22.5010 C   0  0  0  0  0  0  0  0  0  0  0  0
  -21.4120  -29.3030   22.3750 N   0  0  0  0  0  0  0  0  0  0  0  0
  -23.4180  -28.8180   23.3020 O   0  0  0  0  0  0  0  0  0  0  0  0
  -20.9260  -29.8770   21.6990 H   0  0  0  0  0  0  0  0  0  0  0  0
  -18.0280  -28.1370   22.8470 C   0  0  0  0  0  0  0  0  0  0  0  0
  -20.5850  -28.3640   23.1330 C   0  0  0  0  0  3  0  0  0  0  0  0
  -20.6780  -26.9400   22.5410 C   0  0  0  0  0  2  0  0  0  0  0  0
  -19.5770  -26.6390   21.5190 C   0  0  0  0  0  2  0  0  0  0  0  0
  -18.1930  -26.7930   22.1600 C   0  0  0  0  0  2  0  0  0  0  0  0
  -19.1510  -28.8830   23.2900 C   0  0  0  0  0  0  0  0  0  0  0  0
  -18.9460  -30.1420   23.8910 C   0  0  0  0  0  3  0  0  0  0  0  0
  -17.6450  -30.6580   24.0550 C   0  0  0  0  0  3  0  0  0  0  0  0
  -16.5340  -29.9080   23.6320 C   0  0  0  0  0  3  0  0  0  0  0  0
  -16.7260  -28.6510   23.0340 C   0  0  0  0  0  3  0  0  0  0  0  0
  -25.9040  -32.4840   23.8430 C   0  0  0  0  0  3  0  0  0  0  0  0
  -25.5930  -33.8640   24.2360 N   0  0  0  0  0  0  0  0  0  0  0  0
  -25.9010  -34.9470   23.5130 C   0  0  0  0  0  0  0  0  0  0  0  0
  -26.5540  -34.8910   22.4660 O   0  0  0  0  0  0  0  0  0  0  0  0
  -25.0140  -33.9800   25.0550 H   0  0  0  0  0  0  0  0  0  0  0  0
  -24.1510  -36.7320   23.2610 C   0  0  0  0  0  1  0  0  0  0  0  0
  -25.4120  -36.3110   24.0330 C   0  0  0  0  0  3  0  0  0  0  0  0
  -27.5610  -37.1800   24.8450 C   0  0  0  0  0  1  0  0  0  0  0  0
  -26.4320  -37.3790   23.9390 N   0  0  0  0  0  0  0  0  0  0  0  0
  -26.0210  -38.2870   24.1400 H   0  0  0  0  0  0  0  0  0  0  0  0
  -26.4490  -31.6580   25.0730 C   0  0  1  0  0  0  0  0  0  0  0  0
  -25.3760  -31.3760   26.1490 C   0  0  0  0  0  1  0  0  0  0  0  0
  -27.0220  -30.2990   24.6050 C   0  0  0  0  0  1  0  0  0  0  0  0
  -27.6090  -32.4270   25.7480 C   0  0  0  0  0  1  0  0  0  0  0  0
  1  9  1  0
  1  3  2  0
  2  1  1  0
  4  2  1  0
  6  5  1  0
  7  5  2  0
  8 10  2  0
  8  9  1  0
  9  6  2  0
 10  7  1  0
 11 20  1  0
 11 10  1  0
 12 20  1  0
 13 18  1  0
 14 15  1  0
 14 13  1  0
 16 15  1  0
 16 25  1  0
 16 17  1  0
 18 12  1  0
 18 17  1  0
 19 12  2  0
 20 21  1  0
 22 23  2  0
 23 42  1  0
 24 23  1  0
 24 27  1  0
 25 22  1  0
 25 26  1  0
 26 24  2  0
 27 28  1  0
 28 29  2  0
 30 33  1  0
 30 29  1  0
 31 30  2  0
 32 31  1  0
 32 27  2  0
 33 34  1  0
 34 35  1  0
 35 36  2  0
 37 36  1  0
 37 41  1  0
 38 37  2  0
 39 34  2  0
 39 38  1  0
 40 39  1  0
 42 43  1  0
 43 46  1  0
 43 45  1  0
 44 42  2  0
 47 48  1  0
 47 22  1  0
 49 47  1  0
 50 52  1  0
 51 53  1  0
 51 50  1  0
 53 11  1  0
 53 55  1  0
 54 55  1  0
 55 52  1  0
 55 56  1  1
 57  2  1  0
 58 57  1  0
 59 58  1  0
 60 59  1  0
 61 63  1  0
 61 60  1  0
 62 63  1  0
 63 65  1  0
 63 64  1  1
 65 66  1  0
 66 67  1  0
 68 67  1  0
 69 80  2  0
 70 68  1  0
 70 75  1  0
 71 79  1  0
 71 81  1  0
 72 78  1  0
 72 74  1  0
 73 79  1  0
 74 73  1  0
 75 74  2  0
 76 77  1  0
 76 70  2  0
 77 72  2  0
 78 71  1  0
 79 69  1  0
 81 83  2  0
 82 81  1  0
 84 82  1  0
 85 94  2  0
 85 90  1  0
 86 82  1  0
 86 90  1  0
 87 86  1  0
 88 89  1  0
 88 87  1  0
 89 85  1  0
 90 91  2  0
 91 92  1  0
 93 92  2  0
 94 93  1  0
 95 69  1  0
 95 96  1  0
 95105  1  0
 96 99  1  0
 97101  1  0
 97 96  1  0
 98 97  2  0
101100  1  0
103101  1  0
103104  1  0
103102  1  0
105108  1  1
105106  1  0
107105  1  0
M  ISO  4  12 100  20 100  67 101  68 101
M  END
>  <TORSDO>  (59) 
F 28

>  <SCORE>  (59) 
42.243

>  <name>  (59) 
58

>  <ligand_id>  (59) 
58

>  <original_smiles>  (59) 
[H]c1c([H])c([H])c2c(c1[H])C([H])([H])C([H])([H])C([H])([H])C2([H])N([H])C(=O)C1([H])N(C(=O)C([H])(N([H])C(=O)C([H])(N([H])C([H])([H])[H])C([H])([H])[H])C(C([H])([H])[H])(C([H])([H])[H])C([H])([H])[H])C([H])([H])c2c([H])c(OC([H])([H])C([H])([H])C([H])([H])[N+]([H])(C([H])([H])[H])C([H])([H])C([H])([H])C([H])([H])C([H])([H])C([H])([H])N([H])C(=O)c3c([H])c([H])c([H])c(C([H])(N([H])C(=O)N4C([H])([H])C([H])([H])C([H])([H])C([H])(n5nc(-c6c([H])c([H])c(Oc7c([H])c([H])c(F)c([H])c7F)c([H])c6[H])c(C(=O)N([H])[H])c5N([H])[H])C4([H])[H])C4([H])C([H])([H])C([H])([H])C([H])([H])[N+]4([H])C([H])([H])[H])c3[H])c([H])c([H])c2C1([H])[H]

>  <smiles>  (59) 
[H]c1c([H])c([H])c2c(c1[H])C([H])([H])C([H])([H])C([H])([H])C2([H])N([H])C(=O)C1([H])N(C(=O)C([H])(N([H])C(=O)C([H])(N([H])C([H])([H])[H])C([H])([H])[H])C(C([H])([H])[H])(C([H])([H])[H])C([H])([H])[H])C([H])([H])c2c([H])c(OC([H])([H])C([H])([H])C([H])([H])[N+]([H])(C([H])([H])[H])C([H])([H])C([H])([H])C([H])([H])C([H])([H])C([H])([H])N([H])C(=O)c3c([H])c([H])c([H])c(C([H])(N([H])C(=O)N4C([H])([H])C([H])([H])C([H])([H])C([H])(n5nc(-c6c([H])c([H])c(Oc7c([H])c([H])c(F)c([H])c7F)c([H])c6[H])c(C(=O)N([H])[H])c5N([H])[H])C4([H])[H])C4([H])C([H])([H])C([H])([H])C([H])([H])[N+]4([H])C([H])([H])[H])c3[H])c([H])c([H])c2C1([H])[H]

$$$$
59:0:0
     RDKit          3D

104112  0  0  1  0  0  0  0  0999 V2000
  -30.9200  -18.4780   22.9370 C   0  0  0  0  0  3  0  0  0  0  0  0
  -31.6850  -19.1860   20.7370 C   0  0  0  0  0  3  0  0  0  0  0  0
  -32.0120  -20.6420   22.6710 C   0  0  0  0  0  3  0  0  0  0  0  0
  -31.0590  -18.2210   21.5520 C   0  0  0  0  0  0  0  0  0  0  0  0
  -31.3790  -19.6900   23.4990 C   0  0  0  0  0  0  0  0  0  0  0  0
  -32.1560  -20.3920   21.2900 C   0  0  0  0  0  0  0  0  0  0  0  0
  -30.5320  -16.9970   20.9290 C   0  0  0  0  0  3  0  0  0  0  0  0
  -30.1450  -15.9950   21.6440 N   0  0  0  0  0  0  0  0  0  0  0  0
  -29.8760  -14.1630   19.9820 C   0  0  0  0  0  0  0  0  0  0  0  0
  -29.7040  -11.8980   19.0040 C   0  0  0  0  0  2  0  0  0  0  0  0
  -28.5900  -11.7590   17.9520 C   0  0  0  0  0  2  0  0  0  0  0  0
  -27.2340  -11.4580   18.6160 C   0  0  0  0  0  2  0  0  0  0  0  0
  -26.9160  -12.4330   19.7770 C   0  0  0  0  0  3  0  0  0  0  0  0
  -28.1150  -12.5300   20.7430 C   0  0  0  0  0  2  0  0  0  0  0  0
  -29.3120  -12.9290   19.9740 N   0  0  0  0  0  0  0  0  0  0  0  0
  -30.6590  -14.5600   19.1090 O   0  0  0  0  0  0  0  0  0  0  0  0
  -29.5990  -14.8530   21.1090 N   0  0  0  0  0  0  0  0  0  0  0  0
  -29.0330  -14.3370   21.7680 H   0  0  0  0  0  0  0  0  0  0  0  0
  -24.6080  -12.8270   20.8530 C   0  0  0  0  0  0  0  0  0  0  0  0
  -23.7060  -11.9660   21.4200 C   0  0  0  0  0  0  0  0  0  0  0  0
  -24.3020  -10.6700   21.3550 C   0  0  0  0  0  0  0  0  0  0  0  0
  -25.6940  -12.0480   20.4800 N   0  0  0  0  0  0  0  0  0  0  0  0
  -25.5200  -10.7500   20.8350 N   0  0  0  0  0  0  0  0  0  0  0  0
  -23.7620   -9.3490   21.7050 C   0  0  0  0  0  0  0  0  0  0  0  0
  -24.0230   -8.7530   22.9580 C   0  0  0  0  0  3  0  0  0  0  0  0
  -23.4780   -7.4900   23.2770 C   0  0  0  0  0  3  0  0  0  0  0  0
  -22.6620   -6.8120   22.3400 C   0  0  0  0  0  0  0  0  0  0  0  0
  -22.4260   -7.4000   21.0850 C   0  0  0  0  0  3  0  0  0  0  0  0
  -22.9740   -8.6550   20.7680 C   0  0  0  0  0  3  0  0  0  0  0  0
  -22.1130   -5.5710   22.5520 O   0  0  0  0  0  0  0  0  0  0  0  0
  -21.0670   -5.3860   23.4220 C   0  0  0  0  0  0  0  0  0  0  0  0
  -19.8170   -6.0120   23.2260 C   0  0  0  0  0  3  0  0  0  0  0  0
  -18.7490   -5.7390   24.1040 C   0  0  0  0  0  3  0  0  0  0  0  0
  -18.9250   -4.8370   25.1700 C   0  0  0  0  0  0  0  0  0  0  0  0
  -20.1680   -4.2080   25.3620 C   0  0  0  0  0  3  0  0  0  0  0  0
  -21.2350   -4.4800   24.4880 C   0  0  0  0  0  0  0  0  0  0  0  0
  -22.4240   -3.8560   24.6650 F   0  0  0  0  0  0  0  0  0  0  0  0
  -17.8970   -4.5680   26.0090 F   0  0  0  0  0  0  0  0  0  0  0  0
  -22.3270  -12.3070   21.9080 C   0  0  0  0  0  0  0  0  0  0  0  0
  -21.8140  -11.5520   22.8730 N   0  0  0  0  0  0  0  0  0  0  0  0
  -21.7140  -13.2770   21.4660 O   0  0  0  0  0  0  0  0  0  0  0  0
  -22.3250  -10.7660   23.2490 H   0  0  0  0  0  0  0  0  0  0  0  0
  -20.8970  -11.7610   23.2420 H   0  0  0  0  0  0  0  0  0  0  0  0
  -24.5900  -14.1960   20.6080 N   0  0  0  0  0  0  0  0  0  0  0  0
  -23.7900  -14.7810   20.8230 H   0  0  0  0  0  0  0  0  0  0  0  0
  -25.3380  -14.7010   20.1450 H   0  0  0  0  0  0  0  0  0  0  0  0
  -32.7110  -21.4550   20.3670 C   0  0  0  0  0  2  0  0  0  0  0  0
  -31.6230  -22.1040   19.7320 O   0  0  0  0  0  0  0  0  0  0  0  0
  -31.9680  -22.8510   18.5820 C   0  0  0  0  0  2  0  0  0  0  0  0
  -30.8070  -23.8290   18.3610 C   0  0  0  0  0  2  0  0  0  0  0  0
  -31.0540  -24.8400   17.2260 C   0  0  0  0  0  2  0  0  0  0  0  0
  -30.4100  -26.1460   17.4880 N   0  0  0  0  0  4  0  0  0  0  0  0
  -30.7800  -26.8040   16.8200 H   0  0  0  0  0  0  0  0  0  0  0  0
  -30.6960  -26.4620   18.4010 H   0  0  0  0  0  0  0  0  0  0  0  0
  -28.9300  -26.1460   17.3890 C   0  0  0  0  0  2  0  0  0  0  0  0
  -28.2950  -27.3790   18.0490 C   0  0  0  0  0  2  0  0  0  0  0  0
  -26.8950  -27.2790   17.8210 O   0  0  0  0  0  0  0  0  0  0  0  0
  -25.1810  -30.8170   23.8020 C   0  0  0  0  0  0  0  0  0  0  0  0
  -26.0360  -28.0890   18.5280 C   0  0  0  0  0  0  0  0  0  0  0  0
  -23.3850  -30.5800   22.1120 C   0  0  0  0  0  3  0  0  0  0  0  0
  -24.1290  -29.7170   19.8290 C   0  0  0  0  0  0  0  0  0  0  0  0
  -25.8450  -30.6120   21.4170 C   0  0  0  0  0  2  0  0  0  0  0  0
  -25.4630  -29.7220   20.2540 C   0  0  0  0  0  0  0  0  0  0  0  0
  -26.4210  -28.9090   19.6150 C   0  0  0  0  0  3  0  0  0  0  0  0
  -24.6890  -28.0850   18.1180 C   0  0  0  0  0  3  0  0  0  0  0  0
  -23.7310  -28.8890   18.7640 C   0  0  0  0  0  3  0  0  0  0  0  0
  -23.1730  -30.6210   20.5730 C   0  0  0  0  0  2  0  0  0  0  0  0
  -24.8320  -30.6520   22.4950 N   0  0  0  0  0  0  0  0  0  0  0  0
  -24.3180  -30.9540   24.6810 O   0  0  0  0  0  0  0  0  0  0  0  0
  -22.6660  -29.3340   22.6740 C   0  0  0  0  0  0  0  0  0  0  0  0
  -21.3310  -29.3070   22.5430 N   0  0  0  0  0  0  0  0  0  0  0  0
  -23.3050  -28.4090   23.1840 O   0  0  0  0  0  0  0  0  0  0  0  0
  -20.8820  -30.1080   22.1220 H   0  0  0  0  0  0  0  0  0  0  0  0
  -17.9670  -28.0250   22.2590 C   0  0  0  0  0  0  0  0  0  0  0  0
  -20.4460  -28.2220   22.9620 C   0  0  0  0  0  3  0  0  0  0  0  0
  -20.6830  -26.9520   22.1130 C   0  0  0  0  0  2  0  0  0  0  0  0
  -19.7530  -26.8560   20.8980 C   0  0  0  0  0  2  0  0  0  0  0  0
  -18.2880  -26.8550   21.3430 C   0  0  0  0  0  2  0  0  0  0  0  0
  -18.9840  -28.6760   23.0060 C   0  0  0  0  0  0  0  0  0  0  0  0
  -18.6380  -29.7810   23.8150 C   0  0  0  0  0  3  0  0  0  0  0  0
  -17.3070  -30.2340   23.8850 C   0  0  0  0  0  3  0  0  0  0  0  0
  -16.3030  -29.5750   23.1570 C   0  0  0  0  0  3  0  0  0  0  0  0
  -16.6320  -28.4710   22.3500 C   0  0  0  0  0  3  0  0  0  0  0  0
  -26.6750  -30.8670   24.2530 C   0  0  0  0  0  3  0  0  0  0  0  0
  -26.8290  -32.0270   25.1410 N   0  0  0  0  0  0  0  0  0  0  0  0
  -27.4700  -33.1550   24.8120 C   0  0  0  0  0  0  0  0  0  0  0  0
  -28.0640  -33.3010   23.7400 O   0  0  0  0  0  0  0  0  0  0  0  0
  -26.3270  -31.9960   26.0160 H   0  0  0  0  0  0  0  0  0  0  0  0
  -26.4820  -35.4000   25.3570 C   0  0  0  0  0  1  0  0  0  0  0  0
  -27.4500  -34.3060   25.8350 C   0  0  0  0  0  3  0  0  0  0  0  0
  -29.6840  -33.9980   26.8060 C   0  0  0  0  0  1  0  0  0  0  0  0
  -28.7840  -34.8950   26.0850 N   0  0  0  0  0  0  0  0  0  0  0  0
  -28.7030  -35.7570   26.6180 H   0  0  0  0  0  0  0  0  0  0  0  0
  -27.1500  -29.5450   24.9740 C   0  0  1  0  0  0  0  0  0  0  0  0
  -26.2360  -29.1110   26.1430 C   0  0  0  0  0  1  0  0  0  0  0  0
  -27.2240  -28.3710   23.9680 C   0  0  0  0  0  1  0  0  0  0  0  0
  -28.5780  -29.7390   25.5370 C   0  0  0  0  0  1  0  0  0  0  0  0
  -31.1760  -19.9690   24.9840 C   0  0  0  0  0  2  0  0  0  0  0  0
  -29.7670  -19.7860   25.4310 N   0  0  1  0  0  4  0  0  0  0  0  0
  -29.3010  -20.6320   25.1400 H   0  0  0  0  0  0  0  0  0  0  0  0
  -27.8600  -18.0980   25.5160 C   0  0  0  0  0  1  0  0  0  0  0  0
  -29.0570  -18.6710   24.7360 C   0  0  0  0  0  2  0  0  0  0  0  0
  -29.2120  -18.4110   27.5070 C   0  0  0  0  0  1  0  0  0  0  0  0
  -29.6420  -19.7690   26.9180 C   0  0  0  0  0  2  0  0  0  0  0  0
  1  5  1  0
  2  6  2  0
  2  4  1  0
  3  5  2  0
  4  1  2  0
  5 98  1  0
  6  3  1  0
  7  4  1  0
  7  8  2  0
  9 17  1  0
 10 15  1  0
 11 12  1  0
 11 10  1  0
 13 12  1  0
 13 22  1  0
 13 14  1  0
 15  9  1  0
 15 14  1  0
 16  9  2  0
 17  8  1  0
 17 18  1  0
 19 20  2  0
 20 39  1  0
 21 20  1  0
 21 24  1  0
 22 23  1  0
 22 19  1  0
 23 21  2  0
 24 25  1  0
 25 26  2  0
 27 30  1  0
 27 26  1  0
 28 27  2  0
 29 28  1  0
 29 24  2  0
 30 31  1  0
 31 36  1  0
 32 31  2  0
 32 33  1  0
 33 34  2  0
 34 35  1  0
 34 38  1  0
 36 37  1  0
 36 35  2  0
 39 40  1  0
 40 43  1  0
 40 42  1  0
 41 39  2  0
 44 45  1  0
 44 19  1  0
 46 44  1  0
 47  6  1  0
 48 47  1  0
 49 48  1  0
 50 49  1  0
 51 52  1  0
 51 50  1  0
 52 54  1  0
 53 52  1  0
 55 52  1  0
 55 56  1  0
 57 56  1  0
 57 59  1  0
 58 69  2  0
 59 64  1  0
 60 68  1  0
 60 70  1  0
 61 63  1  0
 61 67  1  0
 62 68  1  0
 63 62  1  0
 64 63  2  0
 65 59  2  0
 65 66  1  0
 66 61  2  0
 67 60  1  0
 68 58  1  0
 70 72  2  0
 71 70  1  0
 73 71  1  0
 74 83  2  0
 74 79  1  0
 75 71  1  0
 75 79  1  0
 76 75  1  0
 77 78  1  0
 77 76  1  0
 78 74  1  0
 79 80  2  0
 80 81  1  0
 82 81  2  0
 83 82  1  0
 84 58  1  0
 84 94  1  0
 84 85  1  0
 85 88  1  0
 86 85  1  0
 86 90  1  0
 87 86  2  0
 90 89  1  0
 90 92  1  0
 92 93  1  0
 92 91  1  0
 94 97  1  1
 94 95  1  0
 96 94  1  0
 98 99  1  0
 99104  1  0
 99100  1  6
102 99  1  0
102101  1  0
104103  1  0
M  ISO  4   9 100  17 100  56 101  57 101
M  END
>  <TORSDO>  (60) 
F 29

>  <SCORE>  (60) 
8.121

>  <name>  (60) 
59

>  <ligand_id>  (60) 
59

>  <original_smiles>  (60) 
[H]C(=NN([H])C(=O)N1C([H])([H])C([H])([H])C([H])([H])C([H])(n2nc(-c3c([H])c([H])c(Oc4c([H])c([H])c(F)c([H])c4F)c([H])c3[H])c(C(=O)N([H])[H])c2N([H])[H])C1([H])[H])c1c([H])c(C([H])([H])OC([H])([H])C([H])([H])C([H])([H])[N+]([H])([H])C([H])([H])C([H])([H])Oc2c([H])c([H])c3c(c2[H])C([H])([H])N(C(=O)C([H])(N([H])C(=O)C([H])(N([H])C([H])([H])[H])C([H])([H])[H])C(C([H])([H])[H])(C([H])([H])[H])C([H])([H])[H])C([H])(C(=O)N([H])C2([H])c4c([H])c([H])c([H])c([H])c4C([H])([H])C([H])([H])C2([H])[H])C3([H])[H])c([H])c(C([H])([H])[N+]([H])(C([H])([H])C([H])([H])[H])C([H])([H])C([H])([H])[H])c1[H]

>  <smiles>  (60) 
[H]C(=NN([H])C(=O)N1C([H])([H])C([H])([H])C([H])([H])C([H])(n2nc(-c3c([H])c([H])c(Oc4c([H])c([H])c(F)c([H])c4F)c([H])c3[H])c(C(=O)N([H])[H])c2N([H])[H])C1([H])[H])c1c([H])c(C([H])([H])OC([H])([H])C([H])([H])C([H])([H])[N+]([H])([H])C([H])([H])C([H])([H])Oc2c([H])c([H])c3c(c2[H])C([H])([H])N(C(=O)C([H])(N([H])C(=O)C([H])(N([H])C([H])([H])[H])C([H])([H])[H])C(C([H])([H])[H])(C([H])([H])[H])C([H])([H])[H])C([H])(C(=O)N([H])C2([H])c4c([H])c([H])c([H])c([H])c4C([H])([H])C([H])([H])C2([H])[H])C3([H])[H])c([H])c(C([H])([H])[N+]([H])(C([H])([H])C([H])([H])[H])C([H])([H])C([H])([H])[H])c1[H]

$$$$
60:0:0
     RDKit          3D

 98106  0  0  1  0  0  0  0  0999 V2000
  -32.1060  -22.6740   18.0760 C   0  0  0  0  0  0  0  0  0  0  0  0
  -32.3880  -23.7050   18.9460 N   0  0  0  0  0  0  0  0  0  0  0  0
  -32.1200  -22.7430   16.8450 O   0  0  0  0  0  0  0  0  0  0  0  0
  -32.3530  -23.4810   19.9310 H   0  0  0  0  0  0  0  0  0  0  0  0
  -32.7210  -25.0600   18.5120 C   0  0  0  0  0  2  0  0  0  0  0  0
  -31.4660  -25.8780   18.1540 C   0  0  0  0  0  2  0  0  0  0  0  0
  -30.4670  -25.9760   19.3160 C   0  0  0  0  0  2  0  0  0  0  0  0
  -29.2140  -26.7980   18.9960 C   0  0  0  0  0  2  0  0  0  0  0  0
  -28.4330  -26.7730   20.1770 O   0  0  0  0  0  0  0  0  0  0  0  0
  -24.6260  -31.8990   23.2330 C   0  0  0  0  0  0  0  0  0  0  0  0
  -27.2760  -27.5010   20.1370 C   0  0  0  0  0  0  0  0  0  0  0  0
  -23.4110  -30.4850   21.6030 C   0  0  0  0  0  3  0  0  0  0  0  0
  -24.8630  -28.9530   20.1690 C   0  0  0  0  0  0  0  0  0  0  0  0
  -25.9280  -30.8680   21.3810 C   0  0  0  0  0  2  0  0  0  0  0  0
  -26.0180  -29.4970   20.7480 C   0  0  0  0  0  0  0  0  0  0  0  0
  -27.2260  -28.7720   20.7420 C   0  0  0  0  0  3  0  0  0  0  0  0
  -26.1130  -26.9540   19.5580 C   0  0  0  0  0  3  0  0  0  0  0  0
  -24.9030  -27.6770   19.5740 C   0  0  0  0  0  3  0  0  0  0  0  0
  -23.6110  -29.7990   20.2240 C   0  0  0  0  0  2  0  0  0  0  0  0
  -24.6730  -31.0980   22.1310 N   0  0  0  0  0  0  0  0  0  0  0  0
  -23.5490  -32.1670   23.7840 O   0  0  0  0  0  0  0  0  0  0  0  0
  -22.7740  -29.4640   22.5730 C   0  0  0  0  0  0  0  0  0  0  0  0
  -21.4500  -29.2760   22.4550 N   0  0  0  0  0  0  0  0  0  0  0  0
  -23.4670  -28.8450   23.3840 O   0  0  0  0  0  0  0  0  0  0  0  0
  -20.9530  -29.8270   21.7700 H   0  0  0  0  0  0  0  0  0  0  0  0
  -18.0880  -28.0630   22.9680 C   0  0  0  0  0  0  0  0  0  0  0  0
  -20.6430  -28.3380   23.2340 C   0  0  0  0  0  3  0  0  0  0  0  0
  -20.7530  -26.9040   22.6670 C   0  0  0  0  0  2  0  0  0  0  0  0
  -19.6530  -26.5690   21.6560 C   0  0  0  0  0  2  0  0  0  0  0  0
  -18.2710  -26.7110   22.3000 C   0  0  0  0  0  2  0  0  0  0  0  0
  -19.2010  -28.8350   23.3920 C   0  0  0  0  0  0  0  0  0  0  0  0
  -18.9780  -30.1010   23.9740 C   0  0  0  0  0  3  0  0  0  0  0  0
  -17.6700  -30.5970   24.1360 C   0  0  0  0  0  3  0  0  0  0  0  0
  -16.5700  -29.8230   23.7300 C   0  0  0  0  0  3  0  0  0  0  0  0
  -16.7790  -28.5580   23.1520 C   0  0  0  0  0  3  0  0  0  0  0  0
  -25.9160  -32.5340   23.8400 C   0  0  0  0  0  3  0  0  0  0  0  0
  -25.6030  -33.9280   24.1820 N   0  0  0  0  0  0  0  0  0  0  0  0
  -25.9200  -34.9860   23.4250 C   0  0  0  0  0  0  0  0  0  0  0  0
  -26.5810  -34.8930   22.3860 O   0  0  0  0  0  0  0  0  0  0  0  0
  -25.0160  -34.0740   24.9900 H   0  0  0  0  0  0  0  0  0  0  0  0
  -24.1740  -36.7650   23.0970 C   0  0  0  0  0  1  0  0  0  0  0  0
  -25.4270  -36.3680   23.8940 C   0  0  0  0  0  3  0  0  0  0  0  0
  -27.5680  -37.2610   24.6990 C   0  0  0  0  0  1  0  0  0  0  0  0
  -26.4490  -37.4300   23.7750 N   0  0  0  0  0  0  0  0  0  0  0  0
  -26.0390  -38.3450   23.9400 H   0  0  0  0  0  0  0  0  0  0  0  0
  -26.4610  -31.7580   25.1010 C   0  0  1  0  0  0  0  0  0  0  0  0
  -25.3870  -31.5050   26.1850 C   0  0  0  0  0  1  0  0  0  0  0  0
  -27.0450  -30.3870   24.6850 C   0  0  0  0  0  1  0  0  0  0  0  0
  -27.6170  -32.5540   25.7490 C   0  0  0  0  0  1  0  0  0  0  0  0
  -31.8110  -21.5790   18.7830 O   0  0  0  0  0  0  0  0  0  0  0  0
  -31.5400  -20.3790   18.0770 C   0  0  0  0  0  2  0  0  0  0  0  0
  -29.8030  -18.7310   18.8640 C   0  0  0  0  0  3  0  0  0  0  0  0
  -31.6520  -17.3970   20.4960 C   0  0  0  0  0  3  0  0  0  0  0  0
  -31.1180  -19.2230   18.9680 C   0  0  0  0  0  0  0  0  0  0  0  0
  -30.3660  -16.8370   20.2960 C   0  0  0  0  0  0  0  0  0  0  0  0
  -32.0490  -18.5800   19.8170 C   0  0  0  0  0  0  0  0  0  0  0  0
  -29.4260  -17.5480   19.5200 C   0  0  0  0  0  0  0  0  0  0  0  0
  -27.8260  -16.9510   19.2860 Cl  0  0  0  0  0  0  0  0  0  0  0  0
  -30.7080  -14.4420   20.4070 C   0  0  0  0  0  0  0  0  0  0  0  0
  -30.3300  -12.2980   19.2840 C   0  0  0  0  0  2  0  0  0  0  0  0
  -29.3840  -12.5320   18.0900 C   0  0  0  0  0  2  0  0  0  0  0  0
  -27.9150  -12.4020   18.5390 C   0  0  0  0  0  2  0  0  0  0  0  0
  -27.5980  -13.2370   19.8070 C   0  0  0  0  0  3  0  0  0  0  0  0
  -28.6700  -13.0320   20.9050 C   0  0  0  0  0  2  0  0  0  0  0  0
  -29.9880  -13.2940   20.3100 N   0  0  0  0  0  0  0  0  0  0  0  0
  -31.8630  -14.5330   19.9870 O   0  0  0  0  0  0  0  0  0  0  0  0
  -30.0320  -15.5380   20.7930 N   0  0  0  0  0  0  0  0  0  0  0  0
  -29.0610  -15.3820   21.0160 H   0  0  0  0  0  0  0  0  0  0  0  0
  -25.2080  -13.8480   20.5460 C   0  0  0  0  0  0  0  0  0  0  0  0
  -24.1430  -13.0780   20.9240 C   0  0  0  0  0  0  0  0  0  0  0  0
  -24.6040  -11.7270   20.8890 C   0  0  0  0  0  0  0  0  0  0  0  0
  -26.2510  -12.9670   20.3040 N   0  0  0  0  0  0  0  0  0  0  0  0
  -25.8900  -11.6860   20.5680 N   0  0  0  0  0  0  0  0  0  0  0  0
  -23.8780  -10.4660   21.0840 C   0  0  0  0  0  0  0  0  0  0  0  0
  -24.3360   -9.4850   21.9910 C   0  0  0  0  0  3  0  0  0  0  0  0
  -23.6090   -8.2890   22.1760 C   0  0  0  0  0  3  0  0  0  0  0  0
  -22.4130   -8.0660   21.4550 C   0  0  0  0  0  0  0  0  0  0  0  0
  -21.9750   -9.0350   20.5370 C   0  0  0  0  0  3  0  0  0  0  0  0
  -22.7010  -10.2230   20.3490 C   0  0  0  0  0  3  0  0  0  0  0  0
  -21.6570   -6.9230   21.5510 O   0  0  0  0  0  0  0  0  0  0  0  0
  -21.6620   -6.1500   22.6840 C   0  0  0  0  0  0  0  0  0  0  0  0
  -21.3240   -6.6800   23.9490 C   0  0  0  0  0  3  0  0  0  0  0  0
  -21.2730   -5.8360   25.0750 C   0  0  0  0  0  3  0  0  0  0  0  0
  -21.5510   -4.4620   24.9390 C   0  0  0  0  0  0  0  0  0  0  0  0
  -21.8820   -3.9320   23.6810 C   0  0  0  0  0  3  0  0  0  0  0  0
  -21.9340   -4.7740   22.5560 C   0  0  0  0  0  0  0  0  0  0  0  0
  -22.2340   -4.2530   21.3410 F   0  0  0  0  0  0  0  0  0  0  0  0
  -21.4950   -3.6490   26.0200 F   0  0  0  0  0  0  0  0  0  0  0  0
  -22.7490  -13.5570   21.2100 C   0  0  0  0  0  0  0  0  0  0  0  0
  -22.0310  -12.8640   22.0850 N   0  0  0  0  0  0  0  0  0  0  0  0
  -22.3050  -14.5810   20.6910 O   0  0  0  0  0  0  0  0  0  0  0  0
  -22.4020  -12.0350   22.5250 H   0  0  0  0  0  0  0  0  0  0  0  0
  -21.0960  -13.1660   22.3200 H   0  0  0  0  0  0  0  0  0  0  0  0
  -25.3660  -15.2180   20.3710 N   0  0  0  0  0  0  0  0  0  0  0  0
  -24.5970  -15.8690   20.4850 H   0  0  0  0  0  0  0  0  0  0  0  0
  -26.2040  -15.6630   20.0150 H   0  0  0  0  0  0  0  0  0  0  0  0
  -34.2610  -18.5050   20.7630 C   0  0  0  0  0  1  0  0  0  0  0  0
  -33.3130  -19.1240   19.9010 O   0  0  0  0  0  0  0  0  0  0  0  0
  1 50  1  0
  1  2  1  0
  2  4  1  0
  3  1  2  0
  5  2  1  0
  6  5  1  0
  6  7  1  0
  8  7  1  0
  8  9  1  0
 10 21  2  0
 11  9  1  0
 11 16  1  0
 12 20  1  0
 12 22  1  0
 13 19  1  0
 13 15  1  0
 14 20  1  0
 15 14  1  0
 16 15  2  0
 17 18  1  0
 17 11  2  0
 18 13  2  0
 19 12  1  0
 20 10  1  0
 22 24  2  0
 23 22  1  0
 25 23  1  0
 26 35  2  0
 26 31  1  0
 27 23  1  0
 27 31  1  0
 28 27  1  0
 29 30  1  0
 29 28  1  0
 30 26  1  0
 31 32  2  0
 32 33  1  0
 34 33  2  0
 35 34  1  0
 36 10  1  0
 36 37  1  0
 36 46  1  0
 37 40  1  0
 38 42  1  0
 38 37  1  0
 39 38  2  0
 42 41  1  0
 44 42  1  0
 44 45  1  0
 44 43  1  0
 46 49  1  1
 46 47  1  0
 48 46  1  0
 51 50  1  0
 51 54  1  0
 52 54  2  0
 52 57  1  0
 54 56  1  0
 55 53  1  0
 55 67  1  0
 56 98  1  0
 56 53  2  0
 57 55  2  0
 58 57  1  0
 59 67  1  0
 60 65  1  0
 61 62  1  0
 61 60  1  0
 63 62  1  0
 63 72  1  0
 63 64  1  0
 65 59  1  0
 65 64  1  0
 66 59  2  0
 67 68  1  0
 69 70  2  0
 70 89  1  0
 71 70  1  0
 71 74  1  0
 72 69  1  0
 72 73  1  0
 73 71  2  0
 74 75  1  0
 75 76  2  0
 77 80  1  0
 77 76  1  0
 78 77  2  0
 79 78  1  0
 79 74  2  0
 80 81  1  0
 81 82  1  0
 82 83  2  0
 84 83  1  0
 84 88  1  0
 85 84  2  0
 86 81  2  0
 86 85  1  0
 87 86  1  0
 89 90  1  0
 90 93  1  0
 90 92  1  0
 91 89  2  0
 94 95  1  0
 94 69  1  0
 96 94  1  0
 98 97  1  0
M  ISO  4   8 101   9 101  59 100  67 100
M  END
>  <TORSDO>  (61) 
F 24

>  <SCORE>  (61) 
-12.364

>  <name>  (61) 
60

>  <ligand_id>  (61) 
60

>  <original_smiles>  (61) 
[H]c1c([H])c([H])c2c(c1[H])C([H])([H])C([H])([H])C([H])([H])C2([H])N([H])C(=O)C1([H])N(C(=O)C([H])(N([H])C(=O)C([H])(N([H])C([H])([H])[H])C([H])([H])[H])C(C([H])([H])[H])(C([H])([H])[H])C([H])([H])[H])C([H])([H])c2c([H])c(OC([H])([H])C([H])([H])C([H])([H])C([H])([H])N([H])C(=O)OC([H])([H])c3c([H])c(Cl)c(N([H])C(=O)N4C([H])([H])C([H])([H])C([H])([H])C([H])(n5nc(-c6c([H])c([H])c(Oc7c([H])c([H])c(F)c([H])c7F)c([H])c6[H])c(C(=O)N([H])[H])c5N([H])[H])C4([H])[H])c([H])c3OC([H])([H])[H])c([H])c([H])c2C1([H])[H]

>  <smiles>  (61) 
[H]c1c([H])c([H])c2c(c1[H])C([H])([H])C([H])([H])C([H])([H])C2([H])N([H])C(=O)C1([H])N(C(=O)C([H])(N([H])C(=O)C([H])(N([H])C([H])([H])[H])C([H])([H])[H])C(C([H])([H])[H])(C([H])([H])[H])C([H])([H])[H])C([H])([H])c2c([H])c(OC([H])([H])C([H])([H])C([H])([H])C([H])([H])N([H])C(=O)OC([H])([H])c3c([H])c(Cl)c(N([H])C(=O)N4C([H])([H])C([H])([H])C([H])([H])C([H])(n5nc(-c6c([H])c([H])c(Oc7c([H])c([H])c(F)c([H])c7F)c([H])c6[H])c(C(=O)N([H])[H])c5N([H])[H])C4([H])[H])c([H])c3OC([H])([H])[H])c([H])c([H])c2C1([H])[H]

$$$$
61:0:0
     RDKit          3D

100109  0  0  1  0  0  0  0  0999 V2000
  -30.3110  -22.7920   20.2120 C   0  0  0  0  0  0  0  0  0  0  0  0
  -33.5480  -22.7700   19.5320 C   0  0  0  0  0  2  0  0  0  0  0  0
  -33.2050  -21.4810   20.2920 C   0  0  0  0  0  2  0  0  0  0  0  0
  -32.3610  -23.4010   18.7900 C   0  0  0  0  0  2  0  0  0  0  0  0
  -32.1850  -21.6880   21.4260 C   0  0  0  0  0  2  0  0  0  0  0  0
  -31.2400  -23.9280   19.7180 C   0  0  0  0  0  3  0  0  0  0  0  0
  -30.8030  -21.7510   20.9330 N   0  0  0  0  0  0  0  0  0  0  0  0
  -29.1120  -22.8700   19.9130 O   0  0  0  0  0  0  0  0  0  0  0  0
  -30.4030  -24.8980   18.9740 N   0  0  0  0  0  4  0  0  0  0  0  0
  -29.4670  -24.6260   19.2530 H   0  0  0  0  0  0  0  0  0  0  0  0
  -30.4680  -24.7080   17.9880 H   0  0  0  0  0  0  0  0  0  0  0  0
  -30.6030  -26.3420   19.2520 C   0  0  0  0  0  2  0  0  0  0  0  0
  -29.3150  -27.1310   18.9700 C   0  0  0  0  0  2  0  0  0  0  0  0
  -28.3730  -26.7020   19.9490 O   0  0  0  0  0  0  0  0  0  0  0  0
  -24.6240  -31.8470   23.1560 C   0  0  0  0  0  0  0  0  0  0  0  0
  -27.2230  -27.4440   20.0040 C   0  0  0  0  0  0  0  0  0  0  0  0
  -23.3900  -30.4480   21.5300 C   0  0  0  0  0  3  0  0  0  0  0  0
  -24.8230  -28.9100   20.0820 C   0  0  0  0  0  0  0  0  0  0  0  0
  -25.9100  -30.8140   21.2900 C   0  0  0  0  0  2  0  0  0  0  0  0
  -25.9850  -29.4450   20.6470 C   0  0  0  0  0  0  0  0  0  0  0  0
  -27.1920  -28.7170   20.6110 C   0  0  0  0  0  3  0  0  0  0  0  0
  -26.0450  -26.9020   19.4580 C   0  0  0  0  0  3  0  0  0  0  0  0
  -24.8410  -27.6340   19.4880 C   0  0  0  0  0  3  0  0  0  0  0  0
  -23.5790  -29.7680   20.1450 C   0  0  0  0  0  2  0  0  0  0  0  0
  -24.6600  -31.0520   22.0500 N   0  0  0  0  0  0  0  0  0  0  0  0
  -23.5520  -32.1220   23.7130 O   0  0  0  0  0  0  0  0  0  0  0  0
  -22.7520  -29.4280   22.4970 C   0  0  0  0  0  0  0  0  0  0  0  0
  -21.4240  -29.2580   22.3950 N   0  0  0  0  0  0  0  0  0  0  0  0
  -23.4470  -28.7910   23.2940 O   0  0  0  0  0  0  0  0  0  0  0  0
  -20.9240  -29.8230   21.7220 H   0  0  0  0  0  0  0  0  0  0  0  0
  -18.0500  -28.0900   22.9460 C   0  0  0  0  0  0  0  0  0  0  0  0
  -20.6140  -28.3250   23.1770 C   0  0  0  0  0  3  0  0  0  0  0  0
  -20.6960  -26.8950   22.5960 C   0  0  0  0  0  2  0  0  0  0  0  0
  -19.5740  -26.5860   21.5980 C   0  0  0  0  0  2  0  0  0  0  0  0
  -18.2040  -26.7420   22.2640 C   0  0  0  0  0  2  0  0  0  0  0  0
  -19.1830  -28.8410   23.3600 C   0  0  0  0  0  0  0  0  0  0  0  0
  -18.9860  -30.1040   23.9600 C   0  0  0  0  0  3  0  0  0  0  0  0
  -17.6890  -30.6170   24.1480 C   0  0  0  0  0  3  0  0  0  0  0  0
  -16.5710  -29.8630   23.7500 C   0  0  0  0  0  3  0  0  0  0  0  0
  -16.7530  -28.6010   23.1560 C   0  0  0  0  0  3  0  0  0  0  0  0
  -25.9210  -32.4740   23.7570 C   0  0  0  0  0  3  0  0  0  0  0  0
  -25.6110  -33.8600   24.1300 N   0  0  0  0  0  0  0  0  0  0  0  0
  -25.9170  -34.9310   23.3880 C   0  0  0  0  0  0  0  0  0  0  0  0
  -26.5630  -34.8590   22.3380 O   0  0  0  0  0  0  0  0  0  0  0  0
  -25.0340  -33.9910   24.9480 H   0  0  0  0  0  0  0  0  0  0  0  0
  -24.1660  -36.7170   23.1150 C   0  0  0  0  0  1  0  0  0  0  0  0
  -25.4290  -36.3050   23.8890 C   0  0  0  0  0  3  0  0  0  0  0  0
  -27.5800  -37.1830   24.6810 C   0  0  0  0  0  1  0  0  0  0  0  0
  -26.4510  -37.3680   23.7760 N   0  0  0  0  0  0  0  0  0  0  0  0
  -26.0410  -38.2800   23.9630 H   0  0  0  0  0  0  0  0  0  0  0  0
  -26.4850  -31.6740   24.9950 C   0  0  1  0  0  0  0  0  0  0  0  0
  -25.4290  -31.4020   26.0920 C   0  0  0  0  0  1  0  0  0  0  0  0
  -27.0590  -30.3110   24.5440 C   0  0  0  0  0  1  0  0  0  0  0  0
  -27.6550  -32.4550   25.6340 C   0  0  0  0  0  1  0  0  0  0  0  0
  -29.9480  -20.6250   21.3680 C   0  0  0  0  0  2  0  0  0  0  0  0
  -30.1960  -19.3290   19.1840 C   0  0  0  0  0  3  0  0  0  0  0  0
  -30.0990  -18.1270   18.4680 C   0  0  0  0  0  3  0  0  0  0  0  0
  -30.0360  -18.0740   21.2710 C   0  0  0  0  0  3  0  0  0  0  0  0
  -30.1000  -19.3150   20.5940 C   0  0  0  0  0  0  0  0  0  0  0  0
  -29.9980  -16.8490   20.5590 C   0  0  0  0  0  0  0  0  0  0  0  0
  -29.9430  -16.9030   19.1400 C   0  0  0  0  0  0  0  0  0  0  0  0
  -29.5680  -15.5400   18.1630 Cl  0  0  0  0  0  0  0  0  0  0  0  0
  -30.7350  -14.5600   21.1210 C   0  0  0  0  0  0  0  0  0  0  0  0
  -30.6860  -12.2520   20.2720 C   0  0  0  0  0  2  0  0  0  0  0  0
  -29.9080  -12.2200   18.9370 C   0  0  0  0  0  2  0  0  0  0  0  0
  -28.3770  -12.1760   19.1570 C   0  0  0  0  0  2  0  0  0  0  0  0
  -27.8560  -13.1260   20.2720 C   0  0  0  0  0  3  0  0  0  0  0  0
  -28.7610  -13.0550   21.5210 C   0  0  0  0  0  2  0  0  0  0  0  0
  -30.1370  -13.3380   21.0990 N   0  0  0  0  0  0  0  0  0  0  0  0
  -31.9280  -14.7290   20.8580 O   0  0  0  0  0  0  0  0  0  0  0  0
  -29.8950  -15.6120   21.2770 N   0  0  0  0  0  0  0  0  0  0  0  0
  -28.9820  -15.3970   21.6390 H   0  0  0  0  0  0  0  0  0  0  0  0
  -25.3940  -13.7520   20.7000 C   0  0  0  0  0  0  0  0  0  0  0  0
  -24.2870  -12.9920   20.9780 C   0  0  0  0  0  0  0  0  0  0  0  0
  -24.7470  -11.6420   21.0460 C   0  0  0  0  0  0  0  0  0  0  0  0
  -26.4560  -12.8650   20.6070 N   0  0  0  0  0  0  0  0  0  0  0  0
  -26.0630  -11.5960   20.8800 N   0  0  0  0  0  0  0  0  0  0  0  0
  -24.0060  -10.3840   21.2040 C   0  0  0  0  0  0  0  0  0  0  0  0
  -24.3730   -9.4250   22.1740 C   0  0  0  0  0  3  0  0  0  0  0  0
  -23.6400   -8.2280   22.3180 C   0  0  0  0  0  3  0  0  0  0  0  0
  -22.5190   -7.9780   21.4860 C   0  0  0  0  0  0  0  0  0  0  0  0
  -22.1690   -8.9250   20.5080 C   0  0  0  0  0  3  0  0  0  0  0  0
  -22.9070  -10.1130   20.3650 C   0  0  0  0  0  3  0  0  0  0  0  0
  -21.7630   -6.8350   21.5320 O   0  0  0  0  0  0  0  0  0  0  0  0
  -21.6680   -6.0810   22.6750 C   0  0  0  0  0  0  0  0  0  0  0  0
  -21.2280   -6.6330   23.8970 C   0  0  0  0  0  3  0  0  0  0  0  0
  -21.0820   -5.8060   25.0280 C   0  0  0  0  0  3  0  0  0  0  0  0
  -21.3630   -4.4300   24.9380 C   0  0  0  0  0  0  0  0  0  0  0  0
  -21.8030   -3.8800   23.7210 C   0  0  0  0  0  3  0  0  0  0  0  0
  -21.9510   -4.7050   22.5910 C   0  0  0  0  0  0  0  0  0  0  0  0
  -22.3500   -4.1710   21.4120 F   0  0  0  0  0  0  0  0  0  0  0  0
  -21.2190   -3.6340   26.0230 F   0  0  0  0  0  0  0  0  0  0  0  0
  -22.8670  -13.4750   21.0810 C   0  0  0  0  0  0  0  0  0  0  0  0
  -22.0540  -12.8140   21.8970 N   0  0  0  0  0  0  0  0  0  0  0  0
  -22.4830  -14.4730   20.4750 O   0  0  0  0  0  0  0  0  0  0  0  0
  -22.3770  -12.0190   22.4300 H   0  0  0  0  0  0  0  0  0  0  0  0
  -21.0970  -13.1160   21.9980 H   0  0  0  0  0  0  0  0  0  0  0  0
  -25.5880  -15.1150   20.5000 N   0  0  0  0  0  0  0  0  0  0  0  0
  -24.8200  -15.7780   20.5070 H   0  0  0  0  0  0  0  0  0  0  0  0
  -26.4660  -15.5210   20.2030 H   0  0  0  0  0  0  0  0  0  0  0  0
  1  7  1  0
  2  3  1  0
  3  5  1  0
  4  2  1  0
  4  6  1  0
  6  9  1  0
  6  1  1  0
  7 55  1  0
  7  5  1  0
  8  1  2  0
  9 12  1  0
  9 10  1  0
 11  9  1  0
 13 12  1  0
 13 14  1  0
 14 16  1  0
 15 26  2  0
 16 21  1  0
 17 25  1  0
 17 27  1  0
 18 24  1  0
 18 20  1  0
 19 25  1  0
 20 19  1  0
 21 20  2  0
 22 23  1  0
 22 16  2  0
 23 18  2  0
 24 17  1  0
 25 15  1  0
 27 29  2  0
 28 27  1  0
 30 28  1  0
 31 40  2  0
 31 36  1  0
 32 28  1  0
 32 36  1  0
 33 32  1  0
 34 35  1  0
 34 33  1  0
 35 31  1  0
 36 37  2  0
 37 38  1  0
 39 38  2  0
 40 39  1  0
 41 15  1  0
 41 42  1  0
 41 51  1  0
 42 45  1  0
 43 47  1  0
 43 42  1  0
 44 43  2  0
 47 46  1  0
 49 47  1  0
 49 50  1  0
 49 48  1  0
 51 54  1  1
 51 52  1  0
 53 51  1  0
 56 59  1  0
 57 61  1  0
 57 56  2  0
 59 58  2  0
 59 55  1  0
 60 58  1  0
 60 71  1  0
 61 60  2  0
 62 61  1  0
 63 71  1  0
 64 69  1  0
 65 66  1  0
 65 64  1  0
 67 66  1  0
 67 76  1  0
 67 68  1  0
 69 63  1  0
 69 68  1  0
 70 63  2  0
 71 72  1  0
 73 74  2  0
 74 75  1  0
 74 93  1  0
 75 78  1  0
 76 73  1  0
 76 77  1  0
 77 75  2  0
 78 79  1  0
 79 80  2  0
 81 84  1  0
 81 80  1  0
 82 81  2  0
 83 82  1  0
 83 78  2  0
 84 85  1  0
 85 86  1  0
 86 87  2  0
 88 87  1  0
 88 92  1  0
 89 88  2  0
 90 85  2  0
 90 89  1  0
 91 90  1  0
 93 94  1  0
 94 97  1  0
 94 96  1  0
 95 93  2  0
 98 99  1  0
 98 73  1  0
100 98  1  0
M  ISO  4  13 101  14 101  63 100  71 100
M  END
>  <TORSDO>  (62) 
F 21

>  <SCORE>  (62) 
-12.415

>  <name>  (62) 
61

>  <ligand_id>  (62) 
61

>  <original_smiles>  (62) 
[H]c1c([H])c([H])c2c(c1[H])C([H])([H])C([H])([H])C([H])([H])C2([H])N([H])C(=O)C1([H])N(C(=O)C([H])(N([H])C(=O)C([H])(N([H])C([H])([H])[H])C([H])([H])[H])C(C([H])([H])[H])(C([H])([H])[H])C([H])([H])[H])C([H])([H])c2c([H])c(OC([H])([H])C([H])([H])[N+]([H])([H])C3([H])C(=O)N(C([H])([H])c4c([H])c([H])c(Cl)c(N([H])C(=O)N5C([H])([H])C([H])([H])C([H])([H])C([H])(n6nc(-c7c([H])c([H])c(Oc8c([H])c([H])c(F)c([H])c8F)c([H])c7[H])c(C(=O)N([H])[H])c6N([H])[H])C5([H])[H])c4[H])C([H])([H])C([H])([H])C([H])([H])C3([H])[H])c([H])c([H])c2C1([H])[H]

>  <smiles>  (62) 
[H]c1c([H])c([H])c2c(c1[H])C([H])([H])C([H])([H])C([H])([H])C2([H])N([H])C(=O)C1([H])N(C(=O)C([H])(N([H])C(=O)C([H])(N([H])C([H])([H])[H])C([H])([H])[H])C(C([H])([H])[H])(C([H])([H])[H])C([H])([H])[H])C([H])([H])c2c([H])c(OC([H])([H])C([H])([H])[N+]([H])([H])C3([H])C(=O)N(C([H])([H])c4c([H])c([H])c(Cl)c(N([H])C(=O)N5C([H])([H])C([H])([H])C([H])([H])C([H])(n6nc(-c7c([H])c([H])c(Oc8c([H])c([H])c(F)c([H])c8F)c([H])c7[H])c(C(=O)N([H])[H])c6N([H])[H])C5([H])[H])c4[H])C([H])([H])C([H])([H])C([H])([H])C3([H])[H])c([H])c([H])c2C1([H])[H]

$$$$
62:0:0
     RDKit          3D

103113  0  0  1  0  0  0  0  0999 V2000
  -32.5480  -18.6290   19.5430 C   0  0  0  0  0  3  0  0  0  0  0  0
  -33.3710  -19.0950   18.5010 C   0  0  0  0  0  3  0  0  0  0  0  0
  -30.8380  -20.2480   18.9370 C   0  0  0  0  0  3  0  0  0  0  0  0
  -31.6810  -20.7590   17.9300 C   0  0  0  0  0  0  0  0  0  0  0  0
  -31.2600  -19.1710   19.7320 C   0  0  0  0  0  0  0  0  0  0  0  0
  -32.9390  -20.1540   17.6780 C   0  0  0  0  0  0  0  0  0  0  0  0
  -29.9890  -21.6070   16.2760 C   0  0  0  0  0  2  0  0  0  0  0  0
  -33.1860  -21.4560   15.6180 C   0  0  0  0  0  2  0  0  0  0  0  0
  -29.4620  -22.8510   15.5630 C   0  0  0  0  0  2  0  0  0  0  0  0
  -31.7950  -23.6440   15.3150 C   0  0  0  0  0  2  0  0  0  0  0  0
  -31.2020  -21.9640   17.1460 C   0  0  0  0  0  3  0  0  0  0  0  0
  -32.3160  -22.5520   16.2720 C   0  0  0  0  0  3  0  0  0  0  0  0
  -33.7700  -20.5890   16.6360 N   0  0  0  0  0  0  0  0  0  0  0  0
  -30.4800  -23.3910   14.6380 N   0  0  2  0  0  4  0  0  0  0  0  0
  -34.5690  -20.0100   16.3770 H   0  0  0  0  0  0  0  0  0  0  0  0
  -30.6300  -22.6890   13.9270 H   0  0  0  0  0  0  0  0  0  0  0  0
  -30.2970  -18.5590   20.7320 C   0  0  0  0  0  2  0  0  0  0  0  0
  -31.6040  -16.4600   20.8210 C   0  0  0  0  0  0  0  0  0  0  0  0
  -32.6390  -14.4910   21.8440 C   0  0  0  0  0  2  0  0  0  0  0  0
  -33.3260  -13.5630   20.8330 C   0  0  0  0  0  2  0  0  0  0  0  0
  -32.3180  -12.5430   20.2820 C   0  0  0  0  0  2  0  0  0  0  0  0
  -31.0190  -13.2130   19.7630 C   0  0  0  0  0  3  0  0  0  0  0  0
  -30.4480  -14.2260   20.7840 C   0  0  0  0  0  2  0  0  0  0  0  0
  -31.5110  -15.1620   21.1890 N   0  0  0  0  0  0  0  0  0  0  0  0
  -32.6770  -17.0610   20.7440 O   0  0  0  0  0  0  0  0  0  0  0  0
  -30.4340  -17.1050   20.8020 N   0  0  0  0  0  0  0  0  0  0  0  0
  -29.6070  -16.5610   20.9960 H   0  0  0  0  0  0  0  0  0  0  0  0
  -29.8390  -11.5680   18.1690 C   0  0  0  0  0  0  0  0  0  0  0  0
  -28.8290  -10.6680   18.3650 C   0  0  0  0  0  0  0  0  0  0  0  0
  -28.4450  -10.8000   19.7350 C   0  0  0  0  0  0  0  0  0  0  0  0
  -30.0270  -12.2080   19.3830 N   0  0  0  0  0  0  0  0  0  0  0  0
  -29.1430  -11.7670   20.3170 N   0  0  0  0  0  0  0  0  0  0  0  0
  -27.4960  -10.0200   20.5390 C   0  0  0  0  0  0  0  0  0  0  0  0
  -26.1420  -10.4040   20.6610 C   0  0  0  0  0  3  0  0  0  0  0  0
  -25.2420   -9.6280   21.4230 C   0  0  0  0  0  3  0  0  0  0  0  0
  -25.6920   -8.4530   22.0710 C   0  0  0  0  0  0  0  0  0  0  0  0
  -27.0460   -8.0880   21.9660 C   0  0  0  0  0  3  0  0  0  0  0  0
  -27.9400   -8.8640   21.2110 C   0  0  0  0  0  3  0  0  0  0  0  0
  -24.8960   -7.6510   22.8550 O   0  0  0  0  0  0  0  0  0  0  0  0
  -23.5980   -7.9880   23.1420 C   0  0  0  0  0  0  0  0  0  0  0  0
  -23.0230   -9.1940   22.6870 C   0  0  0  0  0  3  0  0  0  0  0  0
  -21.6660   -9.4680   22.9460 C   0  0  0  0  0  3  0  0  0  0  0  0
  -20.8800   -8.5350   23.6490 C   0  0  0  0  0  0  0  0  0  0  0  0
  -21.4500   -7.3300   24.0970 C   0  0  0  0  0  3  0  0  0  0  0  0
  -22.8040   -7.0560   23.8410 C   0  0  0  0  0  0  0  0  0  0  0  0
  -23.3440   -5.8850   24.2570 F   0  0  0  0  0  0  0  0  0  0  0  0
  -19.5730   -8.7930   23.8900 F   0  0  0  0  0  0  0  0  0  0  0  0
  -28.3060   -9.6750   17.3670 C   0  0  0  0  0  0  0  0  0  0  0  0
  -27.4340   -8.7720   17.7990 N   0  0  0  0  0  0  0  0  0  0  0  0
  -28.6330   -9.7270   16.1820 O   0  0  0  0  0  0  0  0  0  0  0  0
  -27.1520   -8.7360   18.7690 H   0  0  0  0  0  0  0  0  0  0  0  0
  -27.0420   -8.1020   17.1500 H   0  0  0  0  0  0  0  0  0  0  0  0
  -30.6290  -11.8830   17.0630 N   0  0  0  0  0  0  0  0  0  0  0  0
  -30.5490  -11.3810   16.1860 H   0  0  0  0  0  0  0  0  0  0  0  0
  -31.3860  -12.5520   17.0690 H   0  0  0  0  0  0  0  0  0  0  0  0
  -29.9550  -24.5920   13.9260 C   0  0  0  0  0  2  0  0  0  0  0  0
  -30.8470  -24.9620   12.7420 C   0  0  0  0  0  0  0  0  0  0  0  0
  -31.9280  -25.6970   13.0490 N   0  0  0  0  0  0  0  0  0  0  0  0
  -30.6280  -24.4850   11.6280 O   0  0  0  0  0  0  0  0  0  0  0  0
  -31.9840  -26.1120   13.9700 H   0  0  0  0  0  0  0  0  0  0  0  0
  -33.1320  -25.8150   12.2340 C   0  0  0  0  0  2  0  0  0  0  0  0
  -33.7920  -24.4170   11.9800 C   0  0  0  0  0  2  0  0  0  0  0  0
  -34.7970  -24.3470   10.9670 O   0  0  0  0  0  0  0  0  0  0  0  0
  -34.7160  -30.9780    8.7290 C   0  0  0  0  0  0  0  0  0  0  0  0
  -34.4880  -25.1380    9.9000 C   0  0  0  0  0  0  0  0  0  0  0  0
  -33.3070  -29.4080    7.4310 C   0  0  0  0  0  3  0  0  0  0  0  0
  -33.6970  -26.9330    7.9020 C   0  0  0  0  0  0  0  0  0  0  0  0
  -35.4310  -28.6040    8.5880 C   0  0  0  0  0  2  0  0  0  0  0  0
  -34.7530  -27.2650    8.7600 C   0  0  0  0  0  0  0  0  0  0  0  0
  -35.1610  -26.3650    9.7610 C   0  0  0  0  0  3  0  0  0  0  0  0
  -33.4280  -24.8000    9.0350 C   0  0  0  0  0  3  0  0  0  0  0  0
  -33.0370  -25.6970    8.0250 C   0  0  0  0  0  3  0  0  0  0  0  0
  -33.3200  -27.9610    6.8600 C   0  0  0  0  0  2  0  0  0  0  0  0
  -34.4910  -29.7050    8.3000 N   0  0  0  0  0  0  0  0  0  0  0  0
  -33.9820  -31.9110    8.3710 O   0  0  0  0  0  0  0  0  0  0  0  0
  -31.9510  -29.6370    8.1350 C   0  0  0  0  0  0  0  0  0  0  0  0
  -30.9310  -30.0140    7.3460 N   0  0  0  0  0  0  0  0  0  0  0  0
  -31.8270  -29.4500    9.3470 O   0  0  0  0  0  0  0  0  0  0  0  0
  -31.1220  -30.1550    6.3620 H   0  0  0  0  0  0  0  0  0  0  0  0
  -27.6820  -31.1050    6.2150 C   0  0  0  0  0  0  0  0  0  0  0  0
  -29.5550  -30.2530    7.7780 C   0  0  0  0  0  3  0  0  0  0  0  0
  -28.7610  -28.9310    7.8480 C   0  0  0  0  0  2  0  0  0  0  0  0
  -28.0000  -28.6160    6.5570 C   0  0  0  0  0  2  0  0  0  0  0  0
  -27.0110  -29.7390    6.2250 C   0  0  0  0  0  2  0  0  0  0  0  0
  -28.8850  -31.3410    6.9300 C   0  0  0  0  0  0  0  0  0  0  0  0
  -29.4880  -32.6160    6.8540 C   0  0  0  0  0  3  0  0  0  0  0  0
  -28.9080  -33.6420    6.0860 C   0  0  0  0  0  3  0  0  0  0  0  0
  -27.7060  -33.4110    5.3970 C   0  0  0  0  0  3  0  0  0  0  0  0
  -27.0930  -32.1470    5.4670 C   0  0  0  0  0  3  0  0  0  0  0  0
  -35.9120  -31.3300    9.6690 C   0  0  0  0  0  3  0  0  0  0  0  0
  -36.4450  -32.6280    9.2350 N   0  0  0  0  0  0  0  0  0  0  0  0
  -37.5160  -32.7860    8.4440 C   0  0  0  0  0  0  0  0  0  0  0  0
  -38.2110  -31.8400    8.0640 O   0  0  0  0  0  0  0  0  0  0  0  0
  -35.8940  -33.4470    9.4580 H   0  0  0  0  0  0  0  0  0  0  0  0
  -37.4640  -34.4440    6.5500 C   0  0  0  0  0  1  0  0  0  0  0  0
  -37.8780  -34.2210    8.0140 C   0  0  0  0  0  3  0  0  0  0  0  0
  -39.7270  -34.6570    9.5690 C   0  0  0  0  0  1  0  0  0  0  0  0
  -39.3120  -34.5470    8.1720 N   0  0  0  0  0  0  0  0  0  0  0  0
  -39.5310  -35.4250    7.7060 H   0  0  0  0  0  0  0  0  0  0  0  0
  -35.5170  -31.3680   11.1950 C   0  0  1  0  0  0  0  0  0  0  0  0
  -34.4360  -32.4190   11.5300 C   0  0  0  0  0  1  0  0  0  0  0  0
  -34.9940  -29.9880   11.6620 C   0  0  0  0  0  1  0  0  0  0  0  0
  -36.7620  -31.6900   12.0560 C   0  0  0  0  0  1  0  0  0  0  0  0
  1  5  1  0
  2  1  2  0
  3  5  2  0
  4  3  1  0
  5 17  1  0
  6  4  2  0
  6  2  1  0
  8 12  1  0
  8 13  1  0
  9  7  1  0
 11  7  1  0
 11  4  1  0
 12 10  1  0
 12 11  1  0
 13  6  1  0
 14 10  1  0
 14  9  1  0
 15 13  1  0
 14 16  1  6
 17 26  1  0
 18 24  1  0
 20 19  1  0
 21 20  1  0
 22 31  1  0
 22 21  1  0
 22 23  1  0
 23 24  1  0
 24 19  1  0
 25 18  2  0
 26 18  1  0
 26 27  1  0
 28 29  2  0
 28 31  1  0
 29 30  1  0
 30 32  2  0
 30 33  1  0
 31 32  1  0
 33 34  2  0
 33 38  1  0
 34 35  1  0
 35 36  2  0
 36 39  1  0
 37 36  1  0
 38 37  2  0
 39 40  1  0
 40 45  1  0
 41 42  1  0
 41 40  2  0
 42 43  2  0
 43 47  1  0
 43 44  1  0
 45 44  2  0
 45 46  1  0
 48 49  1  0
 48 29  1  0
 49 51  1  0
 50 48  2  0
 52 49  1  0
 53 55  1  0
 53 28  1  0
 54 53  1  0
 56 14  1  0
 57 58  1  0
 57 56  1  0
 58 60  1  0
 59 57  2  0
 61 58  1  0
 62 61  1  0
 63 62  1  0
 65 63  1  0
 66 76  1  0
 66 74  1  0
 67 72  2  0
 67 69  1  0
 68 69  1  0
 69 70  2  0
 70 65  1  0
 71 65  2  0
 72 71  1  0
 73 66  1  0
 73 67  1  0
 74 68  1  0
 74 64  1  0
 75 64  2  0
 76 78  2  0
 77 76  1  0
 79 77  1  0
 80 84  1  0
 80 85  1  0
 81 77  1  0
 81 82  1  0
 83 82  1  0
 84 83  1  0
 85 81  1  0
 86 85  2  0
 87 86  1  0
 88 89  1  0
 88 87  2  0
 89 80  2  0
 90 64  1  0
 90100  1  0
 91 94  1  0
 91 90  1  0
 92 91  1  0
 93 92  2  0
 96 95  1  0
 96 98  1  0
 96 92  1  0
 98 97  1  0
 99 98  1  0
100101  1  6
100102  1  0
100103  1  0
M  ISO  4  18 100  26 100  62 101  63 101
M  END
>  <TORSDO>  (63) 
F 21

>  <SCORE>  (63) 
0.031

>  <name>  (63) 
62

>  <ligand_id>  (63) 
62

>  <original_smiles>  (63) 
[H]c1c([H])c([H])c2c(c1[H])C([H])([H])C([H])([H])C([H])([H])C2([H])N([H])C(=O)C1([H])N(C(=O)C([H])(N([H])C(=O)C([H])(N([H])C([H])([H])[H])C([H])([H])[H])C(C([H])([H])[H])(C([H])([H])[H])C([H])([H])[H])C([H])([H])c2c([H])c(OC([H])([H])C([H])([H])N([H])C(=O)C([H])([H])[N+]3([H])C([H])([H])C([H])([H])C4([H])c5c([H])c(C([H])([H])N([H])C(=O)N6C([H])([H])C([H])([H])C([H])([H])C([H])(n7nc(-c8c([H])c([H])c(Oc9c([H])c([H])c(F)c([H])c9F)c([H])c8[H])c(C(=O)N([H])[H])c7N([H])[H])C6([H])[H])c([H])c([H])c5N([H])C([H])([H])C4([H])C3([H])[H])c([H])c([H])c2C1([H])[H]

>  <smiles>  (63) 
[H]c1c([H])c([H])c2c(c1[H])C([H])([H])C([H])([H])C([H])([H])C2([H])N([H])C(=O)C1([H])N(C(=O)C([H])(N([H])C(=O)C([H])(N([H])C([H])([H])[H])C([H])([H])[H])C(C([H])([H])[H])(C([H])([H])[H])C([H])([H])[H])C([H])([H])c2c([H])c(OC([H])([H])C([H])([H])N([H])C(=O)C([H])([H])[N+]3([H])C([H])([H])C([H])([H])C4([H])c5c([H])c(C([H])([H])N([H])C(=O)N6C([H])([H])C([H])([H])C([H])([H])C([H])(n7nc(-c8c([H])c([H])c(Oc9c([H])c([H])c(F)c([H])c9F)c([H])c8[H])c(C(=O)N([H])[H])c7N([H])[H])C6([H])[H])c([H])c([H])c5N([H])C([H])([H])C4([H])C3([H])[H])c([H])c([H])c2C1([H])[H]

$$$$
63:0:0
     RDKit          3D

 96104  0  0  1  0  0  0  0  0999 V2000
  -31.2730  -21.4380   21.4000 N   0  0  1  0  0  4  0  0  0  0  0  0
  -31.5630  -21.9500   22.2190 H   0  0  0  0  0  0  0  0  0  0  0  0
  -30.2200  -20.5030   21.9030 C   0  0  0  0  0  2  0  0  0  0  0  0
  -29.3540  -19.4990   19.7170 C   0  0  0  0  0  3  0  0  0  0  0  0
  -29.0760  -18.3930   18.8920 C   0  0  0  0  0  3  0  0  0  0  0  0
  -30.1290  -17.9890   21.4690 C   0  0  0  0  0  3  0  0  0  0  0  0
  -29.9040  -19.3070   21.0030 C   0  0  0  0  0  0  0  0  0  0  0  0
  -29.8390  -16.8760   20.6500 C   0  0  0  0  0  0  0  0  0  0  0  0
  -29.3150  -17.0870   19.3520 C   0  0  0  0  0  0  0  0  0  0  0  0
  -29.0030  -16.0430   18.5490 F   0  0  0  0  0  0  0  0  0  0  0  0
  -30.6950  -14.6070   20.5510 C   0  0  0  0  0  0  0  0  0  0  0  0
  -30.4390  -12.4730   19.3610 C   0  0  0  0  0  2  0  0  0  0  0  0
  -29.5070  -12.7010   18.1520 C   0  0  0  0  0  2  0  0  0  0  0  0
  -28.0250  -12.5610   18.5580 C   0  0  0  0  0  2  0  0  0  0  0  0
  -27.6730  -13.3580   19.8430 C   0  0  0  0  0  3  0  0  0  0  0  0
  -28.7160  -13.0990   20.9540 C   0  0  0  0  0  2  0  0  0  0  0  0
  -30.0500  -13.4190   20.4150 N   0  0  0  0  0  0  0  0  0  0  0  0
  -31.8060  -14.8430   20.0650 O   0  0  0  0  0  0  0  0  0  0  0  0
  -29.9900  -15.5640   21.1700 N   0  0  0  0  0  0  0  0  0  0  0  0
  -29.1940  -15.2210   21.6860 H   0  0  0  0  0  0  0  0  0  0  0  0
  -25.2520  -13.9360   20.5060 C   0  0  0  0  0  0  0  0  0  0  0  0
  -24.1880  -13.1490   20.8570 C   0  0  0  0  0  0  0  0  0  0  0  0
  -24.6680  -11.8040   20.8340 C   0  0  0  0  0  0  0  0  0  0  0  0
  -26.3130  -13.0680   20.2950 N   0  0  0  0  0  0  0  0  0  0  0  0
  -25.9630  -11.7810   20.5480 N   0  0  0  0  0  0  0  0  0  0  0  0
  -23.9590  -10.5310   21.0140 C   0  0  0  0  0  0  0  0  0  0  0  0
  -24.3740   -9.5840   21.9750 C   0  0  0  0  0  3  0  0  0  0  0  0
  -23.6650   -8.3750   22.1420 C   0  0  0  0  0  3  0  0  0  0  0  0
  -22.5270   -8.1040   21.3460 C   0  0  0  0  0  0  0  0  0  0  0  0
  -22.1300   -9.0410   20.3750 C   0  0  0  0  0  3  0  0  0  0  0  0
  -22.8400  -10.2410   20.2080 C   0  0  0  0  0  3  0  0  0  0  0  0
  -21.7940   -6.9450   21.4200 O   0  0  0  0  0  0  0  0  0  0  0  0
  -21.6980   -6.2250   22.5840 C   0  0  0  0  0  0  0  0  0  0  0  0
  -21.1710   -6.7900   23.7660 C   0  0  0  0  0  3  0  0  0  0  0  0
  -21.0240   -5.9960   24.9210 C   0  0  0  0  0  3  0  0  0  0  0  0
  -21.3960   -4.6390   24.8950 C   0  0  0  0  0  0  0  0  0  0  0  0
  -21.9160   -4.0740   23.7170 C   0  0  0  0  0  3  0  0  0  0  0  0
  -22.0630   -4.8650   22.5640 C   0  0  0  0  0  0  0  0  0  0  0  0
  -22.5450   -4.3110   21.4240 F   0  0  0  0  0  0  0  0  0  0  0  0
  -21.2470   -3.8720   26.0010 F   0  0  0  0  0  0  0  0  0  0  0  0
  -22.7790  -13.6070   21.1090 C   0  0  0  0  0  0  0  0  0  0  0  0
  -22.0480  -12.8970   21.9610 N   0  0  0  0  0  0  0  0  0  0  0  0
  -22.3350  -14.6270   20.5870 O   0  0  0  0  0  0  0  0  0  0  0  0
  -22.4180  -12.0710   22.4060 H   0  0  0  0  0  0  0  0  0  0  0  0
  -21.1020  -13.1860   22.1710 H   0  0  0  0  0  0  0  0  0  0  0  0
  -25.4050  -15.3070   20.3290 N   0  0  0  0  0  0  0  0  0  0  0  0
  -24.6320  -15.9590   20.4230 H   0  0  0  0  0  0  0  0  0  0  0  0
  -26.2550  -15.7460   19.9990 H   0  0  0  0  0  0  0  0  0  0  0  0
  -32.5150  -20.7760   20.9020 C   0  0  0  0  0  2  0  0  0  0  0  0
  -34.7250  -19.6320   21.5080 C   0  0  0  0  0  1  0  0  0  0  0  0
  -33.3780  -20.1560   22.0220 C   0  0  0  0  0  2  0  0  0  0  0  0
  -30.7990  -22.5060   20.4650 C   0  0  0  0  0  2  0  0  0  0  0  0
  -29.7140  -23.4430   21.0490 C   0  0  0  0  0  2  0  0  0  0  0  0
  -29.5700  -24.7740   20.2830 C   0  0  0  0  0  2  0  0  0  0  0  0
  -28.3640  -25.6040   20.7570 C   0  0  0  0  0  2  0  0  0  0  0  0
  -28.3930  -26.9010   20.1600 O   0  0  0  0  0  0  0  0  0  0  0  0
  -24.5340  -31.9890   23.2970 C   0  0  0  0  0  0  0  0  0  0  0  0
  -27.2050  -27.5930   20.1990 C   0  0  0  0  0  0  0  0  0  0  0  0
  -23.3290  -30.5770   21.6620 C   0  0  0  0  0  3  0  0  0  0  0  0
  -24.7890  -29.0540   20.2290 C   0  0  0  0  0  0  0  0  0  0  0  0
  -25.8470  -30.9670   21.4440 C   0  0  0  0  0  2  0  0  0  0  0  0
  -25.9440  -29.5970   20.8060 C   0  0  0  0  0  0  0  0  0  0  0  0
  -27.1570  -28.8750   20.7840 C   0  0  0  0  0  3  0  0  0  0  0  0
  -26.0350  -27.0550   19.6200 C   0  0  0  0  0  3  0  0  0  0  0  0
  -24.8280  -27.7810   19.6350 C   0  0  0  0  0  3  0  0  0  0  0  0
  -23.5360  -29.8980   20.2820 C   0  0  0  0  0  2  0  0  0  0  0  0
  -24.5890  -31.1910   22.1930 N   0  0  0  0  0  0  0  0  0  0  0  0
  -23.4560  -32.2520   23.8460 O   0  0  0  0  0  0  0  0  0  0  0  0
  -22.6960  -29.5490   22.6270 C   0  0  0  0  0  0  0  0  0  0  0  0
  -21.3770  -29.3350   22.4890 N   0  0  0  0  0  0  0  0  0  0  0  0
  -23.3870  -28.9460   23.4510 O   0  0  0  0  0  0  0  0  0  0  0  0
  -20.8800  -29.8760   21.7940 H   0  0  0  0  0  0  0  0  0  0  0  0
  -18.0330  -28.0480   22.9420 C   0  0  0  0  0  0  0  0  0  0  0  0
  -20.5750  -28.3870   23.2600 C   0  0  0  0  0  3  0  0  0  0  0  0
  -20.7330  -26.9510   22.7120 C   0  0  0  0  0  2  0  0  0  0  0  0
  -19.6620  -26.5760   21.6820 C   0  0  0  0  0  2  0  0  0  0  0  0
  -18.2640  -26.6920   22.2960 C   0  0  0  0  0  2  0  0  0  0  0  0
  -19.1190  -28.8500   23.3800 C   0  0  0  0  0  0  0  0  0  0  0  0
  -18.8520  -30.1160   23.9440 C   0  0  0  0  0  3  0  0  0  0  0  0
  -17.5300  -30.5820   24.0730 C   0  0  0  0  0  3  0  0  0  0  0  0
  -16.4580  -29.7780   23.6510 C   0  0  0  0  0  3  0  0  0  0  0  0
  -16.7090  -28.5120   23.0910 C   0  0  0  0  0  3  0  0  0  0  0  0
  -25.8210  -32.6310   23.9080 C   0  0  0  0  0  3  0  0  0  0  0  0
  -25.5150  -34.0360   24.2080 N   0  0  0  0  0  0  0  0  0  0  0  0
  -25.8640  -35.0710   23.4340 C   0  0  0  0  0  0  0  0  0  0  0  0
  -26.5510  -34.9460   22.4170 O   0  0  0  0  0  0  0  0  0  0  0  0
  -24.9070  -34.2070   24.9950 H   0  0  0  0  0  0  0  0  0  0  0  0
  -24.1640  -36.8720   23.0000 C   0  0  0  0  0  1  0  0  0  0  0  0
  -25.3740  -36.4690   23.8570 C   0  0  0  0  0  3  0  0  0  0  0  0
  -27.4880  -37.3490   24.7450 C   0  0  0  0  0  1  0  0  0  0  0  0
  -26.4180  -37.5120   23.7640 N   0  0  0  0  0  0  0  0  0  0  0  0
  -26.0150  -38.4370   23.8860 H   0  0  0  0  0  0  0  0  0  0  0  0
  -26.3370  -31.8830   25.1980 C   0  0  1  0  0  0  0  0  0  0  0  0
  -25.2400  -31.6580   26.2650 C   0  0  0  0  0  1  0  0  0  0  0  0
  -26.9270  -30.5010   24.8280 C   0  0  0  0  0  1  0  0  0  0  0  0
  -27.4810  -32.6930   25.8520 C   0  0  0  0  0  1  0  0  0  0  0  0
  1  3  1  0
  1  2  1  1
  4  7  1  0
  5  9  1  0
  5  4  2  0
  7  6  2  0
  7  3  1  0
  8 19  1  0
  8  6  1  0
  9  8  2  0
 10  9  1  0
 11 19  1  0
 12 17  1  0
 13 14  1  0
 13 12  1  0
 15 14  1  0
 15 24  1  0
 15 16  1  0
 17 11  1  0
 17 16  1  0
 18 11  2  0
 19 20  1  0
 21 22  2  0
 22 41  1  0
 23 22  1  0
 23 26  1  0
 24 21  1  0
 24 25  1  0
 25 23  2  0
 26 27  1  0
 27 28  2  0
 29 32  1  0
 29 28  1  0
 30 29  2  0
 31 30  1  0
 31 26  2  0
 32 33  1  0
 33 34  1  0
 34 35  2  0
 36 35  1  0
 36 40  1  0
 37 36  2  0
 38 33  2  0
 38 37  1  0
 39 38  1  0
 41 42  1  0
 42 45  1  0
 42 44  1  0
 43 41  2  0
 46 47  1  0
 46 21  1  0
 48 46  1  0
 49  1  1  0
 49 51  1  0
 50 51  1  0
 52 53  1  0
 52  1  1  0
 54 55  1  0
 54 53  1  0
 56 58  1  0
 56 55  1  0
 57 68  2  0
 58 63  1  0
 59 67  1  0
 59 69  1  0
 60 66  1  0
 60 62  1  0
 61 67  1  0
 62 61  1  0
 63 62  2  0
 64 65  1  0
 64 58  2  0
 65 60  2  0
 66 59  1  0
 67 57  1  0
 69 71  2  0
 70 69  1  0
 72 70  1  0
 73 82  2  0
 73 78  1  0
 74 70  1  0
 74 78  1  0
 75 74  1  0
 76 77  1  0
 76 75  1  0
 77 73  1  0
 78 79  2  0
 79 80  1  0
 81 80  2  0
 82 81  1  0
 83 57  1  0
 83 84  1  0
 83 93  1  0
 84 87  1  0
 85 89  1  0
 85 84  1  0
 86 85  2  0
 89 88  1  0
 91 89  1  0
 91 92  1  0
 91 90  1  0
 93 96  1  1
 93 94  1  0
 95 93  1  0
M  ISO  4  11 100  19 100  55 101  56 101
M  END
>  <TORSDO>  (64) 
F 24

>  <SCORE>  (64) 
-12.707

>  <name>  (64) 
63

>  <ligand_id>  (64) 
63

>  <original_smiles>  (64) 
[H]c1c([H])c([H])c2c(c1[H])C([H])([H])C([H])([H])C([H])([H])C2([H])N([H])C(=O)C1([H])N(C(=O)C([H])(N([H])C(=O)C([H])(N([H])C([H])([H])[H])C([H])([H])[H])C(C([H])([H])[H])(C([H])([H])[H])C([H])([H])[H])C([H])([H])c2c([H])c(OC([H])([H])C([H])([H])C([H])([H])C([H])([H])[N+]([H])(C([H])([H])c3c([H])c([H])c(F)c(N([H])C(=O)N4C([H])([H])C([H])([H])C([H])([H])C([H])(n5nc(-c6c([H])c([H])c(Oc7c([H])c([H])c(F)c([H])c7F)c([H])c6[H])c(C(=O)N([H])[H])c5N([H])[H])C4([H])[H])c3[H])C([H])([H])C([H])([H])C([H])([H])[H])c([H])c([H])c2C1([H])[H]

>  <smiles>  (64) 
[H]c1c([H])c([H])c2c(c1[H])C([H])([H])C([H])([H])C([H])([H])C2([H])N([H])C(=O)C1([H])N(C(=O)C([H])(N([H])C(=O)C([H])(N([H])C([H])([H])[H])C([H])([H])[H])C(C([H])([H])[H])(C([H])([H])[H])C([H])([H])[H])C([H])([H])c2c([H])c(OC([H])([H])C([H])([H])C([H])([H])C([H])([H])[N+]([H])(C([H])([H])c3c([H])c([H])c(F)c(N([H])C(=O)N4C([H])([H])C([H])([H])C([H])([H])C([H])(n5nc(-c6c([H])c([H])c(Oc7c([H])c([H])c(F)c([H])c7F)c([H])c6[H])c(C(=O)N([H])[H])c5N([H])[H])C4([H])[H])c3[H])C([H])([H])C([H])([H])C([H])([H])[H])c([H])c([H])c2C1([H])[H]

$$$$
64:0:0
     RDKit          3D

 99107  0  0  1  0  0  0  0  0999 V2000
  -27.8590  -18.6970   20.9550 C   0  0  0  0  0  3  0  0  0  0  0  0
  -29.0350  -18.3400   21.6410 C   0  0  0  0  0  3  0  0  0  0  0  0
  -28.6150  -17.4290   19.0170 C   0  0  0  0  0  3  0  0  0  0  0  0
  -27.6530  -18.2560   19.6340 C   0  0  0  0  0  0  0  0  0  0  0  0
  -30.0290  -17.5630   21.0090 C   0  0  0  0  0  0  0  0  0  0  0  0
  -29.8180  -17.1070   19.6810 C   0  0  0  0  0  0  0  0  0  0  0  0
  -30.8320  -16.2440   18.9450 C   0  0  0  0  0  2  0  0  0  0  0  0
  -31.1390  -13.7870   18.7400 C   0  0  0  0  0  0  0  0  0  0  0  0
  -30.8960  -11.3430   18.5500 C   0  0  0  0  0  2  0  0  0  0  0  0
  -29.8030  -10.9620   17.5300 C   0  0  0  0  0  2  0  0  0  0  0  0
  -28.4090  -10.9550   18.1880 C   0  0  0  0  0  2  0  0  0  0  0  0
  -28.1270  -12.2540   18.9840 C   0  0  0  0  0  3  0  0  0  0  0  0
  -29.3040  -12.5540   19.9410 C   0  0  0  0  0  2  0  0  0  0  0  0
  -30.5450  -12.6380   19.1440 N   0  0  0  0  0  0  0  0  0  0  0  0
  -32.0200  -13.8460   17.8780 O   0  0  0  0  0  0  0  0  0  0  0  0
  -30.6820  -14.8670   19.3740 N   0  0  0  0  0  0  0  0  0  0  0  0
  -30.0080  -14.6870   20.1010 H   0  0  0  0  0  0  0  0  0  0  0  0
  -26.0600  -13.1930   20.2050 C   0  0  0  0  0  0  0  0  0  0  0  0
  -24.9480  -12.5800   20.7220 C   0  0  0  0  0  0  0  0  0  0  0  0
  -25.1300  -11.1800   20.4970 C   0  0  0  0  0  0  0  0  0  0  0  0
  -26.8570  -12.1750   19.7050 N   0  0  0  0  0  0  0  0  0  0  0  0
  -26.3090  -10.9540   19.9330 N   0  0  0  0  0  0  0  0  0  0  0  0
  -24.2260  -10.0460   20.7340 C   0  0  0  0  0  0  0  0  0  0  0  0
  -24.5450   -9.0310   21.6630 C   0  0  0  0  0  3  0  0  0  0  0  0
  -23.6520   -7.9610   21.8870 C   0  0  0  0  0  3  0  0  0  0  0  0
  -22.4270   -7.8980   21.1800 C   0  0  0  0  0  0  0  0  0  0  0  0
  -22.1250   -8.8990   20.2400 C   0  0  0  0  0  3  0  0  0  0  0  0
  -23.0170   -9.9630   20.0140 C   0  0  0  0  0  3  0  0  0  0  0  0
  -21.5130   -6.8810   21.3140 O   0  0  0  0  0  0  0  0  0  0  0  0
  -21.2480   -6.3080   22.5320 C   0  0  0  0  0  0  0  0  0  0  0  0
  -20.7620   -7.0650   23.6200 C   0  0  0  0  0  3  0  0  0  0  0  0
  -20.4340   -6.4240   24.8310 C   0  0  0  0  0  3  0  0  0  0  0  0
  -20.5820   -5.0290   24.9530 C   0  0  0  0  0  0  0  0  0  0  0  0
  -21.0600   -4.2740   23.8680 C   0  0  0  0  0  3  0  0  0  0  0  0
  -21.3890   -4.9120   22.6590 C   0  0  0  0  0  0  0  0  0  0  0  0
  -21.8290   -4.1760   21.6100 F   0  0  0  0  0  0  0  0  0  0  0  0
  -20.2600   -4.4120   26.1140 F   0  0  0  0  0  0  0  0  0  0  0  0
  -23.7430  -13.2560   21.3120 C   0  0  0  0  0  0  0  0  0  0  0  0
  -23.0890  -12.6110   22.2730 N   0  0  0  0  0  0  0  0  0  0  0  0
  -23.4020  -14.3820   20.9570 O   0  0  0  0  0  0  0  0  0  0  0  0
  -23.3790  -11.6930   22.5750 H   0  0  0  0  0  0  0  0  0  0  0  0
  -22.2860  -13.0420   22.7110 H   0  0  0  0  0  0  0  0  0  0  0  0
  -26.4540  -14.5220   20.1040 N   0  0  0  0  0  0  0  0  0  0  0  0
  -25.8930  -15.2880   20.4560 H   0  0  0  0  0  0  0  0  0  0  0  0
  -27.3440  -14.8210   19.7290 H   0  0  0  0  0  0  0  0  0  0  0  0
  -26.4670  -18.7590   18.8340 C   0  0  0  0  0  2  0  0  0  0  0  0
  -27.0070  -19.5950   17.7470 N   0  0  0  0  0  4  0  0  0  0  0  0
  -26.8010  -19.1620   16.8620 H   0  0  0  0  0  0  0  0  0  0  0  0
  -28.0050  -19.5760   17.8740 H   0  0  0  0  0  0  0  0  0  0  0  0
  -26.5980  -21.0090   17.7220 C   0  0  0  0  0  2  0  0  0  0  0  0
  -27.8230  -21.9110   17.4860 C   0  0  0  0  0  2  0  0  0  0  0  0
  -27.4820  -23.3980   17.6160 C   0  0  0  0  0  2  0  0  0  0  0  0
  -28.6540  -24.2670   18.1060 C   0  0  0  0  0  2  0  0  0  0  0  0
  -28.5840  -25.6330   17.6970 O   0  0  0  0  0  0  0  0  0  0  0  0
  -26.5570  -29.3920   23.3980 C   0  0  0  0  0  0  0  0  0  0  0  0
  -27.6320  -26.4410   18.2720 C   0  0  0  0  0  0  0  0  0  0  0  0
  -24.8980  -29.2230   21.5700 C   0  0  0  0  0  3  0  0  0  0  0  0
  -25.7590  -28.2370   19.3870 C   0  0  0  0  0  0  0  0  0  0  0  0
  -27.4030  -29.0590   21.0800 C   0  0  0  0  0  2  0  0  0  0  0  0
  -27.0530  -28.1570   19.9160 C   0  0  0  0  0  0  0  0  0  0  0  0
  -27.9940  -27.2620   19.3630 C   0  0  0  0  0  3  0  0  0  0  0  0
  -26.3290  -26.5490   17.7400 C   0  0  0  0  0  3  0  0  0  0  0  0
  -25.3880  -27.4260   18.3030 C   0  0  0  0  0  3  0  0  0  0  0  0
  -24.8190  -29.2320   20.0210 C   0  0  0  0  0  2  0  0  0  0  0  0
  -26.3110  -29.2050   22.0700 N   0  0  0  0  0  0  0  0  0  0  0  0
  -25.6350  -29.6170   24.1950 O   0  0  0  0  0  0  0  0  0  0  0  0
  -24.0450  -28.0480   22.0990 C   0  0  0  0  0  0  0  0  0  0  0  0
  -22.7140  -28.1680   21.9660 N   0  0  0  0  0  0  0  0  0  0  0  0
  -24.5800  -27.0470   22.5870 O   0  0  0  0  0  0  0  0  0  0  0  0
  -22.3540  -29.0200   21.5620 H   0  0  0  0  0  0  0  0  0  0  0  0
  -19.1870  -27.3910   21.8880 C   0  0  0  0  0  0  0  0  0  0  0  0
  -21.7180  -27.1710   22.3600 C   0  0  0  0  0  3  0  0  0  0  0  0
  -21.6980  -25.9850   21.3700 C   0  0  0  0  0  2  0  0  0  0  0  0
  -20.6670  -26.1520   20.2490 C   0  0  0  0  0  2  0  0  0  0  0  0
  -19.2590  -26.2990   20.8330 C   0  0  0  0  0  2  0  0  0  0  0  0
  -20.3460  -27.8120   22.5930 C   0  0  0  0  0  0  0  0  0  0  0  0
  -20.2310  -28.8540   23.5380 C   0  0  0  0  0  3  0  0  0  0  0  0
  -18.9910  -29.4730   23.7830 C   0  0  0  0  0  3  0  0  0  0  0  0
  -17.8440  -29.0420   23.0930 C   0  0  0  0  0  3  0  0  0  0  0  0
  -17.9430  -28.0020   22.1510 C   0  0  0  0  0  3  0  0  0  0  0  0
  -28.0060  -29.3540   23.9730 C   0  0  0  0  0  3  0  0  0  0  0  0
  -28.3870  -27.9610   24.6080 C   0  0  1  0  0  0  0  0  0  0  0  0
  -27.3550  -27.4440   25.6370 C   0  0  0  0  0  1  0  0  0  0  0  0
  -28.5380  -26.8840   23.5100 C   0  0  0  0  0  1  0  0  0  0  0  0
  -29.7600  -28.0650   25.3160 C   0  0  0  0  0  1  0  0  0  0  0  0
  -28.1150  -30.4270   24.9700 N   0  0  0  0  0  0  0  0  0  0  0  0
  -28.7380  -31.5940   24.7640 C   0  0  0  0  0  0  0  0  0  0  0  0
  -29.3540  -31.8520   23.7260 O   0  0  0  0  0  0  0  0  0  0  0  0
  -27.5870  -30.3080   25.8230 H   0  0  0  0  0  0  0  0  0  0  0  0
  -27.6330  -33.7200   25.5250 C   0  0  0  0  0  1  0  0  0  0  0  0
  -28.6680  -32.6440   25.8900 C   0  0  0  0  0  3  0  0  0  0  0  0
  -30.9360  -32.3710   26.7900 C   0  0  0  0  0  1  0  0  0  0  0  0
  -29.9720  -33.2820   26.1800 N   0  0  0  0  0  0  0  0  0  0  0  0
  -29.8530  -34.0780   26.7990 H   0  0  0  0  0  0  0  0  0  0  0  0
  -31.3070  -17.2640   21.7800 C   0  0  0  0  0  2  0  0  0  0  0  0
  -32.3030  -18.3160   21.5450 N   0  0  0  0  0  4  0  0  0  0  0  0
  -32.5330  -18.3840   20.5720 H   0  0  0  0  0  0  0  0  0  0  0  0
  -33.1410  -18.1160   22.0610 H   0  0  0  0  0  0  0  0  0  0  0  0
  -31.9450  -19.2040   21.8480 H   0  0  0  0  0  0  0  0  0  0  0  0
  1  2  1  0
  3  4  1  0
  3  6  2  0
  4  1  2  0
  5  2  2  0
  5 95  1  0
  6  5  1  0
  7 16  1  0
  7  6  1  0
  8 14  1  0
  8 16  1  0
  9 14  1  0
 10 11  1  0
 10  9  1  0
 12 11  1  0
 12 21  1  0
 12 13  1  0
 14 13  1  0
 15  8  2  0
 16 17  1  0
 18 19  2  0
 19 38  1  0
 20 19  1  0
 20 23  1  0
 21 22  1  0
 21 18  1  0
 22 20  2  0
 23 24  1  0
 24 25  2  0
 26 29  1  0
 26 25  1  0
 27 26  2  0
 28 27  1  0
 28 23  2  0
 29 30  1  0
 30 35  2  0
 30 31  1  0
 31 32  2  0
 32 33  1  0
 33 37  1  0
 34 33  2  0
 35 34  1  0
 36 35  1  0
 38 39  1  0
 39 41  1  0
 39 42  1  0
 40 38  2  0
 43 18  1  0
 43 44  1  0
 45 43  1  0
 46  4  1  0
 47 49  1  0
 47 46  1  0
 48 47  1  0
 50 47  1  0
 51 52  1  0
 51 50  1  0
 52 53  1  0
 54 53  1  0
 54 56  1  0
 55 66  2  0
 56 61  1  0
 57 65  1  0
 57 67  1  0
 58 60  1  0
 58 64  1  0
 59 65  1  0
 60 59  1  0
 61 60  2  0
 62 56  2  0
 62 63  1  0
 63 58  2  0
 64 57  1  0
 65 55  1  0
 67 69  2  0
 68 67  1  0
 70 68  1  0
 71 80  2  0
 71 76  1  0
 72 68  1  0
 72 76  1  0
 73 72  1  0
 74 75  1  0
 74 73  1  0
 75 71  1  0
 76 77  2  0
 77 78  1  0
 79 78  2  0
 80 79  1  0
 81 55  1  0
 81 82  1  0
 81 86  1  0
 82 85  1  1
 82 83  1  0
 84 82  1  0
 86 89  1  0
 87 86  1  0
 87 91  1  0
 88 87  2  0
 91 90  1  0
 91 93  1  0
 93 92  1  0
 93 94  1  0
 96 95  1  0
 96 99  1  0
 96 98  1  0
 97 96  1  0
M  ISO  4   8 100  16 100  53 101  54 101
M  END
>  <TORSDO>  (65) 
F 25

>  <SCORE>  (65) 
-5.479

>  <name>  (65) 
64

>  <ligand_id>  (65) 
64

>  <original_smiles>  (65) 
[H]c1c([H])c([H])c2c(c1[H])C([H])([H])C([H])([H])C([H])([H])C2([H])N([H])C(=O)C1([H])N(C(=O)C([H])(N([H])C(=O)C([H])(N([H])C([H])([H])[H])C([H])([H])[H])C(C([H])([H])[H])(C([H])([H])[H])C([H])([H])[H])C([H])([H])c2c([H])c(OC([H])([H])C([H])([H])C([H])([H])C([H])([H])[N+]([H])([H])C([H])([H])c3c([H])c([H])c(C([H])([H])[N+]([H])([H])[H])c(C([H])([H])N([H])C(=O)N4C([H])([H])C([H])([H])C([H])([H])C([H])(n5nc(-c6c([H])c([H])c(Oc7c([H])c([H])c(F)c([H])c7F)c([H])c6[H])c(C(=O)N([H])[H])c5N([H])[H])C4([H])[H])c3[H])c([H])c([H])c2C1([H])[H]

>  <smiles>  (65) 
[H]c1c([H])c([H])c2c(c1[H])C([H])([H])C([H])([H])C([H])([H])C2([H])N([H])C(=O)C1([H])N(C(=O)C([H])(N([H])C(=O)C([H])(N([H])C([H])([H])[H])C([H])([H])[H])C(C([H])([H])[H])(C([H])([H])[H])C([H])([H])[H])C([H])([H])c2c([H])c(OC([H])([H])C([H])([H])C([H])([H])C([H])([H])[N+]([H])([H])C([H])([H])c3c([H])c([H])c(C([H])([H])[N+]([H])([H])[H])c(C([H])([H])N([H])C(=O)N4C([H])([H])C([H])([H])C([H])([H])C([H])(n5nc(-c6c([H])c([H])c(Oc7c([H])c([H])c(F)c([H])c7F)c([H])c6[H])c(C(=O)N([H])[H])c5N([H])[H])C4([H])[H])c3[H])c([H])c([H])c2C1([H])[H]

$$$$
65:0:0
     RDKit          3D

 96106  0  0  1  0  0  0  0  0999 V2000
  -25.2360  -15.6270   20.5620 C   0  0  0  0  0  3  0  0  0  0  0  0
  -25.2810  -14.4120   22.0390 C   0  0  0  0  0  3  0  0  0  0  0  0
  -28.1210  -14.6420   19.5790 C   0  0  0  0  0  2  0  0  0  0  0  0
  -28.2420  -13.3690   21.0540 C   0  0  0  0  0  3  0  0  0  0  0  0
  -26.6820  -15.7910   19.3830 C   0  0  1  0  0  0  0  0  0  0  0  0
  -26.7610  -13.2610   22.2560 C   0  0  0  0  0  0  0  0  0  0  0  0
  -26.7660  -12.4310   23.3200 F   0  0  0  0  0  0  0  0  0  0  0  0
  -31.1900  -11.8330   19.6250 C   0  0  0  0  0  0  0  0  0  0  0  0
  -30.2180  -10.1980   17.9640 C   0  0  0  0  0  2  0  0  0  0  0  0
  -29.1350  -10.4540   16.8590 C   0  0  0  0  0  2  0  0  0  0  0  0
  -27.7310  -10.8110   17.4550 C   0  0  0  0  0  2  0  0  0  0  0  0
  -27.7650  -12.0120   18.4260 C   0  0  0  0  0  3  0  0  0  0  0  0
  -29.2230  -12.1760   18.7950 C   0  0  0  0  0  2  0  0  0  0  0  0
  -30.1520  -11.1560   19.0810 N   0  0  0  0  0  0  0  0  0  0  0  0
  -32.2680  -12.0150   19.0290 O   0  0  0  0  0  0  0  0  0  0  0  0
  -30.8500  -11.2470   23.1120 C   0  0  0  0  0  2  0  0  0  0  0  0
  -29.4370  -11.6920   22.7260 C   0  0  0  0  0  2  0  0  0  0  0  0
  -31.7620  -11.6900   21.9510 C   0  0  0  0  0  2  0  0  0  0  0  0
  -29.6170  -12.7280   21.6080 C   0  0  0  0  0  3  0  0  0  0  0  0
  -30.8840  -12.2240   20.9080 N   0  0  0  0  0  0  0  0  0  0  0  0
  -25.9940  -13.5380   19.9470 C   0  0  0  0  0  2  0  0  0  0  0  0
  -24.7260  -12.7270   20.1160 C   0  0  0  0  0  3  0  0  0  0  0  0
  -24.9220  -11.2880   20.2150 C   0  0  0  0  0  3  0  0  0  0  0  0
  -26.6260  -12.2660   19.3760 N   0  0  0  0  0  0  0  0  0  0  0  0
  -26.1210  -11.0600   19.8030 N   0  0  0  0  0  2  0  0  0  0  0  0
  -24.0190  -10.1110   20.6090 C   0  0  0  0  0  0  0  0  0  0  0  0
  -24.3880   -9.1210   21.5680 C   0  0  0  0  0  3  0  0  0  0  0  0
  -23.5120   -8.0660   21.9540 C   0  0  0  0  0  3  0  0  0  0  0  0
  -22.2150   -7.9650   21.3980 C   0  0  0  0  0  0  0  0  0  0  0  0
  -21.8490   -8.9170   20.4290 C   0  0  0  0  0  3  0  0  0  0  0  0
  -22.7280   -9.9570   20.0410 C   0  0  0  0  0  3  0  0  0  0  0  0
  -21.3050   -6.9590   21.6710 O   0  0  0  0  0  0  0  0  0  0  0  0
  -21.4110   -6.1280   22.7630 C   0  0  0  0  0  0  0  0  0  0  0  0
  -21.2520   -6.6040   24.0820 C   0  0  0  0  0  3  0  0  0  0  0  0
  -21.3000   -5.7120   25.1740 C   0  0  0  0  0  3  0  0  0  0  0  0
  -21.5010   -4.3340   24.9500 C   0  0  0  0  0  0  0  0  0  0  0  0
  -21.6400   -3.8510   23.6370 C   0  0  0  0  0  3  0  0  0  0  0  0
  -21.5890   -4.7430   22.5490 C   0  0  0  0  0  0  0  0  0  0  0  0
  -21.7010   -4.2580   21.2890 F   0  0  0  0  0  0  0  0  0  0  0  0
  -21.5530   -3.4750   25.9950 F   0  0  0  0  0  0  0  0  0  0  0  0
  -23.2920  -13.1830   20.4210 C   0  0  0  0  0  0  0  0  0  0  0  0
  -22.7280  -12.8100   21.5740 N   0  0  0  0  0  0  0  0  0  0  0  0
  -22.7100  -13.9800   19.6990 O   0  0  0  0  0  0  0  0  0  0  0  0
  -23.2040  -12.1910   22.2190 H   0  0  0  0  0  0  0  0  0  0  0  0
  -21.8030  -13.1340   21.8100 H   0  0  0  0  0  0  0  0  0  0  0  0
  -27.0040  -15.6600   21.0370 N   0  0  0  0  0  4  0  0  0  0  0  0
  -26.4530  -16.2940   21.6010 H   0  0  0  0  0  0  0  0  0  0  0  0
  -28.0070  -15.7790   21.1240 H   0  0  0  0  0  0  0  0  0  0  0  0
  -27.1010  -17.4030   18.9600 C   0  0  0  0  0  2  0  0  0  0  0  0
  -28.0820  -18.4830   19.7090 N   0  0  0  0  0  4  0  0  0  0  0  0
  -28.8740  -18.5640   19.0950 H   0  0  0  0  0  0  0  0  0  0  0  0
  -28.4090  -18.0010   20.5270 H   0  0  0  0  0  0  0  0  0  0  0  0
  -27.7300  -20.0160   20.1950 C   0  0  0  0  0  3  0  0  0  0  0  0
  -28.7930  -21.2950   20.8150 C   0  0  0  0  0  3  0  0  0  0  0  0
  -28.3950  -22.8070   21.6430 C   0  0  0  0  0  2  0  0  0  0  0  0
  -28.9620  -24.3500   21.7550 O   0  0  0  0  0  0  0  0  0  0  0  0
  -27.0850  -30.7560   25.1700 C   0  0  0  0  0  0  0  0  0  0  0  0
  -28.0410  -25.4490   22.0480 C   0  0  0  0  0  0  0  0  0  0  0  0
  -25.5370  -28.8610   25.0580 C   0  0  0  0  0  3  0  0  0  0  0  0
  -25.9860  -27.1040   23.2530 C   0  0  0  0  0  0  0  0  0  0  0  0
  -27.2140  -29.2460   23.1350 C   0  0  0  0  0  2  0  0  0  0  0  0
  -27.1690  -27.7270   22.8330 C   0  0  0  0  0  0  0  0  0  0  0  0
  -28.2080  -26.9040   22.2190 C   0  0  0  0  0  3  0  0  0  0  0  0
  -26.7380  -25.0060   22.2970 C   0  0  0  0  0  3  0  0  0  0  0  0
  -25.7650  -25.7660   22.9420 C   0  0  0  0  0  3  0  0  0  0  0  0
  -24.9400  -27.8900   24.0160 C   0  0  0  0  0  2  0  0  0  0  0  0
  -26.6550  -29.6640   24.4690 N   0  0  0  0  0  0  0  0  0  0  0  0
  -26.5800  -31.0730   26.2600 O   0  0  0  0  0  0  0  0  0  0  0  0
  -25.9540  -28.0810   26.3330 C   0  0  0  0  0  0  0  0  0  0  0  0
  -25.6190  -28.6150   27.5220 N   0  0  0  0  0  0  0  0  0  0  0  0
  -26.5580  -27.0090   26.2390 O   0  0  0  0  0  0  0  0  0  0  0  0
  -25.1390  -29.5040   27.5210 H   0  0  0  0  0  0  0  0  0  0  0  0
  -26.3650  -29.3860   30.9830 C   0  0  0  0  0  0  0  0  0  0  0  0
  -25.8910  -28.0250   28.8360 C   0  0  0  0  0  3  0  0  0  0  0  0
  -24.5820  -27.5840   29.5300 C   0  0  0  0  0  2  0  0  0  0  0  0
  -24.0010  -28.6560   30.4590 C   0  0  0  0  0  2  0  0  0  0  0  0
  -25.0060  -29.0200   31.5540 C   0  0  0  0  0  2  0  0  0  0  0  0
  -26.7750  -28.9330   29.7010 C   0  0  0  0  0  0  0  0  0  0  0  0
  -28.0370  -29.3290   29.2080 C   0  0  0  0  0  3  0  0  0  0  0  0
  -28.8800  -30.1590   29.9690 C   0  0  0  0  0  3  0  0  0  0  0  0
  -28.4750  -30.5950   31.2420 C   0  0  0  0  0  3  0  0  0  0  0  0
  -27.2230  -30.2050   31.7480 C   0  0  0  0  0  3  0  0  0  0  0  0
  -28.2210  -31.6710   24.6290 C   0  0  0  0  0  3  0  0  0  0  0  0
  -27.7750  -33.0670   24.7680 N   0  0  0  0  0  0  0  0  0  0  0  0
  -27.3120  -33.8300   23.7690 C   0  0  0  0  0  0  0  0  0  0  0  0
  -27.2750  -33.4410   22.5990 O   0  0  0  0  0  0  0  0  0  0  0  0
  -27.7260  -33.4320   25.7090 H   0  0  0  0  0  0  0  0  0  0  0  0
  -25.2840  -35.3090   23.9780 C   0  0  0  0  0  1  0  0  0  0  0  0
  -26.8130  -35.2460   24.1220 C   0  0  0  0  0  3  0  0  0  0  0  0
  -28.8280  -36.5670   23.6430 C   0  0  0  0  0  1  0  0  0  0  0  0
  -27.4310  -36.3100   23.3010 N   0  0  0  0  0  0  0  0  0  0  0  0
  -26.9180  -37.1820   23.3970 H   0  0  0  0  0  0  0  0  0  0  0  0
  -29.5940  -31.4600   25.3810 C   0  0  1  0  0  0  0  0  0  0  0  0
  -29.4790  -31.5410   26.9210 C   0  0  0  0  0  1  0  0  0  0  0  0
  -30.2130  -30.0880   25.0310 C   0  0  0  0  0  1  0  0  0  0  0  0
  -30.6110  -32.5290   24.9180 C   0  0  0  0  0  1  0  0  0  0  0  0
  1 46  1  0
  1  2  1  0
  2  6  2  0
  4  3  1  0
  4 19  1  0
  4  6  1  0
  5 49  1  1
  5  3  1  0
  5  1  1  0
  5 46  1  0
  6  7  1  0
  8 20  1  0
  9 14  1  0
 10 11  1  0
 10  9  1  0
 12 11  1  0
 12 13  1  0
 12 24  1  0
 13 14  1  0
 14  8  1  0
 15  8  2  0
 17 16  1  0
 18 16  1  0
 19 17  1  0
 20 19  1  0
 20 18  1  0
 21 22  1  0
 22 23  1  0
 22 41  1  0
 23 26  1  0
 24 25  1  0
 24 21  1  0
 25 23  1  0
 26 27  1  0
 27 28  2  0
 29 32  1  0
 29 28  1  0
 30 29  2  0
 31 30  1  0
 31 26  2  0
 32 33  1  0
 33 34  1  0
 34 35  2  0
 36 35  1  0
 36 40  1  0
 37 36  2  0
 38 33  2  0
 38 37  1  0
 39 38  1  0
 41 42  1  0
 42 45  1  0
 42 44  1  0
 43 41  2  0
 46 48  1  0
 46 47  1  0
 49 50  1  0
 50 53  1  0
 50 52  1  0
 51 50  1  0
 53 54  2  0
 54 55  1  0
 55 56  1  0
 56 58  1  0
 57 68  2  0
 58 63  2  0
 58 64  1  0
 59 69  1  0
 60 66  1  0
 61 67  1  0
 62 61  1  0
 62 60  2  0
 63 62  1  0
 64 65  2  0
 65 60  1  0
 66 59  1  0
 67 59  1  0
 67 57  1  0
 69 70  1  0
 71 69  2  0
 72 70  1  0
 73 77  1  0
 73 82  1  0
 74 70  1  0
 74 75  1  0
 74 78  1  0
 75 76  1  0
 76 77  1  0
 78 73  2  0
 79 78  1  0
 79 80  2  0
 80 81  1  0
 81 82  2  0
 83 84  1  0
 83 57  1  0
 83 93  1  0
 84 87  1  0
 85 89  1  0
 85 84  1  0
 86 85  2  0
 89 88  1  0
 91 92  1  0
 91 90  1  0
 91 89  1  0
 93 94  1  1
 95 93  1  0
 96 93  1  0
M  ISO  4   8 100  20 100  55 101  56 101
M  END
>  <TORSDO>  (66) 
F 21

>  <SCORE>  (66) 
-0.480

>  <name>  (66) 
65

>  <ligand_id>  (66) 
65

>  <original_smiles>  (66) 
[H]c1c([H])c([H])c2c(c1[H])C([H])([H])C([H])([H])C([H])([H])C2([H])N([H])C(=O)C1([H])N(C(=O)C([H])(N([H])C(=O)C([H])(N([H])C([H])([H])[H])C([H])([H])[H])C(C([H])([H])[H])(C([H])([H])[H])C([H])([H])[H])C([H])([H])c2c([H])c(OC([H])([H])C([H])([H])C([H])([H])[N+]([H])([H])C([H])([H])c3c([H])c([H])c(F)c(C4([H])N(C(=O)N5C([H])([H])C([H])([H])C([H])([H])C([H])(n6nc(-c7c([H])c([H])c(Oc8c([H])c([H])c(F)c([H])c8F)c([H])c7[H])c(C(=O)N([H])[H])c6N([H])[H])C5([H])[H])C([H])([H])C([H])([H])C4([H])[H])c3[H])c([H])c([H])c2C1([H])[H]

>  <smiles>  (66) 
[H]c1c([H])c([H])c2c(c1[H])C([H])([H])C([H])([H])C([H])([H])C2([H])N([H])C(=O)C1([H])N(C(=O)C([H])(N([H])C(=O)C([H])(N([H])C([H])([H])[H])C([H])([H])[H])C(C([H])([H])[H])(C([H])([H])[H])C([H])([H])[H])C([H])([H])c2c([H])c(OC([H])([H])C([H])([H])C([H])([H])[N+]([H])([H])C([H])([H])c3c([H])c([H])c(F)c(C4([H])N(C(=O)N5C([H])([H])C([H])([H])C([H])([H])C([H])(n6nc(-c7c([H])c([H])c(Oc8c([H])c([H])c(F)c([H])c8F)c([H])c7[H])c(C(=O)N([H])[H])c6N([H])[H])C5([H])[H])C([H])([H])C([H])([H])C4([H])[H])c3[H])c([H])c([H])c2C1([H])[H]

$$$$
66:0:0
     RDKit          3D

104115  0  0  1  0  0  0  0  0999 V2000
  -29.0380  -22.4830   25.5160 C   0  0  0  0  0  3  0  0  0  0  0  0
  -27.0330  -21.6640   24.4150 C   0  0  0  0  0  3  0  0  0  0  0  0
  -29.7130  -21.2960   25.1840 C   0  0  0  0  0  3  0  0  0  0  0  0
  -27.7020  -20.4660   24.1100 C   0  0  0  0  0  3  0  0  0  0  0  0
  -27.7060  -22.7060   25.0980 C   0  0  0  0  0  0  0  0  0  0  0  0
  -29.0550  -20.2750   24.4680 C   0  0  0  0  0  0  0  0  0  0  0  0
  -30.8010  -19.3010   19.2390 C   0  0  0  0  0  2  0  0  0  0  0  0
  -30.2020  -17.9030   19.0200 C   0  0  0  0  0  2  0  0  0  0  0  0
  -31.4020  -19.4430   20.6480 C   0  0  0  0  0  2  0  0  0  0  0  0
  -29.1800  -17.5530   20.1170 C   0  0  0  0  0  2  0  0  0  0  0  0
  -28.6170  -17.5020   22.5850 C   0  0  0  0  0  2  0  0  0  0  0  0
  -29.0450  -17.8410   24.0350 C   0  0  0  0  0  2  0  0  0  0  0  0
  -30.8650  -19.3110   23.1720 C   0  0  0  0  0  2  0  0  0  0  0  0
  -30.3600  -19.0850   21.7310 C   0  0  0  0  0  3  0  0  0  0  0  0
  -29.7670  -17.6530   21.5560 C   0  0  2  0  0  0  0  0  0  0  0  0
  -29.7680  -19.1120   24.1220 N   0  0  0  0  0  0  0  0  0  0  0  0
  -30.8310  -16.5430   21.8110 C   0  0  0  0  0  2  0  0  0  0  0  0
  -30.7820  -14.3560   20.6470 C   0  0  0  0  0  0  0  0  0  0  0  0
  -30.4060  -12.2730   19.4000 C   0  0  0  0  0  2  0  0  0  0  0  0
  -29.4800  -12.5240   18.1950 C   0  0  0  0  0  2  0  0  0  0  0  0
  -28.0040  -12.3820   18.6100 C   0  0  0  0  0  2  0  0  0  0  0  0
  -27.6650  -13.2030   19.8820 C   0  0  0  0  0  3  0  0  0  0  0  0
  -28.7060  -12.9560   20.9980 C   0  0  0  0  0  2  0  0  0  0  0  0
  -30.0510  -13.2280   20.4570 N   0  0  0  0  0  0  0  0  0  0  0  0
  -31.8130  -14.6070   20.0180 O   0  0  0  0  0  0  0  0  0  0  0  0
  -30.3070  -15.2000   21.5640 N   0  0  0  0  0  0  0  0  0  0  0  0
  -29.4840  -14.9150   22.0730 H   0  0  0  0  0  0  0  0  0  0  0  0
  -25.2600  -13.8150   20.5670 C   0  0  0  0  0  0  0  0  0  0  0  0
  -24.1850  -13.0440   20.9150 C   0  0  0  0  0  0  0  0  0  0  0  0
  -24.6390  -11.6910   20.8720 C   0  0  0  0  0  0  0  0  0  0  0  0
  -26.3040  -12.9320   20.3390 N   0  0  0  0  0  0  0  0  0  0  0  0
  -25.9310  -11.6480   20.5770 N   0  0  0  0  0  0  0  0  0  0  0  0
  -23.9050  -10.4300   21.0390 C   0  0  0  0  0  0  0  0  0  0  0  0
  -24.3610   -9.4210   21.9170 C   0  0  0  0  0  3  0  0  0  0  0  0
  -23.6290   -8.2250   22.0760 C   0  0  0  0  0  3  0  0  0  0  0  0
  -22.4270   -8.0280   21.3540 C   0  0  0  0  0  0  0  0  0  0  0  0
  -21.9900   -9.0250   20.4640 C   0  0  0  0  0  3  0  0  0  0  0  0
  -22.7220  -10.2130   20.3050 C   0  0  0  0  0  3  0  0  0  0  0  0
  -21.6640   -6.8880   21.4240 O   0  0  0  0  0  0  0  0  0  0  0  0
  -21.6860   -6.0730   22.5270 C   0  0  0  0  0  0  0  0  0  0  0  0
  -21.4010   -6.5630   23.8210 C   0  0  0  0  0  3  0  0  0  0  0  0
  -21.3660   -5.6790   24.9170 C   0  0  0  0  0  3  0  0  0  0  0  0
  -21.6050   -4.3050   24.7220 C   0  0  0  0  0  0  0  0  0  0  0  0
  -21.8820   -3.8140   23.4340 C   0  0  0  0  0  3  0  0  0  0  0  0
  -21.9190   -4.6960   22.3390 C   0  0  0  0  0  0  0  0  0  0  0  0
  -22.1660   -4.2140   21.0970 F   0  0  0  0  0  0  0  0  0  0  0  0
  -21.5630   -3.4540   25.7740 F   0  0  0  0  0  0  0  0  0  0  0  0
  -22.7860  -13.5240   21.1830 C   0  0  0  0  0  0  0  0  0  0  0  0
  -22.0510  -12.8240   22.0370 N   0  0  0  0  0  0  0  0  0  0  0  0
  -22.3550  -14.5550   20.6660 O   0  0  0  0  0  0  0  0  0  0  0  0
  -22.4150  -11.9910   22.4770 H   0  0  0  0  0  0  0  0  0  0  0  0
  -21.1130  -13.1260   22.2600 H   0  0  0  0  0  0  0  0  0  0  0  0
  -25.4320  -15.1880   20.4080 N   0  0  0  0  0  0  0  0  0  0  0  0
  -24.6640  -15.8420   20.5110 H   0  0  0  0  0  0  0  0  0  0  0  0
  -26.2900  -15.6270   20.1040 H   0  0  0  0  0  0  0  0  0  0  0  0
  -25.8090  -24.3660   24.5080 C   0  0  0  0  0  2  0  0  0  0  0  0
  -26.3410  -24.6800   23.1010 C   0  0  0  0  0  2  0  0  0  0  0  0
  -27.9740  -25.1860   24.7260 C   0  0  0  0  0  2  0  0  0  0  0  0
  -27.0790  -24.0920   25.3300 C   0  0  0  0  0  3  0  0  0  0  0  0
  -27.7800  -24.9970   23.2780 N   0  0  2  0  0  4  0  0  0  0  0  0
  -28.2910  -24.1510   23.0660 H   0  0  0  0  0  0  0  0  0  0  0  0
  -28.3160  -26.0700   22.4160 C   0  0  0  0  0  2  0  0  0  0  0  0
  -28.3570  -25.6480   20.9250 C   0  0  0  0  0  2  0  0  0  0  0  0
  -28.4040  -26.7850   20.0730 O   0  0  0  0  0  0  0  0  0  0  0  0
  -24.6080  -31.8710   23.2150 C   0  0  0  0  0  0  0  0  0  0  0  0
  -27.2340  -27.4980   20.0620 C   0  0  0  0  0  0  0  0  0  0  0  0
  -23.3930  -30.4970   21.5530 C   0  0  0  0  0  3  0  0  0  0  0  0
  -24.8370  -28.9710   20.1080 C   0  0  0  0  0  0  0  0  0  0  0  0
  -25.9160  -30.8540   21.3590 C   0  0  0  0  0  2  0  0  0  0  0  0
  -25.9930  -29.4940   20.7010 C   0  0  0  0  0  0  0  0  0  0  0  0
  -27.1940  -28.7630   20.6760 C   0  0  0  0  0  3  0  0  0  0  0  0
  -26.0690  -26.9740   19.4620 C   0  0  0  0  0  3  0  0  0  0  0  0
  -24.8650  -27.7060   19.4910 C   0  0  0  0  0  3  0  0  0  0  0  0
  -23.5980  -29.8340   20.1640 C   0  0  0  0  0  2  0  0  0  0  0  0
  -24.6570  -31.0860   22.1030 N   0  0  0  0  0  0  0  0  0  0  0  0
  -23.5280  -32.1390   23.7620 O   0  0  0  0  0  0  0  0  0  0  0  0
  -22.7370  -29.4650   22.4970 C   0  0  0  0  0  0  0  0  0  0  0  0
  -21.4090  -29.3030   22.3720 N   0  0  0  0  0  0  0  0  0  0  0  0
  -23.4170  -28.8120   23.2940 O   0  0  0  0  0  0  0  0  0  0  0  0
  -20.9210  -29.8760   21.6970 H   0  0  0  0  0  0  0  0  0  0  0  0
  -18.0250  -28.1390   22.8470 C   0  0  0  0  0  0  0  0  0  0  0  0
  -20.5820  -28.3650   23.1300 C   0  0  0  0  0  3  0  0  0  0  0  0
  -20.6780  -26.9370   22.5430 C   0  0  0  0  0  2  0  0  0  0  0  0
  -19.5780  -26.6370   21.5210 C   0  0  0  0  0  2  0  0  0  0  0  0
  -18.1910  -26.7930   22.1580 C   0  0  0  0  0  2  0  0  0  0  0  0
  -19.1490  -28.8830   23.2890 C   0  0  0  0  0  0  0  0  0  0  0  0
  -18.9440  -30.1430   23.8900 C   0  0  0  0  0  3  0  0  0  0  0  0
  -17.6460  -30.6590   24.0550 C   0  0  0  0  0  3  0  0  0  0  0  0
  -16.5340  -29.9110   23.6330 C   0  0  0  0  0  3  0  0  0  0  0  0
  -16.7240  -28.6530   23.0340 C   0  0  0  0  0  3  0  0  0  0  0  0
  -25.9010  -32.4850   23.8410 C   0  0  0  0  0  3  0  0  0  0  0  0
  -25.5910  -33.8650   24.2370 N   0  0  0  0  0  0  0  0  0  0  0  0
  -25.9050  -34.9490   23.5150 C   0  0  0  0  0  0  0  0  0  0  0  0
  -26.5590  -34.8920   22.4690 O   0  0  0  0  0  0  0  0  0  0  0  0
  -25.0150  -33.9870   25.0580 H   0  0  0  0  0  0  0  0  0  0  0  0
  -24.1510  -36.7330   23.2630 C   0  0  0  0  0  1  0  0  0  0  0  0
  -25.4130  -36.3160   24.0350 C   0  0  0  0  0  3  0  0  0  0  0  0
  -27.5600  -37.1830   24.8460 C   0  0  0  0  0  1  0  0  0  0  0  0
  -26.4340  -37.3820   23.9390 N   0  0  0  0  0  0  0  0  0  0  0  0
  -26.0260  -38.2910   24.1440 H   0  0  0  0  0  0  0  0  0  0  0  0
  -26.4470  -31.6570   25.0690 C   0  0  1  0  0  0  0  0  0  0  0  0
  -25.3790  -31.3630   26.1460 C   0  0  0  0  0  1  0  0  0  0  0  0
  -27.0260  -30.3010   24.6010 C   0  0  0  0  0  1  0  0  0  0  0  0
  -27.6050  -32.4230   25.7490 C   0  0  0  0  0  1  0  0  0  0  0  0
  2  5  1  0
  3  1  1  0
  4  2  2  0
  4  6  1  0
  5  1  2  0
  6  3  2  0
  7  9  1  0
  8  7  1  0
  8 10  1  0
 10 15  1  0
 11 12  1  0
 12 16  1  0
 13 16  1  0
 14  9  1  0
 14 13  1  0
 15 14  1  0
 15 17  1  1
 15 11  1  0
 16  6  1  0
 18 26  1  0
 19 24  1  0
 20 21  1  0
 20 19  1  0
 22 21  1  0
 22 31  1  0
 22 23  1  0
 24 18  1  0
 24 23  1  0
 25 18  2  0
 26 17  1  0
 26 27  1  0
 28 29  2  0
 29 48  1  0
 30 29  1  0
 30 33  1  0
 31 28  1  0
 31 32  1  0
 32 30  2  0
 33 34  1  0
 34 35  2  0
 36 39  1  0
 36 35  1  0
 37 36  2  0
 38 37  1  0
 38 33  2  0
 39 40  1  0
 40 41  1  0
 41 42  2  0
 43 42  1  0
 43 47  1  0
 44 43  2  0
 45 40  2  0
 45 44  1  0
 46 45  1  0
 48 49  1  0
 49 52  1  0
 49 51  1  0
 50 48  2  0
 53 54  1  0
 53 28  1  0
 55 53  1  0
 56 59  1  0
 57 60  1  0
 57 56  1  0
 58 59  1  0
 59  5  1  0
 60 58  1  0
 60 61  1  6
 62 60  1  0
 63 62  1  0
 64 63  1  0
 65 76  2  0
 66 64  1  0
 66 71  1  0
 67 75  1  0
 67 77  1  0
 68 74  1  0
 68 70  1  0
 69 75  1  0
 70 69  1  0
 71 70  2  0
 72 73  1  0
 72 66  2  0
 73 68  2  0
 74 67  1  0
 75 65  1  0
 77 79  2  0
 78 77  1  0
 80 78  1  0
 81 90  2  0
 81 86  1  0
 82 78  1  0
 82 86  1  0
 83 82  1  0
 84 85  1  0
 84 83  1  0
 85 81  1  0
 86 87  2  0
 87 88  1  0
 89 88  2  0
 90 89  1  0
 91 65  1  0
 91 92  1  0
 91101  1  0
 92 95  1  0
 93 97  1  0
 93 92  1  0
 94 93  2  0
 97 96  1  0
 99 97  1  0
 99100  1  0
 99 98  1  0
101104  1  1
101102  1  0
103101  1  0
M  ISO  4  18 100  26 100  63 101  64 101
M  END
>  <TORSDO>  (67) 
F 21

>  <SCORE>  (67) 
32.914

>  <name>  (67) 
66

>  <ligand_id>  (67) 
66

>  <original_smiles>  (67) 
[H]c1c([H])c([H])c2c(c1[H])C([H])([H])C([H])([H])C([H])([H])C2([H])N([H])C(=O)C1([H])N(C(=O)C([H])(N([H])C(=O)C([H])(N([H])C([H])([H])[H])C([H])([H])[H])C(C([H])([H])[H])(C([H])([H])[H])C([H])([H])[H])C([H])([H])c2c([H])c(OC([H])([H])C([H])([H])[N+]3([H])C([H])([H])C([H])([H])C([H])(c4c([H])c([H])c(N5C([H])([H])C([H])([H])C6(C([H])([H])N([H])C(=O)N7C([H])([H])C([H])([H])C([H])([H])C([H])(n8nc(-c9c([H])c([H])c(Oc%10c([H])c([H])c(F)c([H])c%10F)c([H])c9[H])c(C(=O)N([H])[H])c8N([H])[H])C7([H])[H])C([H])([H])C([H])([H])C([H])([H])C([H])([H])C6([H])C5([H])[H])c([H])c4[H])C3([H])[H])c([H])c([H])c2C1([H])[H]

>  <smiles>  (67) 
[H]c1c([H])c([H])c2c(c1[H])C([H])([H])C([H])([H])C([H])([H])C2([H])N([H])C(=O)C1([H])N(C(=O)C([H])(N([H])C(=O)C([H])(N([H])C([H])([H])[H])C([H])([H])[H])C(C([H])([H])[H])(C([H])([H])[H])C([H])([H])[H])C([H])([H])c2c([H])c(OC([H])([H])C([H])([H])[N+]3([H])C([H])([H])C([H])([H])C([H])(c4c([H])c([H])c(N5C([H])([H])C([H])([H])C6(C([H])([H])N([H])C(=O)N7C([H])([H])C([H])([H])C([H])([H])C([H])(n8nc(-c9c([H])c([H])c(Oc%10c([H])c([H])c(F)c([H])c%10F)c([H])c9[H])c(C(=O)N([H])[H])c8N([H])[H])C7([H])[H])C([H])([H])C([H])([H])C([H])([H])C([H])([H])C6([H])C5([H])[H])c([H])c4[H])C3([H])[H])c([H])c([H])c2C1([H])[H]

$$$$
67:0:0
     RDKit          3D

104112  0  0  1  0  0  0  0  0999 V2000
  -22.5480  -20.1800   19.8880 C   0  0  0  0  0  2  0  0  0  0  0  0
  -23.5300  -19.0440   20.2560 C   0  0  0  0  0  2  0  0  0  0  0  0
  -24.5350  -18.7750   19.2080 N   0  0  0  0  0  4  0  0  0  0  0  0
  -24.2210  -19.1870   18.3430 H   0  0  0  0  0  0  0  0  0  0  0  0
  -24.5690  -17.7710   19.0630 H   0  0  0  0  0  0  0  0  0  0  0  0
  -25.9150  -19.2050   19.5250 C   0  0  0  0  0  2  0  0  0  0  0  0
  -26.8610  -18.9930   18.3350 C   0  0  0  0  0  2  0  0  0  0  0  0
  -28.2010  -19.1030   18.8050 O   0  0  0  0  0  0  0  0  0  0  0  0
  -30.1990  -18.6080   15.7120 C   0  0  0  0  0  3  0  0  0  0  0  0
  -31.2610  -17.8370   16.2270 C   0  0  0  0  0  3  0  0  0  0  0  0
  -29.1680  -19.0480   16.5610 C   0  0  0  0  0  3  0  0  0  0  0  0
  -30.2620  -17.9490   18.4440 C   0  0  0  0  0  3  0  0  0  0  0  0
  -31.3040  -17.5090   17.5990 C   0  0  0  0  0  0  0  0  0  0  0  0
  -29.1830  -18.7030   17.9330 C   0  0  0  0  0  0  0  0  0  0  0  0
  -32.4840  -16.7320   18.1760 C   0  0  0  0  0  2  0  0  0  0  0  0
  -32.6660  -14.4010   19.0360 C   0  0  0  0  0  0  0  0  0  0  0  0
  -32.2300  -11.9900   19.2740 C   0  0  0  0  0  2  0  0  0  0  0  0
  -31.2510  -11.5490   18.1670 C   0  0  0  0  0  2  0  0  0  0  0  0
  -29.7890  -11.7530   18.6080 C   0  0  0  0  0  2  0  0  0  0  0  0
  -29.5300  -13.1540   19.2230 C   0  0  0  0  0  3  0  0  0  0  0  0
  -30.6250  -13.5310   20.2510 C   0  0  0  0  0  2  0  0  0  0  0  0
  -31.9380  -13.3950   19.5950 N   0  0  0  0  0  0  0  0  0  0  0  0
  -33.7490  -14.2150   18.4800 O   0  0  0  0  0  0  0  0  0  0  0  0
  -32.0690  -15.5980   19.0070 N   0  0  0  0  0  0  0  0  0  0  0  0
  -31.1960  -15.6820   19.5010 H   0  0  0  0  0  0  0  0  0  0  0  0
  -27.4500  -14.3630   20.1140 C   0  0  0  0  0  0  0  0  0  0  0  0
  -26.2290  -13.9150   20.5410 C   0  0  0  0  0  0  0  0  0  0  0  0
  -26.2920  -12.4890   20.4550 C   0  0  0  0  0  0  0  0  0  0  0  0
  -28.1880  -13.2400   19.7890 N   0  0  0  0  0  0  0  0  0  0  0  0
  -27.4980  -12.1020   20.0500 N   0  0  0  0  0  0  0  0  0  0  0  0
  -25.2570  -11.4720   20.6750 C   0  0  0  0  0  0  0  0  0  0  0  0
  -25.4510  -10.4070   21.5790 C   0  0  0  0  0  3  0  0  0  0  0  0
  -24.4340   -9.4500   21.7860 C   0  0  0  0  0  3  0  0  0  0  0  0
  -23.2080   -9.5540   21.0880 C   0  0  0  0  0  0  0  0  0  0  0  0
  -23.0290  -10.6050   20.1700 C   0  0  0  0  0  3  0  0  0  0  0  0
  -24.0450  -11.5550   19.9610 C   0  0  0  0  0  3  0  0  0  0  0  0
  -22.1730   -8.6570   21.2060 O   0  0  0  0  0  0  0  0  0  0  0  0
  -21.9280   -7.9930   22.3820 C   0  0  0  0  0  0  0  0  0  0  0  0
  -21.6270   -8.6850   23.5770 C   0  0  0  0  0  3  0  0  0  0  0  0
  -21.3080   -7.9650   24.7450 C   0  0  0  0  0  3  0  0  0  0  0  0
  -21.2860   -6.5570   24.7210 C   0  0  0  0  0  0  0  0  0  0  0  0
  -21.5810   -5.8680   23.5310 C   0  0  0  0  0  3  0  0  0  0  0  0
  -21.8990   -6.5850   22.3660 C   0  0  0  0  0  0  0  0  0  0  0  0
  -22.1620   -5.9170   21.2160 F   0  0  0  0  0  0  0  0  0  0  0  0
  -20.9730   -5.8650   25.8420 F   0  0  0  0  0  0  0  0  0  0  0  0
  -25.0470  -14.7590   20.9200 C   0  0  0  0  0  0  0  0  0  0  0  0
  -24.2130  -14.2680   21.8280 N   0  0  0  0  0  0  0  0  0  0  0  0
  -24.8890  -15.8890   20.4460 O   0  0  0  0  0  0  0  0  0  0  0  0
  -24.3560  -13.3530   22.2270 H   0  0  0  0  0  0  0  0  0  0  0  0
  -23.4150  -14.8150   22.1270 H   0  0  0  0  0  0  0  0  0  0  0  0
  -27.9940  -15.6290   19.9600 N   0  0  0  0  0  0  0  0  0  0  0  0
  -27.5730  -16.4220   20.4160 H   0  0  0  0  0  0  0  0  0  0  0  0
  -28.9570  -15.7820   19.6920 H   0  0  0  0  0  0  0  0  0  0  0  0
  -23.0440  -21.6150   20.1570 C   0  0  0  0  0  2  0  0  0  0  0  0
  -22.1710  -22.6730   19.4690 C   0  0  0  0  0  2  0  0  0  0  0  0
  -22.7340  -24.1170   19.5040 C   0  0  0  0  0  2  0  0  0  0  0  0
  -25.2080  -24.3860   19.7950 C   0  0  0  0  0  0  0  0  0  0  0  0
  -24.1690  -24.4820   17.5360 C   0  0  0  0  0  1  0  0  0  0  0  0
  -24.1120  -24.2380   18.9910 N   0  0  0  0  0  0  0  0  0  0  0  0
  -25.1700  -24.2330   21.0190 O   0  0  0  0  0  0  0  0  0  0  0  0
  -26.5340  -24.8150   19.1320 C   0  0  0  0  0  2  0  0  0  0  0  0
  -27.7820  -25.1450   20.0070 C   0  0  0  0  0  2  0  0  0  0  0  0
  -28.8090  -26.1410   19.3490 C   0  0  0  0  0  2  0  0  0  0  0  0
  -28.8810  -27.5000   19.8580 O   0  0  0  0  0  0  0  0  0  0  0  0
  -24.5960  -31.5590   23.8580 C   0  0  0  0  0  0  0  0  0  0  0  0
  -27.7130  -28.2300   19.9200 C   0  0  0  0  0  0  0  0  0  0  0  0
  -23.5810  -30.4940   21.8780 C   0  0  0  0  0  3  0  0  0  0  0  0
  -25.2090  -29.5110   20.1870 C   0  0  0  0  0  0  0  0  0  0  0  0
  -26.0720  -31.0860   21.9110 C   0  0  0  0  0  2  0  0  0  0  0  0
  -26.2940  -29.9280   20.9670 C   0  0  0  0  0  0  0  0  0  0  0  0
  -27.5470  -29.2760   20.8580 C   0  0  0  0  0  3  0  0  0  0  0  0
  -26.6500  -27.9620   19.0420 C   0  0  0  0  0  3  0  0  0  0  0  0
  -25.3770  -28.5190   19.2190 C   0  0  0  0  0  3  0  0  0  0  0  0
  -23.8940  -30.2250   20.3850 C   0  0  0  0  0  2  0  0  0  0  0  0
  -24.7640  -31.0500   22.6060 N   0  0  0  0  0  0  0  0  0  0  0  0
  -23.4760  -31.6000   24.3850 O   0  0  0  0  0  0  0  0  0  0  0  0
  -23.0140  -29.2030   22.5210 C   0  0  0  0  0  0  0  0  0  0  0  0
  -21.7440  -28.8960   22.2160 N   0  0  0  0  0  0  0  0  0  0  0  0
  -23.7150  -28.5020   23.2550 O   0  0  0  0  0  0  0  0  0  0  0  0
  -21.2390  -29.5430   21.6280 H   0  0  0  0  0  0  0  0  0  0  0  0
  -18.5730  -27.1670   21.9650 C   0  0  0  0  0  0  0  0  0  0  0  0
  -20.9980  -27.7240   22.6760 C   0  0  0  0  0  3  0  0  0  0  0  0
  -21.4100  -26.4630   21.8870 C   0  0  0  0  0  2  0  0  0  0  0  0
  -20.5120  -26.1910   20.6750 C   0  0  0  0  0  2  0  0  0  0  0  0
  -19.0570  -26.0050   21.1160 C   0  0  0  0  0  2  0  0  0  0  0  0
  -19.4860  -27.9850   22.6850 C   0  0  0  0  0  0  0  0  0  0  0  0
  -18.9870  -29.0770   23.4290 C   0  0  0  0  0  3  0  0  0  0  0  0
  -17.6070  -29.3500   23.4670 C   0  0  0  0  0  3  0  0  0  0  0  0
  -16.7060  -28.5270   22.7680 C   0  0  0  0  0  3  0  0  0  0  0  0
  -17.1890  -27.4360   22.0260 C   0  0  0  0  0  3  0  0  0  0  0  0
  -25.7930  -32.1330   24.6730 C   0  0  0  0  0  3  0  0  0  0  0  0
  -25.5220  -33.5550   24.9170 N   0  0  0  0  0  0  0  0  0  0  0  0
  -26.0710  -34.5630   24.2260 C   0  0  0  0  0  0  0  0  0  0  0  0
  -26.9310  -34.3860   23.3570 O   0  0  0  0  0  0  0  0  0  0  0  0
  -24.7930  -33.7690   25.5830 H   0  0  0  0  0  0  0  0  0  0  0  0
  -24.6210  -36.4670   23.4570 C   0  0  0  0  0  1  0  0  0  0  0  0
  -25.5960  -35.9910   24.5480 C   0  0  0  0  0  3  0  0  0  0  0  0
  -27.5280  -36.7310   25.8680 C   0  0  0  0  0  1  0  0  0  0  0  0
  -26.7020  -36.9620   24.6870 N   0  0  0  0  0  0  0  0  0  0  0  0
  -26.3460  -37.9130   24.7300 H   0  0  0  0  0  0  0  0  0  0  0  0
  -26.0390  -31.3690   26.0320 C   0  0  1  0  0  0  0  0  0  0  0  0
  -24.7710  -31.2190   26.9080 C   0  0  0  0  0  1  0  0  0  0  0  0
  -26.6010  -29.9530   25.7670 C   0  0  0  0  0  1  0  0  0  0  0  0
  -27.1050  -32.1210   26.8660 C   0  0  0  0  0  1  0  0  0  0  0  0
  1 54  1  0
  1  2  1  0
  3  6  1  0
  3  2  1  0
  4  3  1  0
  5  3  1  0
  7  8  1  0
  7  6  1  0
  9 10  2  0
  9 11  1  0
 10 13  1  0
 11 14  2  0
 13 15  1  0
 13 12  2  0
 14 12  1  0
 14  8  1  0
 15 24  1  0
 16 22  1  0
 17 22  1  0
 18 19  1  0
 18 17  1  0
 20 19  1  0
 20 29  1  0
 20 21  1  0
 22 21  1  0
 23 16  2  0
 24 16  1  0
 24 25  1  0
 26 27  2  0
 27 46  1  0
 28 27  1  0
 28 31  1  0
 29 30  1  0
 29 26  1  0
 30 28  2  0
 31 32  1  0
 32 33  2  0
 34 37  1  0
 34 33  1  0
 35 34  2  0
 36 35  1  0
 36 31  2  0
 37 38  1  0
 38 39  1  0
 39 40  2  0
 41 40  1  0
 41 45  1  0
 42 41  2  0
 43 38  2  0
 43 42  1  0
 44 43  1  0
 46 47  1  0
 47 50  1  0
 47 49  1  0
 48 46  2  0
 51 26  1  0
 51 52  1  0
 53 51  1  0
 55 56  1  0
 55 54  1  0
 57 60  2  0
 58 59  1  0
 59 56  1  0
 59 57  1  0
 61 57  1  0
 61 62  1  0
 63 64  1  0
 63 62  1  0
 64 66  1  0
 65 76  2  0
 66 71  1  0
 67 77  1  0
 67 75  1  0
 68 74  1  0
 68 70  1  0
 69 75  1  0
 70 69  1  0
 71 70  2  0
 72 73  1  0
 72 66  2  0
 73 68  2  0
 74 67  1  0
 75 65  1  0
 77 79  2  0
 78 77  1  0
 80 78  1  0
 81 90  2  0
 81 86  1  0
 82 78  1  0
 82 86  1  0
 83 82  1  0
 84 85  1  0
 84 83  1  0
 85 81  1  0
 86 87  2  0
 87 88  1  0
 89 88  2  0
 90 89  1  0
 91 65  1  0
 91 92  1  0
 91101  1  0
 92 95  1  0
 93 97  1  0
 93 92  1  0
 94 93  2  0
 97 96  1  0
 97 99  1  0
 99100  1  0
 99 98  1  0
101104  1  1
101102  1  0
103101  1  0
M  ISO  4  16 100  24 100  63 101  64 101
M  END
>  <TORSDO>  (68) 
F 30

>  <SCORE>  (68) 
2.733

>  <name>  (68) 
67

>  <ligand_id>  (68) 
67

>  <original_smiles>  (68) 
[H]c1c([H])c(OC([H])([H])C([H])([H])[N+]([H])([H])C([H])([H])C([H])([H])C([H])([H])C([H])([H])C([H])([H])N(C(=O)C([H])([H])C([H])([H])C([H])([H])Oc2c([H])c([H])c3c(c2[H])C([H])([H])N(C(=O)C([H])(N([H])C(=O)C([H])(N([H])C([H])([H])[H])C([H])([H])[H])C(C([H])([H])[H])(C([H])([H])[H])C([H])([H])[H])C([H])(C(=O)N([H])C2([H])c4c([H])c([H])c([H])c([H])c4C([H])([H])C([H])([H])C2([H])[H])C3([H])[H])C([H])([H])[H])c([H])c(C([H])([H])N([H])C(=O)N2C([H])([H])C([H])([H])C([H])([H])C([H])(n3nc(-c4c([H])c([H])c(Oc5c([H])c([H])c(F)c([H])c5F)c([H])c4[H])c(C(=O)N([H])[H])c3N([H])[H])C2([H])[H])c1[H]

>  <smiles>  (68) 
[H]c1c([H])c(OC([H])([H])C([H])([H])[N+]([H])([H])C([H])([H])C([H])([H])C([H])([H])C([H])([H])C([H])([H])N(C(=O)C([H])([H])C([H])([H])C([H])([H])Oc2c([H])c([H])c3c(c2[H])C([H])([H])N(C(=O)C([H])(N([H])C(=O)C([H])(N([H])C([H])([H])[H])C([H])([H])[H])C(C([H])([H])[H])(C([H])([H])[H])C([H])([H])[H])C([H])(C(=O)N([H])C2([H])c4c([H])c([H])c([H])c([H])c4C([H])([H])C([H])([H])C2([H])[H])C3([H])[H])C([H])([H])[H])c([H])c(C([H])([H])N([H])C(=O)N2C([H])([H])C([H])([H])C([H])([H])C([H])(n3nc(-c4c([H])c([H])c(Oc5c([H])c([H])c(F)c([H])c5F)c([H])c4[H])c(C(=O)N([H])[H])c3N([H])[H])C2([H])[H])c1[H]

$$$$
68:0:0
     RDKit          3D

 97106  0  0  1  0  0  0  0  0999 V2000
  -32.2760  -18.2100   22.4310 C   0  0  0  0  0  3  0  0  0  0  0  0
  -31.8620  -16.9190   22.0590 C   0  0  0  0  0  3  0  0  0  0  0  0
  -29.7080  -17.8160   21.3530 C   0  0  0  0  0  3  0  0  0  0  0  0
  -30.1230  -19.1190   21.7060 C   0  0  0  0  0  0  0  0  0  0  0  0
  -31.4200  -19.3160   22.2510 C   0  0  0  0  0  0  0  0  0  0  0  0
  -30.5790  -16.7190   21.5080 C   0  0  0  0  0  0  0  0  0  0  0  0
  -29.2070  -20.2710   21.4820 C   0  0  0  0  0  0  0  0  0  0  0  0
  -31.2410  -21.7350   22.0000 C   0  0  0  0  0  2  0  0  0  0  0  0
  -29.7020  -21.6310   21.9980 C   0  0  0  0  0  3  0  0  0  0  0  0
  -31.8880  -20.5850   22.6200 N   0  0  0  0  0  0  0  0  0  0  0  0
  -28.1140  -20.1530   20.9090 O   0  0  0  0  0  0  0  0  0  0  0  0
  -32.8750  -20.6780   22.8560 H   0  0  0  0  0  0  0  0  0  0  0  0
  -30.6490  -14.6010   20.2410 C   0  0  0  0  0  0  0  0  0  0  0  0
  -30.2580  -12.5480   18.9270 C   0  0  0  0  0  2  0  0  0  0  0  0
  -29.2440  -12.8100   17.7970 C   0  0  0  0  0  2  0  0  0  0  0  0
  -27.7990  -12.6440   18.3030 C   0  0  0  0  0  2  0  0  0  0  0  0
  -27.5360  -13.4210   19.6200 C   0  0  0  0  0  3  0  0  0  0  0  0
  -28.6460  -13.1260   20.6530 C   0  0  0  0  0  2  0  0  0  0  0  0
  -29.9450  -13.4590   20.0380 N   0  0  0  0  0  0  0  0  0  0  0  0
  -31.6730  -14.8850   19.6080 O   0  0  0  0  0  0  0  0  0  0  0  0
  -30.1180  -15.4290   21.1530 N   0  0  0  0  0  0  0  0  0  0  0  0
  -29.2210  -15.1460   21.5190 H   0  0  0  0  0  0  0  0  0  0  0  0
  -25.1750  -13.9960   20.4770 C   0  0  0  0  0  0  0  0  0  0  0  0
  -24.1290  -13.2060   20.8730 C   0  0  0  0  0  0  0  0  0  0  0  0
  -24.5890  -11.8580   20.7640 C   0  0  0  0  0  0  0  0  0  0  0  0
  -26.2080  -13.1270   20.1570 N   0  0  0  0  0  0  0  0  0  0  0  0
  -25.8600  -11.8350   20.3820 N   0  0  0  0  0  0  0  0  0  0  0  0
  -23.8780  -10.5860   20.9430 C   0  0  0  0  0  0  0  0  0  0  0  0
  -24.3590   -9.5890   21.8200 C   0  0  0  0  0  3  0  0  0  0  0  0
  -23.6470   -8.3820   21.9890 C   0  0  0  0  0  3  0  0  0  0  0  0
  -22.4420   -8.1630   21.2810 C   0  0  0  0  0  0  0  0  0  0  0  0
  -21.9800   -9.1490   20.3920 C   0  0  0  0  0  3  0  0  0  0  0  0
  -22.6920  -10.3480   20.2210 C   0  0  0  0  0  3  0  0  0  0  0  0
  -21.6980   -7.0100   21.3630 O   0  0  0  0  0  0  0  0  0  0  0  0
  -21.6980   -6.2310   22.4920 C   0  0  0  0  0  0  0  0  0  0  0  0
  -21.3340   -6.7490   23.7540 C   0  0  0  0  0  3  0  0  0  0  0  0
  -21.2820   -5.8970   24.8760 C   0  0  0  0  0  3  0  0  0  0  0  0
  -21.5840   -4.5280   24.7360 C   0  0  0  0  0  0  0  0  0  0  0  0
  -21.9410   -4.0110   23.4790 C   0  0  0  0  0  3  0  0  0  0  0  0
  -21.9950   -4.8600   22.3600 C   0  0  0  0  0  0  0  0  0  0  0  0
  -22.3200   -4.3510   21.1460 F   0  0  0  0  0  0  0  0  0  0  0  0
  -21.5250   -3.7090   25.8120 F   0  0  0  0  0  0  0  0  0  0  0  0
  -22.7480  -13.6650   21.2430 C   0  0  0  0  0  0  0  0  0  0  0  0
  -22.0770  -12.9390   22.1300 N   0  0  0  0  0  0  0  0  0  0  0  0
  -22.2750  -14.7030   20.7810 O   0  0  0  0  0  0  0  0  0  0  0  0
  -22.4730  -12.0980   22.5240 H   0  0  0  0  0  0  0  0  0  0  0  0
  -21.1530  -13.2270   22.4190 H   0  0  0  0  0  0  0  0  0  0  0  0
  -25.3280  -15.3730   20.3440 N   0  0  0  0  0  0  0  0  0  0  0  0
  -24.5700  -16.0230   20.5180 H   0  0  0  0  0  0  0  0  0  0  0  0
  -26.1610  -15.8230   19.9840 H   0  0  0  0  0  0  0  0  0  0  0  0
  -28.9390  -23.9800   21.6290 C   0  0  0  0  0  0  0  0  0  0  0  0
  -29.1170  -22.7210   21.2180 N   0  0  0  0  0  0  0  0  0  0  0  0
  -29.2390  -24.3550   22.7630 O   0  0  0  0  0  0  0  0  0  0  0  0
  -28.7980  -22.4670   20.2920 H   0  0  0  0  0  0  0  0  0  0  0  0
  -28.3500  -24.9620   20.6120 C   0  0  0  0  0  2  0  0  0  0  0  0
  -29.0310  -26.3440   20.6520 C   0  0  0  0  0  2  0  0  0  0  0  0
  -28.6310  -27.1200   19.5260 O   0  0  0  0  0  0  0  0  0  0  0  0
  -24.5120  -31.7420   23.0490 C   0  0  0  0  0  0  0  0  0  0  0  0
  -27.4190  -27.7450   19.6500 C   0  0  0  0  0  0  0  0  0  0  0  0
  -23.3880  -30.3920   21.3060 C   0  0  0  0  0  3  0  0  0  0  0  0
  -24.9290  -29.0560   19.7750 C   0  0  0  0  0  0  0  0  0  0  0  0
  -25.8790  -30.9310   21.1340 C   0  0  0  0  0  2  0  0  0  0  0  0
  -26.0490  -29.6170   20.4040 C   0  0  0  0  0  0  0  0  0  0  0  0
  -27.2980  -28.9650   20.3480 C   0  0  0  0  0  3  0  0  0  0  0  0
  -26.2910  -27.1890   19.0170 C   0  0  0  0  0  3  0  0  0  0  0  0
  -25.0420  -27.8370   19.0820 C   0  0  0  0  0  3  0  0  0  0  0  0
  -23.6330  -29.8270   19.8800 C   0  0  0  0  0  2  0  0  0  0  0  0
  -24.6100  -31.0320   21.8900 N   0  0  0  0  0  0  0  0  0  0  0  0
  -23.4200  -31.9060   23.6090 O   0  0  0  0  0  0  0  0  0  0  0  0
  -22.8060  -29.2650   22.1880 C   0  0  0  0  0  0  0  0  0  0  0  0
  -21.4870  -29.0410   22.0780 N   0  0  0  0  0  0  0  0  0  0  0  0
  -23.5380  -28.5980   22.9260 O   0  0  0  0  0  0  0  0  0  0  0  0
  -20.9560  -29.6360   21.4570 H   0  0  0  0  0  0  0  0  0  0  0  0
  -18.1700  -27.7010   22.5800 C   0  0  0  0  0  0  0  0  0  0  0  0
  -20.7280  -28.0070   22.7810 C   0  0  0  0  0  3  0  0  0  0  0  0
  -20.8470  -26.6440   22.0600 C   0  0  0  0  0  2  0  0  0  0  0  0
  -19.7140  -26.3900   21.0610 C   0  0  0  0  0  2  0  0  0  0  0  0
  -18.3550  -26.4290   21.7670 C   0  0  0  0  0  2  0  0  0  0  0  0
  -19.2850  -28.4490   23.0420 C   0  0  0  0  0  0  0  0  0  0  0  0
  -19.0590  -29.6420   23.7620 C   0  0  0  0  0  3  0  0  0  0  0  0
  -17.7490  -30.0870   24.0240 C   0  0  0  0  0  3  0  0  0  0  0  0
  -16.6490  -29.3340   23.5780 C   0  0  0  0  0  3  0  0  0  0  0  0
  -16.8600  -28.1420   22.8630 C   0  0  0  0  0  3  0  0  0  0  0  0
  -25.7620  -32.4010   23.7130 C   0  0  0  0  0  3  0  0  0  0  0  0
  -26.2980  -31.6020   24.9630 C   0  0  1  0  0  0  0  0  0  0  0  0
  -25.2050  -31.2790   26.0090 C   0  0  0  0  0  1  0  0  0  0  0  0
  -26.9390  -30.2660   24.5210 C   0  0  0  0  0  1  0  0  0  0  0  0
  -27.4100  -32.4140   25.6690 C   0  0  0  0  0  1  0  0  0  0  0  0
  -25.3900  -33.7710   24.0910 N   0  0  0  0  0  0  0  0  0  0  0  0
  -25.6820  -34.8630   23.3710 C   0  0  0  0  0  0  0  0  0  0  0  0
  -26.3650  -34.8270   22.3430 O   0  0  0  0  0  0  0  0  0  0  0  0
  -24.7850  -33.8710   24.8920 H   0  0  0  0  0  0  0  0  0  0  0  0
  -23.8680  -36.5790   23.0730 C   0  0  0  0  0  1  0  0  0  0  0  0
  -25.1290  -36.2110   23.8710 C   0  0  0  0  0  3  0  0  0  0  0  0
  -27.2200  -37.1710   24.7270 C   0  0  0  0  0  1  0  0  0  0  0  0
  -26.1100  -37.3160   23.7910 N   0  0  0  0  0  0  0  0  0  0  0  0
  -25.6600  -38.2100   23.9690 H   0  0  0  0  0  0  0  0  0  0  0  0
  2  1  2  0
  3  6  2  0
  3  4  1  0
  4  5  2  0
  5  1  1  0
  5 10  1  0
  6  2  1  0
  7  4  1  0
  7  9  1  0
  8 10  1  0
  9 52  1  0
  9  8  1  0
 10 12  1  0
 11  7  2  0
 13 21  1  0
 14 19  1  0
 15 16  1  0
 15 14  1  0
 17 16  1  0
 17 26  1  0
 17 18  1  0
 19 13  1  0
 19 18  1  0
 20 13  2  0
 21  6  1  0
 21 22  1  0
 23 24  2  0
 24 43  1  0
 25 24  1  0
 25 28  1  0
 26 27  1  0
 26 23  1  0
 27 25  2  0
 28 29  1  0
 29 30  2  0
 31 34  1  0
 31 30  1  0
 32 31  2  0
 33 32  1  0
 33 28  2  0
 34 35  1  0
 35 36  1  0
 36 37  2  0
 38 37  1  0
 38 42  1  0
 39 38  2  0
 40 35  2  0
 40 39  1  0
 41 40  1  0
 43 44  1  0
 44 47  1  0
 44 46  1  0
 45 43  2  0
 48 23  1  0
 48 49  1  0
 50 48  1  0
 51 53  2  0
 52 51  1  0
 54 52  1  0
 55 56  1  0
 55 51  1  0
 57 59  1  0
 57 56  1  0
 58 69  2  0
 59 64  1  0
 60 68  1  0
 60 70  1  0
 61 67  1  0
 61 63  1  0
 62 68  1  0
 63 62  1  0
 64 63  2  0
 65 66  1  0
 65 59  2  0
 66 61  2  0
 67 60  1  0
 68 58  1  0
 70 72  2  0
 71 70  1  0
 73 71  1  0
 74 83  2  0
 74 79  1  0
 75 71  1  0
 75 79  1  0
 76 75  1  0
 77 78  1  0
 77 76  1  0
 78 74  1  0
 79 80  2  0
 80 81  1  0
 82 81  2  0
 83 82  1  0
 84 58  1  0
 84 89  1  0
 84 85  1  0
 85 88  1  1
 85 86  1  0
 87 85  1  0
 89 92  1  0
 90 94  1  0
 90 89  1  0
 91 90  2  0
 94 93  1  0
 96 94  1  0
 96 97  1  0
 96 95  1  0
M  ISO  4  13 100  21 100  56 101  57 101
M  END
>  <TORSDO>  (69) 
F 19

>  <SCORE>  (69) 
-11.540

>  <name>  (69) 
68

>  <ligand_id>  (69) 
68

>  <original_smiles>  (69) 
[H]c1c([H])c([H])c2c(c1[H])C([H])([H])C([H])([H])C([H])([H])C2([H])N([H])C(=O)C1([H])N(C(=O)C([H])(N([H])C(=O)C([H])(N([H])C([H])([H])[H])C([H])([H])[H])C(C([H])([H])[H])(C([H])([H])[H])C([H])([H])[H])C([H])([H])c2c([H])c(OC([H])([H])C([H])([H])C(=O)N([H])C3([H])C(=O)c4c([H])c(N([H])C(=O)N5C([H])([H])C([H])([H])C([H])([H])C([H])(n6nc(-c7c([H])c([H])c(Oc8c([H])c([H])c(F)c([H])c8F)c([H])c7[H])c(C(=O)N([H])[H])c6N([H])[H])C5([H])[H])c([H])c([H])c4N([H])C3([H])[H])c([H])c([H])c2C1([H])[H]

>  <smiles>  (69) 
[H]c1c([H])c([H])c2c(c1[H])C([H])([H])C([H])([H])C([H])([H])C2([H])N([H])C(=O)C1([H])N(C(=O)C([H])(N([H])C(=O)C([H])(N([H])C([H])([H])[H])C([H])([H])[H])C(C([H])([H])[H])(C([H])([H])[H])C([H])([H])[H])C([H])([H])c2c([H])c(OC([H])([H])C([H])([H])C(=O)N([H])C3([H])C(=O)c4c([H])c(N([H])C(=O)N5C([H])([H])C([H])([H])C([H])([H])C([H])(n6nc(-c7c([H])c([H])c(Oc8c([H])c([H])c(F)c([H])c8F)c([H])c7[H])c(C(=O)N([H])[H])c6N([H])[H])C5([H])[H])c([H])c([H])c4N([H])C3([H])[H])c([H])c([H])c2C1([H])[H]

$$$$
69:0:0
     RDKit          3D

113124  0  0  1  0  0  0  0  0999 V2000
  -29.6440  -18.3300   20.1560 C   0  0  0  0  0  3  0  0  0  0  0  0
  -29.4950  -19.6720   20.5480 C   0  0  0  0  0  3  0  0  0  0  0  0
  -31.4490  -18.9860   18.6680 C   0  0  0  0  0  3  0  0  0  0  0  0
  -30.6400  -17.9800   19.2270 C   0  0  0  0  0  0  0  0  0  0  0  0
  -31.2870  -20.3440   19.0180 C   0  0  0  0  0  0  0  0  0  0  0  0
  -30.3250  -20.6870   20.0210 C   0  0  0  0  0  0  0  0  0  0  0  0
  -32.2400  -21.3600   18.3770 C   0  0  0  0  0  2  0  0  0  0  0  0
  -31.1280  -22.1870   14.8880 C   0  0  0  0  0  2  0  0  0  0  0  0
  -31.7040  -21.2020   15.9140 C   0  0  0  0  0  2  0  0  0  0  0  0
  -30.6000  -22.8050   17.1650 C   0  0  0  0  0  2  0  0  0  0  0  0
  -30.3760  -23.2520   15.7100 C   0  0  0  0  0  3  0  0  0  0  0  0
  -31.8220  -22.0120   17.1190 N   0  0  0  0  0  0  0  0  0  0  0  0
  -28.9370  -23.3570   15.3620 N   0  0  0  0  0  4  0  0  0  0  0  0
  -28.4900  -22.4790   15.5730 H   0  0  0  0  0  0  0  0  0  0  0  0
  -28.8530  -23.5100   14.3700 H   0  0  0  0  0  0  0  0  0  0  0  0
  -28.2160  -24.4570   16.0530 C   0  0  0  0  0  2  0  0  0  0  0  0
  -26.7820  -24.6580   15.5130 C   0  0  0  0  0  2  0  0  0  0  0  0
  -25.9250  -25.6150   16.3680 C   0  0  0  0  0  2  0  0  0  0  0  0
  -24.6320  -25.8120   15.7780 O   0  0  0  0  0  0  0  0  0  0  0  0
  -23.3860  -29.1280   21.9380 C   0  0  0  0  0  0  0  0  0  0  0  0
  -23.7210  -26.4400   16.5960 C   0  0  0  0  0  0  0  0  0  0  0  0
  -21.3770  -28.4170   20.6760 C   0  0  0  0  0  3  0  0  0  0  0  0
  -21.7960  -27.6570   18.2730 C   0  0  0  0  0  0  0  0  0  0  0  0
  -23.5450  -28.9970   19.4570 C   0  0  0  0  0  2  0  0  0  0  0  0
  -23.1520  -27.9840   18.4040 C   0  0  0  0  0  0  0  0  0  0  0  0
  -24.1150  -27.3810   17.5720 C   0  0  0  0  0  3  0  0  0  0  0  0
  -22.3500  -26.1330   16.4570 C   0  0  0  0  0  3  0  0  0  0  0  0
  -21.3880  -26.7290   17.2970 C   0  0  0  0  0  3  0  0  0  0  0  0
  -20.8370  -28.3470   19.2210 C   0  0  0  0  0  2  0  0  0  0  0  0
  -22.8150  -28.8390   20.7350 N   0  0  0  0  0  0  0  0  0  0  0  0
  -22.7250  -29.0960   22.9830 O   0  0  0  0  0  0  0  0  0  0  0  0
  -21.1080  -27.0620   21.3680 C   0  0  0  0  0  0  0  0  0  0  0  0
  -19.8220  -26.6810   21.4520 N   0  0  0  0  0  0  0  0  0  0  0  0
  -22.0390  -26.3680   21.7850 O   0  0  0  0  0  0  0  0  0  0  0  0
  -19.1140  -27.3090   21.0980 H   0  0  0  0  0  0  0  0  0  0  0  0
  -16.9210  -24.5520   21.7300 C   0  0  0  0  0  0  0  0  0  0  0  0
  -19.3350  -25.4290   22.0280 C   0  0  0  0  0  3  0  0  0  0  0  0
  -19.7730  -24.2150   21.1760 C   0  0  0  0  0  2  0  0  0  0  0  0
  -18.7330  -23.8110   20.1260 C   0  0  0  0  0  2  0  0  0  0  0  0
  -17.4030  -23.4540   20.7960 C   0  0  0  0  0  2  0  0  0  0  0  0
  -17.8260  -25.4890   22.2960 C   0  0  0  0  0  0  0  0  0  0  0  0
  -17.3190  -26.5130   23.1260 C   0  0  0  0  0  3  0  0  0  0  0  0
  -15.9410  -26.6050   23.3980 C   0  0  0  0  0  3  0  0  0  0  0  0
  -15.0530  -25.6650   22.8490 C   0  0  0  0  0  3  0  0  0  0  0  0
  -15.5430  -24.6400   22.0200 C   0  0  0  0  0  3  0  0  0  0  0  0
  -24.8890  -29.5370   22.0540 C   0  0  0  0  0  3  0  0  0  0  0  0
  -24.9650  -30.6920   22.9580 N   0  0  0  0  0  0  0  0  0  0  0  0
  -25.2580  -31.9400   22.5700 C   0  0  0  0  0  0  0  0  0  0  0  0
  -25.5660  -32.2270   21.4100 O   0  0  0  0  0  0  0  0  0  0  0  0
  -24.6700  -30.5440   23.9110 H   0  0  0  0  0  0  0  0  0  0  0  0
  -23.8860  -33.8290   23.4980 C   0  0  0  0  0  1  0  0  0  0  0  0
  -25.1980  -33.0440   23.6410 C   0  0  0  0  0  3  0  0  0  0  0  0
  -27.6120  -33.3570   23.9650 C   0  0  0  0  0  1  0  0  0  0  0  0
  -26.3450  -33.9770   23.5880 N   0  0  0  0  0  0  0  0  0  0  0  0
  -26.1880  -34.7750   24.1980 H   0  0  0  0  0  0  0  0  0  0  0  0
  -25.8170  -28.3660   22.5610 C   0  0  1  0  0  0  0  0  0  0  0  0
  -25.3160  -27.7070   23.8670 C   0  0  0  0  0  1  0  0  0  0  0  0
  -25.9400  -27.2650   21.4820 C   0  0  0  0  0  1  0  0  0  0  0  0
  -27.2460  -28.8990   22.8150 C   0  0  0  0  0  1  0  0  0  0  0  0
  -30.8520  -16.5330   18.8320 C   0  0  0  0  0  2  0  0  0  0  0  0
  -31.2670  -14.6980   20.4260 C   0  0  0  0  0  0  0  0  0  0  0  0
  -31.2580  -12.4350   21.3800 C   0  0  0  0  0  2  0  0  0  0  0  0
  -30.6820  -11.4640   20.3290 C   0  0  0  0  0  2  0  0  0  0  0  0
  -29.1430  -11.4110   20.4120 C   0  0  0  0  0  2  0  0  0  0  0  0
  -28.4940  -12.8200   20.4420 C   0  0  0  0  0  3  0  0  0  0  0  0
  -29.1980  -13.7230   21.4790 C   0  0  0  0  0  2  0  0  0  0  0  0
  -30.6370  -13.7470   21.1580 N   0  0  0  0  0  0  0  0  0  0  0  0
  -32.4700  -14.6610   20.1460 O   0  0  0  0  0  0  0  0  0  0  0  0
  -30.4610  -15.6200   19.8930 N   0  0  0  0  0  0  0  0  0  0  0  0
  -29.4860  -15.5950   20.1510 H   0  0  0  0  0  0  0  0  0  0  0  0
  -26.1200  -13.7580   20.7820 C   0  0  0  0  0  0  0  0  0  0  0  0
  -24.9070  -13.1390   20.9370 C   0  0  0  0  0  0  0  0  0  0  0  0
  -25.1730  -11.7360   20.9130 C   0  0  0  0  0  0  0  0  0  0  0  0
  -27.0540  -12.7380   20.6800 N   0  0  0  0  0  0  0  0  0  0  0  0
  -26.4780  -11.5160   20.8120 N   0  0  0  0  0  0  0  0  0  0  0  0
  -24.2550  -10.5890   20.9220 C   0  0  0  0  0  0  0  0  0  0  0  0
  -24.5450   -9.4190   21.6580 C   0  0  0  0  0  3  0  0  0  0  0  0
  -23.6400   -8.3350   21.6660 C   0  0  0  0  0  3  0  0  0  0  0  0
  -22.4310   -8.4170   20.9360 C   0  0  0  0  0  0  0  0  0  0  0  0
  -22.1570   -9.5740   20.1870 C   0  0  0  0  0  3  0  0  0  0  0  0
  -23.0610  -10.6500   20.1760 C   0  0  0  0  0  3  0  0  0  0  0  0
  -21.5040   -7.4040   20.8640 O   0  0  0  0  0  0  0  0  0  0  0  0
  -21.5790   -6.3030   21.6770 C   0  0  0  0  0  0  0  0  0  0  0  0
  -21.4300   -6.4010   23.0780 C   0  0  0  0  0  3  0  0  0  0  0  0
  -21.4410   -5.2350   23.8700 C   0  0  0  0  0  3  0  0  0  0  0  0
  -21.5940   -3.9740   23.2650 C   0  0  0  0  0  0  0  0  0  0  0  0
  -21.7360   -3.8740   21.8700 C   0  0  0  0  0  3  0  0  0  0  0  0
  -21.7250   -5.0360   21.0780 C   0  0  0  0  0  0  0  0  0  0  0  0
  -21.8420   -4.9340   19.7320 F   0  0  0  0  0  0  0  0  0  0  0  0
  -21.5970   -2.8530   24.0240 F   0  0  0  0  0  0  0  0  0  0  0  0
  -23.5650  -13.8090   21.0080 C   0  0  0  0  0  0  0  0  0  0  0  0
  -22.6320  -13.2310   21.7580 N   0  0  0  0  0  0  0  0  0  0  0  0
  -23.3510  -14.8750   20.4350 O   0  0  0  0  0  0  0  0  0  0  0  0
  -22.8140  -12.3640   22.2410 H   0  0  0  0  0  0  0  0  0  0  0  0
  -21.7220  -13.6600   21.8440 H   0  0  0  0  0  0  0  0  0  0  0  0
  -26.5010  -15.0910   20.6940 N   0  0  0  0  0  0  0  0  0  0  0  0
  -25.8260  -15.8460   20.7290 H   0  0  0  0  0  0  0  0  0  0  0  0
  -27.4420  -15.4050   20.4960 H   0  0  0  0  0  0  0  0  0  0  0  0
  -30.1930  -21.9940   20.5370 N   0  0  0  0  0  0  0  0  0  0  0  0
  -26.7400  -24.6510   20.9080 C   0  0  0  0  0  2  0  0  0  0  0  0
  -26.6650  -23.2200   21.4670 C   0  0  0  0  0  2  0  0  0  0  0  0
  -27.6020  -24.7210   19.6360 C   0  0  0  0  0  2  0  0  0  0  0  0
  -28.0730  -22.6580   21.7170 C   0  0  0  0  0  2  0  0  0  0  0  0
  -28.9890  -24.0870   19.8430 C   0  0  0  0  0  2  0  0  0  0  0  0
  -28.8900  -22.6520   20.4120 C   0  0  0  0  0  3  0  0  0  0  0  0
  -31.3430  -22.5820   21.2410 C   0  0  0  0  0  2  0  0  0  0  0  0
  -33.8380  -19.8060   22.1660 C   0  0  0  0  0  3  0  0  0  0  0  0
  -35.0420  -20.3250   21.6590 C   0  0  0  0  0  3  0  0  0  0  0  0
  -32.6390  -20.5260   22.0060 C   0  0  0  0  0  3  0  0  0  0  0  0
  -35.0420  -21.5570   20.9770 C   0  0  0  0  0  3  0  0  0  0  0  0
  -32.6300  -21.7690   21.3360 C   0  0  0  0  0  0  0  0  0  0  0  0
  -33.8420  -22.2770   20.8140 C   0  0  0  0  0  0  0  0  0  0  0  0
  -33.8660  -23.4690   20.1680 F   0  0  0  0  0  0  0  0  0  0  0  0
  1  2  1  0
  3  5  2  0
  3  4  1  0
  4  1  2  0
  5  6  1  0
  6 99  1  0
  6  2  2  0
  7  5  1  0
  8 11  1  0
  8  9  1  0
  9 12  1  0
 11 13  1  0
 11 10  1  0
 12 10  1  0
 12  7  1  0
 13 14  1  0
 13 16  1  0
 15 13  1  0
 17 16  1  0
 17 18  1  0
 19 18  1  0
 19 21  1  0
 20 31  2  0
 21 26  1  0
 22 30  1  0
 22 32  1  0
 23 25  1  0
 23 29  1  0
 24 30  1  0
 25 24  1  0
 26 25  2  0
 27 21  2  0
 27 28  1  0
 28 23  2  0
 29 22  1  0
 30 20  1  0
 32 33  1  0
 32 34  2  0
 35 33  1  0
 36 45  2  0
 36 41  1  0
 37 33  1  0
 37 41  1  0
 38 37  1  0
 39 40  1  0
 39 38  1  0
 40 36  1  0
 41 42  2  0
 42 43  1  0
 44 43  2  0
 45 44  1  0
 46 20  1  0
 46 56  1  0
 46 47  1  0
 47 50  1  0
 48 47  1  0
 48 52  1  0
 49 48  2  0
 52 51  1  0
 54 52  1  0
 54 53  1  0
 54 55  1  0
 56 59  1  1
 56 57  1  0
 58 56  1  0
 60  4  1  0
 60 69  1  0
 61 67  1  0
 63 64  1  0
 63 62  1  0
 65 64  1  0
 65 74  1  0
 65 66  1  0
 67 62  1  0
 67 66  1  0
 68 61  2  0
 69 70  1  0
 69 61  1  0
 71 72  2  0
 72 91  1  0
 73 76  1  0
 73 72  1  0
 74 71  1  0
 74 75  1  0
 75 73  2  0
 76 77  1  0
 77 78  2  0
 79 78  1  0
 80 79  2  0
 81 80  1  0
 81 76  2  0
 82 79  1  0
 82 83  1  0
 83 84  1  0
 84 85  2  0
 86 85  1  0
 86 90  1  0
 87 86  2  0
 88 83  2  0
 88 87  1  0
 89 88  1  0
 91 92  1  0
 92 95  1  0
 92 94  1  0
 93 91  2  0
 96 97  1  0
 96 71  1  0
 98 96  1  0
 99106  1  0
100101  1  0
101103  1  0
102104  1  0
102100  1  0
104105  1  0
105 99  1  0
105103  1  0
106111  1  0
108107  2  0
109107  1  0
110108  1  0
111109  2  0
112110  2  0
112111  1  0
113112  1  0
M  ISO  4  18 101  19 101  61 100  69 100
M  END
>  <TORSDO>  (70) 
F 27

>  <SCORE>  (70) 
-6.574

>  <name>  (70) 
69

>  <ligand_id>  (70) 
69

>  <original_smiles>  (70) 
[H]c1c([H])c([H])c(C([H])([H])N(c2c([H])c([H])c(C([H])([H])N([H])C(=O)N3C([H])([H])C([H])([H])C([H])([H])C([H])(n4nc(-c5c([H])c([H])c(Oc6c([H])c([H])c(F)c([H])c6F)c([H])c5[H])c(C(=O)N([H])[H])c4N([H])[H])C3([H])[H])c([H])c2C([H])([H])N2C([H])([H])C([H])([H])C([H])([N+]([H])([H])C([H])([H])C([H])([H])C([H])([H])Oc3c([H])c([H])c4c(c3[H])C([H])([H])N(C(=O)C([H])(N([H])C(=O)C([H])(N([H])C([H])([H])[H])C([H])([H])[H])C(C([H])([H])[H])(C([H])([H])[H])C([H])([H])[H])C([H])(C(=O)N([H])C3([H])c5c([H])c([H])c([H])c([H])c5C([H])([H])C([H])([H])C3([H])[H])C4([H])[H])C2([H])[H])C2([H])C([H])([H])C([H])([H])C([H])([H])C([H])([H])C2([H])[H])c(F)c1[H]

>  <smiles>  (70) 
[H]c1c([H])c([H])c(C([H])([H])N(c2c([H])c([H])c(C([H])([H])N([H])C(=O)N3C([H])([H])C([H])([H])C([H])([H])C([H])(n4nc(-c5c([H])c([H])c(Oc6c([H])c([H])c(F)c([H])c6F)c([H])c5[H])c(C(=O)N([H])[H])c4N([H])[H])C3([H])[H])c([H])c2C([H])([H])N2C([H])([H])C([H])([H])C([H])([N+]([H])([H])C([H])([H])C([H])([H])C([H])([H])Oc3c([H])c([H])c4c(c3[H])C([H])([H])N(C(=O)C([H])(N([H])C(=O)C([H])(N([H])C([H])([H])[H])C([H])([H])[H])C(C([H])([H])[H])(C([H])([H])[H])C([H])([H])[H])C([H])(C(=O)N([H])C3([H])c5c([H])c([H])c([H])c([H])c5C([H])([H])C([H])([H])C3([H])[H])C4([H])[H])C2([H])[H])C2([H])C([H])([H])C([H])([H])C([H])([H])C([H])([H])C2([H])[H])c(F)c1[H]

$$$$
70:0:0
     RDKit          3D

 97106  0  0  1  0  0  0  0  0999 V2000
  -32.7240  -20.9590   18.2100 N   0  0  0  0  0  4  0  0  0  0  0  0
  -31.7500  -21.0300   17.9690 H   0  0  0  0  0  0  0  0  0  0  0  0
  -33.2450  -21.1300   17.3640 H   0  0  0  0  0  0  0  0  0  0  0  0
  -33.0550  -19.5600   18.6020 C   0  0  0  0  0  2  0  0  0  0  0  0
  -31.5260  -14.3570   19.5890 C   0  0  0  0  0  0  0  0  0  0  0  0
  -30.9640  -12.4100   18.1410 C   0  0  0  0  0  2  0  0  0  0  0  0
  -29.7770  -12.7460   17.2020 C   0  0  0  0  0  2  0  0  0  0  0  0
  -28.4070  -12.5390   17.8910 C   0  0  0  0  0  2  0  0  0  0  0  0
  -28.3640  -13.1520   19.3160 C   0  0  0  0  0  3  0  0  0  0  0  0
  -29.6100  -12.6410   20.0630 C   0  0  0  0  0  2  0  0  0  0  0  0
  -30.8110  -13.1890   19.3900 N   0  0  0  0  0  0  0  0  0  0  0  0
  -32.4410  -14.6310   18.8030 O   0  0  0  0  0  0  0  0  0  0  0  0
  -30.5880  -18.8710   21.4900 C   0  0  0  0  0  3  0  0  0  0  0  0
  -31.3400  -19.5580   20.5280 C   0  0  0  0  0  3  0  0  0  0  0  0
  -32.0060  -17.4270   19.5590 C   0  0  0  0  0  3  0  0  0  0  0  0
  -30.5810  -17.4670   21.5180 C   0  0  0  0  0  0  0  0  0  0  0  0
  -32.0890  -18.8480   19.5710 C   0  0  0  0  0  0  0  0  0  0  0  0
  -31.2590  -16.6910   20.5330 C   0  0  0  0  0  0  0  0  0  0  0  0
  -29.8810  -16.8060   22.6790 C   0  0  0  0  0  2  0  0  0  0  0  0
  -30.7240  -15.6160   23.1120 C   0  0  0  0  0  2  0  0  0  0  0  0
  -30.7880  -14.6570   21.9260 C   0  0  0  0  0  2  0  0  0  0  0  0
  -31.1920  -15.2220   20.6170 N   0  0  0  0  0  0  0  0  0  0  0  0
  -26.1680  -13.6730   20.5670 C   0  0  0  0  0  0  0  0  0  0  0  0
  -25.1820  -12.8630   21.0590 C   0  0  0  0  0  0  0  0  0  0  0  0
  -25.5910  -11.5250   20.7650 C   0  0  0  0  0  0  0  0  0  0  0  0
  -27.1230  -12.8270   20.0190 N   0  0  0  0  0  0  0  0  0  0  0  0
  -26.7850  -11.5240   20.1830 N   0  0  0  0  0  0  0  0  0  0  0  0
  -24.8920  -10.2470   20.9490 C   0  0  0  0  0  0  0  0  0  0  0  0
  -25.3010   -9.3150   21.9290 C   0  0  0  0  0  3  0  0  0  0  0  0
  -24.6030   -8.1000   22.0960 C   0  0  0  0  0  3  0  0  0  0  0  0
  -23.4840   -7.8080   21.2820 C   0  0  0  0  0  0  0  0  0  0  0  0
  -23.0960   -8.7260   20.2900 C   0  0  0  0  0  3  0  0  0  0  0  0
  -23.7950   -9.9330   20.1210 C   0  0  0  0  0  3  0  0  0  0  0  0
  -22.7610   -6.6440   21.3550 O   0  0  0  0  0  0  0  0  0  0  0  0
  -22.3940   -6.1020   22.5600 C   0  0  0  0  0  0  0  0  0  0  0  0
  -21.6820   -6.8460   23.5250 C   0  0  0  0  0  3  0  0  0  0  0  0
  -21.2700   -6.2340   24.7240 C   0  0  0  0  0  3  0  0  0  0  0  0
  -21.5490   -4.8720   24.9520 C   0  0  0  0  0  0  0  0  0  0  0  0
  -22.2490   -4.1260   23.9890 C   0  0  0  0  0  3  0  0  0  0  0  0
  -22.6690   -4.7390   22.7940 C   0  0  0  0  0  0  0  0  0  0  0  0
  -23.3290   -4.0110   21.8600 F   0  0  0  0  0  0  0  0  0  0  0  0
  -21.1400   -4.2780   26.0970 F   0  0  0  0  0  0  0  0  0  0  0  0
  -23.8870  -13.2950   21.6870 C   0  0  0  0  0  0  0  0  0  0  0  0
  -23.3750  -12.5240   22.6390 N   0  0  0  0  0  0  0  0  0  0  0  0
  -23.3410  -14.3510   21.3640 O   0  0  0  0  0  0  0  0  0  0  0  0
  -23.8260  -11.6630   22.9150 H   0  0  0  0  0  0  0  0  0  0  0  0
  -22.5180  -12.7940   23.1030 H   0  0  0  0  0  0  0  0  0  0  0  0
  -26.3250  -15.0560   20.5260 N   0  0  0  0  0  0  0  0  0  0  0  0
  -25.6100  -15.6950   20.8580 H   0  0  0  0  0  0  0  0  0  0  0  0
  -27.0950  -15.5230   20.0690 H   0  0  0  0  0  0  0  0  0  0  0  0
  -33.1420  -22.0190   19.1700 C   0  0  0  0  0  2  0  0  0  0  0  0
  -33.1860  -23.4400   18.5610 C   0  0  0  0  0  2  0  0  0  0  0  0
  -31.8560  -24.0080   18.0160 C   0  0  0  0  0  2  0  0  0  0  0  0
  -31.1950  -25.1230   18.8580 C   0  0  0  0  0  2  0  0  0  0  0  0
  -30.3440  -24.6390   20.0490 C   0  0  0  0  0  2  0  0  0  0  0  0
  -28.9120  -25.2250   20.0630 C   0  0  0  0  0  2  0  0  0  0  0  0
  -28.9220  -26.6520   20.1640 O   0  0  0  0  0  0  0  0  0  0  0  0
  -24.8860  -31.6640   23.1940 C   0  0  0  0  0  0  0  0  0  0  0  0
  -27.7100  -27.3140   20.1350 C   0  0  0  0  0  0  0  0  0  0  0  0
  -23.7550  -30.2590   21.5010 C   0  0  0  0  0  3  0  0  0  0  0  0
  -25.2770  -28.7660   20.1040 C   0  0  0  0  0  0  0  0  0  0  0  0
  -26.2780  -30.6710   21.3780 C   0  0  0  0  0  2  0  0  0  0  0  0
  -26.4080  -29.3110   20.7200 C   0  0  0  0  0  0  0  0  0  0  0  0
  -27.6270  -28.5970   20.7230 C   0  0  0  0  0  3  0  0  0  0  0  0
  -26.5500  -26.7740   19.5270 C   0  0  0  0  0  3  0  0  0  0  0  0
  -25.3420  -27.4960   19.5060 C   0  0  0  0  0  3  0  0  0  0  0  0
  -24.0180  -29.6030   20.1200 C   0  0  0  0  0  2  0  0  0  0  0  0
  -24.9900  -30.8770   22.0840 N   0  0  0  0  0  0  0  0  0  0  0  0
  -23.7860  -31.9100   23.7050 O   0  0  0  0  0  0  0  0  0  0  0  0
  -23.0970  -29.2150   22.4320 C   0  0  0  0  0  0  0  0  0  0  0  0
  -21.7700  -29.0480   22.3010 N   0  0  0  0  0  0  0  0  0  0  0  0
  -23.7750  -28.5590   23.2280 O   0  0  0  0  0  0  0  0  0  0  0  0
  -21.2840  -29.6350   21.6360 H   0  0  0  0  0  0  0  0  0  0  0  0
  -18.3750  -27.9240   22.8290 C   0  0  0  0  0  0  0  0  0  0  0  0
  -20.9450  -28.0950   23.0430 C   0  0  0  0  0  3  0  0  0  0  0  0
  -20.9890  -26.6920   22.3940 C   0  0  0  0  0  2  0  0  0  0  0  0
  -19.8520  -26.4540   21.3940 C   0  0  0  0  0  2  0  0  0  0  0  0
  -18.4910  -26.6070   22.0820 C   0  0  0  0  0  2  0  0  0  0  0  0
  -19.5270  -28.6310   23.2670 C   0  0  0  0  0  0  0  0  0  0  0  0
  -19.3600  -29.8660   23.9260 C   0  0  0  0  0  3  0  0  0  0  0  0
  -18.0760  -30.3990   24.1500 C   0  0  0  0  0  3  0  0  0  0  0  0
  -16.9400  -29.6890   23.7250 C   0  0  0  0  0  3  0  0  0  0  0  0
  -17.0900  -28.4530   23.0720 C   0  0  0  0  0  3  0  0  0  0  0  0
  -26.1440  -32.3080   23.8600 C   0  0  0  0  0  3  0  0  0  0  0  0
  -26.6890  -31.4800   25.0910 C   0  0  1  0  0  0  0  0  0  0  0  0
  -25.6030  -31.1290   26.1350 C   0  0  0  0  0  1  0  0  0  0  0  0
  -27.3360  -30.1590   24.6150 C   0  0  0  0  0  1  0  0  0  0  0  0
  -27.7980  -32.2820   25.8120 C   0  0  0  0  0  1  0  0  0  0  0  0
  -25.7780  -33.6710   24.2680 N   0  0  0  0  0  0  0  0  0  0  0  0
  -26.0430  -34.7750   23.5580 C   0  0  0  0  0  0  0  0  0  0  0  0
  -26.6970  -34.7560   22.5130 O   0  0  0  0  0  0  0  0  0  0  0  0
  -25.1960  -33.7590   25.0870 H   0  0  0  0  0  0  0  0  0  0  0  0
  -24.2100  -36.4860   23.3390 C   0  0  0  0  0  1  0  0  0  0  0  0
  -25.4940  -36.1100   24.0950 C   0  0  0  0  0  3  0  0  0  0  0  0
  -27.5950  -37.0740   24.9190 C   0  0  0  0  0  1  0  0  0  0  0  0
  -26.4640  -37.2220   24.0070 N   0  0  0  0  0  0  0  0  0  0  0  0
  -26.0110  -38.1110   24.2030 H   0  0  0  0  0  0  0  0  0  0  0  0
  1  4  1  0
  1 51  1  0
  2  1  1  0
  3  1  1  0
  4 17  1  0
  5 22  1  0
  6 11  1  0
  7  8  1  0
  7  6  1  0
  9  8  1  0
  9 26  1  0
  9 10  1  0
 11  5  1  0
 11 10  1  0
 12  5  2  0
 13 16  1  0
 14 13  2  0
 15 17  2  0
 15 18  1  0
 16 19  1  0
 17 14  1  0
 18 22  1  0
 18 16  2  0
 19 20  1  0
 21 20  1  0
 22 21  1  0
 23 24  2  0
 24 43  1  0
 25 28  1  0
 25 24  1  0
 26 27  1  0
 26 23  1  0
 27 25  2  0
 28 29  1  0
 29 30  2  0
 31 34  1  0
 31 30  1  0
 32 31  2  0
 33 32  1  0
 33 28  2  0
 34 35  1  0
 35 40  2  0
 35 36  1  0
 36 37  2  0
 37 38  1  0
 38 42  1  0
 39 38  2  0
 40 39  1  0
 41 40  1  0
 43 44  1  0
 44 46  1  0
 44 47  1  0
 45 43  2  0
 48 23  1  0
 48 49  1  0
 50 48  1  0
 52 51  1  0
 53 52  1  0
 53 54  1  0
 54 55  1  0
 55 56  1  0
 56 57  1  0
 58 69  2  0
 59 57  1  0
 59 64  1  0
 60 68  1  0
 60 70  1  0
 61 67  1  0
 61 63  1  0
 62 68  1  0
 63 64  2  0
 63 62  1  0
 65 59  2  0
 66 65  1  0
 66 61  2  0
 67 60  1  0
 68 58  1  0
 70 72  2  0
 71 70  1  0
 73 71  1  0
 74 83  2  0
 74 79  1  0
 75 71  1  0
 75 79  1  0
 76 75  1  0
 77 78  1  0
 77 76  1  0
 78 74  1  0
 79 80  2  0
 80 81  1  0
 82 81  2  0
 83 82  1  0
 84 58  1  0
 84 89  1  0
 84 85  1  0
 85 88  1  1
 85 86  1  0
 87 85  1  0
 89 92  1  0
 90 94  1  0
 90 89  1  0
 91 90  2  0
 94 93  1  0
 96 94  1  0
 96 97  1  0
 96 95  1  0
M  ISO  4   5 100  22 100  56 101  57 101
M  END
>  <TORSDO>  (71) 
F 23

>  <SCORE>  (71) 
-6.584

>  <name>  (71) 
70

>  <ligand_id>  (71) 
70

>  <original_smiles>  (71) 
[H]c1c([H])c([H])c2c(c1[H])C([H])([H])C([H])([H])C([H])([H])C2([H])N([H])C(=O)C1([H])N(C(=O)C([H])(N([H])C(=O)C([H])(N([H])C([H])([H])[H])C([H])([H])[H])C(C([H])([H])[H])(C([H])([H])[H])C([H])([H])[H])C([H])([H])c2c([H])c(OC([H])([H])C([H])([H])C([H])([H])C([H])([H])C([H])([H])C([H])([H])[N+]([H])([H])C([H])([H])c3c([H])c([H])c4c(c3[H])N(C(=O)N3C([H])([H])C([H])([H])C([H])([H])C([H])(n5nc(-c6c([H])c([H])c(Oc7c([H])c([H])c(F)c([H])c7F)c([H])c6[H])c(C(=O)N([H])[H])c5N([H])[H])C3([H])[H])C([H])([H])C([H])([H])C4([H])[H])c([H])c([H])c2C1([H])[H]

>  <smiles>  (71) 
[H]c1c([H])c([H])c2c(c1[H])C([H])([H])C([H])([H])C([H])([H])C2([H])N([H])C(=O)C1([H])N(C(=O)C([H])(N([H])C(=O)C([H])(N([H])C([H])([H])[H])C([H])([H])[H])C(C([H])([H])[H])(C([H])([H])[H])C([H])([H])[H])C([H])([H])c2c([H])c(OC([H])([H])C([H])([H])C([H])([H])C([H])([H])C([H])([H])C([H])([H])[N+]([H])([H])C([H])([H])c3c([H])c([H])c4c(c3[H])N(C(=O)N3C([H])([H])C([H])([H])C([H])([H])C([H])(n5nc(-c6c([H])c([H])c(Oc7c([H])c([H])c(F)c([H])c7F)c([H])c6[H])c(C(=O)N([H])[H])c5N([H])[H])C3([H])[H])C([H])([H])C([H])([H])C4([H])[H])c([H])c([H])c2C1([H])[H]

$$$$
71:0:0
     RDKit          3D

 95103  0  0  1  0  0  0  0  0999 V2000
  -30.4650  -19.9200   21.3970 C   0  0  0  0  0  3  0  0  0  0  0  0
  -30.9220  -18.7740   22.0730 C   0  0  0  0  0  3  0  0  0  0  0  0
  -29.2720  -18.4630   19.8710 C   0  0  0  0  0  3  0  0  0  0  0  0
  -29.6060  -19.8200   20.2900 C   0  0  0  0  0  0  0  0  0  0  0  0
  -30.5650  -17.4550   21.6940 C   0  0  0  0  0  0  0  0  0  0  0  0
  -29.7590  -17.2520   20.5260 C   0  0  0  0  0  0  0  0  0  0  0  0
  -30.0950  -14.8180   19.6170 C   0  0  0  0  0  0  0  0  0  0  0  0
  -29.7480  -12.6590   18.3970 C   0  0  0  0  0  2  0  0  0  0  0  0
  -28.6110  -12.8070   17.3620 C   0  0  0  0  0  2  0  0  0  0  0  0
  -27.2400  -12.5500   18.0150 C   0  0  0  0  0  2  0  0  0  0  0  0
  -27.0620  -13.3120   19.3550 C   0  0  0  0  0  3  0  0  0  0  0  0
  -28.2960  -13.1490   20.2690 C   0  0  0  0  0  2  0  0  0  0  0  0
  -29.4670  -13.5980   19.5040 N   0  0  0  0  0  0  0  0  0  0  0  0
  -31.1970  -14.9960   19.0940 O   0  0  0  0  0  0  0  0  0  0  0  0
  -29.3560  -15.8870   20.0950 N   0  0  0  0  0  0  0  0  0  0  0  0
  -28.3800  -15.6740   20.2370 H   0  0  0  0  0  0  0  0  0  0  0  0
  -24.7890  -13.7590   20.4560 C   0  0  0  0  0  0  0  0  0  0  0  0
  -23.8300  -12.9210   20.9540 C   0  0  0  0  0  0  0  0  0  0  0  0
  -24.3460  -11.5960   20.8050 C   0  0  0  0  0  0  0  0  0  0  0  0
  -25.8240  -12.9430   20.0330 N   0  0  0  0  0  0  0  0  0  0  0  0
  -25.5750  -11.6370   20.3050 N   0  0  0  0  0  0  0  0  0  0  0  0
  -23.7180  -10.2930   21.0550 C   0  0  0  0  0  0  0  0  0  0  0  0
  -24.2500   -9.3870   21.9990 C   0  0  0  0  0  3  0  0  0  0  0  0
  -23.6180   -8.1470   22.2350 C   0  0  0  0  0  3  0  0  0  0  0  0
  -22.4420   -7.8040   21.5280 C   0  0  0  0  0  0  0  0  0  0  0  0
  -21.9300   -8.6980   20.5720 C   0  0  0  0  0  3  0  0  0  0  0  0
  -22.5610   -9.9300   20.3350 C   0  0  0  0  0  3  0  0  0  0  0  0
  -21.7730   -6.6120   21.6750 O   0  0  0  0  0  0  0  0  0  0  0  0
  -21.7360   -5.9500   22.8760 C   0  0  0  0  0  0  0  0  0  0  0  0
  -21.2100   -6.5490   24.0410 C   0  0  0  0  0  3  0  0  0  0  0  0
  -21.1280   -5.8090   25.2380 C   0  0  0  0  0  3  0  0  0  0  0  0
  -21.5600   -4.4690   25.2680 C   0  0  0  0  0  0  0  0  0  0  0  0
  -22.0800   -3.8700   24.1080 C   0  0  0  0  0  3  0  0  0  0  0  0
  -22.1640   -4.6080   22.9140 C   0  0  0  0  0  0  0  0  0  0  0  0
  -22.6460   -4.0190   21.7930 F   0  0  0  0  0  0  0  0  0  0  0  0
  -21.4740   -3.7540   26.4150 F   0  0  0  0  0  0  0  0  0  0  0  0
  -22.4680  -13.3150   21.4480 C   0  0  0  0  0  0  0  0  0  0  0  0
  -21.9330  -12.5870   22.4220 N   0  0  0  0  0  0  0  0  0  0  0  0
  -21.8880  -14.3070   21.0030 O   0  0  0  0  0  0  0  0  0  0  0  0
  -22.4160  -11.7860   22.8030 H   0  0  0  0  0  0  0  0  0  0  0  0
  -21.0260  -12.8340   22.7940 H   0  0  0  0  0  0  0  0  0  0  0  0
  -24.8570  -15.1420   20.3020 N   0  0  0  0  0  0  0  0  0  0  0  0
  -24.0740  -15.7450   20.5300 H   0  0  0  0  0  0  0  0  0  0  0  0
  -25.6060  -15.6290   19.8290 H   0  0  0  0  0  0  0  0  0  0  0  0
  -31.0530  -16.3290   22.6180 C   0  0  1  0  0  0  0  0  0  0  0  0
  -31.3210  -16.7970   23.8390 F   0  0  0  0  0  0  0  0  0  0  0  0
  -30.1440  -15.3680   22.7860 F   0  0  0  0  0  0  0  0  0  0  0  0
  -32.1780  -15.7940   22.1460 F   0  0  0  0  0  0  0  0  0  0  0  0
  -29.2340  -21.1710   19.5210 C   0  0  0  0  0  2  0  0  0  0  0  0
  -28.7280  -22.4150   20.2720 N   0  0  0  0  0  4  0  0  0  0  0  0
  -27.7770  -22.2120   20.5380 H   0  0  0  0  0  0  0  0  0  0  0  0
  -29.2520  -22.4880   21.1300 H   0  0  0  0  0  0  0  0  0  0  0  0
  -28.7720  -23.7940   19.5680 C   0  0  0  0  0  3  0  0  0  0  0  0
  -28.0070  -25.0590   20.2320 C   0  0  0  0  0  3  0  0  0  0  0  0
  -28.1400  -26.4520   19.6740 O   0  0  0  0  0  0  0  0  0  0  0  0
  -24.5110  -31.7130   23.1190 C   0  0  0  0  0  0  0  0  0  0  0  0
  -27.0320  -27.3240   19.7370 C   0  0  0  0  0  0  0  0  0  0  0  0
  -23.2630  -30.4090   21.4340 C   0  0  0  0  0  3  0  0  0  0  0  0
  -24.6760  -28.9540   19.8730 C   0  0  0  0  0  0  0  0  0  0  0  0
  -25.7950  -30.7480   21.1940 C   0  0  0  0  0  2  0  0  0  0  0  0
  -25.8620  -29.4040   20.4670 C   0  0  0  0  0  0  0  0  0  0  0  0
  -27.0460  -28.6040   20.3840 C   0  0  0  0  0  3  0  0  0  0  0  0
  -25.8260  -26.9410   19.1140 C   0  0  0  0  0  3  0  0  0  0  0  0
  -24.6620  -27.7310   19.1830 C   0  0  0  0  0  3  0  0  0  0  0  0
  -23.4420  -29.8250   20.0070 C   0  0  0  0  0  2  0  0  0  0  0  0
  -24.5440  -30.9720   21.9740 N   0  0  0  0  0  0  0  0  0  0  0  0
  -23.4430  -31.9510   23.7030 O   0  0  0  0  0  0  0  0  0  0  0  0
  -22.6320  -29.3310   22.3520 C   0  0  0  0  0  0  0  0  0  0  0  0
  -21.3040  -29.1500   22.2510 N   0  0  0  0  0  0  0  0  0  0  0  0
  -23.3360  -28.6640   23.1140 O   0  0  0  0  0  0  0  0  0  0  0  0
  -20.7910  -29.7430   21.6120 H   0  0  0  0  0  0  0  0  0  0  0  0
  -17.9490  -27.9040   22.7810 C   0  0  0  0  0  0  0  0  0  0  0  0
  -20.5140  -28.1620   22.9880 C   0  0  0  0  0  3  0  0  0  0  0  0
  -20.6040  -26.7700   22.3220 C   0  0  0  0  0  2  0  0  0  0  0  0
  -19.4730  -26.5040   21.3250 C   0  0  0  0  0  2  0  0  0  0  0  0
  -18.1090  -26.6000   22.0180 C   0  0  0  0  0  2  0  0  0  0  0  0
  -19.0780  -28.6450   23.2220 C   0  0  0  0  0  0  0  0  0  0  0  0
  -18.8720  -29.8670   23.8980 C   0  0  0  0  0  3  0  0  0  0  0  0
  -17.5700  -30.3490   24.1360 C   0  0  0  0  0  3  0  0  0  0  0  0
  -16.4570  -29.6040   23.7120 C   0  0  0  0  0  3  0  0  0  0  0  0
  -16.6460  -28.3830   23.0400 C   0  0  0  0  0  3  0  0  0  0  0  0
  -25.8100  -32.3170   23.7390 C   0  0  0  0  0  3  0  0  0  0  0  0
  -25.5250  -33.7120   24.1030 N   0  0  0  0  0  0  0  0  0  0  0  0
  -25.8620  -34.7760   23.3640 C   0  0  0  0  0  0  0  0  0  0  0  0
  -26.5130  -34.6840   22.3190 O   0  0  0  0  0  0  0  0  0  0  0  0
  -24.9490  -33.8590   24.9190 H   0  0  0  0  0  0  0  0  0  0  0  0
  -24.1570  -36.6040   23.0750 C   0  0  0  0  0  1  0  0  0  0  0  0
  -25.4040  -36.1610   23.8600 C   0  0  0  0  0  3  0  0  0  0  0  0
  -27.5610  -36.9960   24.6800 C   0  0  0  0  0  1  0  0  0  0  0  0
  -26.4500  -37.2010   23.7560 N   0  0  0  0  0  0  0  0  0  0  0  0
  -26.0590  -38.1230   23.9320 H   0  0  0  0  0  0  0  0  0  0  0  0
  -26.3320  -31.5140   24.9930 C   0  0  1  0  0  0  0  0  0  0  0  0
  -25.2370  -31.2260   26.0470 C   0  0  0  0  0  1  0  0  0  0  0  0
  -26.9370  -30.1590   24.5590 C   0  0  0  0  0  1  0  0  0  0  0  0
  -27.4690  -32.3010   25.6840 C   0  0  0  0  0  1  0  0  0  0  0  0
  1  2  1  0
  3  4  1  0
  3  6  2  0
  4  1  2  0
  5  2  2  0
  5 45  1  0
  6  5  1  0
  7 15  1  0
  8 13  1  0
  9 10  1  0
  9  8  1  0
 11 10  1  0
 11 20  1  0
 11 12  1  0
 13  7  1  0
 13 12  1  0
 14  7  2  0
 15 16  1  0
 15  6  1  0
 17 18  2  0
 18 37  1  0
 19 18  1  0
 19 22  1  0
 20 21  1  0
 20 17  1  0
 21 19  2  0
 22 23  1  0
 23 24  2  0
 25 28  1  0
 25 24  1  0
 26 25  2  0
 27 26  1  0
 27 22  2  0
 28 29  1  0
 29 34  2  0
 29 30  1  0
 30 31  2  0
 31 32  1  0
 32 36  1  0
 33 32  2  0
 34 33  1  0
 35 34  1  0
 37 38  1  0
 38 41  1  0
 38 40  1  0
 39 37  2  0
 42 17  1  0
 42 43  1  0
 44 42  1  0
 45 47  1  1
 45 46  1  0
 48 45  1  0
 49 50  1  0
 49  4  1  0
 50 51  1  0
 50 52  1  0
 53 54  2  0
 53 50  1  0
 55 57  1  0
 55 54  1  0
 56 67  2  0
 57 62  1  0
 58 66  1  0
 58 68  1  0
 59 65  1  0
 59 61  1  0
 60 66  1  0
 61 60  1  0
 62 61  2  0
 63 64  1  0
 63 57  2  0
 64 59  2  0
 65 58  1  0
 66 56  1  0
 68 70  2  0
 69 68  1  0
 71 69  1  0
 72 81  2  0
 72 77  1  0
 73 69  1  0
 73 77  1  0
 74 73  1  0
 75 76  1  0
 75 74  1  0
 76 72  1  0
 77 78  2  0
 78 79  1  0
 80 79  2  0
 81 80  1  0
 82 56  1  0
 82 83  1  0
 82 92  1  0
 83 86  1  0
 84 88  1  0
 84 83  1  0
 85 84  2  0
 88 87  1  0
 90 88  1  0
 90 91  1  0
 90 89  1  0
 92 95  1  1
 92 93  1  0
 94 92  1  0
M  ISO  4   7 100  15 100  54 101  55 101
M  END
>  <TORSDO>  (72) 
F 21

>  <SCORE>  (72) 
-9.697

>  <name>  (72) 
71

>  <ligand_id>  (72) 
71

>  <original_smiles>  (72) 
[H]c1c([H])c([H])c2c(c1[H])C([H])([H])C([H])([H])C([H])([H])C2([H])N([H])C(=O)C1([H])N(C(=O)C([H])(N([H])C(=O)C([H])(N([H])C([H])([H])[H])C([H])([H])[H])C(C([H])([H])[H])(C([H])([H])[H])C([H])([H])[H])C([H])([H])c2c([H])c(OC([H])([H])C([H])([H])[N+]([H])([H])C([H])([H])c3c([H])c([H])c(C(F)(F)F)c(N([H])C(=O)N4C([H])([H])C([H])([H])C([H])([H])C([H])(n5nc(-c6c([H])c([H])c(Oc7c([H])c([H])c(F)c([H])c7F)c([H])c6[H])c(C(=O)N([H])[H])c5N([H])[H])C4([H])[H])c3[H])c([H])c([H])c2C1([H])[H]

>  <smiles>  (72) 
[H]c1c([H])c([H])c2c(c1[H])C([H])([H])C([H])([H])C([H])([H])C2([H])N([H])C(=O)C1([H])N(C(=O)C([H])(N([H])C(=O)C([H])(N([H])C([H])([H])[H])C([H])([H])[H])C(C([H])([H])[H])(C([H])([H])[H])C([H])([H])[H])C([H])([H])c2c([H])c(OC([H])([H])C([H])([H])[N+]([H])([H])C([H])([H])c3c([H])c([H])c(C(F)(F)F)c(N([H])C(=O)N4C([H])([H])C([H])([H])C([H])([H])C([H])(n5nc(-c6c([H])c([H])c(Oc7c([H])c([H])c(F)c([H])c7F)c([H])c6[H])c(C(=O)N([H])[H])c5N([H])[H])C4([H])[H])c3[H])c([H])c([H])c2C1([H])[H]

$$$$
73:0:0
     RDKit          3D

 99103  0  0  1  0  0  0  0  0999 V2000
  -23.8130  -22.9570   20.2710 C   0  0  0  0  0  2  0  0  0  0  0  0
  -25.1950  -23.0370   19.5900 C   0  0  0  0  0  2  0  0  0  0  0  0
  -23.7670  -23.9190   21.5290 C   0  0  0  0  0  2  0  0  0  0  0  0
  -24.3240  -25.3780   19.6270 C   0  0  0  0  0  2  0  0  0  0  0  0
  -25.5110  -24.4090   18.8850 C   0  0  0  0  0  3  0  0  0  0  0  0
  -23.8450  -25.3640   21.1270 N   0  0  2  0  0  4  0  0  0  0  0  0
  -22.8680  -25.5170   20.9180 H   0  0  0  0  0  0  0  0  0  0  0  0
  -24.0550  -26.5270   22.3380 C   0  0  0  0  0  2  0  0  0  0  0  0
  -28.0120  -28.0410   20.1940 C   0  0  2  0  0  0  0  0  0  0  0  0
  -27.4410  -29.4140   20.5340 C   0  0  0  0  0  3  0  0  0  0  0  0
  -26.0690  -26.0300   22.5080 C   0  0  0  0  0  2  0  0  0  0  0  0
  -27.2200  -25.5940   21.3260 C   0  0  0  0  0  1  0  0  0  0  0  0
  -25.3730  -27.6450   22.7060 C   0  0  0  0  0  2  0  0  0  0  0  0
  -26.2940  -29.4740   21.5630 C   0  0  1  0  0  0  0  0  0  0  0  0
  -25.9760  -31.2200   21.2120 Cl  0  0  0  0  0  0  0  0  0  0  0  0
  -28.1670  -22.8110   21.4350 C   0  0  0  0  0 15  0  0  0  0  0  0
  -29.3660  -18.1450   20.5980 C   0  0  0  0  0  2  0  0  0  0  0  0
  -30.0680  -15.0670   19.5310 C   0  0  0  0  0  2  0  0  0  0  0  0
  -29.5780  -13.8770   18.4660 C   0  0  0  0  0  2  0  0  0  0  0  0
  -28.4340  -12.9820   18.9330 C   0  0  0  0  0  2  0  0  0  0  0  0
  -27.6430  -13.9060   19.8520 C   0  0  0  0  0  3  0  0  0  0  0  0
  -28.4330  -14.9590   20.8650 C   0  0  0  0  0  2  0  0  0  0  0  0
  -29.1390  -16.3410   20.2810 N   0  0  0  0  0  0  0  0  0  0  0  0
  -30.6060  -17.7100   20.4320 O   0  0  0  0  0  1  0  0  0  0  0  0
  -28.5860  -20.1780   20.9280 N   0  0  0  0  0  1  0  0  0  0  0  0
  -27.6180  -19.8900   20.9170 H   0  0  0  0  0  0  0  0  0  0  0  0
  -25.2820  -14.0660   20.5920 C   0  0  0  0  0  0  0  0  0  0  0  0
  -24.2740  -13.2190   20.9290 C   0  0  0  0  0  0  0  0  0  0  0  0
  -24.8030  -11.8940   20.8370 C   0  0  0  0  0  0  0  0  0  0  0  0
  -26.3950  -13.3020   20.3570 N   0  0  0  0  0  0  0  0  0  0  0  0
  -26.1150  -11.9570   20.5150 N   0  0  0  0  0  0  0  0  0  0  0  0
  -24.0830  -10.6050   20.9950 C   0  0  0  0  0  0  0  0  0  0  0  0
  -24.5010   -9.6050   21.9030 C   0  0  0  0  0  3  0  0  0  0  0  0
  -23.7540   -8.4130   22.0700 C   0  0  0  0  0  3  0  0  0  0  0  0
  -22.5650   -8.2030   21.3280 C   0  0  0  0  0  0  0  0  0  0  0  0
  -22.1570   -9.1900   20.4130 C   0  0  0  0  0  3  0  0  0  0  0  0
  -22.9070  -10.3700   20.2460 C   0  0  0  0  0  3  0  0  0  0  0  0
  -21.7970   -7.0640   21.3980 O   0  0  0  0  0  0  0  0  0  0  0  0
  -21.6950   -6.3240   22.5510 C   0  0  0  0  0  0  0  0  0  0  0  0
  -21.1340   -6.8580   23.7320 C   0  0  0  0  0  3  0  0  0  0  0  0
  -20.9880   -6.0460   24.8740 C   0  0  0  0  0  3  0  0  0  0  0  0
  -21.3910   -4.6980   24.8380 C   0  0  0  0  0  0  0  0  0  0  0  0
  -21.9450   -4.1620   23.6610 C   0  0  0  0  0  3  0  0  0  0  0  0
  -22.0920   -4.9720   22.5210 C   0  0  0  0  0  0  0  0  0  0  0  0
  -22.6050   -4.4390   21.3860 F   0  0  0  0  0  0  0  0  0  0  0  0
  -21.2460   -3.9170   25.9340 F   0  0  0  0  0  0  0  0  0  0  0  0
  -22.8720  -13.6540   21.2160 C   0  0  0  0  0  0  0  0  0  0  0  0
  -22.1730  -12.9390   22.0870 N   0  0  0  0  0  0  0  0  0  0  0  0
  -22.4130  -14.6810   20.7140 O   0  0  0  0  0  0  0  0  0  0  0  0
  -22.5660  -12.1170   22.5210 H   0  0  0  0  0  0  0  0  0  0  0  0
  -21.2330  -13.2200   22.3320 H   0  0  0  0  0  0  0  0  0  0  0  0
  -25.3450  -15.4460   20.4300 N   0  0  0  0  0  0  0  0  0  0  0  0
  -24.5420  -16.0560   20.5350 H   0  0  0  0  0  0  0  0  0  0  0  0
  -26.1830  -15.9230   20.1270 H   0  0  0  0  0  0  0  0  0  0  0  0
  -27.1740  -24.6780   18.2200 C   0  0  0  0  0  3  0  0  0  0  0  0
  -28.3030  -22.9570   16.5490 C   0  0  0  0  0  1  0  0  0  0  0  0
  -28.3680  -25.2920   15.7980 C   0  0  0  0  0  1  0  0  0  0  0  0
  -27.5280  -24.3180   16.6780 C   0  0  0  0  0  3  0  0  0  0  0  0
  -28.5430  -25.4430   18.9600 O   0  0  0  0  0  0  0  0  0  0  0  0
  -24.9960  -31.4310   24.3380 C   0  0  0  0  0  0  0  0  0  0  0  0
  -28.7090  -26.7910   19.3540 C   0  0  0  0  0  3  0  0  0  0  0  0
  -23.7530  -30.2110   22.2650 C   0  0  0  0  0  2  0  0  0  0  0  0
  -25.4950  -28.1780   19.9600 C   0  0  0  0  0  1  0  0  0  0  0  0
  -26.7100  -29.3720   23.2600 C   0  0  0  0  0  2  0  0  0  0  0  0
  -27.2050  -28.1870   21.7150 C   0  0  0  0  0  3  0  0  0  0  0  0
  -28.6770  -27.4170   21.1420 C   0  0  0  0  0  1  0  0  0  0  0  0
  -27.3670  -27.0340   18.2290 C   0  0  0  0  0  3  0  0  0  0  0  0
  -25.8830  -27.6720   18.5290 C   0  0  0  0  0  3  0  0  0  0  0  0
  -23.8570  -29.3420   20.3960 C   0  0  0  0  0 15  0  0  0  0  0  0
  -25.1460  -30.3470   23.4280 N   0  0  0  0  0  0  0  0  0  0  0  0
  -23.8940  -31.9400   24.6100 O   0  0  0  0  0  0  0  0  0  0  0  0
  -22.7600  -29.5400   23.1340 C   0  0  0  0  0  0  0  0  0  0  0  0
  -21.5370  -29.4020   22.6860 N   0  0  0  0  0  0  0  0  0  0  0  0
  -23.1620  -29.0090   24.1660 O   0  0  0  0  0  0  0  0  0  0  0  0
  -21.2490  -29.7920   21.7960 H   0  0  0  0  0  0  0  0  0  0  0  0
  -18.2920  -28.1690   22.4480 C   0  0  0  0  0  0  0  0  0  0  0  0
  -20.6350  -28.4830   23.3500 C   0  0  0  0  0  3  0  0  0  0  0  0
  -20.7920  -27.0400   22.8780 C   0  0  0  0  0  2  0  0  0  0  0  0
  -20.2860  -26.8790   21.4460 C   0  0  0  0  0  2  0  0  0  0  0  0
  -18.7470  -27.0210   21.5210 C   0  0  0  0  0  2  0  0  0  0  0  0
  -19.2190  -28.9340   23.1910 C   0  0  0  0  0  0  0  0  0  0  0  0
  -18.8300  -30.1010   23.8790 C   0  0  0  0  0  3  0  0  0  0  0  0
  -17.4810  -30.4710   23.8610 C   0  0  0  0  0  3  0  0  0  0  0  0
  -16.5190  -29.6620   23.1990 C   0  0  0  0  0  3  0  0  0  0  0  0
  -16.9280  -28.5170   22.5080 C   0  0  0  0  0  3  0  0  0  0  0  0
  -26.1850  -32.0810   25.1470 C   0  0  0  0  0  3  0  0  0  0  0  0
  -25.9790  -33.5570   25.3790 N   0  0  0  0  0  0  0  0  0  0  0  0
  -26.5780  -34.6130   24.7870 C   0  0  0  0  0  0  0  0  0  0  0  0
  -27.3700  -34.4820   23.8530 O   0  0  0  0  0  0  0  0  0  0  0  0
  -25.2770  -33.7670   26.0700 H   0  0  0  0  0  0  0  0  0  0  0  0
  -25.1100  -36.6690   24.4470 C   0  0  0  0  0  1  0  0  0  0  0  0
  -26.2440  -36.0510   25.2880 C   0  0  0  0  0  3  0  0  0  0  0  0
  -28.4060  -36.6820   26.3060 C   0  0  0  0  0  1  0  0  0  0  0  0
  -27.3970  -36.9870   25.2960 N   0  0  0  0  0  0  0  0  0  0  0  0
  -27.0790  -37.9420   25.4370 H   0  0  0  0  0  0  0  0  0  0  0  0
  -26.3700  -31.4220   26.5700 C   0  0  1  0  0  0  0  0  0  0  0  0
  -25.0150  -31.1020   27.2450 C   0  0  0  0  0  1  0  0  0  0  0  0
  -27.1460  -30.1080   26.6030 C   0  0  0  0  0  1  0  0  0  0  0  0
  -27.2000  -32.3480   27.4920 C   0  0  0  0  0  1  0  0  0  0  0  0
  1  3  1  0
  2  1  1  0
  4  6  1  0
  5 55  1  0
  5  2  1  0
  5  4  1  0
  6  3  1  0
  6  8  1  0
  6  7  1  6
  8 13  1  0
  9 10  1  0
  9 66  1  1
  9 65  1  0
 10 14  1  0
 10 65  1  0
 11 13  1  0
 12 11  1  0
 14 65  1  0
 14 64  1  0
 14 15  1  1
 18 23  1  0
 19 20  1  0
 19 18  1  0
 20 21  1  0
 21 30  1  0
 21 22  1  0
 23 17  1  0
 23 22  1  0
 24 17  1  0
 26 25  1  0
 27 28  2  0
 28 47  1  0
 29 28  1  0
 29 32  1  0
 30 31  1  0
 30 27  1  0
 31 29  2  0
 32 33  1  0
 33 34  2  0
 35 38  1  0
 35 34  1  0
 36 35  2  0
 37 36  1  0
 37 32  2  0
 38 39  1  0
 39 40  1  0
 40 41  2  0
 42 41  1  0
 42 46  1  0
 43 42  2  0
 44 39  2  0
 44 43  1  0
 45 44  1  0
 47 48  1  0
 48 51  1  0
 48 50  1  0
 49 47  2  0
 52 53  1  0
 52 27  1  0
 54 52  1  0
 55 59  1  0
 56 58  1  0
 57 58  1  0
 58 55  1  0
 59 61  1  0
 60 71  2  0
 60 86  1  0
 61  9  1  0
 62 72  1  0
 62 70  1  0
 64 70  1  0
 67 68  2  0
 67 61  1  0
 68 63  1  0
 70 60  1  0
 72 74  2  0
 73 72  1  0
 73 77  1  0
 75 73  1  0
 76 85  2  0
 76 81  1  0
 78 77  1  0
 79 80  1  0
 79 78  1  0
 80 76  1  0
 81 77  1  0
 81 82  2  0
 83 82  1  0
 84 83  2  0
 85 84  1  0
 86 87  1  0
 86 96  1  0
 87 90  1  0
 88 92  1  0
 88 87  1  0
 89 88  2  0
 91 92  1  0
 92 94  1  0
 94 95  1  0
 94 93  1  0
 96 98  1  6
 96 97  1  0
 96 99  1  0
M  ISO  4  17 100  25 100  55 101  59 101
M  END
>  <TORSDO>  (73) 
F 21

>  <SCORE>  (73) 
-12.743

>  <name>  (73) 
73

>  <ligand_id>  (73) 
73

>  <original_smiles>  (73) 
[H]c1c([H])c([H])c2c(c1[H])C([H])([H])C([H])([H])C([H])([H])C2([H])N([H])C(=O)C1([H])N(C(=O)C([H])(N([H])C(=O)C([H])(N([H])C([H])([H])[H])C([H])([H])[H])C(C([H])([H])[H])(C([H])([H])[H])C([H])([H])[H])C([H])([H])c2c([H])c(OC([H])(C([H])(C([H])([H])[H])C([H])([H])[H])C3([H])C([H])([H])C([H])([H])C([H])([H])[N+]([H])(C([H])([H])c4c([H])c(C([H])([H])N([H])C(=O)N5C([H])([H])C([H])([H])C([H])([H])C([H])(n6nc(-c7c([H])c([H])c(Oc8c([H])c([H])c(F)c([H])c8F)c([H])c7[H])c(C(=O)N([H])[H])c6N([H])[H])C5([H])[H])c([H])c([H])c4Cl)C3([H])[H])c([H])c([H])c2C1([H])[H]

>  <smiles>  (73) 
[H]c1c([H])c([H])c2c(c1[H])C([H])([H])C([H])([H])C([H])([H])C2([H])N([H])C(=O)C1([H])N(C(=O)C([H])(N([H])C(=O)C([H])(N([H])C([H])([H])[H])C([H])([H])[H])C(C([H])([H])[H])(C([H])([H])[H])C([H])([H])[H])C([H])([H])c2c([H])c(OC([H])(C([H])(C([H])([H])[H])C([H])([H])[H])C3([H])C([H])([H])C([H])([H])C([H])([H])[N+]([H])(C([H])([H])c4c([H])c(C([H])([H])N([H])C(=O)N5C([H])([H])C([H])([H])C([H])([H])C([H])(n6nc(-c7c([H])c([H])c(Oc8c([H])c([H])c(F)c([H])c8F)c([H])c7[H])c(C(=O)N([H])[H])c6N([H])[H])C5([H])[H])c([H])c([H])c4Cl)C3([H])[H])c([H])c([H])c2C1([H])[H]

$$$$
74:0:0
     RDKit          3D

 95104  0  0  1  0  0  0  0  0999 V2000
  -29.1210  -17.9080   16.1620 C   0  0  0  0  0  3  0  0  0  0  0  0
  -29.1920  -16.6970   16.8660 C   0  0  0  0  0  3  0  0  0  0  0  0
  -29.2910  -19.1180   16.8530 C   0  0  0  0  0  3  0  0  0  0  0  0
  -29.4660  -16.7050   18.2460 C   0  0  0  0  0  3  0  0  0  0  0  0
  -29.6300  -20.3710   18.8830 C   0  0  0  0  0  3  0  0  0  0  0  0
  -29.9750  -19.2190   20.9980 C   0  0  0  0  0  3  0  0  0  0  0  0
  -29.5440  -19.1230   18.2430 C   0  0  0  0  0  0  0  0  0  0  0  0
  -29.6740  -17.9010   18.9670 C   0  0  0  0  0  0  0  0  0  0  0  0
  -29.8090  -20.4730   20.2730 C   0  0  0  0  0  0  0  0  0  0  0  0
  -29.9510  -17.9040   20.3700 C   0  0  0  0  0  0  0  0  0  0  0  0
  -30.9160  -15.5530   21.0270 C   0  0  0  0  0  0  0  0  0  0  0  0
  -31.0230  -13.2010   20.1890 C   0  0  0  0  0  2  0  0  0  0  0  0
  -30.2480  -13.0540   18.8560 C   0  0  0  0  0  2  0  0  0  0  0  0
  -28.7280  -12.8950   19.0870 C   0  0  0  0  0  2  0  0  0  0  0  0
  -28.1540  -13.8270   20.1900 C   0  0  0  0  0  3  0  0  0  0  0  0
  -29.0630  -13.8630   21.4380 C   0  0  0  0  0  2  0  0  0  0  0  0
  -30.3990  -14.2770   20.9930 N   0  0  0  0  0  0  0  0  0  0  0  0
  -32.1170  -15.7340   20.8090 O   0  0  0  0  0  0  0  0  0  0  0  0
  -30.0290  -16.6180   21.1290 N   0  0  0  0  0  0  0  0  0  0  0  0
  -29.1460  -16.3480   21.5370 H   0  0  0  0  0  0  0  0  0  0  0  0
  -25.6700  -14.3240   20.6270 C   0  0  0  0  0  0  0  0  0  0  0  0
  -24.6020  -13.5090   20.8850 C   0  0  0  0  0  0  0  0  0  0  0  0
  -25.1230  -12.1780   20.9230 C   0  0  0  0  0  0  0  0  0  0  0  0
  -26.7720  -13.4890   20.5250 N   0  0  0  0  0  0  0  0  0  0  0  0
  -26.4400  -12.1940   20.7660 N   0  0  0  0  0  0  0  0  0  0  0  0
  -24.4340  -10.8850   21.0390 C   0  0  0  0  0  0  0  0  0  0  0  0
  -24.7840   -9.9480   22.0360 C   0  0  0  0  0  3  0  0  0  0  0  0
  -24.0930   -8.7220   22.1370 C   0  0  0  0  0  3  0  0  0  0  0  0
  -23.0370   -8.4250   21.2410 C   0  0  0  0  0  0  0  0  0  0  0  0
  -22.7110   -9.3520   20.2360 C   0  0  0  0  0  3  0  0  0  0  0  0
  -23.4020  -10.5690   20.1330 C   0  0  0  0  0  3  0  0  0  0  0  0
  -22.3270   -7.2490   21.2500 O   0  0  0  0  0  0  0  0  0  0  0  0
  -22.1290   -6.5370   22.4060 C   0  0  0  0  0  0  0  0  0  0  0  0
  -21.4830   -7.1010   23.5280 C   0  0  0  0  0  3  0  0  0  0  0  0
  -21.2420   -6.3130   24.6720 C   0  0  0  0  0  3  0  0  0  0  0  0
  -21.6310   -4.9610   24.6900 C   0  0  0  0  0  0  0  0  0  0  0  0
  -22.2660   -4.3950   23.5710 C   0  0  0  0  0  3  0  0  0  0  0  0
  -22.5120   -5.1810   22.4310 C   0  0  0  0  0  0  0  0  0  0  0  0
  -23.1080   -4.6250   21.3480 F   0  0  0  0  0  0  0  0  0  0  0  0
  -21.3910   -4.2010   25.7850 F   0  0  0  0  0  0  0  0  0  0  0  0
  -23.1630  -13.9280   20.9850 C   0  0  0  0  0  0  0  0  0  0  0  0
  -22.3640  -13.2090   21.7650 N   0  0  0  0  0  0  0  0  0  0  0  0
  -22.7490  -14.9310   20.4050 O   0  0  0  0  0  0  0  0  0  0  0  0
  -22.7040  -12.3990   22.2610 H   0  0  0  0  0  0  0  0  0  0  0  0
  -21.3970  -13.4790   21.8700 H   0  0  0  0  0  0  0  0  0  0  0  0
  -25.7970  -15.6980   20.4480 N   0  0  0  0  0  0  0  0  0  0  0  0
  -24.9930  -16.3160   20.4470 H   0  0  0  0  0  0  0  0  0  0  0  0
  -26.6510  -16.1580   20.1550 H   0  0  0  0  0  0  0  0  0  0  0  0
  -29.8730  -21.9350   20.9030 C   0  0  0  0  0  2  0  0  0  0  0  0
  -29.1650  -23.0870   20.1770 N   0  0  0  0  0  4  0  0  0  0  0  0
  -28.1760  -22.9110   20.2690 H   0  0  0  0  0  0  0  0  0  0  0  0
  -29.3850  -22.9900   19.2010 H   0  0  0  0  0  0  0  0  0  0  0  0
  -29.4440  -24.5530   20.5550 C   0  0  0  0  0  3  0  0  0  0  0  0
  -28.4420  -25.6650   19.9560 C   0  0  0  0  0  3  0  0  0  0  0  0
  -28.6150  -27.1310   20.2180 O   0  0  0  0  0  0  0  0  0  0  0  0
  -24.7710  -32.2610   23.5810 C   0  0  0  0  0  0  0  0  0  0  0  0
  -27.4790  -27.9720   20.2060 C   0  0  0  0  0  0  0  0  0  0  0  0
  -23.5870  -30.9310   21.8700 C   0  0  0  0  0  3  0  0  0  0  0  0
  -25.0660  -29.5260   20.3250 C   0  0  0  0  0  0  0  0  0  0  0  0
  -26.1160  -31.3350   21.6820 C   0  0  0  0  0  2  0  0  0  0  0  0
  -26.2280  -30.0030   20.9450 C   0  0  0  0  0  0  0  0  0  0  0  0
  -27.4330  -29.2360   20.8800 C   0  0  0  0  0  3  0  0  0  0  0  0
  -26.2930  -27.5690   19.5470 C   0  0  0  0  0  3  0  0  0  0  0  0
  -25.1030  -28.3160   19.6190 C   0  0  0  0  0  3  0  0  0  0  0  0
  -23.8050  -30.3590   20.4450 C   0  0  0  0  0  2  0  0  0  0  0  0
  -24.8430  -31.5240   22.4350 N   0  0  0  0  0  0  0  0  0  0  0  0
  -23.6870  -32.4700   24.1440 O   0  0  0  0  0  0  0  0  0  0  0  0
  -22.9710  -29.8340   22.7690 C   0  0  0  0  0  0  0  0  0  0  0  0
  -21.6590  -29.5900   22.6170 N   0  0  0  0  0  0  0  0  0  0  0  0
  -23.6740  -29.2070   23.5680 O   0  0  0  0  0  0  0  0  0  0  0  0
  -21.1470  -30.1540   21.9540 H   0  0  0  0  0  0  0  0  0  0  0  0
  -18.3640  -28.1360   22.9570 C   0  0  0  0  0  0  0  0  0  0  0  0
  -20.8850  -28.5740   23.3310 C   0  0  0  0  0  3  0  0  0  0  0  0
  -21.1130  -27.1690   22.7230 C   0  0  0  0  0  2  0  0  0  0  0  0
  -20.0750  -26.7970   21.6590 C   0  0  0  0  0  2  0  0  0  0  0  0
  -18.6650  -26.8230   22.2540 C   0  0  0  0  0  2  0  0  0  0  0  0
  -19.4070  -28.9650   23.4490 C   0  0  0  0  0  0  0  0  0  0  0  0
  -19.0760  -30.1900   24.0660 C   0  0  0  0  0  3  0  0  0  0  0  0
  -17.7330  -30.5900   24.1980 C   0  0  0  0  0  3  0  0  0  0  0  0
  -16.7030  -29.7590   23.7230 C   0  0  0  0  0  3  0  0  0  0  0  0
  -17.0190  -28.5340   23.1090 C   0  0  0  0  0  3  0  0  0  0  0  0
  -26.0430  -32.8940   24.2250 C   0  0  0  0  0  3  0  0  0  0  0  0
  -26.5680  -32.0940   25.4810 C   0  0  1  0  0  0  0  0  0  0  0  0
  -25.4750  -31.8050   26.5360 C   0  0  0  0  0  1  0  0  0  0  0  0
  -27.1800  -30.7400   25.0540 C   0  0  0  0  0  1  0  0  0  0  0  0
  -27.6980  -32.8900   26.1760 C   0  0  0  0  0  1  0  0  0  0  0  0
  -25.7120  -34.2770   24.5950 N   0  0  0  0  0  0  0  0  0  0  0  0
  -26.0510  -35.3590   23.8810 C   0  0  0  0  0  0  0  0  0  0  0  0
  -26.7440  -35.2980   22.8610 O   0  0  0  0  0  0  0  0  0  0  0  0
  -25.1020  -34.3990   25.3890 H   0  0  0  0  0  0  0  0  0  0  0  0
  -24.3210  -37.1550   23.5430 C   0  0  0  0  0  1  0  0  0  0  0  0
  -25.5400  -36.7260   24.3750 C   0  0  0  0  0  3  0  0  0  0  0  0
  -27.6430  -37.5890   25.3050 C   0  0  0  0  0  1  0  0  0  0  0  0
  -26.5670  -37.7900   24.3370 N   0  0  0  0  0  0  0  0  0  0  0  0
  -26.1480  -38.6990   24.5140 H   0  0  0  0  0  0  0  0  0  0  0  0
  1  3  2  0
  1  2  1  0
  2  4  2  0
  3  7  1  0
  4  8  1  0
  5  9  1  0
  7  5  2  0
  7  8  1  0
  8 10  2  0
  9 49  1  0
  9  6  2  0
 10  6  1  0
 10 19  1  0
 11 19  1  0
 12 17  1  0
 13 14  1  0
 13 12  1  0
 15 14  1  0
 15 24  1  0
 15 16  1  0
 17 11  1  0
 17 16  1  0
 18 11  2  0
 19 20  1  0
 21 22  2  0
 22 23  1  0
 22 41  1  0
 23 26  1  0
 24 21  1  0
 24 25  1  0
 25 23  2  0
 26 27  1  0
 27 28  2  0
 29 32  1  0
 29 28  1  0
 30 29  2  0
 31 30  1  0
 31 26  2  0
 32 33  1  0
 33 38  2  0
 33 34  1  0
 34 35  2  0
 35 36  1  0
 36 40  1  0
 37 36  2  0
 38 37  1  0
 39 38  1  0
 41 42  1  0
 42 45  1  0
 42 44  1  0
 43 41  2  0
 46 21  1  0
 47 46  1  0
 48 46  1  0
 50 51  1  0
 50 53  1  0
 50 49  1  0
 52 50  1  0
 54 55  1  0
 54 53  2  0
 56 67  2  0
 57 55  1  0
 57 62  1  0
 58 66  1  0
 58 68  1  0
 59 65  1  0
 59 61  1  0
 60 66  1  0
 61 60  1  0
 62 61  2  0
 63 64  1  0
 63 57  2  0
 64 59  2  0
 65 58  1  0
 66 56  1  0
 68 70  2  0
 69 68  1  0
 71 69  1  0
 72 81  2  0
 72 77  1  0
 73 69  1  0
 73 77  1  0
 74 73  1  0
 75 76  1  0
 75 74  1  0
 76 72  1  0
 77 78  2  0
 78 79  1  0
 80 79  2  0
 81 80  1  0
 82 56  1  0
 82 87  1  0
 82 83  1  0
 83 86  1  1
 83 84  1  0
 85 83  1  0
 87 90  1  0
 88 92  1  0
 88 87  1  0
 89 88  2  0
 92 91  1  0
 94 92  1  0
 94 95  1  0
 94 93  1  0
M  ISO  4  11 100  19 100  54 101  55 101
M  END
>  <TORSDO>  (74) 
F 20

>  <SCORE>  (74) 
-8.379

>  <name>  (74) 
74

>  <ligand_id>  (74) 
74

>  <original_smiles>  (74) 
[H]c1c([H])c([H])c2c(c1[H])C([H])([H])C([H])([H])C([H])([H])C2([H])N([H])C(=O)C1([H])N(C(=O)C([H])(N([H])C(=O)C([H])(N([H])C([H])([H])[H])C([H])([H])[H])C(C([H])([H])[H])(C([H])([H])[H])C([H])([H])[H])C([H])([H])c2c([H])c(OC([H])([H])C([H])([H])[N+]([H])([H])C([H])([H])c3c([H])c(N([H])C(=O)N4C([H])([H])C([H])([H])C([H])([H])C([H])(n5nc(-c6c([H])c([H])c(Oc7c([H])c([H])c(F)c([H])c7F)c([H])c6[H])c(C(=O)N([H])[H])c5N([H])[H])C4([H])[H])c4c([H])c([H])c([H])c([H])c4c3[H])c([H])c([H])c2C1([H])[H]

>  <smiles>  (74) 
[H]c1c([H])c([H])c2c(c1[H])C([H])([H])C([H])([H])C([H])([H])C2([H])N([H])C(=O)C1([H])N(C(=O)C([H])(N([H])C(=O)C([H])(N([H])C([H])([H])[H])C([H])([H])[H])C(C([H])([H])[H])(C([H])([H])[H])C([H])([H])[H])C([H])([H])c2c([H])c(OC([H])([H])C([H])([H])[N+]([H])([H])C([H])([H])c3c([H])c(N([H])C(=O)N4C([H])([H])C([H])([H])C([H])([H])C([H])(n5nc(-c6c([H])c([H])c(Oc7c([H])c([H])c(F)c([H])c7F)c([H])c6[H])c(C(=O)N([H])[H])c5N([H])[H])C4([H])[H])c4c([H])c([H])c([H])c([H])c4c3[H])c([H])c([H])c2C1([H])[H]

$$$$
75:0:0
     RDKit          3D

104113  0  0  1  0  0  0  0  0999 V2000
  -28.8380  -21.1010   18.2760 C   0  0  0  0  0  2  0  0  0  0  0  0
  -29.9460  -24.7430   17.7150 C   0  0  0  0  0  3  0  0  0  0  0  0
  -30.3090  -24.7040   16.3540 C   0  0  0  0  0  3  0  0  0  0  0  0
  -29.8370  -22.3160   16.2990 C   0  0  0  0  0  3  0  0  0  0  0  0
  -29.4550  -22.3490   17.6560 C   0  0  0  0  0  0  0  0  0  0  0  0
  -29.5440  -23.5620   18.3780 C   0  0  0  0  0  0  0  0  0  0  0  0
  -30.2710  -23.4870   15.6500 C   0  0  0  0  0  0  0  0  0  0  0  0
  -30.7350  -23.4270   13.9890 Cl  0  0  0  0  0  0  0  0  0  0  0  0
  -29.2500  -23.5680   19.7170 O   0  0  0  0  0  0  0  0  0  0  0  0
  -28.0950  -24.3060   20.0920 C   0  0  0  0  0  2  0  0  0  0  0  0
  -28.4480  -25.5720   20.8930 C   0  0  0  0  0  2  0  0  0  0  0  0
  -28.4130  -26.7570   20.1010 O   0  0  0  0  0  0  0  0  0  0  0  0
  -24.5860  -31.8670   23.2440 C   0  0  0  0  0  0  0  0  0  0  0  0
  -27.2270  -27.4510   20.1450 C   0  0  0  0  0  0  0  0  0  0  0  0
  -23.3740  -30.4680   21.6020 C   0  0  0  0  0  3  0  0  0  0  0  0
  -24.8240  -28.9280   20.1810 C   0  0  0  0  0  0  0  0  0  0  0  0
  -25.8980  -30.8290   21.3990 C   0  0  0  0  0  2  0  0  0  0  0  0
  -25.9810  -29.4600   20.7630 C   0  0  0  0  0  0  0  0  0  0  0  0
  -27.1880  -28.7270   20.7420 C   0  0  0  0  0  3  0  0  0  0  0  0
  -26.0520  -26.9270   19.5620 C   0  0  0  0  0  3  0  0  0  0  0  0
  -24.8510  -27.6580   19.5830 C   0  0  0  0  0  3  0  0  0  0  0  0
  -23.5780  -29.7820   20.2230 C   0  0  0  0  0  2  0  0  0  0  0  0
  -24.6380  -31.0710   22.1390 N   0  0  0  0  0  0  0  0  0  0  0  0
  -23.5060  -32.1410   23.7860 O   0  0  0  0  0  0  0  0  0  0  0  0
  -22.7270  -29.4460   22.5630 C   0  0  0  0  0  0  0  0  0  0  0  0
  -21.4010  -29.2730   22.4410 N   0  0  0  0  0  0  0  0  0  0  0  0
  -23.4110  -28.8150   23.3730 O   0  0  0  0  0  0  0  0  0  0  0  0
  -20.9160  -29.8370   21.7570 H   0  0  0  0  0  0  0  0  0  0  0  0
  -18.0170  -28.1090   22.9470 C   0  0  0  0  0  0  0  0  0  0  0  0
  -20.5780  -28.3380   23.2080 C   0  0  0  0  0  3  0  0  0  0  0  0
  -20.6630  -26.9100   22.6230 C   0  0  0  0  0  2  0  0  0  0  0  0
  -19.5510  -26.6040   21.6140 C   0  0  0  0  0  2  0  0  0  0  0  0
  -18.1750  -26.7610   22.2660 C   0  0  0  0  0  2  0  0  0  0  0  0
  -19.1460  -28.8570   23.3760 C   0  0  0  0  0  0  0  0  0  0  0  0
  -18.9430  -30.1210   23.9730 C   0  0  0  0  0  3  0  0  0  0  0  0
  -17.6450  -30.6360   24.1450 C   0  0  0  0  0  3  0  0  0  0  0  0
  -16.5300  -29.8830   23.7350 C   0  0  0  0  0  3  0  0  0  0  0  0
  -16.7180  -28.6230   23.1420 C   0  0  0  0  0  3  0  0  0  0  0  0
  -25.8750  -32.4920   23.8650 C   0  0  0  0  0  3  0  0  0  0  0  0
  -25.5730  -33.8900   24.1950 N   0  0  0  0  0  0  0  0  0  0  0  0
  -25.9060  -34.9400   23.4320 C   0  0  0  0  0  0  0  0  0  0  0  0
  -26.5740  -34.8340   22.4000 O   0  0  0  0  0  0  0  0  0  0  0  0
  -24.9810  -34.0490   24.9970 H   0  0  0  0  0  0  0  0  0  0  0  0
  -24.1810  -36.7340   23.0790 C   0  0  0  0  0  1  0  0  0  0  0  0
  -25.4230  -36.3290   23.8890 C   0  0  0  0  0  3  0  0  0  0  0  0
  -27.5640  -37.2060   24.7100 C   0  0  0  0  0  1  0  0  0  0  0  0
  -26.4570  -37.3790   23.7720 N   0  0  0  0  0  0  0  0  0  0  0  0
  -26.0550  -38.3010   23.9220 H   0  0  0  0  0  0  0  0  0  0  0  0
  -26.3970  -31.7130   25.1350 C   0  0  1  0  0  0  0  0  0  0  0  0
  -25.3080  -31.4720   26.2060 C   0  0  0  0  0  1  0  0  0  0  0  0
  -26.9750  -30.3370   24.7310 C   0  0  0  0  0  1  0  0  0  0  0  0
  -27.5560  -32.5010   25.7910 C   0  0  0  0  0  1  0  0  0  0  0  0
  -30.4760  -19.6170   19.3820 C   0  0  0  0  0  0  0  0  0  0  0  0
  -29.5170  -20.5480   19.4450 N   0  0  0  0  0  0  0  0  0  0  0  0
  -31.0550  -19.3300   18.3330 O   0  0  0  0  0  0  0  0  0  0  0  0
  -29.0960  -20.7380   20.3450 H   0  0  0  0  0  0  0  0  0  0  0  0
  -31.1130  -18.4360   22.9900 C   0  0  0  0  0  3  0  0  0  0  0  0
  -30.9340  -17.0460   22.8370 C   0  0  0  0  0  3  0  0  0  0  0  0
  -30.5490  -17.3800   20.4620 C   0  0  0  0  0  3  0  0  0  0  0  0
  -30.6810  -18.7780   20.6110 C   0  0  0  0  0  0  0  0  0  0  0  0
  -30.9920  -19.3200   21.8900 C   0  0  0  0  0  0  0  0  0  0  0  0
  -30.6610  -16.5070   21.5660 C   0  0  0  0  0  0  0  0  0  0  0  0
  -30.7980  -14.3490   20.3930 C   0  0  0  0  0  0  0  0  0  0  0  0
  -30.3630  -12.3020   19.0940 C   0  0  0  0  0  2  0  0  0  0  0  0
  -29.4060  -12.6070   17.9270 C   0  0  0  0  0  2  0  0  0  0  0  0
  -27.9410  -12.4810   18.3810 C   0  0  0  0  0  2  0  0  0  0  0  0
  -27.6540  -13.2730   19.6830 C   0  0  0  0  0  3  0  0  0  0  0  0
  -28.7190  -12.9660   20.7610 C   0  0  0  0  0  2  0  0  0  0  0  0
  -30.0590  -13.2260   20.1970 N   0  0  0  0  0  0  0  0  0  0  0  0
  -31.7890  -14.6320   19.7130 O   0  0  0  0  0  0  0  0  0  0  0  0
  -30.4280  -15.1130   21.4320 N   0  0  0  0  0  0  0  0  0  0  0  0
  -29.8010  -14.6890   22.1000 H   0  0  0  0  0  0  0  0  0  0  0  0
  -25.2610  -13.9040   20.4030 C   0  0  0  0  0  0  0  0  0  0  0  0
  -24.1920  -13.1420   20.7910 C   0  0  0  0  0  0  0  0  0  0  0  0
  -24.6440  -11.7860   20.7640 C   0  0  0  0  0  0  0  0  0  0  0  0
  -26.3000  -13.0140   20.1710 N   0  0  0  0  0  0  0  0  0  0  0  0
  -25.9290  -11.7350   20.4400 N   0  0  0  0  0  0  0  0  0  0  0  0
  -23.9110  -10.5310   20.9740 C   0  0  0  0  0  0  0  0  0  0  0  0
  -24.3490   -9.5630   21.9040 C   0  0  0  0  0  3  0  0  0  0  0  0
  -23.6160   -8.3720   22.0980 C   0  0  0  0  0  3  0  0  0  0  0  0
  -22.4280   -8.1410   21.3640 C   0  0  0  0  0  0  0  0  0  0  0  0
  -22.0090   -9.0980   20.4220 C   0  0  0  0  0  3  0  0  0  0  0  0
  -22.7430  -10.2800   20.2260 C   0  0  0  0  0  3  0  0  0  0  0  0
  -21.6640   -7.0040   21.4700 O   0  0  0  0  0  0  0  0  0  0  0  0
  -21.6330   -6.2630   22.6240 C   0  0  0  0  0  0  0  0  0  0  0  0
  -21.2540   -6.8250   23.8620 C   0  0  0  0  0  3  0  0  0  0  0  0
  -21.1700   -6.0090   25.0090 C   0  0  0  0  0  3  0  0  0  0  0  0
  -21.4550   -4.6330   24.9180 C   0  0  0  0  0  0  0  0  0  0  0  0
  -21.8260   -4.0720   23.6840 C   0  0  0  0  0  3  0  0  0  0  0  0
  -21.9120   -4.8840   22.5400 C   0  0  0  0  0  0  0  0  0  0  0  0
  -22.2500   -4.3320   21.3500 F   0  0  0  0  0  0  0  0  0  0  0  0
  -21.3660   -3.8480   26.0170 F   0  0  0  0  0  0  0  0  0  0  0  0
  -22.8010  -13.6290   21.0800 C   0  0  0  0  0  0  0  0  0  0  0  0
  -22.0800  -12.9470   21.9610 N   0  0  0  0  0  0  0  0  0  0  0  0
  -22.3630  -14.6540   20.5580 O   0  0  0  0  0  0  0  0  0  0  0  0
  -22.4410  -12.1180   22.4130 H   0  0  0  0  0  0  0  0  0  0  0  0
  -21.1470  -13.2580   22.1940 H   0  0  0  0  0  0  0  0  0  0  0  0
  -25.4300  -15.2730   20.2110 N   0  0  0  0  0  0  0  0  0  0  0  0
  -24.6660  -15.9310   20.3130 H   0  0  0  0  0  0  0  0  0  0  0  0
  -26.2840  -15.7040   19.8800 H   0  0  0  0  0  0  0  0  0  0  0  0
  -31.1770  -20.8210   22.1230 C   0  0  1  0  0  0  0  0  0  0  0  0
  -31.7370  -21.0630   23.3100 F   0  0  0  0  0  0  0  0  0  0  0  0
  -31.9650  -21.3690   21.1960 F   0  0  0  0  0  0  0  0  0  0  0  0
  -29.9880  -21.4210   22.0980 F   0  0  0  0  0  0  0  0  0  0  0  0
  1 54  1  0
  2  6  1  0
  3  2  2  0
  4  5  1  0
  5  1  1  0
  5  6  2  0
  6  9  1  0
  7  4  2  0
  7  3  1  0
  8  7  1  0
  9 10  1  0
 10 11  1  0
 12 14  1  0
 12 11  1  0
 13 24  2  0
 14 19  1  0
 15 23  1  0
 15 25  1  0
 16 22  1  0
 16 18  1  0
 17 23  1  0
 18 17  1  0
 19 18  2  0
 20 21  1  0
 20 14  2  0
 21 16  2  0
 22 15  1  0
 23 13  1  0
 25 27  2  0
 26 25  1  0
 28 26  1  0
 29 38  2  0
 29 34  1  0
 30 26  1  0
 30 34  1  0
 31 30  1  0
 32 33  1  0
 32 31  1  0
 33 29  1  0
 34 35  2  0
 35 36  1  0
 37 36  2  0
 38 37  1  0
 39 13  1  0
 39 40  1  0
 39 49  1  0
 40 43  1  0
 41 45  1  0
 41 40  1  0
 42 41  2  0
 45 44  1  0
 47 45  1  0
 47 48  1  0
 47 46  1  0
 49 52  1  1
 49 50  1  0
 51 49  1  0
 53 54  1  0
 53 60  1  0
 54 56  1  0
 55 53  2  0
 58 57  1  0
 59 60  2  0
 59 62  1  0
 60 61  1  0
 61101  1  0
 61 57  2  0
 62 58  2  0
 63 71  1  0
 64 69  1  0
 65 66  1  0
 65 64  1  0
 67 66  1  0
 67 76  1  0
 67 68  1  0
 69 63  1  0
 69 68  1  0
 70 63  2  0
 71 62  1  0
 71 72  1  0
 73 74  2  0
 74 93  1  0
 75 74  1  0
 75 78  1  0
 76 73  1  0
 76 77  1  0
 77 75  2  0
 78 79  1  0
 79 80  2  0
 81 84  1  0
 81 80  1  0
 82 81  2  0
 83 82  1  0
 83 78  2  0
 84 85  1  0
 85 86  1  0
 86 87  2  0
 88 87  1  0
 88 92  1  0
 89 88  2  0
 90 85  2  0
 90 89  1  0
 91 90  1  0
 93 94  1  0
 94 97  1  0
 94 96  1  0
 95 93  2  0
 98 99  1  0
 98 73  1  0
100 98  1  0
101102  1  1
103101  1  0
104101  1  0
M  ISO  4  11 101  12 101  63 100  71 100
M  END
>  <TORSDO>  (75) 
F 23

>  <SCORE>  (75) 
-13.098

>  <name>  (75) 
75

>  <ligand_id>  (75) 
75

>  <original_smiles>  (75) 
[H]c1c([H])c([H])c2c(c1[H])C([H])([H])C([H])([H])C([H])([H])C2([H])N([H])C(=O)C1([H])N(C(=O)C([H])(N([H])C(=O)C([H])(N([H])C([H])([H])[H])C([H])([H])[H])C(C([H])([H])[H])(C([H])([H])[H])C([H])([H])[H])C([H])([H])c2c([H])c(OC([H])([H])C([H])([H])Oc3c([H])c([H])c(Cl)c([H])c3C([H])([H])N([H])C(=O)c3c([H])c(N([H])C(=O)N4C([H])([H])C([H])([H])C([H])([H])C([H])(n5nc(-c6c([H])c([H])c(Oc7c([H])c([H])c(F)c([H])c7F)c([H])c6[H])c(C(=O)N([H])[H])c5N([H])[H])C4([H])[H])c([H])c([H])c3C(F)(F)F)c([H])c([H])c2C1([H])[H]

>  <smiles>  (75) 
[H]c1c([H])c([H])c2c(c1[H])C([H])([H])C([H])([H])C([H])([H])C2([H])N([H])C(=O)C1([H])N(C(=O)C([H])(N([H])C(=O)C([H])(N([H])C([H])([H])[H])C([H])([H])[H])C(C([H])([H])[H])(C([H])([H])[H])C([H])([H])[H])C([H])([H])c2c([H])c(OC([H])([H])C([H])([H])Oc3c([H])c([H])c(Cl)c([H])c3C([H])([H])N([H])C(=O)c3c([H])c(N([H])C(=O)N4C([H])([H])C([H])([H])C([H])([H])C([H])(n5nc(-c6c([H])c([H])c(Oc7c([H])c([H])c(F)c([H])c7F)c([H])c6[H])c(C(=O)N([H])[H])c5N([H])[H])C4([H])[H])c([H])c([H])c3C(F)(F)F)c([H])c([H])c2C1([H])[H]

$$$$
76:0:0
     RDKit          3D

106116  0  0  1  0  0  0  0  0999 V2000
  -30.7840  -24.1210   17.9000 C   0  0  0  0  0  2  0  0  0  0  0  0
  -28.7370  -25.1930   17.7340 C   0  0  0  0  0  2  0  0  0  0  0  0
  -29.7660  -23.0130   17.5870 C   0  0  0  0  0  3  0  0  0  0  0  0
  -28.3880  -23.7000   17.6840 C   0  0  0  0  0  3  0  0  0  0  0  0
  -29.9770  -25.1810   18.5050 N   0  0  0  0  0  0  0  0  0  0  0  0
  -30.5020  -19.4220   18.7310 C   0  0  0  0  0  3  0  0  0  0  0  0
  -30.3550  -20.5710   17.9310 C   0  0  0  0  0  3  0  0  0  0  0  0
  -29.8290  -20.7050   20.6840 C   0  0  0  0  0  3  0  0  0  0  0  0
  -30.2170  -19.4760   20.1110 C   0  0  0  0  0  0  0  0  0  0  0  0
  -29.9290  -21.7930   18.4940 C   0  0  0  0  0  0  0  0  0  0  0  0
  -29.6900  -21.8560   19.8880 C   0  0  0  0  0  0  0  0  0  0  0  0
  -29.3090  -23.0130   20.4800 F   0  0  0  0  0  0  0  0  0  0  0  0
  -30.7750  -14.4140   20.2020 C   0  0  0  0  0  0  0  0  0  0  0  0
  -30.3070  -12.3790   18.8810 C   0  0  0  0  0  2  0  0  0  0  0  0
  -29.2890  -12.6820   17.7640 C   0  0  0  0  0  2  0  0  0  0  0  0
  -27.8460  -12.5180   18.2790 C   0  0  0  0  0  2  0  0  0  0  0  0
  -27.6160  -13.2610   19.6190 C   0  0  0  0  0  3  0  0  0  0  0  0
  -28.7430  -12.9200   20.6310 C   0  0  0  0  0  2  0  0  0  0  0  0
  -30.0280  -13.2830   20.0140 N   0  0  0  0  0  0  0  0  0  0  0  0
  -31.8070  -14.6030   19.5490 O   0  0  0  0  0  0  0  0  0  0  0  0
  -29.1390  -17.2420   20.5080 C   0  0  0  0  0  2  0  0  0  0  0  0
  -31.6000  -17.4990   21.0300 C   0  0  0  0  0  2  0  0  0  0  0  0
  -29.1600  -15.9690   21.3640 C   0  0  0  0  0  2  0  0  0  0  0  0
  -31.5110  -16.1420   21.7840 C   0  0  0  0  0  2  0  0  0  0  0  0
  -30.2330  -18.2150   20.9690 C   0  0  0  0  0  3  0  0  0  0  0  0
  -30.4560  -15.2800   21.2080 N   0  0  0  0  0  0  0  0  0  0  0  0
  -25.2640  -13.8720   20.4780 C   0  0  0  0  0  0  0  0  0  0  0  0
  -24.2110  -13.0990   20.8860 C   0  0  0  0  0  0  0  0  0  0  0  0
  -24.6550  -11.7440   20.7800 C   0  0  0  0  0  0  0  0  0  0  0  0
  -26.2880  -12.9910   20.1630 N   0  0  0  0  0  0  0  0  0  0  0  0
  -25.9270  -11.7050   20.4000 N   0  0  0  0  0  0  0  0  0  0  0  0
  -23.9290  -10.4820   20.9660 C   0  0  0  0  0  0  0  0  0  0  0  0
  -24.3610   -9.5130   21.8980 C   0  0  0  0  0  3  0  0  0  0  0  0
  -23.6370   -8.3140   22.0730 C   0  0  0  0  0  3  0  0  0  0  0  0
  -22.4660   -8.0740   21.3140 C   0  0  0  0  0  0  0  0  0  0  0  0
  -22.0520   -9.0330   20.3720 C   0  0  0  0  0  3  0  0  0  0  0  0
  -22.7780  -10.2230   20.1950 C   0  0  0  0  0  3  0  0  0  0  0  0
  -21.7150   -6.9290   21.3980 O   0  0  0  0  0  0  0  0  0  0  0  0
  -21.6200   -6.2110   22.5640 C   0  0  0  0  0  0  0  0  0  0  0  0
  -21.1110   -6.7830   23.7510 C   0  0  0  0  0  3  0  0  0  0  0  0
  -20.9690   -5.9920   24.9090 C   0  0  0  0  0  3  0  0  0  0  0  0
  -21.3240   -4.6290   24.8780 C   0  0  0  0  0  0  0  0  0  0  0  0
  -21.8240   -4.0570   23.6950 C   0  0  0  0  0  3  0  0  0  0  0  0
  -21.9700   -4.8470   22.5410 C   0  0  0  0  0  0  0  0  0  0  0  0
  -22.4320   -4.2860   21.3970 F   0  0  0  0  0  0  0  0  0  0  0  0
  -21.1820   -3.8660   25.9860 F   0  0  0  0  0  0  0  0  0  0  0  0
  -22.8350  -13.5760   21.2540 C   0  0  0  0  0  0  0  0  0  0  0  0
  -22.1420  -12.8480   22.1230 N   0  0  0  0  0  0  0  0  0  0  0  0
  -22.3840  -14.6290   20.8070 O   0  0  0  0  0  0  0  0  0  0  0  0
  -22.5230  -11.9990   22.5140 H   0  0  0  0  0  0  0  0  0  0  0  0
  -21.2200  -13.1490   22.4050 H   0  0  0  0  0  0  0  0  0  0  0  0
  -25.4280  -15.2470   20.3350 N   0  0  0  0  0  0  0  0  0  0  0  0
  -24.6660  -15.8950   20.5070 H   0  0  0  0  0  0  0  0  0  0  0  0
  -26.2550  -15.6960   19.9670 H   0  0  0  0  0  0  0  0  0  0  0  0
  -27.4720  -23.3500   16.5820 N   0  0  0  0  0  4  0  0  0  0  0  0
  -27.8230  -23.6880   15.7040 H   0  0  0  0  0  0  0  0  0  0  0  0
  -26.5630  -23.7530   16.7350 H   0  0  0  0  0  0  0  0  0  0  0  0
  -27.3550  -22.3550   16.5230 H   0  0  0  0  0  0  0  0  0  0  0  0
  -30.6290  -26.5010   18.7150 C   0  0  0  0  0  3  0  0  0  0  0  0
  -31.9420  -26.4150   19.5280 C   0  0  0  0  0  0  0  0  0  0  0  0
  -33.0710  -26.2670   18.8440 N   0  0  0  0  0  0  0  0  0  0  0  0
  -31.9490  -26.4420   20.7580 O   0  0  0  0  0  0  0  0  0  0  0  0
  -33.0550  -26.2410   17.8340 H   0  0  0  0  0  0  0  0  0  0  0  0
  -33.9560  -26.1870   19.3260 H   0  0  0  0  0  0  0  0  0  0  0  0
  -29.6490  -27.5320   19.3310 C   0  0  0  0  0  2  0  0  0  0  0  0
  -28.8040  -26.9580   20.3370 O   0  0  0  0  0  0  0  0  0  0  0  0
  -24.7140  -31.9860   23.2990 C   0  0  0  0  0  0  0  0  0  0  0  0
  -27.5990  -27.6000   20.4050 C   0  0  0  0  0  0  0  0  0  0  0  0
  -23.6000  -30.5030   21.6580 C   0  0  0  0  0  3  0  0  0  0  0  0
  -25.1450  -28.9740   20.3280 C   0  0  0  0  0  0  0  0  0  0  0  0
  -26.1120  -30.9530   21.5190 C   0  0  0  0  0  2  0  0  0  0  0  0
  -26.2630  -29.5680   20.9330 C   0  0  0  0  0  0  0  0  0  0  0  0
  -27.4940  -28.8850   20.9750 C   0  0  0  0  0  3  0  0  0  0  0  0
  -26.4620  -26.9900   19.8370 C   0  0  0  0  0  3  0  0  0  0  0  0
  -25.2360  -27.6790   19.7830 C   0  0  0  0  0  3  0  0  0  0  0  0
  -23.8720  -29.7890   20.3050 C   0  0  0  0  0  2  0  0  0  0  0  0
  -24.8240  -31.1630   22.2180 N   0  0  0  0  0  0  0  0  0  0  0  0
  -23.6100  -32.2360   23.8010 O   0  0  0  0  0  0  0  0  0  0  0  0
  -22.9530  -29.4870   22.6270 C   0  0  0  0  0  0  0  0  0  0  0  0
  -21.6460  -29.2400   22.4490 N   0  0  0  0  0  0  0  0  0  0  0  0
  -23.6260  -28.9200   23.4900 O   0  0  0  0  0  0  0  0  0  0  0  0
  -21.1600  -29.7540   21.7260 H   0  0  0  0  0  0  0  0  0  0  0  0
  -18.3040  -27.9340   22.8510 C   0  0  0  0  0  0  0  0  0  0  0  0
  -20.8380  -28.2930   23.2150 C   0  0  0  0  0  3  0  0  0  0  0  0
  -21.0150  -26.8530   22.6810 C   0  0  0  0  0  2  0  0  0  0  0  0
  -19.9660  -26.4630   21.6350 C   0  0  0  0  0  2  0  0  0  0  0  0
  -18.5550  -26.5730   22.2230 C   0  0  0  0  0  2  0  0  0  0  0  0
  -19.3760  -28.7450   23.3050 C   0  0  0  0  0  0  0  0  0  0  0  0
  -19.0930  -30.0140   23.8520 C   0  0  0  0  0  3  0  0  0  0  0  0
  -17.7680  -30.4770   23.9460 C   0  0  0  0  0  3  0  0  0  0  0  0
  -16.7070  -29.6620   23.5140 C   0  0  0  0  0  3  0  0  0  0  0  0
  -16.9750  -28.3920   22.9730 C   0  0  0  0  0  3  0  0  0  0  0  0
  -25.9610  -32.6680   23.9420 C   0  0  0  0  0  3  0  0  0  0  0  0
  -25.5970  -34.0610   24.2360 N   0  0  0  0  0  0  0  0  0  0  0  0
  -25.9190  -35.1090   23.4660 C   0  0  0  0  0  0  0  0  0  0  0  0
  -26.6260  -35.0110   22.4590 O   0  0  0  0  0  0  0  0  0  0  0  0
  -24.9580  -34.2120   25.0020 H   0  0  0  0  0  0  0  0  0  0  0  0
  -24.1490  -36.8340   23.0160 C   0  0  0  0  0  1  0  0  0  0  0  0
  -25.3700  -36.4860   23.8800 C   0  0  0  0  0  3  0  0  0  0  0  0
  -27.4400  -37.4530   24.7800 C   0  0  0  0  0  1  0  0  0  0  0  0
  -26.3730  -37.5690   23.7890 N   0  0  0  0  0  0  0  0  0  0  0  0
  -25.9340  -38.4790   23.9020 H   0  0  0  0  0  0  0  0  0  0  0  0
  -26.4730  -31.9340   25.2420 C   0  0  1  0  0  0  0  0  0  0  0  0
  -25.3590  -31.6640   26.2790 C   0  0  0  0  0  1  0  0  0  0  0  0
  -27.1220  -30.5790   24.8790 C   0  0  0  0  0  1  0  0  0  0  0  0
  -27.5660  -32.7860   25.9320 C   0  0  0  0  0  1  0  0  0  0  0  0
  1  5  1  0
  2  5  1  0
  3  4  1  0
  3  1  1  0
  3 10  1  0
  4 55  1  0
  4  2  1  0
  5 59  1  0
  6  9  1  0
  7 10  1  0
  7  6  2  0
  9  8  2  0
 10 11  2  0
 11 12  1  0
 11  8  1  0
 13 26  1  0
 14 19  1  0
 15 16  1  0
 15 14  1  0
 17 16  1  0
 17 30  1  0
 17 18  1  0
 19 13  1  0
 19 18  1  0
 20 13  2  0
 21 25  1  0
 21 23  1  0
 22 24  1  0
 25  9  1  0
 25 22  1  0
 26 23  1  0
 26 24  1  0
 27 28  2  0
 28 47  1  0
 29 28  1  0
 29 32  1  0
 30 31  1  0
 30 27  1  0
 31 29  2  0
 32 33  1  0
 33 34  2  0
 35 38  1  0
 35 34  1  0
 36 35  2  0
 37 36  1  0
 37 32  2  0
 38 39  1  0
 39 40  1  0
 40 41  2  0
 42 41  1  0
 42 46  1  0
 43 42  2  0
 44 39  2  0
 44 43  1  0
 45 44  1  0
 47 48  1  0
 48 51  1  0
 48 50  1  0
 49 47  2  0
 52 27  1  0
 52 53  1  0
 54 52  1  0
 55 57  1  0
 56 55  1  0
 58 55  1  0
 59 65  1  0
 59 60  1  0
 60 62  2  0
 61 64  1  0
 61 60  1  0
 63 61  1  0
 65 66  1  0
 66 68  1  0
 67 78  2  0
 68 73  1  0
 69 77  1  0
 69 79  1  0
 70 72  1  0
 71 77  1  0
 72 73  2  0
 72 71  1  0
 74 68  2  0
 75 74  1  0
 75 70  2  0
 76 70  1  0
 76 69  1  0
 77 67  1  0
 79 81  2  0
 80 79  1  0
 82 80  1  0
 83 92  2  0
 83 88  1  0
 84 80  1  0
 84 88  1  0
 85 84  1  0
 86 87  1  0
 86 85  1  0
 87 83  1  0
 88 89  2  0
 89 90  1  0
 91 90  2  0
 92 91  1  0
 93 67  1  0
 93 94  1  0
 93103  1  0
 94 97  1  0
 95 99  1  0
 95 94  1  0
 96 95  2  0
 99 98  1  0
101 99  1  0
101102  1  0
101100  1  0
103106  1  1
103104  1  0
105103  1  0
M  ISO  4  13 100  26 100  65 101  66 101
M  END
>  <TORSDO>  (76) 
F 21

>  <SCORE>  (76) 
-12.774

>  <name>  (76) 
76

>  <ligand_id>  (76) 
76

>  <original_smiles>  (76) 
[H]c1c([H])c([H])c2c(c1[H])C([H])([H])C([H])([H])C([H])([H])C2([H])N([H])C(=O)C1([H])N(C(=O)C([H])(N([H])C(=O)C([H])(N([H])C([H])([H])[H])C([H])([H])[H])C(C([H])([H])[H])(C([H])([H])[H])C([H])([H])[H])C([H])([H])c2c([H])c(OC([H])([H])C([H])(C(=O)N([H])[H])N3C([H])([H])C([H])(c4c([H])c([H])c(C5([H])C([H])([H])C([H])([H])N(C(=O)N6C([H])([H])C([H])([H])C([H])([H])C([H])(n7nc(-c8c([H])c([H])c(Oc9c([H])c([H])c(F)c([H])c9F)c([H])c8[H])c(C(=O)N([H])[H])c7N([H])[H])C6([H])[H])C([H])([H])C5([H])[H])c([H])c4F)C([H])([N+]([H])([H])[H])C3([H])[H])c([H])c([H])c2C1([H])[H]

>  <smiles>  (76) 
[H]c1c([H])c([H])c2c(c1[H])C([H])([H])C([H])([H])C([H])([H])C2([H])N([H])C(=O)C1([H])N(C(=O)C([H])(N([H])C(=O)C([H])(N([H])C([H])([H])[H])C([H])([H])[H])C(C([H])([H])[H])(C([H])([H])[H])C([H])([H])[H])C([H])([H])c2c([H])c(OC([H])([H])C([H])(C(=O)N([H])[H])N3C([H])([H])C([H])(c4c([H])c([H])c(C5([H])C([H])([H])C([H])([H])N(C(=O)N6C([H])([H])C([H])([H])C([H])([H])C([H])(n7nc(-c8c([H])c([H])c(Oc9c([H])c([H])c(F)c([H])c9F)c([H])c8[H])c(C(=O)N([H])[H])c7N([H])[H])C6([H])[H])C([H])([H])C5([H])[H])c([H])c4F)C([H])([N+]([H])([H])[H])C3([H])[H])c([H])c([H])c2C1([H])[H]

$$$$
77:0:0
     RDKit          3D

112123  0  0  1  0  0  0  0  0999 V2000
  -33.2110  -26.1290   17.6540 C   0  0  0  0  0  0  0  0  0  0  0  0
  -32.7040  -25.5280   16.5610 N   0  0  0  0  0  0  0  0  0  0  0  0
  -32.5280  -26.8230   18.4180 O   0  0  0  0  0  0  0  0  0  0  0  0
  -33.4360  -25.2990   15.8960 H   0  0  0  0  0  0  0  0  0  0  0  0
  -32.0350  -20.8030   16.3700 C   0  0  0  0  0  3  0  0  0  0  0  0
  -29.7530  -23.4520   17.6470 C   0  0  0  0  0  3  0  0  0  0  0  0
  -31.4970  -19.6490   16.9700 C   0  0  0  0  0  3  0  0  0  0  0  0
  -30.4810  -24.6120   17.2900 C   0  0  0  0  0  3  0  0  0  0  0  0
  -29.7280  -20.9870   17.9650 C   0  0  0  0  0  3  0  0  0  0  0  0
  -32.1620  -23.2190   16.2230 C   0  0  0  0  0  3  0  0  0  0  0  0
  -30.3070  -22.1640   17.4170 C   0  0  0  0  0  0  0  0  0  0  0  0
  -31.4850  -22.0630   16.6450 C   0  0  0  0  0  0  0  0  0  0  0  0
  -30.3470  -19.7230   17.8050 C   0  0  0  0  0  0  0  0  0  0  0  0
  -31.7440  -24.4880   16.6610 C   0  0  0  0  0  0  0  0  0  0  0  0
  -30.6350  -14.9300   20.9850 C   0  0  0  0  0  0  0  0  0  0  0  0
  -30.5370  -12.5710   20.3160 C   0  0  0  0  0  2  0  0  0  0  0  0
  -29.7500  -12.4500   18.9980 C   0  0  0  0  0  2  0  0  0  0  0  0
  -28.2360  -12.3580   19.2590 C   0  0  0  0  0  2  0  0  0  0  0  0
  -27.7060  -13.3640   20.3130 C   0  0  0  0  0  3  0  0  0  0  0  0
  -28.6330  -13.4720   21.5380 C   0  0  0  0  0  2  0  0  0  0  0  0
  -29.9910  -13.7300   21.0350 N   0  0  0  0  0  0  0  0  0  0  0  0
  -31.8550  -15.0090   21.1320 O   0  0  0  0  0  0  0  0  0  0  0  0
  -29.6610  -18.5500   20.0400 C   0  0  0  0  0  2  0  0  0  0  0  0
  -30.5030  -17.1730   18.1210 C   0  0  0  0  0  2  0  0  0  0  0  0
  -30.2730  -17.3560   20.8580 C   0  0  0  0  0  2  0  0  0  0  0  0
  -29.9990  -15.9240   18.8660 C   0  0  0  0  0  2  0  0  0  0  0  0
  -29.7650  -18.4590   18.4950 C   0  0  0  0  0  3  0  0  0  0  0  0
  -29.9970  -15.9750   20.3580 N   0  0  0  0  0  0  0  0  0  0  0  0
  -25.2370  -13.9220   20.7540 C   0  0  0  0  0  0  0  0  0  0  0  0
  -24.1520  -13.1350   21.0180 C   0  0  0  0  0  0  0  0  0  0  0  0
  -24.6470  -11.7960   21.0890 C   0  0  0  0  0  0  0  0  0  0  0  0
  -26.3250  -13.0670   20.6750 N   0  0  0  0  0  0  0  0  0  0  0  0
  -25.9670  -11.7870   20.9420 N   0  0  0  0  0  0  0  0  0  0  0  0
  -23.9390  -10.5190   21.2220 C   0  0  0  0  0  0  0  0  0  0  0  0
  -24.3070   -9.5670   22.2000 C   0  0  0  0  0  3  0  0  0  0  0  0
  -23.5940   -8.3570   22.3290 C   0  0  0  0  0  3  0  0  0  0  0  0
  -22.4990   -8.0850   21.4750 C   0  0  0  0  0  0  0  0  0  0  0  0
  -22.1440   -9.0270   20.4910 C   0  0  0  0  0  3  0  0  0  0  0  0
  -22.8600  -10.2280   20.3620 C   0  0  0  0  0  3  0  0  0  0  0  0
  -21.7620   -6.9270   21.5140 O   0  0  0  0  0  0  0  0  0  0  0  0
  -21.6580   -6.1740   22.6560 C   0  0  0  0  0  0  0  0  0  0  0  0
  -21.1560   -6.7120   23.8610 C   0  0  0  0  0  3  0  0  0  0  0  0
  -21.0040   -5.8840   24.9910 C   0  0  0  0  0  3  0  0  0  0  0  0
  -21.3390   -4.5200   24.9150 C   0  0  0  0  0  0  0  0  0  0  0  0
  -21.8320   -3.9810   23.7130 C   0  0  0  0  0  3  0  0  0  0  0  0
  -21.9860   -4.8040   22.5850 C   0  0  0  0  0  0  0  0  0  0  0  0
  -22.4430   -4.2740   21.4260 F   0  0  0  0  0  0  0  0  0  0  0  0
  -21.1830   -3.7240   25.9980 F   0  0  0  0  0  0  0  0  0  0  0  0
  -22.7210  -13.5780   21.0970 C   0  0  0  0  0  0  0  0  0  0  0  0
  -21.9170  -12.8940   21.9000 N   0  0  0  0  0  0  0  0  0  0  0  0
  -22.3230  -14.5690   20.4820 O   0  0  0  0  0  0  0  0  0  0  0  0
  -22.2480  -12.0920   22.4170 H   0  0  0  0  0  0  0  0  0  0  0  0
  -20.9530  -13.1730   22.0010 H   0  0  0  0  0  0  0  0  0  0  0  0
  -25.3920  -15.2940   20.5560 N   0  0  0  0  0  0  0  0  0  0  0  0
  -24.6040  -15.9320   20.5640 H   0  0  0  0  0  0  0  0  0  0  0  0
  -26.2700  -15.7520   20.3510 H   0  0  0  0  0  0  0  0  0  0  0  0
  -34.5670  -24.1630   19.8620 C   0  0  0  0  0  0  0  0  0  0  0  0
  -36.6470  -27.0980   18.9210 C   0  0  0  0  0  2  0  0  0  0  0  0
  -35.5630  -27.1960   17.8480 C   0  0  0  0  0  2  0  0  0  0  0  0
  -36.3220  -25.8580   19.7590 C   0  0  0  0  0  2  0  0  0  0  0  0
  -34.7210  -25.9000   17.9280 C   0  0  0  0  0  3  0  0  0  0  0  0
  -35.1200  -25.2200   19.1930 N   0  0  0  0  0  0  0  0  0  0  0  0
  -35.1760  -23.6170   20.7870 O   0  0  0  0  0  0  0  0  0  0  0  0
  -33.1690  -23.6070   19.5550 C   0  0  0  0  0  2  0  0  0  0  0  0
  -32.6210  -22.8020   20.6810 N   0  0  0  0  0  4  0  0  0  0  0  0
  -33.0950  -23.0740   21.5300 H   0  0  0  0  0  0  0  0  0  0  0  0
  -32.8920  -21.8400   20.5220 H   0  0  0  0  0  0  0  0  0  0  0  0
  -31.1470  -22.8260   20.8750 C   0  0  0  0  0  2  0  0  0  0  0  0
  -30.5850  -24.0210   21.7100 C   0  0  0  0  0  2  0  0  0  0  0  0
  -30.1670  -25.3160   20.9370 C   0  0  0  0  0  2  0  0  0  0  0  0
  -28.6420  -25.5020   20.7140 C   0  0  0  0  0  2  0  0  0  0  0  0
  -28.4390  -26.6610   19.9000 O   0  0  0  0  0  0  0  0  0  0  0  0
  -24.5710  -31.7070   23.1110 C   0  0  0  0  0  0  0  0  0  0  0  0
  -27.2300  -27.3150   19.9980 C   0  0  0  0  0  0  0  0  0  0  0  0
  -23.3580  -30.3200   21.4490 C   0  0  0  0  0  3  0  0  0  0  0  0
  -24.8140  -28.7870   20.0310 C   0  0  0  0  0  0  0  0  0  0  0  0
  -25.8850  -30.6930   21.2580 C   0  0  0  0  0  2  0  0  0  0  0  0
  -25.9700  -29.3190   20.6190 C   0  0  0  0  0  0  0  0  0  0  0  0
  -27.1800  -28.5920   20.5960 C   0  0  0  0  0  3  0  0  0  0  0  0
  -26.0570  -26.7820   19.4200 C   0  0  0  0  0  3  0  0  0  0  0  0
  -24.8520  -27.5120   19.4340 C   0  0  0  0  0  3  0  0  0  0  0  0
  -23.5760  -29.6490   20.0650 C   0  0  0  0  0  2  0  0  0  0  0  0
  -24.6220  -30.9160   22.0020 N   0  0  0  0  0  0  0  0  0  0  0  0
  -23.4890  -31.9770   23.6510 O   0  0  0  0  0  0  0  0  0  0  0  0
  -22.7000  -29.3020   22.4040 C   0  0  0  0  0  0  0  0  0  0  0  0
  -21.3680  -29.1540   22.2940 N   0  0  0  0  0  0  0  0  0  0  0  0
  -23.3840  -28.6330   23.1830 O   0  0  0  0  0  0  0  0  0  0  0  0
  -20.8850  -29.7340   21.6280 H   0  0  0  0  0  0  0  0  0  0  0  0
  -17.9750  -28.0510   22.8440 C   0  0  0  0  0  0  0  0  0  0  0  0
  -20.5430  -28.2180   23.0580 C   0  0  0  0  0  3  0  0  0  0  0  0
  -20.5910  -26.8070   22.4320 C   0  0  0  0  0  2  0  0  0  0  0  0
  -19.4530  -26.5500   21.4380 C   0  0  0  0  0  2  0  0  0  0  0  0
  -18.0930  -26.7180   22.1240 C   0  0  0  0  0  2  0  0  0  0  0  0
  -19.1280  -28.7620   23.2680 C   0  0  0  0  0  0  0  0  0  0  0  0
  -18.9650  -30.0120   23.9020 C   0  0  0  0  0  3  0  0  0  0  0  0
  -17.6820  -30.5480   24.1200 C   0  0  0  0  0  3  0  0  0  0  0  0
  -16.5450  -29.8300   23.7130 C   0  0  0  0  0  3  0  0  0  0  0  0
  -16.6930  -28.5850   23.0780 C   0  0  0  0  0  3  0  0  0  0  0  0
  -25.8600  -32.3280   23.7420 C   0  0  0  0  0  3  0  0  0  0  0  0
  -25.5460  -33.7110   24.1140 N   0  0  0  0  0  0  0  0  0  0  0  0
  -25.8560  -34.7870   23.3830 C   0  0  0  0  0  0  0  0  0  0  0  0
  -26.5060  -34.7210   22.3320 O   0  0  0  0  0  0  0  0  0  0  0  0
  -24.9620  -33.8360   24.9270 H   0  0  0  0  0  0  0  0  0  0  0  0
  -24.1050  -36.5790   23.1150 C   0  0  0  0  0  1  0  0  0  0  0  0
  -25.3650  -36.1570   23.8890 C   0  0  0  0  0  3  0  0  0  0  0  0
  -27.5050  -37.0390   24.7050 C   0  0  0  0  0  1  0  0  0  0  0  0
  -26.3800  -37.2240   23.7930 N   0  0  0  0  0  0  0  0  0  0  0  0
  -25.9660  -38.1320   23.9740 H   0  0  0  0  0  0  0  0  0  0  0  0
  -26.3970  -31.5190   24.9850 C   0  0  1  0  0  0  0  0  0  0  0  0
  -25.3260  -31.2460   26.0610 C   0  0  0  0  0  1  0  0  0  0  0  0
  -26.9760  -30.1560   24.5360 C   0  0  0  0  0  1  0  0  0  0  0  0
  -27.5500  -32.2990   25.6550 C   0  0  0  0  0  1  0  0  0  0  0  0
  1  3  2  0
  2 14  1  0
  2  1  1  0
  4  2  1  0
  5 12  2  0
  5  7  1  0
  7 13  2  0
  8  6  2  0
 10 12  1  0
 10 14  2  0
 11  6  1  0
 11  9  2  0
 12 11  1  0
 13  9  1  0
 14  8  1  0
 15 21  1  0
 15 22  2  0
 16 21  1  0
 17 18  1  0
 17 16  1  0
 19 18  1  0
 19 32  1  0
 19 20  1  0
 21 20  1  0
 23 25  1  0
 24 27  1  0
 24 26  1  0
 26 28  1  0
 27 13  1  0
 27 23  1  0
 28 25  1  0
 28 15  1  0
 29 30  2  0
 30 31  1  0
 30 49  1  0
 31 34  1  0
 32 29  1  0
 32 33  1  0
 33 31  2  0
 34 35  1  0
 35 36  2  0
 37 40  1  0
 37 36  1  0
 38 37  2  0
 39 38  1  0
 39 34  2  0
 40 41  1  0
 41 42  1  0
 42 43  2  0
 44 43  1  0
 44 48  1  0
 45 44  2  0
 46 41  2  0
 46 45  1  0
 47 46  1  0
 49 50  1  0
 50 53  1  0
 50 52  1  0
 51 49  2  0
 54 55  1  0
 54 29  1  0
 56 54  1  0
 57 63  2  0
 58 60  1  0
 59 61  1  0
 59 58  1  0
 61  1  1  0
 61 62  1  0
 62 60  1  0
 62 57  1  0
 64 57  1  0
 64 65  1  0
 65 68  1  0
 65 66  1  0
 67 65  1  0
 68 69  1  0
 70 69  1  0
 71 70  1  0
 72 74  1  0
 72 71  1  0
 73 84  2  0
 74 79  1  0
 75 83  1  0
 75 85  1  0
 76 82  1  0
 76 78  1  0
 77 83  1  0
 78 77  1  0
 79 78  2  0
 80 81  1  0
 80 74  2  0
 81 76  2  0
 82 75  1  0
 83 73  1  0
 85 87  2  0
 86 85  1  0
 88 86  1  0
 89 98  2  0
 89 94  1  0
 90 86  1  0
 90 94  1  0
 91 90  1  0
 92 93  1  0
 92 91  1  0
 93 89  1  0
 94 95  2  0
 95 96  1  0
 97 96  2  0
 98 97  1  0
 99 73  1  0
 99100  1  0
 99109  1  0
100103  1  0
101105  1  0
101100  1  0
102101  2  0
105104  1  0
107105  1  0
107108  1  0
107106  1  0
109112  1  1
109110  1  0
111109  1  0
M  ISO  4  15 100  28 100  71 101  72 101
M  END
>  <TORSDO>  (77) 
F 24

>  <SCORE>  (77) 
-11.968

>  <name>  (77) 
77

>  <ligand_id>  (77) 
77

>  <original_smiles>  (77) 
[H]c1c([H])c([H])c2c(c1[H])C([H])([H])C([H])([H])C([H])([H])C2([H])N([H])C(=O)C1([H])N(C(=O)C([H])(N([H])C(=O)C([H])(N([H])C([H])([H])[H])C([H])([H])[H])C(C([H])([H])[H])(C([H])([H])[H])C([H])([H])[H])C([H])([H])c2c([H])c(OC([H])([H])C([H])([H])C([H])([H])C([H])([H])[N+]([H])([H])C([H])([H])C(=O)N3C([H])([H])C([H])([H])C([H])([H])C3([H])C(=O)N([H])c3c([H])c([H])c4c([H])c(C5([H])C([H])([H])C([H])([H])N(C(=O)N6C([H])([H])C([H])([H])C([H])([H])C([H])(n7nc(-c8c([H])c([H])c(Oc9c([H])c([H])c(F)c([H])c9F)c([H])c8[H])c(C(=O)N([H])[H])c7N([H])[H])C6([H])[H])C([H])([H])C5([H])[H])c([H])c([H])c4c3[H])c([H])c([H])c2C1([H])[H]

>  <smiles>  (77) 
[H]c1c([H])c([H])c2c(c1[H])C([H])([H])C([H])([H])C([H])([H])C2([H])N([H])C(=O)C1([H])N(C(=O)C([H])(N([H])C(=O)C([H])(N([H])C([H])([H])[H])C([H])([H])[H])C(C([H])([H])[H])(C([H])([H])[H])C([H])([H])[H])C([H])([H])c2c([H])c(OC([H])([H])C([H])([H])C([H])([H])C([H])([H])[N+]([H])([H])C([H])([H])C(=O)N3C([H])([H])C([H])([H])C([H])([H])C3([H])C(=O)N([H])c3c([H])c([H])c4c([H])c(C5([H])C([H])([H])C([H])([H])N(C(=O)N6C([H])([H])C([H])([H])C([H])([H])C([H])(n7nc(-c8c([H])c([H])c(Oc9c([H])c([H])c(F)c([H])c9F)c([H])c8[H])c(C(=O)N([H])[H])c7N([H])[H])C6([H])[H])C([H])([H])C5([H])[H])c([H])c([H])c4c3[H])c([H])c([H])c2C1([H])[H]

$$$$
78:0:0
     RDKit          3D

102112  0  0  1  0  0  0  0  0999 V2000
  -31.7050  -23.1100   18.9690 C   0  0  0  0  0  0  0  0  0  0  0  0
  -34.4000  -22.3050   19.7980 C   0  0  0  0  0  2  0  0  0  0  0  0
  -33.5240  -23.0660   20.7960 C   0  0  0  0  0  2  0  0  0  0  0  0
  -33.5460  -21.4110   18.8820 C   0  0  0  0  0  2  0  0  0  0  0  0
  -32.5050  -23.9100   20.0150 C   0  0  0  0  0  3  0  0  0  0  0  0
  -32.2850  -22.0190   18.4090 N   0  0  0  0  0  0  0  0  0  0  0  0
  -30.5820  -23.5170   18.6450 O   0  0  0  0  0  0  0  0  0  0  0  0
  -31.7400  -25.9900   21.1580 C   0  0  0  0  0  0  0  0  0  0  0  0
  -31.6340  -24.6800   20.9090 N   0  0  0  0  0  0  0  0  0  0  0  0
  -32.6690  -26.6740   20.7290 O   0  0  0  0  0  0  0  0  0  0  0  0
  -30.8200  -24.1920   21.2580 H   0  0  0  0  0  0  0  0  0  0  0  0
  -30.6400  -26.6490   21.9970 C   0  0  0  0  0  2  0  0  0  0  0  0
  -29.5660  -27.3350   21.1230 C   0  0  0  0  0  2  0  0  0  0  0  0
  -28.5220  -26.3530   20.5520 C   0  0  0  0  0  2  0  0  0  0  0  0
  -27.8930  -26.8500   19.3740 O   0  0  0  0  0  0  0  0  0  0  0  0
  -24.4550  -31.8280   23.1330 C   0  0  0  0  0  0  0  0  0  0  0  0
  -26.7520  -27.5840   19.5790 C   0  0  0  0  0  0  0  0  0  0  0  0
  -23.0870  -30.5610   21.5060 C   0  0  0  0  0  3  0  0  0  0  0  0
  -24.3890  -29.0900   19.8790 C   0  0  0  0  0  0  0  0  0  0  0  0
  -25.5940  -30.8910   21.1340 C   0  0  0  0  0  2  0  0  0  0  0  0
  -25.5970  -29.5670   20.4040 C   0  0  0  0  0  0  0  0  0  0  0  0
  -26.7820  -28.8190   20.2560 C   0  0  0  0  0  3  0  0  0  0  0  0
  -25.5350  -27.1090   19.0500 C   0  0  0  0  0  3  0  0  0  0  0  0
  -24.3490  -27.8540   19.2060 C   0  0  0  0  0  3  0  0  0  0  0  0
  -23.1700  -29.9610   20.0750 C   0  0  0  0  0  2  0  0  0  0  0  0
  -24.4010  -31.1050   21.9800 N   0  0  0  0  0  0  0  0  0  0  0  0
  -23.4290  -32.0870   23.7760 O   0  0  0  0  0  0  0  0  0  0  0  0
  -22.4900  -29.4920   22.4500 C   0  0  0  0  0  0  0  0  0  0  0  0
  -21.1640  -29.3090   22.3800 N   0  0  0  0  0  0  0  0  0  0  0  0
  -23.2180  -28.8330   23.2000 O   0  0  0  0  0  0  0  0  0  0  0  0
  -20.6380  -29.8970   21.7480 H   0  0  0  0  0  0  0  0  0  0  0  0
  -17.8320  -28.0310   22.9320 C   0  0  0  0  0  0  0  0  0  0  0  0
  -20.3900  -28.3320   23.1450 C   0  0  0  0  0  3  0  0  0  0  0  0
  -20.5050  -26.9210   22.5260 C   0  0  0  0  0  2  0  0  0  0  0  0
  -19.3840  -26.6050   21.5310 C   0  0  0  0  0  2  0  0  0  0  0  0
  -18.0170  -26.7050   22.2130 C   0  0  0  0  0  2  0  0  0  0  0  0
  -18.9460  -28.8030   23.3550 C   0  0  0  0  0  0  0  0  0  0  0  0
  -18.7210  -30.0440   23.9880 C   0  0  0  0  0  3  0  0  0  0  0  0
  -17.4140  -30.5200   24.1970 C   0  0  0  0  0  3  0  0  0  0  0  0
  -16.3130  -29.7470   23.7910 C   0  0  0  0  0  3  0  0  0  0  0  0
  -16.5230  -28.5040   23.1670 C   0  0  0  0  0  3  0  0  0  0  0  0
  -25.8060  -32.3880   23.6840 C   0  0  0  0  0  3  0  0  0  0  0  0
  -25.5640  -33.7680   24.1190 N   0  0  0  0  0  0  0  0  0  0  0  0
  -25.9250  -34.8600   23.4300 C   0  0  0  0  0  0  0  0  0  0  0  0
  -26.5670  -34.8060   22.3770 O   0  0  0  0  0  0  0  0  0  0  0  0
  -24.9900  -33.8880   24.9410 H   0  0  0  0  0  0  0  0  0  0  0  0
  -24.2700  -36.7400   23.2480 C   0  0  0  0  0  1  0  0  0  0  0  0
  -25.5080  -36.2270   24.0020 C   0  0  0  0  0  3  0  0  0  0  0  0
  -27.6880  -36.9550   24.8590 C   0  0  0  0  0  1  0  0  0  0  0  0
  -26.5820  -37.2400   23.9500 N   0  0  0  0  0  0  0  0  0  0  0  0
  -26.2200  -38.1630   24.1750 H   0  0  0  0  0  0  0  0  0  0  0  0
  -26.4010  -31.5250   24.8630 C   0  0  1  0  0  0  0  0  0  0  0  0
  -25.3930  -31.2630   26.0060 C   0  0  0  0  0  1  0  0  0  0  0  0
  -26.8960  -30.1570   24.3390 C   0  0  0  0  0  1  0  0  0  0  0  0
  -27.6230  -32.2480   25.4760 C   0  0  0  0  0  1  0  0  0  0  0  0
  -31.6120  -21.2610   17.3420 C   0  0  0  0  0  2  0  0  0  0  0  0
  -30.7570  -14.7810   20.7180 C   0  0  0  0  0  0  0  0  0  0  0  0
  -30.6250  -12.4570   19.9220 C   0  0  0  0  0  2  0  0  0  0  0  0
  -29.7770  -12.4130   18.6330 C   0  0  0  0  0  2  0  0  0  0  0  0
  -28.2730  -12.3150   18.9580 C   0  0  0  0  0  2  0  0  0  0  0  0
  -27.8040  -13.2850   20.0770 C   0  0  0  0  0  3  0  0  0  0  0  0
  -28.7860  -13.3100   21.2680 C   0  0  0  0  0  2  0  0  0  0  0  0
  -30.1300  -13.5750   20.7350 N   0  0  0  0  0  0  0  0  0  0  0  0
  -31.9760  -14.8970   20.5510 O   0  0  0  0  0  0  0  0  0  0  0  0
  -30.4220  -17.6190   17.2980 C   0  0  0  0  0  3  0  0  0  0  0  0
  -30.9330  -18.8590   16.8670 C   0  0  0  0  0  3  0  0  0  0  0  0
  -30.0380  -17.4930   18.6470 C   0  0  0  0  0  0  0  0  0  0  0  0
  -30.1580  -18.6010   19.4880 C   0  0  0  0  0  0  0  0  0  0  0  0
  -31.0290  -19.9220   17.7870 C   0  0  0  0  0  0  0  0  0  0  0  0
  -29.4680  -16.2060   19.2280 C   0  0  0  0  0  2  0  0  0  0  0  0
  -29.7310  -18.4220   20.9290 C   0  0  0  0  0  2  0  0  0  0  0  0
  -30.1610  -17.0390   21.4940 C   0  0  0  0  0  2  0  0  0  0  0  0
  -30.6340  -19.7970   19.0790 N   0  0  0  0  0  0  0  0  0  0  0  0
  -29.9520  -15.8730   20.5920 N   0  0  0  0  0  0  0  0  0  0  0  0
  -25.3880  -13.8920   20.7020 C   0  0  0  0  0  0  0  0  0  0  0  0
  -24.3020  -13.1140   21.0010 C   0  0  0  0  0  0  0  0  0  0  0  0
  -24.7640  -11.7630   20.9660 C   0  0  0  0  0  0  0  0  0  0  0  0
  -26.4390  -13.0100   20.5020 N   0  0  0  0  0  0  0  0  0  0  0  0
  -26.0650  -11.7260   20.7260 N   0  0  0  0  0  0  0  0  0  0  0  0
  -24.0310  -10.4990   21.0930 C   0  0  0  0  0  0  0  0  0  0  0  0
  -24.4250   -9.5070   22.0160 C   0  0  0  0  0  3  0  0  0  0  0  0
  -23.6930   -8.3050   22.1300 C   0  0  0  0  0  3  0  0  0  0  0  0
  -22.5530   -8.0890   21.3200 C   0  0  0  0  0  0  0  0  0  0  0  0
  -22.1800   -9.0700   20.3830 C   0  0  0  0  0  3  0  0  0  0  0  0
  -22.9130  -10.2630   20.2670 C   0  0  0  0  0  3  0  0  0  0  0  0
  -21.7960   -6.9430   21.3450 O   0  0  0  0  0  0  0  0  0  0  0  0
  -21.7030   -6.1660   22.4720 C   0  0  0  0  0  0  0  0  0  0  0  0
  -21.2030   -6.6750   23.6890 C   0  0  0  0  0  3  0  0  0  0  0  0
  -21.0590   -5.8230   24.8030 C   0  0  0  0  0  3  0  0  0  0  0  0
  -21.4080   -4.4630   24.6990 C   0  0  0  0  0  0  0  0  0  0  0  0
  -21.9010   -3.9530   23.4850 C   0  0  0  0  0  3  0  0  0  0  0  0
  -22.0450   -4.8020   22.3740 C   0  0  0  0  0  0  0  0  0  0  0  0
  -22.5010   -4.3010   21.1990 F   0  0  0  0  0  0  0  0  0  0  0  0
  -21.2640   -3.6420   25.7660 F   0  0  0  0  0  0  0  0  0  0  0  0
  -22.8940  -13.5870   21.2130 C   0  0  0  0  0  0  0  0  0  0  0  0
  -22.1230  -12.8710   22.0270 N   0  0  0  0  0  0  0  0  0  0  0  0
  -22.4810  -14.6220   20.6920 O   0  0  0  0  0  0  0  0  0  0  0  0
  -22.4720  -12.0330   22.4690 H   0  0  0  0  0  0  0  0  0  0  0  0
  -21.1750  -13.1640   22.2090 H   0  0  0  0  0  0  0  0  0  0  0  0
  -25.5690  -15.2650   20.5630 N   0  0  0  0  0  0  0  0  0  0  0  0
  -24.8120  -15.9320   20.6610 H   0  0  0  0  0  0  0  0  0  0  0  0
  -26.4500  -15.7010   20.3230 H   0  0  0  0  0  0  0  0  0  0  0  0
  1  5  1  0
  2  3  1  0
  4  2  1  0
  5  3  1  0
  5  9  1  0
  6  4  1  0
  6  1  1  0
  7  1  2  0
  8 12  1  0
  9  8  1  0
  9 11  1  0
 10  8  2  0
 13 12  1  0
 14 13  1  0
 15 17  1  0
 15 14  1  0
 16 27  2  0
 17 22  1  0
 18 26  1  0
 18 28  1  0
 19 25  1  0
 19 21  1  0
 20 26  1  0
 21 20  1  0
 22 21  2  0
 23 24  1  0
 23 17  2  0
 24 19  2  0
 25 18  1  0
 26 16  1  0
 28 30  2  0
 29 28  1  0
 31 29  1  0
 32 41  2  0
 32 37  1  0
 33 29  1  0
 33 37  1  0
 34 33  1  0
 35 36  1  0
 35 34  1  0
 36 32  1  0
 37 38  2  0
 38 39  1  0
 40 39  2  0
 41 40  1  0
 42 16  1  0
 42 43  1  0
 42 52  1  0
 43 46  1  0
 44 48  1  0
 44 43  1  0
 45 44  2  0
 48 47  1  0
 50 48  1  0
 50 51  1  0
 50 49  1  0
 52 55  1  1
 52 53  1  0
 54 52  1  0
 56 69  1  0
 56  6  1  0
 57 63  1  0
 58 63  1  0
 59 60  1  0
 59 58  1  0
 61 60  1  0
 61 78  1  0
 61 62  1  0
 63 62  1  0
 64 57  2  0
 65 67  1  0
 66 65  2  0
 66 69  1  0
 67 70  1  0
 67 68  2  0
 68 71  1  0
 69 73  2  0
 70 74  1  0
 71 72  1  0
 73 68  1  0
 74 57  1  0
 74 72  1  0
 75 76  2  0
 76 95  1  0
 77 76  1  0
 77 80  1  0
 78 75  1  0
 78 79  1  0
 79 77  2  0
 80 81  1  0
 81 82  2  0
 83 86  1  0
 83 82  1  0
 84 83  2  0
 85 84  1  0
 85 80  2  0
 86 87  1  0
 87 88  1  0
 88 89  2  0
 90 89  1  0
 90 94  1  0
 91 90  2  0
 92 87  2  0
 92 91  1  0
 93 92  1  0
 95 96  1  0
 96 99  1  0
 96 98  1  0
 97 95  2  0
100101  1  0
100 75  1  0
102100  1  0
M  ISO  4  14 101  15 101  57 100  74 100
M  END
>  <TORSDO>  (78) 
F 21

>  <SCORE>  (78) 
-12.353

>  <name>  (78) 
78

>  <ligand_id>  (78) 
78

>  <original_smiles>  (78) 
[H]c1c(C([H])([H])N2C(=O)C([H])(N([H])C(=O)C([H])([H])C([H])([H])C([H])([H])Oc3c([H])c([H])c4c(c3[H])C([H])([H])N(C(=O)C([H])(N([H])C(=O)C([H])(N([H])C([H])([H])[H])C([H])([H])[H])C(C([H])([H])[H])(C([H])([H])[H])C([H])([H])[H])C([H])(C(=O)N([H])C3([H])c5c([H])c([H])c([H])c([H])c5C([H])([H])C([H])([H])C3([H])[H])C4([H])[H])C([H])([H])C([H])([H])C2([H])[H])nc2c(c1[H])C([H])([H])N(C(=O)N1C([H])([H])C([H])([H])C([H])([H])C([H])(n3nc(-c4c([H])c([H])c(Oc5c([H])c([H])c(F)c([H])c5F)c([H])c4[H])c(C(=O)N([H])[H])c3N([H])[H])C1([H])[H])C([H])([H])C2([H])[H]

>  <smiles>  (78) 
[H]c1c(C([H])([H])N2C(=O)C([H])(N([H])C(=O)C([H])([H])C([H])([H])C([H])([H])Oc3c([H])c([H])c4c(c3[H])C([H])([H])N(C(=O)C([H])(N([H])C(=O)C([H])(N([H])C([H])([H])[H])C([H])([H])[H])C(C([H])([H])[H])(C([H])([H])[H])C([H])([H])[H])C([H])(C(=O)N([H])C3([H])c5c([H])c([H])c([H])c([H])c5C([H])([H])C([H])([H])C3([H])[H])C4([H])[H])C([H])([H])C([H])([H])C2([H])[H])nc2c(c1[H])C([H])([H])N(C(=O)N1C([H])([H])C([H])([H])C([H])([H])C([H])(n3nc(-c4c([H])c([H])c(Oc5c([H])c([H])c(F)c([H])c5F)c([H])c4[H])c(C(=O)N([H])[H])c3N([H])[H])C1([H])[H])C([H])([H])C2([H])[H]

$$$$
79:0:0
     RDKit          3D

 98107  0  0  1  0  0  0  0  0999 V2000
  -30.1940  -21.5180   22.3820 C   0  0  0  0  0  2  0  0  0  0  0  0
  -30.0480  -21.2620   19.9160 C   0  0  0  0  0  2  0  0  0  0  0  0
  -30.3780  -23.0360   22.1960 C   0  0  0  0  0  2  0  0  0  0  0  0
  -30.2320  -22.7780   19.7540 C   0  0  0  0  0  2  0  0  0  0  0  0
  -30.6160  -20.7990   21.1810 N   0  0  0  0  0  0  0  0  0  0  0  0
  -29.7150  -23.4970   20.9480 N   0  0  2  0  0  4  0  0  0  0  0  0
  -28.7520  -23.2150   21.0520 H   0  0  0  0  0  0  0  0  0  0  0  0
  -29.3770  -18.7350   21.5020 C   0  0  0  0  0  3  0  0  0  0  0  0
  -29.3150  -17.3330   21.5120 C   0  0  0  0  0  3  0  0  0  0  0  0
  -31.7260  -17.2370   21.1690 C   0  0  0  0  0  3  0  0  0  0  0  0
  -31.8020  -18.6480   21.1530 C   0  0  0  0  0  0  0  0  0  0  0  0
  -30.6060  -19.4010   21.2950 C   0  0  0  0  0  0  0  0  0  0  0  0
  -30.4840  -16.5800   21.3050 C   0  0  0  0  0  0  0  0  0  0  0  0
  -30.7710  -14.4190   20.2070 C   0  0  0  0  0  0  0  0  0  0  0  0
  -30.3220  -12.3960   18.8800 C   0  0  0  0  0  2  0  0  0  0  0  0
  -29.3060  -12.6950   17.7620 C   0  0  0  0  0  2  0  0  0  0  0  0
  -27.8630  -12.5410   18.2780 C   0  0  0  0  0  2  0  0  0  0  0  0
  -27.6220  -13.3060   19.6050 C   0  0  0  0  0  3  0  0  0  0  0  0
  -28.7360  -12.9880   20.6280 C   0  0  0  0  0  2  0  0  0  0  0  0
  -30.0430  -13.2910   20.0100 N   0  0  0  0  0  0  0  0  0  0  0  0
  -31.7500  -14.7230   19.5190 O   0  0  0  0  0  0  0  0  0  0  0  0
  -30.3600  -15.1730   21.2360 N   0  0  0  0  0  0  0  0  0  0  0  0
  -29.5890  -14.7690   21.7460 H   0  0  0  0  0  0  0  0  0  0  0  0
  -25.2620  -13.8900   20.4630 C   0  0  0  0  0  0  0  0  0  0  0  0
  -24.2180  -13.1050   20.8710 C   0  0  0  0  0  0  0  0  0  0  0  0
  -24.6780  -11.7560   20.7750 C   0  0  0  0  0  0  0  0  0  0  0  0
  -26.2950  -13.0190   20.1500 N   0  0  0  0  0  0  0  0  0  0  0  0
  -25.9480  -11.7280   20.3900 N   0  0  0  0  0  0  0  0  0  0  0  0
  -23.9670  -10.4860   20.9710 C   0  0  0  0  0  0  0  0  0  0  0  0
  -24.4250   -9.5180   21.8920 C   0  0  0  0  0  3  0  0  0  0  0  0
  -23.7140   -8.3130   22.0760 C   0  0  0  0  0  3  0  0  0  0  0  0
  -22.5310   -8.0660   21.3400 C   0  0  0  0  0  0  0  0  0  0  0  0
  -22.0920   -9.0230   20.4080 C   0  0  0  0  0  3  0  0  0  0  0  0
  -22.8030  -10.2200   20.2220 C   0  0  0  0  0  3  0  0  0  0  0  0
  -21.7900   -6.9130   21.4340 O   0  0  0  0  0  0  0  0  0  0  0  0
  -21.7310   -6.1890   22.5970 C   0  0  0  0  0  0  0  0  0  0  0  0
  -21.2790   -6.7580   23.8070 C   0  0  0  0  0  3  0  0  0  0  0  0
  -21.1690   -5.9580   24.9640 C   0  0  0  0  0  3  0  0  0  0  0  0
  -21.4990   -4.5920   24.9090 C   0  0  0  0  0  0  0  0  0  0  0  0
  -21.9450   -4.0220   23.7030 C   0  0  0  0  0  3  0  0  0  0  0  0
  -22.0570   -4.8170   22.5500 C   0  0  0  0  0  0  0  0  0  0  0  0
  -22.4660   -4.2590   21.3850 F   0  0  0  0  0  0  0  0  0  0  0  0
  -21.3860   -3.8210   26.0160 F   0  0  0  0  0  0  0  0  0  0  0  0
  -22.8380  -13.5680   21.2400 C   0  0  0  0  0  0  0  0  0  0  0  0
  -22.1720  -12.8540   22.1390 N   0  0  0  0  0  0  0  0  0  0  0  0
  -22.3620  -14.6000   20.7660 O   0  0  0  0  0  0  0  0  0  0  0  0
  -22.5710  -12.0180   22.5430 H   0  0  0  0  0  0  0  0  0  0  0  0
  -21.2480  -13.1450   22.4290 H   0  0  0  0  0  0  0  0  0  0  0  0
  -25.4160  -15.2660   20.3150 N   0  0  0  0  0  0  0  0  0  0  0  0
  -24.6560  -15.9170   20.4880 H   0  0  0  0  0  0  0  0  0  0  0  0
  -26.2450  -15.7140   19.9460 H   0  0  0  0  0  0  0  0  0  0  0  0
  -33.1590  -19.3290   20.9650 C   0  0  1  0  0  0  0  0  0  0  0  0
  -34.1470  -18.4420   20.8290 F   0  0  0  0  0  0  0  0  0  0  0  0
  -33.1560  -20.0950   19.8710 F   0  0  0  0  0  0  0  0  0  0  0  0
  -33.4440  -20.0890   22.0230 F   0  0  0  0  0  0  0  0  0  0  0  0
  -29.7230  -24.9720   20.7930 C   0  0  0  0  0  2  0  0  0  0  0  0
  -28.5360  -25.4710   19.9580 C   0  0  0  0  0  2  0  0  0  0  0  0
  -28.5400  -26.8880   20.0500 O   0  0  0  0  0  0  0  0  0  0  0  0
  -24.6160  -31.8470   23.2300 C   0  0  0  0  0  0  0  0  0  0  0  0
  -27.3280  -27.5320   20.0610 C   0  0  0  0  0  0  0  0  0  0  0  0
  -23.4290  -30.4630   21.5560 C   0  0  0  0  0  3  0  0  0  0  0  0
  -24.9030  -28.9720   20.1080 C   0  0  0  0  0  0  0  0  0  0  0  0
  -25.9460  -30.8670   21.3660 C   0  0  0  0  0  2  0  0  0  0  0  0
  -26.0490  -29.5110   20.7030 C   0  0  0  0  0  0  0  0  0  0  0  0
  -27.2630  -28.7990   20.6740 C   0  0  0  0  0  3  0  0  0  0  0  0
  -26.1640  -26.9950   19.4650 C   0  0  0  0  0  3  0  0  0  0  0  0
  -24.9520  -27.7110   19.4900 C   0  0  0  0  0  3  0  0  0  0  0  0
  -23.6470  -29.8100   20.1650 C   0  0  0  0  0  2  0  0  0  0  0  0
  -24.6820  -31.0730   22.1100 N   0  0  0  0  0  0  0  0  0  0  0  0
  -23.5320  -32.0930   23.7740 O   0  0  0  0  0  0  0  0  0  0  0  0
  -22.7910  -29.4150   22.4940 C   0  0  0  0  0  0  0  0  0  0  0  0
  -21.4700  -29.2180   22.3590 N   0  0  0  0  0  0  0  0  0  0  0  0
  -23.4820  -28.7800   23.2970 O   0  0  0  0  0  0  0  0  0  0  0  0
  -20.9740  -29.7830   21.6840 H   0  0  0  0  0  0  0  0  0  0  0  0
  -18.1060  -27.9910   22.8300 C   0  0  0  0  0  0  0  0  0  0  0  0
  -20.6620  -28.2560   23.1080 C   0  0  0  0  0  3  0  0  0  0  0  0
  -20.7730  -26.8400   22.4960 C   0  0  0  0  0  2  0  0  0  0  0  0
  -19.6720  -26.5370   21.4750 C   0  0  0  0  0  2  0  0  0  0  0  0
  -18.2900  -26.6590   22.1240 C   0  0  0  0  0  2  0  0  0  0  0  0
  -19.2210  -28.7480   23.2790 C   0  0  0  0  0  0  0  0  0  0  0  0
  -18.9960  -29.9970   23.8980 C   0  0  0  0  0  3  0  0  0  0  0  0
  -17.6890  -30.4890   24.0750 C   0  0  0  0  0  3  0  0  0  0  0  0
  -16.5890  -29.7280   23.6440 C   0  0  0  0  0  3  0  0  0  0  0  0
  -16.7980  -28.4800   23.0270 C   0  0  0  0  0  3  0  0  0  0  0  0
  -25.8950  -32.4790   23.8640 C   0  0  0  0  0  3  0  0  0  0  0  0
  -26.4020  -31.7070   25.1430 C   0  0  1  0  0  0  0  0  0  0  0  0
  -25.2980  -31.4580   26.1960 C   0  0  0  0  0  1  0  0  0  0  0  0
  -26.9990  -30.3360   24.7490 C   0  0  0  0  0  1  0  0  0  0  0  0
  -27.5390  -32.5050   25.8230 C   0  0  0  0  0  1  0  0  0  0  0  0
  -25.5820  -33.8770   24.1890 N   0  0  0  0  0  0  0  0  0  0  0  0
  -25.9060  -34.9260   23.4210 C   0  0  0  0  0  0  0  0  0  0  0  0
  -26.5730  -34.8190   22.3880 O   0  0  0  0  0  0  0  0  0  0  0  0
  -24.9920  -34.0330   24.9920 H   0  0  0  0  0  0  0  0  0  0  0  0
  -24.1530  -36.6930   23.0750 C   0  0  0  0  0  1  0  0  0  0  0  0
  -25.4120  -36.3130   23.8710 C   0  0  0  0  0  3  0  0  0  0  0  0
  -27.5510  -37.2280   24.6550 C   0  0  0  0  0  1  0  0  0  0  0  0
  -26.4320  -37.3760   23.7290 N   0  0  0  0  0  0  0  0  0  0  0  0
  -26.0180  -38.2930   23.8750 H   0  0  0  0  0  0  0  0  0  0  0  0
  2  5  1  0
  3  1  1  0
  4  2  1  0
  4  6  1  0
  5 12  1  0
  5  1  1  0
  6  7  1  1
  6  3  1  0
  8  9  1  0
 10 13  1  0
 11 10  2  0
 11 12  1  0
 12  8  2  0
 13  9  2  0
 14 22  1  0
 15 20  1  0
 16 17  1  0
 16 15  1  0
 18 17  1  0
 18 27  1  0
 18 19  1  0
 20 14  1  0
 20 19  1  0
 21 14  2  0
 22 13  1  0
 22 23  1  0
 24 25  2  0
 25 44  1  0
 26 25  1  0
 26 29  1  0
 27 28  1  0
 27 24  1  0
 28 26  2  0
 29 30  1  0
 30 31  2  0
 32 35  1  0
 32 31  1  0
 33 32  2  0
 34 33  1  0
 34 29  2  0
 35 36  1  0
 36 37  1  0
 37 38  2  0
 39 38  1  0
 39 43  1  0
 40 39  2  0
 41 36  2  0
 41 40  1  0
 42 41  1  0
 44 45  1  0
 45 48  1  0
 45 47  1  0
 46 44  2  0
 49 24  1  0
 49 50  1  0
 51 49  1  0
 52 11  1  0
 52 55  1  1
 53 52  1  0
 54 52  1  0
 56  6  1  0
 57 58  1  0
 57 56  1  0
 58 60  1  0
 59 70  2  0
 60 65  1  0
 61 69  1  0
 61 71  1  0
 62 68  1  0
 62 64  1  0
 63 69  1  0
 64 63  1  0
 65 64  2  0
 66 67  1  0
 66 60  2  0
 67 62  2  0
 68 61  1  0
 69 59  1  0
 71 73  2  0
 72 71  1  0
 74 72  1  0
 75 84  2  0
 75 80  1  0
 76 72  1  0
 76 80  1  0
 77 76  1  0
 78 79  1  0
 78 77  1  0
 79 75  1  0
 80 81  2  0
 81 82  1  0
 83 82  2  0
 84 83  1  0
 85 59  1  0
 85 90  1  0
 85 86  1  0
 86 89  1  1
 86 87  1  0
 88 86  1  0
 90 93  1  0
 91 95  1  0
 91 90  1  0
 92 91  2  0
 95 94  1  0
 97 95  1  0
 97 98  1  0
 97 96  1  0
M  ISO  4  14 100  22 100  57 101  58 101
M  END
>  <TORSDO>  (79) 
F 20

>  <SCORE>  (79) 
-13.512

>  <name>  (79) 
79

>  <ligand_id>  (79) 
79

>  <original_smiles>  (79) 
[H]c1c([H])c([H])c2c(c1[H])C([H])([H])C([H])([H])C([H])([H])C2([H])N([H])C(=O)C1([H])N(C(=O)C([H])(N([H])C(=O)C([H])(N([H])C([H])([H])[H])C([H])([H])[H])C(C([H])([H])[H])(C([H])([H])[H])C([H])([H])[H])C([H])([H])c2c([H])c(OC([H])([H])C([H])([H])[N+]3([H])C([H])([H])C([H])([H])N(c4c([H])c([H])c(N([H])C(=O)N5C([H])([H])C([H])([H])C([H])([H])C([H])(n6nc(-c7c([H])c([H])c(Oc8c([H])c([H])c(F)c([H])c8F)c([H])c7[H])c(C(=O)N([H])[H])c6N([H])[H])C5([H])[H])c([H])c4C(F)(F)F)C([H])([H])C3([H])[H])c([H])c([H])c2C1([H])[H]

>  <smiles>  (79) 
[H]c1c([H])c([H])c2c(c1[H])C([H])([H])C([H])([H])C([H])([H])C2([H])N([H])C(=O)C1([H])N(C(=O)C([H])(N([H])C(=O)C([H])(N([H])C([H])([H])[H])C([H])([H])[H])C(C([H])([H])[H])(C([H])([H])[H])C([H])([H])[H])C([H])([H])c2c([H])c(OC([H])([H])C([H])([H])[N+]3([H])C([H])([H])C([H])([H])N(c4c([H])c([H])c(N([H])C(=O)N5C([H])([H])C([H])([H])C([H])([H])C([H])(n6nc(-c7c([H])c([H])c(Oc8c([H])c([H])c(F)c([H])c8F)c([H])c7[H])c(C(=O)N([H])[H])c6N([H])[H])C5([H])[H])c([H])c4C(F)(F)F)C([H])([H])C3([H])[H])c([H])c([H])c2C1([H])[H]

$$$$
80:0:0
     RDKit          3D

104114  0  0  1  0  0  0  0  0999 V2000
  -30.7110  -23.0580   19.8310 N   0  0  1  0  0  4  0  0  0  0  0  0
  -30.8160  -22.8920   20.8190 H   0  0  0  0  0  0  0  0  0  0  0  0
  -29.8570  -21.9440   19.2950 C   0  0  0  0  0  2  0  0  0  0  0  0
  -29.8920  -18.1160   19.0200 C   0  0  0  0  0  3  0  0  0  0  0  0
  -29.9450  -19.4830   18.6810 C   0  0  0  0  0  3  0  0  0  0  0  0
  -30.4720  -20.0390   20.9830 C   0  0  0  0  0  3  0  0  0  0  0  0
  -30.0660  -17.6950   20.3580 C   0  0  0  0  0  0  0  0  0  0  0  0
  -30.4720  -18.6550   21.3200 C   0  0  0  0  0  0  0  0  0  0  0  0
  -30.1470  -20.4710   19.6700 C   0  0  0  0  0  0  0  0  0  0  0  0
  -30.8570  -18.2230   22.7290 C   0  0  0  0  0  2  0  0  0  0  0  0
  -29.6530  -17.8760   23.6170 C   0  0  0  0  0  2  0  0  0  0  0  0
  -29.0160  -16.5140   23.2990 C   0  0  0  0  0  2  0  0  0  0  0  0
  -28.4790  -16.3890   21.8610 C   0  0  0  0  0  2  0  0  0  0  0  0
  -29.5460  -16.2980   20.7490 C   0  0  0  0  0  3  0  0  0  0  0  0
  -30.9550  -14.3830   20.1250 C   0  0  0  0  0  0  0  0  0  0  0  0
  -30.5670  -12.2890   18.8720 C   0  0  0  0  0  2  0  0  0  0  0  0
  -29.5220  -12.5720   17.7750 C   0  0  0  0  0  2  0  0  0  0  0  0
  -28.0950  -12.3640   18.3180 C   0  0  0  0  0  2  0  0  0  0  0  0
  -27.8590  -13.1250   19.6470 C   0  0  0  0  0  3  0  0  0  0  0  0
  -29.0120  -12.8490   20.6460 C   0  0  0  0  0  2  0  0  0  0  0  0
  -30.2990  -13.1950   20.0040 N   0  0  0  0  0  0  0  0  0  0  0  0
  -31.9200  -14.7030   19.4250 O   0  0  0  0  0  0  0  0  0  0  0  0
  -30.4830  -15.2110   21.0640 N   0  0  0  0  0  0  0  0  0  0  0  0
  -30.1370  -14.6860   21.8530 H   0  0  0  0  0  0  0  0  0  0  0  0
  -25.5320  -13.6710   20.6220 C   0  0  0  0  0  0  0  0  0  0  0  0
  -24.5040  -12.8700   21.0360 C   0  0  0  0  0  0  0  0  0  0  0  0
  -24.9510  -11.5280   20.8420 C   0  0  0  0  0  0  0  0  0  0  0  0
  -26.5510  -12.8160   20.2250 N   0  0  0  0  0  0  0  0  0  0  0  0
  -26.2050  -11.5160   20.4090 N   0  0  0  0  0  0  0  0  0  0  0  0
  -24.2420  -10.2520   20.9930 C   0  0  0  0  0  0  0  0  0  0  0  0
  -24.7900   -9.1850   21.7380 C   0  0  0  0  0  3  0  0  0  0  0  0
  -24.0790   -7.9720   21.8810 C   0  0  0  0  0  3  0  0  0  0  0  0
  -22.8040   -7.8230   21.2830 C   0  0  0  0  0  0  0  0  0  0  0  0
  -22.2750   -8.8820   20.5230 C   0  0  0  0  0  3  0  0  0  0  0  0
  -22.9870  -10.0840   20.3750 C   0  0  0  0  0  3  0  0  0  0  0  0
  -22.0520   -6.6740   21.3470 O   0  0  0  0  0  0  0  0  0  0  0  0
  -22.1990   -5.7760   22.3720 C   0  0  0  0  0  0  0  0  0  0  0  0
  -22.0640   -6.1590   23.7250 C   0  0  0  0  0  3  0  0  0  0  0  0
  -22.1520   -5.1900   24.7450 C   0  0  0  0  0  3  0  0  0  0  0  0
  -22.3670   -3.8390   24.4140 C   0  0  0  0  0  0  0  0  0  0  0  0
  -22.4970   -3.4530   23.0680 C   0  0  0  0  0  3  0  0  0  0  0  0
  -22.4120   -4.4200   22.0500 C   0  0  0  0  0  0  0  0  0  0  0  0
  -22.5180   -4.0420   20.7540 F   0  0  0  0  0  0  0  0  0  0  0  0
  -22.4430   -2.9040   25.3910 F   0  0  0  0  0  0  0  0  0  0  0  0
  -23.1430  -13.3210   21.4830 C   0  0  0  0  0  0  0  0  0  0  0  0
  -22.4970  -12.5560   22.3570 N   0  0  0  0  0  0  0  0  0  0  0  0
  -22.6630  -14.3870   21.0990 O   0  0  0  0  0  0  0  0  0  0  0  0
  -22.8970  -11.6960   22.6960 H   0  0  0  0  0  0  0  0  0  0  0  0
  -21.5860  -12.8390   22.6900 H   0  0  0  0  0  0  0  0  0  0  0  0
  -25.6700  -15.0510   20.5260 N   0  0  0  0  0  0  0  0  0  0  0  0
  -24.8930  -15.6730   20.7250 H   0  0  0  0  0  0  0  0  0  0  0  0
  -26.4540  -15.5220   20.0950 H   0  0  0  0  0  0  0  0  0  0  0  0
  -32.0760  -23.1020   19.2330 C   0  0  0  0  0  2  0  0  0  0  0  0
  -33.7540  -19.6780   18.7840 C   0  0  0  0  0  3  0  0  0  0  0  0
  -34.3370  -19.4870   20.0490 C   0  0  0  0  0  3  0  0  0  0  0  0
  -33.0460  -20.8620   18.5030 C   0  0  0  0  0  3  0  0  0  0  0  0
  -33.4860  -21.6600   20.7680 C   0  0  0  0  0  3  0  0  0  0  0  0
  -34.2110  -20.4830   21.0400 C   0  0  0  0  0  0  0  0  0  0  0  0
  -32.8950  -21.8490   19.5020 C   0  0  0  0  0  0  0  0  0  0  0  0
  -34.8490  -20.2970   22.3990 C   0  0  0  0  0  1  0  0  0  0  0  0
  -30.0150  -24.3860   19.6790 C   0  0  0  0  0  2  0  0  0  0  0  0
  -30.4110  -25.5080   20.6910 C   0  0  0  0  0  2  0  0  0  0  0  0
  -29.6700  -26.8660   20.4790 C   0  0  0  0  0  2  0  0  0  0  0  0
  -28.3320  -26.5670   20.1060 O   0  0  0  0  0  0  0  0  0  0  0  0
  -24.7080  -31.8670   23.3860 C   0  0  0  0  0  0  0  0  0  0  0  0
  -27.2690  -27.4380   20.2110 C   0  0  0  0  0  0  0  0  0  0  0  0
  -23.4640  -30.5040   21.7400 C   0  0  0  0  0  3  0  0  0  0  0  0
  -24.8870  -28.9670   20.2860 C   0  0  0  0  0  0  0  0  0  0  0  0
  -25.9950  -30.8310   21.5200 C   0  0  0  0  0  2  0  0  0  0  0  0
  -26.0630  -29.4680   20.8630 C   0  0  0  0  0  0  0  0  0  0  0  0
  -27.2630  -28.7140   20.8270 C   0  0  0  0  0  3  0  0  0  0  0  0
  -26.0710  -26.9510   19.6480 C   0  0  0  0  0  3  0  0  0  0  0  0
  -24.8840  -27.7010   19.6780 C   0  0  0  0  0  3  0  0  0  0  0  0
  -23.6530  -29.8390   20.3520 C   0  0  0  0  0  2  0  0  0  0  0  0
  -24.7410  -31.0800   22.2740 N   0  0  0  0  0  0  0  0  0  0  0  0
  -23.6360  -32.1480   23.9410 O   0  0  0  0  0  0  0  0  0  0  0  0
  -22.8080  -29.4790   22.6940 C   0  0  0  0  0  0  0  0  0  0  0  0
  -21.4790  -29.3250   22.5860 N   0  0  0  0  0  0  0  0  0  0  0  0
  -23.4910  -28.8290   23.4900 O   0  0  0  0  0  0  0  0  0  0  0  0
  -20.9870  -29.9000   21.9150 H   0  0  0  0  0  0  0  0  0  0  0  0
  -18.0920  -28.1730   23.1100 C   0  0  0  0  0  0  0  0  0  0  0  0
  -20.6570  -28.3920   23.3560 C   0  0  0  0  0  3  0  0  0  0  0  0
  -20.7320  -26.9650   22.7650 C   0  0  0  0  0  2  0  0  0  0  0  0
  -19.6150  -26.6680   21.7590 C   0  0  0  0  0  2  0  0  0  0  0  0
  -18.2410  -26.8280   22.4200 C   0  0  0  0  0  2  0  0  0  0  0  0
  -19.2270  -28.9130   23.5360 C   0  0  0  0  0  0  0  0  0  0  0  0
  -19.0340  -30.1750   24.1410 C   0  0  0  0  0  3  0  0  0  0  0  0
  -17.7400  -30.6940   24.3260 C   0  0  0  0  0  3  0  0  0  0  0  0
  -16.6200  -29.9500   23.9180 C   0  0  0  0  0  3  0  0  0  0  0  0
  -16.7960  -28.6920   23.3140 C   0  0  0  0  0  3  0  0  0  0  0  0
  -26.0110  -32.4720   23.9980 C   0  0  0  0  0  3  0  0  0  0  0  0
  -25.7140  -33.8550   24.3910 N   0  0  0  0  0  0  0  0  0  0  0  0
  -26.0240  -34.9360   23.6630 C   0  0  0  0  0  0  0  0  0  0  0  0
  -26.6650  -34.8720   22.6100 O   0  0  0  0  0  0  0  0  0  0  0  0
  -25.1440  -33.9780   25.2150 H   0  0  0  0  0  0  0  0  0  0  0  0
  -24.2820  -36.7340   23.4300 C   0  0  0  0  0  1  0  0  0  0  0  0
  -25.5490  -36.3050   24.1860 C   0  0  0  0  0  3  0  0  0  0  0  0
  -27.7160  -37.1570   24.9680 C   0  0  0  0  0  1  0  0  0  0  0  0
  -26.5750  -37.3650   24.0790 N   0  0  0  0  0  0  0  0  0  0  0  0
  -26.1740  -38.2760   24.2840 H   0  0  0  0  0  0  0  0  0  0  0  0
  -26.5620  -31.6470   25.2250 C   0  0  1  0  0  0  0  0  0  0  0  0
  -25.5000  -31.3710   26.3150 C   0  0  0  0  0  1  0  0  0  0  0  0
  -27.1270  -30.2840   24.7610 C   0  0  0  0  0  1  0  0  0  0  0  0
  -27.7360  -32.4090   25.8840 C   0  0  0  0  0  1  0  0  0  0  0  0
  1  2  1  1
  3  9  1  0
  3  1  1  0
  4  7  1  0
  5  4  2  0
  5  9  1  0
  6  8  1  0
  7 14  1  0
  7  8  2  0
  8 10  1  0
  9  6  2  0
 10 11  1  0
 12 11  1  0
 13 12  1  0
 14 23  1  0
 14 13  1  0
 15 23  1  0
 16 21  1  0
 17 18  1  0
 17 16  1  0
 19 18  1  0
 19 28  1  0
 19 20  1  0
 21 15  1  0
 21 20  1  0
 22 15  2  0
 23 24  1  0
 25 26  2  0
 26 45  1  0
 27 30  1  0
 27 26  1  0
 28 29  1  0
 28 25  1  0
 29 27  2  0
 30 31  1  0
 31 32  2  0
 33 36  1  0
 33 32  1  0
 34 33  2  0
 35 34  1  0
 35 30  2  0
 36 37  1  0
 37 38  1  0
 38 39  2  0
 40 39  1  0
 40 44  1  0
 41 40  2  0
 42 37  2  0
 42 41  1  0
 43 42  1  0
 45 46  1  0
 46 49  1  0
 46 48  1  0
 47 45  2  0
 50 25  1  0
 50 51  1  0
 52 50  1  0
 53 59  1  0
 53  1  1  0
 54 55  1  0
 55 58  2  0
 56 54  2  0
 56 59  1  0
 57 58  1  0
 58 60  1  0
 59 57  2  0
 61  1  1  0
 61 62  1  0
 63 62  1  0
 64 66  1  0
 64 63  1  0
 65 76  2  0
 66 71  1  0
 67 75  1  0
 67 77  1  0
 68 74  1  0
 68 70  1  0
 69 75  1  0
 70 69  1  0
 71 70  2  0
 72 73  1  0
 72 66  2  0
 73 68  2  0
 74 67  1  0
 75 65  1  0
 77 79  2  0
 78 77  1  0
 80 78  1  0
 81 90  2  0
 81 86  1  0
 82 78  1  0
 82 86  1  0
 83 82  1  0
 84 85  1  0
 84 83  1  0
 85 81  1  0
 86 87  2  0
 87 88  1  0
 89 88  2  0
 90 89  1  0
 91 65  1  0
 91 92  1  0
 91101  1  0
 92 95  1  0
 93 97  1  0
 93 92  1  0
 94 93  2  0
 97 96  1  0
 99 97  1  0
 99100  1  0
 99 98  1  0
101104  1  1
101102  1  0
103101  1  0
M  ISO  4  15 100  23 100  63 101  64 101
M  END
>  <TORSDO>  (80) 
F 23

>  <SCORE>  (80) 
-3.326

>  <name>  (80) 
80

>  <ligand_id>  (80) 
80

>  <original_smiles>  (80) 
[H]c1c([H])c([H])c2c(c1[H])C([H])([H])C([H])([H])C([H])([H])C2([H])N([H])C(=O)C1([H])N(C(=O)C([H])(N([H])C(=O)C([H])(N([H])C([H])([H])[H])C([H])([H])[H])C(C([H])([H])[H])(C([H])([H])[H])C([H])([H])[H])C([H])([H])c2c([H])c(OC([H])([H])C([H])([H])C([H])([H])[N+]([H])(C([H])([H])c3c([H])c([H])c([H])c(C([H])([H])[H])c3[H])C([H])([H])c3c([H])c([H])c4c(c3[H])C([H])([H])C([H])([H])C([H])([H])C([H])([H])C4([H])N([H])C(=O)N3C([H])([H])C([H])([H])C([H])([H])C([H])(n4nc(-c5c([H])c([H])c(Oc6c([H])c([H])c(F)c([H])c6F)c([H])c5[H])c(C(=O)N([H])[H])c4N([H])[H])C3([H])[H])c([H])c([H])c2C1([H])[H]

>  <smiles>  (80) 
[H]c1c([H])c([H])c2c(c1[H])C([H])([H])C([H])([H])C([H])([H])C2([H])N([H])C(=O)C1([H])N(C(=O)C([H])(N([H])C(=O)C([H])(N([H])C([H])([H])[H])C([H])([H])[H])C(C([H])([H])[H])(C([H])([H])[H])C([H])([H])[H])C([H])([H])c2c([H])c(OC([H])([H])C([H])([H])C([H])([H])[N+]([H])(C([H])([H])c3c([H])c([H])c([H])c(C([H])([H])[H])c3[H])C([H])([H])c3c([H])c([H])c4c(c3[H])C([H])([H])C([H])([H])C([H])([H])C([H])([H])C4([H])N([H])C(=O)N3C([H])([H])C([H])([H])C([H])([H])C([H])(n4nc(-c5c([H])c([H])c(Oc6c([H])c([H])c(F)c([H])c6F)c([H])c5[H])c(C(=O)N([H])[H])c4N([H])[H])C3([H])[H])c([H])c([H])c2C1([H])[H]

$$$$
82:0:0
     RDKit          3D

101110  0  0  1  0  0  0  0  0999 V2000
  -30.2060  -20.9990   17.7730 C   0  0  0  0  0  3  0  0  0  0  0  0
  -30.4450  -19.6270   17.9620 C   0  0  0  0  0  3  0  0  0  0  0  0
  -30.0230  -21.8440   18.8800 C   0  0  0  0  0  3  0  0  0  0  0  0
  -30.3010  -19.9300   20.3640 C   0  0  0  0  0  3  0  0  0  0  0  0
  -30.5100  -19.0600   19.2580 C   0  0  0  0  0  0  0  0  0  0  0  0
  -30.0730  -21.3270   20.1920 C   0  0  0  0  0  0  0  0  0  0  0  0
  -30.9000  -21.8170   22.3760 C   0  0  0  0  0  1  0  0  0  0  0  0
  -29.9540  -22.1750   21.3190 N   0  0  0  0  0  0  0  0  0  0  0  0
  -29.7330  -23.6260   21.1560 C   0  0  0  0  0  2  0  0  0  0  0  0
  -28.3150  -24.0190   20.6880 C   0  0  0  0  0  2  0  0  0  0  0  0
  -27.8760  -25.4390   21.1290 C   0  0  0  0  0  2  0  0  0  0  0  0
  -27.9920  -26.4640   20.1270 O   0  0  0  0  0  0  0  0  0  0  0  0
  -24.4910  -31.8500   23.1850 C   0  0  0  0  0  0  0  0  0  0  0  0
  -26.8880  -27.2840   20.1010 C   0  0  0  0  0  0  0  0  0  0  0  0
  -23.1880  -30.4670   21.5970 C   0  0  0  0  0  3  0  0  0  0  0  0
  -24.5490  -28.8590   20.1540 C   0  0  0  0  0  0  0  0  0  0  0  0
  -25.7150  -30.7380   21.3210 C   0  0  0  0  0  2  0  0  0  0  0  0
  -25.7400  -29.3570   20.7010 C   0  0  0  0  0  0  0  0  0  0  0  0
  -26.9170  -28.5750   20.6740 C   0  0  0  0  0  3  0  0  0  0  0  0
  -25.6860  -26.7970   19.5500 C   0  0  0  0  0  3  0  0  0  0  0  0
  -24.5150  -27.5770   19.5780 C   0  0  0  0  0  3  0  0  0  0  0  0
  -23.3350  -29.7590   20.2230 C   0  0  0  0  0  2  0  0  0  0  0  0
  -24.4850  -31.0340   22.0920 N   0  0  0  0  0  0  0  0  0  0  0  0
  -23.4370  -32.1680   23.7520 O   0  0  0  0  0  0  0  0  0  0  0  0
  -22.5320  -29.4850   22.5940 C   0  0  0  0  0  0  0  0  0  0  0  0
  -21.2110  -29.2840   22.4550 N   0  0  0  0  0  0  0  0  0  0  0  0
  -23.2080  -28.9030   23.4470 O   0  0  0  0  0  0  0  0  0  0  0  0
  -20.7270  -29.8080   21.7390 H   0  0  0  0  0  0  0  0  0  0  0  0
  -17.8530  -28.0400   22.9110 C   0  0  0  0  0  0  0  0  0  0  0  0
  -20.3910  -28.3740   23.2530 C   0  0  0  0  0  3  0  0  0  0  0  0
  -20.5450  -26.9140   22.7680 C   0  0  0  0  0  2  0  0  0  0  0  0
  -19.4860  -26.5060   21.7390 C   0  0  0  0  0  2  0  0  0  0  0  0
  -18.0810  -26.6570   22.3260 C   0  0  0  0  0  2  0  0  0  0  0  0
  -18.9380  -28.8530   23.3330 C   0  0  0  0  0  0  0  0  0  0  0  0
  -18.6720  -30.1440   23.8360 C   0  0  0  0  0  3  0  0  0  0  0  0
  -17.3510  -30.6230   23.9260 C   0  0  0  0  0  3  0  0  0  0  0  0
  -16.2790  -29.8080   23.5230 C   0  0  0  0  0  3  0  0  0  0  0  0
  -16.5310  -28.5200   23.0210 C   0  0  0  0  0  3  0  0  0  0  0  0
  -25.8180  -32.4430   23.7560 C   0  0  0  0  0  3  0  0  0  0  0  0
  -25.5520  -33.8360   24.1410 N   0  0  0  0  0  0  0  0  0  0  0  0
  -25.8670  -34.9020   23.3940 C   0  0  0  0  0  0  0  0  0  0  0  0
  -26.4840  -34.8160   22.3280 O   0  0  0  0  0  0  0  0  0  0  0  0
  -25.0080  -33.9790   24.9790 H   0  0  0  0  0  0  0  0  0  0  0  0
  -24.1610  -36.7320   23.1610 C   0  0  0  0  0  1  0  0  0  0  0  0
  -25.4270  -36.2850   23.9110 C   0  0  0  0  0  3  0  0  0  0  0  0
  -27.6080  -37.1080   24.6830 C   0  0  0  0  0  1  0  0  0  0  0  0
  -26.4740  -37.3220   23.7870 N   0  0  0  0  0  0  0  0  0  0  0  0
  -26.0920  -38.2450   23.9740 H   0  0  0  0  0  0  0  0  0  0  0  0
  -26.3900  -31.6250   24.9790 C   0  0  1  0  0  0  0  0  0  0  0  0
  -25.3530  -31.3700   26.0960 C   0  0  0  0  0  1  0  0  0  0  0  0
  -26.9320  -30.2550   24.5110 C   0  0  0  0  0  1  0  0  0  0  0  0
  -27.5840  -32.3840   25.6060 C   0  0  0  0  0  1  0  0  0  0  0  0
  -30.7530  -17.5360   19.4310 C   0  0  0  0  0  3  0  0  0  0  0  0
  -32.2580  -16.8820   17.5220 C   0  0  0  0  0  0  0  0  0  0  0  0
  -32.0250  -17.1160   18.8230 N   0  0  0  0  0  0  0  0  0  0  0  0
  -31.3520  -16.7740   16.6950 O   0  0  0  0  0  0  0  0  0  0  0  0
  -32.8300  -17.1580   19.4320 H   0  0  0  0  0  0  0  0  0  0  0  0
  -34.5780  -17.9710   15.0500 C   0  0  0  0  0  2  0  0  0  0  0  0
  -34.9900  -16.5070   14.9770 C   0  0  0  0  0  2  0  0  0  0  0  0
  -34.2220  -18.1910   16.5240 C   0  0  0  0  0  2  0  0  0  0  0  0
  -34.0420  -15.8120   15.9540 C   0  0  0  0  0  2  0  0  0  0  0  0
  -33.7390  -16.8300   17.0800 C   0  0  0  0  0  3  0  0  0  0  0  0
  -30.6930  -17.0210   20.9010 C   0  0  0  0  0  2  0  0  0  0  0  0
  -31.0750  -14.5540   20.5770 C   0  0  0  0  0  0  0  0  0  0  0  0
  -30.7340  -12.4570   19.3420 C   0  0  0  0  0  2  0  0  0  0  0  0
  -29.8330  -12.7860   18.1360 C   0  0  0  0  0  2  0  0  0  0  0  0
  -28.3420  -12.6960   18.5160 C   0  0  0  0  0  2  0  0  0  0  0  0
  -28.0070  -13.4640   19.8230 C   0  0  0  0  0  3  0  0  0  0  0  0
  -29.0290  -13.1310   20.9340 C   0  0  0  0  0  2  0  0  0  0  0  0
  -30.3790  -13.4000   20.4100 N   0  0  0  0  0  0  0  0  0  0  0  0
  -32.2340  -14.7110   20.1870 O   0  0  0  0  0  0  0  0  0  0  0  0
  -30.3360  -15.5940   20.9940 N   0  0  0  0  0  0  0  0  0  0  0  0
  -29.3890  -15.3830   21.2690 H   0  0  0  0  0  0  0  0  0  0  0  0
  -25.5950  -14.1140   20.4420 C   0  0  0  0  0  0  0  0  0  0  0  0
  -24.5040  -13.3610   20.7880 C   0  0  0  0  0  0  0  0  0  0  0  0
  -24.9470  -12.0040   20.7930 C   0  0  0  0  0  0  0  0  0  0  0  0
  -26.6350  -13.2150   20.2580 N   0  0  0  0  0  0  0  0  0  0  0  0
  -26.2460  -11.9430   20.5280 N   0  0  0  0  0  0  0  0  0  0  0  0
  -24.1980  -10.7540   20.9750 C   0  0  0  0  0  0  0  0  0  0  0  0
  -24.6070   -9.7780   21.9110 C   0  0  0  0  0  3  0  0  0  0  0  0
  -23.8610   -8.5920   22.0810 C   0  0  0  0  0  3  0  0  0  0  0  0
  -22.6910   -8.3740   21.3150 C   0  0  0  0  0  0  0  0  0  0  0  0
  -22.3000   -9.3380   20.3690 C   0  0  0  0  0  3  0  0  0  0  0  0
  -23.0480  -10.5150   20.1970 C   0  0  0  0  0  3  0  0  0  0  0  0
  -21.9180   -7.2410   21.3950 O   0  0  0  0  0  0  0  0  0  0  0  0
  -21.7870   -6.5400   22.5660 C   0  0  0  0  0  0  0  0  0  0  0  0
  -21.3150   -7.1470   23.7510 C   0  0  0  0  0  3  0  0  0  0  0  0
  -21.1300   -6.3730   24.9140 C   0  0  0  0  0  3  0  0  0  0  0  0
  -21.4070   -4.9920   24.8920 C   0  0  0  0  0  0  0  0  0  0  0  0
  -21.8710   -4.3850   23.7130 C   0  0  0  0  0  3  0  0  0  0  0  0
  -22.0580   -5.1570   22.5530 C   0  0  0  0  0  0  0  0  0  0  0  0
  -22.4870   -4.5610   21.4130 F   0  0  0  0  0  0  0  0  0  0  0  0
  -21.2210   -4.2470   26.0070 F   0  0  0  0  0  0  0  0  0  0  0  0
  -23.1040  -13.8620   21.0070 C   0  0  0  0  0  0  0  0  0  0  0  0
  -22.3520  -13.2160   21.8910 N   0  0  0  0  0  0  0  0  0  0  0  0
  -22.6850  -14.8600   20.4240 O   0  0  0  0  0  0  0  0  0  0  0  0
  -22.7010  -12.4090   22.3850 H   0  0  0  0  0  0  0  0  0  0  0  0
  -21.4130  -13.5380   22.0800 H   0  0  0  0  0  0  0  0  0  0  0  0
  -25.7860  -15.4790   20.2460 N   0  0  0  0  0  0  0  0  0  0  0  0
  -25.0140  -16.1360   20.2880 H   0  0  0  0  0  0  0  0  0  0  0  0
  -26.6250  -15.8760   19.8410 H   0  0  0  0  0  0  0  0  0  0  0  0
  1  2  2  0
  1  3  1  0
  2  5  1  0
  3  6  2  0
  5 53  1  0
  5  4  2  0
  6  4  1  0
  6  8  1  0
  8  7  1  0
  9  8  1  0
 10 11  1  0
 10  9  1  0
 12 11  1  0
 13 24  2  0
 14 12  1  0
 14 19  1  0
 15 23  1  0
 15 25  1  0
 16 22  1  0
 16 18  1  0
 17 23  1  0
 18 17  1  0
 19 18  2  0
 20 21  1  0
 20 14  2  0
 21 16  2  0
 22 15  1  0
 23 13  1  0
 25 27  2  0
 26 25  1  0
 28 26  1  0
 29 38  2  0
 29 34  1  0
 30 26  1  0
 30 34  1  0
 31 30  1  0
 32 33  1  0
 32 31  1  0
 33 29  1  0
 34 35  2  0
 35 36  1  0
 37 36  2  0
 38 37  1  0
 39 13  1  0
 39 40  1  0
 39 49  1  0
 40 43  1  0
 41 45  1  0
 41 40  1  0
 42 41  2  0
 45 44  1  0
 47 45  1  0
 47 48  1  0
 47 46  1  0
 49 52  1  1
 49 50  1  0
 51 49  1  0
 53 63  1  0
 54 55  1  0
 55 53  1  0
 55 57  1  0
 56 54  2  0
 58 60  1  0
 59 58  1  0
 59 61  1  0
 60 62  1  0
 61 62  1  0
 62 54  1  0
 63 72  1  0
 64 72  1  0
 65 70  1  0
 66 67  1  0
 66 65  1  0
 68 67  1  0
 68 77  1  0
 68 69  1  0
 70 64  1  0
 70 69  1  0
 71 64  2  0
 72 73  1  0
 74 75  2  0
 75 76  1  0
 75 94  1  0
 76 79  1  0
 77 74  1  0
 77 78  1  0
 78 76  2  0
 79 80  1  0
 80 81  2  0
 82 85  1  0
 82 81  1  0
 83 82  2  0
 84 83  1  0
 84 79  2  0
 85 86  1  0
 86 87  1  0
 87 88  2  0
 89 88  1  0
 89 93  1  0
 90 89  2  0
 91 86  2  0
 91 90  1  0
 92 91  1  0
 94 95  1  0
 95 98  1  0
 95 97  1  0
 96 94  2  0
 99100  1  0
 99 74  1  0
101 99  1  0
M  ISO  4  11 101  12 101  64 100  72 100
M  END
>  <TORSDO>  (81) 
F 24

>  <SCORE>  (81) 
-12.439

>  <name>  (81) 
82

>  <ligand_id>  (81) 
82

>  <original_smiles>  (81) 
[H]c1c([H])c([H])c2c(c1[H])C([H])([H])C([H])([H])C([H])([H])C2([H])N([H])C(=O)C1([H])N(C(=O)C([H])(N([H])C(=O)C([H])(N([H])C([H])([H])[H])C([H])([H])[H])C(C([H])([H])[H])(C([H])([H])[H])C([H])([H])[H])C([H])([H])c2c([H])c(OC([H])([H])C([H])([H])C([H])([H])N(c3c([H])c([H])c([H])c(C([H])(N([H])C(=O)C4([H])C([H])([H])C([H])([H])C([H])([H])C4([H])[H])C([H])([H])N([H])C(=O)N4C([H])([H])C([H])([H])C([H])([H])C([H])(n5nc(-c6c([H])c([H])c(Oc7c([H])c([H])c(F)c([H])c7F)c([H])c6[H])c(C(=O)N([H])[H])c5N([H])[H])C4([H])[H])c3[H])C([H])([H])[H])c([H])c([H])c2C1([H])[H]

>  <smiles>  (81) 
[H]c1c([H])c([H])c2c(c1[H])C([H])([H])C([H])([H])C([H])([H])C2([H])N([H])C(=O)C1([H])N(C(=O)C([H])(N([H])C(=O)C([H])(N([H])C([H])([H])[H])C([H])([H])[H])C(C([H])([H])[H])(C([H])([H])[H])C([H])([H])[H])C([H])([H])c2c([H])c(OC([H])([H])C([H])([H])C([H])([H])N(c3c([H])c([H])c([H])c(C([H])(N([H])C(=O)C4([H])C([H])([H])C([H])([H])C([H])([H])C4([H])[H])C([H])([H])N([H])C(=O)N4C([H])([H])C([H])([H])C([H])([H])C([H])(n5nc(-c6c([H])c([H])c(Oc7c([H])c([H])c(F)c([H])c7F)c([H])c6[H])c(C(=O)N([H])[H])c5N([H])[H])C4([H])[H])c3[H])C([H])([H])[H])c([H])c([H])c2C1([H])[H]

$$$$
83:0:0
     RDKit          3D

 94103  0  0  1  0  0  0  0  0999 V2000
  -29.1930  -23.1880   20.4900 C   0  0  0  0  0  0  0  0  0  0  0  0
  -26.9090  -23.6870   20.9900 C   0  0  0  0  0  2  0  0  0  0  0  0
  -27.1640  -22.1740   20.9380 C   0  0  0  0  0  2  0  0  0  0  0  0
  -28.1700  -24.3290   20.3900 C   0  0  0  0  0  3  0  0  0  0  0  0
  -28.6130  -22.0270   20.8590 N   0  0  0  0  0  0  0  0  0  0  0  0
  -30.3890  -23.3450   20.2170 O   0  0  0  0  0  0  0  0  0  0  0  0
  -29.2860  -18.3660   20.3220 C   0  0  0  0  0  3  0  0  0  0  0  0
  -28.7160  -19.6530   20.2310 C   0  0  0  0  0  3  0  0  0  0  0  0
  -30.9310  -19.2200   21.8900 C   0  0  0  0  0  3  0  0  0  0  0  0
  -30.4090  -18.1350   21.1530 C   0  0  0  0  0  0  0  0  0  0  0  0
  -29.2460  -20.7450   20.9620 C   0  0  0  0  0  0  0  0  0  0  0  0
  -30.3580  -20.5090   21.8150 C   0  0  0  0  0  0  0  0  0  0  0  0
  -31.0070  -21.7420   22.8410 Cl  0  0  0  0  0  0  0  0  0  0  0  0
  -31.0890  -16.7610   21.2820 C   0  0  0  0  0  2  0  0  0  0  0  0
  -31.0400  -14.5210   20.1290 C   0  0  0  0  0  0  0  0  0  0  0  0
  -30.6420  -12.3760   18.9740 C   0  0  0  0  0  2  0  0  0  0  0  0
  -29.6450  -12.5670   17.8150 C   0  0  0  0  0  2  0  0  0  0  0  0
  -28.1940  -12.4420   18.3200 C   0  0  0  0  0  2  0  0  0  0  0  0
  -27.9220  -13.3040   19.5810 C   0  0  0  0  0  3  0  0  0  0  0  0
  -29.0240  -13.0890   20.6410 C   0  0  0  0  0  2  0  0  0  0  0  0
  -30.3250  -13.3710   20.0080 N   0  0  0  0  0  0  0  0  0  0  0  0
  -32.1160  -14.7050   19.5520 O   0  0  0  0  0  0  0  0  0  0  0  0
  -30.4730  -15.4900   20.8710 N   0  0  0  0  0  0  0  0  0  0  0  0
  -29.5770  -15.2700   21.2800 H   0  0  0  0  0  0  0  0  0  0  0  0
  -25.5810  -13.9500   20.4340 C   0  0  0  0  0  0  0  0  0  0  0  0
  -24.5160  -13.1930   20.8420 C   0  0  0  0  0  0  0  0  0  0  0  0
  -24.9410  -11.8320   20.7540 C   0  0  0  0  0  0  0  0  0  0  0  0
  -26.5900  -13.0500   20.1250 N   0  0  0  0  0  0  0  0  0  0  0  0
  -26.2120  -11.7700   20.3760 N   0  0  0  0  0  0  0  0  0  0  0  0
  -24.1970  -10.5810   20.9550 C   0  0  0  0  0  0  0  0  0  0  0  0
  -24.6290   -9.6050   21.8800 C   0  0  0  0  0  3  0  0  0  0  0  0
  -23.8860   -8.4200   22.0690 C   0  0  0  0  0  3  0  0  0  0  0  0
  -22.6980   -8.2020   21.3310 C   0  0  0  0  0  0  0  0  0  0  0  0
  -22.2860   -9.1660   20.3950 C   0  0  0  0  0  3  0  0  0  0  0  0
  -23.0290  -10.3430   20.2040 C   0  0  0  0  0  3  0  0  0  0  0  0
  -21.9270   -7.0690   21.4290 O   0  0  0  0  0  0  0  0  0  0  0  0
  -21.8430   -6.3530   22.5950 C   0  0  0  0  0  0  0  0  0  0  0  0
  -21.3670   -6.9330   23.7920 C   0  0  0  0  0  3  0  0  0  0  0  0
  -21.2330   -6.1430   24.9520 C   0  0  0  0  0  3  0  0  0  0  0  0
  -21.5630   -4.7740   24.9160 C   0  0  0  0  0  0  0  0  0  0  0  0
  -22.0310   -4.1950   23.7230 C   0  0  0  0  0  3  0  0  0  0  0  0
  -22.1680   -4.9820   22.5660 C   0  0  0  0  0  0  0  0  0  0  0  0
  -22.6010   -4.4130   21.4140 F   0  0  0  0  0  0  0  0  0  0  0  0
  -21.4260   -4.0140   26.0260 F   0  0  0  0  0  0  0  0  0  0  0  0
  -23.1460  -13.6940   21.2020 C   0  0  0  0  0  0  0  0  0  0  0  0
  -22.4490  -12.9920   22.0890 N   0  0  0  0  0  0  0  0  0  0  0  0
  -22.7050  -14.7410   20.7310 O   0  0  0  0  0  0  0  0  0  0  0  0
  -22.8200  -12.1440   22.4910 H   0  0  0  0  0  0  0  0  0  0  0  0
  -21.5330  -13.3080   22.3710 H   0  0  0  0  0  0  0  0  0  0  0  0
  -25.7720  -15.3190   20.2830 N   0  0  0  0  0  0  0  0  0  0  0  0
  -25.0340  -15.9930   20.4570 H   0  0  0  0  0  0  0  0  0  0  0  0
  -26.6230  -15.7440   19.9380 H   0  0  0  0  0  0  0  0  0  0  0  0
  -28.6000  -25.6750   21.0470 C   0  0  0  0  0  2  0  0  0  0  0  0
  -28.5310  -26.8040   20.1640 O   0  0  0  0  0  0  0  0  0  0  0  0
  -24.6050  -31.9140   23.2110 C   0  0  0  0  0  0  0  0  0  0  0  0
  -27.3480  -27.5070   20.1850 C   0  0  0  0  0  0  0  0  0  0  0  0
  -23.4370  -30.4920   21.5550 C   0  0  0  0  0  3  0  0  0  0  0  0
  -24.9310  -28.9680   20.1570 C   0  0  0  0  0  0  0  0  0  0  0  0
  -25.9590  -30.8870   21.3870 C   0  0  0  0  0  2  0  0  0  0  0  0
  -26.0720  -29.5140   20.7580 C   0  0  0  0  0  0  0  0  0  0  0  0
  -27.2860  -28.7910   20.7690 C   0  0  0  0  0  3  0  0  0  0  0  0
  -26.1970  -26.9690   19.5780 C   0  0  0  0  0  3  0  0  0  0  0  0
  -24.9880  -27.6930   19.5640 C   0  0  0  0  0  3  0  0  0  0  0  0
  -23.6740  -29.8080   20.1820 C   0  0  0  0  0  2  0  0  0  0  0  0
  -24.6840  -31.1130   22.1110 N   0  0  0  0  0  0  0  0  0  0  0  0
  -23.5140  -32.1720   23.7380 O   0  0  0  0  0  0  0  0  0  0  0  0
  -22.7870  -29.4670   22.5120 C   0  0  0  0  0  0  0  0  0  0  0  0
  -21.4630  -29.2840   22.3820 N   0  0  0  0  0  0  0  0  0  0  0  0
  -23.4700  -28.8390   23.3250 O   0  0  0  0  0  0  0  0  0  0  0  0
  -20.9720  -29.8390   21.6950 H   0  0  0  0  0  0  0  0  0  0  0  0
  -18.0890  -28.0990   22.8820 C   0  0  0  0  0  0  0  0  0  0  0  0
  -20.6480  -28.3390   23.1450 C   0  0  0  0  0  3  0  0  0  0  0  0
  -20.7420  -26.9170   22.5500 C   0  0  0  0  0  2  0  0  0  0  0  0
  -19.6340  -26.6130   21.5360 C   0  0  0  0  0  2  0  0  0  0  0  0
  -18.2560  -26.7580   22.1880 C   0  0  0  0  0  2  0  0  0  0  0  0
  -19.2140  -28.8490   23.3170 C   0  0  0  0  0  0  0  0  0  0  0  0
  -19.0050  -30.1060   23.9240 C   0  0  0  0  0  3  0  0  0  0  0  0
  -17.7050  -30.6140   24.1010 C   0  0  0  0  0  3  0  0  0  0  0  0
  -16.5940  -29.8590   23.6860 C   0  0  0  0  0  3  0  0  0  0  0  0
  -16.7870  -28.6040   23.0820 C   0  0  0  0  0  3  0  0  0  0  0  0
  -25.8760  -32.5620   23.8460 C   0  0  0  0  0  3  0  0  0  0  0  0
  -26.3920  -31.7950   25.1260 C   0  0  1  0  0  0  0  0  0  0  0  0
  -25.2910  -31.5350   26.1800 C   0  0  0  0  0  1  0  0  0  0  0  0
  -27.0020  -30.4300   24.7340 C   0  0  0  0  0  1  0  0  0  0  0  0
  -27.5220  -32.6070   25.8030 C   0  0  0  0  0  1  0  0  0  0  0  0
  -25.5460  -33.9560   24.1720 N   0  0  0  0  0  0  0  0  0  0  0  0
  -25.8690  -35.0100   23.4120 C   0  0  0  0  0  0  0  0  0  0  0  0
  -26.5480  -34.9140   22.3850 O   0  0  0  0  0  0  0  0  0  0  0  0
  -24.9430  -34.1030   24.9670 H   0  0  0  0  0  0  0  0  0  0  0  0
  -24.1210  -36.7780   23.0370 C   0  0  0  0  0  1  0  0  0  0  0  0
  -25.3590  -36.3910   23.8630 C   0  0  0  0  0  3  0  0  0  0  0  0
  -27.4680  -37.3110   24.7190 C   0  0  0  0  0  1  0  0  0  0  0  0
  -26.3780  -37.4580   23.7590 N   0  0  0  0  0  0  0  0  0  0  0  0
  -25.9580  -38.3740   23.8930 H   0  0  0  0  0  0  0  0  0  0  0  0
  1  5  1  0
  3  2  1  0
  4  1  1  0
  4  2  1  0
  4 53  1  0
  5  3  1  0
  5 11  1  0
  6  1  2  0
  7 10  1  0
  8  7  2  0
  8 11  1  0
 10 14  1  0
 10  9  2  0
 11 12  2  0
 12  9  1  0
 12 13  1  0
 15 23  1  0
 16 21  1  0
 17 18  1  0
 17 16  1  0
 19 18  1  0
 19 28  1  0
 19 20  1  0
 21 15  1  0
 21 20  1  0
 22 15  2  0
 23 24  1  0
 23 14  1  0
 25 26  2  0
 26 45  1  0
 27 26  1  0
 27 30  1  0
 28 29  1  0
 28 25  1  0
 29 27  2  0
 30 31  1  0
 31 32  2  0
 33 36  1  0
 33 32  1  0
 34 33  2  0
 35 34  1  0
 35 30  2  0
 36 37  1  0
 37 38  1  0
 38 39  2  0
 40 39  1  0
 40 44  1  0
 41 40  2  0
 42 37  2  0
 42 41  1  0
 43 42  1  0
 45 46  1  0
 46 49  1  0
 46 48  1  0
 47 45  2  0
 50 25  1  0
 50 51  1  0
 52 50  1  0
 54 56  1  0
 54 53  1  0
 55 66  2  0
 56 61  1  0
 57 65  1  0
 57 67  1  0
 58 64  1  0
 58 60  1  0
 59 65  1  0
 60 61  2  0
 60 59  1  0
 62 56  2  0
 63 62  1  0
 63 58  2  0
 64 57  1  0
 65 55  1  0
 67 69  2  0
 68 67  1  0
 70 68  1  0
 71 80  2  0
 71 76  1  0
 72 68  1  0
 72 76  1  0
 73 72  1  0
 74 75  1  0
 74 73  1  0
 75 71  1  0
 76 77  2  0
 77 78  1  0
 79 78  2  0
 80 79  1  0
 81 55  1  0
 81 86  1  0
 81 82  1  0
 82 85  1  1
 82 83  1  0
 84 82  1  0
 86 89  1  0
 87 91  1  0
 87 86  1  0
 88 87  2  0
 91 90  1  0
 93 91  1  0
 93 94  1  0
 93 92  1  0
M  ISO  4  15 100  23 100  53 101  54 101
M  END
>  <TORSDO>  (82) 
F 19

>  <SCORE>  (82) 
-14.491

>  <name>  (82) 
83

>  <ligand_id>  (82) 
83

>  <original_smiles>  (82) 
[H]c1c([H])c([H])c2c(c1[H])C([H])([H])C([H])([H])C([H])([H])C2([H])N([H])C(=O)C1([H])N(C(=O)C([H])(N([H])C(=O)C([H])(N([H])C([H])([H])[H])C([H])([H])[H])C(C([H])([H])[H])(C([H])([H])[H])C([H])([H])[H])C([H])([H])c2c([H])c(OC([H])([H])C3([H])C(=O)N(c4c([H])c([H])c(C([H])([H])N([H])C(=O)N5C([H])([H])C([H])([H])C([H])([H])C([H])(n6nc(-c7c([H])c([H])c(Oc8c([H])c([H])c(F)c([H])c8F)c([H])c7[H])c(C(=O)N([H])[H])c6N([H])[H])C5([H])[H])c([H])c4Cl)C([H])([H])C3([H])[H])c([H])c([H])c2C1([H])[H]

>  <smiles>  (82) 
[H]c1c([H])c([H])c2c(c1[H])C([H])([H])C([H])([H])C([H])([H])C2([H])N([H])C(=O)C1([H])N(C(=O)C([H])(N([H])C(=O)C([H])(N([H])C([H])([H])[H])C([H])([H])[H])C(C([H])([H])[H])(C([H])([H])[H])C([H])([H])[H])C([H])([H])c2c([H])c(OC([H])([H])C3([H])C(=O)N(c4c([H])c([H])c(C([H])([H])N([H])C(=O)N5C([H])([H])C([H])([H])C([H])([H])C([H])(n6nc(-c7c([H])c([H])c(Oc8c([H])c([H])c(F)c([H])c8F)c([H])c7[H])c(C(=O)N([H])[H])c6N([H])[H])C5([H])[H])c([H])c4Cl)C([H])([H])C3([H])[H])c([H])c([H])c2C1([H])[H]

$$$$
85:0:0
     RDKit          3D

108118  0  0  1  0  0  0  0  0999 V2000
  -30.1330  -18.0970   23.8060 C   0  0  0  0  0  3  0  0  0  0  0  0
  -30.4580  -16.8500   23.2490 C   0  0  0  0  0  3  0  0  0  0  0  0
  -32.2120  -17.9050   21.9340 C   0  0  0  0  0  3  0  0  0  0  0  0
  -32.2150  -21.5520   22.7810 C   0  0  0  0  0  3  0  0  0  0  0  0
  -31.8940  -19.1630   22.5050 C   0  0  0  0  0  0  0  0  0  0  0  0
  -32.6050  -20.3450   22.1720 C   0  0  0  0  0  0  0  0  0  0  0  0
  -30.8320  -19.2640   23.4480 C   0  0  0  0  0  0  0  0  0  0  0  0
  -31.4960  -16.7440   22.3040 C   0  0  0  0  0  0  0  0  0  0  0  0
  -31.1380  -21.5510   23.6730 C   0  0  0  0  0  0  0  0  0  0  0  0
  -30.4720  -20.4350   24.0100 N   0  0  0  0  0  0  0  0  0  0  0  0
  -30.6740  -22.7740   24.1780 N   0  0  0  0  0  0  0  0  0  0  0  0
  -32.5510  -15.0080   20.8020 C   0  0  0  0  0  0  0  0  0  0  0  0
  -33.3360  -12.9740   19.6310 C   0  0  0  0  0  2  0  0  0  0  0  0
  -32.4080  -12.5820   18.4650 C   0  0  0  0  0  2  0  0  0  0  0  0
  -31.2300  -11.7220   18.9610 C   0  0  0  0  0  2  0  0  0  0  0  0
  -30.5150  -12.3480   20.1870 C   0  0  0  0  0  3  0  0  0  0  0  0
  -31.5480  -12.7400   21.2650 C   0  0  0  0  0  2  0  0  0  0  0  0
  -32.5330  -13.6580   20.6560 N   0  0  0  0  0  0  0  0  0  0  0  0
  -33.2450  -15.7530   20.0980 O   0  0  0  0  0  0  0  0  0  0  0  0
  -31.7770  -15.4420   21.8110 N   0  0  0  0  0  0  0  0  0  0  0  0
  -31.2770  -14.6930   22.2660 H   0  0  0  0  0  0  0  0  0  0  0  0
  -28.1420  -11.6850   20.9380 C   0  0  0  0  0  0  0  0  0  0  0  0
  -27.6260  -10.5020   21.3960 C   0  0  0  0  0  0  0  0  0  0  0  0
  -28.7180   -9.5820   21.4300 C   0  0  0  0  0  0  0  0  0  0  0  0
  -29.4930  -11.4540   20.7250 N   0  0  0  0  0  0  0  0  0  0  0  0
  -29.8440  -10.1900   21.0760 N   0  0  0  0  0  0  0  0  0  0  0  0
  -28.7500   -8.1440   21.7250 C   0  0  0  0  0  0  0  0  0  0  0  0
  -29.6480   -7.6040   22.6720 C   0  0  0  0  0  3  0  0  0  0  0  0
  -29.6470   -6.2210   22.9490 C   0  0  0  0  0  3  0  0  0  0  0  0
  -28.7400   -5.3630   22.2830 C   0  0  0  0  0  0  0  0  0  0  0  0
  -27.8640   -5.9030   21.3250 C   0  0  0  0  0  3  0  0  0  0  0  0
  -27.8690   -7.2810   21.0460 C   0  0  0  0  0  3  0  0  0  0  0  0
  -28.6850   -4.0040   22.4710 O   0  0  0  0  0  0  0  0  0  0  0  0
  -29.0880   -3.4220   23.6470 C   0  0  0  0  0  0  0  0  0  0  0  0
  -28.5370   -3.7980   24.8910 C   0  0  0  0  0  3  0  0  0  0  0  0
  -28.9300   -3.1260   26.0660 C   0  0  0  0  0  3  0  0  0  0  0  0
  -29.8630   -2.0750   25.9980 C   0  0  0  0  0  0  0  0  0  0  0  0
  -30.4080   -1.6960   24.7590 C   0  0  0  0  0  3  0  0  0  0  0  0
  -30.0190   -2.3660   23.5860 C   0  0  0  0  0  0  0  0  0  0  0  0
  -30.5320   -1.9830   22.3920 F   0  0  0  0  0  0  0  0  0  0  0  0
  -30.2350   -1.4230   27.1250 F   0  0  0  0  0  0  0  0  0  0  0  0
  -26.1830  -10.2090   21.6910 C   0  0  0  0  0  0  0  0  0  0  0  0
  -25.9190   -9.3050   22.6280 N   0  0  0  0  0  0  0  0  0  0  0  0
  -25.2770  -10.8190   21.1240 O   0  0  0  0  0  0  0  0  0  0  0  0
  -26.6610   -8.8200   23.1110 H   0  0  0  0  0  0  0  0  0  0  0  0
  -24.9600   -9.0960   22.8690 H   0  0  0  0  0  0  0  0  0  0  0  0
  -27.5740  -12.9280   20.6730 N   0  0  0  0  0  0  0  0  0  0  0  0
  -26.5790  -13.0970   20.7680 H   0  0  0  0  0  0  0  0  0  0  0  0
  -28.0780  -13.7260   20.3060 H   0  0  0  0  0  0  0  0  0  0  0  0
  -33.7750  -20.3520   21.1950 C   0  0  0  0  0  2  0  0  0  0  0  0
  -37.0120  -20.2010   23.0610 C   0  0  0  0  0  2  0  0  0  0  0  0
  -37.4210  -19.7750   21.6490 C   0  0  0  0  0  2  0  0  0  0  0  0
  -35.5820  -20.7100   22.8890 C   0  0  0  0  0  2  0  0  0  0  0  0
  -36.1030  -19.5030   20.9060 C   0  0  0  0  0  2  0  0  0  0  0  0
  -35.0080  -19.8450   21.8400 N   0  0  2  0  0  4  0  0  0  0  0  0
  -34.7570  -18.9840   22.3000 H   0  0  0  0  0  0  0  0  0  0  0  0
  -30.8610  -22.9230   25.6210 C   0  0  0  0  0  2  0  0  0  0  0  0
  -32.4800  -23.4310   27.5080 C   0  0  0  0  0  1  0  0  0  0  0  0
  -32.3350  -23.1140   26.0150 C   0  0  0  0  0  2  0  0  0  0  0  0
  -29.3290  -23.0920   23.6940 C   0  0  0  0  0  2  0  0  0  0  0  0
  -29.2440  -23.1540   22.1560 C   0  0  0  0  0  2  0  0  0  0  0  0
  -26.8970  -22.9750   21.3340 C   0  0  0  0  0  0  0  0  0  0  0  0
  -27.9620  -23.6870   21.7170 N   0  0  0  0  0  0  0  0  0  0  0  0
  -26.8610  -21.7440   21.3790 O   0  0  0  0  0  0  0  0  0  0  0  0
  -27.8930  -24.6960   21.6550 H   0  0  0  0  0  0  0  0  0  0  0  0
  -25.7150  -23.7920   20.8100 C   0  0  0  0  0  2  0  0  0  0  0  0
  -24.5780  -22.9810   20.1640 C   0  0  0  0  0  2  0  0  0  0  0  0
  -23.7600  -23.9450   19.5160 O   0  0  0  0  0  0  0  0  0  0  0  0
  -17.7300  -26.0590   22.5910 C   0  0  0  0  0  0  0  0  0  0  0  0
  -22.4030  -23.7840   19.6070 C   0  0  0  0  0  0  0  0  0  0  0  0
  -17.5320  -24.1120   21.0720 C   0  0  0  0  0  3  0  0  0  0  0  0
  -19.5950  -23.5950   19.6640 C   0  0  0  0  0  0  0  0  0  0  0  0
  -19.3760  -25.8480   20.7350 C   0  0  0  0  0  2  0  0  0  0  0  0
  -20.2280  -24.7370   20.1650 C   0  0  0  0  0  0  0  0  0  0  0  0
  -21.6340  -24.8390   20.1300 C   0  0  0  0  0  3  0  0  0  0  0  0
  -21.7630  -22.6250   19.1210 C   0  0  0  0  0  3  0  0  0  0  0  0
  -20.3560  -22.5310   19.1430 C   0  0  0  0  0  3  0  0  0  0  0  0
  -18.0840  -23.5820   19.7200 C   0  0  0  0  0  2  0  0  0  0  0  0
  -18.2200  -25.3670   21.5230 N   0  0  0  0  0  0  0  0  0  0  0  0
  -16.6960  -25.6960   23.1690 O   0  0  0  0  0  0  0  0  0  0  0  0
  -17.5980  -22.9700   22.1110 C   0  0  0  0  0  0  0  0  0  0  0  0
  -16.6180  -22.0550   22.0520 N   0  0  0  0  0  0  0  0  0  0  0  0
  -18.5250  -22.9060   22.9230 O   0  0  0  0  0  0  0  0  0  0  0  0
  -15.8910  -22.1830   21.3630 H   0  0  0  0  0  0  0  0  0  0  0  0
  -14.5630  -19.1640   22.7280 C   0  0  0  0  0  0  0  0  0  0  0  0
  -16.4970  -20.8690   22.9000 C   0  0  0  0  0  3  0  0  0  0  0  0
  -17.4130  -19.7300   22.3980 C   0  0  0  0  0  2  0  0  0  0  0  0
  -16.7060  -18.7650   21.4420 C   0  0  0  0  0  2  0  0  0  0  0  0
  -15.4930  -18.1240   22.1240 C   0  0  0  0  0  2  0  0  0  0  0  0
  -15.0320  -20.4570   23.0790 C   0  0  0  0  0  0  0  0  0  0  0  0
  -14.1200  -21.3970   23.6060 C   0  0  0  0  0  3  0  0  0  0  0  0
  -12.7650  -21.0630   23.7880 C   0  0  0  0  0  3  0  0  0  0  0  0
  -12.3100  -19.7740   23.4570 C   0  0  0  0  0  3  0  0  0  0  0  0
  -13.2070  -18.8280   22.9310 C   0  0  0  0  0  3  0  0  0  0  0  0
  -18.4300  -27.3510   23.1200 C   0  0  0  0  0  3  0  0  0  0  0  0
  -19.3380  -27.0940   24.3840 C   0  0  1  0  0  0  0  0  0  0  0  0
  -18.6170  -26.3350   25.5210 C   0  0  0  0  0  1  0  0  0  0  0  0
  -20.5970  -26.2840   23.9900 C   0  0  0  0  0  1  0  0  0  0  0  0
  -19.8370  -28.4430   24.9540 C   0  0  0  0  0  1  0  0  0  0  0  0
  -17.3790  -28.3300   23.4250 N   0  0  0  0  0  0  0  0  0  0  0  0
  -17.0260  -29.3420   22.6220 C   0  0  0  0  0  0  0  0  0  0  0  0
  -17.6090  -29.5900   21.5610 O   0  0  0  0  0  0  0  0  0  0  0  0
  -16.8230  -28.1540   24.2500 H   0  0  0  0  0  0  0  0  0  0  0  0
  -14.5710  -29.7810   22.2980 C   0  0  0  0  0  1  0  0  0  0  0  0
  -15.8330  -30.2140   23.0610 C   0  0  0  0  0  3  0  0  0  0  0  0
  -17.0880  -32.2080   23.7510 C   0  0  0  0  0  1  0  0  0  0  0  0
  -16.0620  -31.6620   22.8670 N   0  0  0  0  0  0  0  0  0  0  0  0
  -15.2040  -32.1860   23.0150 H   0  0  0  0  0  0  0  0  0  0  0  0
  2  1  2  0
  3  8  2  0
  3  5  1  0
  4  9  1  0
  5  7  2  0
  6  5  1  0
  6  4  2  0
  7  1  1  0
  7 10  1  0
  8  2  1  0
  9 10  2  0
  9 11  1  0
 11 57  1  0
 12 20  1  0
 13 18  1  0
 14 15  1  0
 14 13  1  0
 16 15  1  0
 16 25  1  0
 16 17  1  0
 18 12  1  0
 18 17  1  0
 19 12  2  0
 20 21  1  0
 20  8  1  0
 22 23  2  0
 23 24  1  0
 23 42  1  0
 24 27  1  0
 25 22  1  0
 25 26  1  0
 26 24  2  0
 27 28  1  0
 28 29  2  0
 30 33  1  0
 30 29  1  0
 31 30  2  0
 32 31  1  0
 32 27  2  0
 33 34  1  0
 34 35  1  0
 35 36  2  0
 37 36  1  0
 37 41  1  0
 38 37  2  0
 39 34  2  0
 39 38  1  0
 40 39  1  0
 42 43  1  0
 43 46  1  0
 43 45  1  0
 44 42  2  0
 47 48  1  0
 47 22  1  0
 49 47  1  0
 50 55  1  0
 50  6  1  0
 52 51  1  0
 53 51  1  0
 54 52  1  0
 54 55  1  0
 55 56  1  1
 55 53  1  0
 57 59  1  0
 59 58  1  0
 60 11  1  0
 61 60  1  0
 62 64  2  0
 62 63  1  0
 63 61  1  0
 65 63  1  0
 66 62  1  0
 67 66  1  0
 68 70  1  0
 68 67  1  0
 69 80  2  0
 70 75  1  0
 71 79  1  0
 71 81  1  0
 72 78  1  0
 72 74  1  0
 73 79  1  0
 74 73  1  0
 75 74  2  0
 76 77  1  0
 76 70  2  0
 77 72  2  0
 78 71  1  0
 79 69  1  0
 81 83  2  0
 82 81  1  0
 84 82  1  0
 85 94  2  0
 85 90  1  0
 86 82  1  0
 86 90  1  0
 87 86  1  0
 88 89  1  0
 88 87  1  0
 89 85  1  0
 90 91  2  0
 91 92  1  0
 93 92  2  0
 94 93  1  0
 95 69  1  0
 95100  1  0
 95 96  1  0
 96 99  1  1
 96 97  1  0
 98 96  1  0
100103  1  0
101105  1  0
101100  1  0
102101  2  0
105104  1  0
107108  1  0
107105  1  0
107106  1  0
M  ISO  4  12 100  20 100  67 101  68 101
M  END
>  <TORSDO>  (83) 
F 25

>  <SCORE>  (83) 
28.525

>  <name>  (83) 
85

>  <ligand_id>  (83) 
85

>  <original_smiles>  (83) 
[H]c1c([H])c([H])c2c(c1[H])C([H])([H])C([H])([H])C([H])([H])C2([H])N([H])C(=O)C1([H])N(C(=O)C([H])(N([H])C(=O)C([H])(N([H])C([H])([H])[H])C([H])([H])[H])C(C([H])([H])[H])(C([H])([H])[H])C([H])([H])[H])C([H])([H])c2c([H])c(OC([H])([H])C([H])([H])C(=O)N([H])C([H])([H])C([H])([H])N(c3nc4c([H])c([H])c(N([H])C(=O)N5C([H])([H])C([H])([H])C([H])([H])C([H])(n6nc(-c7c([H])c([H])c(Oc8c([H])c([H])c(F)c([H])c8F)c([H])c7[H])c(C(=O)N([H])[H])c6N([H])[H])C5([H])[H])c([H])c4c(C([H])([H])[N+]4([H])C([H])([H])C([H])([H])C([H])([H])C4([H])[H])c3[H])C([H])([H])C([H])([H])C([H])([H])[H])c([H])c([H])c2C1([H])[H]

>  <smiles>  (83) 
[H]c1c([H])c([H])c2c(c1[H])C([H])([H])C([H])([H])C([H])([H])C2([H])N([H])C(=O)C1([H])N(C(=O)C([H])(N([H])C(=O)C([H])(N([H])C([H])([H])[H])C([H])([H])[H])C(C([H])([H])[H])(C([H])([H])[H])C([H])([H])[H])C([H])([H])c2c([H])c(OC([H])([H])C([H])([H])C(=O)N([H])C([H])([H])C([H])([H])N(c3nc4c([H])c([H])c(N([H])C(=O)N5C([H])([H])C([H])([H])C([H])([H])C([H])(n6nc(-c7c([H])c([H])c(Oc8c([H])c([H])c(F)c([H])c8F)c([H])c7[H])c(C(=O)N([H])[H])c6N([H])[H])C5([H])[H])c([H])c4c(C([H])([H])[N+]4([H])C([H])([H])C([H])([H])C([H])([H])C4([H])[H])c3[H])C([H])([H])C([H])([H])C([H])([H])[H])c([H])c([H])c2C1([H])[H]

$$$$
86:0:0
     RDKit          3D

 93102  0  0  1  0  0  0  0  0999 V2000
  -29.0270  -21.2050   20.5380 C   0  0  0  0  0  0  0  0  0  0  0  0
  -31.2560  -23.9470   19.4940 C   0  0  0  0  0  2  0  0  0  0  0  0
  -30.5830  -24.4150   20.7720 C   0  0  0  0  0  2  0  0  0  0  0  0
  -30.5910  -22.6050   19.1750 C   0  0  0  0  0  2  0  0  0  0  0  0
  -29.1630  -23.8560   20.6630 C   0  0  0  0  0  3  0  0  0  0  0  0
  -29.4050  -22.4640   20.0410 N   0  0  0  0  0  0  0  0  0  0  0  0
  -28.3110  -21.1380   21.5410 O   0  0  0  0  0  0  0  0  0  0  0  0
  -30.0080  -18.5290   17.8790 C   0  0  0  0  0  3  0  0  0  0  0  0
  -29.6570  -19.7410   18.5050 C   0  0  0  0  0  3  0  0  0  0  0  0
  -30.1420  -17.3330   18.6080 C   0  0  0  0  0  3  0  0  0  0  0  0
  -29.5760  -18.5650   20.6290 C   0  0  0  0  0  3  0  0  0  0  0  0
  -29.4680  -19.8340   19.9040 C   0  0  0  0  0  0  0  0  0  0  0  0
  -29.9120  -17.2860   20.0020 C   0  0  0  0  0  0  0  0  0  0  0  0
  -30.6130  -14.7960   20.3320 C   0  0  0  0  0  0  0  0  0  0  0  0
  -30.3910  -12.5110   19.3550 C   0  0  0  0  0  2  0  0  0  0  0  0
  -29.4720  -12.6020   18.1170 C   0  0  0  0  0  2  0  0  0  0  0  0
  -27.9970  -12.4380   18.5310 C   0  0  0  0  0  2  0  0  0  0  0  0
  -27.6190  -13.3280   19.7450 C   0  0  0  0  0  3  0  0  0  0  0  0
  -28.6660  -13.2360   20.8800 C   0  0  0  0  0  2  0  0  0  0  0  0
  -29.9770  -13.5730   20.3060 N   0  0  0  0  0  0  0  0  0  0  0  0
  -31.7840  -14.8770   19.9450 O   0  0  0  0  0  0  0  0  0  0  0  0
  -29.9020  -15.9480   20.6570 N   0  0  0  0  0  0  0  0  0  0  0  0
  -29.1020  -15.7830   21.2510 H   0  0  0  0  0  0  0  0  0  0  0  0
  -25.2230  -13.9280   20.4440 C   0  0  0  0  0  0  0  0  0  0  0  0
  -24.1530  -13.1600   20.8150 C   0  0  0  0  0  0  0  0  0  0  0  0
  -24.6150  -11.8070   20.8050 C   0  0  0  0  0  0  0  0  0  0  0  0
  -26.2680  -13.0450   20.2250 N   0  0  0  0  0  0  0  0  0  0  0  0
  -25.9080  -11.7660   20.5060 N   0  0  0  0  0  0  0  0  0  0  0  0
  -23.8830  -10.5490   21.0070 C   0  0  0  0  0  0  0  0  0  0  0  0
  -24.3150   -9.5850   21.9440 C   0  0  0  0  0  3  0  0  0  0  0  0
  -23.5840   -8.3920   22.1320 C   0  0  0  0  0  3  0  0  0  0  0  0
  -22.4090   -8.1530   21.3810 C   0  0  0  0  0  0  0  0  0  0  0  0
  -21.9970   -9.1060   20.4330 C   0  0  0  0  0  3  0  0  0  0  0  0
  -22.7280  -10.2910   20.2440 C   0  0  0  0  0  3  0  0  0  0  0  0
  -21.6480   -7.0120   21.4800 O   0  0  0  0  0  0  0  0  0  0  0  0
  -21.6090   -6.2690   22.6330 C   0  0  0  0  0  0  0  0  0  0  0  0
  -21.2040   -6.8260   23.8650 C   0  0  0  0  0  3  0  0  0  0  0  0
  -21.1120   -6.0120   25.0100 C   0  0  0  0  0  3  0  0  0  0  0  0
  -21.4130   -4.6380   24.9250 C   0  0  0  0  0  0  0  0  0  0  0  0
  -21.8110   -4.0800   23.6970 C   0  0  0  0  0  3  0  0  0  0  0  0
  -21.9070   -4.8930   22.5550 C   0  0  0  0  0  0  0  0  0  0  0  0
  -22.2710   -4.3460   21.3700 F   0  0  0  0  0  0  0  0  0  0  0  0
  -21.3160   -3.8540   26.0230 F   0  0  0  0  0  0  0  0  0  0  0  0
  -22.7540  -13.6430   21.0650 C   0  0  0  0  0  0  0  0  0  0  0  0
  -22.0130  -12.9610   21.9320 N   0  0  0  0  0  0  0  0  0  0  0  0
  -22.3220  -14.6610   20.5250 O   0  0  0  0  0  0  0  0  0  0  0  0
  -22.3740  -12.1400   22.3950 H   0  0  0  0  0  0  0  0  0  0  0  0
  -21.0740  -13.2700   22.1390 H   0  0  0  0  0  0  0  0  0  0  0  0
  -25.3880  -15.2960   20.2510 N   0  0  0  0  0  0  0  0  0  0  0  0
  -24.6140  -15.9450   20.3340 H   0  0  0  0  0  0  0  0  0  0  0  0
  -26.2380  -15.7360   19.9190 H   0  0  0  0  0  0  0  0  0  0  0  0
  -28.2160  -24.9550   19.9260 C   0  0  0  0  0  2  0  0  0  0  0  0
  -28.3270  -26.4240   20.2650 O   0  0  0  0  0  0  0  0  0  0  0  0
  -24.6070  -31.9000   23.2420 C   0  0  0  0  0  0  0  0  0  0  0  0
  -27.2180  -27.3020   20.1860 C   0  0  0  0  0  0  0  0  0  0  0  0
  -23.4060  -30.5060   21.5980 C   0  0  0  0  0  3  0  0  0  0  0  0
  -24.8570  -28.9510   20.1690 C   0  0  0  0  0  0  0  0  0  0  0  0
  -25.9490  -30.8100   21.4230 C   0  0  0  0  0  2  0  0  0  0  0  0
  -26.0280  -29.4290   20.7710 C   0  0  0  0  0  0  0  0  0  0  0  0
  -27.2070  -28.6150   20.7720 C   0  0  0  0  0  3  0  0  0  0  0  0
  -26.0260  -26.8990   19.5410 C   0  0  0  0  0  3  0  0  0  0  0  0
  -24.8620  -27.6930   19.5430 C   0  0  0  0  0  3  0  0  0  0  0  0
  -23.6230  -29.8320   20.2170 C   0  0  0  0  0  2  0  0  0  0  0  0
  -24.6730  -31.0910   22.1430 N   0  0  0  0  0  0  0  0  0  0  0  0
  -23.5250  -32.1730   23.7810 O   0  0  0  0  0  0  0  0  0  0  0  0
  -22.7410  -29.4910   22.5590 C   0  0  0  0  0  0  0  0  0  0  0  0
  -21.4130  -29.3170   22.4370 N   0  0  0  0  0  0  0  0  0  0  0  0
  -23.4200  -28.8600   23.3730 O   0  0  0  0  0  0  0  0  0  0  0  0
  -20.9210  -29.8790   21.7560 H   0  0  0  0  0  0  0  0  0  0  0  0
  -18.0320  -28.1300   22.9480 C   0  0  0  0  0  0  0  0  0  0  0  0
  -20.5940  -28.3800   23.2090 C   0  0  0  0  0  3  0  0  0  0  0  0
  -20.6860  -26.9490   22.6280 C   0  0  0  0  0  2  0  0  0  0  0  0
  -19.5790  -26.6360   21.6160 C   0  0  0  0  0  2  0  0  0  0  0  0
  -18.2000  -26.7840   22.2640 C   0  0  0  0  0  2  0  0  0  0  0  0
  -19.1550  -28.8860   23.3770 C   0  0  0  0  0  0  0  0  0  0  0  0
  -18.9410  -30.1490   23.9730 C   0  0  0  0  0  3  0  0  0  0  0  0
  -17.6380  -30.6540   24.1420 C   0  0  0  0  0  3  0  0  0  0  0  0
  -16.5300  -29.8950   23.7290 C   0  0  0  0  0  3  0  0  0  0  0  0
  -16.7280  -28.6340   23.1400 C   0  0  0  0  0  3  0  0  0  0  0  0
  -25.8890  -32.5330   23.8650 C   0  0  0  0  0  3  0  0  0  0  0  0
  -25.5800  -33.9320   24.1940 N   0  0  0  0  0  0  0  0  0  0  0  0
  -25.9120  -34.9850   23.4350 C   0  0  0  0  0  0  0  0  0  0  0  0
  -26.5760  -34.8770   22.4000 O   0  0  0  0  0  0  0  0  0  0  0  0
  -24.9890  -34.0860   24.9980 H   0  0  0  0  0  0  0  0  0  0  0  0
  -24.1820  -36.7750   23.0850 C   0  0  0  0  0  1  0  0  0  0  0  0
  -25.4290  -36.3760   23.8910 C   0  0  0  0  0  3  0  0  0  0  0  0
  -27.5730  -37.2590   24.7020 C   0  0  0  0  0  1  0  0  0  0  0  0
  -26.4610  -37.4290   23.7690 N   0  0  0  0  0  0  0  0  0  0  0  0
  -26.0570  -38.3500   23.9180 H   0  0  0  0  0  0  0  0  0  0  0  0
  -26.3960  -31.7650   25.1460 C   0  0  1  0  0  0  0  0  0  0  0  0
  -25.3020  -31.5380   26.2170 C   0  0  0  0  0  1  0  0  0  0  0  0
  -26.9700  -30.3850   24.7590 C   0  0  0  0  0  1  0  0  0  0  0  0
  -27.5460  -32.5610   25.8070 C   0  0  0  0  0  1  0  0  0  0  0  0
  1  7  2  0
  2  3  1  0
  4  2  1  0
  4  6  1  0
  5 52  1  0
  5  3  1  0
  6  1  1  0
  6  5  1  0
  8  9  2  0
  8 10  1  0
  9 12  1  0
 10 13  2  0
 12  1  1  0
 12 11  2  0
 13 11  1  0
 13 22  1  0
 14 22  1  0
 15 20  1  0
 16 17  1  0
 16 15  1  0
 18 17  1  0
 18 27  1  0
 18 19  1  0
 20 14  1  0
 20 19  1  0
 21 14  2  0
 22 23  1  0
 24 25  2  0
 25 44  1  0
 26 25  1  0
 26 29  1  0
 27 24  1  0
 27 28  1  0
 28 26  2  0
 29 30  1  0
 30 31  2  0
 32 35  1  0
 32 31  1  0
 33 32  2  0
 34 33  1  0
 34 29  2  0
 35 36  1  0
 36 37  1  0
 37 38  2  0
 39 38  1  0
 39 43  1  0
 40 39  2  0
 41 36  2  0
 41 40  1  0
 42 41  1  0
 44 45  1  0
 45 48  1  0
 45 47  1  0
 46 44  2  0
 49 50  1  0
 49 24  1  0
 51 49  1  0
 52 53  1  0
 54 65  2  0
 55 53  1  0
 55 60  1  0
 56 64  1  0
 56 66  1  0
 57 63  1  0
 57 59  1  0
 58 64  1  0
 59 60  2  0
 59 58  1  0
 61 62  1  0
 61 55  2  0
 62 57  2  0
 63 56  1  0
 64 54  1  0
 66 68  2  0
 67 66  1  0
 69 67  1  0
 70 79  2  0
 70 75  1  0
 71 67  1  0
 71 75  1  0
 72 71  1  0
 73 74  1  0
 73 72  1  0
 74 70  1  0
 75 76  2  0
 76 77  1  0
 78 77  2  0
 79 78  1  0
 80 54  1  0
 80 81  1  0
 80 90  1  0
 81 84  1  0
 82 86  1  0
 82 81  1  0
 83 82  2  0
 86 85  1  0
 88 86  1  0
 88 89  1  0
 88 87  1  0
 90 93  1  1
 90 91  1  0
 92 90  1  0
M  ISO  4  14 100  22 100  52 101  53 101
M  END
>  <TORSDO>  (84) 
F 18

>  <SCORE>  (84) 
-14.790

>  <name>  (84) 
86

>  <ligand_id>  (84) 
86

>  <original_smiles>  (84) 
[H]c1c([H])c(C(=O)N2C([H])([H])C([H])([H])C([H])([H])C2([H])C([H])([H])Oc2c([H])c([H])c3c(c2[H])C([H])([H])N(C(=O)C([H])(N([H])C(=O)C([H])(N([H])C([H])([H])[H])C([H])([H])[H])C(C([H])([H])[H])(C([H])([H])[H])C([H])([H])[H])C([H])(C(=O)N([H])C2([H])c4c([H])c([H])c([H])c([H])c4C([H])([H])C([H])([H])C2([H])[H])C3([H])[H])c([H])c(N([H])C(=O)N2C([H])([H])C([H])([H])C([H])([H])C([H])(n3nc(-c4c([H])c([H])c(Oc5c([H])c([H])c(F)c([H])c5F)c([H])c4[H])c(C(=O)N([H])[H])c3N([H])[H])C2([H])[H])c1[H]

>  <smiles>  (84) 
[H]c1c([H])c(C(=O)N2C([H])([H])C([H])([H])C([H])([H])C2([H])C([H])([H])Oc2c([H])c([H])c3c(c2[H])C([H])([H])N(C(=O)C([H])(N([H])C(=O)C([H])(N([H])C([H])([H])[H])C([H])([H])[H])C(C([H])([H])[H])(C([H])([H])[H])C([H])([H])[H])C([H])(C(=O)N([H])C2([H])c4c([H])c([H])c([H])c([H])c4C([H])([H])C([H])([H])C2([H])[H])C3([H])[H])c([H])c(N([H])C(=O)N2C([H])([H])C([H])([H])C([H])([H])C([H])(n3nc(-c4c([H])c([H])c(Oc5c([H])c([H])c(F)c([H])c5F)c([H])c4[H])c(C(=O)N([H])[H])c3N([H])[H])C2([H])[H])c1[H]

$$$$
87:0:0
     RDKit          3D

 94103  0  0  1  0  0  0  0  0999 V2000
  -30.4000  -21.8990   22.1660 N   0  0  0  0  0  4  0  0  0  0  0  0
  -29.8360  -21.8910   22.9990 H   0  0  0  0  0  0  0  0  0  0  0  0
  -29.8220  -21.5950   21.4010 H   0  0  0  0  0  0  0  0  0  0  0  0
  -31.4830  -20.8990   22.3340 C   0  0  0  0  0  2  0  0  0  0  0  0
  -30.6110  -14.5820   20.3290 C   0  0  0  0  0  0  0  0  0  0  0  0
  -30.2980  -12.3940   19.2370 C   0  0  0  0  0  2  0  0  0  0  0  0
  -29.3290  -12.5380   18.0440 C   0  0  0  0  0  2  0  0  0  0  0  0
  -27.8650  -12.3920   18.5080 C   0  0  0  0  0  2  0  0  0  0  0  0
  -27.5340  -13.2440   19.7600 C   0  0  0  0  0  3  0  0  0  0  0  0
  -28.6220  -13.1120   20.8520 C   0  0  0  0  0  2  0  0  0  0  0  0
  -29.9230  -13.4070   20.2370 N   0  0  0  0  0  0  0  0  0  0  0  0
  -31.7930  -14.6780   19.9890 O   0  0  0  0  0  0  0  0  0  0  0  0
  -31.1720  -18.3790   22.7920 C   0  0  0  0  0  3  0  0  0  0  0  0
  -30.8120  -17.0690   22.3750 C   0  0  0  0  0  3  0  0  0  0  0  0
  -30.5810  -19.2890   20.5990 C   0  0  0  0  0  3  0  0  0  0  0  0
  -30.2090  -17.9930   20.2160 C   0  0  0  0  0  0  0  0  0  0  0  0
  -31.0570  -19.4920   21.9130 C   0  0  0  0  0  0  0  0  0  0  0  0
  -30.3240  -16.8920   21.0640 C   0  0  0  0  0  0  0  0  0  0  0  0
  -29.6580  -17.5950   18.8890 C   0  0  0  0  0  2  0  0  0  0  0  0
  -29.1770  -16.1690   19.1830 C   0  0  0  0  0  2  0  0  0  0  0  0
  -29.8550  -15.7110   20.4180 N   0  0  0  0  0  0  0  0  0  0  0  0
  -25.1580  -13.8610   20.5230 C   0  0  0  0  0  0  0  0  0  0  0  0
  -24.0950  -13.0890   20.9020 C   0  0  0  0  0  0  0  0  0  0  0  0
  -24.5580  -11.7380   20.8610 C   0  0  0  0  0  0  0  0  0  0  0  0
  -26.1970  -12.9750   20.2730 N   0  0  0  0  0  0  0  0  0  0  0  0
  -25.8430  -11.6950   20.5380 N   0  0  0  0  0  0  0  0  0  0  0  0
  -23.8400  -10.4740   21.0550 C   0  0  0  0  0  0  0  0  0  0  0  0
  -24.2960   -9.5010   21.9700 C   0  0  0  0  0  3  0  0  0  0  0  0
  -23.5800   -8.2990   22.1510 C   0  0  0  0  0  3  0  0  0  0  0  0
  -22.3930   -8.0630   21.4160 C   0  0  0  0  0  0  0  0  0  0  0  0
  -21.9570   -9.0260   20.4880 C   0  0  0  0  0  3  0  0  0  0  0  0
  -22.6750  -10.2190   20.3040 C   0  0  0  0  0  3  0  0  0  0  0  0
  -21.6450   -6.9150   21.5080 O   0  0  0  0  0  0  0  0  0  0  0  0
  -21.6290   -6.1590   22.6530 C   0  0  0  0  0  0  0  0  0  0  0  0
  -21.2320   -6.6980   23.8970 C   0  0  0  0  0  3  0  0  0  0  0  0
  -21.1610   -5.8680   25.0340 C   0  0  0  0  0  3  0  0  0  0  0  0
  -21.4780   -4.5010   24.9280 C   0  0  0  0  0  0  0  0  0  0  0  0
  -21.8710   -3.9610   23.6900 C   0  0  0  0  0  3  0  0  0  0  0  0
  -21.9420   -4.7880   22.5550 C   0  0  0  0  0  0  0  0  0  0  0  0
  -22.2980   -4.2600   21.3600 F   0  0  0  0  0  0  0  0  0  0  0  0
  -21.4030   -3.7010   26.0170 F   0  0  0  0  0  0  0  0  0  0  0  0
  -22.7020  -13.5630   21.1950 C   0  0  0  0  0  0  0  0  0  0  0  0
  -21.9860  -12.8590   22.0650 N   0  0  0  0  0  0  0  0  0  0  0  0
  -22.2560  -14.5920   20.6880 O   0  0  0  0  0  0  0  0  0  0  0  0
  -22.3610  -12.0260   22.4940 H   0  0  0  0  0  0  0  0  0  0  0  0
  -21.0520  -13.1550   22.3060 H   0  0  0  0  0  0  0  0  0  0  0  0
  -25.3230  -15.2330   20.3470 N   0  0  0  0  0  0  0  0  0  0  0  0
  -24.5660  -15.8960   20.4800 H   0  0  0  0  0  0  0  0  0  0  0  0
  -26.1860  -15.6700   20.0490 H   0  0  0  0  0  0  0  0  0  0  0  0
  -30.8840  -23.2740   21.8830 C   0  0  0  0  0  2  0  0  0  0  0  0
  -29.7560  -24.3190   21.6780 C   0  0  0  0  0  2  0  0  0  0  0  0
  -30.3130  -25.6920   21.2330 C   0  0  0  0  0  2  0  0  0  0  0  0
  -29.2930  -26.8480   21.1920 C   0  0  0  0  0  2  0  0  0  0  0  0
  -28.3520  -26.6800   20.1330 O   0  0  0  0  0  0  0  0  0  0  0  0
  -24.5770  -31.8920   23.2460 C   0  0  0  0  0  0  0  0  0  0  0  0
  -27.2220  -27.4720   20.1620 C   0  0  0  0  0  0  0  0  0  0  0  0
  -23.3610  -30.4940   21.6030 C   0  0  0  0  0  3  0  0  0  0  0  0
  -24.8130  -28.9590   20.1690 C   0  0  0  0  0  0  0  0  0  0  0  0
  -25.8810  -30.8590   21.3940 C   0  0  0  0  0  2  0  0  0  0  0  0
  -25.9670  -29.4890   20.7600 C   0  0  0  0  0  0  0  0  0  0  0  0
  -27.1700  -28.7520   20.7640 C   0  0  0  0  0  3  0  0  0  0  0  0
  -26.0570  -26.9610   19.5530 C   0  0  0  0  0  3  0  0  0  0  0  0
  -24.8510  -27.6910   19.5630 C   0  0  0  0  0  3  0  0  0  0  0  0
  -23.5650  -29.8110   20.2230 C   0  0  0  0  0  2  0  0  0  0  0  0
  -24.6250  -31.0970   22.1400 N   0  0  0  0  0  0  0  0  0  0  0  0
  -23.5000  -32.1640   23.7940 O   0  0  0  0  0  0  0  0  0  0  0  0
  -22.7140  -29.4730   22.5660 C   0  0  0  0  0  0  0  0  0  0  0  0
  -21.3900  -29.2910   22.4400 N   0  0  0  0  0  0  0  0  0  0  0  0
  -23.4000  -28.8460   23.3770 O   0  0  0  0  0  0  0  0  0  0  0  0
  -20.8980  -29.8450   21.7540 H   0  0  0  0  0  0  0  0  0  0  0  0
  -18.0170  -28.0990   22.9400 C   0  0  0  0  0  0  0  0  0  0  0  0
  -20.5750  -28.3520   23.2110 C   0  0  0  0  0  3  0  0  0  0  0  0
  -20.6760  -26.9230   22.6310 C   0  0  0  0  0  2  0  0  0  0  0  0
  -19.5730  -26.6030   21.6170 C   0  0  0  0  0  2  0  0  0  0  0  0
  -18.1920  -26.7490   22.2630 C   0  0  0  0  0  2  0  0  0  0  0  0
  -19.1370  -28.8590   23.3700 C   0  0  0  0  0  0  0  0  0  0  0  0
  -18.9210  -30.1220   23.9620 C   0  0  0  0  0  3  0  0  0  0  0  0
  -17.6180  -30.6260   24.1280 C   0  0  0  0  0  3  0  0  0  0  0  0
  -16.5110  -29.8620   23.7160 C   0  0  0  0  0  3  0  0  0  0  0  0
  -16.7120  -28.6000   23.1280 C   0  0  0  0  0  3  0  0  0  0  0  0
  -25.8690  -32.5170   23.8600 C   0  0  0  0  0  3  0  0  0  0  0  0
  -25.5680  -33.9160   24.1940 N   0  0  0  0  0  0  0  0  0  0  0  0
  -25.9050  -34.9670   23.4350 C   0  0  0  0  0  0  0  0  0  0  0  0
  -26.5730  -34.8610   22.4010 O   0  0  0  0  0  0  0  0  0  0  0  0
  -24.9780  -34.0730   24.9970 H   0  0  0  0  0  0  0  0  0  0  0  0
  -24.1860  -36.7660   23.0770 C   0  0  0  0  0  1  0  0  0  0  0  0
  -25.4230  -36.3560   23.8920 C   0  0  0  0  0  3  0  0  0  0  0  0
  -27.5620  -37.2240   24.7280 C   0  0  0  0  0  1  0  0  0  0  0  0
  -26.4600  -37.4050   23.7850 N   0  0  0  0  0  0  0  0  0  0  0  0
  -26.0590  -38.3260   23.9430 H   0  0  0  0  0  0  0  0  0  0  0  0
  -26.3960  -31.7390   25.1290 C   0  0  1  0  0  0  0  0  0  0  0  0
  -25.3110  -31.5010   26.2050 C   0  0  0  0  0  1  0  0  0  0  0  0
  -26.9700  -30.3620   24.7250 C   0  0  0  0  0  1  0  0  0  0  0  0
  -27.5540  -32.5280   25.7840 C   0  0  0  0  0  1  0  0  0  0  0  0
  1  4  1  0
  1  2  1  0
  3  1  1  0
  5 21  1  0
  6 11  1  0
  7  8  1  0
  7  6  1  0
  9  8  1  0
  9 25  1  0
  9 10  1  0
 11  5  1  0
 11 10  1  0
 12  5  2  0
 14 13  1  0
 15 17  1  0
 16 15  2  0
 16 18  1  0
 17  4  1  0
 17 13  2  0
 18 14  2  0
 19 20  1  0
 19 16  1  0
 20 21  1  0
 21 18  1  0
 22 23  2  0
 23 42  1  0
 24 23  1  0
 24 27  1  0
 25 22  1  0
 25 26  1  0
 26 24  2  0
 27 28  1  0
 28 29  2  0
 30 33  1  0
 30 29  1  0
 31 30  2  0
 32 31  1  0
 32 27  2  0
 33 34  1  0
 34 35  1  0
 35 36  2  0
 37 36  1  0
 37 41  1  0
 38 37  2  0
 39 34  2  0
 39 38  1  0
 40 39  1  0
 42 43  1  0
 43 46  1  0
 43 45  1  0
 44 42  2  0
 47 48  1  0
 47 22  1  0
 49 47  1  0
 50  1  1  0
 51 50  1  0
 52 51  1  0
 53 52  1  0
 54 56  1  0
 54 53  1  0
 55 66  2  0
 56 61  1  0
 57 65  1  0
 57 67  1  0
 58 64  1  0
 58 60  1  0
 59 65  1  0
 60 61  2  0
 60 59  1  0
 62 63  1  0
 62 56  2  0
 63 58  2  0
 64 57  1  0
 65 55  1  0
 67 69  2  0
 68 67  1  0
 70 68  1  0
 71 80  2  0
 71 76  1  0
 72 68  1  0
 72 76  1  0
 73 72  1  0
 74 75  1  0
 74 73  1  0
 75 71  1  0
 76 77  2  0
 77 78  1  0
 79 78  2  0
 80 79  1  0
 81 55  1  0
 81 82  1  0
 81 91  1  0
 82 85  1  0
 83 87  1  0
 83 82  1  0
 84 83  2  0
 87 86  1  0
 89 87  1  0
 89 90  1  0
 89 88  1  0
 91 94  1  1
 91 92  1  0
 93 91  1  0
M  ISO  4   5 100  21 100  53 101  54 101
M  END
>  <TORSDO>  (85) 
F 21

>  <SCORE>  (85) 
-13.465

>  <name>  (85) 
87

>  <ligand_id>  (85) 
87

>  <original_smiles>  (85) 
[H]c1c([H])c([H])c2c(c1[H])C([H])([H])C([H])([H])C([H])([H])C2([H])N([H])C(=O)C1([H])N(C(=O)C([H])(N([H])C(=O)C([H])(N([H])C([H])([H])[H])C([H])([H])[H])C(C([H])([H])[H])(C([H])([H])[H])C([H])([H])[H])C([H])([H])c2c([H])c(OC([H])([H])C([H])([H])C([H])([H])C([H])([H])[N+]([H])([H])C([H])([H])c3c([H])c([H])c4c(c3[H])C([H])([H])C([H])([H])N4C(=O)N3C([H])([H])C([H])([H])C([H])([H])C([H])(n4nc(-c5c([H])c([H])c(Oc6c([H])c([H])c(F)c([H])c6F)c([H])c5[H])c(C(=O)N([H])[H])c4N([H])[H])C3([H])[H])c([H])c([H])c2C1([H])[H]

>  <smiles>  (85) 
[H]c1c([H])c([H])c2c(c1[H])C([H])([H])C([H])([H])C([H])([H])C2([H])N([H])C(=O)C1([H])N(C(=O)C([H])(N([H])C(=O)C([H])(N([H])C([H])([H])[H])C([H])([H])[H])C(C([H])([H])[H])(C([H])([H])[H])C([H])([H])[H])C([H])([H])c2c([H])c(OC([H])([H])C([H])([H])C([H])([H])C([H])([H])[N+]([H])([H])C([H])([H])c3c([H])c([H])c4c(c3[H])C([H])([H])C([H])([H])N4C(=O)N3C([H])([H])C([H])([H])C([H])([H])C([H])(n4nc(-c5c([H])c([H])c(Oc6c([H])c([H])c(F)c([H])c6F)c([H])c5[H])c(C(=O)N([H])[H])c4N([H])[H])C3([H])[H])c([H])c([H])c2C1([H])[H]

$$$$
88:0:0
     RDKit          3D

102111  0  0  1  0  0  0  0  0999 V2000
  -31.7970  -23.9220   20.5440 C   0  0  0  0  0  3  0  0  0  0  0  0
  -32.3330  -23.7320   18.1810 C   0  0  0  0  0  3  0  0  0  0  0  0
  -32.2830  -23.1560   19.4660 C   0  0  0  0  0  0  0  0  0  0  0  0
  -31.3360  -25.8030   19.0380 C   0  0  0  0  0  0  0  0  0  0  0  0
  -31.3320  -25.2330   20.3360 C   0  0  0  0  0  0  0  0  0  0  0  0
  -31.8700  -25.0440   17.9600 C   0  0  0  0  0  0  0  0  0  0  0  0
  -30.7190  -26.1220   21.6890 Cl  0  0  0  0  0  0  0  0  0  0  0  0
  -32.0020  -25.6890   16.3590 Cl  0  0  0  0  0  0  0  0  0  0  0  0
  -30.8000  -27.0950   18.8790 N   0  0  0  0  0  0  0  0  0  0  0  0
  -30.5870  -27.4910   19.7900 H   0  0  0  0  0  0  0  0  0  0  0  0
  -29.6400  -27.2210   17.9940 C   0  0  0  0  0  2  0  0  0  0  0  0
  -28.4450  -26.3410   18.4100 C   0  0  0  0  0  2  0  0  0  0  0  0
  -28.0100  -26.7580   19.7010 O   0  0  0  0  0  0  0  0  0  0  0  0
  -24.4820  -31.8450   23.1630 C   0  0  0  0  0  0  0  0  0  0  0  0
  -26.8430  -27.4790   19.7800 C   0  0  0  0  0  0  0  0  0  0  0  0
  -23.1510  -30.5400   21.5340 C   0  0  0  0  0  3  0  0  0  0  0  0
  -24.4830  -29.0140   19.9830 C   0  0  0  0  0  0  0  0  0  0  0  0
  -25.6670  -30.8400   21.2160 C   0  0  0  0  0  2  0  0  0  0  0  0
  -25.6800  -29.4900   20.5330 C   0  0  0  0  0  0  0  0  0  0  0  0
  -26.8570  -28.7200   20.4460 C   0  0  0  0  0  3  0  0  0  0  0  0
  -25.6250  -26.9950   19.2520 C   0  0  0  0  0  3  0  0  0  0  0  0
  -24.4460  -27.7590   19.3470 C   0  0  0  0  0  3  0  0  0  0  0  0
  -23.2660  -29.8990   20.1240 C   0  0  0  0  0  2  0  0  0  0  0  0
  -24.4550  -31.0870   22.0310 N   0  0  0  0  0  0  0  0  0  0  0  0
  -23.4390  -32.1300   23.7670 O   0  0  0  0  0  0  0  0  0  0  0  0
  -22.5190  -29.5050   22.4910 C   0  0  0  0  0  0  0  0  0  0  0  0
  -21.1930  -29.3200   22.3790 N   0  0  0  0  0  0  0  0  0  0  0  0
  -23.2150  -28.8710   23.2890 O   0  0  0  0  0  0  0  0  0  0  0  0
  -20.6940  -29.8820   21.7040 H   0  0  0  0  0  0  0  0  0  0  0  0
  -17.8330  -28.0940   22.8860 C   0  0  0  0  0  0  0  0  0  0  0  0
  -20.3890  -28.3710   23.1480 C   0  0  0  0  0  3  0  0  0  0  0  0
  -20.5020  -26.9460   22.5610 C   0  0  0  0  0  2  0  0  0  0  0  0
  -19.3980  -26.6190   21.5510 C   0  0  0  0  0  2  0  0  0  0  0  0
  -18.0170  -26.7520   22.2010 C   0  0  0  0  0  2  0  0  0  0  0  0
  -18.9470  -28.8610   23.3160 C   0  0  0  0  0  0  0  0  0  0  0  0
  -18.7220  -30.1200   23.9140 C   0  0  0  0  0  3  0  0  0  0  0  0
  -17.4140  -30.6120   24.0870 C   0  0  0  0  0  3  0  0  0  0  0  0
  -16.3140  -29.8390   23.6750 C   0  0  0  0  0  3  0  0  0  0  0  0
  -16.5230  -28.5830   23.0790 C   0  0  0  0  0  3  0  0  0  0  0  0
  -25.8190  -32.4100   23.7380 C   0  0  0  0  0  3  0  0  0  0  0  0
  -25.5810  -33.8110   24.1110 N   0  0  0  0  0  0  0  0  0  0  0  0
  -25.8980  -34.8650   23.3450 C   0  0  0  0  0  0  0  0  0  0  0  0
  -26.4960  -34.7570   22.2710 O   0  0  0  0  0  0  0  0  0  0  0  0
  -25.0510  -33.9710   24.9560 H   0  0  0  0  0  0  0  0  0  0  0  0
  -24.2050  -36.7110   23.1310 C   0  0  0  0  0  1  0  0  0  0  0  0
  -25.4860  -36.2600   23.8510 C   0  0  0  0  0  3  0  0  0  0  0  0
  -27.6960  -37.0710   24.5460 C   0  0  0  0  0  1  0  0  0  0  0  0
  -26.5410  -37.2850   23.6800 N   0  0  0  0  0  0  0  0  0  0  0  0
  -26.1730  -38.2140   23.8670 H   0  0  0  0  0  0  0  0  0  0  0  0
  -26.3630  -31.5880   24.9710 C   0  0  1  0  0  0  0  0  0  0  0  0
  -25.3020  -31.3370   26.0670 C   0  0  0  0  0  1  0  0  0  0  0  0
  -26.8980  -30.2130   24.5120 C   0  0  0  0  0  1  0  0  0  0  0  0
  -27.5540  -32.3360   25.6140 C   0  0  0  0  0  1  0  0  0  0  0  0
  -32.7190  -21.7190   19.6820 C   0  0  0  0  0  2  0  0  0  0  0  0
  -31.6020  -20.8930   20.1170 N   0  0  0  0  0  0  0  0  0  0  0  0
  -30.6800  -21.3200   20.1260 H   0  0  0  0  0  0  0  0  0  0  0  0
  -32.8670  -17.3660   20.2370 C   0  0  0  0  0  3  0  0  0  0  0  0
  -32.8010  -18.7380   19.9230 C   0  0  0  0  0  3  0  0  0  0  0  0
  -30.7540  -18.9270   21.2260 C   0  0  0  0  0  3  0  0  0  0  0  0
  -31.8740  -16.7670   21.0390 C   0  0  0  0  0  0  0  0  0  0  0  0
  -31.7360  -19.5280   20.4120 C   0  0  0  0  0  0  0  0  0  0  0  0
  -30.8210  -17.5570   21.5430 C   0  0  0  0  0  0  0  0  0  0  0  0
  -29.8690  -17.0010   22.3310 F   0  0  0  0  0  0  0  0  0  0  0  0
  -31.9490  -15.2820   21.3570 C   0  0  0  0  0  2  0  0  0  0  0  0
  -30.7760  -14.0120   19.5670 C   0  0  0  0  0  0  0  0  0  0  0  0
  -30.1270  -11.9590   18.3760 C   0  0  0  0  0  2  0  0  0  0  0  0
  -29.0020  -12.1370   17.3460 C   0  0  0  0  0  2  0  0  0  0  0  0
  -27.6290  -12.0030   18.0240 C   0  0  0  0  0  2  0  0  0  0  0  0
  -27.4970  -12.9080   19.2740 C   0  0  0  0  0  3  0  0  0  0  0  0
  -28.7070  -12.7320   20.2180 C   0  0  0  0  0  2  0  0  0  0  0  0
  -29.9510  -12.9450   19.4510 N   0  0  0  0  0  0  0  0  0  0  0  0
  -31.5620  -14.3690   18.6840 O   0  0  0  0  0  0  0  0  0  0  0  0
  -30.8460  -14.4950   20.8120 N   0  0  0  0  0  0  0  0  0  0  0  0
  -30.1850  -14.1210   21.4740 H   0  0  0  0  0  0  0  0  0  0  0  0
  -25.2940  -13.5790   20.4280 C   0  0  0  0  0  0  0  0  0  0  0  0
  -24.2650  -12.8330   20.9360 C   0  0  0  0  0  0  0  0  0  0  0  0
  -24.6380  -11.4650   20.7490 C   0  0  0  0  0  0  0  0  0  0  0  0
  -26.2340  -12.6670   19.9680 N   0  0  0  0  0  0  0  0  0  0  0  0
  -25.8500  -11.3880   20.2160 N   0  0  0  0  0  0  0  0  0  0  0  0
  -23.8870  -10.2280   20.9940 C   0  0  0  0  0  0  0  0  0  0  0  0
  -24.3230   -9.2710   21.9380 C   0  0  0  0  0  3  0  0  0  0  0  0
  -23.5710   -8.0980   22.1670 C   0  0  0  0  0  3  0  0  0  0  0  0
  -22.3710   -7.8740   21.4510 C   0  0  0  0  0  0  0  0  0  0  0  0
  -21.9560   -8.8160   20.4950 C   0  0  0  0  0  3  0  0  0  0  0  0
  -22.7070   -9.9800   20.2640 C   0  0  0  0  0  3  0  0  0  0  0  0
  -21.5920   -6.7500   21.5890 O   0  0  0  0  0  0  0  0  0  0  0  0
  -21.4910   -6.0860   22.7860 C   0  0  0  0  0  0  0  0  0  0  0  0
  -20.9790   -6.7110   23.9450 C   0  0  0  0  0  3  0  0  0  0  0  0
  -20.8280   -5.9710   25.1340 C   0  0  0  0  0  3  0  0  0  0  0  0
  -21.1790   -4.6080   25.1670 C   0  0  0  0  0  0  0  0  0  0  0  0
  -21.6840   -3.9830   24.0130 C   0  0  0  0  0  3  0  0  0  0  0  0
  -21.8360   -4.7200   22.8260 C   0  0  0  0  0  0  0  0  0  0  0  0
  -22.3030   -4.1070   21.7100 F   0  0  0  0  0  0  0  0  0  0  0  0
  -21.0270   -3.8960   26.3080 F   0  0  0  0  0  0  0  0  0  0  0  0
  -22.9660  -13.3530   21.4810 C   0  0  0  0  0  0  0  0  0  0  0  0
  -22.3830  -12.6570   22.4500 N   0  0  0  0  0  0  0  0  0  0  0  0
  -22.4850  -14.4130   21.0800 O   0  0  0  0  0  0  0  0  0  0  0  0
  -22.7880  -11.7980   22.7910 H   0  0  0  0  0  0  0  0  0  0  0  0
  -21.5190  -12.9870   22.8560 H   0  0  0  0  0  0  0  0  0  0  0  0
  -25.5050  -14.9480   20.2990 N   0  0  0  0  0  0  0  0  0  0  0  0
  -24.8160  -15.6360   20.5810 H   0  0  0  0  0  0  0  0  0  0  0  0
  -26.3250  -15.3610   19.8740 H   0  0  0  0  0  0  0  0  0  0  0  0
  2  3  1  0
  3 54  1  0
  3  1  2  0
  4  5  2  0
  5  1  1  0
  5  7  1  0
  6  2  2  0
  6  4  1  0
  8  6  1  0
  9  4  1  0
  9 10  1  0
 11 12  1  0
 11  9  1  0
 12 13  1  0
 13 15  1  0
 14 25  2  0
 15 20  1  0
 16 24  1  0
 16 26  1  0
 17 23  1  0
 17 19  1  0
 18 24  1  0
 19 18  1  0
 20 19  2  0
 21 22  1  0
 21 15  2  0
 22 17  2  0
 23 16  1  0
 24 14  1  0
 26 28  2  0
 27 26  1  0
 29 27  1  0
 30 39  2  0
 30 35  1  0
 31 27  1  0
 31 35  1  0
 32 31  1  0
 33 34  1  0
 33 32  1  0
 34 30  1  0
 35 36  2  0
 36 37  1  0
 38 37  2  0
 39 38  1  0
 40 14  1  0
 40 41  1  0
 40 50  1  0
 41 44  1  0
 42 46  1  0
 42 41  1  0
 43 42  2  0
 46 45  1  0
 48 46  1  0
 48 49  1  0
 48 47  1  0
 50 53  1  1
 50 51  1  0
 52 50  1  0
 54 55  1  0
 55 56  1  0
 55 61  1  0
 57 60  1  0
 58 57  2  0
 58 61  1  0
 59 62  1  0
 60 64  1  0
 60 62  2  0
 61 59  2  0
 62 63  1  0
 65 73  1  0
 66 71  1  0
 67 68  1  0
 67 66  1  0
 69 68  1  0
 69 78  1  0
 69 70  1  0
 71 65  1  0
 71 70  1  0
 72 65  2  0
 73 64  1  0
 73 74  1  0
 75 76  2  0
 76 95  1  0
 77 76  1  0
 77 80  1  0
 78 79  1  0
 78 75  1  0
 79 77  2  0
 80 81  1  0
 81 82  2  0
 83 86  1  0
 83 82  1  0
 84 83  2  0
 85 84  1  0
 85 80  2  0
 86 87  1  0
 87 92  2  0
 87 88  1  0
 88 89  2  0
 89 90  1  0
 90 94  1  0
 91 90  2  0
 92 91  1  0
 93 92  1  0
 95 96  1  0
 96 98  1  0
 96 99  1  0
 97 95  2  0
100 75  1  0
100101  1  0
102100  1  0
M  ISO  4  12 101  13 101  65 100  73 100
M  END
>  <TORSDO>  (86) 
F 23

>  <SCORE>  (86) 
-11.147

>  <name>  (86) 
88

>  <ligand_id>  (86) 
88

>  <original_smiles>  (86) 
[H]c1c([H])c([H])c2c(c1[H])C([H])([H])C([H])([H])C([H])([H])C2([H])N([H])C(=O)C1([H])N(C(=O)C([H])(N([H])C(=O)C([H])(N([H])C([H])([H])[H])C([H])([H])[H])C(C([H])([H])[H])(C([H])([H])[H])C([H])([H])[H])C([H])([H])c2c([H])c(OC([H])([H])C([H])([H])N([H])c3c(Cl)c([H])c(C([H])([H])N([H])c4c([H])c([H])c(C([H])([H])N([H])C(=O)N5C([H])([H])C([H])([H])C([H])([H])C([H])(n6nc(-c7c([H])c([H])c(Oc8c([H])c([H])c(F)c([H])c8F)c([H])c7[H])c(C(=O)N([H])[H])c6N([H])[H])C5([H])[H])c(F)c4[H])c([H])c3Cl)c([H])c([H])c2C1([H])[H]

>  <smiles>  (86) 
[H]c1c([H])c([H])c2c(c1[H])C([H])([H])C([H])([H])C([H])([H])C2([H])N([H])C(=O)C1([H])N(C(=O)C([H])(N([H])C(=O)C([H])(N([H])C([H])([H])[H])C([H])([H])[H])C(C([H])([H])[H])(C([H])([H])[H])C([H])([H])[H])C([H])([H])c2c([H])c(OC([H])([H])C([H])([H])N([H])c3c(Cl)c([H])c(C([H])([H])N([H])c4c([H])c([H])c(C([H])([H])N([H])C(=O)N5C([H])([H])C([H])([H])C([H])([H])C([H])(n6nc(-c7c([H])c([H])c(Oc8c([H])c([H])c(F)c([H])c8F)c([H])c7[H])c(C(=O)N([H])[H])c6N([H])[H])C5([H])[H])c(F)c4[H])c([H])c3Cl)c([H])c([H])c2C1([H])[H]

$$$$
89:0:0
     RDKit          3D

100110  0  0  1  0  0  0  0  0999 V2000
  -30.4050  -22.8960   22.0020 C   0  0  0  0  0  2  0  0  0  0  0  0
  -29.9320  -25.2390   21.8230 C   0  0  0  0  0  2  0  0  0  0  0  0
  -31.5680  -22.8530   20.9750 C   0  0  0  0  0  2  0  0  0  0  0  0
  -31.4880  -25.3060   21.4960 C   0  0  0  0  0  2  0  0  0  0  0  0
  -29.3960  -23.7960   21.3780 C   0  0  0  0  0  3  0  0  0  0  0  0
  -31.8320  -24.2880   20.4340 N   0  0  2  0  0  4  0  0  0  0  0  0
  -32.8450  -24.2810   20.2690 H   0  0  0  0  0  0  0  0  0  0  0  0
  -28.1570  -22.9050   21.6440 C   0  0  0  0  0  2  0  0  0  0  0  0
  -25.6490  -18.6810   18.2950 C   0  0  0  0  0  2  0  0  0  0  0  0
  -26.7320  -19.0590   17.3190 C   0  0  0  0  0  2  0  0  0  0  0  0
  -26.4720  -18.3810   19.6280 C   0  0  0  0  0  2  0  0  0  0  0  0
  -27.8660  -21.2610   18.1330 C   0  0  0  0  0  2  0  0  0  0  0  0
  -27.6660  -22.1840   19.3280 C   0  0  0  0  0  2  0  0  0  0  0  0
  -28.4170  -19.9860   20.8220 C   0  0  0  0  0  2  0  0  0  0  0  0
  -27.8350  -19.6550   18.2420 C   0  0  0  0  0  3  0  0  0  0  0  0
  -28.1080  -18.6900   19.6230 C   0  0  2  0  0  0  0  0  0  0  0  0
  -28.0250  -21.6270   20.6460 N   0  0  1  0  0  4  0  0  0  0  0  0
  -27.1400  -21.4170   20.9480 H   0  0  0  0  0  0  0  0  0  0  0  0
  -29.8870  -15.7580   19.6770 C   0  0  0  0  0  0  0  0  0  0  0  0
  -30.4100  -13.2340   18.9840 C   0  0  0  0  0  2  0  0  0  0  0  0
  -29.5330  -12.5220   17.9620 C   0  0  0  0  0  2  0  0  0  0  0  0
  -28.2250  -11.9950   18.5960 C   0  0  0  0  0  2  0  0  0  0  0  0
  -27.6140  -13.0680   19.5020 C   0  0  0  0  0  3  0  0  0  0  0  0
  -28.5800  -13.6400   20.5190 C   0  0  0  0  0  2  0  0  0  0  0  0
  -29.6050  -14.3380   19.6780 N   0  0  0  0  0  0  0  0  0  0  0  0
  -31.1540  -15.8890   19.4560 O   0  0  0  0  0  0  0  0  0  0  0  0
  -28.8230  -16.9600   19.6500 N   0  0  0  0  0  0  0  0  0  0  0  0
  -27.9420  -16.4410   19.8170 H   0  0  0  0  0  0  0  0  0  0  0  0
  -25.3630  -13.5880   20.4830 C   0  0  0  0  0  0  0  0  0  0  0  0
  -24.3250  -12.8040   20.9090 C   0  0  0  0  0  0  0  0  0  0  0  0
  -24.7800  -11.4640   20.8040 C   0  0  0  0  0  0  0  0  0  0  0  0
  -26.3620  -12.7080   20.1080 N   0  0  0  0  0  0  0  0  0  0  0  0
  -26.0390  -11.4180   20.3840 N   0  0  0  0  0  0  0  0  0  0  0  0
  -24.0660  -10.2070   21.0200 C   0  0  0  0  0  0  0  0  0  0  0  0
  -24.5060   -9.2490   21.9540 C   0  0  0  0  0  3  0  0  0  0  0  0
  -23.7750   -8.0570   22.1620 C   0  0  0  0  0  3  0  0  0  0  0  0
  -22.5850   -7.8210   21.4260 C   0  0  0  0  0  0  0  0  0  0  0  0
  -22.1650   -8.7730   20.4780 C   0  0  0  0  0  3  0  0  0  0  0  0
  -22.9020   -9.9520   20.2740 C   0  0  0  0  0  3  0  0  0  0  0  0
  -21.8240   -6.6840   21.5430 O   0  0  0  0  0  0  0  0  0  0  0  0
  -21.7320   -5.9990   22.7270 C   0  0  0  0  0  0  0  0  0  0  0  0
  -21.2310   -6.6020   23.9020 C   0  0  0  0  0  3  0  0  0  0  0  0
  -21.0870   -5.8390   25.0760 C   0  0  0  0  0  3  0  0  0  0  0  0
  -21.4330   -4.4740   25.0780 C   0  0  0  0  0  0  0  0  0  0  0  0
  -21.9260   -3.8720   23.9080 C   0  0  0  0  0  3  0  0  0  0  0  0
  -22.0710   -4.6310   22.7340 C   0  0  0  0  0  0  0  0  0  0  0  0
  -22.5270   -4.0410   21.6030 F   0  0  0  0  0  0  0  0  0  0  0  0
  -21.2860   -3.7390   26.2050 F   0  0  0  0  0  0  0  0  0  0  0  0
  -22.9630  -13.3010   21.2870 C   0  0  0  0  0  0  0  0  0  0  0  0
  -22.3020  -12.5970   22.2040 N   0  0  0  0  0  0  0  0  0  0  0  0
  -22.5010  -14.3400   20.8280 O   0  0  0  0  0  0  0  0  0  0  0  0
  -22.7020  -11.7590   22.5980 H   0  0  0  0  0  0  0  0  0  0  0  0
  -21.3810  -12.8930   22.5100 H   0  0  0  0  0  0  0  0  0  0  0  0
  -25.4950  -14.9590   20.3140 N   0  0  0  0  0  0  0  0  0  0  0  0
  -24.7220  -15.5940   20.4820 H   0  0  0  0  0  0  0  0  0  0  0  0
  -26.2810  -15.4040   19.8620 H   0  0  0  0  0  0  0  0  0  0  0  0
  -31.2620  -24.5610   19.0130 C   0  0  0  0  0  2  0  0  0  0  0  0
  -30.4750  -25.9720   18.6870 C   0  0  0  0  0  2  0  0  0  0  0  0
  -28.8500  -26.2610   18.6050 C   0  0  0  0  0  2  0  0  0  0  0  0
  -28.0740  -26.7410   19.8090 O   0  0  0  0  0  0  0  0  0  0  0  0
  -24.3590  -31.7690   23.1320 C   0  0  0  0  0  0  0  0  0  0  0  0
  -26.8810  -27.4790   19.7340 C   0  0  0  0  0  0  0  0  0  0  0  0
  -23.0640  -30.4880   21.5060 C   0  0  0  0  0  3  0  0  0  0  0  0
  -24.4520  -29.0290   19.8810 C   0  0  0  0  0  0  0  0  0  0  0  0
  -25.5410  -30.9790   21.1100 C   0  0  0  0  0  2  0  0  0  0  0  0
  -25.6640  -29.6080   20.3150 C   0  0  0  0  0  0  0  0  0  0  0  0
  -26.8620  -28.8170   20.2470 C   0  0  0  0  0  3  0  0  0  0  0  0
  -25.5810  -26.9410   19.3070 C   0  0  0  0  0  3  0  0  0  0  0  0
  -24.3200  -27.7040   19.3620 C   0  0  0  0  0  3  0  0  0  0  0  0
  -23.0870  -29.8460   20.1090 C   0  0  0  0  0  2  0  0  0  0  0  0
  -24.3600  -31.0430   21.9700 N   0  0  0  0  0  0  0  0  0  0  0  0
  -23.3720  -32.0010   23.7420 O   0  0  0  0  0  0  0  0  0  0  0  0
  -22.4000  -29.4750   22.4270 C   0  0  0  0  0  0  0  0  0  0  0  0
  -21.0640  -29.2860   22.3500 N   0  0  0  0  0  0  0  0  0  0  0  0
  -23.0760  -28.8580   23.2540 O   0  0  0  0  0  0  0  0  0  0  0  0
  -20.5390  -29.8350   21.6740 H   0  0  0  0  0  0  0  0  0  0  0  0
  -17.6870  -28.1230   22.9190 C   0  0  0  0  0  0  0  0  0  0  0  0
  -20.2630  -28.3400   23.1210 C   0  0  0  0  0  3  0  0  0  0  0  0
  -20.3040  -26.9090   22.5320 C   0  0  0  0  0  2  0  0  0  0  0  0
  -19.1750  -26.6230   21.5220 C   0  0  0  0  0  2  0  0  0  0  0  0
  -17.8010  -26.7970   22.1930 C   0  0  0  0  0  2  0  0  0  0  0  0
  -18.8400  -28.8420   23.3350 C   0  0  0  0  0  0  0  0  0  0  0  0
  -18.6540  -30.0850   23.9660 C   0  0  0  0  0  3  0  0  0  0  0  0
  -17.3700  -30.6220   24.1640 C   0  0  0  0  0  3  0  0  0  0  0  0
  -16.2340  -29.8950   23.7600 C   0  0  0  0  0  3  0  0  0  0  0  0
  -16.3970  -28.6440   23.1340 C   0  0  0  0  0  3  0  0  0  0  0  0
  -25.7030  -32.2770   23.7330 C   0  0  0  0  0  3  0  0  0  0  0  0
  -25.4680  -33.6880   24.1130 N   0  0  0  0  0  0  0  0  0  0  0  0
  -25.8570  -34.7360   23.3580 C   0  0  0  0  0  0  0  0  0  0  0  0
  -26.5220  -34.6080   22.3200 O   0  0  0  0  0  0  0  0  0  0  0  0
  -24.8150  -33.9020   24.8710 H   0  0  0  0  0  0  0  0  0  0  0  0
  -24.2190  -36.5850   23.0780 C   0  0  0  0  0  1  0  0  0  0  0  0
  -25.4520  -36.1340   23.8640 C   0  0  0  0  0  3  0  0  0  0  0  0
  -27.6510  -36.8480   24.6610 C   0  0  0  0  0  1  0  0  0  0  0  0
  -26.5420  -37.1190   23.7450 N   0  0  0  0  0  0  0  0  0  0  0  0
  -26.2000  -38.0550   23.9390 H   0  0  0  0  0  0  0  0  0  0  0  0
  -26.2320  -31.4440   24.9610 C   0  0  1  0  0  0  0  0  0  0  0  0
  -25.1780  -31.2200   26.0610 C   0  0  0  0  0  1  0  0  0  0  0  0
  -26.7300  -30.0510   24.5020 C   0  0  0  0  0  1  0  0  0  0  0  0
  -27.4630  -32.1610   25.5750 C   0  0  0  0  0  1  0  0  0  0  0  0
  3  1  1  0
  4  2  1  0
  5  8  1  0
  5  2  1  0
  5  1  1  0
  6  3  1  0
  6  4  1  0
  6  7  1  6
  9 11  1  0
 10  9  1  0
 12 15  1  0
 12 13  1  0
 13 17  1  0
 15 10  1  0
 15 16  1  0
 16 11  1  0
 16 27  1  6
 16 14  1  0
 17 14  1  0
 17 18  1  1
 17  8  1  0
 19 25  1  0
 20 25  1  0
 21 22  1  0
 21 20  1  0
 23 22  1  0
 23 32  1  0
 23 24  1  0
 25 24  1  0
 26 19  2  0
 27 19  1  0
 27 28  1  0
 29 30  2  0
 30 49  1  0
 31 30  1  0
 31 34  1  0
 32 33  1  0
 32 29  1  0
 33 31  2  0
 34 35  1  0
 35 36  2  0
 37 40  1  0
 37 36  1  0
 38 37  2  0
 39 38  1  0
 39 34  2  0
 40 41  1  0
 41 46  2  0
 41 42  1  0
 42 43  2  0
 43 44  1  0
 44 48  1  0
 45 44  2  0
 46 45  1  0
 47 46  1  0
 49 50  1  0
 50 53  1  0
 50 52  1  0
 51 49  2  0
 54 55  1  0
 54 29  1  0
 56 54  1  0
 57  6  1  0
 58 57  1  0
 59 58  1  0
 59 60  1  0
 61 72  2  0
 62 60  1  0
 62 67  1  0
 63 71  1  0
 63 73  1  0
 64 70  1  0
 64 66  1  0
 65 71  1  0
 66 65  1  0
 67 66  2  0
 68 69  1  0
 68 62  2  0
 69 64  2  0
 70 63  1  0
 71 61  1  0
 73 75  2  0
 74 73  1  0
 76 74  1  0
 77 86  2  0
 77 82  1  0
 78 74  1  0
 78 82  1  0
 79 78  1  0
 80 81  1  0
 80 79  1  0
 81 77  1  0
 82 83  2  0
 83 84  1  0
 85 84  2  0
 86 85  1  0
 87 61  1  0
 87 88  1  0
 87 97  1  0
 88 91  1  0
 89 93  1  0
 89 88  1  0
 90 89  2  0
 93 92  1  0
 95 93  1  0
 95 96  1  0
 95 94  1  0
 97100  1  1
 97 98  1  0
 99 97  1  0
M  ISO  4  19 100  27 100  59 101  60 101
M  END
>  <TORSDO>  (87) 
F 21

>  <SCORE>  (87) 
-11.422

>  <name>  (87) 
89

>  <ligand_id>  (87) 
89

>  <original_smiles>  (87) 
[H]c1c([H])c([H])c2c(c1[H])C([H])([H])C([H])([H])C([H])([H])C2([H])N([H])C(=O)C1([H])N(C(=O)C([H])(N([H])C(=O)C([H])(N([H])C([H])([H])[H])C([H])([H])[H])C(C([H])([H])[H])(C([H])([H])[H])C([H])([H])[H])C([H])([H])c2c([H])c(OC([H])([H])C([H])([H])C([H])([H])[N+]3([H])C([H])([H])C([H])([H])C([H])(C([H])([H])[N+]4([H])C([H])([H])C([H])([H])C5([H])C([H])([H])C([H])([H])C([H])([H])C5(N([H])C(=O)N5C([H])([H])C([H])([H])C([H])([H])C([H])(n6nc(-c7c([H])c([H])c(Oc8c([H])c([H])c(F)c([H])c8F)c([H])c7[H])c(C(=O)N([H])[H])c6N([H])[H])C5([H])[H])C4([H])[H])C([H])([H])C3([H])[H])c([H])c([H])c2C1([H])[H]

>  <smiles>  (87) 
[H]c1c([H])c([H])c2c(c1[H])C([H])([H])C([H])([H])C([H])([H])C2([H])N([H])C(=O)C1([H])N(C(=O)C([H])(N([H])C(=O)C([H])(N([H])C([H])([H])[H])C([H])([H])[H])C(C([H])([H])[H])(C([H])([H])[H])C([H])([H])[H])C([H])([H])c2c([H])c(OC([H])([H])C([H])([H])C([H])([H])[N+]3([H])C([H])([H])C([H])([H])C([H])(C([H])([H])[N+]4([H])C([H])([H])C([H])([H])C5([H])C([H])([H])C([H])([H])C([H])([H])C5(N([H])C(=O)N5C([H])([H])C([H])([H])C([H])([H])C([H])(n6nc(-c7c([H])c([H])c(Oc8c([H])c([H])c(F)c([H])c8F)c([H])c7[H])c(C(=O)N([H])[H])c6N([H])[H])C5([H])[H])C4([H])[H])C([H])([H])C3([H])[H])c([H])c([H])c2C1([H])[H]

$$$$
90:0:0
     RDKit          3D

113122  0  0  1  0  0  0  0  0999 V2000
  -33.4780  -26.4720   21.3060 C   0  0  0  0  0  2  0  0  0  0  0  0
  -32.5240  -26.6810   20.1210 C   0  0  0  0  0  0  0  0  0  0  0  0
  -31.2730  -27.0600   20.3850 N   0  0  0  0  0  0  0  0  0  0  0  0
  -32.9250  -26.5160   18.9640 O   0  0  0  0  0  0  0  0  0  0  0  0
  -30.9570  -27.1210   21.3440 H   0  0  0  0  0  0  0  0  0  0  0  0
  -30.2980  -27.4020   19.3540 C   0  0  0  0  0  2  0  0  0  0  0  0
  -28.8650  -27.2710   19.8560 C   0  0  0  0  0  0  0  0  0  0  0  0
  -27.9300  -27.8480   19.0870 N   0  0  0  0  0  0  0  0  0  0  0  0
  -28.6220  -26.6680   20.9080 O   0  0  0  0  0  0  0  0  0  0  0  0
  -28.2590  -28.2560   18.2240 H   0  0  0  0  0  0  0  0  0  0  0  0
  -23.7650  -27.1950   19.4610 C   0  0  0  0  0  3  0  0  0  0  0  0
  -24.3700  -28.2460   20.1710 C   0  0  0  0  0  3  0  0  0  0  0  0
  -24.5240  -26.3850   18.5940 C   0  0  0  0  0  0  0  0  0  0  0  0
  -25.7480  -28.4890   20.0400 C   0  0  0  0  0  0  0  0  0  0  0  0
  -25.9140  -26.6200   18.4420 C   0  0  0  0  0  0  0  0  0  0  0  0
  -26.5330  -27.6520   19.2020 C   0  0  0  0  0  0  0  0  0  0  0  0
  -26.3450  -29.6630   20.8020 C   0  0  0  0  0  1  0  0  0  0  0  0
  -26.7270  -25.7460   17.4860 C   0  0  0  0  0  1  0  0  0  0  0  0
  -23.8210  -25.2290   17.8970 C   0  0  0  0  0  2  0  0  0  0  0  0
  -23.9810  -24.8350   15.4710 C   0  0  0  0  0  0  0  0  0  0  0  0
  -23.2360  -23.4260   13.6010 C   0  0  0  0  0  2  0  0  0  0  0  0
  -23.8170  -23.8170   12.2350 C   0  0  0  0  0  2  0  0  0  0  0  0
  -22.9240  -24.8730   11.5680 C   0  0  0  0  0  2  0  0  0  0  0  0
  -22.6320  -26.0720   12.5060 C   0  0  0  0  0  3  0  0  0  0  0  0
  -22.1610  -25.6060   13.9060 C   0  0  0  0  0  2  0  0  0  0  0  0
  -23.1260  -24.6280   14.4410 N   0  0  0  0  0  0  0  0  0  0  0  0
  -25.0570  -24.2420   15.5880 O   0  0  0  0  0  0  0  0  0  0  0  0
  -23.4400  -25.4890   16.5070 N   0  0  0  0  0  0  0  0  0  0  0  0
  -22.5480  -25.9340   16.3530 H   0  0  0  0  0  0  0  0  0  0  0  0
  -21.7930  -28.3540   11.6570 C   0  0  0  0  0  0  0  0  0  0  0  0
  -20.6540  -28.7180   10.9890 C   0  0  0  0  0  0  0  0  0  0  0  0
  -19.8820  -27.5260   10.8410 C   0  0  0  0  0  0  0  0  0  0  0  0
  -21.6750  -26.9920   11.8930 N   0  0  0  0  0  0  0  0  0  0  0  0
  -20.4870  -26.5100   11.4410 N   0  0  0  0  0  0  0  0  0  0  0  0
  -18.6270  -27.2820   10.1170 C   0  0  0  0  0  0  0  0  0  0  0  0
  -17.5760  -26.5330   10.6900 C   0  0  0  0  0  3  0  0  0  0  0  0
  -16.3720  -26.3270    9.9810 C   0  0  0  0  0  3  0  0  0  0  0  0
  -16.2090  -26.8770    8.6870 C   0  0  0  0  0  0  0  0  0  0  0  0
  -17.2660  -27.6060    8.1130 C   0  0  0  0  0  3  0  0  0  0  0  0
  -18.4640  -27.8040    8.8170 C   0  0  0  0  0  3  0  0  0  0  0  0
  -15.0850  -26.7090    7.9150 O   0  0  0  0  0  0  0  0  0  0  0  0
  -13.9430  -26.1390    8.4180 C   0  0  0  0  0  0  0  0  0  0  0  0
  -13.2600  -26.6950    9.5210 C   0  0  0  0  0  3  0  0  0  0  0  0
  -12.0510  -26.1210    9.9640 C   0  0  0  0  0  3  0  0  0  0  0  0
  -11.5210  -24.9970    9.3020 C   0  0  0  0  0  0  0  0  0  0  0  0
  -12.1990  -24.4450    8.2010 C   0  0  0  0  0  3  0  0  0  0  0  0
  -13.4050  -25.0160    7.7590 C   0  0  0  0  0  0  0  0  0  0  0  0
  -14.0430  -24.4930    6.6840 F   0  0  0  0  0  0  0  0  0  0  0  0
  -10.3570  -24.4490    9.7210 F   0  0  0  0  0  0  0  0  0  0  0  0
  -20.3380  -30.0770   10.4360 C   0  0  0  0  0  0  0  0  0  0  0  0
  -19.0790  -30.4940   10.5140 N   0  0  0  0  0  0  0  0  0  0  0  0
  -21.2200  -30.8020    9.9760 O   0  0  0  0  0  0  0  0  0  0  0  0
  -18.3570  -29.9070   10.9060 H   0  0  0  0  0  0  0  0  0  0  0  0
  -18.8360  -31.4150   10.1770 H   0  0  0  0  0  0  0  0  0  0  0  0
  -22.9250  -29.0550   12.0640 N   0  0  0  0  0  0  0  0  0  0  0  0
  -23.0590  -30.0410   11.8680 H   0  0  0  0  0  0  0  0  0  0  0  0
  -23.7170  -28.6350   12.5360 H   0  0  0  0  0  0  0  0  0  0  0  0
  -35.0050  -28.2890   20.6390 C   0  0  0  0  0  0  0  0  0  0  0  0
  -34.7960  -27.0140   20.9790 N   0  0  0  0  0  0  0  0  0  0  0  0
  -34.2210  -29.2000   20.9130 O   0  0  0  0  0  0  0  0  0  0  0  0
  -35.4820  -26.3450   20.6610 H   0  0  0  0  0  0  0  0  0  0  0  0
  -38.5250  -28.8180   18.1840 C   0  0  0  0  0  3  0  0  0  0  0  0
  -37.2820  -29.2810   17.7180 C   0  0  0  0  0  3  0  0  0  0  0  0
  -37.4740  -28.0590   20.2380 C   0  0  0  0  0  3  0  0  0  0  0  0
  -36.2150  -28.5160   19.7800 C   0  0  0  0  0  0  0  0  0  0  0  0
  -38.6330  -28.2040   19.4460 C   0  0  0  0  0  0  0  0  0  0  0  0
  -36.1160  -29.1440   18.5060 C   0  0  0  0  0  0  0  0  0  0  0  0
  -39.9740  -27.6620   19.9230 C   0  0  1  0  0  0  0  0  0  0  0  0
  -40.9790  -28.4150   19.4770 F   0  0  0  0  0  0  0  0  0  0  0  0
  -40.0380  -27.6270   21.2560 F   0  0  0  0  0  0  0  0  0  0  0  0
  -40.1290  -26.4220   19.4570 F   0  0  0  0  0  0  0  0  0  0  0  0
  -34.7670  -29.6310   17.9600 C   0  0  0  0  0  2  0  0  0  0  0  0
  -34.8140  -30.8560   17.2250 O   0  0  0  0  0  0  0  0  0  0  0  0
  -33.8250  -37.0080   20.7280 C   0  0  0  0  0  0  0  0  0  0  0  0
  -33.9920  -31.8970   17.5990 C   0  0  0  0  0  0  0  0  0  0  0  0
  -31.7790  -35.8820   19.8980 C   0  0  0  0  0  3  0  0  0  0  0  0
  -32.1660  -33.9420   18.2900 C   0  0  0  0  0  0  0  0  0  0  0  0
  -34.0160  -35.5740   18.7040 C   0  0  0  0  0  2  0  0  0  0  0  0
  -33.5430  -34.1910   18.3150 C   0  0  0  0  0  0  0  0  0  0  0  0
  -34.4590  -33.1770   17.9810 C   0  0  0  0  0  3  0  0  0  0  0  0
  -32.6020  -31.6610   17.5720 C   0  0  0  0  0  3  0  0  0  0  0  0
  -31.6860  -32.6720   17.9250 C   0  0  0  0  0  3  0  0  0  0  0  0
  -31.2590  -35.0910   18.6660 C   0  0  0  0  0  2  0  0  0  0  0  0
  -33.2490  -36.1690   19.8220 N   0  0  0  0  0  0  0  0  0  0  0  0
  -33.1440  -37.5810   21.5890 O   0  0  0  0  0  0  0  0  0  0  0  0
  -31.3700  -35.1200   21.1780 C   0  0  0  0  0  0  0  0  0  0  0  0
  -30.4600  -35.7200   21.9620 N   0  0  0  0  0  0  0  0  0  0  0  0
  -31.8420  -34.0100   21.4340 O   0  0  0  0  0  0  0  0  0  0  0  0
  -30.1280  -36.6330   21.6840 H   0  0  0  0  0  0  0  0  0  0  0  0
  -28.2250  -36.4470   24.7040 C   0  0  0  0  0  0  0  0  0  0  0  0
  -29.8950  -35.1760   23.1960 C   0  0  0  0  0  3  0  0  0  0  0  0
  -28.7290  -34.2060   22.8950 C   0  0  0  0  0  2  0  0  0  0  0  0
  -27.3590  -34.8900   22.9070 C   0  0  0  0  0  2  0  0  0  0  0  0
  -27.0900  -35.5340   24.2710 C   0  0  0  0  0  2  0  0  0  0  0  0
  -29.5390  -36.2880   24.1870 C   0  0  0  0  0  0  0  0  0  0  0  0
  -30.5500  -37.1820   24.5970 C   0  0  0  0  0  3  0  0  0  0  0  0
  -30.2690  -38.2210   25.5040 C   0  0  0  0  0  3  0  0  0  0  0  0
  -28.9710  -38.3650   26.0250 C   0  0  0  0  0  3  0  0  0  0  0  0
  -27.9550  -37.4760   25.6310 C   0  0  0  0  0  3  0  0  0  0  0  0
  -35.3570  -37.3100   20.7120 C   0  0  0  0  0  3  0  0  0  0  0  0
  -35.9460  -37.6160   22.1420 C   0  0  1  0  0  0  0  0  0  0  0  0
  -35.3680  -38.8960   22.7890 C   0  0  0  0  0  1  0  0  0  0  0  0
  -35.6820  -36.4360   23.1060 C   0  0  0  0  0  1  0  0  0  0  0  0
  -37.4820  -37.7830   22.0530 C   0  0  0  0  0  1  0  0  0  0  0  0
  -35.5770  -38.4420   19.8030 N   0  0  0  0  0  0  0  0  0  0  0  0
  -36.2480  -38.3650   18.6460 C   0  0  0  0  0  0  0  0  0  0  0  0
  -36.8140  -37.3350   18.2670 O   0  0  0  0  0  0  0  0  0  0  0  0
  -35.0960  -39.3020   20.0230 H   0  0  0  0  0  0  0  0  0  0  0  0
  -35.2970  -39.4920   16.6100 C   0  0  0  0  0  1  0  0  0  0  0  0
  -36.2980  -39.6310   17.7690 C   0  0  0  0  0  3  0  0  0  0  0  0
  -38.5890  -40.3630   18.2560 C   0  0  0  0  0  1  0  0  0  0  0  0
  -37.6440  -39.9240   17.2320 N   0  0  0  0  0  0  0  0  0  0  0  0
  -37.5990  -40.6440   16.5160 H   0  0  0  0  0  0  0  0  0  0  0  0
  2  3  1  0
  2  1  1  0
  3  5  1  0
  4  2  2  0
  6  7  1  0
  6  3  1  0
  7  9  2  0
  8 16  1  0
  8  7  1  0
 10  8  1  0
 11 12  1  0
 13 11  2  0
 14 12  2  0
 14 17  1  0
 15 13  1  0
 15 16  2  0
 16 14  1  0
 18 15  1  0
 19 13  1  0
 20 27  2  0
 20 28  1  0
 21 26  1  0
 22 21  1  0
 23 22  1  0
 24 23  1  0
 24 25  1  0
 25 26  1  0
 26 20  1  0
 28 19  1  0
 29 28  1  0
 30 33  1  0
 30 55  1  0
 31 30  2  0
 32 31  1  0
 32 34  2  0
 33 24  1  0
 34 33  1  0
 35 36  1  0
 35 32  1  0
 37 36  2  0
 38 37  1  0
 39 38  2  0
 39 40  1  0
 40 35  2  0
 41 42  1  0
 41 38  1  0
 42 43  1  0
 43 44  2  0
 45 49  1  0
 45 44  1  0
 46 45  2  0
 47 46  1  0
 47 42  2  0
 48 47  1  0
 50 51  1  0
 50 31  1  0
 51 53  1  0
 52 50  2  0
 54 51  1  0
 55 57  1  0
 56 55  1  0
 58 60  2  0
 58 59  1  0
 59  1  1  0
 61 59  1  0
 62 66  1  0
 63 62  2  0
 63 67  1  0
 65 64  1  0
 65 58  1  0
 66 68  1  0
 66 64  2  0
 67 65  2  0
 68 70  1  1
 69 68  1  0
 71 68  1  0
 72 67  1  0
 73 75  1  0
 73 72  1  0
 74 85  2  0
 75 80  1  0
 76 86  1  0
 77 79  1  0
 77 83  1  0
 78 84  1  0
 79 78  1  0
 80 79  2  0
 81 75  2  0
 81 82  1  0
 82 77  2  0
 83 76  1  0
 84 76  1  0
 84 74  1  0
 86 88  2  0
 86 87  1  0
 89 87  1  0
 90 99  1  0
 91 87  1  0
 91 95  1  0
 92 93  1  0
 92 91  1  0
 93 94  1  0
 94 90  1  0
 95 96  1  0
 95 90  2  0
 96 97  2  0
 97 98  1  0
 99 98  2  0
100 74  1  0
100101  1  0
101102  1  1
101103  1  0
104101  1  0
105108  1  0
105100  1  0
106105  1  0
107106  2  0
110109  1  0
110106  1  0
112110  1  0
112111  1  0
113112  1  0
M  ISO  4  20 100  28 100  72 101  73 101
M  END
>  <TORSDO>  (88) 
F 25

>  <SCORE>  (88) 
-5.526

>  <name>  (88) 
90

>  <ligand_id>  (88) 
90

>  <original_smiles>  (88) 
[H]c1c([H])c([H])c2c(c1[H])C([H])([H])C([H])([H])C([H])([H])C2([H])N([H])C(=O)C1([H])N(C(=O)C([H])(N([H])C(=O)C([H])(N([H])C([H])([H])[H])C([H])([H])[H])C(C([H])([H])[H])(C([H])([H])[H])C([H])([H])[H])C([H])([H])c2c([H])c(OC([H])([H])c3c([H])c([H])c(C(F)(F)F)c([H])c3C(=O)N([H])C([H])([H])C(=O)N([H])C([H])([H])C(=O)N([H])c3c(C([H])([H])[H])c([H])c([H])c(C([H])([H])N([H])C(=O)N4C([H])([H])C([H])([H])C([H])([H])C([H])(n5nc(-c6c([H])c([H])c(Oc7c([H])c([H])c(F)c([H])c7F)c([H])c6[H])c(C(=O)N([H])[H])c5N([H])[H])C4([H])[H])c3C([H])([H])[H])c([H])c([H])c2C1([H])[H]

>  <smiles>  (88) 
[H]c1c([H])c([H])c2c(c1[H])C([H])([H])C([H])([H])C([H])([H])C2([H])N([H])C(=O)C1([H])N(C(=O)C([H])(N([H])C(=O)C([H])(N([H])C([H])([H])[H])C([H])([H])[H])C(C([H])([H])[H])(C([H])([H])[H])C([H])([H])[H])C([H])([H])c2c([H])c(OC([H])([H])c3c([H])c([H])c(C(F)(F)F)c([H])c3C(=O)N([H])C([H])([H])C(=O)N([H])C([H])([H])C(=O)N([H])c3c(C([H])([H])[H])c([H])c([H])c(C([H])([H])N([H])C(=O)N4C([H])([H])C([H])([H])C([H])([H])C([H])(n5nc(-c6c([H])c([H])c(Oc7c([H])c([H])c(F)c([H])c7F)c([H])c6[H])c(C(=O)N([H])[H])c5N([H])[H])C4([H])[H])c3C([H])([H])[H])c([H])c([H])c2C1([H])[H]

$$$$
91:0:0
     RDKit          3D

 91100  0  0  1  0  0  0  0  0999 V2000
  -30.5700  -19.1730   18.6960 C   0  0  0  0  0  3  0  0  0  0  0  0
  -30.5780  -17.8070   19.1200 C   0  0  0  0  0  3  0  0  0  0  0  0
  -29.2200  -18.4120   21.0410 C   0  0  0  0  0  3  0  0  0  0  0  0
  -29.8920  -20.1600   19.4520 C   0  0  0  0  0  0  0  0  0  0  0  0
  -29.2390  -19.7980   20.6140 C   0  0  0  0  0  0  0  0  0  0  0  0
  -29.9040  -17.3660   20.2980 C   0  0  0  0  0  0  0  0  0  0  0  0
  -29.7230  -21.6720   19.1650 C   0  0  0  0  0  2  0  0  0  0  0  0
  -28.6230  -21.0960   21.2210 C   0  0  0  0  0  2  0  0  0  0  0  0
  -28.7330  -22.2030   20.1700 N   0  0  1  0  0  4  0  0  0  0  0  0
  -27.8430  -22.1560   19.6960 H   0  0  0  0  0  0  0  0  0  0  0  0
  -30.6180  -14.8150   20.3590 C   0  0  0  0  0  0  0  0  0  0  0  0
  -30.4750  -12.5170   19.3800 C   0  0  0  0  0  2  0  0  0  0  0  0
  -29.5650  -12.6010   18.1330 C   0  0  0  0  0  2  0  0  0  0  0  0
  -28.0820  -12.4240   18.5190 C   0  0  0  0  0  2  0  0  0  0  0  0
  -27.6810  -13.2950   19.7440 C   0  0  0  0  0  3  0  0  0  0  0  0
  -28.7160  -13.2030   20.8880 C   0  0  0  0  0  2  0  0  0  0  0  0
  -30.0240  -13.5680   20.3270 N   0  0  0  0  0  0  0  0  0  0  0  0
  -31.7930  -14.9390   20.0020 O   0  0  0  0  0  0  0  0  0  0  0  0
  -29.8240  -15.9170   20.6610 N   0  0  0  0  0  0  0  0  0  0  0  0
  -28.9530  -15.6470   21.0910 H   0  0  0  0  0  0  0  0  0  0  0  0
  -25.2710  -13.8700   20.4200 C   0  0  0  0  0  0  0  0  0  0  0  0
  -24.2040  -13.0930   20.7820 C   0  0  0  0  0  0  0  0  0  0  0  0
  -24.6780  -11.7440   20.7750 C   0  0  0  0  0  0  0  0  0  0  0  0
  -26.3270  -12.9970   20.2110 N   0  0  0  0  0  0  0  0  0  0  0  0
  -25.9750  -11.7140   20.4840 N   0  0  0  0  0  0  0  0  0  0  0  0
  -23.9540  -10.4820   20.9720 C   0  0  0  0  0  0  0  0  0  0  0  0
  -24.3730   -9.5290   21.9260 C   0  0  0  0  0  3  0  0  0  0  0  0
  -23.6520   -8.3290   22.1070 C   0  0  0  0  0  3  0  0  0  0  0  0
  -22.4940   -8.0760   21.3330 C   0  0  0  0  0  0  0  0  0  0  0  0
  -22.0930   -9.0160   20.3690 C   0  0  0  0  0  3  0  0  0  0  0  0
  -22.8160  -10.2080   20.1860 C   0  0  0  0  0  3  0  0  0  0  0  0
  -21.7430   -6.9270   21.4210 O   0  0  0  0  0  0  0  0  0  0  0  0
  -21.6740   -6.2000   22.5800 C   0  0  0  0  0  0  0  0  0  0  0  0
  -21.2160   -6.7650   23.7910 C   0  0  0  0  0  3  0  0  0  0  0  0
  -21.0950   -5.9610   24.9420 C   0  0  0  0  0  3  0  0  0  0  0  0
  -21.4200   -4.5950   24.8850 C   0  0  0  0  0  0  0  0  0  0  0  0
  -21.8720   -4.0270   23.6800 C   0  0  0  0  0  3  0  0  0  0  0  0
  -21.9970   -4.8260   22.5320 C   0  0  0  0  0  0  0  0  0  0  0  0
  -22.4120   -4.2700   21.3670 F   0  0  0  0  0  0  0  0  0  0  0  0
  -21.2980   -3.8210   25.9910 F   0  0  0  0  0  0  0  0  0  0  0  0
  -22.7990  -13.5690   21.0200 C   0  0  0  0  0  0  0  0  0  0  0  0
  -22.0510  -12.8820   21.8770 N   0  0  0  0  0  0  0  0  0  0  0  0
  -22.3670  -14.5860   20.4800 O   0  0  0  0  0  0  0  0  0  0  0  0
  -22.4110  -12.0600   22.3380 H   0  0  0  0  0  0  0  0  0  0  0  0
  -21.1080  -13.1870   22.0740 H   0  0  0  0  0  0  0  0  0  0  0  0
  -25.4230  -15.2410   20.2320 N   0  0  0  0  0  0  0  0  0  0  0  0
  -24.6360  -15.8750   20.3270 H   0  0  0  0  0  0  0  0  0  0  0  0
  -26.2580  -15.6940   19.8840 H   0  0  0  0  0  0  0  0  0  0  0  0
  -28.8990  -23.6820   20.6380 C   0  0  0  0  0  3  0  0  0  0  0  0
  -28.1720  -24.8940   19.8280 C   0  0  0  0  0  3  0  0  0  0  0  0
  -28.3250  -26.3580   20.2140 O   0  0  0  0  0  0  0  0  0  0  0  0
  -24.6570  -31.8770   23.2230 C   0  0  0  0  0  0  0  0  0  0  0  0
  -27.2410  -27.2730   20.1300 C   0  0  0  0  0  0  0  0  0  0  0  0
  -23.4520  -30.4900   21.5770 C   0  0  0  0  0  3  0  0  0  0  0  0
  -24.9010  -28.9500   20.1310 C   0  0  0  0  0  0  0  0  0  0  0  0
  -25.9990  -30.7860   21.4030 C   0  0  0  0  0  2  0  0  0  0  0  0
  -26.0740  -29.4080   20.7420 C   0  0  0  0  0  0  0  0  0  0  0  0
  -27.2440  -28.5780   20.7400 C   0  0  0  0  0  3  0  0  0  0  0  0
  -26.0530  -26.9130   19.4510 C   0  0  0  0  0  3  0  0  0  0  0  0
  -24.8980  -27.7160   19.4710 C   0  0  0  0  0  3  0  0  0  0  0  0
  -23.6690  -29.8320   20.1890 C   0  0  0  0  0  2  0  0  0  0  0  0
  -24.7210  -31.0690   22.1230 N   0  0  0  0  0  0  0  0  0  0  0  0
  -23.5710  -32.1510   23.7580 O   0  0  0  0  0  0  0  0  0  0  0  0
  -22.7870  -29.4650   22.5290 C   0  0  0  0  0  0  0  0  0  0  0  0
  -21.4590  -29.2950   22.4110 N   0  0  0  0  0  0  0  0  0  0  0  0
  -23.4690  -28.8270   23.3350 O   0  0  0  0  0  0  0  0  0  0  0  0
  -20.9680  -29.8610   21.7350 H   0  0  0  0  0  0  0  0  0  0  0  0
  -18.0800  -28.0980   22.9220 C   0  0  0  0  0  0  0  0  0  0  0  0
  -20.6410  -28.3540   23.1810 C   0  0  0  0  0  3  0  0  0  0  0  0
  -20.7380  -26.9250   22.5980 C   0  0  0  0  0  2  0  0  0  0  0  0
  -19.6320  -26.6090   21.5860 C   0  0  0  0  0  2  0  0  0  0  0  0
  -18.2530  -26.7520   22.2370 C   0  0  0  0  0  2  0  0  0  0  0  0
  -19.2030  -28.8560   23.3510 C   0  0  0  0  0  0  0  0  0  0  0  0
  -18.9860  -30.1140   23.9550 C   0  0  0  0  0  3  0  0  0  0  0  0
  -17.6830  -30.6150   24.1330 C   0  0  0  0  0  3  0  0  0  0  0  0
  -16.5760  -29.8540   23.7200 C   0  0  0  0  0  3  0  0  0  0  0  0
  -16.7760  -28.5980   23.1200 C   0  0  0  0  0  3  0  0  0  0  0  0
  -25.9380  -32.5100   23.8460 C   0  0  0  0  0  3  0  0  0  0  0  0
  -25.6280  -33.9080   24.1780 N   0  0  0  0  0  0  0  0  0  0  0  0
  -25.9610  -34.9630   23.4220 C   0  0  0  0  0  0  0  0  0  0  0  0
  -26.6270  -34.8600   22.3880 O   0  0  0  0  0  0  0  0  0  0  0  0
  -25.0370  -34.0630   24.9820 H   0  0  0  0  0  0  0  0  0  0  0  0
  -24.2390  -36.7640   23.0740 C   0  0  0  0  0  1  0  0  0  0  0  0
  -25.4800  -36.3540   23.8830 C   0  0  0  0  0  3  0  0  0  0  0  0
  -27.6180  -37.2300   24.7160 C   0  0  0  0  0  1  0  0  0  0  0  0
  -26.5170  -37.4040   23.7730 N   0  0  0  0  0  0  0  0  0  0  0  0
  -26.1150  -38.3240   23.9220 H   0  0  0  0  0  0  0  0  0  0  0  0
  -26.4490  -31.7380   25.1230 C   0  0  1  0  0  0  0  0  0  0  0  0
  -25.3560  -31.5030   26.1910 C   0  0  0  0  0  1  0  0  0  0  0  0
  -27.0270  -30.3590   24.7340 C   0  0  0  0  0  1  0  0  0  0  0  0
  -27.6050  -32.5280   25.7830 C   0  0  0  0  0  1  0  0  0  0  0  0
  1  2  2  0
  1  4  1  0
  2  6  1  0
  4  5  2  0
  5  3  1  0
  5  8  1  0
  6 19  1  0
  6  3  2  0
  7  4  1  0
  7  9  1  0
  9 49  1  0
  9  8  1  0
  9 10  1  6
 11 19  1  0
 12 17  1  0
 13 14  1  0
 13 12  1  0
 15 14  1  0
 15 24  1  0
 15 16  1  0
 17 11  1  0
 17 16  1  0
 18 11  2  0
 19 20  1  0
 21 22  2  0
 22 41  1  0
 23 22  1  0
 23 26  1  0
 24 21  1  0
 24 25  1  0
 25 23  2  0
 26 27  1  0
 27 28  2  0
 29 32  1  0
 29 28  1  0
 30 29  2  0
 31 30  1  0
 31 26  2  0
 32 33  1  0
 33 34  1  0
 34 35  2  0
 36 35  1  0
 36 40  1  0
 37 36  2  0
 38 33  2  0
 38 37  1  0
 39 38  1  0
 41 42  1  0
 42 45  1  0
 42 44  1  0
 43 41  2  0
 46 47  1  0
 46 21  1  0
 48 46  1  0
 50 51  1  0
 50 49  2  0
 52 63  2  0
 53 51  1  0
 53 58  1  0
 54 62  1  0
 54 64  1  0
 55 61  1  0
 55 57  1  0
 56 62  1  0
 57 56  1  0
 58 57  2  0
 59 60  1  0
 59 53  2  0
 60 55  2  0
 61 54  1  0
 62 52  1  0
 64 66  2  0
 65 64  1  0
 67 65  1  0
 68 77  2  0
 68 73  1  0
 69 65  1  0
 69 73  1  0
 70 69  1  0
 71 72  1  0
 71 70  1  0
 72 68  1  0
 73 74  2  0
 74 75  1  0
 76 75  2  0
 77 76  1  0
 78 52  1  0
 78 79  1  0
 78 88  1  0
 79 82  1  0
 80 84  1  0
 80 79  1  0
 81 80  2  0
 84 83  1  0
 86 84  1  0
 86 87  1  0
 86 85  1  0
 88 91  1  1
 88 89  1  0
 90 88  1  0
M  ISO  4  11 100  19 100  50 101  51 101
M  END
>  <TORSDO>  (89) 
F 18

>  <SCORE>  (89) 
-14.433

>  <name>  (89) 
91

>  <ligand_id>  (89) 
91

>  <original_smiles>  (89) 
[H]c1c([H])c([H])c2c(c1[H])C([H])([H])C([H])([H])C([H])([H])C2([H])N([H])C(=O)C1([H])N(C(=O)C([H])(N([H])C(=O)C([H])(N([H])C([H])([H])[H])C([H])([H])[H])C(C([H])([H])[H])(C([H])([H])[H])C([H])([H])[H])C([H])([H])c2c([H])c(OC([H])([H])C([H])([H])[N+]3([H])C([H])([H])c4c([H])c([H])c(N([H])C(=O)N5C([H])([H])C([H])([H])C([H])([H])C([H])(n6nc(-c7c([H])c([H])c(Oc8c([H])c([H])c(F)c([H])c8F)c([H])c7[H])c(C(=O)N([H])[H])c6N([H])[H])C5([H])[H])c([H])c4C3([H])[H])c([H])c([H])c2C1([H])[H]

>  <smiles>  (89) 
[H]c1c([H])c([H])c2c(c1[H])C([H])([H])C([H])([H])C([H])([H])C2([H])N([H])C(=O)C1([H])N(C(=O)C([H])(N([H])C(=O)C([H])(N([H])C([H])([H])[H])C([H])([H])[H])C(C([H])([H])[H])(C([H])([H])[H])C([H])([H])[H])C([H])([H])c2c([H])c(OC([H])([H])C([H])([H])[N+]3([H])C([H])([H])c4c([H])c([H])c(N([H])C(=O)N5C([H])([H])C([H])([H])C([H])([H])C([H])(n6nc(-c7c([H])c([H])c(Oc8c([H])c([H])c(F)c([H])c8F)c([H])c7[H])c(C(=O)N([H])[H])c6N([H])[H])C5([H])[H])c([H])c4C3([H])[H])c([H])c([H])c2C1([H])[H]

$$$$
92:0:0
     RDKit          3D

 92101  0  0  1  0  0  0  0  0999 V2000
  -30.6840  -14.6450   20.4740 C   0  0  0  0  0  0  0  0  0  0  0  0
  -30.3830  -12.4160   19.4300 C   0  0  0  0  0  2  0  0  0  0  0  0
  -29.4480  -12.4940   18.2060 C   0  0  0  0  0  2  0  0  0  0  0  0
  -27.9680  -12.3940   18.6340 C   0  0  0  0  0  2  0  0  0  0  0  0
  -27.6040  -13.2810   19.8560 C   0  0  0  0  0  3  0  0  0  0  0  0
  -28.6680  -13.1880   20.9700 C   0  0  0  0  0  2  0  0  0  0  0  0
  -29.9720  -13.4800   20.3590 N   0  0  0  0  0  0  0  0  0  0  0  0
  -31.9060  -14.6570   20.3200 O   0  0  0  0  0  0  0  0  0  0  0  0
  -28.6750  -18.6430   18.4770 C   0  0  0  0  0  3  0  0  0  0  0  0
  -28.7240  -20.0340   18.7210 C   0  0  0  0  0  3  0  0  0  0  0  0
  -29.8760  -19.6600   20.8540 C   0  0  0  0  0  3  0  0  0  0  0  0
  -29.2480  -17.7820   19.4250 C   0  0  0  0  0  0  0  0  0  0  0  0
  -29.8290  -18.2580   20.5760 C   0  0  0  0  0  0  0  0  0  0  0  0
  -29.3260  -20.5700   19.8880 C   0  0  0  0  0  0  0  0  0  0  0  0
  -29.4130  -16.3070   19.3200 C   0  0  0  0  0  0  0  0  0  0  0  0
  -30.3740  -17.0280   21.3080 C   0  0  0  0  0  2  0  0  0  0  0  0
  -30.0100  -15.8410   20.4550 N   0  0  0  0  0  0  0  0  0  0  0  0
  -29.1050  -15.7000   18.2930 O   0  0  0  0  0  0  0  0  0  0  0  0
  -25.2180  -13.9140   20.5570 C   0  0  0  0  0  0  0  0  0  0  0  0
  -24.1410  -13.1520   20.9150 C   0  0  0  0  0  0  0  0  0  0  0  0
  -24.5940  -11.7970   20.9010 C   0  0  0  0  0  0  0  0  0  0  0  0
  -26.2570  -13.0190   20.3440 N   0  0  0  0  0  0  0  0  0  0  0  0
  -25.8880  -11.7440   20.6160 N   0  0  0  0  0  0  0  0  0  0  0  0
  -23.8590  -10.5410   21.0840 C   0  0  0  0  0  0  0  0  0  0  0  0
  -24.2870   -9.5680   22.0130 C   0  0  0  0  0  3  0  0  0  0  0  0
  -23.5530   -8.3750   22.1870 C   0  0  0  0  0  3  0  0  0  0  0  0
  -22.3780   -8.1480   21.4310 C   0  0  0  0  0  0  0  0  0  0  0  0
  -21.9710   -9.1110   20.4900 C   0  0  0  0  0  3  0  0  0  0  0  0
  -22.7050  -10.2960   20.3140 C   0  0  0  0  0  3  0  0  0  0  0  0
  -21.6160   -7.0090   21.5150 O   0  0  0  0  0  0  0  0  0  0  0  0
  -21.5720   -6.2550   22.6610 C   0  0  0  0  0  0  0  0  0  0  0  0
  -21.1840   -6.8070   23.9000 C   0  0  0  0  0  3  0  0  0  0  0  0
  -21.0860   -5.9820   25.0380 C   0  0  0  0  0  3  0  0  0  0  0  0
  -21.3670   -4.6060   24.9370 C   0  0  0  0  0  0  0  0  0  0  0  0
  -21.7490   -4.0540   23.7020 C   0  0  0  0  0  3  0  0  0  0  0  0
  -21.8490   -4.8770   22.5660 C   0  0  0  0  0  0  0  0  0  0  0  0
  -22.1970   -4.3370   21.3730 F   0  0  0  0  0  0  0  0  0  0  0  0
  -21.2650   -3.8110   26.0270 F   0  0  0  0  0  0  0  0  0  0  0  0
  -22.7430  -13.6400   21.1600 C   0  0  0  0  0  0  0  0  0  0  0  0
  -21.9990  -12.9580   22.0210 N   0  0  0  0  0  0  0  0  0  0  0  0
  -22.3180  -14.6630   20.6210 O   0  0  0  0  0  0  0  0  0  0  0  0
  -22.3540  -12.1310   22.4780 H   0  0  0  0  0  0  0  0  0  0  0  0
  -21.0580  -13.2650   22.2270 H   0  0  0  0  0  0  0  0  0  0  0  0
  -25.3940  -15.2820   20.3710 N   0  0  0  0  0  0  0  0  0  0  0  0
  -24.6270  -15.9390   20.4620 H   0  0  0  0  0  0  0  0  0  0  0  0
  -26.2460  -15.7150   20.0410 H   0  0  0  0  0  0  0  0  0  0  0  0
  -29.3830  -21.9870   19.9420 N   0  0  0  0  0  0  0  0  0  0  0  0
  -29.0570  -22.4550   19.1000 H   0  0  0  0  0  0  0  0  0  0  0  0
  -29.2650  -22.7950   21.1640 C   0  0  0  0  0  2  0  0  0  0  0  0
  -29.4660  -24.3430   20.9440 C   0  0  0  0  0  2  0  0  0  0  0  0
  -28.2700  -25.1680   20.3690 C   0  0  0  0  0  2  0  0  0  0  0  0
  -28.4470  -26.6160   20.4050 O   0  0  0  0  0  0  0  0  0  0  0  0
  -24.6240  -31.9450   23.2710 C   0  0  0  0  0  0  0  0  0  0  0  0
  -27.2990  -27.4010   20.3220 C   0  0  0  0  0  0  0  0  0  0  0  0
  -23.4420  -30.5160   21.6380 C   0  0  0  0  0  3  0  0  0  0  0  0
  -24.9150  -28.9530   20.2580 C   0  0  0  0  0  0  0  0  0  0  0  0
  -25.9760  -30.8590   21.4740 C   0  0  0  0  0  2  0  0  0  0  0  0
  -26.0700  -29.4740   20.8540 C   0  0  0  0  0  0  0  0  0  0  0  0
  -27.2660  -28.7080   20.8770 C   0  0  0  0  0  3  0  0  0  0  0  0
  -26.1220  -26.9150   19.7040 C   0  0  0  0  0  3  0  0  0  0  0  0
  -24.9400  -27.6760   19.6760 C   0  0  0  0  0  3  0  0  0  0  0  0
  -23.6720  -29.8160   20.2730 C   0  0  0  0  0  2  0  0  0  0  0  0
  -24.6980  -31.1230   22.1860 N   0  0  0  0  0  0  0  0  0  0  0  0
  -23.5340  -32.2270   23.7890 O   0  0  0  0  0  0  0  0  0  0  0  0
  -22.7740  -29.5120   22.6070 C   0  0  0  0  0  0  0  0  0  0  0  0
  -21.4500  -29.3320   22.4680 N   0  0  0  0  0  0  0  0  0  0  0  0
  -23.4450  -28.8970   23.4390 O   0  0  0  0  0  0  0  0  0  0  0  0
  -20.9700  -29.8790   21.7660 H   0  0  0  0  0  0  0  0  0  0  0  0
  -18.0660  -28.1540   22.9440 C   0  0  0  0  0  0  0  0  0  0  0  0
  -20.6220  -28.4080   23.2430 C   0  0  0  0  0  3  0  0  0  0  0  0
  -20.7270  -26.9690   22.6890 C   0  0  0  0  0  2  0  0  0  0  0  0
  -19.6350  -26.6340   21.6670 C   0  0  0  0  0  2  0  0  0  0  0  0
  -18.2460  -26.7930   22.2920 C   0  0  0  0  0  2  0  0  0  0  0  0
  -19.1820  -28.9180   23.3770 C   0  0  0  0  0  0  0  0  0  0  0  0
  -18.9600  -30.1920   23.9450 C   0  0  0  0  0  3  0  0  0  0  0  0
  -17.6550  -30.7000   24.0860 C   0  0  0  0  0  3  0  0  0  0  0  0
  -16.5530  -29.9310   23.6710 C   0  0  0  0  0  3  0  0  0  0  0  0
  -16.7600  -28.6610   23.1060 C   0  0  0  0  0  3  0  0  0  0  0  0
  -25.8990  -32.5880   23.8980 C   0  0  0  0  0  3  0  0  0  0  0  0
  -26.4080  -31.8300   25.1850 C   0  0  1  0  0  0  0  0  0  0  0  0
  -25.3080  -31.5970   26.2470 C   0  0  0  0  0  1  0  0  0  0  0  0
  -27.0000  -30.4520   24.8080 C   0  0  0  0  0  1  0  0  0  0  0  0
  -27.5500  -32.6350   25.8500 C   0  0  0  0  0  1  0  0  0  0  0  0
  -25.5810  -33.9880   24.2120 N   0  0  0  0  0  0  0  0  0  0  0  0
  -25.9140  -35.0340   23.4460 C   0  0  0  0  0  0  0  0  0  0  0  0
  -26.5930  -34.9240   22.4210 O   0  0  0  0  0  0  0  0  0  0  0  0
  -24.9790  -34.1470   25.0070 H   0  0  0  0  0  0  0  0  0  0  0  0
  -24.1750  -36.8090   23.0640 C   0  0  0  0  0  1  0  0  0  0  0  0
  -25.4150  -36.4240   23.8850 C   0  0  0  0  0  3  0  0  0  0  0  0
  -27.5440  -37.3280   24.7090 C   0  0  0  0  0  1  0  0  0  0  0  0
  -26.4410  -37.4840   23.7660 N   0  0  0  0  0  0  0  0  0  0  0  0
  -26.0280  -38.4010   23.9100 H   0  0  0  0  0  0  0  0  0  0  0  0
  2  7  1  0
  3  4  1  0
  3  2  1  0
  5  4  1  0
  5 22  1  0
  5  6  1  0
  7  1  1  0
  7  6  1  0
  8  1  2  0
  9 10  2  0
  9 12  1  0
 10 14  1  0
 12 13  2  0
 13 11  1  0
 13 16  1  0
 14 47  1  0
 14 11  2  0
 15 12  1  0
 15 17  1  0
 17  1  1  0
 17 16  1  0
 18 15  2  0
 19 20  2  0
 20 39  1  0
 21 20  1  0
 21 24  1  0
 22 19  1  0
 22 23  1  0
 23 21  2  0
 24 25  1  0
 25 26  2  0
 27 30  1  0
 27 26  1  0
 28 27  2  0
 29 28  1  0
 29 24  2  0
 30 31  1  0
 31 32  1  0
 32 33  2  0
 34 33  1  0
 34 38  1  0
 35 34  2  0
 36 31  2  0
 36 35  1  0
 37 36  1  0
 39 40  1  0
 40 43  1  0
 40 42  1  0
 41 39  2  0
 44 45  1  0
 44 19  1  0
 46 44  1  0
 47 49  1  0
 48 47  1  0
 50 49  1  0
 51 52  1  0
 51 50  1  0
 53 64  2  0
 54 52  1  0
 54 59  1  0
 55 63  1  0
 55 65  1  0
 56 62  1  0
 56 58  1  0
 57 63  1  0
 58 59  2  0
 58 57  1  0
 60 54  2  0
 61 60  1  0
 61 56  2  0
 62 55  1  0
 63 53  1  0
 65 67  2  0
 66 65  1  0
 68 66  1  0
 69 78  2  0
 69 74  1  0
 70 66  1  0
 70 74  1  0
 71 70  1  0
 72 73  1  0
 72 71  1  0
 73 69  1  0
 74 75  2  0
 75 76  1  0
 77 76  2  0
 78 77  1  0
 79 53  1  0
 79 84  1  0
 79 80  1  0
 80 83  1  1
 80 81  1  0
 82 80  1  0
 84 87  1  0
 85 89  1  0
 85 84  1  0
 86 85  2  0
 89 88  1  0
 91 89  1  0
 91 92  1  0
 91 90  1  0
M  ISO  4   1 100  17 100  51 101  52 101
M  END
>  <TORSDO>  (90) 
F 19

>  <SCORE>  (90) 
-13.885

>  <name>  (90) 
92

>  <ligand_id>  (90) 
92

>  <original_smiles>  (90) 
[H]c1c([H])c([H])c2c(c1[H])C([H])([H])C([H])([H])C([H])([H])C2([H])N([H])C(=O)C1([H])N(C(=O)C([H])(N([H])C(=O)C([H])(N([H])C([H])([H])[H])C([H])([H])[H])C(C([H])([H])[H])(C([H])([H])[H])C([H])([H])[H])C([H])([H])c2c([H])c(OC([H])([H])C([H])([H])C([H])([H])N([H])c3c([H])c([H])c4c(c3[H])C([H])([H])N(C(=O)N3C([H])([H])C([H])([H])C([H])([H])C([H])(n5nc(-c6c([H])c([H])c(Oc7c([H])c([H])c(F)c([H])c7F)c([H])c6[H])c(C(=O)N([H])[H])c5N([H])[H])C3([H])[H])C4=O)c([H])c([H])c2C1([H])[H]

>  <smiles>  (90) 
[H]c1c([H])c([H])c2c(c1[H])C([H])([H])C([H])([H])C([H])([H])C2([H])N([H])C(=O)C1([H])N(C(=O)C([H])(N([H])C(=O)C([H])(N([H])C([H])([H])[H])C([H])([H])[H])C(C([H])([H])[H])(C([H])([H])[H])C([H])([H])[H])C([H])([H])c2c([H])c(OC([H])([H])C([H])([H])C([H])([H])N([H])c3c([H])c([H])c4c(c3[H])C([H])([H])N(C(=O)N3C([H])([H])C([H])([H])C([H])([H])C([H])(n5nc(-c6c([H])c([H])c(Oc7c([H])c([H])c(F)c([H])c7F)c([H])c6[H])c(C(=O)N([H])[H])c5N([H])[H])C3([H])[H])C4=O)c([H])c([H])c2C1([H])[H]

$$$$
93:0:0
     RDKit          3D

 91 99  0  0  1  0  0  0  0  0999 V2000
  -28.8060  -22.3330   20.0930 N   0  0  0  0  0  4  0  0  0  0  0  0
  -27.8190  -22.1460   20.0140 H   0  0  0  0  0  0  0  0  0  0  0  0
  -29.1800  -22.2910   19.1590 H   0  0  0  0  0  0  0  0  0  0  0  0
  -29.3980  -21.1580   20.8760 C   0  0  0  0  0  2  0  0  0  0  0  0
  -30.6170  -18.6380   18.1760 C   0  0  0  0  0  3  0  0  0  0  0  0
  -30.2290  -19.8150   18.8440 C   0  0  0  0  0  3  0  0  0  0  0  0
  -30.5050  -17.3740   18.7870 C   0  0  0  0  0  3  0  0  0  0  0  0
  -29.5680  -18.4530   20.7540 C   0  0  0  0  0  3  0  0  0  0  0  0
  -29.6920  -19.7730   20.1490 C   0  0  0  0  0  0  0  0  0  0  0  0
  -29.9920  -17.2250   20.0970 C   0  0  0  0  0  0  0  0  0  0  0  0
  -30.5920  -14.7170   20.3550 C   0  0  0  0  0  0  0  0  0  0  0  0
  -30.3570  -12.4470   19.3620 C   0  0  0  0  0  2  0  0  0  0  0  0
  -29.4210  -12.5500   18.1380 C   0  0  0  0  0  2  0  0  0  0  0  0
  -27.9490  -12.3960   18.5690 C   0  0  0  0  0  2  0  0  0  0  0  0
  -27.5890  -13.2780   19.7950 C   0  0  0  0  0  3  0  0  0  0  0  0
  -28.6500  -13.1710   20.9130 C   0  0  0  0  0  2  0  0  0  0  0  0
  -29.9530  -13.4990   20.3230 N   0  0  0  0  0  0  0  0  0  0  0  0
  -31.7660  -14.8030   19.9820 O   0  0  0  0  0  0  0  0  0  0  0  0
  -29.8580  -15.8560   20.6520 N   0  0  0  0  0  0  0  0  0  0  0  0
  -29.0050  -15.6830   21.1630 H   0  0  0  0  0  0  0  0  0  0  0  0
  -25.2050  -13.8800   20.5260 C   0  0  0  0  0  0  0  0  0  0  0  0
  -24.1370  -13.1120   20.9020 C   0  0  0  0  0  0  0  0  0  0  0  0
  -24.5940  -11.7590   20.8720 C   0  0  0  0  0  0  0  0  0  0  0  0
  -26.2450  -12.9960   20.2890 N   0  0  0  0  0  0  0  0  0  0  0  0
  -25.8840  -11.7150   20.5590 N   0  0  0  0  0  0  0  0  0  0  0  0
  -23.8630  -10.5000   21.0680 C   0  0  0  0  0  0  0  0  0  0  0  0
  -24.3070   -9.5210   21.9840 C   0  0  0  0  0  3  0  0  0  0  0  0
  -23.5750   -8.3280   22.1670 C   0  0  0  0  0  3  0  0  0  0  0  0
  -22.3850   -8.1050   21.4360 C   0  0  0  0  0  0  0  0  0  0  0  0
  -21.9600   -9.0720   20.5080 C   0  0  0  0  0  3  0  0  0  0  0  0
  -22.6920  -10.2570   20.3230 C   0  0  0  0  0  3  0  0  0  0  0  0
  -21.6230   -6.9650   21.5290 O   0  0  0  0  0  0  0  0  0  0  0  0
  -21.6070   -6.2020   22.6700 C   0  0  0  0  0  0  0  0  0  0  0  0
  -21.2440   -6.7420   23.9240 C   0  0  0  0  0  3  0  0  0  0  0  0
  -21.1740   -5.9070   25.0560 C   0  0  0  0  0  3  0  0  0  0  0  0
  -21.4550   -4.5330   24.9370 C   0  0  0  0  0  0  0  0  0  0  0  0
  -21.8110   -3.9920   23.6880 C   0  0  0  0  0  3  0  0  0  0  0  0
  -21.8830   -4.8250   22.5580 C   0  0  0  0  0  0  0  0  0  0  0  0
  -22.2060   -4.2950   21.3530 F   0  0  0  0  0  0  0  0  0  0  0  0
  -21.3810   -3.7290   26.0230 F   0  0  0  0  0  0  0  0  0  0  0  0
  -22.7430  -13.5960   21.1780 C   0  0  0  0  0  0  0  0  0  0  0  0
  -22.0150  -12.9070   22.0500 N   0  0  0  0  0  0  0  0  0  0  0  0
  -22.3070  -14.6210   20.6540 O   0  0  0  0  0  0  0  0  0  0  0  0
  -22.3800  -12.0790   22.4960 H   0  0  0  0  0  0  0  0  0  0  0  0
  -21.0790  -13.2130   22.2740 H   0  0  0  0  0  0  0  0  0  0  0  0
  -25.3740  -15.2510   20.3460 N   0  0  0  0  0  0  0  0  0  0  0  0
  -24.6090  -15.9070   20.4560 H   0  0  0  0  0  0  0  0  0  0  0  0
  -26.2200  -15.6830   19.9990 H   0  0  0  0  0  0  0  0  0  0  0  0
  -29.0010  -23.7770   20.6010 C   0  0  0  0  0  3  0  0  0  0  0  0
  -28.0720  -24.9320   19.9680 C   0  0  0  0  0  3  0  0  0  0  0  0
  -28.2800  -26.3930   20.2570 O   0  0  0  0  0  0  0  0  0  0  0  0
  -24.6130  -31.8780   23.2450 C   0  0  0  0  0  0  0  0  0  0  0  0
  -27.1830  -27.2830   20.1760 C   0  0  0  0  0  0  0  0  0  0  0  0
  -23.3940  -30.4830   21.6140 C   0  0  0  0  0  3  0  0  0  0  0  0
  -24.8310  -28.9310   20.1740 C   0  0  0  0  0  0  0  0  0  0  0  0
  -25.9360  -30.7850   21.4180 C   0  0  0  0  0  2  0  0  0  0  0  0
  -26.0070  -29.4040   20.7710 C   0  0  0  0  0  0  0  0  0  0  0  0
  -27.1840  -28.5910   20.7650 C   0  0  0  0  0  3  0  0  0  0  0  0
  -25.9890  -26.8870   19.5290 C   0  0  0  0  0  3  0  0  0  0  0  0
  -24.8270  -27.6790   19.5420 C   0  0  0  0  0  3  0  0  0  0  0  0
  -23.5980  -29.8100   20.2320 C   0  0  0  0  0  2  0  0  0  0  0  0
  -24.6670  -31.0670   22.1470 N   0  0  0  0  0  0  0  0  0  0  0  0
  -23.5330  -32.1590   23.7850 O   0  0  0  0  0  0  0  0  0  0  0  0
  -22.7350  -29.4680   22.5780 C   0  0  0  0  0  0  0  0  0  0  0  0
  -21.4080  -29.2920   22.4600 N   0  0  0  0  0  0  0  0  0  0  0  0
  -23.4170  -28.8410   23.3930 O   0  0  0  0  0  0  0  0  0  0  0  0
  -20.9160  -29.8500   21.7760 H   0  0  0  0  0  0  0  0  0  0  0  0
  -18.0330  -28.0900   22.9710 C   0  0  0  0  0  0  0  0  0  0  0  0
  -20.5920  -28.3560   23.2350 C   0  0  0  0  0  3  0  0  0  0  0  0
  -20.6950  -26.9220   22.6680 C   0  0  0  0  0  2  0  0  0  0  0  0
  -19.5920  -26.5910   21.6580 C   0  0  0  0  0  2  0  0  0  0  0  0
  -18.2110  -26.7370   22.3020 C   0  0  0  0  0  2  0  0  0  0  0  0
  -19.1510  -28.8580   23.3950 C   0  0  0  0  0  0  0  0  0  0  0  0
  -18.9300  -30.1230   23.9810 C   0  0  0  0  0  3  0  0  0  0  0  0
  -17.6230  -30.6210   24.1470 C   0  0  0  0  0  3  0  0  0  0  0  0
  -16.5210  -29.8520   23.7380 C   0  0  0  0  0  3  0  0  0  0  0  0
  -16.7260  -28.5880   23.1560 C   0  0  0  0  0  3  0  0  0  0  0  0
  -25.9000  -32.5080   23.8590 C   0  0  0  0  0  3  0  0  0  0  0  0
  -26.4260  -31.7330   25.1290 C   0  0  1  0  0  0  0  0  0  0  0  0
  -25.3420  -31.4970   26.2060 C   0  0  0  0  0  1  0  0  0  0  0  0
  -27.0020  -30.3550   24.7310 C   0  0  0  0  0  1  0  0  0  0  0  0
  -27.5850  -32.5230   25.7810 C   0  0  0  0  0  1  0  0  0  0  0  0
  -25.5930  -33.9060   24.1960 N   0  0  0  0  0  0  0  0  0  0  0  0
  -25.9130  -34.9610   23.4360 C   0  0  0  0  0  0  0  0  0  0  0  0
  -26.5680  -34.8610   22.3940 O   0  0  0  0  0  0  0  0  0  0  0  0
  -25.0100  -34.0580   25.0060 H   0  0  0  0  0  0  0  0  0  0  0  0
  -24.1740  -36.7520   23.1200 C   0  0  0  0  0  1  0  0  0  0  0  0
  -25.4320  -36.3480   23.9050 C   0  0  0  0  0  3  0  0  0  0  0  0
  -27.5840  -37.2360   24.6900 C   0  0  0  0  0  1  0  0  0  0  0  0
  -26.4610  -37.4040   23.7720 N   0  0  0  0  0  0  0  0  0  0  0  0
  -26.0560  -38.3220   23.9300 H   0  0  0  0  0  0  0  0  0  0  0  0
  1 49  1  0
  1  4  1  0
  2  1  1  0
  3  1  1  0
  5  7  2  0
  5  6  1  0
  6  9  2  0
  7 10  1  0
  9  8  1  0
  9  4  1  0
 10 19  1  0
 10  8  2  0
 11 19  1  0
 12 17  1  0
 13 14  1  0
 13 12  1  0
 15 14  1  0
 15 24  1  0
 15 16  1  0
 17 11  1  0
 17 16  1  0
 18 11  2  0
 19 20  1  0
 21 22  2  0
 22 41  1  0
 23 22  1  0
 23 26  1  0
 24 21  1  0
 24 25  1  0
 25 23  2  0
 26 27  1  0
 27 28  2  0
 29 32  1  0
 29 28  1  0
 30 29  2  0
 31 30  1  0
 31 26  2  0
 32 33  1  0
 33 34  1  0
 34 35  2  0
 36 35  1  0
 36 40  1  0
 37 36  2  0
 38 33  2  0
 38 37  1  0
 39 38  1  0
 41 42  1  0
 42 45  1  0
 42 44  1  0
 43 41  2  0
 46 47  1  0
 46 21  1  0
 48 46  1  0
 50 51  1  0
 50 49  2  0
 52 63  2  0
 53 51  1  0
 53 58  1  0
 54 62  1  0
 54 64  1  0
 55 61  1  0
 55 57  1  0
 56 62  1  0
 57 56  1  0
 58 57  2  0
 59 60  1  0
 59 53  2  0
 60 55  2  0
 61 54  1  0
 62 52  1  0
 64 66  2  0
 65 64  1  0
 67 65  1  0
 68 77  2  0
 68 73  1  0
 69 65  1  0
 69 73  1  0
 70 69  1  0
 71 72  1  0
 71 70  1  0
 72 68  1  0
 73 74  2  0
 74 75  1  0
 76 75  2  0
 77 76  1  0
 78 52  1  0
 78 83  1  0
 78 79  1  0
 79 82  1  1
 79 80  1  0
 81 79  1  0
 83 86  1  0
 84 88  1  0
 84 83  1  0
 85 84  2  0
 88 87  1  0
 90 88  1  0
 90 91  1  0
 90 89  1  0
M  ISO  4  11 100  19 100  50 101  51 101
M  END
>  <TORSDO>  (91) 
F 20

>  <SCORE>  (91) 
-13.766

>  <name>  (91) 
93

>  <ligand_id>  (91) 
93

>  <original_smiles>  (91) 
[H]c1c([H])c([H])c2c(c1[H])C([H])([H])C([H])([H])C([H])([H])C2([H])N([H])C(=O)C1([H])N(C(=O)C([H])(N([H])C(=O)C([H])(N([H])C([H])([H])[H])C([H])([H])[H])C(C([H])([H])[H])(C([H])([H])[H])C([H])([H])[H])C([H])([H])c2c([H])c(OC([H])([H])C([H])([H])[N+]([H])([H])C([H])([H])c3c([H])c([H])c([H])c(N([H])C(=O)N4C([H])([H])C([H])([H])C([H])([H])C([H])(n5nc(-c6c([H])c([H])c(Oc7c([H])c([H])c(F)c([H])c7F)c([H])c6[H])c(C(=O)N([H])[H])c5N([H])[H])C4([H])[H])c3[H])c([H])c([H])c2C1([H])[H]

>  <smiles>  (91) 
[H]c1c([H])c([H])c2c(c1[H])C([H])([H])C([H])([H])C([H])([H])C2([H])N([H])C(=O)C1([H])N(C(=O)C([H])(N([H])C(=O)C([H])(N([H])C([H])([H])[H])C([H])([H])[H])C(C([H])([H])[H])(C([H])([H])[H])C([H])([H])[H])C([H])([H])c2c([H])c(OC([H])([H])C([H])([H])[N+]([H])([H])C([H])([H])c3c([H])c([H])c([H])c(N([H])C(=O)N4C([H])([H])C([H])([H])C([H])([H])C([H])(n5nc(-c6c([H])c([H])c(Oc7c([H])c([H])c(F)c([H])c7F)c([H])c6[H])c(C(=O)N([H])[H])c5N([H])[H])C4([H])[H])c3[H])c([H])c([H])c2C1([H])[H]

$$$$
94:0:0
     RDKit          3D

118121  0  0  1  0  0  0  0  0999 V2000
  -30.2500  -22.0670   24.6320 C   0  0  0  0  0  2  0  0  0  0  0  0
  -30.9720  -23.3930   24.9450 C   0  0  0  0  0  2  0  0  0  0  0  0
  -29.7620  -22.2190   22.1100 C   0  0  0  0  0  2  0  0  0  0  0  0
  -30.7200  -24.4960   22.6750 C   0  0  0  0  0  2  0  0  0  0  0  0
  -29.4200  -23.7390   22.2190 C   0  0  0  0  0  3  0  0  0  0  0  0
  -30.7360  -21.6810   23.2190 C   0  0  0  0  0  3  0  0  0  0  0  0
  -31.7010  -23.7030   23.6320 C   0  0  0  0  0  3  0  0  0  0  0  0
  -32.0560  -22.3470   23.1050 N   0  0  1  0  0  4  0  0  0  0  0  0
  -32.3020  -22.4090   22.1270 H   0  0  0  0  0  0  0  0  0  0  0  0
  -27.6480  -24.5980   20.4560 C   0  0  0  0  0  0  0  0  0  0  0  0
  -28.8890  -24.2680   20.9250 N   0  0  0  0  0  0  0  0  0  0  0  0
  -26.6170  -24.5970   21.1290 O   0  0  0  0  0  0  0  0  0  0  0  0
  -29.6010  -24.3860   20.2210 H   0  0  0  0  0  0  0  0  0  0  0  0
  -27.6270  -24.8990   18.9280 C   0  0  0  0  0  2  0  0  0  0  0  0
  -26.5040  -25.4080   18.0410 N   0  0  0  0  0  0  0  0  0  0  0  0
  -25.7150  -25.8170   18.5370 H   0  0  0  0  0  0  0  0  0  0  0  0
  -28.6000  -25.6880   16.6410 C   0  0  0  0  0  2  0  0  0  0  0  0
  -30.0020  -26.6040   16.3490 C   0  0  0  0  0  3  0  0  0  0  0  0
  -27.2030  -29.2170   16.3000 C   0  0  0  0  0  1  0  0  0  0  0  0
  -26.9820  -26.1870   16.9260 C   0  0  0  0  0  3  0  0  0  0  0  0
  -30.0300  -28.3630   16.3240 C   0  0  0  0  0  2  0  0  0  0  0  0
  -26.2450  -27.7550   16.6480 C   0  0  0  0  0  3  0  0  0  0  0  0
  -24.9180  -27.8970   16.8880 F   0  0  0  0  0  0  0  0  0  0  0  0
  -30.8580  -27.0640   17.3670 O   0  0  0  0  0  0  0  0  0  0  0  0
  -31.8500  -25.2130   17.6810 C   0  0  0  0  0 15  0  0  0  0  0  0
  -32.4510  -22.9790   18.0640 C   0  0  0  0  0 15  0  0  0  0  0  0
  -32.9260  -20.8980   19.0430 C   0  0  0  0  0 15  0  0  0  0  0  0
  -34.4300  -17.5130   19.9950 C   0  0  0  0  0  0  0  0  0  0  0  0
  -35.9650  -15.0700   19.9600 C   0  0  0  0  0  2  0  0  0  0  0  0
  -37.2250  -14.9150   19.0210 C   0  0  0  0  0  2  0  0  0  0  0  0
  -36.8140  -14.7880   17.5420 C   0  0  0  0  0  2  0  0  0  0  0  0
  -35.5490  -15.6380   17.3320 C   0  0  0  0  0  3  0  0  0  0  0  0
  -34.4200  -15.4030   18.3260 C   0  0  0  0  0  2  0  0  0  0  0  0
  -34.9100  -16.1570   19.4610 N   0  0  0  0  0  0  0  0  0  0  0  0
  -34.7180  -17.2150   21.2130 O   0  0  0  0  0  0  0  0  0  0  0  0
  -33.9250  -19.0650   19.2870 N   0  0  0  0  0  2  0  0  0  0  0  0
  -34.7580  -19.4930   19.6700 H   0  0  0  0  0  0  0  0  0  0  0  0
  -34.3090  -16.6930   15.4820 C   0  0  0  0  0  0  0  0  0  0  0  0
  -33.9850  -16.2620   14.2370 C   0  0  0  0  0  0  0  0  0  0  0  0
  -34.4470  -14.9120   14.1470 C   0  0  0  0  0  0  0  0  0  0  0  0
  -34.9750  -15.6300   16.0450 N   0  0  0  0  0  0  0  0  0  0  0  0
  -34.9870  -14.5160   15.2880 N   0  0  0  0  0  0  0  0  0  0  0  0
  -34.4750  -13.9960   13.0120 C   0  0  0  0  0  0  0  0  0  0  0  0
  -33.9410  -12.6930   13.0970 C   0  0  0  0  0  3  0  0  0  0  0  0
  -33.9680  -11.8440   11.9730 C   0  0  0  0  0  3  0  0  0  0  0  0
  -34.5280  -12.3020   10.7560 C   0  0  0  0  0  0  0  0  0  0  0  0
  -35.0800  -13.5910   10.6900 C   0  0  0  0  0  3  0  0  0  0  0  0
  -35.0590  -14.4320   11.8110 C   0  0  0  0  0  3  0  0  0  0  0  0
  -34.6150  -11.5450    9.6180 O   0  0  0  0  0  0  0  0  0  0  0  0
  -33.7410  -10.5190    9.3720 C   0  0  0  0  0  0  0  0  0  0  0  0
  -32.3430  -10.7170    9.3520 C   0  0  0  0  0  3  0  0  0  0  0  0
  -31.4860   -9.6460    9.0250 C   0  0  0  0  0  3  0  0  0  0  0  0
  -32.0260   -8.3840    8.7110 C   0  0  0  0  0  0  0  0  0  0  0  0
  -33.4180   -8.1880    8.7260 C   0  0  0  0  0  3  0  0  0  0  0  0
  -34.2720   -9.2540    9.0550 C   0  0  0  0  0  0  0  0  0  0  0  0
  -35.6150   -9.0680    9.0500 F   0  0  0  0  0  0  0  0  0  0  0  0
  -31.2060   -7.3580    8.3870 F   0  0  0  0  0  0  0  0  0  0  0  0
  -33.3750  -17.1030   13.1650 C   0  0  0  0  0  0  0  0  0  0  0  0
  -32.6050  -16.4890   12.2750 N   0  0  0  0  0  0  0  0  0  0  0  0
  -33.5420  -18.3210   13.1440 O   0  0  0  0  0  0  0  0  0  0  0  0
  -32.4500  -15.4920   12.3100 H   0  0  0  0  0  0  0  0  0  0  0  0
  -32.1550  -17.0260   11.5470 H   0  0  0  0  0  0  0  0  0  0  0  0
  -34.1130  -17.8930   16.1660 N   0  0  0  0  0  0  0  0  0  0  0  0
  -33.6310  -18.6730   15.7330 H   0  0  0  0  0  0  0  0  0  0  0  0
  -34.3330  -18.0690   17.1380 H   0  0  0  0  0  0  0  0  0  0  0  0
  -33.1990  -21.5960   23.7900 C   0  0  0  0  0  2  0  0  0  0  0  0
  -34.6740  -22.1830   23.6650 C   0  0  0  0  0  2  0  0  0  0  0  0
  -35.8090  -21.4830   22.7680 C   0  0  0  0  0  2  0  0  0  0  0  0
  -35.9240  -21.8880   21.3070 N   0  0  2  0  0  4  0  0  0  0  0  0
  -36.4110  -22.7730   21.3620 H   0  0  0  0  0  0  0  0  0  0  0  0
  -34.6260  -22.1670   20.6350 C   0  0  0  0  0  2  0  0  0  0  0  0
  -34.4470  -23.6290   20.2090 C   0  0  0  0  0  2  0  0  0  0  0  0
  -35.0840  -24.7080   21.0880 C   0  0  0  0  0  2  0  0  0  0  0  0
  -36.5630  -24.5650   21.1090 C   0  0  0  0  0  2  0  0  0  0  0  0
  -37.1260  -25.4220   22.0930 O   0  0  0  0  0  0  0  0  0  0  0  0
  -39.7500  -32.0130   21.6960 C   0  0  0  0  0  0  0  0  0  0  0  0
  -38.0470  -26.2730   21.5520 C   0  0  0  0  0  0  0  0  0  0  0  0
  -40.2000  -30.4600   19.8440 C   0  0  0  0  0  3  0  0  0  0  0  0
  -39.7640  -28.0500   20.2680 C   0  0  0  0  0  0  0  0  0  0  0  0
  -39.8030  -29.5900   22.2080 C   0  0  0  0  0  2  0  0  0  0  0  0
  -39.2850  -28.3420   21.5510 C   0  0  0  0  0  0  0  0  0  0  0  0
  -38.3560  -27.4880   22.1800 C   0  0  0  0  0  3  0  0  0  0  0  0
  -38.7080  -25.9490   20.3440 C   0  0  0  0  0  3  0  0  0  0  0  0
  -39.4480  -26.8700   19.6290 C   0  0  0  0  0  3  0  0  0  0  0  0
  -40.6950  -29.0210   19.6210 C   0  0  0  0  0  2  0  0  0  0  0  0
  -39.9160  -30.7340   21.2810 N   0  0  0  0  0  0  0  0  0  0  0  0
  -39.9050  -32.9670   20.9180 O   0  0  0  0  0  0  0  0  0  0  0  0
  -38.9260  -30.6460   19.0110 C   0  0  0  0  0  0  0  0  0  0  0  0
  -39.0340  -30.4820   17.7130 N   0  0  0  0  0  0  0  0  0  0  0  0
  -37.8280  -30.8760   19.5130 O   0  0  0  0  0  0  0  0  0  0  0  0
  -39.9380  -30.2510   17.3240 H   0  0  0  0  0  0  0  0  0  0  0  0
  -39.2540  -31.7270   14.2700 C   0  0  0  0  0  0  0  0  0  0  0  0
  -38.0240  -30.9130   16.8010 C   0  0  0  0  0  2  0  0  0  0  0  0
  -36.1520  -29.9480   16.1430 C   0  0  0  0  0 15  0  0  0  0  0  0
  -36.5550  -29.7530   13.7730 C   0  0  0  0  0 15  0  0  0  0  0  0
  -38.3770  -30.4710   13.3930 C   0  0  0  0  0  1  0  0  0  0  0  0
  -39.1200  -31.9210   15.7790 C   0  0  0  0  0  0  0  0  0  0  0  0
  -39.5530  -33.2370   16.2620 C   0  0  0  0  0  3  0  0  0  0  0  0
  -40.1090  -34.2880   15.4640 C   0  0  0  0  0  3  0  0  0  0  0  0
  -40.2350  -34.1010   14.0800 C   0  0  0  0  0  3  0  0  0  0  0  0
  -39.7960  -32.8630   13.5210 C   0  0  0  0  0  3  0  0  0  0  0  0
  -39.3700  -32.3310   23.1720 C   0  0  0  0  0  3  0  0  0  0  0  0
  -37.8330  -32.6100   23.3780 C   0  0  1  0  0  0  0  0  0  0  0  0
  -37.2580  -33.6680   22.4090 C   0  0  0  0  0  1  0  0  0  0  0  0
  -37.0040  -31.3140   23.2070 C   0  0  0  0  0  1  0  0  0  0  0  0
  -37.5900  -33.0960   24.8250 C   0  0  0  0  0  1  0  0  0  0  0  0
  -40.1820  -33.4780   23.5870 N   0  0  0  0  0  0  0  0  0  0  0  0
  -41.3220  -33.3780   24.2830 C   0  0  0  0  0  0  0  0  0  0  0  0
  -41.7570  -32.3050   24.7130 O   0  0  0  0  0  0  0  0  0  0  0  0
  -39.9130  -34.3830   23.2270 H   0  0  0  0  0  0  0  0  0  0  0  0
  -43.2710  -34.7790   23.5500 C   0  0  0  0  0  1  0  0  0  0  0  0
  -42.1020  -34.6770   24.5420 C   0  0  0  0  0  3  0  0  0  0  0  0
  -41.5460  -34.9500   26.9170 C   0  0  0  0  0  1  0  0  0  0  0  0
  -42.6080  -34.7900   25.9260 N   0  0  0  0  0  0  0  0  0  0  0  0
  -43.2430  -35.5780   26.0130 H   0  0  0  0  0  0  0  0  0  0  0  0
  -36.8780  -21.0760   20.4650 C   0  0  0  0  0  2  0  0  0  0  0  0
  -36.3000  -20.8710   17.8550 C   0  0  0  0  0  1  0  0  0  0  0  0
  -37.1210  -21.5480   18.9830 C   0  0  0  0  0  2  0  0  0  0  0  0
  1  2  1  0
  3  5  1  0
  5 11  1  0
  5  4  1  0
  6  3  1  0
  6  1  1  0
  7  4  1  0
  7  2  1  0
  8  6  1  0
  8  7  1  0
  8 66  1  0
  8  9  1  6
 10 11  1  0
 10 12  2  0
 13 11  1  0
 14 10  1  0
 15 16  1  0
 15 14  1  0
 18 17  1  0
 18 24  1  0
 20 17  1  0
 20 15  1  0
 21 18  1  0
 21 24  1  0
 22 19  1  0
 22 23  1  0
 22 20  1  0
 28 35  2  0
 30 29  1  0
 31 30  1  0
 32 41  1  0
 32 31  1  0
 32 33  1  0
 33 34  1  0
 34 29  1  0
 34 28  1  0
 36 37  1  0
 36 28  1  0
 38 41  1  0
 38 63  1  0
 39 38  2  0
 40 39  1  0
 40 42  2  0
 42 41  1  0
 43 44  1  0
 43 40  1  0
 45 44  2  0
 46 45  1  0
 47 46  2  0
 47 48  1  0
 48 43  2  0
 49 46  1  0
 50 49  1  0
 51 50  1  0
 52 51  2  0
 53 54  2  0
 53 52  1  0
 54 55  1  0
 55 50  2  0
 56 55  1  0
 57 53  1  0
 58 39  1  0
 59 61  1  0
 59 58  1  0
 60 58  2  0
 62 59  1  0
 63 65  1  0
 64 63  1  0
 67 66  1  0
 68 67  1  0
 69 70  1  1
 69 68  1  0
 71 69  1  0
 72 71  1  0
 72 73  1  0
 73 74  1  0
 74 75  1  0
 77 75  1  0
 77 82  1  0
 78 88  1  0
 78 86  1  0
 79 81  1  0
 81 82  2  0
 81 80  1  0
 83 77  2  0
 84 79  2  0
 84 83  1  0
 85 78  1  0
 85 79  1  0
 86 76  1  0
 86 80  1  0
 87 76  2  0
 88 90  2  0
 89 88  1  0
 91 89  1  0
 92 97  1  0
 93 89  1  0
 96 92  1  0
 97 98  2  0
 97 93  1  0
 99 98  1  0
100 99  2  0
101100  1  0
101 92  2  0
102 76  1  0
102103  1  0
102107  1  0
103106  1  1
104103  1  0
105103  1  0
107108  1  0
108112  1  0
108109  2  0
110107  1  0
112111  1  0
112114  1  0
114115  1  0
114113  1  0
116 69  1  0
117118  1  0
118116  1  0
M  ISO  4  28 100  36 100  74 101  75 101
M  END
>  <TORSDO>  (92) 
F 34

>  <SCORE>  (92) 
10.247

>  <name>  (92) 
94

>  <ligand_id>  (92) 
94

>  <original_smiles>  (92) 
[H]c1c([H])c([H])c2c(c1[H])C([H])([H])C([H])([H])C([H])([H])C2([H])N([H])C(=O)C1([H])N(C(=O)C([H])(N([H])C(=O)C([H])(N([H])C([H])([H])[H])C([H])([H])[H])C(C([H])([H])[H])(C([H])([H])[H])C([H])([H])[H])C([H])([H])c2c([H])c(OC([H])([H])C([H])([H])C([H])([H])C([H])([H])[N+]([H])(C([H])([H])C([H])([H])C([H])([H])[H])C([H])([H])C([H])([H])C([H])([H])[N+]3([H])C4([H])C([H])([H])C([H])([H])C3([H])C([H])([H])C([H])(N([H])C(=O)C([H])([H])N([H])c3c([H])c([H])c(OC([H])([H])C([H])([H])C([H])([H])N([H])C(=O)N5C([H])([H])C([H])([H])C([H])([H])C([H])(n6nc(-c7c([H])c([H])c(Oc8c([H])c([H])c(F)c([H])c8F)c([H])c7[H])c(C(=O)N([H])[H])c6N([H])[H])C5([H])[H])c([H])c3F)C4([H])[H])c([H])c([H])c2C1([H])[H]

>  <smiles>  (92) 
[H]c1c([H])c([H])c2c(c1[H])C([H])([H])C([H])([H])C([H])([H])C2([H])N([H])C(=O)C1([H])N(C(=O)C([H])(N([H])C(=O)C([H])(N([H])C([H])([H])[H])C([H])([H])[H])C(C([H])([H])[H])(C([H])([H])[H])C([H])([H])[H])C([H])([H])c2c([H])c(OC([H])([H])C([H])([H])C([H])([H])C([H])([H])[N+]([H])(C([H])([H])C([H])([H])C([H])([H])[H])C([H])([H])C([H])([H])C([H])([H])[N+]3([H])C4([H])C([H])([H])C([H])([H])C3([H])C([H])([H])C([H])(N([H])C(=O)C([H])([H])N([H])c3c([H])c([H])c(OC([H])([H])C([H])([H])C([H])([H])N([H])C(=O)N5C([H])([H])C([H])([H])C([H])([H])C([H])(n6nc(-c7c([H])c([H])c(Oc8c([H])c([H])c(F)c([H])c8F)c([H])c7[H])c(C(=O)N([H])[H])c6N([H])[H])C5([H])[H])c([H])c3F)C4([H])[H])c([H])c([H])c2C1([H])[H]

$$$$
95:0:0
     RDKit          3D

 95104  0  0  1  0  0  0  0  0999 V2000
  -29.8610  -20.1520   22.5220 C   0  0  0  0  0  3  0  0  0  0  0  0
  -31.1100  -18.9550   19.2210 C   0  0  0  0  0  3  0  0  0  0  0  0
  -30.1230  -21.5350   22.4200 C   0  0  0  0  0  3  0  0  0  0  0  0
  -30.9630  -17.5640   19.3650 C   0  0  0  0  0  3  0  0  0  0  0  0
  -30.9940  -21.2040   20.1670 C   0  0  0  0  0  3  0  0  0  0  0  0
  -30.0430  -17.8850   21.6000 C   0  0  0  0  0  3  0  0  0  0  0  0
  -30.7600  -19.8180   20.2770 C   0  0  0  0  0  0  0  0  0  0  0  0
  -30.2070  -19.2830   21.4670 C   0  0  0  0  0  0  0  0  0  0  0  0
  -30.7180  -22.0630   21.2540 C   0  0  0  0  0  0  0  0  0  0  0  0
  -30.4600  -17.0130   20.5690 C   0  0  0  0  0  0  0  0  0  0  0  0
  -31.0080  -14.6290   20.1470 C   0  0  0  0  0  0  0  0  0  0  0  0
  -30.6800  -12.4950   18.9790 C   0  0  0  0  0  2  0  0  0  0  0  0
  -29.6910  -12.7400   17.8200 C   0  0  0  0  0  2  0  0  0  0  0  0
  -28.2330  -12.5970   18.3040 C   0  0  0  0  0  2  0  0  0  0  0  0
  -27.9500  -13.3970   19.6050 C   0  0  0  0  0  3  0  0  0  0  0  0
  -29.0480  -13.1330   20.6600 C   0  0  0  0  0  2  0  0  0  0  0  0
  -30.3520  -13.4460   20.0490 N   0  0  0  0  0  0  0  0  0  0  0  0
  -32.1090  -14.8320   19.6240 O   0  0  0  0  0  0  0  0  0  0  0  0
  -30.3180  -15.6080   20.7590 N   0  0  0  0  0  0  0  0  0  0  0  0
  -29.5230  -15.3050   21.3020 H   0  0  0  0  0  0  0  0  0  0  0  0
  -25.5870  -13.9890   20.4370 C   0  0  0  0  0  0  0  0  0  0  0  0
  -24.5310  -13.2060   20.8240 C   0  0  0  0  0  0  0  0  0  0  0  0
  -24.9840  -11.8560   20.7220 C   0  0  0  0  0  0  0  0  0  0  0  0
  -26.6160  -13.1130   20.1280 N   0  0  0  0  0  0  0  0  0  0  0  0
  -26.2590  -11.8230   20.3550 N   0  0  0  0  0  0  0  0  0  0  0  0
  -24.2620  -10.5890   20.8990 C   0  0  0  0  0  0  0  0  0  0  0  0
  -24.6400   -9.6560   21.8890 C   0  0  0  0  0  3  0  0  0  0  0  0
  -23.9190   -8.4530   22.0510 C   0  0  0  0  0  3  0  0  0  0  0  0
  -22.8070   -8.1760   21.2230 C   0  0  0  0  0  0  0  0  0  0  0  0
  -22.4490   -9.0980   20.2230 C   0  0  0  0  0  3  0  0  0  0  0  0
  -23.1710  -10.2920   20.0590 C   0  0  0  0  0  3  0  0  0  0  0  0
  -22.0630   -7.0220   21.2900 O   0  0  0  0  0  0  0  0  0  0  0  0
  -21.8100   -6.3980   22.4850 C   0  0  0  0  0  0  0  0  0  0  0  0
  -21.0850   -7.0320   23.5170 C   0  0  0  0  0  3  0  0  0  0  0  0
  -20.7860   -6.3290   24.7020 C   0  0  0  0  0  3  0  0  0  0  0  0
  -21.2040   -4.9930   24.8540 C   0  0  0  0  0  0  0  0  0  0  0  0
  -21.9210   -4.3580   23.8250 C   0  0  0  0  0  3  0  0  0  0  0  0
  -22.2210   -5.0590   22.6420 C   0  0  0  0  0  0  0  0  0  0  0  0
  -22.8930   -4.4360   21.6450 F   0  0  0  0  0  0  0  0  0  0  0  0
  -20.9110   -4.3150   25.9880 F   0  0  0  0  0  0  0  0  0  0  0  0
  -23.1500  -13.6780   21.1780 C   0  0  0  0  0  0  0  0  0  0  0  0
  -22.4600  -12.9530   22.0510 N   0  0  0  0  0  0  0  0  0  0  0  0
  -22.6950  -14.7230   20.7170 O   0  0  0  0  0  0  0  0  0  0  0  0
  -22.8420  -12.1060   22.4450 H   0  0  0  0  0  0  0  0  0  0  0  0
  -21.5350  -13.2510   22.3290 H   0  0  0  0  0  0  0  0  0  0  0  0
  -25.7520  -15.3650   20.3030 N   0  0  0  0  0  0  0  0  0  0  0  0
  -24.9940  -16.0190   20.4700 H   0  0  0  0  0  0  0  0  0  0  0  0
  -26.5930  -15.8110   19.9630 H   0  0  0  0  0  0  0  0  0  0  0  0
  -31.1780  -23.5160   21.2080 C   0  0  0  0  0  2  0  0  0  0  0  0
  -30.0980  -24.4980   20.9770 N   0  0  0  0  0  4  0  0  0  0  0  0
  -29.4250  -24.4040   21.7210 H   0  0  0  0  0  0  0  0  0  0  0  0
  -29.6310  -24.2760   20.1130 H   0  0  0  0  0  0  0  0  0  0  0  0
  -30.6050  -25.8950   20.9200 C   0  0  0  0  0  2  0  0  0  0  0  0
  -29.5060  -26.9610   21.0330 C   0  0  0  0  0  2  0  0  0  0  0  0
  -28.6050  -26.8530   19.9370 O   0  0  0  0  0  0  0  0  0  0  0  0
  -24.6510  -31.8350   23.2150 C   0  0  0  0  0  0  0  0  0  0  0  0
  -27.4510  -27.6020   20.0060 C   0  0  0  0  0  0  0  0  0  0  0  0
  -23.4950  -30.4640   21.5080 C   0  0  0  0  0  3  0  0  0  0  0  0
  -25.0040  -29.0170   20.0450 C   0  0  0  0  0  0  0  0  0  0  0  0
  -26.0070  -30.9020   21.3470 C   0  0  0  0  0  2  0  0  0  0  0  0
  -26.1350  -29.5560   20.6690 C   0  0  0  0  0  0  0  0  0  0  0  0
  -27.3590  -28.8560   20.6570 C   0  0  0  0  0  3  0  0  0  0  0  0
  -26.3060  -27.0770   19.3720 C   0  0  0  0  0  3  0  0  0  0  0  0
  -25.0810  -27.7710   19.3970 C   0  0  0  0  0  3  0  0  0  0  0  0
  -23.7350  -29.8380   20.1080 C   0  0  0  0  0  2  0  0  0  0  0  0
  -24.7340  -31.0800   22.0840 N   0  0  0  0  0  0  0  0  0  0  0  0
  -23.5590  -32.0600   23.7560 O   0  0  0  0  0  0  0  0  0  0  0  0
  -22.8640  -29.3910   22.4230 C   0  0  0  0  0  0  0  0  0  0  0  0
  -21.5430  -29.1940   22.2890 N   0  0  0  0  0  0  0  0  0  0  0  0
  -23.5590  -28.7420   23.2090 O   0  0  0  0  0  0  0  0  0  0  0  0
  -21.0430  -29.7730   21.6290 H   0  0  0  0  0  0  0  0  0  0  0  0
  -18.1800  -27.9710   22.7760 C   0  0  0  0  0  0  0  0  0  0  0  0
  -20.7410  -28.2110   23.0160 C   0  0  0  0  0  3  0  0  0  0  0  0
  -20.8310  -26.8180   22.3530 C   0  0  0  0  0  2  0  0  0  0  0  0
  -19.7110  -26.5560   21.3410 C   0  0  0  0  0  2  0  0  0  0  0  0
  -18.3420  -26.6640   22.0180 C   0  0  0  0  0  2  0  0  0  0  0  0
  -19.3060  -28.7060   23.2300 C   0  0  0  0  0  0  0  0  0  0  0  0
  -19.1010  -29.9330   23.8980 C   0  0  0  0  0  3  0  0  0  0  0  0
  -17.8010  -30.4250   24.1140 C   0  0  0  0  0  3  0  0  0  0  0  0
  -16.6880  -29.6850   23.6790 C   0  0  0  0  0  3  0  0  0  0  0  0
  -16.8780  -28.4600   23.0150 C   0  0  0  0  0  3  0  0  0  0  0  0
  -25.9170  -32.4720   23.8690 C   0  0  0  0  0  3  0  0  0  0  0  0
  -26.4040  -31.7060   25.1610 C   0  0  1  0  0  0  0  0  0  0  0  0
  -25.2820  -31.4540   26.1930 C   0  0  0  0  0  1  0  0  0  0  0  0
  -27.0140  -30.3360   24.7830 C   0  0  0  0  0  1  0  0  0  0  0  0
  -27.5270  -32.5110   25.8580 C   0  0  0  0  0  1  0  0  0  0  0  0
  -25.5980  -33.8710   24.1830 N   0  0  0  0  0  0  0  0  0  0  0  0
  -25.9410  -34.9180   23.4210 C   0  0  0  0  0  0  0  0  0  0  0  0
  -26.6330  -34.8100   22.4040 O   0  0  0  0  0  0  0  0  0  0  0  0
  -24.9870  -34.0280   24.9710 H   0  0  0  0  0  0  0  0  0  0  0  0
  -24.2170  -36.7000   23.0010 C   0  0  0  0  0  1  0  0  0  0  0  0
  -25.4330  -36.3060   23.8550 C   0  0  0  0  0  3  0  0  0  0  0  0
  -27.5330  -37.2070   24.7550 C   0  0  0  0  0  1  0  0  0  0  0  0
  -26.4640  -37.3650   23.7730 N   0  0  0  0  0  0  0  0  0  0  0  0
  -26.0460  -38.2830   23.9050 H   0  0  0  0  0  0  0  0  0  0  0  0
  2  4  2  0
  2  7  1  0
  3  1  1  0
  4 10  1  0
  5  7  2  0
  5  9  1  0
  7  8  1  0
  8  6  1  0
  8  1  2  0
  9  3  2  0
 10 19  1  0
 10  6  2  0
 11 19  1  0
 12 17  1  0
 13 14  1  0
 13 12  1  0
 15 14  1  0
 15 24  1  0
 15 16  1  0
 17 11  1  0
 17 16  1  0
 18 11  2  0
 19 20  1  0
 21 22  2  0
 22 41  1  0
 23 22  1  0
 23 26  1  0
 24 25  1  0
 24 21  1  0
 25 23  2  0
 26 27  1  0
 27 28  2  0
 29 32  1  0
 29 28  1  0
 30 29  2  0
 31 30  1  0
 31 26  2  0
 32 33  1  0
 33 38  2  0
 33 34  1  0
 34 35  2  0
 35 36  1  0
 36 40  1  0
 37 36  2  0
 38 37  1  0
 39 38  1  0
 41 42  1  0
 42 45  1  0
 42 44  1  0
 43 41  2  0
 46 21  1  0
 46 47  1  0
 48 46  1  0
 49  9  1  0
 50 49  1  0
 50 51  1  0
 52 50  1  0
 53 50  1  0
 53 54  1  0
 55 57  1  0
 55 54  1  0
 56 67  2  0
 57 62  1  0
 58 66  1  0
 58 68  1  0
 59 65  1  0
 59 61  1  0
 60 66  1  0
 61 60  1  0
 62 61  2  0
 63 64  1  0
 63 57  2  0
 64 59  2  0
 65 58  1  0
 66 56  1  0
 68 70  2  0
 69 68  1  0
 71 69  1  0
 72 81  2  0
 72 77  1  0
 73 69  1  0
 73 77  1  0
 74 73  1  0
 75 76  1  0
 75 74  1  0
 76 72  1  0
 77 78  2  0
 78 79  1  0
 80 79  2  0
 81 80  1  0
 82 56  1  0
 82 87  1  0
 82 83  1  0
 83 86  1  1
 83 84  1  0
 85 83  1  0
 87 90  1  0
 88 92  1  0
 88 87  1  0
 89 88  2  0
 92 91  1  0
 94 92  1  0
 94 95  1  0
 94 93  1  0
M  ISO  4  11 100  19 100  54 101  55 101
M  END
>  <TORSDO>  (93) 
F 20

>  <SCORE>  (93) 
-12.601

>  <name>  (93) 
95

>  <ligand_id>  (93) 
95

>  <original_smiles>  (93) 
[H]c1c([H])c([H])c2c(c1[H])C([H])([H])C([H])([H])C([H])([H])C2([H])N([H])C(=O)C1([H])N(C(=O)C([H])(N([H])C(=O)C([H])(N([H])C([H])([H])[H])C([H])([H])[H])C(C([H])([H])[H])(C([H])([H])[H])C([H])([H])[H])C([H])([H])c2c([H])c(OC([H])([H])C([H])([H])[N+]([H])([H])C([H])([H])c3c([H])c([H])c4c([H])c(N([H])C(=O)N5C([H])([H])C([H])([H])C([H])([H])C([H])(n6nc(-c7c([H])c([H])c(Oc8c([H])c([H])c(F)c([H])c8F)c([H])c7[H])c(C(=O)N([H])[H])c6N([H])[H])C5([H])[H])c([H])c([H])c4c3[H])c([H])c([H])c2C1([H])[H]

>  <smiles>  (93) 
[H]c1c([H])c([H])c2c(c1[H])C([H])([H])C([H])([H])C([H])([H])C2([H])N([H])C(=O)C1([H])N(C(=O)C([H])(N([H])C(=O)C([H])(N([H])C([H])([H])[H])C([H])([H])[H])C(C([H])([H])[H])(C([H])([H])[H])C([H])([H])[H])C([H])([H])c2c([H])c(OC([H])([H])C([H])([H])[N+]([H])([H])C([H])([H])c3c([H])c([H])c4c([H])c(N([H])C(=O)N5C([H])([H])C([H])([H])C([H])([H])C([H])(n6nc(-c7c([H])c([H])c(Oc8c([H])c([H])c(F)c([H])c8F)c([H])c7[H])c(C(=O)N([H])[H])c6N([H])[H])C5([H])[H])c([H])c([H])c4c3[H])c([H])c([H])c2C1([H])[H]

$$$$
96:0:0
     RDKit          3D

108118  0  0  1  0  0  0  0  0999 V2000
  -24.1040  -24.0120   24.3440 C   0  0  0  0  0  2  0  0  0  0  0  0
  -24.0800  -23.2110   23.0310 C   0  0  0  0  0  2  0  0  0  0  0  0
  -25.3280  -24.9290   24.4820 C   0  0  0  0  0  2  0  0  0  0  0  0
  -26.4550  -26.8930   23.3050 C   0  0  0  0  0  2  0  0  0  0  0  0
  -27.3200  -27.0800   22.0480 C   0  0  0  0  0  2  0  0  0  0  0  0
  -25.4430  -22.5830   22.6840 C   0  0  0  0  0  2  0  0  0  0  0  0
  -25.7370  -25.5500   23.1350 C   0  0  0  0  0  3  0  0  0  0  0  0
  -27.1470  -25.8060   21.1980 C   0  0  0  0  0  3  0  0  0  0  0  0
  -26.7440  -24.7430   22.2780 C   0  0  0  0  0  3  0  0  0  0  0  0
  -26.3350  -23.3760   21.7710 N   0  0  1  0  0  4  0  0  0  0  0  0
  -25.8060  -23.4810   20.9190 H   0  0  0  0  0  0  0  0  0  0  0  0
  -26.0990  -26.0510   20.0690 C   0  0  0  0  0  2  0  0  0  0  0  0
  -26.4340  -27.1730   19.1490 N   0  0  0  0  0  4  0  0  0  0  0  0
  -26.5200  -26.8050   18.2120 H   0  0  0  0  0  0  0  0  0  0  0  0
  -27.3320  -27.5630   19.3960 H   0  0  0  0  0  0  0  0  0  0  0  0
  -25.4260  -28.2690   19.1590 C   0  0  0  0  0  2  0  0  0  0  0  0
  -25.7210  -29.4320   18.1650 C   0  0  0  0  0  2  0  0  0  0  0  0
  -24.7530  -30.4950   18.2240 O   0  0  0  0  0  0  0  0  0  0  0  0
  -26.4340  -30.6370   25.0890 C   0  0  0  0  0  0  0  0  0  0  0  0
  -24.3160  -30.8430   19.4800 C   0  0  0  0  0  0  0  0  0  0  0  0
  -24.0340  -30.9330   24.5630 C   0  0  0  0  0  3  0  0  0  0  0  0
  -23.4790  -31.3800   22.1190 C   0  0  0  0  0  0  0  0  0  0  0  0
  -25.8330  -31.6780   22.9080 C   0  0  0  0  0  2  0  0  0  0  0  0
  -24.8430  -31.3970   21.8000 C   0  0  0  0  0  0  0  0  0  0  0  0
  -25.2660  -31.1440   20.4810 C   0  0  0  0  0  3  0  0  0  0  0  0
  -22.9420  -30.8560   19.8060 C   0  0  0  0  0  3  0  0  0  0  0  0
  -22.5210  -31.1140   21.1230 C   0  0  0  0  0  3  0  0  0  0  0  0
  -23.1090  -31.6650   23.5550 C   0  0  0  0  0  2  0  0  0  0  0  0
  -25.4830  -31.0490   24.2040 N   0  0  0  0  0  0  0  0  0  0  0  0
  -26.1230  -30.2110   26.2080 O   0  0  0  0  0  0  0  0  0  0  0  0
  -23.5570  -29.4710   24.7060 C   0  0  0  0  0  0  0  0  0  0  0  0
  -22.3650  -29.1750   24.1650 N   0  0  0  0  0  0  0  0  0  0  0  0
  -24.2600  -28.6310   25.2740 O   0  0  0  0  0  0  0  0  0  0  0  0
  -21.8290  -29.9300   23.7660 H   0  0  0  0  0  0  0  0  0  0  0  0
  -20.3060  -26.9750   22.1620 C   0  0  0  0  0  0  0  0  0  0  0  0
  -21.7280  -27.8590   24.1350 C   0  0  0  0  0  3  0  0  0  0  0  0
  -22.7420  -26.7500   23.7650 C   0  0  0  0  0  2  0  0  0  0  0  0
  -22.7760  -26.4340   22.2650 C   0  0  0  0  0  2  0  0  0  0  0  0
  -21.3930  -25.9850   21.7810 C   0  0  0  0  0  2  0  0  0  0  0  0
  -20.4760  -27.8710   23.2510 C   0  0  0  0  0  0  0  0  0  0  0  0
  -19.4550  -28.8080   23.5320 C   0  0  0  0  0  3  0  0  0  0  0  0
  -18.2830  -28.8480   22.7540 C   0  0  0  0  0  3  0  0  0  0  0  0
  -18.1110  -27.9370   21.6960 C   0  0  0  0  0  3  0  0  0  0  0  0
  -19.1170  -27.0030   21.4030 C   0  0  0  0  0  3  0  0  0  0  0  0
  -27.9570  -30.7060   24.7450 C   0  0  0  0  0  3  0  0  0  0  0  0
  -28.6640  -29.2950   24.7580 C   0  0  1  0  0  0  0  0  0  0  0  0
  -28.3500  -28.4520   26.0150 C   0  0  0  0  0  1  0  0  0  0  0  0
  -28.2470  -28.4630   23.5220 C   0  0  0  0  0  1  0  0  0  0  0  0
  -30.1980  -29.4750   24.6760 C   0  0  0  0  0  1  0  0  0  0  0  0
  -28.5860  -31.6140   25.7140 N   0  0  0  0  0  0  0  0  0  0  0  0
  -29.1400  -32.7930   25.4020 C   0  0  0  0  0  0  0  0  0  0  0  0
  -29.2400  -33.1990   24.2400 O   0  0  0  0  0  0  0  0  0  0  0  0
  -28.4890  -31.3720   26.6900 H   0  0  0  0  0  0  0  0  0  0  0  0
  -28.7400  -34.8690   26.7610 C   0  0  0  0  0  1  0  0  0  0  0  0
  -29.6650  -33.6590   26.5610 C   0  0  0  0  0  3  0  0  0  0  0  0
  -32.0380  -33.0400   26.4280 C   0  0  0  0  0  1  0  0  0  0  0  0
  -31.0570  -34.1210   26.3640 N   0  0  0  0  0  0  0  0  0  0  0  0
  -31.3070  -34.8190   27.0590 H   0  0  0  0  0  0  0  0  0  0  0  0
  -27.5230  -22.5080   21.4700 C   0  0  0  0  0  2  0  0  0  0  0  0
  -28.4830  -22.9810   20.3530 C   0  0  0  0  0  2  0  0  0  0  0  0
  -29.5250  -21.9890   20.1150 N   0  0  0  0  0  0  0  0  0  0  0  0
  -29.8470  -21.5620   20.9790 H   0  0  0  0  0  0  0  0  0  0  0  0
  -32.8940  -23.1160   17.8400 C   0  0  0  0  0  3  0  0  0  0  0  0
  -31.6660  -22.8990   17.1910 C   0  0  0  0  0  3  0  0  0  0  0  0
  -31.8360  -22.6640   19.9850 C   0  0  0  0  0  3  0  0  0  0  0  0
  -32.9830  -23.0130   19.2430 C   0  0  0  0  0  0  0  0  0  0  0  0
  -30.5170  -22.5520   17.9300 C   0  0  0  0  0  0  0  0  0  0  0  0
  -30.6040  -22.4200   19.3390 C   0  0  0  0  0  0  0  0  0  0  0  0
  -29.2290  -22.2780   17.1660 C   0  0  0  0  0  1  0  0  0  0  0  0
  -34.3300  -23.1840   19.9280 C   0  0  0  0  0  2  0  0  0  0  0  0
  -35.9230  -21.3950   20.6650 C   0  0  0  0  0  0  0  0  0  0  0  0
  -37.0890  -19.2150   20.6480 C   0  0  0  0  0  2  0  0  0  0  0  0
  -37.0320  -18.6370   19.2200 C   0  0  0  0  0  2  0  0  0  0  0  0
  -35.7220  -17.8550   18.9940 C   0  0  0  0  0  2  0  0  0  0  0  0
  -34.4660  -18.6570   19.4330 C   0  0  0  0  0  3  0  0  0  0  0  0
  -34.6690  -19.2280   20.8510 C   0  0  0  0  0  2  0  0  0  0  0  0
  -35.8950  -20.0500   20.8440 N   0  0  0  0  0  0  0  0  0  0  0  0
  -36.9600  -22.0460   20.5070 O   0  0  0  0  0  0  0  0  0  0  0  0
  -34.7040  -21.9430   20.5870 N   0  0  0  0  0  0  0  0  0  0  0  0
  -33.9420  -21.3080   20.7780 H   0  0  0  0  0  0  0  0  0  0  0  0
  -31.9700  -18.2080   18.9810 C   0  0  0  0  0  0  0  0  0  0  0  0
  -31.2270  -17.0600   19.0240 C   0  0  0  0  0  0  0  0  0  0  0  0
  -32.1270  -16.0260   19.4280 C   0  0  0  0  0  0  0  0  0  0  0  0
  -33.2540  -17.8460   19.3560 N   0  0  0  0  0  0  0  0  0  0  0  0
  -33.3290  -16.5290   19.6750 N   0  0  0  0  0  0  0  0  0  0  0  0
  -31.9250  -14.5770   19.5420 C   0  0  0  0  0  0  0  0  0  0  0  0
  -31.7140  -13.9570   20.7940 C   0  0  0  0  0  3  0  0  0  0  0  0
  -31.5060  -12.5640   20.8770 C   0  0  0  0  0  3  0  0  0  0  0  0
  -31.4990  -11.7780   19.6990 C   0  0  0  0  0  0  0  0  0  0  0  0
  -31.7320  -12.3950   18.4580 C   0  0  0  0  0  3  0  0  0  0  0  0
  -31.9440  -13.7820   18.3790 C   0  0  0  0  0  3  0  0  0  0  0  0
  -31.3290  -10.4150   19.6840 O   0  0  0  0  0  0  0  0  0  0  0  0
  -30.2140   -9.8240   20.2190 C   0  0  0  0  0  0  0  0  0  0  0  0
  -28.9180  -10.0990   19.7290 C   0  0  0  0  0  3  0  0  0  0  0  0
  -27.8040   -9.4200   20.2650 C   0  0  0  0  0  3  0  0  0  0  0  0
  -27.9870   -8.4550   21.2750 C   0  0  0  0  0  0  0  0  0  0  0  0
  -29.2770   -8.1750   21.7560 C   0  0  0  0  0  3  0  0  0  0  0  0
  -30.3880   -8.8550   21.2270 C   0  0  0  0  0  0  0  0  0  0  0  0
  -31.6310   -8.5690   21.6830 F   0  0  0  0  0  0  0  0  0  0  0  0
  -26.9210   -7.7940   21.7810 F   0  0  0  0  0  0  0  0  0  0  0  0
  -29.7870  -16.9080   18.6220 C   0  0  0  0  0  0  0  0  0  0  0  0
  -29.0710  -15.9780   19.2460 N   0  0  0  0  0  0  0  0  0  0  0  0
  -29.2750  -17.6460   17.7810 O   0  0  0  0  0  0  0  0  0  0  0  0
  -29.4830  -15.3860   19.9520 H   0  0  0  0  0  0  0  0  0  0  0  0
  -28.0940  -15.8550   19.0170 H   0  0  0  0  0  0  0  0  0  0  0  0
  -31.6590  -19.5170   18.6420 N   0  0  0  0  0  0  0  0  0  0  0  0
  -30.7150  -19.7910   18.3940 H   0  0  0  0  0  0  0  0  0  0  0  0
  -32.2850  -20.3110   18.7210 H   0  0  0  0  0  0  0  0  0  0  0  0
  1  3  1  0
  2  1  1  0
  5  4  1  0
  6  2  1  0
  7  4  1  0
  7  3  1  0
  8 12  1  0
  8  5  1  0
  8  9  1  0
  9 10  1  0
  9  7  1  0
 10  6  1  0
 10 11  1  6
 13 16  1  0
 13 15  1  0
 13 12  1  0
 14 13  1  0
 17 18  1  0
 17 16  1  0
 18 20  1  0
 19 30  2  0
 20 26  2  0
 20 25  1  0
 21 31  1  0
 22 28  1  0
 23 29  1  0
 24 22  1  0
 24 23  1  0
 25 24  2  0
 26 27  1  0
 27 22  2  0
 28 21  1  0
 29 21  1  0
 29 19  1  0
 31 33  2  0
 32 31  1  0
 34 32  1  0
 35 40  1  0
 36 32  1  0
 37 36  1  0
 38 37  1  0
 39 35  1  0
 39 38  1  0
 40 41  2  0
 40 36  1  0
 42 41  1  0
 43 42  2  0
 44 43  1  0
 44 35  2  0
 45 46  1  0
 45 19  1  0
 45 50  1  0
 46 47  1  1
 48 46  1  0
 49 46  1  0
 50 53  1  0
 51 50  1  0
 51 55  1  0
 52 51  2  0
 55 54  1  0
 57 56  1  0
 57 55  1  0
 57 58  1  0
 59 10  1  0
 60 59  1  0
 61 60  1  0
 61 62  1  0
 63 66  1  0
 64 63  2  0
 64 67  1  0
 66 70  1  0
 66 65  2  0
 67 68  2  0
 68 65  1  0
 68 61  1  0
 69 67  1  0
 70 79  1  0
 71 77  1  0
 72 77  1  0
 73 72  1  0
 74 73  1  0
 75 74  1  0
 75 76  1  0
 77 76  1  0
 78 71  2  0
 79 71  1  0
 79 80  1  0
 81 82  2  0
 81 84  1  0
 82 83  1  0
 83 86  1  0
 83 85  2  0
 84 75  1  0
 84 85  1  0
 86 87  1  0
 87 88  2  0
 89 88  1  0
 90 89  2  0
 91 90  1  0
 91 86  2  0
 92 89  1  0
 92 93  1  0
 93 98  1  0
 94 93  2  0
 94 95  1  0
 95 96  2  0
 96 97  1  0
 96100  1  0
 98 99  1  0
 98 97  2  0
101 82  1  0
101102  1  0
102104  1  0
103101  2  0
105102  1  0
106108  1  0
106 81  1  0
107106  1  0
M  ISO  4  17 101  18 101  71 100  79 100
M  END
>  <TORSDO>  (94) 
F 25

>  <SCORE>  (94) 
0.207

>  <name>  (94) 
96

>  <ligand_id>  (94) 
96

>  <original_smiles>  (94) 
[H]c1c([H])c([H])c2c(c1[H])C([H])([H])C([H])([H])C([H])([H])C2([H])N([H])C(=O)C1([H])N(C(=O)C([H])(N([H])C(=O)C([H])(N([H])C([H])([H])[H])C([H])([H])[H])C(C([H])([H])[H])(C([H])([H])[H])C([H])([H])[H])C([H])([H])c2c([H])c(OC([H])([H])C([H])([H])[N+]([H])([H])C([H])([H])C3([H])C([H])([H])C([H])([H])C4([H])C([H])([H])C([H])([H])C([H])([H])C([H])([H])[N+]([H])(C([H])([H])C([H])([H])N([H])c5c([H])c(C([H])([H])N([H])C(=O)N6C([H])([H])C([H])([H])C([H])([H])C([H])(n7nc(-c8c([H])c([H])c(Oc9c([H])c([H])c(F)c([H])c9F)c([H])c8[H])c(C(=O)N([H])[H])c7N([H])[H])C6([H])[H])c([H])c([H])c5C([H])([H])[H])C43[H])c([H])c([H])c2C1([H])[H]

>  <smiles>  (94) 
[H]c1c([H])c([H])c2c(c1[H])C([H])([H])C([H])([H])C([H])([H])C2([H])N([H])C(=O)C1([H])N(C(=O)C([H])(N([H])C(=O)C([H])(N([H])C([H])([H])[H])C([H])([H])[H])C(C([H])([H])[H])(C([H])([H])[H])C([H])([H])[H])C([H])([H])c2c([H])c(OC([H])([H])C([H])([H])[N+]([H])([H])C([H])([H])C3([H])C([H])([H])C([H])([H])C4([H])C([H])([H])C([H])([H])C([H])([H])C([H])([H])[N+]([H])(C([H])([H])C([H])([H])N([H])c5c([H])c(C([H])([H])N([H])C(=O)N6C([H])([H])C([H])([H])C([H])([H])C([H])(n7nc(-c8c([H])c([H])c(Oc9c([H])c([H])c(F)c([H])c9F)c([H])c8[H])c(C(=O)N([H])[H])c7N([H])[H])C6([H])[H])c([H])c([H])c5C([H])([H])[H])C43[H])c([H])c([H])c2C1([H])[H]

$$$$
