0:0:0
     RDKit          3D

101108  0  0  1  0  0  0  0  0999 V2000
  -23.7890  -21.6750   23.3440 C   0  0  0  0  0  0  0  0  0  0  0  0
  -24.2880  -21.5550   22.1110 N   0  0  0  0  0  0  0  0  0  0  0  0
  -22.7920  -21.0590   23.7270 O   0  0  0  0  0  0  0  0  0  0  0  0
  -25.1220  -22.0830   21.8860 H   0  0  0  0  0  0  0  0  0  0  0  0
  -23.7420  -20.7440   21.0300 C   0  0  0  0  0  2  0  0  0  0  0  0
  -24.0080  -21.4440   19.6930 C   0  0  0  0  0  2  0  0  0  0  0  0
  -25.3910  -21.7630   19.6360 O   0  0  0  0  0  0  0  0  0  0  0  0
  -25.7590  -22.4380   18.4420 C   0  0  0  0  0  2  0  0  0  0  0  0
  -27.2110  -22.9020   18.5970 C   0  0  0  0  0  2  0  0  0  0  0  0
  -27.2340  -23.9540   19.5500 O   0  0  0  0  0  0  0  0  0  0  0  0
  -28.5470  -24.3570   19.9030 C   0  0  0  0  0  2  0  0  0  0  0  0
  -28.4780  -25.5900   20.8140 C   0  0  0  0  0  2  0  0  0  0  0  0
  -28.4270  -26.7900   20.0470 O   0  0  0  0  0  0  0  0  0  0  0  0
  -24.6100  -31.8710   23.2130 C   0  0  0  0  0  0  0  0  0  0  0  0
  -27.2410  -27.4760   20.0930 C   0  0  0  0  0  0  0  0  0  0  0  0
  -23.3960  -30.4920   21.5540 C   0  0  0  0  0  3  0  0  0  0  0  0
  -24.8450  -28.9600   20.1220 C   0  0  0  0  0  0  0  0  0  0  0  0
  -25.9200  -30.8500   21.3600 C   0  0  0  0  0  2  0  0  0  0  0  0
  -26.0010  -29.4840   20.7140 C   0  0  0  0  0  0  0  0  0  0  0  0
  -27.2030  -28.7490   20.6970 C   0  0  0  0  0  3  0  0  0  0  0  0
  -26.0720  -26.9540   19.5010 C   0  0  0  0  0  3  0  0  0  0  0  0
  -24.8720  -27.6910   19.5150 C   0  0  0  0  0  3  0  0  0  0  0  0
  -23.6040  -29.8220   20.1700 C   0  0  0  0  0  2  0  0  0  0  0  0
  -24.6600  -31.0840   22.1020 N   0  0  0  0  0  0  0  0  0  0  0  0
  -23.5290  -32.1440   23.7560 O   0  0  0  0  0  0  0  0  0  0  0  0
  -22.7390  -29.4650   22.5020 C   0  0  0  0  0  0  0  0  0  0  0  0
  -21.4120  -29.3020   22.3760 N   0  0  0  0  0  0  0  0  0  0  0  0
  -23.4170  -28.8200   23.3050 O   0  0  0  0  0  0  0  0  0  0  0  0
  -20.9260  -29.8750   21.7000 H   0  0  0  0  0  0  0  0  0  0  0  0
  -18.0260  -28.1360   22.8490 C   0  0  0  0  0  0  0  0  0  0  0  0
  -20.5850  -28.3640   23.1340 C   0  0  0  0  0  3  0  0  0  0  0  0
  -20.6760  -26.9390   22.5420 C   0  0  0  0  0  2  0  0  0  0  0  0
  -19.5750  -26.6380   21.5200 C   0  0  0  0  0  2  0  0  0  0  0  0
  -18.1920  -26.7910   22.1610 C   0  0  0  0  0  2  0  0  0  0  0  0
  -19.1510  -28.8810   23.2910 C   0  0  0  0  0  0  0  0  0  0  0  0
  -18.9440  -30.1420   23.8920 C   0  0  0  0  0  3  0  0  0  0  0  0
  -17.6450  -30.6570   24.0550 C   0  0  0  0  0  3  0  0  0  0  0  0
  -16.5340  -29.9070   23.6320 C   0  0  0  0  0  3  0  0  0  0  0  0
  -16.7250  -28.6490   23.0340 C   0  0  0  0  0  3  0  0  0  0  0  0
  -25.9000  -32.4850   23.8420 C   0  0  0  0  0  3  0  0  0  0  0  0
  -25.5870  -33.8640   24.2350 N   0  0  0  0  0  0  0  0  0  0  0  0
  -25.9020  -34.9490   23.5140 C   0  0  0  0  0  0  0  0  0  0  0  0
  -26.5590  -34.8920   22.4700 O   0  0  0  0  0  0  0  0  0  0  0  0
  -24.9990  -33.9800   25.0470 H   0  0  0  0  0  0  0  0  0  0  0  0
  -24.1490  -36.7340   23.2640 C   0  0  0  0  0  1  0  0  0  0  0  0
  -25.4100  -36.3130   24.0330 C   0  0  0  0  0  3  0  0  0  0  0  0
  -27.5590  -37.1820   24.8460 C   0  0  0  0  0  1  0  0  0  0  0  0
  -26.4300  -37.3810   23.9400 N   0  0  0  0  0  0  0  0  0  0  0  0
  -26.0190  -38.2890   24.1380 H   0  0  0  0  0  0  0  0  0  0  0  0
  -26.4440  -31.6620   25.0730 C   0  0  1  0  0  0  0  0  0  0  0  0
  -25.3730  -31.3700   26.1490 C   0  0  0  0  0  1  0  0  0  0  0  0
  -27.0260  -30.3070   24.6060 C   0  0  0  0  0  1  0  0  0  0  0  0
  -27.6020  -32.4330   25.7490 C   0  0  0  0  0  1  0  0  0  0  0  0
  -24.5330  -22.6240   24.2850 C   0  0  0  0  0  2  0  0  0  0  0  0
  -25.6970  -21.9700   24.7790 O   0  0  0  0  0  0  0  0  0  0  0  0
  -26.4800  -22.8230   25.6040 C   0  0  0  0  0  2  0  0  0  0  0  0
  -27.6320  -22.0310   26.2340 C   0  0  0  0  0  2  0  0  0  0  0  0
  -28.5550  -21.6340   25.2290 O   0  0  0  0  0  0  0  0  0  0  0  0
  -29.7260  -21.0430   25.7800 C   0  0  0  0  0  2  0  0  0  0  0  0
  -30.5640  -20.4220   24.6590 C   0  0  0  0  0  2  0  0  0  0  0  0
  -29.9470  -19.2120   24.2380 O   0  0  0  0  0  0  0  0  0  0  0  0
  -30.6950  -18.5430   23.2350 C   0  0  0  0  0  2  0  0  0  0  0  0
  -30.0130  -17.2130   22.8920 C   0  0  0  0  0  2  0  0  0  0  0  0
  -30.8120  -16.4340   21.8430 C   0  0  0  0  0  2  0  0  0  0  0  0
  -30.1950  -15.1870   21.5520 O   0  0  0  0  0  0  0  0  0  0  0  0
  -30.7800  -14.3770   20.6510 C   0  0  0  0  0  0  0  0  0  0  0  0
  -30.4120  -12.2680   19.3880 C   0  0  0  0  0  2  0  0  0  0  0  0
  -29.4790  -12.5170   18.1900 C   0  0  0  0  0  2  0  0  0  0  0  0
  -28.0040  -12.3790   18.6130 C   0  0  0  0  0  2  0  0  0  0  0  0
  -27.6650  -13.2030   19.8850 C   0  0  0  0  0  3  0  0  0  0  0  0
  -28.7010  -12.9510   21.0030 C   0  0  0  0  0  2  0  0  0  0  0  0
  -30.0380  -13.2080   20.4470 N   0  0  0  0  0  0  0  0  0  0  0  0
  -31.8290  -14.6640   20.0670 O   0  0  0  0  0  0  0  0  0  0  0  0
  -25.2590  -13.8160   20.5690 C   0  0  0  0  0  0  0  0  0  0  0  0
  -24.1830  -13.0450   20.9170 C   0  0  0  0  0  0  0  0  0  0  0  0
  -24.6380  -11.6910   20.8730 C   0  0  0  0  0  0  0  0  0  0  0  0
  -26.3030  -12.9330   20.3420 N   0  0  0  0  0  0  0  0  0  0  0  0
  -25.9300  -11.6480   20.5780 N   0  0  0  0  0  0  0  0  0  0  0  0
  -23.9050  -10.4290   21.0400 C   0  0  0  0  0  0  0  0  0  0  0  0
  -24.3600   -9.4210   21.9180 C   0  0  0  0  0  3  0  0  0  0  0  0
  -23.6280   -8.2240   22.0750 C   0  0  0  0  0  3  0  0  0  0  0  0
  -22.4270   -8.0280   21.3540 C   0  0  0  0  0  0  0  0  0  0  0  0
  -21.9900   -9.0250   20.4650 C   0  0  0  0  0  3  0  0  0  0  0  0
  -22.7220  -10.2130   20.3050 C   0  0  0  0  0  3  0  0  0  0  0  0
  -21.6640   -6.8880   21.4240 O   0  0  0  0  0  0  0  0  0  0  0  0
  -21.6850   -6.0730   22.5280 C   0  0  0  0  0  0  0  0  0  0  0  0
  -21.4010   -6.5640   23.8210 C   0  0  0  0  0  3  0  0  0  0  0  0
  -21.3660   -5.6790   24.9180 C   0  0  0  0  0  3  0  0  0  0  0  0
  -21.6050   -4.3050   24.7230 C   0  0  0  0  0  0  0  0  0  0  0  0
  -21.8820   -3.8140   23.4350 C   0  0  0  0  0  3  0  0  0  0  0  0
  -21.9190   -4.6960   22.3400 C   0  0  0  0  0  0  0  0  0  0  0  0
  -22.1660   -4.2150   21.0980 F   0  0  0  0  0  0  0  0  0  0  0  0
  -21.5630   -3.4540   25.7740 F   0  0  0  0  0  0  0  0  0  0  0  0
  -22.7860  -13.5250   21.1830 C   0  0  0  0  0  0  0  0  0  0  0  0
  -22.0500  -12.8240   22.0390 N   0  0  0  0  0  0  0  0  0  0  0  0
  -22.3550  -14.5560   20.6690 O   0  0  0  0  0  0  0  0  0  0  0  0
  -22.4110  -11.9890   22.4780 H   0  0  0  0  0  0  0  0  0  0  0  0
  -21.1120  -13.1270   22.2600 H   0  0  0  0  0  0  0  0  0  0  0  0
  -25.4340  -15.1880   20.4110 N   0  0  0  0  0  0  0  0  0  0  0  0
  -24.6760  -15.8510   20.5260 H   0  0  0  0  0  0  0  0  0  0  0  0
  -26.3020  -15.6230   20.1260 H   0  0  0  0  0  0  0  0  0  0  0  0
  1  3  2  0
  1 54  1  0
  2  1  1  0
  4  2  1  0
  5  2  1  0
  6  5  1  0
  7  6  1  0
  8  9  1  0
  8  7  1  0
  9 10  1  0
 10 11  1  0
 11 12  1  0
 13 15  1  0
 13 12  1  0
 14 25  2  0
 15 20  1  0
 16 24  1  0
 16 26  1  0
 17 23  1  0
 17 19  1  0
 18 24  1  0
 19 18  1  0
 20 19  2  0
 21 22  1  0
 21 15  2  0
 22 17  2  0
 23 16  1  0
 24 14  1  0
 26 28  2  0
 27 26  1  0
 29 27  1  0
 30 39  2  0
 30 35  1  0
 31 27  1  0
 31 35  1  0
 32 31  1  0
 33 34  1  0
 33 32  1  0
 34 30  1  0
 35 36  2  0
 36 37  1  0
 38 37  2  0
 39 38  1  0
 40 14  1  0
 40 41  1  0
 40 50  1  0
 41 44  1  0
 42 46  1  0
 42 41  1  0
 43 42  2  0
 46 45  1  0
 48 46  1  0
 48 49  1  0
 48 47  1  0
 50 53  1  1
 50 51  1  0
 52 50  1  0
 54 55  1  0
 55 56  1  0
 56 57  1  0
 58 59  1  0
 58 57  1  0
 60 59  1  0
 61 60  1  0
 62 61  1  0
 63 62  1  0
 64 63  1  0
 65 64  1  0
 66 65  1  0
 67 72  1  0
 68 69  1  0
 68 67  1  0
 70 69  1  0
 70 77  1  0
 70 71  1  0
 72 66  1  0
 72 71  1  0
 73 66  2  0
 74 75  2  0
 75 94  1  0
 76 75  1  0
 76 79  1  0
 77 74  1  0
 77 78  1  0
 78 76  2  0
 79 80  1  0
 80 81  2  0
 82 85  1  0
 82 81  1  0
 83 82  2  0
 84 83  1  0
 84 79  2  0
 85 86  1  0
 86 87  1  0
 87 88  2  0
 89 88  1  0
 89 93  1  0
 90 89  2  0
 91 86  2  0
 91 90  1  0
 92 91  1  0
 94 95  1  0
 95 98  1  0
 95 97  1  0
 96 94  2  0
 99100  1  0
 99 74  1  0
101 99  1  0
M  ISO  4  12 101  13 101  65 100  66 100
M  END
>  <TORSDO>  (1) 
F 36

>  <SCORE>  (1) 
31.193

>  <name>  (1) 
0

>  <ligand_id>  (1) 
0

>  <original_smiles>  (1) 
[H]c1c([H])c([H])c2c(c1[H])C([H])([H])C([H])([H])C([H])([H])C2([H])N([H])C(=O)C1([H])N(C(=O)C([H])(N([H])C(=O)C([H])(N([H])C([H])([H])[H])C([H])([H])[H])C(C([H])([H])[H])(C([H])([H])[H])C([H])([H])[H])C([H])([H])c2c([H])c(OC([H])([H])C([H])([H])OC([H])([H])C([H])([H])OC([H])([H])C([H])([H])N([H])C(=O)C([H])([H])OC([H])([H])C([H])([H])OC([H])([H])C([H])([H])OC([H])([H])C([H])([H])C([H])([H])OC(=O)N3C([H])([H])C([H])([H])C([H])([H])C([H])(n4nc(-c5c([H])c([H])c(Oc6c([H])c([H])c(F)c([H])c6F)c([H])c5[H])c(C(=O)N([H])[H])c4N([H])[H])C3([H])[H])c([H])c([H])c2C1([H])[H]

>  <smiles>  (1) 
[H]c1c([H])c([H])c2c(c1[H])C([H])([H])C([H])([H])C([H])([H])C2([H])N([H])C(=O)C1([H])N(C(=O)C([H])(N([H])C(=O)C([H])(N([H])C([H])([H])[H])C([H])([H])[H])C(C([H])([H])[H])(C([H])([H])[H])C([H])([H])[H])C([H])([H])c2c([H])c(OC([H])([H])C([H])([H])OC([H])([H])C([H])([H])OC([H])([H])C([H])([H])N([H])C(=O)C([H])([H])OC([H])([H])C([H])([H])OC([H])([H])C([H])([H])OC([H])([H])C([H])([H])C([H])([H])OC(=O)N3C([H])([H])C([H])([H])C([H])([H])C([H])(n4nc(-c5c([H])c([H])c(Oc6c([H])c([H])c(F)c([H])c6F)c([H])c5[H])c(C(=O)N([H])[H])c4N([H])[H])C3([H])[H])c([H])c([H])c2C1([H])[H]

$$$$
1:0:0
     RDKit          3D

103111  0  0  1  0  0  0  0  0999 V2000
  -32.2310  -21.8460   22.7010 C   0  0  0  0  0  0  0  0  0  0  0  0
  -31.3420  -22.8470   22.6840 N   0  0  0  0  0  0  0  0  0  0  0  0
  -33.4270  -22.0120   22.4520 O   0  0  0  0  0  0  0  0  0  0  0  0
  -30.3980  -22.6200   22.9620 H   0  0  0  0  0  0  0  0  0  0  0  0
  -30.2800  -19.0050   24.3920 C   0  0  0  0  0  3  0  0  0  0  0  0
  -30.8200  -20.2790   24.1360 C   0  0  0  0  0  3  0  0  0  0  0  0
  -30.5840  -17.9210   23.5480 C   0  0  0  0  0  3  0  0  0  0  0  0
  -31.9860  -19.3850   22.1950 C   0  0  0  0  0  3  0  0  0  0  0  0
  -31.6880  -20.4810   23.0350 C   0  0  0  0  0  0  0  0  0  0  0  0
  -31.4430  -18.1060   22.4390 C   0  0  0  0  0  0  0  0  0  0  0  0
  -31.3530  -15.8060   21.4360 C   0  0  0  0  0  0  0  0  0  0  0  0
  -31.7590  -17.0850   21.5000 N   0  0  0  0  0  0  0  0  0  0  0  0
  -30.6490  -15.2520   22.2870 O   0  0  0  0  0  0  0  0  0  0  0  0
  -32.3980  -17.3550   20.7650 H   0  0  0  0  0  0  0  0  0  0  0  0
  -31.8570  -15.0310   20.2170 C   0  0  0  0  0  2  0  0  0  0  0  0
  -31.1190  -13.8230   20.0590 O   0  0  0  0  0  0  0  0  0  0  0  0
  -31.2980  -13.0860   18.9570 C   0  0  0  0  0  0  0  0  0  0  0  0
  -30.3010  -11.1840   17.7010 C   0  0  0  0  0  2  0  0  0  0  0  0
  -29.1720  -11.6610   16.7710 C   0  0  0  0  0  2  0  0  0  0  0  0
  -27.8310  -11.7090   17.5270 C   0  0  0  0  0  2  0  0  0  0  0  0
  -27.9290  -12.4730   18.8760 C   0  0  0  0  0  3  0  0  0  0  0  0
  -29.1340  -11.9750   19.7050 C   0  0  0  0  0  2  0  0  0  0  0  0
  -30.3350  -12.0750   18.8610 N   0  0  0  0  0  0  0  0  0  0  0  0
  -32.2040  -13.2860   18.1450 O   0  0  0  0  0  0  0  0  0  0  0  0
  -25.9010  -13.3890   20.1700 C   0  0  0  0  0  0  0  0  0  0  0  0
  -24.8060  -12.7680   20.7110 C   0  0  0  0  0  0  0  0  0  0  0  0
  -24.9780  -11.3720   20.4570 C   0  0  0  0  0  0  0  0  0  0  0  0
  -26.6810  -12.3780   19.6290 N   0  0  0  0  0  0  0  0  0  0  0  0
  -26.1380  -11.1550   19.8520 N   0  0  0  0  0  0  0  0  0  0  0  0
  -24.0800  -10.2370   20.7030 C   0  0  0  0  0  0  0  0  0  0  0  0
  -24.4480   -9.1770   21.5600 C   0  0  0  0  0  3  0  0  0  0  0  0
  -23.5600   -8.1050   21.7940 C   0  0  0  0  0  3  0  0  0  0  0  0
  -22.2890   -8.0880   21.1730 C   0  0  0  0  0  0  0  0  0  0  0  0
  -21.9370   -9.1350   20.3040 C   0  0  0  0  0  3  0  0  0  0  0  0
  -22.8230  -10.1980   20.0670 C   0  0  0  0  0  3  0  0  0  0  0  0
  -21.3710   -7.0760   21.3230 O   0  0  0  0  0  0  0  0  0  0  0  0
  -21.1550   -6.4730   22.5360 C   0  0  0  0  0  0  0  0  0  0  0  0
  -20.7550   -7.2090   23.6730 C   0  0  0  0  0  3  0  0  0  0  0  0
  -20.4770   -6.5400   24.8810 C   0  0  0  0  0  3  0  0  0  0  0  0
  -20.5880   -5.1380   24.9540 C   0  0  0  0  0  0  0  0  0  0  0  0
  -20.9810   -4.4040   23.8210 C   0  0  0  0  0  3  0  0  0  0  0  0
  -21.2610   -5.0700   22.6140 C   0  0  0  0  0  0  0  0  0  0  0  0
  -21.6190   -4.3560   21.5200 F   0  0  0  0  0  0  0  0  0  0  0  0
  -20.3140   -4.4950   26.1120 F   0  0  0  0  0  0  0  0  0  0  0  0
  -23.6210  -13.4350   21.3470 C   0  0  0  0  0  0  0  0  0  0  0  0
  -23.0040  -12.7850   22.3270 N   0  0  0  0  0  0  0  0  0  0  0  0
  -23.2650  -14.5630   21.0080 O   0  0  0  0  0  0  0  0  0  0  0  0
  -23.3100  -11.8680   22.6190 H   0  0  0  0  0  0  0  0  0  0  0  0
  -22.2160  -13.2100   22.7930 H   0  0  0  0  0  0  0  0  0  0  0  0
  -26.2860  -14.7220   20.0760 N   0  0  0  0  0  0  0  0  0  0  0  0
  -25.7110  -15.4820   20.4230 H   0  0  0  0  0  0  0  0  0  0  0  0
  -27.1330  -15.0410   19.6210 H   0  0  0  0  0  0  0  0  0  0  0  0
  -31.5760  -24.1900   22.1590 C   0  0  0  0  0  2  0  0  0  0  0  0
  -32.0500  -24.1740   20.6880 C   0  0  0  0  0  2  0  0  0  0  0  0
  -31.0690  -23.4740   19.7280 C   0  0  0  0  0  2  0  0  0  0  0  0
  -30.6920  -24.3270   18.5060 C   0  0  0  0  0  2  0  0  0  0  0  0
  -29.4990  -23.7320   17.7410 C   0  0  0  0  0  2  0  0  0  0  0  0
  -29.7710  -23.5390   16.2340 C   0  0  0  0  0  2  0  0  0  0  0  0
  -29.6830  -25.3860   14.5000 C   0  0  0  0  0  0  0  0  0  0  0  0
  -29.0940  -24.5640   15.4530 N   0  0  0  0  0  0  0  0  0  0  0  0
  -30.8550  -25.3210   14.1290 O   0  0  0  0  0  0  0  0  0  0  0  0
  -28.1120  -24.7330   15.6260 H   0  0  0  0  0  0  0  0  0  0  0  0
  -28.8010  -26.3050   13.9820 O   0  0  0  0  0  0  0  0  0  0  0  0
  -25.5500  -26.7490   20.2710 C   0  0  0  0  0  0  0  0  0  0  0  0
  -27.6710  -26.6920   14.6670 C   0  0  0  0  0  0  0  0  0  0  0  0
  -24.1090  -27.0930   18.2880 C   0  0  0  0  0  3  0  0  0  0  0  0
  -25.3340  -27.3960   16.0700 C   0  0  0  0  0  0  0  0  0  0  0  0
  -26.5950  -27.6800   18.2140 C   0  0  0  0  0  2  0  0  0  0  0  0
  -26.5650  -27.3540   16.7370 C   0  0  0  0  0  0  0  0  0  0  0  0
  -27.7380  -27.0120   16.0400 C   0  0  0  0  0  3  0  0  0  0  0  0
  -26.4320  -26.7500   13.9960 C   0  0  0  0  0  3  0  0  0  0  0  0
  -25.2600  -27.0940   14.6970 C   0  0  0  0  0  3  0  0  0  0  0  0
  -24.1270  -27.7790   16.8930 C   0  0  0  0  0  2  0  0  0  0  0  0
  -25.4430  -27.1370   18.9690 N   0  0  0  0  0  0  0  0  0  0  0  0
  -24.5530  -26.4030   20.9190 O   0  0  0  0  0  0  0  0  0  0  0  0
  -23.5520  -25.6610   18.1240 C   0  0  0  0  0  0  0  0  0  0  0  0
  -22.2200  -25.5520   17.9860 N   0  0  0  0  0  0  0  0  0  0  0  0
  -24.3090  -24.6880   18.0930 O   0  0  0  0  0  0  0  0  0  0  0  0
  -21.6700  -26.3980   18.0300 H   0  0  0  0  0  0  0  0  0  0  0  0
  -18.9050  -24.1900   17.5380 C   0  0  0  0  0  0  0  0  0  0  0  0
  -21.4750  -24.3100   17.7800 C   0  0  0  0  0  3  0  0  0  0  0  0
  -21.5330  -23.8660   16.3000 C   0  0  0  0  0  2  0  0  0  0  0  0
  -20.3520  -24.3760   15.4700 C   0  0  0  0  0  2  0  0  0  0  0  0
  -19.0290  -23.8760   16.0560 C   0  0  0  0  0  2  0  0  0  0  0  0
  -20.0540  -24.4100   18.3430 C   0  0  0  0  0  0  0  0  0  0  0  0
  -19.8830  -24.7330   19.7070 C   0  0  0  0  0  3  0  0  0  0  0  0
  -18.5960  -24.8360   20.2670 C   0  0  0  0  0  3  0  0  0  0  0  0
  -17.4620  -24.6010   19.4690 C   0  0  0  0  0  3  0  0  0  0  0  0
  -17.6190  -24.2750   18.1110 C   0  0  0  0  0  3  0  0  0  0  0  0
  -26.9220  -26.7450   21.0160 C   0  0  0  0  0  3  0  0  0  0  0  0
  -26.6700  -27.1430   22.4070 N   0  0  0  0  0  0  0  0  0  0  0  0
  -27.0060  -28.3300   22.9300 C   0  0  0  0  0  0  0  0  0  0  0  0
  -27.6310  -29.1890   22.2990 O   0  0  0  0  0  0  0  0  0  0  0  0
  -26.1130  -26.5130   22.9650 H   0  0  0  0  0  0  0  0  0  0  0  0
  -25.3440  -29.5290   24.3870 C   0  0  0  0  0  1  0  0  0  0  0  0
  -26.5780  -28.6130   24.3820 C   0  0  0  0  0  3  0  0  0  0  0  0
  -28.7450  -28.2920   25.4910 C   0  0  0  0  0  1  0  0  0  0  0  0
  -27.6500  -29.2150   25.2050 N   0  0  0  0  0  0  0  0  0  0  0  0
  -27.2790  -29.5520   26.0890 H   0  0  0  0  0  0  0  0  0  0  0  0
  -27.6600  -25.3520   20.9550 C   0  0  1  0  0  0  0  0  0  0  0  0
  -26.7810  -24.1650   21.4120 C   0  0  0  0  0  1  0  0  0  0  0  0
  -28.1470  -25.0550   19.5180 C   0  0  0  0  0  1  0  0  0  0  0  0
  -28.9200  -25.3840   21.8520 C   0  0  0  0  0  1  0  0  0  0  0  0
  1  9  1  0
  2  1  1  0
  2  4  1  0
  3  1  2  0
  6  5  1  0
  7  5  2  0
  8 10  2  0
  8  9  1  0
  9  6  2  0
 10  7  1  0
 11 12  1  0
 11 13  2  0
 12 10  1  0
 14 12  1  0
 15 11  1  0
 16 15  1  0
 17 16  1  0
 18 23  1  0
 19 20  1  0
 19 18  1  0
 21 20  1  0
 21 28  1  0
 21 22  1  0
 23 17  1  0
 23 22  1  0
 24 17  2  0
 25 26  2  0
 26 45  1  0
 27 30  1  0
 27 26  1  0
 28 29  1  0
 28 25  1  0
 29 27  2  0
 30 31  1  0
 31 32  2  0
 33 36  1  0
 33 32  1  0
 34 33  2  0
 35 34  1  0
 35 30  2  0
 36 37  1  0
 37 42  2  0
 37 38  1  0
 38 39  2  0
 39 40  1  0
 40 44  1  0
 41 40  2  0
 42 41  1  0
 43 42  1  0
 45 46  1  0
 46 48  1  0
 46 49  1  0
 47 45  2  0
 50 25  1  0
 50 51  1  0
 52 50  1  0
 53  2  1  0
 54 53  1  0
 55 54  1  0
 56 55  1  0
 57 56  1  0
 58 57  1  0
 59 60  1  0
 60 62  1  0
 60 58  1  0
 61 59  2  0
 63 59  1  0
 63 65  1  0
 64 75  2  0
 65 70  1  0
 66 76  1  0
 66 74  1  0
 67 69  1  0
 67 73  1  0
 68 74  1  0
 69 68  1  0
 70 69  2  0
 71 65  2  0
 71 72  1  0
 72 67  2  0
 73 66  1  0
 74 64  1  0
 77 79  1  0
 77 76  1  0
 78 76  2  0
 80 89  2  0
 80 85  1  0
 81 77  1  0
 81 85  1  0
 82 81  1  0
 83 84  1  0
 83 82  1  0
 84 80  1  0
 85 86  2  0
 86 87  1  0
 88 87  2  0
 89 88  1  0
 90 64  1  0
 90 91  1  0
 91 92  1  0
 91 94  1  0
 92 96  1  0
 93 92  2  0
 96 95  1  0
 96 98  1  0
 98 97  1  0
 98 99  1  0
100 90  1  0
100101  1  1
100103  1  0
102100  1  0
M  ISO  4  16 100  17 100  59 101  63 101
M  END
>  <TORSDO>  (2) 
F 27

>  <SCORE>  (2) 
-0.620

>  <name>  (2) 
1

>  <ligand_id>  (2) 
1

>  <original_smiles>  (2) 
[H]c1c([H])c(C(=O)N([H])C([H])([H])C([H])([H])C([H])([H])C([H])([H])C([H])([H])C([H])([H])N([H])C(=O)Oc2c([H])c([H])c3c(c2[H])C([H])([H])N(C(=O)C([H])(N([H])C(=O)C([H])(N([H])C([H])([H])[H])C([H])([H])[H])C(C([H])([H])[H])(C([H])([H])[H])C([H])([H])[H])C([H])(C(=O)N([H])C2([H])c4c([H])c([H])c([H])c([H])c4C([H])([H])C([H])([H])C2([H])[H])C3([H])[H])c([H])c(N([H])C(=O)C([H])([H])OC(=O)N2C([H])([H])C([H])([H])C([H])([H])C([H])(n3nc(-c4c([H])c([H])c(Oc5c([H])c([H])c(F)c([H])c5F)c([H])c4[H])c(C(=O)N([H])[H])c3N([H])[H])C2([H])[H])c1[H]

>  <smiles>  (2) 
[H]c1c([H])c(C(=O)N([H])C([H])([H])C([H])([H])C([H])([H])C([H])([H])C([H])([H])C([H])([H])N([H])C(=O)Oc2c([H])c([H])c3c(c2[H])C([H])([H])N(C(=O)C([H])(N([H])C(=O)C([H])(N([H])C([H])([H])[H])C([H])([H])[H])C(C([H])([H])[H])(C([H])([H])[H])C([H])([H])[H])C([H])(C(=O)N([H])C2([H])c4c([H])c([H])c([H])c([H])c4C([H])([H])C([H])([H])C2([H])[H])C3([H])[H])c([H])c(N([H])C(=O)C([H])([H])OC(=O)N2C([H])([H])C([H])([H])C([H])([H])C([H])(n3nc(-c4c([H])c([H])c(Oc5c([H])c([H])c(F)c([H])c5F)c([H])c4[H])c(C(=O)N([H])[H])c3N([H])[H])C2([H])[H])c1[H]

$$$$
2:0:0
     RDKit          3D

108116  0  0  1  0  0  0  0  0999 V2000
  -34.4170  -24.6520   24.1440 C   0  0  0  0  0  2  0  0  0  0  0  0
  -33.1170  -25.3850   24.4900 C   0  0  0  0  0  2  0  0  0  0  0  0
  -32.1000  -24.9090   23.6170 O   0  0  0  0  0  0  0  0  0  0  0  0
  -30.8490  -25.5460   23.8210 C   0  0  0  0  0  2  0  0  0  0  0  0
  -29.8220  -24.9450   22.8540 C   0  0  0  0  0  2  0  0  0  0  0  0
  -29.6440  -23.5660   23.1590 O   0  0  0  0  0  0  0  0  0  0  0  0
  -28.5660  -22.9850   22.4370 C   0  0  0  0  0  2  0  0  0  0  0  0
  -28.5340  -21.4760   22.7010 C   0  0  0  0  0  0  0  0  0  0  0  0
  -29.5070  -20.7610   22.1100 N   0  0  0  0  0  0  0  0  0  0  0  0
  -27.6470  -21.0050   23.4190 O   0  0  0  0  0  0  0  0  0  0  0  0
  -30.1440  -21.3130   21.5520 H   0  0  0  0  0  0  0  0  0  0  0  0
  -30.5480  -18.8470   21.0400 C   0  0  0  0  0  3  0  0  0  0  0  0
  -29.0790  -18.4340   22.9300 C   0  0  0  0  0  3  0  0  0  0  0  0
  -30.7590  -17.4600   20.8930 C   0  0  0  0  0  3  0  0  0  0  0  0
  -29.2900  -17.0500   22.7870 C   0  0  0  0  0  3  0  0  0  0  0  0
  -29.6920  -19.3500   22.0440 C   0  0  0  0  0  0  0  0  0  0  0  0
  -30.1170  -16.5460   21.7640 C   0  0  0  0  0  0  0  0  0  0  0  0
  -30.7240  -14.3790   20.6750 C   0  0  0  0  0  0  0  0  0  0  0  0
  -30.4280  -12.2830   19.3990 C   0  0  0  0  0  2  0  0  0  0  0  0
  -29.4970  -12.5180   18.1950 C   0  0  0  0  0  2  0  0  0  0  0  0
  -28.0150  -12.3810   18.6040 C   0  0  0  0  0  2  0  0  0  0  0  0
  -27.6720  -13.1930   19.8800 C   0  0  0  0  0  3  0  0  0  0  0  0
  -28.7040  -12.9080   20.9920 C   0  0  0  0  0  2  0  0  0  0  0  0
  -30.0500  -13.2170   20.4700 N   0  0  0  0  0  0  0  0  0  0  0  0
  -31.7530  -14.6840   20.0600 O   0  0  0  0  0  0  0  0  0  0  0  0
  -30.2120  -15.1320   21.6600 N   0  0  0  0  0  0  0  0  0  0  0  0
  -29.5500  -14.6280   22.2290 H   0  0  0  0  0  0  0  0  0  0  0  0
  -25.2650  -13.8130   20.5720 C   0  0  0  0  0  0  0  0  0  0  0  0
  -24.1870  -13.0420   20.9160 C   0  0  0  0  0  0  0  0  0  0  0  0
  -24.6380  -11.6880   20.8690 C   0  0  0  0  0  0  0  0  0  0  0  0
  -26.3060  -12.9270   20.3340 N   0  0  0  0  0  0  0  0  0  0  0  0
  -25.9300  -11.6430   20.5680 N   0  0  0  0  0  0  0  0  0  0  0  0
  -23.9030  -10.4280   21.0370 C   0  0  0  0  0  0  0  0  0  0  0  0
  -24.3590   -9.4200   21.9170 C   0  0  0  0  0  3  0  0  0  0  0  0
  -23.6260   -8.2230   22.0730 C   0  0  0  0  0  3  0  0  0  0  0  0
  -22.4250   -8.0260   21.3520 C   0  0  0  0  0  0  0  0  0  0  0  0
  -21.9880   -9.0230   20.4630 C   0  0  0  0  0  3  0  0  0  0  0  0
  -22.7190  -10.2110   20.3030 C   0  0  0  0  0  3  0  0  0  0  0  0
  -21.6610   -6.8860   21.4240 O   0  0  0  0  0  0  0  0  0  0  0  0
  -21.6850   -6.0720   22.5280 C   0  0  0  0  0  0  0  0  0  0  0  0
  -21.4020   -6.5620   23.8210 C   0  0  0  0  0  3  0  0  0  0  0  0
  -21.3660   -5.6780   24.9180 C   0  0  0  0  0  3  0  0  0  0  0  0
  -21.6040   -4.3040   24.7230 C   0  0  0  0  0  0  0  0  0  0  0  0
  -21.8820   -3.8130   23.4350 C   0  0  0  0  0  3  0  0  0  0  0  0
  -21.9190   -4.6950   22.3410 C   0  0  0  0  0  0  0  0  0  0  0  0
  -22.1660   -4.2140   21.0980 F   0  0  0  0  0  0  0  0  0  0  0  0
  -21.5630   -3.4520   25.7740 F   0  0  0  0  0  0  0  0  0  0  0  0
  -22.7900  -13.5240   21.1840 C   0  0  0  0  0  0  0  0  0  0  0  0
  -22.0520  -12.8260   22.0400 N   0  0  0  0  0  0  0  0  0  0  0  0
  -22.3600  -14.5560   20.6690 O   0  0  0  0  0  0  0  0  0  0  0  0
  -22.4080  -11.9890   22.4790 H   0  0  0  0  0  0  0  0  0  0  0  0
  -21.1140  -13.1320   22.2590 H   0  0  0  0  0  0  0  0  0  0  0  0
  -25.4430  -15.1860   20.4290 N   0  0  0  0  0  0  0  0  0  0  0  0
  -24.6940  -15.8500   20.5910 H   0  0  0  0  0  0  0  0  0  0  0  0
  -26.3190  -15.6300   20.1800 H   0  0  0  0  0  0  0  0  0  0  0  0
  -34.7830  -25.0420   22.8290 O   0  0  0  0  0  0  0  0  0  0  0  0
  -35.7550  -24.2020   22.2260 C   0  0  0  0  0  2  0  0  0  0  0  0
  -35.8140  -24.5400   20.7300 C   0  0  0  0  0  2  0  0  0  0  0  0
  -33.5840  -25.2940   19.9000 C   0  0  0  0  0  0  0  0  0  0  0  0
  -34.5040  -24.3440   20.1100 N   0  0  0  0  0  0  0  0  0  0  0  0
  -33.7920  -26.4900   20.1210 O   0  0  0  0  0  0  0  0  0  0  0  0
  -34.2420  -23.3910   19.8920 H   0  0  0  0  0  0  0  0  0  0  0  0
  -32.2320  -24.8190   19.3550 C   0  0  0  0  0  2  0  0  0  0  0  0
  -31.2780  -25.8760   19.3900 O   0  0  0  0  0  0  0  0  0  0  0  0
  -30.0470  -25.4660   18.8110 C   0  0  0  0  0  2  0  0  0  0  0  0
  -29.0410  -26.6170   18.8250 C   0  0  0  0  0  0  0  0  0  0  0  0
  -28.8340  -27.2950   17.8130 O   0  0  0  0  0  0  0  0  0  0  0  0
  -28.4060  -26.7490   20.0160 O   0  0  0  0  0  0  0  0  0  0  0  0
  -24.6110  -31.8710   23.2140 C   0  0  0  0  0  0  0  0  0  0  0  0
  -27.2430  -27.4790   20.0690 C   0  0  0  0  0  0  0  0  0  0  0  0
  -23.3980  -30.4940   21.5530 C   0  0  0  0  0  3  0  0  0  0  0  0
  -24.8450  -28.9610   20.1220 C   0  0  0  0  0  0  0  0  0  0  0  0
  -25.9230  -30.8450   21.3640 C   0  0  0  0  0  2  0  0  0  0  0  0
  -26.0030  -29.4800   20.7160 C   0  0  0  0  0  0  0  0  0  0  0  0
  -27.2050  -28.7400   20.7010 C   0  0  0  0  0  3  0  0  0  0  0  0
  -26.0630  -26.9510   19.5030 C   0  0  0  0  0  3  0  0  0  0  0  0
  -24.8650  -27.6900   19.5210 C   0  0  0  0  0  3  0  0  0  0  0  0
  -23.6060  -29.8250   20.1680 C   0  0  0  0  0  2  0  0  0  0  0  0
  -24.6620  -31.0840   22.1030 N   0  0  0  0  0  0  0  0  0  0  0  0
  -23.5310  -32.1450   23.7550 O   0  0  0  0  0  0  0  0  0  0  0  0
  -22.7390  -29.4670   22.5010 C   0  0  0  0  0  0  0  0  0  0  0  0
  -21.4120  -29.3030   22.3750 N   0  0  0  0  0  0  0  0  0  0  0  0
  -23.4180  -28.8210   23.3030 O   0  0  0  0  0  0  0  0  0  0  0  0
  -20.9270  -29.8760   21.6980 H   0  0  0  0  0  0  0  0  0  0  0  0
  -18.0270  -28.1370   22.8490 C   0  0  0  0  0  0  0  0  0  0  0  0
  -20.5860  -28.3650   23.1330 C   0  0  0  0  0  3  0  0  0  0  0  0
  -20.6760  -26.9390   22.5420 C   0  0  0  0  0  2  0  0  0  0  0  0
  -19.5740  -26.6380   21.5210 C   0  0  0  0  0  2  0  0  0  0  0  0
  -18.1920  -26.7920   22.1630 C   0  0  0  0  0  2  0  0  0  0  0  0
  -19.1520  -28.8830   23.2910 C   0  0  0  0  0  0  0  0  0  0  0  0
  -18.9440  -30.1440   23.8920 C   0  0  0  0  0  3  0  0  0  0  0  0
  -17.6450  -30.6580   24.0560 C   0  0  0  0  0  3  0  0  0  0  0  0
  -16.5340  -29.9090   23.6320 C   0  0  0  0  0  3  0  0  0  0  0  0
  -16.7260  -28.6500   23.0350 C   0  0  0  0  0  3  0  0  0  0  0  0
  -25.9020  -32.4840   23.8420 C   0  0  0  0  0  3  0  0  0  0  0  0
  -25.5890  -33.8630   24.2350 N   0  0  0  0  0  0  0  0  0  0  0  0
  -25.9030  -34.9490   23.5140 C   0  0  0  0  0  0  0  0  0  0  0  0
  -26.5580  -34.8930   22.4700 O   0  0  0  0  0  0  0  0  0  0  0  0
  -25.0060  -33.9800   25.0510 H   0  0  0  0  0  0  0  0  0  0  0  0
  -24.1490  -36.7330   23.2640 C   0  0  0  0  0  1  0  0  0  0  0  0
  -25.4100  -36.3130   24.0340 C   0  0  0  0  0  3  0  0  0  0  0  0
  -27.5580  -37.1820   24.8470 C   0  0  0  0  0  1  0  0  0  0  0  0
  -26.4300  -37.3800   23.9400 N   0  0  0  0  0  0  0  0  0  0  0  0
  -26.0200  -38.2890   24.1380 H   0  0  0  0  0  0  0  0  0  0  0  0
  -26.4460  -31.6600   25.0720 C   0  0  1  0  0  0  0  0  0  0  0  0
  -25.3750  -31.3690   26.1490 C   0  0  0  0  0  1  0  0  0  0  0  0
  -27.0290  -30.3050   24.6070 C   0  0  0  0  0  1  0  0  0  0  0  0
  -27.6050  -32.4310   25.7480 C   0  0  0  0  0  1  0  0  0  0  0  0
  1  2  1  0
  3  4  1  0
  3  2  1  0
  5  6  1  0
  5  4  1  0
  7  8  1  0
  7  6  1  0
  8 10  2  0
  9  8  1  0
 11  9  1  0
 12 16  1  0
 14 12  2  0
 14 17  1  0
 15 13  1  0
 16  9  1  0
 16 13  2  0
 17 15  2  0
 18 26  1  0
 19 24  1  0
 20 21  1  0
 20 19  1  0
 22 21  1  0
 22 31  1  0
 22 23  1  0
 24 18  1  0
 24 23  1  0
 25 18  2  0
 26 17  1  0
 26 27  1  0
 28 29  2  0
 29 48  1  0
 30 29  1  0
 30 33  1  0
 31 32  1  0
 31 28  1  0
 32 30  2  0
 33 34  1  0
 34 35  2  0
 36 39  1  0
 36 35  1  0
 37 36  2  0
 38 37  1  0
 38 33  2  0
 39 40  1  0
 40 41  1  0
 41 42  2  0
 43 42  1  0
 43 47  1  0
 44 43  2  0
 45 40  2  0
 45 44  1  0
 46 45  1  0
 48 49  1  0
 49 52  1  0
 49 51  1  0
 50 48  2  0
 53 28  1  0
 53 54  1  0
 55 53  1  0
 56  1  1  0
 57 56  1  0
 58 57  1  0
 59 60  1  0
 59 61  2  0
 60 58  1  0
 62 60  1  0
 63 64  1  0
 63 59  1  0
 65 66  1  0
 65 64  1  0
 66 68  1  0
 67 66  2  0
 68 70  1  0
 69 80  2  0
 70 75  1  0
 71 79  1  0
 71 81  1  0
 72 78  1  0
 72 74  1  0
 73 79  1  0
 74 73  1  0
 75 74  2  0
 76 77  1  0
 76 70  2  0
 77 72  2  0
 78 71  1  0
 79 69  1  0
 81 83  2  0
 82 81  1  0
 84 82  1  0
 85 94  2  0
 85 90  1  0
 86 82  1  0
 86 90  1  0
 87 86  1  0
 88 89  1  0
 88 87  1  0
 89 85  1  0
 90 91  2  0
 91 92  1  0
 93 92  2  0
 94 93  1  0
 95 69  1  0
 95 96  1  0
 95105  1  0
 96 99  1  0
 97101  1  0
 97 96  1  0
 98 97  2  0
101100  1  0
103101  1  0
103104  1  0
103102  1  0
105108  1  1
105106  1  0
107105  1  0
M  ISO  4  18 100  26 100  66 101  68 101
M  END
>  <TORSDO>  (3) 
F 32

>  <SCORE>  (3) 
19.346

>  <name>  (3) 
2

>  <ligand_id>  (3) 
2

>  <original_smiles>  (3) 
[H]c1c([H])c([H])c2c(c1[H])C([H])([H])C([H])([H])C([H])([H])C2([H])N([H])C(=O)C1([H])N(C(=O)C([H])(N([H])C(=O)C([H])(N([H])C([H])([H])[H])C([H])([H])[H])C(C([H])([H])[H])(C([H])([H])[H])C([H])([H])[H])C([H])([H])c2c([H])c(OC(=O)C([H])([H])OC([H])([H])C(=O)N([H])C([H])([H])C([H])([H])OC([H])([H])C([H])([H])OC([H])([H])C([H])([H])OC([H])([H])C(=O)N([H])c3c([H])c([H])c(N([H])C(=O)N4C([H])([H])C([H])([H])C([H])([H])C([H])(n5nc(-c6c([H])c([H])c(Oc7c([H])c([H])c(F)c([H])c7F)c([H])c6[H])c(C(=O)N([H])[H])c5N([H])[H])C4([H])[H])c([H])c3[H])c([H])c([H])c2C1([H])[H]

>  <smiles>  (3) 
[H]c1c([H])c([H])c2c(c1[H])C([H])([H])C([H])([H])C([H])([H])C2([H])N([H])C(=O)C1([H])N(C(=O)C([H])(N([H])C(=O)C([H])(N([H])C([H])([H])[H])C([H])([H])[H])C(C([H])([H])[H])(C([H])([H])[H])C([H])([H])[H])C([H])([H])c2c([H])c(OC(=O)C([H])([H])OC([H])([H])C(=O)N([H])C([H])([H])C([H])([H])OC([H])([H])C([H])([H])OC([H])([H])C([H])([H])OC([H])([H])C(=O)N([H])c3c([H])c([H])c(N([H])C(=O)N4C([H])([H])C([H])([H])C([H])([H])C([H])(n5nc(-c6c([H])c([H])c(Oc7c([H])c([H])c(F)c([H])c7F)c([H])c6[H])c(C(=O)N([H])[H])c5N([H])[H])C4([H])[H])c([H])c3[H])c([H])c([H])c2C1([H])[H]

$$$$
3:0:0
     RDKit          3D

 87 94  0  0  1  0  0  0  0  0999 V2000
  -29.1130  -22.7980   20.1480 O   0  0  0  0  0  0  0  0  0  0  0  0
  -29.2650  -24.1800   20.5710 C   0  0  0  0  0  2  0  0  0  0  0  0
  -28.1950  -25.1410   19.9510 C   0  0  0  0  0  2  0  0  0  0  0  0
  -28.3440  -26.5690   20.2300 O   0  0  0  0  0  0  0  0  0  0  0  0
  -24.6030  -31.8820   23.2540 C   0  0  0  0  0  0  0  0  0  0  0  0
  -27.2030  -27.3700   20.1730 C   0  0  0  0  0  0  0  0  0  0  0  0
  -23.3880  -30.4910   21.6140 C   0  0  0  0  0  3  0  0  0  0  0  0
  -24.8290  -28.9470   20.1790 C   0  0  0  0  0  0  0  0  0  0  0  0
  -25.9230  -30.8160   21.4190 C   0  0  0  0  0  2  0  0  0  0  0  0
  -25.9960  -29.4430   20.7740 C   0  0  0  0  0  0  0  0  0  0  0  0
  -27.1840  -28.6630   20.7670 C   0  0  0  0  0  3  0  0  0  0  0  0
  -26.0140  -26.9200   19.5460 C   0  0  0  0  0  3  0  0  0  0  0  0
  -24.8370  -27.6890   19.5590 C   0  0  0  0  0  3  0  0  0  0  0  0
  -23.5920  -29.8180   20.2320 C   0  0  0  0  0  2  0  0  0  0  0  0
  -24.6560  -31.0790   22.1530 N   0  0  0  0  0  0  0  0  0  0  0  0
  -23.5240  -32.1610   23.7950 O   0  0  0  0  0  0  0  0  0  0  0  0
  -22.7290  -29.4710   22.5730 C   0  0  0  0  0  0  0  0  0  0  0  0
  -21.4040  -29.2960   22.4460 N   0  0  0  0  0  0  0  0  0  0  0  0
  -23.4090  -28.8420   23.3890 O   0  0  0  0  0  0  0  0  0  0  0  0
  -20.9160  -29.8550   21.7610 H   0  0  0  0  0  0  0  0  0  0  0  0
  -18.0240  -28.1080   22.9390 C   0  0  0  0  0  0  0  0  0  0  0  0
  -20.5820  -28.3620   23.2170 C   0  0  0  0  0  3  0  0  0  0  0  0
  -20.6820  -26.9290   22.6440 C   0  0  0  0  0  2  0  0  0  0  0  0
  -19.5830  -26.6070   21.6270 C   0  0  0  0  0  2  0  0  0  0  0  0
  -18.2000  -26.7570   22.2670 C   0  0  0  0  0  2  0  0  0  0  0  0
  -19.1430  -28.8680   23.3700 C   0  0  0  0  0  0  0  0  0  0  0  0
  -18.9250  -30.1340   23.9590 C   0  0  0  0  0  3  0  0  0  0  0  0
  -17.6220  -30.6390   24.1180 C   0  0  0  0  0  3  0  0  0  0  0  0
  -16.5170  -29.8760   23.7040 C   0  0  0  0  0  3  0  0  0  0  0  0
  -16.7190  -28.6120   23.1200 C   0  0  0  0  0  3  0  0  0  0  0  0
  -25.8930  -32.5060   23.8720 C   0  0  0  0  0  3  0  0  0  0  0  0
  -26.4080  -31.7310   25.1470 C   0  0  1  0  0  0  0  0  0  0  0  0
  -25.3180  -31.5010   26.2190 C   0  0  0  0  0  1  0  0  0  0  0  0
  -26.9820  -30.3500   24.7520 C   0  0  0  0  0  1  0  0  0  0  0  0
  -27.5640  -32.5190   25.8080 C   0  0  0  0  0  1  0  0  0  0  0  0
  -25.5920  -33.9060   24.2030 N   0  0  0  0  0  0  0  0  0  0  0  0
  -25.9250  -34.9570   23.4410 C   0  0  0  0  0  0  0  0  0  0  0  0
  -26.5890  -34.8480   22.4060 O   0  0  0  0  0  0  0  0  0  0  0  0
  -25.0030  -34.0650   25.0080 H   0  0  0  0  0  0  0  0  0  0  0  0
  -24.2020  -36.7560   23.0930 C   0  0  0  0  0  1  0  0  0  0  0  0
  -25.4460  -36.3470   23.8980 C   0  0  0  0  0  3  0  0  0  0  0  0
  -27.5900  -37.2240   24.7140 C   0  0  0  0  0  1  0  0  0  0  0  0
  -26.4820  -37.3950   23.7780 N   0  0  0  0  0  0  0  0  0  0  0  0
  -26.0800  -38.3170   23.9270 H   0  0  0  0  0  0  0  0  0  0  0  0
  -29.8660  -21.8260   20.9130 C   0  0  0  0  0  2  0  0  0  0  0  0
  -29.9940  -20.3890   20.2800 C   0  0  0  0  0  2  0  0  0  0  0  0
  -29.6060  -19.3250   21.1790 O   0  0  0  0  0  0  0  0  0  0  0  0
  -30.3560  -18.0820   21.1900 C   0  0  0  0  0  2  0  0  0  0  0  0
  -29.9920  -17.0260   20.1000 C   0  0  0  0  0  2  0  0  0  0  0  0
  -30.6580  -14.5630   20.1340 C   0  0  0  0  0  0  0  0  0  0  0  0
  -30.3320  -12.3860   19.0110 C   0  0  0  0  0  2  0  0  0  0  0  0
  -29.3420  -12.5990   17.8440 C   0  0  0  0  0  2  0  0  0  0  0  0
  -27.8850  -12.4670   18.3310 C   0  0  0  0  0  2  0  0  0  0  0  0
  -27.6040  -13.2910   19.6150 C   0  0  0  0  0  3  0  0  0  0  0  0
  -28.7030  -13.0590   20.6790 C   0  0  0  0  0  2  0  0  0  0  0  0
  -30.0040  -13.3660   20.0610 N   0  0  0  0  0  0  0  0  0  0  0  0
  -31.7760  -14.7380   19.6440 O   0  0  0  0  0  0  0  0  0  0  0  0
  -29.9110  -15.6090   20.5580 N   0  0  0  0  0  0  0  0  0  0  0  0
  -29.0360  -15.3490   20.9880 H   0  0  0  0  0  0  0  0  0  0  0  0
  -25.2410  -13.9170   20.4180 C   0  0  0  0  0  0  0  0  0  0  0  0
  -24.1800  -13.1550   20.8240 C   0  0  0  0  0  0  0  0  0  0  0  0
  -24.6260  -11.7980   20.7700 C   0  0  0  0  0  0  0  0  0  0  0  0
  -26.2680  -13.0270   20.1440 N   0  0  0  0  0  0  0  0  0  0  0  0
  -25.9040  -11.7470   20.4140 N   0  0  0  0  0  0  0  0  0  0  0  0
  -23.8950  -10.5420   20.9820 C   0  0  0  0  0  0  0  0  0  0  0  0
  -24.3570   -9.5630   21.8880 C   0  0  0  0  0  3  0  0  0  0  0  0
  -23.6260   -8.3710   22.0880 C   0  0  0  0  0  3  0  0  0  0  0  0
  -22.4190   -8.1520   21.3830 C   0  0  0  0  0  0  0  0  0  0  0  0
  -21.9750   -9.1210   20.4660 C   0  0  0  0  0  3  0  0  0  0  0  0
  -22.7060  -10.3040   20.2640 C   0  0  0  0  0  3  0  0  0  0  0  0
  -21.6570   -7.0150   21.4950 O   0  0  0  0  0  0  0  0  0  0  0  0
  -21.6560   -6.2580   22.6390 C   0  0  0  0  0  0  0  0  0  0  0  0
  -21.3040   -6.8040   23.8930 C   0  0  0  0  0  3  0  0  0  0  0  0
  -21.2500   -5.9740   25.0310 C   0  0  0  0  0  3  0  0  0  0  0  0
  -21.5350   -4.6010   24.9170 C   0  0  0  0  0  0  0  0  0  0  0  0
  -21.8800   -4.0550   23.6680 C   0  0  0  0  0  3  0  0  0  0  0  0
  -21.9370   -4.8820   22.5310 C   0  0  0  0  0  0  0  0  0  0  0  0
  -22.2490   -4.3460   21.3260 F   0  0  0  0  0  0  0  0  0  0  0  0
  -21.4760   -3.8020   26.0080 F   0  0  0  0  0  0  0  0  0  0  0  0
  -22.7990  -13.6450   21.1510 C   0  0  0  0  0  0  0  0  0  0  0  0
  -22.0980  -12.9520   22.0420 N   0  0  0  0  0  0  0  0  0  0  0  0
  -22.3520  -14.6760   20.6520 O   0  0  0  0  0  0  0  0  0  0  0  0
  -22.4730  -12.1180   22.4680 H   0  0  0  0  0  0  0  0  0  0  0  0
  -21.1730  -13.2630   22.3040 H   0  0  0  0  0  0  0  0  0  0  0  0
  -25.4140  -15.2870   20.2390 N   0  0  0  0  0  0  0  0  0  0  0  0
  -24.6560  -15.9470   20.3780 H   0  0  0  0  0  0  0  0  0  0  0  0
  -26.2510  -15.7180   19.8670 H   0  0  0  0  0  0  0  0  0  0  0  0
  1  2  1  0
  1 45  1  0
  3  4  1  0
  3  2  1  0
  5 16  2  0
  6  4  1  0
  6 11  1  0
  7 15  1  0
  7 17  1  0
  8 14  1  0
  8 10  1  0
  9 15  1  0
 10  9  1  0
 11 10  2  0
 12 13  1  0
 12  6  2  0
 13  8  2  0
 14  7  1  0
 15  5  1  0
 17 19  2  0
 18 17  1  0
 20 18  1  0
 21 30  2  0
 21 26  1  0
 22 18  1  0
 22 26  1  0
 23 22  1  0
 24 25  1  0
 24 23  1  0
 25 21  1  0
 26 27  2  0
 27 28  1  0
 29 28  2  0
 30 29  1  0
 31  5  1  0
 31 36  1  0
 31 32  1  0
 32 35  1  1
 32 33  1  0
 34 32  1  0
 36 39  1  0
 37 41  1  0
 37 36  1  0
 38 37  2  0
 41 40  1  0
 43 41  1  0
 43 44  1  0
 43 42  1  0
 46 45  1  0
 46 47  1  0
 47 48  1  0
 49 58  1  0
 49 48  1  0
 50 58  1  0
 51 56  1  0
 52 53  1  0
 52 51  1  0
 54 53  1  0
 54 63  1  0
 54 55  1  0
 56 50  1  0
 56 55  1  0
 57 50  2  0
 58 59  1  0
 60 61  2  0
 61 80  1  0
 62 61  1  0
 62 65  1  0
 63 64  1  0
 63 60  1  0
 64 62  2  0
 65 66  1  0
 66 67  2  0
 68 71  1  0
 68 67  1  0
 69 68  2  0
 70 69  1  0
 70 65  2  0
 71 72  1  0
 72 73  1  0
 73 74  2  0
 75 74  1  0
 75 79  1  0
 76 75  2  0
 77 72  2  0
 77 76  1  0
 78 77  1  0
 80 81  1  0
 81 84  1  0
 81 83  1  0
 82 80  2  0
 85 86  1  0
 85 60  1  0
 87 85  1  0
M  ISO  4   3 101   4 101  50 100  58 100
M  END
>  <TORSDO>  (4) 
F 23

>  <SCORE>  (4) 
-12.462

>  <name>  (4) 
3

>  <ligand_id>  (4) 
3

>  <original_smiles>  (4) 
[H]c1c([H])c([H])c2c(c1[H])C([H])([H])C([H])([H])C([H])([H])C2([H])N([H])C(=O)C1([H])N(C(=O)C([H])(N([H])C(=O)C([H])(N([H])C([H])([H])[H])C([H])([H])[H])C(C([H])([H])[H])(C([H])([H])[H])C([H])([H])[H])C([H])([H])c2c([H])c(OC([H])([H])C([H])([H])OC([H])([H])C([H])([H])OC([H])([H])C([H])([H])N([H])C(=O)N3C([H])([H])C([H])([H])C([H])([H])C([H])(n4nc(-c5c([H])c([H])c(Oc6c([H])c([H])c(F)c([H])c6F)c([H])c5[H])c(C(=O)N([H])[H])c4N([H])[H])C3([H])[H])c([H])c([H])c2C1([H])[H]

>  <smiles>  (4) 
[H]c1c([H])c([H])c2c(c1[H])C([H])([H])C([H])([H])C([H])([H])C2([H])N([H])C(=O)C1([H])N(C(=O)C([H])(N([H])C(=O)C([H])(N([H])C([H])([H])[H])C([H])([H])[H])C(C([H])([H])[H])(C([H])([H])[H])C([H])([H])[H])C([H])([H])c2c([H])c(OC([H])([H])C([H])([H])OC([H])([H])C([H])([H])OC([H])([H])C([H])([H])N([H])C(=O)N3C([H])([H])C([H])([H])C([H])([H])C([H])(n4nc(-c5c([H])c([H])c(Oc6c([H])c([H])c(F)c([H])c6F)c([H])c5[H])c(C(=O)N([H])[H])c4N([H])[H])C3([H])[H])c([H])c([H])c2C1([H])[H]

$$$$
4:0:0
     RDKit          3D

 88 96  0  0  1  0  0  0  0  0999 V2000
  -31.7310  -19.5950   20.5760 C   0  0  0  0  0  3  0  0  0  0  0  0
  -31.3480  -18.2320   20.5430 C   0  0  0  0  0  3  0  0  0  0  0  0
  -30.8110  -20.6690   20.5080 C   0  0  0  0  0  3  0  0  0  0  0  0
  -29.0630  -18.9980   20.3710 C   0  0  0  0  0  3  0  0  0  0  0  0
  -29.9990  -17.8200   20.4400 C   0  0  0  0  0  0  0  0  0  0  0  0
  -29.4210  -20.4630   20.3980 C   0  0  0  0  0  0  0  0  0  0  0  0
  -30.4830  -15.0790   20.3150 C   0  0  0  0  0  0  0  0  0  0  0  0
  -30.3790  -12.7120   19.3690 C   0  0  0  0  0  2  0  0  0  0  0  0
  -29.4310  -12.6330   18.1500 C   0  0  0  0  0  2  0  0  0  0  0  0
  -27.9790  -12.3950   18.6060 C   0  0  0  0  0  2  0  0  0  0  0  0
  -27.5740  -13.3170   19.7860 C   0  0  0  0  0  3  0  0  0  0  0  0
  -28.6460  -13.3620   20.8950 C   0  0  0  0  0  2  0  0  0  0  0  0
  -29.8920  -13.8100   20.2600 N   0  0  0  0  0  0  0  0  0  0  0  0
  -31.6900  -15.1140   20.0460 O   0  0  0  0  0  0  0  0  0  0  0  0
  -29.7010  -16.2870   20.4420 N   0  0  0  0  0  0  0  0  0  0  0  0
  -28.7200  -16.0730   20.5450 H   0  0  0  0  0  0  0  0  0  0  0  0
  -25.2040  -13.8620   20.5740 C   0  0  0  0  0  0  0  0  0  0  0  0
  -24.1530  -13.0750   20.9510 C   0  0  0  0  0  0  0  0  0  0  0  0
  -24.6270  -11.7280   20.8970 C   0  0  0  0  0  0  0  0  0  0  0  0
  -26.2500  -12.9970   20.3060 N   0  0  0  0  0  0  0  0  0  0  0  0
  -25.9150  -11.7060   20.5680 N   0  0  0  0  0  0  0  0  0  0  0  0
  -23.9130  -10.4580   21.0810 C   0  0  0  0  0  0  0  0  0  0  0  0
  -24.3630   -9.4820   21.9980 C   0  0  0  0  0  3  0  0  0  0  0  0
  -23.6460   -8.2780   22.1710 C   0  0  0  0  0  3  0  0  0  0  0  0
  -22.4640   -8.0420   21.4290 C   0  0  0  0  0  0  0  0  0  0  0  0
  -22.0330   -9.0080   20.5020 C   0  0  0  0  0  3  0  0  0  0  0  0
  -22.7510  -10.2020   20.3260 C   0  0  0  0  0  3  0  0  0  0  0  0
  -21.7170   -6.8920   21.5140 O   0  0  0  0  0  0  0  0  0  0  0  0
  -21.6850   -6.1380   22.6590 C   0  0  0  0  0  0  0  0  0  0  0  0
  -21.2500   -6.6720   23.8910 C   0  0  0  0  0  3  0  0  0  0  0  0
  -21.1660   -5.8430   25.0270 C   0  0  0  0  0  3  0  0  0  0  0  0
  -21.5060   -4.4810   24.9320 C   0  0  0  0  0  0  0  0  0  0  0  0
  -21.9340   -3.9460   23.7060 C   0  0  0  0  0  3  0  0  0  0  0  0
  -22.0200   -4.7710   22.5710 C   0  0  0  0  0  0  0  0  0  0  0  0
  -22.4120   -4.2460   21.3850 F   0  0  0  0  0  0  0  0  0  0  0  0
  -21.4190   -3.6820   26.0230 F   0  0  0  0  0  0  0  0  0  0  0  0
  -22.7560  -13.5380   21.2440 C   0  0  0  0  0  0  0  0  0  0  0  0
  -22.0460  -12.8310   22.1160 N   0  0  0  0  0  0  0  0  0  0  0  0
  -22.3030  -14.5620   20.7350 O   0  0  0  0  0  0  0  0  0  0  0  0
  -22.4260  -12.0010   22.5480 H   0  0  0  0  0  0  0  0  0  0  0  0
  -21.1080  -13.1230   22.3550 H   0  0  0  0  0  0  0  0  0  0  0  0
  -25.3510  -15.2360   20.4080 N   0  0  0  0  0  0  0  0  0  0  0  0
  -24.5730  -15.8760   20.5280 H   0  0  0  0  0  0  0  0  0  0  0  0
  -26.1720  -15.6840   20.0220 H   0  0  0  0  0  0  0  0  0  0  0  0
  -28.5370  -21.6530   20.3190 O   0  0  0  0  0  0  0  0  0  0  0  0
  -28.9340  -23.1800   20.3950 C   0  0  0  0  0  3  0  0  0  0  0  0
  -27.9180  -24.5570   20.1850 C   0  0  0  0  0  3  0  0  0  0  0  0
  -28.2060  -26.1090   20.3330 O   0  0  0  0  0  0  0  0  0  0  0  0
  -24.6190  -31.9130   23.2590 C   0  0  0  0  0  0  0  0  0  0  0  0
  -27.1690  -27.1290   20.2600 C   0  0  0  0  0  0  0  0  0  0  0  0
  -23.4180  -30.5200   21.6220 C   0  0  0  0  0  3  0  0  0  0  0  0
  -24.8600  -28.9240   20.2080 C   0  0  0  0  0  0  0  0  0  0  0  0
  -25.9770  -30.7550   21.4690 C   0  0  0  0  0  2  0  0  0  0  0  0
  -26.0440  -29.3560   20.8210 C   0  0  0  0  0  0  0  0  0  0  0  0
  -27.1980  -28.4770   20.8260 C   0  0  0  0  0  3  0  0  0  0  0  0
  -25.9570  -26.8130   19.6070 C   0  0  0  0  0  3  0  0  0  0  0  0
  -24.8330  -27.6690   19.5840 C   0  0  0  0  0  3  0  0  0  0  0  0
  -23.6420  -29.8350   20.2470 C   0  0  0  0  0  2  0  0  0  0  0  0
  -24.6920  -31.0860   22.1710 N   0  0  0  0  0  0  0  0  0  0  0  0
  -23.5320  -32.2090   23.7810 O   0  0  0  0  0  0  0  0  0  0  0  0
  -22.7250  -29.5230   22.5860 C   0  0  0  0  0  0  0  0  0  0  0  0
  -21.3960  -29.3620   22.4560 N   0  0  0  0  0  0  0  0  0  0  0  0
  -23.3870  -28.8960   23.4160 O   0  0  0  0  0  0  0  0  0  0  0  0
  -20.9160  -29.9190   21.7610 H   0  0  0  0  0  0  0  0  0  0  0  0
  -18.0030  -28.1890   22.9570 C   0  0  0  0  0  0  0  0  0  0  0  0
  -20.5650  -28.4340   23.2280 C   0  0  0  0  0  3  0  0  0  0  0  0
  -20.6550  -26.9990   22.6580 C   0  0  0  0  0  2  0  0  0  0  0  0
  -19.5520  -26.6820   21.6420 C   0  0  0  0  0  2  0  0  0  0  0  0
  -18.1710  -26.8370   22.2830 C   0  0  0  0  0  2  0  0  0  0  0  0
  -19.1270  -28.9450   23.3870 C   0  0  0  0  0  0  0  0  0  0  0  0
  -18.9140  -30.2090   23.9790 C   0  0  0  0  0  3  0  0  0  0  0  0
  -17.6120  -30.7170   24.1450 C   0  0  0  0  0  3  0  0  0  0  0  0
  -16.5040  -29.9590   23.7300 C   0  0  0  0  0  3  0  0  0  0  0  0
  -16.7000  -28.6960   23.1430 C   0  0  0  0  0  3  0  0  0  0  0  0
  -25.8970  -32.5450   23.8900 C   0  0  0  0  0  3  0  0  0  0  0  0
  -26.3980  -31.7760   25.1750 C   0  0  1  0  0  0  0  0  0  0  0  0
  -25.2950  -31.5510   26.2360 C   0  0  0  0  0  1  0  0  0  0  0  0
  -26.9760  -30.3940   24.7990 C   0  0  0  0  0  1  0  0  0  0  0  0
  -27.5480  -32.5680   25.8420 C   0  0  0  0  0  1  0  0  0  0  0  0
  -25.5880  -33.9460   24.2210 N   0  0  0  0  0  0  0  0  0  0  0  0
  -25.9010  -35.0010   23.4570 C   0  0  0  0  0  0  0  0  0  0  0  0
  -26.5440  -34.8970   22.4100 O   0  0  0  0  0  0  0  0  0  0  0  0
  -25.0130  -34.1010   25.0360 H   0  0  0  0  0  0  0  0  0  0  0  0
  -24.1500  -36.7860   23.1660 C   0  0  0  0  0  1  0  0  0  0  0  0
  -25.4270  -36.3910   23.9270 C   0  0  0  0  0  3  0  0  0  0  0  0
  -27.5860  -37.2980   24.6650 C   0  0  0  0  0  1  0  0  0  0  0  0
  -26.4470  -37.4490   23.7630 N   0  0  0  0  0  0  0  0  0  0  0  0
  -26.0420  -38.3690   23.9170 H   0  0  0  0  0  0  0  0  0  0  0  0
  2  1  1  0
  3  1  2  0
  4  6  2  0
  4  5  1  0
  5 15  1  0
  5  2  2  0
  6  3  1  0
  7 15  1  0
  8 13  1  0
  9 10  1  0
  9  8  1  0
 11 10  1  0
 11 20  1  0
 11 12  1  0
 13  7  1  0
 13 12  1  0
 14  7  2  0
 15 16  1  0
 17 18  2  0
 18 37  1  0
 19 18  1  0
 19 22  1  0
 20 21  1  0
 20 17  1  0
 21 19  2  0
 22 23  1  0
 23 24  2  0
 25 28  1  0
 25 24  1  0
 26 25  2  0
 27 26  1  0
 27 22  2  0
 28 29  1  0
 29 30  1  0
 30 31  2  0
 32 31  1  0
 32 36  1  0
 33 32  2  0
 34 29  2  0
 34 33  1  0
 35 34  1  0
 37 38  1  0
 38 41  1  0
 38 40  1  0
 39 37  2  0
 42 43  1  0
 42 17  1  0
 44 42  1  0
 45 46  1  0
 45  6  1  0
 47 48  1  0
 47 46  2  0
 49 60  2  0
 50 48  1  0
 50 55  1  0
 51 59  1  0
 51 61  1  0
 52 58  1  0
 52 54  1  0
 53 59  1  0
 54 55  2  0
 54 53  1  0
 56 50  2  0
 57 56  1  0
 57 52  2  0
 58 51  1  0
 59 49  1  0
 61 63  2  0
 62 61  1  0
 64 62  1  0
 65 74  2  0
 65 70  1  0
 66 62  1  0
 66 70  1  0
 67 66  1  0
 68 69  1  0
 68 67  1  0
 69 65  1  0
 70 71  2  0
 71 72  1  0
 73 72  2  0
 74 73  1  0
 75 49  1  0
 75 80  1  0
 75 76  1  0
 76 79  1  1
 76 77  1  0
 78 76  1  0
 80 83  1  0
 81 85  1  0
 81 80  1  0
 82 81  2  0
 85 84  1  0
 87 88  1  0
 87 85  1  0
 87 86  1  0
M  ISO  4   7 100  15 100  47 101  48 101
M  END
>  <TORSDO>  (5) 
F 19

>  <SCORE>  (5) 
-15.046

>  <name>  (5) 
4

>  <ligand_id>  (5) 
4

>  <original_smiles>  (5) 
[H]c1c([H])c(OC([H])([H])C([H])([H])Oc2c([H])c([H])c3c(c2[H])C([H])([H])N(C(=O)C([H])(N([H])C(=O)C([H])(N([H])C([H])([H])[H])C([H])([H])[H])C(C([H])([H])[H])(C([H])([H])[H])C([H])([H])[H])C([H])(C(=O)N([H])C2([H])c4c([H])c([H])c([H])c([H])c4C([H])([H])C([H])([H])C2([H])[H])C3([H])[H])c([H])c(N([H])C(=O)N2C([H])([H])C([H])([H])C([H])([H])C([H])(n3nc(-c4c([H])c([H])c(Oc5c([H])c([H])c(F)c([H])c5F)c([H])c4[H])c(C(=O)N([H])[H])c3N([H])[H])C2([H])[H])c1[H]

>  <smiles>  (5) 
[H]c1c([H])c(OC([H])([H])C([H])([H])Oc2c([H])c([H])c3c(c2[H])C([H])([H])N(C(=O)C([H])(N([H])C(=O)C([H])(N([H])C([H])([H])[H])C([H])([H])[H])C(C([H])([H])[H])(C([H])([H])[H])C([H])([H])[H])C([H])(C(=O)N([H])C2([H])c4c([H])c([H])c([H])c([H])c4C([H])([H])C([H])([H])C2([H])[H])C3([H])[H])c([H])c(N([H])C(=O)N2C([H])([H])C([H])([H])C([H])([H])C([H])(n3nc(-c4c([H])c([H])c(Oc5c([H])c([H])c(F)c([H])c5F)c([H])c4[H])c(C(=O)N([H])[H])c3N([H])[H])C2([H])[H])c1[H]

$$$$
5:0:0
     RDKit          3D

 86 93  0  0  1  0  0  0  0  0999 V2000
  -28.1520  -24.0360   19.9640 C   0  0  0  0  0  2  0  0  0  0  0  0
  -28.3920  -25.3500   20.7900 C   0  0  0  0  0  2  0  0  0  0  0  0
  -28.3770  -26.6310   20.0960 O   0  0  0  0  0  0  0  0  0  0  0  0
  -24.5990  -31.8740   23.2160 C   0  0  0  0  0  0  0  0  0  0  0  0
  -27.2150  -27.3850   20.1400 C   0  0  0  0  0  0  0  0  0  0  0  0
  -23.3840  -30.4740   21.5800 C   0  0  0  0  0  3  0  0  0  0  0  0
  -24.8290  -28.9240   20.1520 C   0  0  0  0  0  0  0  0  0  0  0  0
  -25.9130  -30.8190   21.3710 C   0  0  0  0  0  2  0  0  0  0  0  0
  -25.9940  -29.4420   20.7330 C   0  0  0  0  0  0  0  0  0  0  0  0
  -27.1920  -28.6830   20.7140 C   0  0  0  0  0  3  0  0  0  0  0  0
  -26.0330  -26.8880   19.5570 C   0  0  0  0  0  3  0  0  0  0  0  0
  -24.8460  -27.6490   19.5580 C   0  0  0  0  0  3  0  0  0  0  0  0
  -23.5880  -29.7890   20.2000 C   0  0  0  0  0  2  0  0  0  0  0  0
  -24.6500  -31.0720   22.1130 N   0  0  0  0  0  0  0  0  0  0  0  0
  -23.5200  -32.1480   23.7600 O   0  0  0  0  0  0  0  0  0  0  0  0
  -22.7330  -29.4560   22.5450 C   0  0  0  0  0  0  0  0  0  0  0  0
  -21.4080  -29.2750   22.4230 N   0  0  0  0  0  0  0  0  0  0  0  0
  -23.4180  -28.8320   23.3590 O   0  0  0  0  0  0  0  0  0  0  0  0
  -20.9160  -29.8300   21.7370 H   0  0  0  0  0  0  0  0  0  0  0  0
  -18.0370  -28.0680   22.9220 C   0  0  0  0  0  0  0  0  0  0  0  0
  -20.5930  -28.3370   23.1960 C   0  0  0  0  0  3  0  0  0  0  0  0
  -20.7010  -26.9040   22.6240 C   0  0  0  0  0  2  0  0  0  0  0  0
  -19.6020  -26.5740   21.6090 C   0  0  0  0  0  2  0  0  0  0  0  0
  -18.2190  -26.7170   22.2510 C   0  0  0  0  0  2  0  0  0  0  0  0
  -19.1520  -28.8360   23.3510 C   0  0  0  0  0  0  0  0  0  0  0  0
  -18.9290  -30.1010   23.9370 C   0  0  0  0  0  3  0  0  0  0  0  0
  -17.6230  -30.5990   24.0990 C   0  0  0  0  0  3  0  0  0  0  0  0
  -16.5210  -29.8280   23.6870 C   0  0  0  0  0  3  0  0  0  0  0  0
  -16.7290  -28.5660   23.1040 C   0  0  0  0  0  3  0  0  0  0  0  0
  -25.8870  -32.5040   23.8300 C   0  0  0  0  0  3  0  0  0  0  0  0
  -26.4150  -31.7260   25.0990 C   0  0  1  0  0  0  0  0  0  0  0  0
  -25.3310  -31.4830   26.1750 C   0  0  0  0  0  1  0  0  0  0  0  0
  -26.9930  -30.3500   24.6930 C   0  0  0  0  0  1  0  0  0  0  0  0
  -27.5720  -32.5160   25.7540 C   0  0  0  0  0  1  0  0  0  0  0  0
  -25.5800  -33.9010   24.1710 N   0  0  0  0  0  0  0  0  0  0  0  0
  -25.9080  -34.9570   23.4150 C   0  0  0  0  0  0  0  0  0  0  0  0
  -26.5710  -34.8590   22.3790 O   0  0  0  0  0  0  0  0  0  0  0  0
  -24.9910  -34.0510   24.9760 H   0  0  0  0  0  0  0  0  0  0  0  0
  -24.1760  -36.7500   23.0790 C   0  0  0  0  0  1  0  0  0  0  0  0
  -25.4220  -36.3430   23.8810 C   0  0  0  0  0  3  0  0  0  0  0  0
  -27.5630  -37.2230   24.6990 C   0  0  0  0  0  1  0  0  0  0  0  0
  -26.4530  -37.3970   23.7660 N   0  0  0  0  0  0  0  0  0  0  0  0
  -26.0480  -38.3160   23.9220 H   0  0  0  0  0  0  0  0  0  0  0  0
  -28.9100  -22.8780   20.4230 O   0  0  0  0  0  0  0  0  0  0  0  0
  -28.3720  -21.5820   20.0450 C   0  0  0  0  0  2  0  0  0  0  0  0
  -29.4000  -20.4060   19.8200 C   0  0  0  0  0  2  0  0  0  0  0  0
  -29.3490  -19.2780   20.7360 O   0  0  0  0  0  0  0  0  0  0  0  0
  -29.7840  -18.0010   20.1830 C   0  0  0  0  0  2  0  0  0  0  0  0
  -30.1970  -16.9170   21.2400 C   0  0  0  0  0  2  0  0  0  0  0  0
  -29.7780  -15.5490   20.9980 O   0  0  0  0  0  0  0  0  0  0  0  0
  -30.6130  -14.5690   20.4860 C   0  0  0  0  0  0  0  0  0  0  0  0
  -30.3590  -12.3550   19.3530 C   0  0  0  0  0  2  0  0  0  0  0  0
  -29.4220  -12.5490   18.1410 C   0  0  0  0  0  2  0  0  0  0  0  0
  -27.9430  -12.4080   18.5590 C   0  0  0  0  0  2  0  0  0  0  0  0
  -27.5900  -13.2510   19.8140 C   0  0  0  0  0  3  0  0  0  0  0  0
  -28.6310  -13.0410   20.9330 C   0  0  0  0  0  2  0  0  0  0  0  0
  -29.9560  -13.3290   20.3760 N   0  0  0  0  0  0  0  0  0  0  0  0
  -31.7500  -14.7950   20.0640 O   0  0  0  0  0  0  0  0  0  0  0  0
  -25.1880  -13.8620   20.5000 C   0  0  0  0  0  0  0  0  0  0  0  0
  -24.1170  -13.0940   20.8650 C   0  0  0  0  0  0  0  0  0  0  0  0
  -24.5770  -11.7420   20.8520 C   0  0  0  0  0  0  0  0  0  0  0  0
  -26.2340  -12.9790   20.2830 N   0  0  0  0  0  0  0  0  0  0  0  0
  -25.8710  -11.6980   20.5550 N   0  0  0  0  0  0  0  0  0  0  0  0
  -23.8490  -10.4810   21.0480 C   0  0  0  0  0  0  0  0  0  0  0  0
  -24.2860   -9.5120   21.9780 C   0  0  0  0  0  3  0  0  0  0  0  0
  -23.5580   -8.3160   22.1610 C   0  0  0  0  0  3  0  0  0  0  0  0
  -22.3790   -8.0820   21.4130 C   0  0  0  0  0  0  0  0  0  0  0  0
  -21.9620   -9.0400   20.4730 C   0  0  0  0  0  3  0  0  0  0  0  0
  -22.6910  -10.2270   20.2880 C   0  0  0  0  0  3  0  0  0  0  0  0
  -21.6230   -6.9390   21.5050 O   0  0  0  0  0  0  0  0  0  0  0  0
  -21.5930   -6.1860   22.6520 C   0  0  0  0  0  0  0  0  0  0  0  0
  -21.2090   -6.7350   23.8940 C   0  0  0  0  0  3  0  0  0  0  0  0
  -21.1250   -5.9090   25.0330 C   0  0  0  0  0  3  0  0  0  0  0  0
  -21.4160   -4.5360   24.9310 C   0  0  0  0  0  0  0  0  0  0  0  0
  -21.7920   -3.9860   23.6930 C   0  0  0  0  0  3  0  0  0  0  0  0
  -21.8780   -4.8080   22.5560 C   0  0  0  0  0  0  0  0  0  0  0  0
  -22.2210   -4.2700   21.3610 F   0  0  0  0  0  0  0  0  0  0  0  0
  -21.3270   -3.7400   26.0220 F   0  0  0  0  0  0  0  0  0  0  0  0
  -22.7180  -13.5740   21.1220 C   0  0  0  0  0  0  0  0  0  0  0  0
  -21.9840  -12.8850   21.9900 N   0  0  0  0  0  0  0  0  0  0  0  0
  -22.2830  -14.5940   20.5890 O   0  0  0  0  0  0  0  0  0  0  0  0
  -22.3470  -12.0600   22.4420 H   0  0  0  0  0  0  0  0  0  0  0  0
  -21.0440  -13.1890   22.2050 H   0  0  0  0  0  0  0  0  0  0  0  0
  -25.3570  -15.2310   20.3150 N   0  0  0  0  0  0  0  0  0  0  0  0
  -24.5960  -15.8930   20.4210 H   0  0  0  0  0  0  0  0  0  0  0  0
  -26.2240  -15.6670   20.0240 H   0  0  0  0  0  0  0  0  0  0  0  0
  1 44  1  0
  1  2  1  0
  3  5  1  0
  3  2  1  0
  4 15  2  0
  5 10  1  0
  6 14  1  0
  6 16  1  0
  7 13  1  0
  7  9  1  0
  8 14  1  0
  9  8  1  0
 10  9  2  0
 11 12  1  0
 11  5  2  0
 12  7  2  0
 13  6  1  0
 14  4  1  0
 16 18  2  0
 17 16  1  0
 19 17  1  0
 20 29  2  0
 20 25  1  0
 21 17  1  0
 21 25  1  0
 22 21  1  0
 23 24  1  0
 23 22  1  0
 24 20  1  0
 25 26  2  0
 26 27  1  0
 28 27  2  0
 29 28  1  0
 30  4  1  0
 30 35  1  0
 30 31  1  0
 31 34  1  1
 31 32  1  0
 33 31  1  0
 35 38  1  0
 36 40  1  0
 36 35  1  0
 37 36  2  0
 40 39  1  0
 42 40  1  0
 42 43  1  0
 42 41  1  0
 45 44  1  0
 46 45  1  0
 46 47  1  0
 48 47  1  0
 48 49  1  0
 50 49  1  0
 51 50  1  0
 52 57  1  0
 53 54  1  0
 53 52  1  0
 55 54  1  0
 55 62  1  0
 55 56  1  0
 57 51  1  0
 57 56  1  0
 58 51  2  0
 59 60  2  0
 60 79  1  0
 61 60  1  0
 61 64  1  0
 62 59  1  0
 62 63  1  0
 63 61  2  0
 64 65  1  0
 65 66  2  0
 67 70  1  0
 67 66  1  0
 68 67  2  0
 69 68  1  0
 69 64  2  0
 70 71  1  0
 71 72  1  0
 72 73  2  0
 74 73  1  0
 74 78  1  0
 75 74  2  0
 76 71  2  0
 76 75  1  0
 77 76  1  0
 79 80  1  0
 80 83  1  0
 80 82  1  0
 81 79  2  0
 84 85  1  0
 84 59  1  0
 86 84  1  0
M  ISO  4   2 101   3 101  50 100  51 100
M  END
>  <TORSDO>  (6) 
F 24

>  <SCORE>  (6) 
-12.330

>  <name>  (6) 
5

>  <ligand_id>  (6) 
5

>  <original_smiles>  (6) 
[H]c1c([H])c([H])c2c(c1[H])C([H])([H])C([H])([H])C([H])([H])C2([H])N([H])C(=O)C1([H])N(C(=O)C([H])(N([H])C(=O)C([H])(N([H])C([H])([H])[H])C([H])([H])[H])C(C([H])([H])[H])(C([H])([H])[H])C([H])([H])[H])C([H])([H])c2c([H])c(OC([H])([H])C([H])([H])OC([H])([H])C([H])([H])OC([H])([H])C([H])([H])OC(=O)N3C([H])([H])C([H])([H])C([H])([H])C([H])(n4nc(-c5c([H])c([H])c(Oc6c([H])c([H])c(F)c([H])c6F)c([H])c5[H])c(C(=O)N([H])[H])c4N([H])[H])C3([H])[H])c([H])c([H])c2C1([H])[H]

>  <smiles>  (6) 
[H]c1c([H])c([H])c2c(c1[H])C([H])([H])C([H])([H])C([H])([H])C2([H])N([H])C(=O)C1([H])N(C(=O)C([H])(N([H])C(=O)C([H])(N([H])C([H])([H])[H])C([H])([H])[H])C(C([H])([H])[H])(C([H])([H])[H])C([H])([H])[H])C([H])([H])c2c([H])c(OC([H])([H])C([H])([H])OC([H])([H])C([H])([H])OC([H])([H])C([H])([H])OC(=O)N3C([H])([H])C([H])([H])C([H])([H])C([H])(n4nc(-c5c([H])c([H])c(Oc6c([H])c([H])c(F)c([H])c6F)c([H])c5[H])c(C(=O)N([H])[H])c4N([H])[H])C3([H])[H])c([H])c([H])c2C1([H])[H]

$$$$
6:0:0
     RDKit          3D

 92 99  0  0  1  0  0  0  0  0999 V2000
  -27.6220  -21.5440   20.7920 C   0  0  0  0  0  2  0  0  0  0  0  0
  -26.9060  -21.8390   19.5960 O   0  0  0  0  0  0  0  0  0  0  0  0
  -26.6410  -20.7110   18.7600 C   0  0  0  0  0  2  0  0  0  0  0  0
  -27.8450  -20.2860   17.9060 C   0  0  0  0  0  2  0  0  0  0  0  0
  -28.8180  -19.6610   18.7330 O   0  0  0  0  0  0  0  0  0  0  0  0
  -29.8210  -18.9790   17.9970 C   0  0  0  0  0  2  0  0  0  0  0  0
  -30.9400  -18.5600   18.9520 C   0  0  0  0  0  2  0  0  0  0  0  0
  -30.4180  -17.7720   20.0130 O   0  0  0  0  0  0  0  0  0  0  0  0
  -31.4120  -17.5130   20.9940 C   0  0  0  0  0  2  0  0  0  0  0  0
  -30.9280  -16.4330   21.9740 C   0  0  0  0  0  2  0  0  0  0  0  0
  -30.2850  -15.3180   21.3650 O   0  0  0  0  0  0  0  0  0  0  0  0
  -30.9110  -14.5250   20.4810 C   0  0  0  0  0  0  0  0  0  0  0  0
  -30.5980  -12.3810   19.2710 C   0  0  0  0  0  2  0  0  0  0  0  0
  -29.6790  -12.5840   18.0540 C   0  0  0  0  0  2  0  0  0  0  0  0
  -28.1920  -12.4580   18.4600 C   0  0  0  0  0  2  0  0  0  0  0  0
  -27.8280  -13.3130   19.7060 C   0  0  0  0  0  3  0  0  0  0  0  0
  -28.8520  -13.0710   20.8340 C   0  0  0  0  0  2  0  0  0  0  0  0
  -30.1900  -13.3440   20.2900 N   0  0  0  0  0  0  0  0  0  0  0  0
  -31.9720  -14.8060   19.9200 O   0  0  0  0  0  0  0  0  0  0  0  0
  -25.4090  -13.9410   20.3470 C   0  0  0  0  0  0  0  0  0  0  0  0
  -24.3350  -13.1770   20.7190 C   0  0  0  0  0  0  0  0  0  0  0  0
  -24.8010  -11.8270   20.7410 C   0  0  0  0  0  0  0  0  0  0  0  0
  -26.4600  -13.0570   20.1610 N   0  0  0  0  0  0  0  0  0  0  0  0
  -26.0960  -11.7810   20.4520 N   0  0  0  0  0  0  0  0  0  0  0  0
  -24.0750  -10.5720   20.9660 C   0  0  0  0  0  0  0  0  0  0  0  0
  -24.4930   -9.6410   21.9410 C   0  0  0  0  0  3  0  0  0  0  0  0
  -23.7690   -8.4470   22.1490 C   0  0  0  0  0  3  0  0  0  0  0  0
  -22.6130   -8.1760   21.3800 C   0  0  0  0  0  0  0  0  0  0  0  0
  -22.2160   -9.0940   20.3910 C   0  0  0  0  0  3  0  0  0  0  0  0
  -22.9420  -10.2770   20.1820 C   0  0  0  0  0  3  0  0  0  0  0  0
  -21.8630   -7.0310   21.4940 O   0  0  0  0  0  0  0  0  0  0  0  0
  -21.7840   -6.3360   22.6740 C   0  0  0  0  0  0  0  0  0  0  0  0
  -21.3210   -6.9360   23.8650 C   0  0  0  0  0  3  0  0  0  0  0  0
  -21.1920   -6.1650   25.0380 C   0  0  0  0  0  3  0  0  0  0  0  0
  -21.5170   -4.7950   25.0200 C   0  0  0  0  0  0  0  0  0  0  0  0
  -21.9730   -4.1940   23.8330 C   0  0  0  0  0  3  0  0  0  0  0  0
  -22.1050   -4.9630   22.6630 C   0  0  0  0  0  0  0  0  0  0  0  0
  -22.5250   -4.3760   21.5180 F   0  0  0  0  0  0  0  0  0  0  0  0
  -21.3850   -4.0530   26.1420 F   0  0  0  0  0  0  0  0  0  0  0  0
  -22.9320  -13.6570   20.9580 C   0  0  0  0  0  0  0  0  0  0  0  0
  -22.2020  -12.9890   21.8460 N   0  0  0  0  0  0  0  0  0  0  0  0
  -22.4950  -14.6580   20.3940 O   0  0  0  0  0  0  0  0  0  0  0  0
  -22.5760  -12.1830   22.3260 H   0  0  0  0  0  0  0  0  0  0  0  0
  -21.2540  -13.2820   22.0410 H   0  0  0  0  0  0  0  0  0  0  0  0
  -25.5690  -15.3060   20.1410 N   0  0  0  0  0  0  0  0  0  0  0  0
  -24.7980  -15.9570   20.2380 H   0  0  0  0  0  0  0  0  0  0  0  0
  -26.4360  -15.7530   19.8700 H   0  0  0  0  0  0  0  0  0  0  0  0
  -27.2880  -22.5990   21.8650 C   0  0  0  0  0  2  0  0  0  0  0  0
  -28.1750  -23.7170   21.8570 O   0  0  0  0  0  0  0  0  0  0  0  0
  -28.0200  -24.5890   20.7440 C   0  0  0  0  0  2  0  0  0  0  0  0
  -28.8020  -25.8950   21.0070 C   0  0  0  0  0  2  0  0  0  0  0  0
  -28.6490  -26.8800   19.9830 O   0  0  0  0  0  0  0  0  0  0  0  0
  -24.6740  -31.7930   23.2960 C   0  0  0  0  0  0  0  0  0  0  0  0
  -27.4760  -27.5870   20.0370 C   0  0  0  0  0  0  0  0  0  0  0  0
  -23.5370  -30.4690   21.5460 C   0  0  0  0  0  3  0  0  0  0  0  0
  -25.0530  -29.0320   20.0820 C   0  0  0  0  0  0  0  0  0  0  0  0
  -26.0600  -30.8720   21.4450 C   0  0  0  0  0  2  0  0  0  0  0  0
  -26.1860  -29.5440   20.7320 C   0  0  0  0  0  0  0  0  0  0  0  0
  -27.4010  -28.8240   20.7150 C   0  0  0  0  0  3  0  0  0  0  0  0
  -26.3340  -27.0890   19.3800 C   0  0  0  0  0  3  0  0  0  0  0  0
  -25.1200  -27.7990   19.4120 C   0  0  0  0  0  3  0  0  0  0  0  0
  -23.7940  -29.8680   20.1400 C   0  0  0  0  0  2  0  0  0  0  0  0
  -24.7720  -31.0590   22.1530 N   0  0  0  0  0  0  0  0  0  0  0  0
  -23.5740  -32.0180   23.8190 O   0  0  0  0  0  0  0  0  0  0  0  0
  -22.8810  -29.3850   22.4300 C   0  0  0  0  0  0  0  0  0  0  0  0
  -21.5610  -29.1930   22.2620 N   0  0  0  0  0  0  0  0  0  0  0  0
  -23.5560  -28.7210   23.2260 O   0  0  0  0  0  0  0  0  0  0  0  0
  -21.0830  -29.7800   21.5920 H   0  0  0  0  0  0  0  0  0  0  0  0
  -18.1940  -27.9390   22.6140 C   0  0  0  0  0  0  0  0  0  0  0  0
  -20.7430  -28.2020   22.9540 C   0  0  0  0  0  3  0  0  0  0  0  0
  -20.8730  -26.8120   22.2880 C   0  0  0  0  0  2  0  0  0  0  0  0
  -19.7930  -26.5440   21.2340 C   0  0  0  0  0  2  0  0  0  0  0  0
  -18.3970  -26.6380   21.8580 C   0  0  0  0  0  2  0  0  0  0  0  0
  -19.2960  -28.6810   23.1160 C   0  0  0  0  0  0  0  0  0  0  0  0
  -19.0550  -29.9020   23.7810 C   0  0  0  0  0  3  0  0  0  0  0  0
  -17.7420  -30.3820   23.9510 C   0  0  0  0  0  3  0  0  0  0  0  0
  -16.6530  -29.6340   23.4690 C   0  0  0  0  0  3  0  0  0  0  0  0
  -16.8800  -28.4150   22.8060 C   0  0  0  0  0  3  0  0  0  0  0  0
  -25.9350  -32.4030   23.9860 C   0  0  0  0  0  3  0  0  0  0  0  0
  -25.5980  -33.7800   24.3690 N   0  0  0  0  0  0  0  0  0  0  0  0
  -25.9480  -34.8680   23.6700 C   0  0  0  0  0  0  0  0  0  0  0  0
  -26.6540  -34.8170   22.6580 O   0  0  0  0  0  0  0  0  0  0  0  0
  -24.9720  -33.8950   25.1530 H   0  0  0  0  0  0  0  0  0  0  0  0
  -24.2140  -36.6560   23.3460 C   0  0  0  0  0  1  0  0  0  0  0  0
  -25.4340  -36.2290   24.1740 C   0  0  0  0  0  3  0  0  0  0  0  0
  -27.5330  -37.0960   25.1120 C   0  0  0  0  0  1  0  0  0  0  0  0
  -26.4620  -37.2950   24.1390 N   0  0  0  0  0  0  0  0  0  0  0  0
  -26.0420  -38.2060   24.3080 H   0  0  0  0  0  0  0  0  0  0  0  0
  -26.4210  -31.5750   25.2380 C   0  0  1  0  0  0  0  0  0  0  0  0
  -25.2930  -31.2740   26.2540 C   0  0  0  0  0  1  0  0  0  0  0  0
  -27.0350  -30.2260   24.7970 C   0  0  0  0  0  1  0  0  0  0  0  0
  -27.5430  -32.3510   25.9710 C   0  0  0  0  0  1  0  0  0  0  0  0
  1 48  1  0
  2  1  1  0
  3  2  1  0
  4  5  1  0
  4  3  1  0
  6  5  1  0
  6  7  1  0
  7  8  1  0
  8  9  1  0
  9 10  1  0
 11 10  1  0
 12 11  1  0
 13 18  1  0
 14 15  1  0
 14 13  1  0
 16 15  1  0
 16 23  1  0
 16 17  1  0
 18 12  1  0
 18 17  1  0
 19 12  2  0
 20 21  2  0
 21 22  1  0
 21 40  1  0
 22 25  1  0
 23 20  1  0
 23 24  1  0
 24 22  2  0
 25 26  1  0
 26 27  2  0
 28 31  1  0
 28 27  1  0
 29 28  2  0
 30 29  1  0
 30 25  2  0
 31 32  1  0
 32 33  1  0
 33 34  2  0
 35 34  1  0
 35 39  1  0
 36 35  2  0
 37 32  2  0
 37 36  1  0
 38 37  1  0
 40 41  1  0
 41 44  1  0
 41 43  1  0
 42 40  2  0
 45 46  1  0
 45 20  1  0
 47 45  1  0
 49 48  1  0
 50 51  1  0
 50 49  1  0
 52 54  1  0
 52 51  1  0
 53 64  2  0
 54 59  1  0
 55 63  1  0
 55 65  1  0
 56 62  1  0
 56 58  1  0
 57 63  1  0
 58 57  1  0
 59 58  2  0
 60 61  1  0
 60 54  2  0
 61 56  2  0
 62 55  1  0
 63 53  1  0
 65 67  2  0
 66 65  1  0
 68 66  1  0
 69 78  2  0
 69 74  1  0
 70 66  1  0
 70 74  1  0
 71 70  1  0
 72 73  1  0
 72 71  1  0
 73 69  1  0
 74 75  2  0
 75 76  1  0
 77 76  2  0
 78 77  1  0
 79 53  1  0
 79 80  1  0
 79 89  1  0
 80 83  1  0
 81 85  1  0
 81 80  1  0
 82 81  2  0
 85 84  1  0
 87 85  1  0
 87 88  1  0
 87 86  1  0
 89 92  1  1
 89 90  1  0
 91 89  1  0
M  ISO  4  11 100  12 100  51 101  52 101
M  END
>  <TORSDO>  (7) 
F 30

>  <SCORE>  (7) 
-10.474

>  <name>  (7) 
6

>  <ligand_id>  (7) 
6

>  <original_smiles>  (7) 
[H]c1c([H])c([H])c2c(c1[H])C([H])([H])C([H])([H])C([H])([H])C2([H])N([H])C(=O)C1([H])N(C(=O)C([H])(N([H])C(=O)C([H])(N([H])C([H])([H])[H])C([H])([H])[H])C(C([H])([H])[H])(C([H])([H])[H])C([H])([H])[H])C([H])([H])c2c([H])c(OC([H])([H])C([H])([H])OC([H])([H])C([H])([H])OC([H])([H])C([H])([H])OC([H])([H])C([H])([H])OC([H])([H])C([H])([H])OC(=O)N3C([H])([H])C([H])([H])C([H])([H])C([H])(n4nc(-c5c([H])c([H])c(Oc6c([H])c([H])c(F)c([H])c6F)c([H])c5[H])c(C(=O)N([H])[H])c4N([H])[H])C3([H])[H])c([H])c([H])c2C1([H])[H]

>  <smiles>  (7) 
[H]c1c([H])c([H])c2c(c1[H])C([H])([H])C([H])([H])C([H])([H])C2([H])N([H])C(=O)C1([H])N(C(=O)C([H])(N([H])C(=O)C([H])(N([H])C([H])([H])[H])C([H])([H])[H])C(C([H])([H])[H])(C([H])([H])[H])C([H])([H])[H])C([H])([H])c2c([H])c(OC([H])([H])C([H])([H])OC([H])([H])C([H])([H])OC([H])([H])C([H])([H])OC([H])([H])C([H])([H])OC([H])([H])C([H])([H])OC(=O)N3C([H])([H])C([H])([H])C([H])([H])C([H])(n4nc(-c5c([H])c([H])c(Oc6c([H])c([H])c(F)c([H])c6F)c([H])c5[H])c(C(=O)N([H])[H])c4N([H])[H])C3([H])[H])c([H])c([H])c2C1([H])[H]

$$$$
7:0:0
     RDKit          3D

104112  0  0  1  0  0  0  0  0999 V2000
  -24.2240  -22.7480   17.7500 C   0  0  0  0  0  2  0  0  0  0  0  0
  -25.5740  -22.7000   18.2090 O   0  0  0  0  0  0  0  0  0  0  0  0
  -25.6610  -22.3860   19.5960 C   0  0  0  0  0  2  0  0  0  0  0  0
  -27.1290  -22.3260   20.0580 C   0  0  0  0  0  2  0  0  0  0  0  0
  -27.6450  -19.8910   20.1470 C   0  0  0  0  0  0  0  0  0  0  0  0
  -27.7930  -21.1070   19.6070 N   0  0  0  0  0  0  0  0  0  0  0  0
  -26.9410  -19.6840   21.1370 O   0  0  0  0  0  0  0  0  0  0  0  0
  -28.3940  -21.1790   18.7960 H   0  0  0  0  0  0  0  0  0  0  0  0
  -30.1530  -16.7390   18.5450 C   0  0  0  0  0  3  0  0  0  0  0  0
  -29.5820  -17.6760   17.6690 C   0  0  0  0  0  3  0  0  0  0  0  0
  -29.0320  -17.8170   20.4180 C   0  0  0  0  0  3  0  0  0  0  0  0
  -28.4830  -18.7920   19.5500 C   0  0  0  0  0  0  0  0  0  0  0  0
  -29.8730  -16.7950   19.9330 C   0  0  0  0  0  0  0  0  0  0  0  0
  -28.7380  -18.6920   18.1520 C   0  0  0  0  0  0  0  0  0  0  0  0
  -28.0410  -19.7610   16.9810 Cl  0  0  0  0  0  0  0  0  0  0  0  0
  -31.1510  -14.7960   20.5230 C   0  0  0  0  0  0  0  0  0  0  0  0
  -30.8220  -12.6480   19.3670 C   0  0  0  0  0  2  0  0  0  0  0  0
  -29.9200  -12.8470   18.1330 C   0  0  0  0  0  2  0  0  0  0  0  0
  -28.4260  -12.7770   18.5160 C   0  0  0  0  0  2  0  0  0  0  0  0
  -28.0730  -13.6420   19.7590 C   0  0  0  0  0  3  0  0  0  0  0  0
  -29.0890  -13.4050   20.8990 C   0  0  0  0  0  2  0  0  0  0  0  0
  -30.4340  -13.6550   20.3590 N   0  0  0  0  0  0  0  0  0  0  0  0
  -32.3240  -14.9230   20.1670 O   0  0  0  0  0  0  0  0  0  0  0  0
  -30.4380  -15.8790   20.8670 N   0  0  0  0  0  0  0  0  0  0  0  0
  -30.7300  -16.3040   21.7350 H   0  0  0  0  0  0  0  0  0  0  0  0
  -25.6780  -14.3360   20.3870 C   0  0  0  0  0  0  0  0  0  0  0  0
  -24.5720  -13.6020   20.7240 C   0  0  0  0  0  0  0  0  0  0  0  0
  -24.9890  -12.2360   20.7140 C   0  0  0  0  0  0  0  0  0  0  0  0
  -26.6990  -13.4180   20.1970 N   0  0  0  0  0  0  0  0  0  0  0  0
  -26.2870  -12.1520   20.4540 N   0  0  0  0  0  0  0  0  0  0  0  0
  -24.2160  -10.9990   20.8810 C   0  0  0  0  0  0  0  0  0  0  0  0
  -24.5880  -10.0250   21.8350 C   0  0  0  0  0  3  0  0  0  0  0  0
  -23.8210   -8.8510   21.9930 C   0  0  0  0  0  3  0  0  0  0  0  0
  -22.6690   -8.6430   21.1970 C   0  0  0  0  0  0  0  0  0  0  0  0
  -22.3150   -9.6070   20.2380 C   0  0  0  0  0  3  0  0  0  0  0  0
  -23.0810  -10.7740   20.0790 C   0  0  0  0  0  3  0  0  0  0  0  0
  -21.8820   -7.5190   21.2620 O   0  0  0  0  0  0  0  0  0  0  0  0
  -21.7500   -6.7960   22.4200 C   0  0  0  0  0  0  0  0  0  0  0  0
  -21.3100   -7.3870   23.6240 C   0  0  0  0  0  3  0  0  0  0  0  0
  -21.1240   -6.5940   24.7730 C   0  0  0  0  0  3  0  0  0  0  0  0
  -21.3690   -5.2080   24.7190 C   0  0  0  0  0  0  0  0  0  0  0  0
  -21.7980   -4.6150   23.5190 C   0  0  0  0  0  3  0  0  0  0  0  0
  -21.9850   -5.4080   22.3720 C   0  0  0  0  0  0  0  0  0  0  0  0
  -22.3790   -4.8280   21.2120 F   0  0  0  0  0  0  0  0  0  0  0  0
  -21.1840   -4.4410   25.8190 F   0  0  0  0  0  0  0  0  0  0  0  0
  -23.1830  -14.1260   20.9480 C   0  0  0  0  0  0  0  0  0  0  0  0
  -22.4120  -13.4690   21.8070 N   0  0  0  0  0  0  0  0  0  0  0  0
  -22.7900  -15.1520   20.3970 O   0  0  0  0  0  0  0  0  0  0  0  0
  -22.7370  -12.6350   22.2750 H   0  0  0  0  0  0  0  0  0  0  0  0
  -21.4790  -13.8030   21.9980 H   0  0  0  0  0  0  0  0  0  0  0  0
  -25.9040  -15.6990   20.2080 N   0  0  0  0  0  0  0  0  0  0  0  0
  -25.1770  -16.3970   20.3070 H   0  0  0  0  0  0  0  0  0  0  0  0
  -26.8060  -16.0920   19.9700 H   0  0  0  0  0  0  0  0  0  0  0  0
  -24.1210  -23.2930   16.3140 C   0  0  0  0  0  2  0  0  0  0  0  0
  -24.3110  -24.7040   16.2880 O   0  0  0  0  0  0  0  0  0  0  0  0
  -24.0600  -25.2760   15.0050 C   0  0  0  0  0  2  0  0  0  0  0  0
  -24.6540  -26.6910   14.9430 C   0  0  0  0  0  2  0  0  0  0  0  0
  -26.0620  -26.5430   14.8500 O   0  0  0  0  0  0  0  0  0  0  0  0
  -26.7950  -27.7530   14.9810 C   0  0  0  0  0  2  0  0  0  0  0  0
  -28.1350  -27.3680   15.6150 C   0  0  0  0  0  2  0  0  0  0  0  0
  -27.8350  -26.7810   16.8720 O   0  0  0  0  0  0  0  0  0  0  0  0
  -28.9510  -26.1930   17.5180 C   0  0  0  0  0  2  0  0  0  0  0  0
  -28.5080  -25.6260   18.8790 C   0  0  0  0  0  2  0  0  0  0  0  0
  -28.2820  -26.6750   19.8240 O   0  0  0  0  0  0  0  0  0  0  0  0
  -24.5100  -31.7260   23.0890 C   0  0  0  0  0  0  0  0  0  0  0  0
  -27.0800  -27.3520   19.8430 C   0  0  0  0  0  0  0  0  0  0  0  0
  -23.2640  -30.3770   21.4270 C   0  0  0  0  0  3  0  0  0  0  0  0
  -24.6820  -28.8550   19.9500 C   0  0  0  0  0  0  0  0  0  0  0  0
  -25.7920  -30.7090   21.2130 C   0  0  0  0  0  2  0  0  0  0  0  0
  -25.8510  -29.3550   20.5360 C   0  0  0  0  0  0  0  0  0  0  0  0
  -27.0430  -28.6040   20.4910 C   0  0  0  0  0  3  0  0  0  0  0  0
  -25.8840  -26.8540   19.2650 C   0  0  0  0  0  3  0  0  0  0  0  0
  -24.6910  -27.6000   19.3180 C   0  0  0  0  0  3  0  0  0  0  0  0
  -23.4500  -29.7230   20.0320 C   0  0  0  0  0  2  0  0  0  0  0  0
  -24.5400  -30.9510   21.9670 N   0  0  0  0  0  0  0  0  0  0  0  0
  -23.4390  -31.9970   23.6490 O   0  0  0  0  0  0  0  0  0  0  0  0
  -22.6150  -29.3400   22.3730 C   0  0  0  0  0  0  0  0  0  0  0  0
  -21.2880  -29.1740   22.2520 N   0  0  0  0  0  0  0  0  0  0  0  0
  -23.2990  -28.6920   23.1700 O   0  0  0  0  0  0  0  0  0  0  0  0
  -20.7990  -29.7510   21.5840 H   0  0  0  0  0  0  0  0  0  0  0  0
  -17.9100  -27.9800   22.7300 C   0  0  0  0  0  0  0  0  0  0  0  0
  -20.4690  -28.2280   23.0090 C   0  0  0  0  0  3  0  0  0  0  0  0
  -20.5680  -26.8040   22.4130 C   0  0  0  0  0  2  0  0  0  0  0  0
  -19.4670  -26.4960   21.3950 C   0  0  0  0  0  2  0  0  0  0  0  0
  -18.0850  -26.6380   22.0380 C   0  0  0  0  0  2  0  0  0  0  0  0
  -19.0310  -28.7340   23.1720 C   0  0  0  0  0  0  0  0  0  0  0  0
  -18.8140  -29.9900   23.7760 C   0  0  0  0  0  3  0  0  0  0  0  0
  -17.5120  -30.4950   23.9450 C   0  0  0  0  0  3  0  0  0  0  0  0
  -16.4070  -29.7370   23.5210 C   0  0  0  0  0  3  0  0  0  0  0  0
  -16.6060  -28.4810   22.9200 C   0  0  0  0  0  3  0  0  0  0  0  0
  -25.8130  -32.3270   23.7050 C   0  0  0  0  0  3  0  0  0  0  0  0
  -25.5280  -33.7190   24.0720 N   0  0  0  0  0  0  0  0  0  0  0  0
  -25.8650  -34.7840   23.3340 C   0  0  0  0  0  0  0  0  0  0  0  0
  -26.5230  -34.6970   22.2940 O   0  0  0  0  0  0  0  0  0  0  0  0
  -24.9490  -33.8600   24.8870 H   0  0  0  0  0  0  0  0  0  0  0  0
  -24.1530  -36.6000   23.0400 C   0  0  0  0  0  1  0  0  0  0  0  0
  -25.3980  -36.1660   23.8280 C   0  0  0  0  0  3  0  0  0  0  0  0
  -27.5540  -37.0050   24.6520 C   0  0  0  0  0  1  0  0  0  0  0  0
  -26.4410  -37.2100   23.7280 N   0  0  0  0  0  0  0  0  0  0  0  0
  -26.0470  -38.1290   23.9080 H   0  0  0  0  0  0  0  0  0  0  0  0
  -26.3410  -31.5180   24.9530 C   0  0  1  0  0  0  0  0  0  0  0  0
  -25.2650  -31.2730   26.0360 C   0  0  0  0  0  1  0  0  0  0  0  0
  -26.8960  -30.1410   24.5210 C   0  0  0  0  0  1  0  0  0  0  0  0
  -27.5150  -32.2810   25.6130 C   0  0  0  0  0  1  0  0  0  0  0  0
  1  2  1  0
  2  3  1  0
  3  4  1  0
  5  7  2  0
  6  4  1  0
  6  5  1  0
  8  6  1  0
  9 13  1  0
 10 14  1  0
 10  9  2  0
 12  5  1  0
 12 11  1  0
 13 11  2  0
 13 24  1  0
 14 12  2  0
 15 14  1  0
 16 24  1  0
 17 22  1  0
 18 19  1  0
 18 17  1  0
 20 19  1  0
 20 29  1  0
 20 21  1  0
 22 16  1  0
 22 21  1  0
 23 16  2  0
 24 25  1  0
 26 27  2  0
 27 46  1  0
 28 27  1  0
 28 31  1  0
 29 26  1  0
 29 30  1  0
 30 28  2  0
 31 32  1  0
 32 33  2  0
 34 37  1  0
 34 33  1  0
 35 34  2  0
 36 35  1  0
 36 31  2  0
 37 38  1  0
 38 39  1  0
 39 40  2  0
 41 40  1  0
 41 45  1  0
 42 41  2  0
 43 38  2  0
 43 42  1  0
 44 43  1  0
 46 47  1  0
 47 50  1  0
 47 49  1  0
 48 46  2  0
 51 52  1  0
 51 26  1  0
 53 51  1  0
 54  1  1  0
 55 54  1  0
 56 55  1  0
 57 56  1  0
 58 57  1  0
 58 59  1  0
 59 60  1  0
 60 61  1  0
 61 62  1  0
 62 63  1  0
 63 64  1  0
 64 66  1  0
 65 76  2  0
 66 71  1  0
 67 75  1  0
 67 77  1  0
 68 74  1  0
 68 70  1  0
 69 75  1  0
 70 69  1  0
 71 70  2  0
 72 73  1  0
 72 66  2  0
 73 68  2  0
 74 67  1  0
 75 65  1  0
 77 79  2  0
 78 77  1  0
 80 78  1  0
 81 90  2  0
 81 86  1  0
 82 78  1  0
 82 86  1  0
 83 82  1  0
 84 85  1  0
 84 83  1  0
 85 81  1  0
 86 87  2  0
 87 88  1  0
 89 88  2  0
 90 89  1  0
 91 65  1  0
 91 92  1  0
 91101  1  0
 92 95  1  0
 93 97  1  0
 93 92  1  0
 94 93  2  0
 97 96  1  0
 99 97  1  0
 99100  1  0
 99 98  1  0
101104  1  1
101102  1  0
103101  1  0
M  ISO  4  16 100  24 100  63 101  64 101
M  END
>  <TORSDO>  (8) 
F 31

>  <SCORE>  (8) 
-9.163

>  <name>  (8) 
7

>  <ligand_id>  (8) 
7

>  <original_smiles>  (8) 
[H]c1c([H])c([H])c2c(c1[H])C([H])([H])C([H])([H])C([H])([H])C2([H])N([H])C(=O)C1([H])N(C(=O)C([H])(N([H])C(=O)C([H])(N([H])C([H])([H])[H])C([H])([H])[H])C(C([H])([H])[H])(C([H])([H])[H])C([H])([H])[H])C([H])([H])c2c([H])c(OC([H])([H])C([H])([H])OC([H])([H])C([H])([H])OC([H])([H])C([H])([H])OC([H])([H])C([H])([H])OC([H])([H])C([H])([H])N([H])C(=O)c3c([H])c(N([H])C(=O)N4C([H])([H])C([H])([H])C([H])([H])C([H])(n5nc(-c6c([H])c([H])c(Oc7c([H])c([H])c(F)c([H])c7F)c([H])c6[H])c(C(=O)N([H])[H])c5N([H])[H])C4([H])[H])c([H])c([H])c3Cl)c([H])c([H])c2C1([H])[H]

>  <smiles>  (8) 
[H]c1c([H])c([H])c2c(c1[H])C([H])([H])C([H])([H])C([H])([H])C2([H])N([H])C(=O)C1([H])N(C(=O)C([H])(N([H])C(=O)C([H])(N([H])C([H])([H])[H])C([H])([H])[H])C(C([H])([H])[H])(C([H])([H])[H])C([H])([H])[H])C([H])([H])c2c([H])c(OC([H])([H])C([H])([H])OC([H])([H])C([H])([H])OC([H])([H])C([H])([H])OC([H])([H])C([H])([H])OC([H])([H])C([H])([H])N([H])C(=O)c3c([H])c(N([H])C(=O)N4C([H])([H])C([H])([H])C([H])([H])C([H])(n5nc(-c6c([H])c([H])c(Oc7c([H])c([H])c(F)c([H])c7F)c([H])c6[H])c(C(=O)N([H])[H])c5N([H])[H])C4([H])[H])c([H])c([H])c3Cl)c([H])c([H])c2C1([H])[H]

$$$$
8:0:0
     RDKit          3D

 94102  0  0  1  0  0  0  0  0999 V2000
  -24.9080  -20.0840   18.7060 C   0  0  0  0  0  2  0  0  0  0  0  0
  -25.7550  -18.9790   19.3530 C   0  0  0  0  0  2  0  0  0  0  0  0
  -26.8650  -18.6720   18.5180 O   0  0  0  0  0  0  0  0  0  0  0  0
  -29.1890  -16.9940   20.9240 C   0  0  0  0  0  3  0  0  0  0  0  0
  -29.9750  -16.7120   18.6360 C   0  0  0  0  0  3  0  0  0  0  0  0
  -28.0810  -17.7270   20.4540 C   0  0  0  0  0  3  0  0  0  0  0  0
  -28.8730  -17.4530   18.1700 C   0  0  0  0  0  3  0  0  0  0  0  0
  -30.1380  -16.4770   20.0210 C   0  0  0  0  0  0  0  0  0  0  0  0
  -27.9160  -17.9690   19.0660 C   0  0  0  0  0  0  0  0  0  0  0  0
  -31.8340  -14.7140   19.9930 C   0  0  0  0  0  0  0  0  0  0  0  0
  -31.6110  -12.3160   19.4470 C   0  0  0  0  0  2  0  0  0  0  0  0
  -30.7060  -12.0880   18.2240 C   0  0  0  0  0  2  0  0  0  0  0  0
  -29.2330  -11.9940   18.6610 C   0  0  0  0  0  2  0  0  0  0  0  0
  -28.8100  -13.1620   19.5900 C   0  0  0  0  0  3  0  0  0  0  0  0
  -29.8310  -13.3560   20.7320 C   0  0  0  0  0  2  0  0  0  0  0  0
  -31.1600  -13.5400   20.1240 N   0  0  0  0  0  0  0  0  0  0  0  0
  -32.9120  -14.8130   19.4040 O   0  0  0  0  0  0  0  0  0  0  0  0
  -31.2770  -15.8060   20.5360 N   0  0  0  0  0  0  0  0  0  0  0  0
  -31.9840  -16.4550   20.8480 H   0  0  0  0  0  0  0  0  0  0  0  0
  -26.4620  -13.9130   20.3260 C   0  0  0  0  0  0  0  0  0  0  0  0
  -25.3590  -13.2110   20.7220 C   0  0  0  0  0  0  0  0  0  0  0  0
  -25.7470  -11.8350   20.7170 C   0  0  0  0  0  0  0  0  0  0  0  0
  -27.4550  -12.9740   20.0990 N   0  0  0  0  0  0  0  0  0  0  0  0
  -27.0280  -11.7190   20.3910 N   0  0  0  0  0  0  0  0  0  0  0  0
  -24.9590  -10.6210   20.9510 C   0  0  0  0  0  0  0  0  0  0  0  0
  -25.1300   -9.8430   22.1180 C   0  0  0  0  0  3  0  0  0  0  0  0
  -24.3500   -8.6870   22.3280 C   0  0  0  0  0  3  0  0  0  0  0  0
  -23.3840   -8.2990   21.3690 C   0  0  0  0  0  0  0  0  0  0  0  0
  -23.2310   -9.0640   20.1990 C   0  0  0  0  0  3  0  0  0  0  0  0
  -24.0130  -10.2130   19.9890 C   0  0  0  0  0  3  0  0  0  0  0  0
  -22.5990   -7.1750   21.4760 O   0  0  0  0  0  0  0  0  0  0  0  0
  -21.9800   -6.8410   22.6530 C   0  0  0  0  0  0  0  0  0  0  0  0
  -21.0340   -7.6920   23.2660 C   0  0  0  0  0  3  0  0  0  0  0  0
  -20.3720   -7.2790   24.4380 C   0  0  0  0  0  3  0  0  0  0  0  0
  -20.6430   -6.0150   24.9940 C   0  0  0  0  0  0  0  0  0  0  0  0
  -21.5790   -5.1630   24.3810 C   0  0  0  0  0  3  0  0  0  0  0  0
  -22.2440   -5.5750   23.2140 C   0  0  0  0  0  0  0  0  0  0  0  0
  -23.1310   -4.7420   22.6170 F   0  0  0  0  0  0  0  0  0  0  0  0
  -20.0000   -5.6140   26.1160 F   0  0  0  0  0  0  0  0  0  0  0  0
  -23.9960  -13.7710   21.0050 C   0  0  0  0  0  0  0  0  0  0  0  0
  -23.2150  -13.0950   21.8380 N   0  0  0  0  0  0  0  0  0  0  0  0
  -23.6330  -14.8450   20.5260 O   0  0  0  0  0  0  0  0  0  0  0  0
  -23.5200  -12.2230   22.2460 H   0  0  0  0  0  0  0  0  0  0  0  0
  -22.3020  -13.4540   22.0740 H   0  0  0  0  0  0  0  0  0  0  0  0
  -26.6990  -15.2680   20.1250 N   0  0  0  0  0  0  0  0  0  0  0  0
  -26.0000  -15.9720   20.3230 H   0  0  0  0  0  0  0  0  0  0  0  0
  -27.6180  -15.6560   19.9520 H   0  0  0  0  0  0  0  0  0  0  0  0
  -25.5200  -21.3490   18.9390 O   0  0  0  0  0  0  0  0  0  0  0  0
  -26.1210  -21.9330   17.7910 C   0  0  0  0  0  2  0  0  0  0  0  0
  -26.8200  -23.2410   18.1980 C   0  0  0  0  0  2  0  0  0  0  0  0
  -28.2330  -23.0530   18.2600 O   0  0  0  0  0  0  0  0  0  0  0  0
  -28.9070  -23.9830   19.1090 C   0  0  0  0  0  2  0  0  0  0  0  0
  -29.5750  -25.1210   18.2950 C   0  0  0  0  0  2  0  0  0  0  0  0
  -29.5330  -26.3940   18.9560 O   0  0  0  0  0  0  0  0  0  0  0  0
  -25.2980  -29.7960   23.5290 C   0  0  0  0  0  0  0  0  0  0  0  0
  -28.3170  -27.0240   19.1270 C   0  0  0  0  0  0  0  0  0  0  0  0
  -24.2570  -29.1660   21.3740 C   0  0  0  0  0  3  0  0  0  0  0  0
  -25.8630  -28.3580   19.5670 C   0  0  0  0  0  0  0  0  0  0  0  0
  -26.7740  -29.6100   21.5310 C   0  0  0  0  0  2  0  0  0  0  0  0
  -26.9580  -28.6210   20.3990 C   0  0  0  0  0  0  0  0  0  0  0  0
  -28.1880  -27.9580   20.1800 C   0  0  0  0  0  3  0  0  0  0  0  0
  -27.2000  -26.7790   18.2940 C   0  0  0  0  0  3  0  0  0  0  0  0
  -25.9780  -27.4370   18.5140 C   0  0  0  0  0  3  0  0  0  0  0  0
  -24.5800  -29.1000   19.8570 C   0  0  0  0  0  2  0  0  0  0  0  0
  -25.4560  -29.5140   22.2040 N   0  0  0  0  0  0  0  0  0  0  0  0
  -24.1770  -29.8080   24.0550 O   0  0  0  0  0  0  0  0  0  0  0  0
  -23.5980  -27.8330   21.7930 C   0  0  0  0  0  0  0  0  0  0  0  0
  -22.3110  -27.6680   21.4500 N   0  0  0  0  0  0  0  0  0  0  0  0
  -24.2480  -26.9630   22.3800 O   0  0  0  0  0  0  0  0  0  0  0  0
  -21.8480  -28.4350   20.9830 H   0  0  0  0  0  0  0  0  0  0  0  0
  -19.0240  -26.2330   21.0030 C   0  0  0  0  0  0  0  0  0  0  0  0
  -21.5000  -26.4780   21.7010 C   0  0  0  0  0  3  0  0  0  0  0  0
  -21.7940  -25.3640   20.6690 C   0  0  0  0  0  2  0  0  0  0  0  0
  -20.8480  -25.3890   19.4630 C   0  0  0  0  0  2  0  0  0  0  0  0
  -19.3970  -25.2280   19.9260 C   0  0  0  0  0  2  0  0  0  0  0  0
  -20.0130  -26.8290   21.8300 C   0  0  0  0  0  0  0  0  0  0  0  0
  -19.6190  -27.7800   22.7960 C   0  0  0  0  0  3  0  0  0  0  0  0
  -18.2640  -28.1330   22.9440 C   0  0  0  0  0  3  0  0  0  0  0  0
  -17.2880  -27.5280   22.1350 C   0  0  0  0  0  3  0  0  0  0  0  0
  -17.6670  -26.5760   21.1720 C   0  0  0  0  0  3  0  0  0  0  0  0
  -26.5190  -30.1450   24.4370 C   0  0  0  0  0  3  0  0  0  0  0  0
  -26.6870  -29.1620   25.6570 C   0  0  1  0  0  0  0  0  0  0  0  0
  -25.4080  -29.0000   26.5110 C   0  0  0  0  0  1  0  0  0  0  0  0
  -27.1040  -27.7550   25.1710 C   0  0  0  0  0  1  0  0  0  0  0  0
  -27.8200  -29.6640   26.5820 C   0  0  0  0  0  1  0  0  0  0  0  0
  -26.3410  -31.5260   24.9020 N   0  0  0  0  0  0  0  0  0  0  0  0
  -27.0300  -32.5790   24.4420 C   0  0  0  0  0  0  0  0  0  0  0  0
  -27.9470  -32.4750   23.6220 O   0  0  0  0  0  0  0  0  0  0  0  0
  -25.5710  -31.6910   25.5340 H   0  0  0  0  0  0  0  0  0  0  0  0
  -25.8780  -34.7450   23.8980 C   0  0  0  0  0  1  0  0  0  0  0  0
  -26.6440  -33.9690   24.9810 C   0  0  0  0  0  3  0  0  0  0  0  0
  -28.4200  -34.2460   26.6520 C   0  0  0  0  0  1  0  0  0  0  0  0
  -27.8030  -34.7680   25.4350 N   0  0  0  0  0  0  0  0  0  0  0  0
  -27.5310  -35.7310   25.6070 H   0  0  0  0  0  0  0  0  0  0  0  0
  1 48  1  0
  1  2  1  0
  3  9  1  0
  3  2  1  0
  5  8  1  0
  6  4  1  0
  7  5  2  0
  7  9  1  0
  8 18  1  0
  8  4  2  0
  9  6  2  0
 10 16  1  0
 10 18  1  0
 11 16  1  0
 12 13  1  0
 12 11  1  0
 14 13  1  0
 14 23  1  0
 14 15  1  0
 16 15  1  0
 17 10  2  0
 18 19  1  0
 20 21  2  0
 21 40  1  0
 22 21  1  0
 22 25  1  0
 23 20  1  0
 23 24  1  0
 24 22  2  0
 25 26  1  0
 26 27  2  0
 28 31  1  0
 28 27  1  0
 29 28  2  0
 30 29  1  0
 30 25  2  0
 31 32  1  0
 32 37  2  0
 32 33  1  0
 33 34  2  0
 34 35  1  0
 35 39  1  0
 36 35  2  0
 37 36  1  0
 38 37  1  0
 40 41  1  0
 41 44  1  0
 41 43  1  0
 42 40  2  0
 45 46  1  0
 45 20  1  0
 47 45  1  0
 49 50  1  0
 49 48  1  0
 50 51  1  0
 51 52  1  0
 53 54  1  0
 53 52  1  0
 54 56  1  0
 55 66  2  0
 56 61  1  0
 57 67  1  0
 57 65  1  0
 58 64  1  0
 58 60  1  0
 59 65  1  0
 60 59  1  0
 61 60  2  0
 62 63  1  0
 62 56  2  0
 63 58  2  0
 64 57  1  0
 65 55  1  0
 67 69  2  0
 68 67  1  0
 70 68  1  0
 71 80  2  0
 71 76  1  0
 72 68  1  0
 72 76  1  0
 73 72  1  0
 74 75  1  0
 74 73  1  0
 75 71  1  0
 76 77  2  0
 77 78  1  0
 79 78  2  0
 80 79  1  0
 81 55  1  0
 81 86  1  0
 81 82  1  0
 82 83  1  1
 82 85  1  0
 84 82  1  0
 86 89  1  0
 87 86  1  0
 87 91  1  0
 88 87  2  0
 91 90  1  0
 91 93  1  0
 93 94  1  0
 93 92  1  0
M  ISO  4  10 100  18 100  53 101  54 101
M  END
>  <TORSDO>  (9) 
F 25

>  <SCORE>  (9) 
-6.620

>  <name>  (9) 
8

>  <ligand_id>  (9) 
8

>  <original_smiles>  (9) 
[H]c1c([H])c([H])c2c(c1[H])C([H])([H])C([H])([H])C([H])([H])C2([H])N([H])C(=O)C1([H])N(C(=O)C([H])(N([H])C(=O)C([H])(N([H])C([H])([H])[H])C([H])([H])[H])C(C([H])([H])[H])(C([H])([H])[H])C([H])([H])[H])C([H])([H])c2c([H])c(OC([H])([H])C([H])([H])OC([H])([H])C([H])([H])OC([H])([H])C([H])([H])Oc3c([H])c([H])c(N([H])C(=O)N4C([H])([H])C([H])([H])C([H])([H])C([H])(n5nc(-c6c([H])c([H])c(Oc7c([H])c([H])c(F)c([H])c7F)c([H])c6[H])c(C(=O)N([H])[H])c5N([H])[H])C4([H])[H])c([H])c3[H])c([H])c([H])c2C1([H])[H]

>  <smiles>  (9) 
[H]c1c([H])c([H])c2c(c1[H])C([H])([H])C([H])([H])C([H])([H])C2([H])N([H])C(=O)C1([H])N(C(=O)C([H])(N([H])C(=O)C([H])(N([H])C([H])([H])[H])C([H])([H])[H])C(C([H])([H])[H])(C([H])([H])[H])C([H])([H])[H])C([H])([H])c2c([H])c(OC([H])([H])C([H])([H])OC([H])([H])C([H])([H])OC([H])([H])C([H])([H])Oc3c([H])c([H])c(N([H])C(=O)N4C([H])([H])C([H])([H])C([H])([H])C([H])(n5nc(-c6c([H])c([H])c(Oc7c([H])c([H])c(F)c([H])c7F)c([H])c6[H])c(C(=O)N([H])[H])c5N([H])[H])C4([H])[H])c([H])c3[H])c([H])c([H])c2C1([H])[H]

$$$$
9:0:0
     RDKit          3D

 96103  0  0  1  0  0  0  0  0999 V2000
  -28.2400  -21.7790   18.2940 C   0  0  0  0  0  0  0  0  0  0  0  0
  -28.0220  -22.2300   19.5330 N   0  0  0  0  0  0  0  0  0  0  0  0
  -28.3320  -22.5110   17.3060 O   0  0  0  0  0  0  0  0  0  0  0  0
  -27.9490  -21.4830   20.2150 H   0  0  0  0  0  0  0  0  0  0  0  0
  -27.7090  -23.5790   19.9760 C   0  0  0  0  0  2  0  0  0  0  0  0
  -28.7760  -24.1260   20.9390 C   0  0  0  0  0  2  0  0  0  0  0  0
  -28.4210  -25.5260   21.4580 C   0  0  0  0  0  2  0  0  0  0  0  0
  -28.3510  -26.4340   20.3660 O   0  0  0  0  0  0  0  0  0  0  0  0
  -24.5100  -31.6800   23.2450 C   0  0  0  0  0  0  0  0  0  0  0  0
  -27.1960  -27.1710   20.3420 C   0  0  0  0  0  0  0  0  0  0  0  0
  -23.3410  -30.2760   21.5760 C   0  0  0  0  0  3  0  0  0  0  0  0
  -24.8200  -28.6810   20.2490 C   0  0  0  0  0  0  0  0  0  0  0  0
  -25.8770  -30.5880   21.4780 C   0  0  0  0  0  2  0  0  0  0  0  0
  -25.9600  -29.2040   20.8710 C   0  0  0  0  0  0  0  0  0  0  0  0
  -27.1530  -28.4520   20.9240 C   0  0  0  0  0  3  0  0  0  0  0  0
  -26.0440  -26.6500   19.7180 C   0  0  0  0  0  3  0  0  0  0  0  0
  -24.8510  -27.3960   19.6770 C   0  0  0  0  0  3  0  0  0  0  0  0
  -23.5930  -29.5630   20.2220 C   0  0  0  0  0  2  0  0  0  0  0  0
  -24.5920  -30.8610   22.1590 N   0  0  0  0  0  0  0  0  0  0  0  0
  -23.4140  -31.9870   23.7350 O   0  0  0  0  0  0  0  0  0  0  0  0
  -22.6280  -29.2850   22.5250 C   0  0  0  0  0  0  0  0  0  0  0  0
  -21.3070  -29.1320   22.3420 N   0  0  0  0  0  0  0  0  0  0  0  0
  -23.2620  -28.6580   23.3770 O   0  0  0  0  0  0  0  0  0  0  0  0
  -20.8620  -29.6860   21.6260 H   0  0  0  0  0  0  0  0  0  0  0  0
  -17.8870  -28.0350   22.7130 C   0  0  0  0  0  0  0  0  0  0  0  0
  -20.4360  -28.2280   23.0920 C   0  0  0  0  0  3  0  0  0  0  0  0
  -20.5230  -26.7850   22.5410 C   0  0  0  0  0  2  0  0  0  0  0  0
  -19.4570  -26.4760   21.4860 C   0  0  0  0  0  2  0  0  0  0  0  0
  -18.0540  -26.6690   22.0700 C   0  0  0  0  0  2  0  0  0  0  0  0
  -19.0060  -28.7730   23.1800 C   0  0  0  0  0  0  0  0  0  0  0  0
  -18.7990  -30.0530   23.7380 C   0  0  0  0  0  3  0  0  0  0  0  0
  -17.5030  -30.5920   23.8380 C   0  0  0  0  0  3  0  0  0  0  0  0
  -16.3960  -29.8510   23.3900 C   0  0  0  0  0  3  0  0  0  0  0  0
  -16.5890  -28.5740   22.8330 C   0  0  0  0  0  3  0  0  0  0  0  0
  -25.7850  -32.2900   23.9080 C   0  0  0  0  0  3  0  0  0  0  0  0
  -25.4900  -33.6950   24.2190 N   0  0  0  0  0  0  0  0  0  0  0  0
  -25.8560  -34.7330   23.4560 C   0  0  0  0  0  0  0  0  0  0  0  0
  -26.5490  -34.6110   22.4430 O   0  0  0  0  0  0  0  0  0  0  0  0
  -24.8720  -33.8640   24.9990 H   0  0  0  0  0  0  0  0  0  0  0  0
  -24.1530  -36.5390   23.0500 C   0  0  0  0  0  1  0  0  0  0  0  0
  -25.3760  -36.1320   23.8870 C   0  0  0  0  0  3  0  0  0  0  0  0
  -27.5070  -37.0020   24.7410 C   0  0  0  0  0  1  0  0  0  0  0  0
  -26.4220  -37.1720   23.7790 N   0  0  0  0  0  0  0  0  0  0  0  0
  -26.0240  -38.0990   23.9110 H   0  0  0  0  0  0  0  0  0  0  0  0
  -26.2470  -31.5130   25.2020 C   0  0  1  0  0  0  0  0  0  0  0  0
  -25.1140  -31.2920   26.2300 C   0  0  0  0  0  1  0  0  0  0  0  0
  -26.8230  -30.1270   24.8300 C   0  0  0  0  0  1  0  0  0  0  0  0
  -27.3850  -32.2910   25.9040 C   0  0  0  0  0  1  0  0  0  0  0  0
  -28.3170  -20.2520   18.1760 C   0  0  0  0  0  2  0  0  0  0  0  0
  -28.4130  -19.7150   19.4950 O   0  0  0  0  0  0  0  0  0  0  0  0
  -28.3950  -18.3020   19.5690 C   0  0  0  0  0  2  0  0  0  0  0  0
  -28.7030  -17.9190   21.0290 C   0  0  0  0  0  2  0  0  0  0  0  0
  -30.0960  -17.7290   21.2490 O   0  0  0  0  0  0  0  0  0  0  0  0
  -30.9130  -18.8740   21.0240 C   0  0  0  0  0  2  0  0  0  0  0  0
  -32.3650  -18.5470   21.4160 C   0  0  0  0  0  2  0  0  0  0  0  0
  -32.8750  -17.4930   20.6020 O   0  0  0  0  0  0  0  0  0  0  0  0
  -32.5030  -16.1910   21.0330 C   0  0  0  0  0  2  0  0  0  0  0  0
  -32.7230  -15.2160   19.8710 C   0  0  0  0  0  2  0  0  0  0  0  0
  -32.1880  -12.8470   19.4000 C   0  0  0  0  0  0  0  0  0  0  0  0
  -31.3230  -10.5970   18.8990 C   0  0  0  0  0  2  0  0  0  0  0  0
  -30.2620  -10.6500   17.7810 C   0  0  0  0  0  2  0  0  0  0  0  0
  -28.8660  -10.9530   18.3580 C   0  0  0  0  0  2  0  0  0  0  0  0
  -28.8680  -12.1640   19.3260 C   0  0  0  0  0  3  0  0  0  0  0  0
  -30.0060  -12.0280   20.3610 C   0  0  0  0  0  2  0  0  0  0  0  0
  -31.2820  -11.8660   19.6350 N   0  0  0  0  0  0  0  0  0  0  0  0
  -33.1390  -12.7300   18.6210 O   0  0  0  0  0  0  0  0  0  0  0  0
  -31.9810  -13.9790   20.0760 N   0  0  0  0  0  0  0  0  0  0  0  0
  -31.2020  -13.9950   20.7180 H   0  0  0  0  0  0  0  0  0  0  0  0
  -26.9160  -13.4970   20.3560 C   0  0  0  0  0  0  0  0  0  0  0  0
  -25.7030  -13.1060   20.8550 C   0  0  0  0  0  0  0  0  0  0  0  0
  -25.6700  -11.6820   20.7370 C   0  0  0  0  0  0  0  0  0  0  0  0
  -27.5660  -12.3330   19.9730 N   0  0  0  0  0  0  0  0  0  0  0  0
  -26.8230  -11.2320   20.2580 N   0  0  0  0  0  0  0  0  0  0  0  0
  -24.5870  -10.7270   21.0030 C   0  0  0  0  0  0  0  0  0  0  0  0
  -24.7930   -9.5850   21.8080 C   0  0  0  0  0  3  0  0  0  0  0  0
  -23.7320   -8.6900   22.0650 C   0  0  0  0  0  3  0  0  0  0  0  0
  -22.4510   -8.9310   21.5170 C   0  0  0  0  0  0  0  0  0  0  0  0
  -22.2570  -10.0570   20.6960 C   0  0  0  0  0  3  0  0  0  0  0  0
  -23.3140  -10.9450   20.4390 C   0  0  0  0  0  3  0  0  0  0  0  0
  -21.3690   -8.1020   21.6890 O   0  0  0  0  0  0  0  0  0  0  0  0
  -21.2760   -7.2540   22.7610 C   0  0  0  0  0  0  0  0  0  0  0  0
  -21.2910   -7.7310   24.0910 C   0  0  0  0  0  3  0  0  0  0  0  0
  -21.1210   -6.8340   25.1630 C   0  0  0  0  0  3  0  0  0  0  0  0
  -20.9300   -5.4620   24.9110 C   0  0  0  0  0  0  0  0  0  0  0  0
  -20.9100   -4.9850   23.5880 C   0  0  0  0  0  3  0  0  0  0  0  0
  -21.0810   -5.8800   22.5180 C   0  0  0  0  0  0  0  0  0  0  0  0
  -21.0400   -5.4190   21.2430 F   0  0  0  0  0  0  0  0  0  0  0  0
  -20.7610   -4.6000   25.9410 F   0  0  0  0  0  0  0  0  0  0  0  0
  -24.5960  -14.0040   21.3240 C   0  0  0  0  0  0  0  0  0  0  0  0
  -23.8070  -13.5530   22.2930 N   0  0  0  0  0  0  0  0  0  0  0  0
  -24.4550  -15.1380   20.8670 O   0  0  0  0  0  0  0  0  0  0  0  0
  -23.9300  -12.6330   22.6870 H   0  0  0  0  0  0  0  0  0  0  0  0
  -23.0700  -14.1440   22.6470 H   0  0  0  0  0  0  0  0  0  0  0  0
  -27.5070  -14.7440   20.1770 N   0  0  0  0  0  0  0  0  0  0  0  0
  -26.9990  -15.5990   20.3660 H   0  0  0  0  0  0  0  0  0  0  0  0
  -28.3800  -14.8940   19.6910 H   0  0  0  0  0  0  0  0  0  0  0  0
  1  2  1  0
  2  5  1  0
  2  4  1  0
  3  1  2  0
  5  6  1  0
  6  7  1  0
  8  7  1  0
  9 20  2  0
 10  8  1  0
 10 15  1  0
 11 19  1  0
 11 21  1  0
 12 14  1  0
 13 19  1  0
 14 15  2  0
 14 13  1  0
 16 10  2  0
 17 16  1  0
 17 12  2  0
 18 12  1  0
 18 11  1  0
 19  9  1  0
 21 23  2  0
 22 21  1  0
 24 22  1  0
 25 34  2  0
 25 30  1  0
 26 22  1  0
 26 30  1  0
 27 26  1  0
 28 29  1  0
 28 27  1  0
 29 25  1  0
 30 31  2  0
 31 32  1  0
 33 32  2  0
 34 33  1  0
 35  9  1  0
 35 36  1  0
 35 45  1  0
 36 39  1  0
 37 41  1  0
 37 36  1  0
 38 37  2  0
 41 40  1  0
 43 41  1  0
 43 44  1  0
 43 42  1  0
 45 48  1  1
 45 46  1  0
 47 45  1  0
 49  1  1  0
 49 50  1  0
 50 51  1  0
 51 52  1  0
 52 53  1  0
 54 53  1  0
 54 55  1  0
 56 57  1  0
 56 55  1  0
 58 67  1  0
 58 57  1  0
 59 65  1  0
 59 67  1  0
 60 65  1  0
 61 62  1  0
 61 60  1  0
 63 62  1  0
 63 72  1  0
 63 64  1  0
 65 64  1  0
 66 59  2  0
 67 68  1  0
 69 70  2  0
 70 89  1  0
 71 70  1  0
 71 74  1  0
 72 73  1  0
 72 69  1  0
 73 71  2  0
 74 75  1  0
 75 76  2  0
 77 80  1  0
 77 76  1  0
 78 77  2  0
 79 78  1  0
 79 74  2  0
 80 81  1  0
 81 82  1  0
 82 83  2  0
 84 83  1  0
 84 88  1  0
 85 84  2  0
 86 81  2  0
 86 85  1  0
 87 86  1  0
 89 90  1  0
 90 93  1  0
 90 92  1  0
 91 89  2  0
 94 69  1  0
 94 95  1  0
 96 94  1  0
M  ISO  4   7 101   8 101  59 100  67 100
M  END
>  <TORSDO>  (10) 
F 29

>  <SCORE>  (10) 
-8.101

>  <name>  (10) 
9

>  <ligand_id>  (10) 
9

>  <original_smiles>  (10) 
[H]c1c([H])c([H])c2c(c1[H])C([H])([H])C([H])([H])C([H])([H])C2([H])N([H])C(=O)C1([H])N(C(=O)C([H])(N([H])C(=O)C([H])(N([H])C([H])([H])[H])C([H])([H])[H])C(C([H])([H])[H])(C([H])([H])[H])C([H])([H])[H])C([H])([H])c2c([H])c(OC([H])([H])C([H])([H])C([H])([H])N([H])C(=O)C([H])([H])OC([H])([H])C([H])([H])OC([H])([H])C([H])([H])OC([H])([H])C([H])([H])N([H])C(=O)N3C([H])([H])C([H])([H])C([H])([H])C([H])(n4nc(-c5c([H])c([H])c(Oc6c([H])c([H])c(F)c([H])c6F)c([H])c5[H])c(C(=O)N([H])[H])c4N([H])[H])C3([H])[H])c([H])c([H])c2C1([H])[H]

>  <smiles>  (10) 
[H]c1c([H])c([H])c2c(c1[H])C([H])([H])C([H])([H])C([H])([H])C2([H])N([H])C(=O)C1([H])N(C(=O)C([H])(N([H])C(=O)C([H])(N([H])C([H])([H])[H])C([H])([H])[H])C(C([H])([H])[H])(C([H])([H])[H])C([H])([H])[H])C([H])([H])c2c([H])c(OC([H])([H])C([H])([H])C([H])([H])N([H])C(=O)C([H])([H])OC([H])([H])C([H])([H])OC([H])([H])C([H])([H])OC([H])([H])C([H])([H])N([H])C(=O)N3C([H])([H])C([H])([H])C([H])([H])C([H])(n4nc(-c5c([H])c([H])c(Oc6c([H])c([H])c(F)c([H])c6F)c([H])c5[H])c(C(=O)N([H])[H])c4N([H])[H])C3([H])[H])c([H])c([H])c2C1([H])[H]

$$$$
10:0:0
     RDKit          3D

 93100  0  0  1  0  0  0  0  0999 V2000
  -25.1720  -23.3380   22.0120 O   0  0  0  0  0  0  0  0  0  0  0  0
  -26.2330  -22.5500   22.5490 C   0  0  0  0  0  2  0  0  0  0  0  0
  -27.1620  -22.1360   21.4030 C   0  0  0  0  0  2  0  0  0  0  0  0
  -27.8580  -23.2870   20.9350 O   0  0  0  0  0  0  0  0  0  0  0  0
  -28.6680  -23.0240   19.7970 C   0  0  0  0  0  2  0  0  0  0  0  0
  -29.5750  -24.2400   19.5130 C   0  0  0  0  0  2  0  0  0  0  0  0
  -30.8040  -24.2090   20.2400 O   0  0  0  0  0  0  0  0  0  0  0  0
  -31.4300  -22.9330   20.2120 C   0  0  0  0  0  2  0  0  0  0  0  0
  -32.7020  -22.9100   21.0740 C   0  0  0  0  0  2  0  0  0  0  0  0
  -33.9700  -20.7620   21.0540 C   0  0  0  0  0  0  0  0  0  0  0  0
  -34.6360  -18.4370   20.5590 C   0  0  0  0  0  2  0  0  0  0  0  0
  -34.2500  -18.0470   19.1180 C   0  0  0  0  0  2  0  0  0  0  0  0
  -32.7880  -17.5610   19.0440 C   0  0  0  0  0  2  0  0  0  0  0  0
  -31.8040  -18.5330   19.7430 C   0  0  0  0  0  3  0  0  0  0  0  0
  -32.3180  -18.8710   21.1600 C   0  0  0  0  0  2  0  0  0  0  0  0
  -33.6770  -19.4380   21.0480 N   0  0  0  0  0  0  0  0  0  0  0  0
  -35.0520  -21.2340   20.6970 O   0  0  0  0  0  0  0  0  0  0  0  0
  -32.9600  -21.5300   21.4660 N   0  0  0  0  0  0  0  0  0  0  0  0
  -32.1740  -21.0280   21.8550 H   0  0  0  0  0  0  0  0  0  0  0  0
  -29.2290  -18.6350   19.6990 C   0  0  0  0  0  0  0  0  0  0  0  0
  -28.2770  -17.6520   19.7250 C   0  0  0  0  0  0  0  0  0  0  0  0
  -28.9880  -16.4160   19.8140 C   0  0  0  0  0  0  0  0  0  0  0  0
  -30.4510  -17.9850   19.7830 N   0  0  0  0  0  0  0  0  0  0  0  0
  -30.2910  -16.6430   19.9070 N   0  0  0  0  0  0  0  0  0  0  0  0
  -28.5070  -15.0300   19.7650 C   0  0  0  0  0  0  0  0  0  0  0  0
  -28.7270  -14.1350   20.8330 C   0  0  0  0  0  3  0  0  0  0  0  0
  -28.2440  -12.8100   20.7690 C   0  0  0  0  0  3  0  0  0  0  0  0
  -27.5260  -12.3710   19.6300 C   0  0  0  0  0  0  0  0  0  0  0  0
  -27.3310  -13.2600   18.5580 C   0  0  0  0  0  3  0  0  0  0  0  0
  -27.8180  -14.5750   18.6210 C   0  0  0  0  0  3  0  0  0  0  0  0
  -27.0370  -11.0970   19.4710 O   0  0  0  0  0  0  0  0  0  0  0  0
  -26.5820  -10.3630   20.5370 C   0  0  0  0  0  0  0  0  0  0  0  0
  -25.5340  -10.8190   21.3660 C   0  0  0  0  0  3  0  0  0  0  0  0
  -25.0500   -9.9980   22.4040 C   0  0  0  0  0  3  0  0  0  0  0  0
  -25.6010   -8.7200   22.6100 C   0  0  0  0  0  0  0  0  0  0  0  0
  -26.6430   -8.2630   21.7820 C   0  0  0  0  0  3  0  0  0  0  0  0
  -27.1270   -9.0800   20.7470 C   0  0  0  0  0  0  0  0  0  0  0  0
  -28.1140   -8.6240   19.9380 F   0  0  0  0  0  0  0  0  0  0  0  0
  -25.1330   -7.9280   23.6030 F   0  0  0  0  0  0  0  0  0  0  0  0
  -26.7940  -17.8330   19.5780 C   0  0  0  0  0  0  0  0  0  0  0  0
  -26.0020  -16.9500   20.1780 N   0  0  0  0  0  0  0  0  0  0  0  0
  -26.3260  -18.7950   18.9700 O   0  0  0  0  0  0  0  0  0  0  0  0
  -26.3800  -16.1720   20.6990 H   0  0  0  0  0  0  0  0  0  0  0  0
  -24.9990  -17.0520   20.1100 H   0  0  0  0  0  0  0  0  0  0  0  0
  -29.1610  -20.0220   19.5910 N   0  0  0  0  0  0  0  0  0  0  0  0
  -28.2780  -20.4970   19.4340 H   0  0  0  0  0  0  0  0  0  0  0  0
  -29.9640  -20.6210   19.4610 H   0  0  0  0  0  0  0  0  0  0  0  0
  -24.9040  -24.5320   22.7430 C   0  0  0  0  0  2  0  0  0  0  0  0
  -26.0460  -25.5490   22.5820 C   0  0  0  0  0  2  0  0  0  0  0  0
  -26.3250  -25.7290   21.1990 O   0  0  0  0  0  0  0  0  0  0  0  0
  -27.7110  -25.8930   20.9330 C   0  0  0  0  0  2  0  0  0  0  0  0
  -27.9270  -26.4910   19.5320 C   0  0  0  0  0  2  0  0  0  0  0  0
  -27.9490  -27.9210   19.5800 O   0  0  0  0  0  0  0  0  0  0  0  0
  -24.5820  -32.4860   23.8510 C   0  0  0  0  0  0  0  0  0  0  0  0
  -26.7770  -28.6050   19.8200 C   0  0  0  0  0  0  0  0  0  0  0  0
  -23.1840  -31.4170   22.1130 C   0  0  0  0  0  3  0  0  0  0  0  0
  -24.4440  -30.1210   20.3180 C   0  0  0  0  0  0  0  0  0  0  0  0
  -25.6910  -31.7550   21.7440 C   0  0  0  0  0  2  0  0  0  0  0  0
  -25.6680  -30.5160   20.8720 C   0  0  0  0  0  0  0  0  0  0  0  0
  -26.8360  -29.7680   20.6170 C   0  0  0  0  0  3  0  0  0  0  0  0
  -25.5330  -28.2160   19.2720 C   0  0  0  0  0  3  0  0  0  0  0  0
  -24.3700  -28.9690   19.5180 C   0  0  0  0  0  3  0  0  0  0  0  0
  -23.2430  -30.9840   20.6240 C   0  0  0  0  0  2  0  0  0  0  0  0
  -24.5100  -31.8890   22.6270 N   0  0  0  0  0  0  0  0  0  0  0  0
  -23.5650  -32.6820   24.5290 O   0  0  0  0  0  0  0  0  0  0  0  0
  -22.5850  -30.2560   22.9400 C   0  0  0  0  0  0  0  0  0  0  0  0
  -21.2770  -30.0070   22.7620 N   0  0  0  0  0  0  0  0  0  0  0  0
  -23.2940  -29.5870   23.6960 O   0  0  0  0  0  0  0  0  0  0  0  0
  -20.7650  -30.6070   22.1320 H   0  0  0  0  0  0  0  0  0  0  0  0
  -18.0310  -28.4260   22.8830 C   0  0  0  0  0  0  0  0  0  0  0  0
  -20.5100  -28.9410   23.4050 C   0  0  0  0  0  3  0  0  0  0  0  0
  -20.8240  -27.5670   22.7700 C   0  0  0  0  0  2  0  0  0  0  0  0
  -19.8570  -27.1890   21.6430 C   0  0  0  0  0  2  0  0  0  0  0  0
  -18.4170  -27.1460   22.1610 C   0  0  0  0  0  2  0  0  0  0  0  0
  -19.0150  -29.2770   23.4520 C   0  0  0  0  0  0  0  0  0  0  0  0
  -18.6040  -30.4740   24.0810 C   0  0  0  0  0  3  0  0  0  0  0  0
  -17.2410  -30.8200   24.1480 C   0  0  0  0  0  3  0  0  0  0  0  0
  -16.2710  -29.9670   23.5960 C   0  0  0  0  0  3  0  0  0  0  0  0
  -16.6660  -28.7710   22.9690 C   0  0  0  0  0  3  0  0  0  0  0  0
  -25.9420  -32.9700   24.4450 C   0  0  0  0  0  3  0  0  0  0  0  0
  -26.4700  -32.0580   25.6190 C   0  0  1  0  0  0  0  0  0  0  0  0
  -25.4150  -31.7830   26.7150 C   0  0  0  0  0  1  0  0  0  0  0  0
  -26.9540  -30.6940   25.0750 C   0  0  0  0  0  1  0  0  0  0  0  0
  -27.6960  -32.7260   26.2880 C   0  0  0  0  0  1  0  0  0  0  0  0
  -25.7540  -34.3520   24.9040 N   0  0  0  0  0  0  0  0  0  0  0  0
  -26.1440  -35.4400   24.2250 C   0  0  0  0  0  0  0  0  0  0  0  0
  -26.7700  -35.3760   23.1640 O   0  0  0  0  0  0  0  0  0  0  0  0
  -25.2020  -34.4810   25.7390 H   0  0  0  0  0  0  0  0  0  0  0  0
  -24.5540  -37.3820   24.0820 C   0  0  0  0  0  1  0  0  0  0  0  0
  -25.7800  -36.8150   24.8160 C   0  0  0  0  0  3  0  0  0  0  0  0
  -27.9990  -37.4550   25.6470 C   0  0  0  0  0  1  0  0  0  0  0  0
  -26.8890  -37.7920   24.7600 N   0  0  0  0  0  0  0  0  0  0  0  0
  -26.5620  -38.7240   25.0000 H   0  0  0  0  0  0  0  0  0  0  0  0
  1  2  1  0
  1 48  1  0
  3  2  1  0
  4  3  1  0
  5  4  1  0
  6  5  1  0
  6  7  1  0
  8  7  1  0
  8  9  1  0
  9 18  1  0
 10 18  1  0
 11 16  1  0
 12 11  1  0
 13 12  1  0
 14 13  1  0
 14 23  1  0
 14 15  1  0
 16 10  1  0
 16 15  1  0
 17 10  2  0
 18 19  1  0
 20 21  2  0
 20 23  1  0
 21 22  1  0
 22 24  2  0
 23 24  1  0
 25 22  1  0
 25 26  1  0
 27 26  2  0
 28 27  1  0
 29 30  1  0
 29 28  2  0
 30 25  2  0
 31 28  1  0
 31 32  1  0
 32 37  2  0
 32 33  1  0
 33 34  2  0
 34 35  1  0
 35 39  1  0
 36 35  2  0
 37 36  1  0
 38 37  1  0
 40 21  1  0
 40 41  1  0
 41 43  1  0
 42 40  2  0
 44 41  1  0
 45 20  1  0
 46 45  1  0
 47 45  1  0
 49 48  1  0
 50 49  1  0
 51 50  1  0
 52 53  1  0
 52 51  1  0
 53 55  1  0
 54 65  2  0
 55 60  1  0
 56 64  1  0
 56 66  1  0
 57 63  1  0
 57 59  1  0
 58 64  1  0
 59 58  1  0
 60 59  2  0
 61 62  1  0
 61 55  2  0
 62 57  2  0
 63 56  1  0
 64 54  1  0
 66 68  2  0
 67 66  1  0
 69 67  1  0
 70 79  2  0
 70 75  1  0
 71 67  1  0
 71 75  1  0
 72 71  1  0
 73 74  1  0
 73 72  1  0
 74 70  1  0
 75 76  2  0
 76 77  1  0
 78 77  2  0
 79 78  1  0
 80 54  1  0
 80 85  1  0
 80 81  1  0
 81 84  1  1
 81 82  1  0
 83 81  1  0
 85 88  1  0
 86 90  1  0
 86 85  1  0
 87 86  2  0
 90 89  1  0
 92 90  1  0
 92 93  1  0
 92 91  1  0
M  ISO  4  10 100  18 100  52 101  53 101
M  END
>  <TORSDO>  (11) 
F 29

>  <SCORE>  (11) 
-2.990

>  <name>  (11) 
10

>  <ligand_id>  (11) 
10

>  <original_smiles>  (11) 
[H]c1c([H])c([H])c2c(c1[H])C([H])([H])C([H])([H])C([H])([H])C2([H])N([H])C(=O)C1([H])N(C(=O)C([H])(N([H])C(=O)C([H])(N([H])C([H])([H])[H])C([H])([H])[H])C(C([H])([H])[H])(C([H])([H])[H])C([H])([H])[H])C([H])([H])c2c([H])c(OC([H])([H])C([H])([H])OC([H])([H])C([H])([H])OC([H])([H])C([H])([H])OC([H])([H])C([H])([H])OC([H])([H])C([H])([H])N([H])C(=O)N3C([H])([H])C([H])([H])C([H])([H])C([H])(n4nc(-c5c([H])c([H])c(Oc6c([H])c([H])c(F)c([H])c6F)c([H])c5[H])c(C(=O)N([H])[H])c4N([H])[H])C3([H])[H])c([H])c([H])c2C1([H])[H]

>  <smiles>  (11) 
[H]c1c([H])c([H])c2c(c1[H])C([H])([H])C([H])([H])C([H])([H])C2([H])N([H])C(=O)C1([H])N(C(=O)C([H])(N([H])C(=O)C([H])(N([H])C([H])([H])[H])C([H])([H])[H])C(C([H])([H])[H])(C([H])([H])[H])C([H])([H])[H])C([H])([H])c2c([H])c(OC([H])([H])C([H])([H])OC([H])([H])C([H])([H])OC([H])([H])C([H])([H])OC([H])([H])C([H])([H])OC([H])([H])C([H])([H])N([H])C(=O)N3C([H])([H])C([H])([H])C([H])([H])C([H])(n4nc(-c5c([H])c([H])c(Oc6c([H])c([H])c(F)c([H])c6F)c([H])c5[H])c(C(=O)N([H])[H])c4N([H])[H])C3([H])[H])c([H])c([H])c2C1([H])[H]

$$$$
11:0:0
     RDKit          3D

 95103  0  0  1  0  0  0  0  0999 V2000
  -26.7320  -20.9400   19.2580 N   0  0  0  0  0  4  0  0  0  0  0  0
  -27.3440  -21.3890   19.9220 H   0  0  0  0  0  0  0  0  0  0  0  0
  -26.0720  -20.4040   19.8020 H   0  0  0  0  0  0  0  0  0  0  0  0
  -27.4960  -19.9900   18.4250 C   0  0  0  0  0  2  0  0  0  0  0  0
  -28.8400  -20.5500   17.8830 C   0  0  0  0  0  2  0  0  0  0  0  0
  -29.2740  -19.7700   16.6360 C   0  0  0  0  0  2  0  0  0  0  0  0
  -30.7690  -19.3670   16.5170 C   0  0  0  0  0  2  0  0  0  0  0  0
  -31.4690  -19.4120   15.2460 O   0  0  0  0  0  0  0  0  0  0  0  0
  -32.0700  -23.7820    9.6560 C   0  0  0  0  0  0  0  0  0  0  0  0
  -30.8980  -19.8370   14.0590 C   0  0  0  0  0  0  0  0  0  0  0  0
  -29.8810  -22.6620    9.9150 C   0  0  0  0  0  3  0  0  0  0  0  0
  -29.8070  -20.7700   11.6130 C   0  0  0  0  0  0  0  0  0  0  0  0
  -32.0240  -21.5730   10.8050 C   0  0  0  0  0  2  0  0  0  0  0  0
  -31.1740  -20.9210   11.8730 C   0  0  0  0  0  0  0  0  0  0  0  0
  -31.7200  -20.4690   13.0970 C   0  0  0  0  0  3  0  0  0  0  0  0
  -29.5450  -19.6120   13.7180 C   0  0  0  0  0  3  0  0  0  0  0  0
  -28.9840  -20.1220   12.5410 C   0  0  0  0  0  3  0  0  0  0  0  0
  -29.2820  -21.2870   10.2980 C   0  0  0  0  0  2  0  0  0  0  0  0
  -31.3620  -22.7200   10.1350 N   0  0  0  0  0  0  0  0  0  0  0  0
  -31.5130  -24.6830    9.0150 O   0  0  0  0  0  0  0  0  0  0  0  0
  -29.1060  -23.7640   10.6730 C   0  0  0  0  0  0  0  0  0  0  0  0
  -27.9810  -24.2120   10.0960 N   0  0  0  0  0  0  0  0  0  0  0  0
  -29.5010  -24.1760   11.7680 O   0  0  0  0  0  0  0  0  0  0  0  0
  -27.7320  -23.8490    9.1860 H   0  0  0  0  0  0  0  0  0  0  0  0
  -25.0470  -26.1790    9.3810 C   0  0  0  0  0  0  0  0  0  0  0  0
  -27.0790  -25.2210   10.6490 C   0  0  0  0  0  3  0  0  0  0  0  0
  -26.0580  -24.5790   11.6150 C   0  0  0  0  0  2  0  0  0  0  0  0
  -24.7430  -24.1950   10.9290 C   0  0  0  0  0  2  0  0  0  0  0  0
  -24.0910  -25.4260   10.2900 C   0  0  0  0  0  2  0  0  0  0  0  0
  -26.4520  -26.0720    9.5430 C   0  0  0  0  0  0  0  0  0  0  0  0
  -27.3010  -26.7620    8.6530 C   0  0  0  0  0  3  0  0  0  0  0  0
  -26.7680  -27.5530    7.6190 C   0  0  0  0  0  3  0  0  0  0  0  0
  -25.3760  -27.6690    7.4700 C   0  0  0  0  0  3  0  0  0  0  0  0
  -24.5190  -26.9850    8.3520 C   0  0  0  0  0  3  0  0  0  0  0  0
  -33.6090  -23.9030    9.8720 C   0  0  0  0  0  3  0  0  0  0  0  0
  -34.1940  -24.3600    8.6040 N   0  0  0  0  0  0  0  0  0  0  0  0
  -34.8090  -23.5640    7.7210 C   0  0  0  0  0  0  0  0  0  0  0  0
  -35.0050  -22.3630    7.9230 O   0  0  0  0  0  0  0  0  0  0  0  0
  -34.0210  -25.3190    8.3480 H   0  0  0  0  0  0  0  0  0  0  0  0
  -34.2900  -23.8510    5.2720 C   0  0  0  0  0  1  0  0  0  0  0  0
  -35.2750  -24.2020    6.3990 C   0  0  0  0  0  3  0  0  0  0  0  0
  -37.6800  -24.3440    6.8710 C   0  0  0  0  0  1  0  0  0  0  0  0
  -36.6410  -23.8030    6.0010 N   0  0  0  0  0  0  0  0  0  0  0  0
  -36.8390  -24.0960    5.0480 H   0  0  0  0  0  0  0  0  0  0  0  0
  -33.9990  -24.8760   11.0520 C   0  0  1  0  0  0  0  0  0  0  0  0
  -33.3450  -26.2720   10.9500 C   0  0  0  0  0  1  0  0  0  0  0  0
  -33.6000  -24.2680   12.4160 C   0  0  0  0  0  1  0  0  0  0  0  0
  -35.5330  -25.0810   11.0840 C   0  0  0  0  0  1  0  0  0  0  0  0
  -25.9560  -21.9730   18.5220 C   0  0  0  0  0  2  0  0  0  0  0  0
  -24.7920  -22.5070   19.3750 C   0  0  0  0  0  2  0  0  0  0  0  0
  -25.2530  -23.6520   20.0930 O   0  0  0  0  0  0  0  0  0  0  0  0
  -24.2010  -26.6900   18.1600 C   0  0  0  0  0  3  0  0  0  0  0  0
  -24.3660  -27.6650   19.1610 C   0  0  0  0  0  3  0  0  0  0  0  0
  -24.4920  -25.3350   18.4180 C   0  0  0  0  0  3  0  0  0  0  0  0
  -25.1520  -25.9270   20.6780 C   0  0  0  0  0  3  0  0  0  0  0  0
  -24.8330  -27.2760   20.4340 C   0  0  0  0  0  0  0  0  0  0  0  0
  -24.9690  -24.9390   19.6930 C   0  0  0  0  0  0  0  0  0  0  0  0
  -24.7420  -29.4670   21.6710 C   0  0  0  0  0  0  0  0  0  0  0  0
  -22.9780  -30.5800   22.9510 C   0  0  0  0  0  2  0  0  0  0  0  0
  -22.5590  -29.6530   24.1110 C   0  0  0  0  0  2  0  0  0  0  0  0
  -21.4560  -28.6780   23.6550 C   0  0  0  0  0  2  0  0  0  0  0  0
  -21.7850  -27.9750   22.3090 C   0  0  0  0  0  3  0  0  0  0  0  0
  -22.2740  -29.0000   21.2620 C   0  0  0  0  0  2  0  0  0  0  0  0
  -23.4170  -29.7190   21.8410 N   0  0  0  0  0  0  0  0  0  0  0  0
  -25.6250  -30.2360   22.0510 O   0  0  0  0  0  0  0  0  0  0  0  0
  -25.1210  -28.1980   21.4660 N   0  0  0  0  0  0  0  0  0  0  0  0
  -26.0160  -28.0180   21.8980 H   0  0  0  0  0  0  0  0  0  0  0  0
  -20.5530  -26.3850   20.7030 C   0  0  0  0  0  0  0  0  0  0  0  0
  -19.3060  -25.8280   20.7450 C   0  0  0  0  0  0  0  0  0  0  0  0
  -18.6890  -26.3340   21.9300 C   0  0  0  0  0  0  0  0  0  0  0  0
  -20.6480  -27.1970   21.8230 N   0  0  0  0  0  0  0  0  0  0  0  0
  -19.4940  -27.1950   22.5390 N   0  0  0  0  0  0  0  0  0  0  0  0
  -17.4040  -25.9960   22.5530 C   0  0  0  0  0  0  0  0  0  0  0  0
  -16.5320  -26.9960   23.0330 C   0  0  0  0  0  3  0  0  0  0  0  0
  -15.2920  -26.6480   23.6110 C   0  0  0  0  0  3  0  0  0  0  0  0
  -14.9130  -25.2870   23.7110 C   0  0  0  0  0  0  0  0  0  0  0  0
  -15.7970  -24.2940   23.2530 C   0  0  0  0  0  3  0  0  0  0  0  0
  -17.0320  -24.6420   22.6830 C   0  0  0  0  0  3  0  0  0  0  0  0
  -13.7400  -24.8540   24.2820 O   0  0  0  0  0  0  0  0  0  0  0  0
  -12.6230  -25.6480   24.3170 C   0  0  0  0  0  0  0  0  0  0  0  0
  -11.9930  -26.1040   23.1370 C   0  0  0  0  0  3  0  0  0  0  0  0
  -10.8060  -26.8600   23.2170 C   0  0  0  0  0  3  0  0  0  0  0  0
  -10.2420  -27.1530   24.4730 C   0  0  0  0  0  0  0  0  0  0  0  0
  -10.8630  -26.6970   25.6490 C   0  0  0  0  0  3  0  0  0  0  0  0
  -12.0510  -25.9460   25.5700 C   0  0  0  0  0  0  0  0  0  0  0  0
  -12.6340  -25.4910   26.7050 F   0  0  0  0  0  0  0  0  0  0  0  0
   -9.0970  -27.8720   24.5510 F   0  0  0  0  0  0  0  0  0  0  0  0
  -18.7500  -24.8120   19.7900 C   0  0  0  0  0  0  0  0  0  0  0  0
  -17.4520  -24.8790   19.5080 N   0  0  0  0  0  0  0  0  0  0  0  0
  -19.4760  -23.9820   19.2430 O   0  0  0  0  0  0  0  0  0  0  0  0
  -16.8600  -25.5730   19.9390 H   0  0  0  0  0  0  0  0  0  0  0  0
  -17.0470  -24.2220   18.8580 H   0  0  0  0  0  0  0  0  0  0  0  0
  -21.6180  -26.2480   19.8190 N   0  0  0  0  0  0  0  0  0  0  0  0
  -21.5700  -25.6370   19.0140 H   0  0  0  0  0  0  0  0  0  0  0  0
  -22.4960  -26.7470   19.8910 H   0  0  0  0  0  0  0  0  0  0  0  0
  1  3  1  0
  1  2  1  0
  4  1  1  0
  5  4  1  0
  6  5  1  0
  7  6  1  0
  8  7  1  0
  9 19  1  0
 10  8  1  0
 11 19  1  0
 11 18  1  0
 11 21  1  0
 12 14  2  0
 12 17  1  0
 13 14  1  0
 14 15  1  0
 15 10  2  0
 16 10  1  0
 17 16  2  0
 18 12  1  0
 19 13  1  0
 20  9  2  0
 21 23  2  0
 22 21  1  0
 24 22  1  0
 25 30  1  0
 25 29  1  0
 26 22  1  0
 26 27  1  0
 28 27  1  0
 29 28  1  0
 30 26  1  0
 31 30  2  0
 32 31  1  0
 33 32  2  0
 33 34  1  0
 34 25  2  0
 35  9  1  0
 35 45  1  0
 36 35  1  0
 37 38  2  0
 37 36  1  0
 39 36  1  0
 41 40  1  0
 41 37  1  0
 43 41  1  0
 43 42  1  0
 44 43  1  0
 45 48  1  1
 45 47  1  0
 46 45  1  0
 49  1  1  0
 49 50  1  0
 50 51  1  0
 52 54  2  0
 52 53  1  0
 53 56  2  0
 54 57  1  0
 56 55  1  0
 56 66  1  0
 57 51  1  0
 57 55  2  0
 58 64  1  0
 58 65  2  0
 59 60  1  0
 61 60  1  0
 62 63  1  0
 62 61  1  0
 63 64  1  0
 64 59  1  0
 66 58  1  0
 66 67  1  0
 68 69  2  0
 68 71  1  0
 69 70  1  0
 70 72  2  0
 70 73  1  0
 71 62  1  0
 71 72  1  0
 73 78  2  0
 73 74  1  0
 74 75  2  0
 75 76  1  0
 76 79  1  0
 77 76  2  0
 78 77  1  0
 79 80  1  0
 80 85  1  0
 81 82  1  0
 81 80  2  0
 82 83  2  0
 83 87  1  0
 83 84  1  0
 85 84  2  0
 85 86  1  0
 88 69  1  0
 89 88  1  0
 89 91  1  0
 90 88  2  0
 92 89  1  0
 93 95  1  0
 93 68  1  0
 94 93  1  0
M  ISO  4   7 101   8 101  58 100  66 100
M  END
>  <TORSDO>  (12) 
F 24

>  <SCORE>  (12) 
-4.344

>  <name>  (12) 
11

>  <ligand_id>  (12) 
11

>  <original_smiles>  (12) 
[H]c1c([H])c(OC([H])([H])C([H])([H])[N+]([H])([H])C([H])([H])C([H])([H])C([H])([H])C([H])([H])Oc2c([H])c([H])c3c(c2[H])C([H])([H])N(C(=O)C([H])(N([H])C(=O)C([H])(N([H])C([H])([H])[H])C([H])([H])[H])C(C([H])([H])[H])(C([H])([H])[H])C([H])([H])[H])C([H])(C(=O)N([H])C2([H])c4c([H])c([H])c([H])c([H])c4C([H])([H])C([H])([H])C2([H])[H])C3([H])[H])c([H])c(N([H])C(=O)N2C([H])([H])C([H])([H])C([H])([H])C([H])(n3nc(-c4c([H])c([H])c(Oc5c([H])c([H])c(F)c([H])c5F)c([H])c4[H])c(C(=O)N([H])[H])c3N([H])[H])C2([H])[H])c1[H]

>  <smiles>  (12) 
[H]c1c([H])c(OC([H])([H])C([H])([H])[N+]([H])([H])C([H])([H])C([H])([H])C([H])([H])C([H])([H])Oc2c([H])c([H])c3c(c2[H])C([H])([H])N(C(=O)C([H])(N([H])C(=O)C([H])(N([H])C([H])([H])[H])C([H])([H])[H])C(C([H])([H])[H])(C([H])([H])[H])C([H])([H])[H])C([H])(C(=O)N([H])C2([H])c4c([H])c([H])c([H])c([H])c4C([H])([H])C([H])([H])C2([H])[H])C3([H])[H])c([H])c(N([H])C(=O)N2C([H])([H])C([H])([H])C([H])([H])C([H])(n3nc(-c4c([H])c([H])c(Oc5c([H])c([H])c(F)c([H])c5F)c([H])c4[H])c(C(=O)N([H])[H])c3N([H])[H])C2([H])[H])c1[H]

$$$$
12:0:0
     RDKit          3D

 87 94  0  0  1  0  0  0  0  0999 V2000
  -29.1130  -22.7980   20.1480 O   0  0  0  0  0  0  0  0  0  0  0  0
  -29.2650  -24.1800   20.5710 C   0  0  0  0  0  2  0  0  0  0  0  0
  -28.1950  -25.1410   19.9510 C   0  0  0  0  0  2  0  0  0  0  0  0
  -28.3440  -26.5690   20.2300 O   0  0  0  0  0  0  0  0  0  0  0  0
  -24.6030  -31.8820   23.2540 C   0  0  0  0  0  0  0  0  0  0  0  0
  -27.2030  -27.3700   20.1730 C   0  0  0  0  0  0  0  0  0  0  0  0
  -23.3880  -30.4910   21.6140 C   0  0  0  0  0  3  0  0  0  0  0  0
  -24.8290  -28.9470   20.1790 C   0  0  0  0  0  0  0  0  0  0  0  0
  -25.9230  -30.8160   21.4190 C   0  0  0  0  0  2  0  0  0  0  0  0
  -25.9960  -29.4430   20.7740 C   0  0  0  0  0  0  0  0  0  0  0  0
  -27.1840  -28.6630   20.7670 C   0  0  0  0  0  3  0  0  0  0  0  0
  -26.0140  -26.9200   19.5460 C   0  0  0  0  0  3  0  0  0  0  0  0
  -24.8370  -27.6890   19.5590 C   0  0  0  0  0  3  0  0  0  0  0  0
  -23.5920  -29.8180   20.2320 C   0  0  0  0  0  2  0  0  0  0  0  0
  -24.6560  -31.0790   22.1530 N   0  0  0  0  0  0  0  0  0  0  0  0
  -23.5240  -32.1610   23.7950 O   0  0  0  0  0  0  0  0  0  0  0  0
  -22.7290  -29.4710   22.5730 C   0  0  0  0  0  0  0  0  0  0  0  0
  -21.4040  -29.2960   22.4460 N   0  0  0  0  0  0  0  0  0  0  0  0
  -23.4090  -28.8420   23.3890 O   0  0  0  0  0  0  0  0  0  0  0  0
  -20.9160  -29.8550   21.7610 H   0  0  0  0  0  0  0  0  0  0  0  0
  -18.0240  -28.1080   22.9390 C   0  0  0  0  0  0  0  0  0  0  0  0
  -20.5820  -28.3620   23.2170 C   0  0  0  0  0  3  0  0  0  0  0  0
  -20.6820  -26.9290   22.6440 C   0  0  0  0  0  2  0  0  0  0  0  0
  -19.5830  -26.6070   21.6270 C   0  0  0  0  0  2  0  0  0  0  0  0
  -18.2000  -26.7570   22.2670 C   0  0  0  0  0  2  0  0  0  0  0  0
  -19.1430  -28.8680   23.3700 C   0  0  0  0  0  0  0  0  0  0  0  0
  -18.9250  -30.1340   23.9590 C   0  0  0  0  0  3  0  0  0  0  0  0
  -17.6220  -30.6390   24.1180 C   0  0  0  0  0  3  0  0  0  0  0  0
  -16.5170  -29.8760   23.7040 C   0  0  0  0  0  3  0  0  0  0  0  0
  -16.7190  -28.6120   23.1200 C   0  0  0  0  0  3  0  0  0  0  0  0
  -25.8930  -32.5060   23.8720 C   0  0  0  0  0  3  0  0  0  0  0  0
  -26.4080  -31.7310   25.1470 C   0  0  1  0  0  0  0  0  0  0  0  0
  -25.3180  -31.5010   26.2190 C   0  0  0  0  0  1  0  0  0  0  0  0
  -26.9820  -30.3500   24.7520 C   0  0  0  0  0  1  0  0  0  0  0  0
  -27.5640  -32.5190   25.8080 C   0  0  0  0  0  1  0  0  0  0  0  0
  -25.5920  -33.9060   24.2030 N   0  0  0  0  0  0  0  0  0  0  0  0
  -25.9250  -34.9570   23.4410 C   0  0  0  0  0  0  0  0  0  0  0  0
  -26.5890  -34.8480   22.4060 O   0  0  0  0  0  0  0  0  0  0  0  0
  -25.0030  -34.0650   25.0080 H   0  0  0  0  0  0  0  0  0  0  0  0
  -24.2020  -36.7560   23.0930 C   0  0  0  0  0  1  0  0  0  0  0  0
  -25.4460  -36.3470   23.8980 C   0  0  0  0  0  3  0  0  0  0  0  0
  -27.5900  -37.2240   24.7140 C   0  0  0  0  0  1  0  0  0  0  0  0
  -26.4820  -37.3950   23.7780 N   0  0  0  0  0  0  0  0  0  0  0  0
  -26.0800  -38.3170   23.9270 H   0  0  0  0  0  0  0  0  0  0  0  0
  -29.8660  -21.8260   20.9130 C   0  0  0  0  0  2  0  0  0  0  0  0
  -29.9940  -20.3890   20.2800 C   0  0  0  0  0  2  0  0  0  0  0  0
  -29.6060  -19.3250   21.1790 O   0  0  0  0  0  0  0  0  0  0  0  0
  -30.3560  -18.0820   21.1900 C   0  0  0  0  0  2  0  0  0  0  0  0
  -29.9920  -17.0260   20.1000 C   0  0  0  0  0  2  0  0  0  0  0  0
  -30.6580  -14.5630   20.1340 C   0  0  0  0  0  0  0  0  0  0  0  0
  -30.3320  -12.3860   19.0110 C   0  0  0  0  0  2  0  0  0  0  0  0
  -29.3420  -12.5990   17.8440 C   0  0  0  0  0  2  0  0  0  0  0  0
  -27.8850  -12.4670   18.3310 C   0  0  0  0  0  2  0  0  0  0  0  0
  -27.6040  -13.2910   19.6150 C   0  0  0  0  0  3  0  0  0  0  0  0
  -28.7030  -13.0590   20.6790 C   0  0  0  0  0  2  0  0  0  0  0  0
  -30.0040  -13.3660   20.0610 N   0  0  0  0  0  0  0  0  0  0  0  0
  -31.7760  -14.7380   19.6440 O   0  0  0  0  0  0  0  0  0  0  0  0
  -29.9110  -15.6090   20.5580 N   0  0  0  0  0  0  0  0  0  0  0  0
  -29.0360  -15.3490   20.9880 H   0  0  0  0  0  0  0  0  0  0  0  0
  -25.2410  -13.9170   20.4180 C   0  0  0  0  0  0  0  0  0  0  0  0
  -24.1800  -13.1550   20.8240 C   0  0  0  0  0  0  0  0  0  0  0  0
  -24.6260  -11.7980   20.7700 C   0  0  0  0  0  0  0  0  0  0  0  0
  -26.2680  -13.0270   20.1440 N   0  0  0  0  0  0  0  0  0  0  0  0
  -25.9040  -11.7470   20.4140 N   0  0  0  0  0  0  0  0  0  0  0  0
  -23.8950  -10.5420   20.9820 C   0  0  0  0  0  0  0  0  0  0  0  0
  -24.3570   -9.5630   21.8880 C   0  0  0  0  0  3  0  0  0  0  0  0
  -23.6260   -8.3710   22.0880 C   0  0  0  0  0  3  0  0  0  0  0  0
  -22.4190   -8.1520   21.3830 C   0  0  0  0  0  0  0  0  0  0  0  0
  -21.9750   -9.1210   20.4660 C   0  0  0  0  0  3  0  0  0  0  0  0
  -22.7060  -10.3040   20.2640 C   0  0  0  0  0  3  0  0  0  0  0  0
  -21.6570   -7.0150   21.4950 O   0  0  0  0  0  0  0  0  0  0  0  0
  -21.6560   -6.2580   22.6390 C   0  0  0  0  0  0  0  0  0  0  0  0
  -21.3040   -6.8040   23.8930 C   0  0  0  0  0  3  0  0  0  0  0  0
  -21.2500   -5.9740   25.0310 C   0  0  0  0  0  3  0  0  0  0  0  0
  -21.5350   -4.6010   24.9170 C   0  0  0  0  0  0  0  0  0  0  0  0
  -21.8800   -4.0550   23.6680 C   0  0  0  0  0  3  0  0  0  0  0  0
  -21.9370   -4.8820   22.5310 C   0  0  0  0  0  0  0  0  0  0  0  0
  -22.2490   -4.3460   21.3260 F   0  0  0  0  0  0  0  0  0  0  0  0
  -21.4760   -3.8020   26.0080 F   0  0  0  0  0  0  0  0  0  0  0  0
  -22.7990  -13.6450   21.1510 C   0  0  0  0  0  0  0  0  0  0  0  0
  -22.0980  -12.9520   22.0420 N   0  0  0  0  0  0  0  0  0  0  0  0
  -22.3520  -14.6760   20.6520 O   0  0  0  0  0  0  0  0  0  0  0  0
  -22.4730  -12.1180   22.4680 H   0  0  0  0  0  0  0  0  0  0  0  0
  -21.1730  -13.2630   22.3040 H   0  0  0  0  0  0  0  0  0  0  0  0
  -25.4140  -15.2870   20.2390 N   0  0  0  0  0  0  0  0  0  0  0  0
  -24.6560  -15.9470   20.3780 H   0  0  0  0  0  0  0  0  0  0  0  0
  -26.2510  -15.7180   19.8670 H   0  0  0  0  0  0  0  0  0  0  0  0
  1  2  1  0
  1 45  1  0
  3  4  1  0
  3  2  1  0
  5 16  2  0
  6  4  1  0
  6 11  1  0
  7 15  1  0
  7 17  1  0
  8 14  1  0
  8 10  1  0
  9 15  1  0
 10  9  1  0
 11 10  2  0
 12 13  1  0
 12  6  2  0
 13  8  2  0
 14  7  1  0
 15  5  1  0
 17 19  2  0
 18 17  1  0
 20 18  1  0
 21 30  2  0
 21 26  1  0
 22 18  1  0
 22 26  1  0
 23 22  1  0
 24 25  1  0
 24 23  1  0
 25 21  1  0
 26 27  2  0
 27 28  1  0
 29 28  2  0
 30 29  1  0
 31  5  1  0
 31 36  1  0
 31 32  1  0
 32 35  1  1
 32 33  1  0
 34 32  1  0
 36 39  1  0
 37 41  1  0
 37 36  1  0
 38 37  2  0
 41 40  1  0
 43 41  1  0
 43 44  1  0
 43 42  1  0
 46 45  1  0
 46 47  1  0
 47 48  1  0
 49 58  1  0
 49 48  1  0
 50 58  1  0
 51 56  1  0
 52 53  1  0
 52 51  1  0
 54 53  1  0
 54 63  1  0
 54 55  1  0
 56 50  1  0
 56 55  1  0
 57 50  2  0
 58 59  1  0
 60 61  2  0
 61 80  1  0
 62 61  1  0
 62 65  1  0
 63 64  1  0
 63 60  1  0
 64 62  2  0
 65 66  1  0
 66 67  2  0
 68 71  1  0
 68 67  1  0
 69 68  2  0
 70 69  1  0
 70 65  2  0
 71 72  1  0
 72 73  1  0
 73 74  2  0
 75 74  1  0
 75 79  1  0
 76 75  2  0
 77 72  2  0
 77 76  1  0
 78 77  1  0
 80 81  1  0
 81 84  1  0
 81 83  1  0
 82 80  2  0
 85 86  1  0
 85 60  1  0
 87 85  1  0
M  ISO  4   3 101   4 101  50 100  58 100
M  END
>  <TORSDO>  (13) 
F 23

>  <SCORE>  (13) 
-12.462

>  <name>  (13) 
12

>  <ligand_id>  (13) 
12

>  <original_smiles>  (13) 
[H]c1c([H])c([H])c2c(c1[H])C([H])([H])C([H])([H])C([H])([H])C2([H])N([H])C(=O)C1([H])N(C(=O)C([H])(N([H])C(=O)C([H])(N([H])C([H])([H])[H])C([H])([H])[H])C(C([H])([H])[H])(C([H])([H])[H])C([H])([H])[H])C([H])([H])c2c([H])c(OC([H])([H])C([H])([H])OC([H])([H])C([H])([H])OC([H])([H])C([H])([H])N([H])C(=O)N3C([H])([H])C([H])([H])C([H])([H])C([H])(n4nc(-c5c([H])c([H])c(Oc6c([H])c([H])c(F)c([H])c6F)c([H])c5[H])c(C(=O)N([H])[H])c4N([H])[H])C3([H])[H])c([H])c([H])c2C1([H])[H]

>  <smiles>  (13) 
[H]c1c([H])c([H])c2c(c1[H])C([H])([H])C([H])([H])C([H])([H])C2([H])N([H])C(=O)C1([H])N(C(=O)C([H])(N([H])C(=O)C([H])(N([H])C([H])([H])[H])C([H])([H])[H])C(C([H])([H])[H])(C([H])([H])[H])C([H])([H])[H])C([H])([H])c2c([H])c(OC([H])([H])C([H])([H])OC([H])([H])C([H])([H])OC([H])([H])C([H])([H])N([H])C(=O)N3C([H])([H])C([H])([H])C([H])([H])C([H])(n4nc(-c5c([H])c([H])c(Oc6c([H])c([H])c(F)c([H])c6F)c([H])c5[H])c(C(=O)N([H])[H])c4N([H])[H])C3([H])[H])c([H])c([H])c2C1([H])[H]

$$$$
13:0:0
     RDKit          3D

 94101  0  0  1  0  0  0  0  0999 V2000
  -28.0580  -23.2710   22.1820 C   0  0  0  0  0  2  0  0  0  0  0  0
  -28.3460  -24.6570   22.7800 C   0  0  0  0  0  2  0  0  0  0  0  0
  -29.0360  -26.0620   20.8300 C   0  0  0  0  0  0  0  0  0  0  0  0
  -28.1220  -25.7290   21.8160 N   0  0  0  0  0  0  0  0  0  0  0  0
  -30.1070  -25.4850   20.6360 O   0  0  0  0  0  0  0  0  0  0  0  0
  -27.2730  -26.2760   21.8660 H   0  0  0  0  0  0  0  0  0  0  0  0
  -28.6600  -27.1320   20.0750 O   0  0  0  0  0  0  0  0  0  0  0  0
  -24.7900  -32.1530   23.3480 C   0  0  0  0  0  0  0  0  0  0  0  0
  -27.4630  -27.7980   20.2020 C   0  0  0  0  0  0  0  0  0  0  0  0
  -23.5820  -30.7480   21.7040 C   0  0  0  0  0  3  0  0  0  0  0  0
  -25.0420  -29.2430   20.2550 C   0  0  0  0  0  0  0  0  0  0  0  0
  -26.0950  -31.1530   21.4780 C   0  0  0  0  0  2  0  0  0  0  0  0
  -26.1940  -29.7860   20.8380 C   0  0  0  0  0  0  0  0  0  0  0  0
  -27.4100  -29.0710   20.8110 C   0  0  0  0  0  3  0  0  0  0  0  0
  -26.3010  -27.2620   19.6100 C   0  0  0  0  0  3  0  0  0  0  0  0
  -25.0870  -27.9770   19.6410 C   0  0  0  0  0  3  0  0  0  0  0  0
  -23.7860  -30.0810   20.3160 C   0  0  0  0  0  2  0  0  0  0  0  0
  -24.8420  -31.3640   22.2370 N   0  0  0  0  0  0  0  0  0  0  0  0
  -23.7120  -32.4070   23.9030 O   0  0  0  0  0  0  0  0  0  0  0  0
  -22.9550  -29.7100   22.6620 C   0  0  0  0  0  0  0  0  0  0  0  0
  -21.6290  -29.5300   22.5610 N   0  0  0  0  0  0  0  0  0  0  0  0
  -23.6590  -29.0700   23.4490 O   0  0  0  0  0  0  0  0  0  0  0  0
  -21.1240  -30.1040   21.9010 H   0  0  0  0  0  0  0  0  0  0  0  0
  -18.2600  -28.3640   23.1430 C   0  0  0  0  0  0  0  0  0  0  0  0
  -20.8300  -28.5760   23.3290 C   0  0  0  0  0  3  0  0  0  0  0  0
  -20.8890  -27.1650   22.7000 C   0  0  0  0  0  2  0  0  0  0  0  0
  -19.7450  -26.8910   21.7190 C   0  0  0  0  0  2  0  0  0  0  0  0
  -18.3900  -27.0350   22.4190 C   0  0  0  0  0  2  0  0  0  0  0  0
  -19.4050  -29.0950   23.5560 C   0  0  0  0  0  0  0  0  0  0  0  0
  -19.2280  -30.3420   24.1930 C   0  0  0  0  0  3  0  0  0  0  0  0
  -17.9390  -30.8570   24.4210 C   0  0  0  0  0  3  0  0  0  0  0  0
  -16.8090  -30.1220   24.0250 C   0  0  0  0  0  3  0  0  0  0  0  0
  -16.9700  -28.8770   23.3920 C   0  0  0  0  0  3  0  0  0  0  0  0
  -26.0770  -32.7900   23.9610 C   0  0  0  0  0  3  0  0  0  0  0  0
  -26.5690  -32.0620   25.2700 C   0  0  1  0  0  0  0  0  0  0  0  0
  -25.4570  -31.8630   26.3270 C   0  0  0  0  0  1  0  0  0  0  0  0
  -27.1550  -30.6710   24.9290 C   0  0  0  0  0  1  0  0  0  0  0  0
  -27.7160  -32.8720   25.9220 C   0  0  0  0  0  1  0  0  0  0  0  0
  -25.7860  -34.2040   24.2290 N   0  0  0  0  0  0  0  0  0  0  0  0
  -26.1400  -35.2180   23.4270 C   0  0  0  0  0  0  0  0  0  0  0  0
  -26.8190  -35.0600   22.4090 O   0  0  0  0  0  0  0  0  0  0  0  0
  -25.1900  -34.4050   25.0190 H   0  0  0  0  0  0  0  0  0  0  0  0
  -24.4350  -37.0090   22.9800 C   0  0  0  0  0  1  0  0  0  0  0  0
  -25.6670  -36.6310   23.8170 C   0  0  0  0  0  3  0  0  0  0  0  0
  -27.8110  -37.5240   24.6130 C   0  0  0  0  0  1  0  0  0  0  0  0
  -26.7130  -37.6650   23.6600 N   0  0  0  0  0  0  0  0  0  0  0  0
  -26.3200  -38.5970   23.7650 H   0  0  0  0  0  0  0  0  0  0  0  0
  -26.7360  -23.2610   21.6580 O   0  0  0  0  0  0  0  0  0  0  0  0
  -26.2670  -21.9700   21.2690 C   0  0  0  0  0  2  0  0  0  0  0  0
  -26.9220  -21.4270   19.9860 C   0  0  0  0  0  2  0  0  0  0  0  0
  -28.1830  -20.8230   20.2590 O   0  0  0  0  0  0  0  0  0  0  0  0
  -28.6580  -20.0470   19.1610 C   0  0  0  0  0  2  0  0  0  0  0  0
  -30.0830  -19.5490   19.4430 C   0  0  0  0  0  2  0  0  0  0  0  0
  -30.0630  -18.5020   20.4080 O   0  0  0  0  0  0  0  0  0  0  0  0
  -31.3750  -18.1120   20.7910 C   0  0  0  0  0  2  0  0  0  0  0  0
  -31.3060  -17.0750   21.9260 C   0  0  0  0  0  2  0  0  0  0  0  0
  -31.2320  -14.9380   20.6500 C   0  0  0  0  0  0  0  0  0  0  0  0
  -30.9180  -12.7950   19.4690 C   0  0  0  0  0  2  0  0  0  0  0  0
  -30.0150  -12.9710   18.2350 C   0  0  0  0  0  2  0  0  0  0  0  0
  -28.5290  -12.8530   18.6220 C   0  0  0  0  0  2  0  0  0  0  0  0
  -28.1590  -13.7390   19.8410 C   0  0  0  0  0  3  0  0  0  0  0  0
  -29.1680  -13.5280   20.9910 C   0  0  0  0  0  2  0  0  0  0  0  0
  -30.5230  -13.7940   20.4720 N   0  0  0  0  0  0  0  0  0  0  0  0
  -32.3020  -15.1710   20.0820 O   0  0  0  0  0  0  0  0  0  0  0  0
  -30.6950  -15.8170   21.5010 N   0  0  0  0  0  0  0  0  0  0  0  0
  -29.8010  -15.5780   21.9040 H   0  0  0  0  0  0  0  0  0  0  0  0
  -25.7720  -14.4070   20.5390 C   0  0  0  0  0  0  0  0  0  0  0  0
  -24.6660  -13.6590   20.8450 C   0  0  0  0  0  0  0  0  0  0  0  0
  -25.0740  -12.2940   20.7470 C   0  0  0  0  0  0  0  0  0  0  0  0
  -26.7850  -13.4970   20.2790 N   0  0  0  0  0  0  0  0  0  0  0  0
  -26.3670  -12.2190   20.4580 N   0  0  0  0  0  0  0  0  0  0  0  0
  -24.2950  -11.0540   20.8520 C   0  0  0  0  0  0  0  0  0  0  0  0
  -24.6880  -10.0060   21.7160 C   0  0  0  0  0  3  0  0  0  0  0  0
  -23.9150   -8.8300   21.8140 C   0  0  0  0  0  3  0  0  0  0  0  0
  -22.7330   -8.6930   21.0470 C   0  0  0  0  0  0  0  0  0  0  0  0
  -22.3590   -9.7280   20.1720 C   0  0  0  0  0  3  0  0  0  0  0  0
  -23.1330  -10.8960   20.0720 C   0  0  0  0  0  3  0  0  0  0  0  0
  -21.9320   -7.5770   21.0580 O   0  0  0  0  0  0  0  0  0  0  0  0
  -21.8470   -6.7640   22.1590 C   0  0  0  0  0  0  0  0  0  0  0  0
  -21.4610   -7.2580   23.4240 C   0  0  0  0  0  3  0  0  0  0  0  0
  -21.3190   -6.3740   24.5130 C   0  0  0  0  0  3  0  0  0  0  0  0
  -21.5530   -4.9970   24.3370 C   0  0  0  0  0  0  0  0  0  0  0  0
  -21.9320   -4.5020   23.0770 C   0  0  0  0  0  3  0  0  0  0  0  0
  -22.0750   -5.3820   21.9910 C   0  0  0  0  0  0  0  0  0  0  0  0
  -22.4200   -4.8970   20.7740 F   0  0  0  0  0  0  0  0  0  0  0  0
  -21.4090   -4.1470   25.3800 F   0  0  0  0  0  0  0  0  0  0  0  0
  -23.2840  -14.1760   21.1220 C   0  0  0  0  0  0  0  0  0  0  0  0
  -22.5200  -13.4700   21.9500 N   0  0  0  0  0  0  0  0  0  0  0  0
  -22.8910  -15.2380   20.6430 O   0  0  0  0  0  0  0  0  0  0  0  0
  -22.8510  -12.6090   22.3590 H   0  0  0  0  0  0  0  0  0  0  0  0
  -21.5920  -13.7970   22.1760 H   0  0  0  0  0  0  0  0  0  0  0  0
  -25.9970  -15.7770   20.4420 N   0  0  0  0  0  0  0  0  0  0  0  0
  -25.2610  -16.4600   20.5800 H   0  0  0  0  0  0  0  0  0  0  0  0
  -26.8810  -16.1920   20.1780 H   0  0  0  0  0  0  0  0  0  0  0  0
  1  2  1  0
  3  4  1  0
  4  6  1  0
  4  2  1  0
  5  3  2  0
  7  9  1  0
  7  3  1  0
  8 19  2  0
  9 14  1  0
 10 18  1  0
 10 20  1  0
 11 17  1  0
 11 13  1  0
 12 18  1  0
 13 12  1  0
 14 13  2  0
 15 16  1  0
 15  9  2  0
 16 11  2  0
 17 10  1  0
 18  8  1  0
 20 22  2  0
 21 20  1  0
 23 21  1  0
 24 33  2  0
 24 29  1  0
 25 21  1  0
 25 29  1  0
 26 25  1  0
 27 28  1  0
 27 26  1  0
 28 24  1  0
 29 30  2  0
 30 31  1  0
 32 31  2  0
 33 32  1  0
 34  8  1  0
 34 39  1  0
 34 35  1  0
 35 38  1  1
 35 36  1  0
 37 35  1  0
 39 42  1  0
 40 44  1  0
 40 39  1  0
 41 40  2  0
 44 43  1  0
 46 47  1  0
 46 44  1  0
 46 45  1  0
 48  1  1  0
 49 48  1  0
 50 51  1  0
 50 49  1  0
 52 53  1  0
 52 51  1  0
 53 54  1  0
 54 55  1  0
 55 56  1  0
 57 65  1  0
 58 63  1  0
 59 60  1  0
 59 58  1  0
 61 60  1  0
 61 70  1  0
 61 62  1  0
 63 57  1  0
 63 62  1  0
 64 57  2  0
 65 66  1  0
 65 56  1  0
 67 68  2  0
 68 87  1  0
 69 68  1  0
 69 72  1  0
 70 71  1  0
 70 67  1  0
 71 69  2  0
 72 73  1  0
 73 74  2  0
 75 78  1  0
 75 74  1  0
 76 75  2  0
 77 76  1  0
 77 72  2  0
 78 79  1  0
 79 80  1  0
 80 81  2  0
 82 81  1  0
 82 86  1  0
 83 82  2  0
 84 79  2  0
 84 83  1  0
 85 84  1  0
 87 88  1  0
 88 91  1  0
 88 90  1  0
 89 87  2  0
 92 67  1  0
 92 93  1  0
 94 92  1  0
M  ISO  4   3 101   7 101  57 100  65 100
M  END
>  <TORSDO>  (14) 
F 27

>  <SCORE>  (14) 
-8.577

>  <name>  (14) 
13

>  <ligand_id>  (14) 
13

>  <original_smiles>  (14) 
[H]c1c([H])c([H])c2c(c1[H])C([H])([H])C([H])([H])C([H])([H])C2([H])N([H])C(=O)C1([H])N(C(=O)C([H])(N([H])C(=O)C([H])(N([H])C([H])([H])[H])C([H])([H])[H])C(C([H])([H])[H])(C([H])([H])[H])C([H])([H])[H])C([H])([H])c2c([H])c(OC(=O)N([H])C([H])([H])C([H])([H])OC([H])([H])C([H])([H])OC([H])([H])C([H])([H])OC([H])([H])C([H])([H])N([H])C(=O)N3C([H])([H])C([H])([H])C([H])([H])C([H])(n4nc(-c5c([H])c([H])c(Oc6c([H])c([H])c(F)c([H])c6F)c([H])c5[H])c(C(=O)N([H])[H])c4N([H])[H])C3([H])[H])c([H])c([H])c2C1([H])[H]

>  <smiles>  (14) 
[H]c1c([H])c([H])c2c(c1[H])C([H])([H])C([H])([H])C([H])([H])C2([H])N([H])C(=O)C1([H])N(C(=O)C([H])(N([H])C(=O)C([H])(N([H])C([H])([H])[H])C([H])([H])[H])C(C([H])([H])[H])(C([H])([H])[H])C([H])([H])[H])C([H])([H])c2c([H])c(OC(=O)N([H])C([H])([H])C([H])([H])OC([H])([H])C([H])([H])OC([H])([H])C([H])([H])OC([H])([H])C([H])([H])N([H])C(=O)N3C([H])([H])C([H])([H])C([H])([H])C([H])(n4nc(-c5c([H])c([H])c(Oc6c([H])c([H])c(F)c([H])c6F)c([H])c5[H])c(C(=O)N([H])[H])c4N([H])[H])C3([H])[H])c([H])c([H])c2C1([H])[H]

$$$$
14:0:0
     RDKit          3D

101109  0  0  1  0  0  0  0  0999 V2000
  -33.8100  -25.3140   20.2960 C   0  0  0  0  0  2  0  0  0  0  0  0
  -33.0030  -26.3170   20.8930 O   0  0  0  0  0  0  0  0  0  0  0  0
  -33.7420  -27.3060   21.6000 C   0  0  0  0  0  2  0  0  0  0  0  0
  -32.7310  -28.2500   22.2590 C   0  0  0  0  0  2  0  0  0  0  0  0
  -32.1750  -27.5700   23.3820 O   0  0  0  0  0  0  0  0  0  0  0  0
  -30.8920  -28.0340   23.7880 C   0  0  0  0  0  2  0  0  0  0  0  0
  -29.7690  -27.2510   23.0850 C   0  0  0  0  0  2  0  0  0  0  0  0
  -29.6840  -27.6080   21.7140 O   0  0  0  0  0  0  0  0  0  0  0  0
  -28.5000  -27.1400   21.0830 C   0  0  0  0  0  2  0  0  0  0  0  0
  -28.7490  -27.0020   19.5720 C   0  0  0  0  0  2  0  0  0  0  0  0
  -27.5310  -26.7240   18.8810 O   0  0  0  0  0  0  0  0  0  0  0  0
  -24.2470  -31.5770   22.9790 C   0  0  0  0  0  0  0  0  0  0  0  0
  -26.4240  -27.4940   19.1600 C   0  0  0  0  0  0  0  0  0  0  0  0
  -22.8230  -30.3950   21.3300 C   0  0  0  0  0  3  0  0  0  0  0  0
  -24.0690  -29.0000   19.5940 C   0  0  0  0  0  0  0  0  0  0  0  0
  -25.3140  -30.7360   20.8980 C   0  0  0  0  0  2  0  0  0  0  0  0
  -25.2900  -29.4400   20.1160 C   0  0  0  0  0  0  0  0  0  0  0  0
  -26.4650  -28.6930   19.9100 C   0  0  0  0  0  3  0  0  0  0  0  0
  -25.1870  -27.0620   18.6370 C   0  0  0  0  0  3  0  0  0  0  0  0
  -24.0080  -27.8030   18.8580 C   0  0  0  0  0  3  0  0  0  0  0  0
  -22.8620  -29.8680   19.8670 C   0  0  0  0  0  2  0  0  0  0  0  0
  -24.1510  -30.9110   21.7940 N   0  0  0  0  0  0  0  0  0  0  0  0
  -23.2430  -31.8100   23.6650 O   0  0  0  0  0  0  0  0  0  0  0  0
  -22.2480  -29.2840   22.2370 C   0  0  0  0  0  0  0  0  0  0  0  0
  -20.9150  -29.1180   22.2100 N   0  0  0  0  0  0  0  0  0  0  0  0
  -22.9930  -28.5760   22.9190 O   0  0  0  0  0  0  0  0  0  0  0  0
  -20.3730  -29.7460   21.6350 H   0  0  0  0  0  0  0  0  0  0  0  0
  -17.5880  -27.8620   22.8230 C   0  0  0  0  0  0  0  0  0  0  0  0
  -20.1570  -28.1130   22.9520 C   0  0  0  0  0  3  0  0  0  0  0  0
  -20.2270  -26.7380   22.2510 C   0  0  0  0  0  2  0  0  0  0  0  0
  -19.0630  -26.4940   21.2860 C   0  0  0  0  0  2  0  0  0  0  0  0
  -17.7230  -26.5740   22.0290 C   0  0  0  0  0  2  0  0  0  0  0  0
  -18.7300  -28.5940   23.2420 C   0  0  0  0  0  0  0  0  0  0  0  0
  -18.5520  -29.8040   23.9450 C   0  0  0  0  0  3  0  0  0  0  0  0
  -17.2620  -30.2820   24.2390 C   0  0  0  0  0  3  0  0  0  0  0  0
  -16.1330  -29.5460   23.8380 C   0  0  0  0  0  3  0  0  0  0  0  0
  -16.2970  -28.3390   23.1330 C   0  0  0  0  0  3  0  0  0  0  0  0
  -25.6170  -32.1030   23.5170 C   0  0  0  0  0  3  0  0  0  0  0  0
  -25.3990  -33.4550   24.0470 N   0  0  0  0  0  0  0  0  0  0  0  0
  -25.7490  -34.5830   23.4130 C   0  0  0  0  0  0  0  0  0  0  0  0
  -26.3630  -34.5910   22.3430 O   0  0  0  0  0  0  0  0  0  0  0  0
  -24.8500  -33.5290   24.8920 H   0  0  0  0  0  0  0  0  0  0  0  0
  -24.0990  -36.4820   23.3850 C   0  0  0  0  0  1  0  0  0  0  0  0
  -25.3500  -35.9160   24.0750 C   0  0  0  0  0  3  0  0  0  0  0  0
  -27.5670  -36.5710   24.9020 C   0  0  0  0  0  1  0  0  0  0  0  0
  -26.4300  -36.9280   24.0580 N   0  0  0  0  0  0  0  0  0  0  0  0
  -26.0780  -37.8280   24.3740 H   0  0  0  0  0  0  0  0  0  0  0  0
  -26.2580  -31.1690   24.6150 C   0  0  1  0  0  0  0  0  0  0  0  0
  -25.2930  -30.8130   25.7690 C   0  0  0  0  0  1  0  0  0  0  0  0
  -26.7500  -29.8450   23.9810 C   0  0  0  0  0  1  0  0  0  0  0  0
  -27.4990  -31.8560   25.2330 C   0  0  0  0  0  1  0  0  0  0  0  0
  -32.9130  -24.4420   19.4040 C   0  0  0  0  0  2  0  0  0  0  0  0
  -32.0650  -23.6690   20.2450 O   0  0  0  0  0  0  0  0  0  0  0  0
  -31.0160  -23.0040   19.5520 C   0  0  0  0  0  2  0  0  0  0  0  0
  -30.3630  -22.0090   20.5280 C   0  0  0  0  0  2  0  0  0  0  0  0
  -31.3460  -21.0170   20.9370 N   0  0  0  0  0  0  0  0  0  0  0  0
  -32.2680  -21.2560   20.5800 H   0  0  0  0  0  0  0  0  0  0  0  0
  -29.6460  -17.7490   21.5110 C   0  0  0  0  0  3  0  0  0  0  0  0
  -31.4890  -17.4590   19.9500 C   0  0  0  0  0  3  0  0  0  0  0  0
  -29.9040  -19.1360   21.5500 C   0  0  0  0  0  3  0  0  0  0  0  0
  -31.7620  -18.8350   20.0100 C   0  0  0  0  0  3  0  0  0  0  0  0
  -30.4580  -16.8880   20.7380 C   0  0  0  0  0  0  0  0  0  0  0  0
  -30.9880  -19.6750   20.8280 C   0  0  0  0  0  0  0  0  0  0  0  0
  -30.8730  -14.4700   20.2550 C   0  0  0  0  0  0  0  0  0  0  0  0
  -30.4920  -12.3730   19.0430 C   0  0  0  0  0  2  0  0  0  0  0  0
  -29.5240  -12.6730   17.8820 C   0  0  0  0  0  2  0  0  0  0  0  0
  -28.0580  -12.5530   18.3500 C   0  0  0  0  0  2  0  0  0  0  0  0
  -27.7790  -13.3300   19.6640 C   0  0  0  0  0  3  0  0  0  0  0  0
  -28.8610  -13.0280   20.7250 C   0  0  0  0  0  2  0  0  0  0  0  0
  -30.1750  -13.3130   20.1270 N   0  0  0  0  0  0  0  0  0  0  0  0
  -32.0080  -14.6080   19.7970 O   0  0  0  0  0  0  0  0  0  0  0  0
  -30.1720  -15.4920   20.7800 N   0  0  0  0  0  0  0  0  0  0  0  0
  -29.2860  -15.2280   21.1820 H   0  0  0  0  0  0  0  0  0  0  0  0
  -25.4190  -13.9460   20.4850 C   0  0  0  0  0  0  0  0  0  0  0  0
  -24.3470  -13.1750   20.8440 C   0  0  0  0  0  0  0  0  0  0  0  0
  -24.7750  -11.8180   20.7160 C   0  0  0  0  0  0  0  0  0  0  0  0
  -26.4360  -13.0590   20.1680 N   0  0  0  0  0  0  0  0  0  0  0  0
  -26.0530  -11.7700   20.3640 N   0  0  0  0  0  0  0  0  0  0  0  0
  -24.0280  -10.5620   20.8550 C   0  0  0  0  0  0  0  0  0  0  0  0
  -24.4690   -9.5320   21.7130 C   0  0  0  0  0  3  0  0  0  0  0  0
  -23.7250   -8.3390   21.8430 C   0  0  0  0  0  3  0  0  0  0  0  0
  -22.5240   -8.1710   21.1140 C   0  0  0  0  0  0  0  0  0  0  0  0
  -22.1010   -9.1890   20.2420 C   0  0  0  0  0  3  0  0  0  0  0  0
  -22.8460  -10.3740   20.1110 C   0  0  0  0  0  3  0  0  0  0  0  0
  -21.7480   -7.0380   21.1570 O   0  0  0  0  0  0  0  0  0  0  0  0
  -21.7070   -6.2350   22.2690 C   0  0  0  0  0  0  0  0  0  0  0  0
  -21.3390   -6.7370   23.5370 C   0  0  0  0  0  3  0  0  0  0  0  0
  -21.2430   -5.8640   24.6380 C   0  0  0  0  0  3  0  0  0  0  0  0
  -21.5050   -4.4910   24.4740 C   0  0  0  0  0  0  0  0  0  0  0  0
  -21.8650   -3.9880   23.2120 C   0  0  0  0  0  3  0  0  0  0  0  0
  -21.9630   -4.8580   22.1120 C   0  0  0  0  0  0  0  0  0  0  0  0
  -22.2910   -4.3660   20.8930 F   0  0  0  0  0  0  0  0  0  0  0  0
  -21.4040   -3.6500   25.5300 F   0  0  0  0  0  0  0  0  0  0  0  0
  -22.9700  -13.6630   21.1940 C   0  0  0  0  0  0  0  0  0  0  0  0
  -22.2610  -12.9360   22.0500 N   0  0  0  0  0  0  0  0  0  0  0  0
  -22.5330  -14.7210   20.7430 O   0  0  0  0  0  0  0  0  0  0  0  0
  -22.6260  -12.0770   22.4340 H   0  0  0  0  0  0  0  0  0  0  0  0
  -21.3390  -13.2440   22.3270 H   0  0  0  0  0  0  0  0  0  0  0  0
  -25.6070  -15.3220   20.3810 N   0  0  0  0  0  0  0  0  0  0  0  0
  -24.8540  -15.9810   20.5420 H   0  0  0  0  0  0  0  0  0  0  0  0
  -26.4510  -15.7630   20.0380 H   0  0  0  0  0  0  0  0  0  0  0  0
  1  2  1  0
  2  3  1  0
  3  4  1  0
  4  5  1  0
  5  6  1  0
  7  6  1  0
  8  7  1  0
  9  8  1  0
 10  9  1  0
 11 13  1  0
 11 10  1  0
 12 23  2  0
 13 18  1  0
 14 22  1  0
 14 24  1  0
 15 21  1  0
 15 17  1  0
 16 22  1  0
 17 16  1  0
 18 17  2  0
 19 20  1  0
 19 13  2  0
 20 15  2  0
 21 14  1  0
 22 12  1  0
 24 26  2  0
 25 24  1  0
 27 25  1  0
 28 37  2  0
 28 33  1  0
 29 25  1  0
 29 33  1  0
 30 29  1  0
 31 32  1  0
 31 30  1  0
 32 28  1  0
 33 34  2  0
 34 35  1  0
 36 35  2  0
 37 36  1  0
 38 12  1  0
 38 39  1  0
 38 48  1  0
 39 42  1  0
 40 39  1  0
 40 44  1  0
 41 40  2  0
 44 43  1  0
 46 44  1  0
 46 47  1  0
 46 45  1  0
 48 51  1  1
 48 49  1  0
 50 48  1  0
 52 53  1  0
 52  1  1  0
 54 53  1  0
 54 55  1  0
 55 56  1  0
 57 56  1  0
 58 60  1  0
 59 61  2  0
 59 62  1  0
 61 63  1  0
 62 72  1  0
 62 58  2  0
 63 56  1  0
 63 60  2  0
 64 72  1  0
 65 70  1  0
 66 67  1  0
 66 65  1  0
 68 67  1  0
 68 77  1  0
 68 69  1  0
 70 64  1  0
 70 69  1  0
 71 64  2  0
 72 73  1  0
 74 75  2  0
 75 94  1  0
 76 75  1  0
 76 79  1  0
 77 78  1  0
 77 74  1  0
 78 76  2  0
 79 80  1  0
 80 81  2  0
 82 85  1  0
 82 81  1  0
 83 82  2  0
 84 83  1  0
 84 79  2  0
 85 86  1  0
 86 87  1  0
 87 88  2  0
 89 88  1  0
 89 93  1  0
 90 89  2  0
 91 86  2  0
 91 90  1  0
 92 91  1  0
 94 95  1  0
 95 98  1  0
 95 97  1  0
 96 94  2  0
 99 74  1  0
 99100  1  0
101 99  1  0
M  ISO  4  10 101  11 101  64 100  72 100
M  END
>  <TORSDO>  (15) 
F 31

>  <SCORE>  (15) 
-9.506

>  <name>  (15) 
14

>  <ligand_id>  (15) 
14

>  <original_smiles>  (15) 
[H]c1c([H])c([H])c2c(c1[H])C([H])([H])C([H])([H])C([H])([H])C2([H])N([H])C(=O)C1([H])N(C(=O)C([H])(N([H])C(=O)C([H])(N([H])C([H])([H])[H])C([H])([H])[H])C(C([H])([H])[H])(C([H])([H])[H])C([H])([H])[H])C([H])([H])c2c([H])c(OC([H])([H])C([H])([H])OC([H])([H])C([H])([H])OC([H])([H])C([H])([H])OC([H])([H])C([H])([H])OC([H])([H])C([H])([H])N([H])c3c([H])c([H])c(N([H])C(=O)N4C([H])([H])C([H])([H])C([H])([H])C([H])(n5nc(-c6c([H])c([H])c(Oc7c([H])c([H])c(F)c([H])c7F)c([H])c6[H])c(C(=O)N([H])[H])c5N([H])[H])C4([H])[H])c([H])c3[H])c([H])c([H])c2C1([H])[H]

>  <smiles>  (15) 
[H]c1c([H])c([H])c2c(c1[H])C([H])([H])C([H])([H])C([H])([H])C2([H])N([H])C(=O)C1([H])N(C(=O)C([H])(N([H])C(=O)C([H])(N([H])C([H])([H])[H])C([H])([H])[H])C(C([H])([H])[H])(C([H])([H])[H])C([H])([H])[H])C([H])([H])c2c([H])c(OC([H])([H])C([H])([H])OC([H])([H])C([H])([H])OC([H])([H])C([H])([H])OC([H])([H])C([H])([H])OC([H])([H])C([H])([H])N([H])c3c([H])c([H])c(N([H])C(=O)N4C([H])([H])C([H])([H])C([H])([H])C([H])(n5nc(-c6c([H])c([H])c(Oc7c([H])c([H])c(F)c([H])c7F)c([H])c6[H])c(C(=O)N([H])[H])c5N([H])[H])C4([H])[H])c([H])c3[H])c([H])c([H])c2C1([H])[H]

$$$$
15:0:0
     RDKit          3D

 87 94  0  0  1  0  0  0  0  0999 V2000
  -29.1130  -22.7980   20.1480 O   0  0  0  0  0  0  0  0  0  0  0  0
  -29.2650  -24.1800   20.5710 C   0  0  0  0  0  2  0  0  0  0  0  0
  -28.1950  -25.1410   19.9510 C   0  0  0  0  0  2  0  0  0  0  0  0
  -28.3440  -26.5690   20.2300 O   0  0  0  0  0  0  0  0  0  0  0  0
  -24.6030  -31.8820   23.2540 C   0  0  0  0  0  0  0  0  0  0  0  0
  -27.2030  -27.3700   20.1730 C   0  0  0  0  0  0  0  0  0  0  0  0
  -23.3880  -30.4910   21.6140 C   0  0  0  0  0  3  0  0  0  0  0  0
  -24.8290  -28.9470   20.1790 C   0  0  0  0  0  0  0  0  0  0  0  0
  -25.9230  -30.8160   21.4190 C   0  0  0  0  0  2  0  0  0  0  0  0
  -25.9960  -29.4430   20.7740 C   0  0  0  0  0  0  0  0  0  0  0  0
  -27.1840  -28.6630   20.7670 C   0  0  0  0  0  3  0  0  0  0  0  0
  -26.0140  -26.9200   19.5460 C   0  0  0  0  0  3  0  0  0  0  0  0
  -24.8370  -27.6890   19.5590 C   0  0  0  0  0  3  0  0  0  0  0  0
  -23.5920  -29.8180   20.2320 C   0  0  0  0  0  2  0  0  0  0  0  0
  -24.6560  -31.0790   22.1530 N   0  0  0  0  0  0  0  0  0  0  0  0
  -23.5240  -32.1610   23.7950 O   0  0  0  0  0  0  0  0  0  0  0  0
  -22.7290  -29.4710   22.5730 C   0  0  0  0  0  0  0  0  0  0  0  0
  -21.4040  -29.2960   22.4460 N   0  0  0  0  0  0  0  0  0  0  0  0
  -23.4090  -28.8420   23.3890 O   0  0  0  0  0  0  0  0  0  0  0  0
  -20.9160  -29.8550   21.7610 H   0  0  0  0  0  0  0  0  0  0  0  0
  -18.0240  -28.1080   22.9390 C   0  0  0  0  0  0  0  0  0  0  0  0
  -20.5820  -28.3620   23.2170 C   0  0  0  0  0  3  0  0  0  0  0  0
  -20.6820  -26.9290   22.6440 C   0  0  0  0  0  2  0  0  0  0  0  0
  -19.5830  -26.6070   21.6270 C   0  0  0  0  0  2  0  0  0  0  0  0
  -18.2000  -26.7570   22.2670 C   0  0  0  0  0  2  0  0  0  0  0  0
  -19.1430  -28.8680   23.3700 C   0  0  0  0  0  0  0  0  0  0  0  0
  -18.9250  -30.1340   23.9590 C   0  0  0  0  0  3  0  0  0  0  0  0
  -17.6220  -30.6390   24.1180 C   0  0  0  0  0  3  0  0  0  0  0  0
  -16.5170  -29.8760   23.7040 C   0  0  0  0  0  3  0  0  0  0  0  0
  -16.7190  -28.6120   23.1200 C   0  0  0  0  0  3  0  0  0  0  0  0
  -25.8930  -32.5060   23.8720 C   0  0  0  0  0  3  0  0  0  0  0  0
  -26.4080  -31.7310   25.1470 C   0  0  1  0  0  0  0  0  0  0  0  0
  -25.3180  -31.5010   26.2190 C   0  0  0  0  0  1  0  0  0  0  0  0
  -26.9820  -30.3500   24.7520 C   0  0  0  0  0  1  0  0  0  0  0  0
  -27.5640  -32.5190   25.8080 C   0  0  0  0  0  1  0  0  0  0  0  0
  -25.5920  -33.9060   24.2030 N   0  0  0  0  0  0  0  0  0  0  0  0
  -25.9250  -34.9570   23.4410 C   0  0  0  0  0  0  0  0  0  0  0  0
  -26.5890  -34.8480   22.4060 O   0  0  0  0  0  0  0  0  0  0  0  0
  -25.0030  -34.0650   25.0080 H   0  0  0  0  0  0  0  0  0  0  0  0
  -24.2020  -36.7560   23.0930 C   0  0  0  0  0  1  0  0  0  0  0  0
  -25.4460  -36.3470   23.8980 C   0  0  0  0  0  3  0  0  0  0  0  0
  -27.5900  -37.2240   24.7140 C   0  0  0  0  0  1  0  0  0  0  0  0
  -26.4820  -37.3950   23.7780 N   0  0  0  0  0  0  0  0  0  0  0  0
  -26.0800  -38.3170   23.9270 H   0  0  0  0  0  0  0  0  0  0  0  0
  -29.8660  -21.8260   20.9130 C   0  0  0  0  0  2  0  0  0  0  0  0
  -29.9940  -20.3890   20.2800 C   0  0  0  0  0  2  0  0  0  0  0  0
  -29.6060  -19.3250   21.1790 O   0  0  0  0  0  0  0  0  0  0  0  0
  -30.3560  -18.0820   21.1900 C   0  0  0  0  0  2  0  0  0  0  0  0
  -29.9920  -17.0260   20.1000 C   0  0  0  0  0  2  0  0  0  0  0  0
  -30.6580  -14.5630   20.1340 C   0  0  0  0  0  0  0  0  0  0  0  0
  -30.3320  -12.3860   19.0110 C   0  0  0  0  0  2  0  0  0  0  0  0
  -29.3420  -12.5990   17.8440 C   0  0  0  0  0  2  0  0  0  0  0  0
  -27.8850  -12.4670   18.3310 C   0  0  0  0  0  2  0  0  0  0  0  0
  -27.6040  -13.2910   19.6150 C   0  0  0  0  0  3  0  0  0  0  0  0
  -28.7030  -13.0590   20.6790 C   0  0  0  0  0  2  0  0  0  0  0  0
  -30.0040  -13.3660   20.0610 N   0  0  0  0  0  0  0  0  0  0  0  0
  -31.7760  -14.7380   19.6440 O   0  0  0  0  0  0  0  0  0  0  0  0
  -29.9110  -15.6090   20.5580 N   0  0  0  0  0  0  0  0  0  0  0  0
  -29.0360  -15.3490   20.9880 H   0  0  0  0  0  0  0  0  0  0  0  0
  -25.2410  -13.9170   20.4180 C   0  0  0  0  0  0  0  0  0  0  0  0
  -24.1800  -13.1550   20.8240 C   0  0  0  0  0  0  0  0  0  0  0  0
  -24.6260  -11.7980   20.7700 C   0  0  0  0  0  0  0  0  0  0  0  0
  -26.2680  -13.0270   20.1440 N   0  0  0  0  0  0  0  0  0  0  0  0
  -25.9040  -11.7470   20.4140 N   0  0  0  0  0  0  0  0  0  0  0  0
  -23.8950  -10.5420   20.9820 C   0  0  0  0  0  0  0  0  0  0  0  0
  -24.3570   -9.5630   21.8880 C   0  0  0  0  0  3  0  0  0  0  0  0
  -23.6260   -8.3710   22.0880 C   0  0  0  0  0  3  0  0  0  0  0  0
  -22.4190   -8.1520   21.3830 C   0  0  0  0  0  0  0  0  0  0  0  0
  -21.9750   -9.1210   20.4660 C   0  0  0  0  0  3  0  0  0  0  0  0
  -22.7060  -10.3040   20.2640 C   0  0  0  0  0  3  0  0  0  0  0  0
  -21.6570   -7.0150   21.4950 O   0  0  0  0  0  0  0  0  0  0  0  0
  -21.6560   -6.2580   22.6390 C   0  0  0  0  0  0  0  0  0  0  0  0
  -21.3040   -6.8040   23.8930 C   0  0  0  0  0  3  0  0  0  0  0  0
  -21.2500   -5.9740   25.0310 C   0  0  0  0  0  3  0  0  0  0  0  0
  -21.5350   -4.6010   24.9170 C   0  0  0  0  0  0  0  0  0  0  0  0
  -21.8800   -4.0550   23.6680 C   0  0  0  0  0  3  0  0  0  0  0  0
  -21.9370   -4.8820   22.5310 C   0  0  0  0  0  0  0  0  0  0  0  0
  -22.2490   -4.3460   21.3260 F   0  0  0  0  0  0  0  0  0  0  0  0
  -21.4760   -3.8020   26.0080 F   0  0  0  0  0  0  0  0  0  0  0  0
  -22.7990  -13.6450   21.1510 C   0  0  0  0  0  0  0  0  0  0  0  0
  -22.0980  -12.9520   22.0420 N   0  0  0  0  0  0  0  0  0  0  0  0
  -22.3520  -14.6760   20.6520 O   0  0  0  0  0  0  0  0  0  0  0  0
  -22.4730  -12.1180   22.4680 H   0  0  0  0  0  0  0  0  0  0  0  0
  -21.1730  -13.2630   22.3040 H   0  0  0  0  0  0  0  0  0  0  0  0
  -25.4140  -15.2870   20.2390 N   0  0  0  0  0  0  0  0  0  0  0  0
  -24.6560  -15.9470   20.3780 H   0  0  0  0  0  0  0  0  0  0  0  0
  -26.2510  -15.7180   19.8670 H   0  0  0  0  0  0  0  0  0  0  0  0
  1  2  1  0
  1 45  1  0
  3  4  1  0
  3  2  1  0
  5 16  2  0
  6  4  1  0
  6 11  1  0
  7 15  1  0
  7 17  1  0
  8 14  1  0
  8 10  1  0
  9 15  1  0
 10  9  1  0
 11 10  2  0
 12 13  1  0
 12  6  2  0
 13  8  2  0
 14  7  1  0
 15  5  1  0
 17 19  2  0
 18 17  1  0
 20 18  1  0
 21 30  2  0
 21 26  1  0
 22 18  1  0
 22 26  1  0
 23 22  1  0
 24 25  1  0
 24 23  1  0
 25 21  1  0
 26 27  2  0
 27 28  1  0
 29 28  2  0
 30 29  1  0
 31  5  1  0
 31 36  1  0
 31 32  1  0
 32 35  1  1
 32 33  1  0
 34 32  1  0
 36 39  1  0
 37 41  1  0
 37 36  1  0
 38 37  2  0
 41 40  1  0
 43 41  1  0
 43 44  1  0
 43 42  1  0
 46 45  1  0
 46 47  1  0
 47 48  1  0
 49 58  1  0
 49 48  1  0
 50 58  1  0
 51 56  1  0
 52 53  1  0
 52 51  1  0
 54 53  1  0
 54 63  1  0
 54 55  1  0
 56 50  1  0
 56 55  1  0
 57 50  2  0
 58 59  1  0
 60 61  2  0
 61 80  1  0
 62 61  1  0
 62 65  1  0
 63 64  1  0
 63 60  1  0
 64 62  2  0
 65 66  1  0
 66 67  2  0
 68 71  1  0
 68 67  1  0
 69 68  2  0
 70 69  1  0
 70 65  2  0
 71 72  1  0
 72 73  1  0
 73 74  2  0
 75 74  1  0
 75 79  1  0
 76 75  2  0
 77 72  2  0
 77 76  1  0
 78 77  1  0
 80 81  1  0
 81 84  1  0
 81 83  1  0
 82 80  2  0
 85 86  1  0
 85 60  1  0
 87 85  1  0
M  ISO  4   3 101   4 101  50 100  58 100
M  END
>  <TORSDO>  (16) 
F 23

>  <SCORE>  (16) 
-12.462

>  <name>  (16) 
15

>  <ligand_id>  (16) 
15

>  <original_smiles>  (16) 
[H]c1c([H])c([H])c2c(c1[H])C([H])([H])C([H])([H])C([H])([H])C2([H])N([H])C(=O)C1([H])N(C(=O)C([H])(N([H])C(=O)C([H])(N([H])C([H])([H])[H])C([H])([H])[H])C(C([H])([H])[H])(C([H])([H])[H])C([H])([H])[H])C([H])([H])c2c([H])c(OC([H])([H])C([H])([H])OC([H])([H])C([H])([H])OC([H])([H])C([H])([H])N([H])C(=O)N3C([H])([H])C([H])([H])C([H])([H])C([H])(n4nc(-c5c([H])c([H])c(Oc6c([H])c([H])c(F)c([H])c6F)c([H])c5[H])c(C(=O)N([H])[H])c4N([H])[H])C3([H])[H])c([H])c([H])c2C1([H])[H]

>  <smiles>  (16) 
[H]c1c([H])c([H])c2c(c1[H])C([H])([H])C([H])([H])C([H])([H])C2([H])N([H])C(=O)C1([H])N(C(=O)C([H])(N([H])C(=O)C([H])(N([H])C([H])([H])[H])C([H])([H])[H])C(C([H])([H])[H])(C([H])([H])[H])C([H])([H])[H])C([H])([H])c2c([H])c(OC([H])([H])C([H])([H])OC([H])([H])C([H])([H])OC([H])([H])C([H])([H])N([H])C(=O)N3C([H])([H])C([H])([H])C([H])([H])C([H])(n4nc(-c5c([H])c([H])c(Oc6c([H])c([H])c(F)c([H])c6F)c([H])c5[H])c(C(=O)N([H])[H])c4N([H])[H])C3([H])[H])c([H])c([H])c2C1([H])[H]

$$$$
16:0:0
     RDKit          3D

 92 99  0  0  1  0  0  0  0  0999 V2000
  -28.4540  -22.1000   22.4940 C   0  0  0  0  0  0  0  0  0  0  0  0
  -29.2220  -21.0450   22.1830 N   0  0  0  0  0  0  0  0  0  0  0  0
  -28.2930  -22.4060   23.6760 O   0  0  0  0  0  0  0  0  0  0  0  0
  -29.6290  -20.5570   22.9680 H   0  0  0  0  0  0  0  0  0  0  0  0
  -27.7820  -22.9560   21.4080 C   0  0  0  0  0  2  0  0  0  0  0  0
  -28.5990  -24.0910   21.1460 O   0  0  0  0  0  0  0  0  0  0  0  0
  -27.9250  -25.1000   20.3930 C   0  0  0  0  0  2  0  0  0  0  0  0
  -28.9570  -26.0550   19.7620 C   0  0  0  0  0  0  0  0  0  0  0  0
  -30.1420  -25.7190   19.6740 O   0  0  0  0  0  0  0  0  0  0  0  0
  -28.5140  -27.2420   19.2570 O   0  0  0  0  0  0  0  0  0  0  0  0
  -24.5020  -31.6540   23.1460 C   0  0  0  0  0  0  0  0  0  0  0  0
  -27.2660  -27.7750   19.4800 C   0  0  0  0  0  0  0  0  0  0  0  0
  -23.3170  -30.3060   21.4670 C   0  0  0  0  0  3  0  0  0  0  0  0
  -24.7600  -29.0330   19.8000 C   0  0  0  0  0  0  0  0  0  0  0  0
  -25.7630  -30.9090   21.1240 C   0  0  0  0  0  2  0  0  0  0  0  0
  -25.9080  -29.6100   20.3590 C   0  0  0  0  0  0  0  0  0  0  0  0
  -27.1620  -28.9840   20.2010 C   0  0  0  0  0  3  0  0  0  0  0  0
  -26.1040  -27.2150   18.9020 C   0  0  0  0  0  3  0  0  0  0  0  0
  -24.8510  -27.8320   19.0740 C   0  0  0  0  0  3  0  0  0  0  0  0
  -23.4590  -29.7690   20.0150 C   0  0  0  0  0  2  0  0  0  0  0  0
  -24.5510  -30.9680   21.9710 N   0  0  0  0  0  0  0  0  0  0  0  0
  -23.4430  -31.7760   23.7770 O   0  0  0  0  0  0  0  0  0  0  0  0
  -22.8290  -29.1560   22.3720 C   0  0  0  0  0  0  0  0  0  0  0  0
  -21.5310  -28.9140   22.2410 N   0  0  0  0  0  0  0  0  0  0  0  0
  -23.5890  -28.5120   23.0970 O   0  0  0  0  0  0  0  0  0  0  0  0
  -21.0400  -29.5890   21.6700 H   0  0  0  0  0  0  0  0  0  0  0  0
  -18.3290  -27.0230   22.5950 C   0  0  0  0  0  0  0  0  0  0  0  0
  -20.7260  -27.7680   22.5700 C   0  0  0  0  0  3  0  0  0  0  0  0
  -21.1870  -26.3350   22.2770 C   0  0  0  0  0  2  0  0  0  0  0  0
  -20.1620  -25.6810   21.3260 C   0  0  0  0  0  2  0  0  0  0  0  0
  -18.7260  -25.7220   21.8930 C   0  0  0  0  0  2  0  0  0  0  0  0
  -19.3010  -27.9600   23.0240 C   0  0  0  0  0  0  0  0  0  0  0  0
  -18.9060  -29.1420   23.6830 C   0  0  0  0  0  3  0  0  0  0  0  0
  -17.5390  -29.4180   23.8720 C   0  0  0  0  0  3  0  0  0  0  0  0
  -16.5690  -28.5040   23.4190 C   0  0  0  0  0  3  0  0  0  0  0  0
  -16.9640  -27.3050   22.7970 C   0  0  0  0  0  3  0  0  0  0  0  0
  -25.7710  -32.3360   23.7380 C   0  0  0  0  0  3  0  0  0  0  0  0
  -26.3660  -31.5630   24.9760 C   0  0  1  0  0  0  0  0  0  0  0  0
  -25.3180  -31.2290   26.0640 C   0  0  0  0  0  1  0  0  0  0  0  0
  -27.0190  -30.2340   24.5270 C   0  0  0  0  0  1  0  0  0  0  0  0
  -27.4830  -32.4070   25.6300 C   0  0  0  0  0  1  0  0  0  0  0  0
  -25.3980  -33.7080   24.1060 N   0  0  0  0  0  0  0  0  0  0  0  0
  -25.6500  -34.7880   23.3550 C   0  0  0  0  0  0  0  0  0  0  0  0
  -26.2930  -34.7380   22.3020 O   0  0  0  0  0  0  0  0  0  0  0  0
  -24.8220  -33.8170   24.9280 H   0  0  0  0  0  0  0  0  0  0  0  0
  -23.8170  -36.4880   23.0850 C   0  0  0  0  0  1  0  0  0  0  0  0
  -25.1030  -36.1390   23.8520 C   0  0  0  0  0  3  0  0  0  0  0  0
  -27.2130  -37.1200   24.6320 C   0  0  0  0  0  1  0  0  0  0  0  0
  -26.0750  -37.2470   23.7280 N   0  0  0  0  0  0  0  0  0  0  0  0
  -25.6260  -38.1420   23.9070 H   0  0  0  0  0  0  0  0  0  0  0  0
  -29.5710  -20.5260   20.8640 C   0  0  0  0  0  2  0  0  0  0  0  0
  -30.0970  -19.0840   20.9940 C   0  0  0  0  0  2  0  0  0  0  0  0
  -30.6010  -18.5970   19.7540 O   0  0  0  0  0  0  0  0  0  0  0  0
  -32.0230  -18.6120   19.6400 C   0  0  0  0  0  2  0  0  0  0  0  0
  -32.6840  -17.7340   20.7240 C   0  0  0  0  0  2  0  0  0  0  0  0
  -32.1130  -16.4320   20.7080 O   0  0  0  0  0  0  0  0  0  0  0  0
  -32.6890  -15.4370   20.0100 C   0  0  0  0  0  0  0  0  0  0  0  0
  -32.2760  -13.0930   19.2810 C   0  0  0  0  0  2  0  0  0  0  0  0
  -31.3760  -13.0690   18.0340 C   0  0  0  0  0  2  0  0  0  0  0  0
  -29.8890  -13.0890   18.4360 C   0  0  0  0  0  2  0  0  0  0  0  0
  -29.5580  -14.2130   19.4560 C   0  0  0  0  0  3  0  0  0  0  0  0
  -30.5580  -14.1970   20.6330 C   0  0  0  0  0  2  0  0  0  0  0  0
  -31.9160  -14.2730   20.0720 N   0  0  0  0  0  0  0  0  0  0  0  0
  -33.7460  -15.5600   19.3870 O   0  0  0  0  0  0  0  0  0  0  0  0
  -27.2640  -15.1250   20.1920 C   0  0  0  0  0  0  0  0  0  0  0  0
  -26.0980  -14.4920   20.5300 C   0  0  0  0  0  0  0  0  0  0  0  0
  -26.3660  -13.0920   20.4400 C   0  0  0  0  0  0  0  0  0  0  0  0
  -28.1760  -14.1160   19.9230 N   0  0  0  0  0  0  0  0  0  0  0  0
  -27.6380  -12.8870   20.1260 N   0  0  0  0  0  0  0  0  0  0  0  0
  -25.4730  -11.9350   20.5830 C   0  0  0  0  0  0  0  0  0  0  0  0
  -25.7190  -10.9260   21.5390 C   0  0  0  0  0  3  0  0  0  0  0  0
  -24.8360   -9.8320   21.6690 C   0  0  0  0  0  3  0  0  0  0  0  0
  -23.6920   -9.7420   20.8400 C   0  0  0  0  0  0  0  0  0  0  0  0
  -23.4650  -10.7380   19.8740 C   0  0  0  0  0  3  0  0  0  0  0  0
  -24.3470  -11.8230   19.7430 C   0  0  0  0  0  3  0  0  0  0  0  0
  -22.7930   -8.7030   20.8760 O   0  0  0  0  0  0  0  0  0  0  0  0
  -22.4730   -8.0710   22.0510 C   0  0  0  0  0  0  0  0  0  0  0  0
  -21.9440   -8.7730   23.1560 C   0  0  0  0  0  3  0  0  0  0  0  0
  -21.5620   -8.0720   24.3180 C   0  0  0  0  0  3  0  0  0  0  0  0
  -21.7000   -6.6720   24.3750 C   0  0  0  0  0  0  0  0  0  0  0  0
  -22.2230   -5.9720   23.2730 C   0  0  0  0  0  3  0  0  0  0  0  0
  -22.6050   -6.6680   22.1140 C   0  0  0  0  0  0  0  0  0  0  0  0
  -23.0880   -5.9870   21.0480 F   0  0  0  0  0  0  0  0  0  0  0  0
  -21.3270   -5.9980   25.4870 F   0  0  0  0  0  0  0  0  0  0  0  0
  -24.7800  -15.1460   20.8330 C   0  0  0  0  0  0  0  0  0  0  0  0
  -23.9690  -14.5250   21.6830 N   0  0  0  0  0  0  0  0  0  0  0  0
  -24.4830  -16.2390   20.3530 O   0  0  0  0  0  0  0  0  0  0  0  0
  -24.2220  -13.6380   22.0930 H   0  0  0  0  0  0  0  0  0  0  0  0
  -23.0830  -14.9450   21.9280 H   0  0  0  0  0  0  0  0  0  0  0  0
  -27.6210  -16.4650   20.0750 N   0  0  0  0  0  0  0  0  0  0  0  0
  -26.9640  -17.2210   20.2290 H   0  0  0  0  0  0  0  0  0  0  0  0
  -28.5500  -16.7890   19.8300 H   0  0  0  0  0  0  0  0  0  0  0  0
  1  3  2  0
  2  1  1  0
  2  4  1  0
  5  1  1  0
  6  5  1  0
  7  6  1  0
  8  7  1  0
  9  8  2  0
 10 12  1  0
 10  8  1  0
 11 22  2  0
 12 17  1  0
 13 21  1  0
 13 23  1  0
 14 20  1  0
 14 16  1  0
 15 21  1  0
 16 15  1  0
 17 16  2  0
 18 19  1  0
 18 12  2  0
 19 14  2  0
 20 13  1  0
 21 11  1  0
 23 25  2  0
 24 23  1  0
 26 24  1  0
 27 36  2  0
 27 32  1  0
 28 24  1  0
 28 32  1  0
 29 28  1  0
 30 31  1  0
 30 29  1  0
 31 27  1  0
 32 33  2  0
 33 34  1  0
 35 34  2  0
 36 35  1  0
 37 11  1  0
 37 42  1  0
 37 38  1  0
 38 41  1  1
 38 39  1  0
 40 38  1  0
 42 45  1  0
 43 47  1  0
 43 42  1  0
 44 43  2  0
 47 46  1  0
 49 47  1  0
 49 50  1  0
 49 48  1  0
 51 52  1  0
 51  2  1  0
 53 52  1  0
 54 53  1  0
 54 55  1  0
 56 55  1  0
 57 63  1  0
 57 56  1  0
 58 63  1  0
 59 60  1  0
 59 58  1  0
 61 60  1  0
 61 68  1  0
 61 62  1  0
 63 62  1  0
 64 57  2  0
 65 66  2  0
 66 85  1  0
 67 66  1  0
 67 70  1  0
 68 69  1  0
 68 65  1  0
 69 67  2  0
 70 71  1  0
 71 72  2  0
 73 76  1  0
 73 72  1  0
 74 73  2  0
 75 74  1  0
 75 70  2  0
 76 77  1  0
 77 82  2  0
 77 78  1  0
 78 79  2  0
 79 80  1  0
 80 84  1  0
 81 80  2  0
 82 81  1  0
 83 82  1  0
 85 86  1  0
 86 89  1  0
 86 88  1  0
 87 85  2  0
 90 65  1  0
 90 91  1  0
 92 90  1  0
M  ISO  4   8 101  10 101  56 100  57 100
M  END
>  <TORSDO>  (17) 
F 26

>  <SCORE>  (17) 
-6.690

>  <name>  (17) 
16

>  <ligand_id>  (17) 
16

>  <original_smiles>  (17) 
[H]c1c([H])c([H])c2c(c1[H])C([H])([H])C([H])([H])C([H])([H])C2([H])N([H])C(=O)C1([H])N(C(=O)C([H])(N([H])C(=O)C([H])(N([H])C([H])([H])[H])C([H])([H])[H])C(C([H])([H])[H])(C([H])([H])[H])C([H])([H])[H])C([H])([H])c2c([H])c(OC(=O)C([H])([H])OC([H])([H])C(=O)N([H])C([H])([H])C([H])([H])OC([H])([H])C([H])([H])OC(=O)N3C([H])([H])C([H])([H])C([H])([H])C([H])(n4nc(-c5c([H])c([H])c(Oc6c([H])c([H])c(F)c([H])c6F)c([H])c5[H])c(C(=O)N([H])[H])c4N([H])[H])C3([H])[H])c([H])c([H])c2C1([H])[H]

>  <smiles>  (17) 
[H]c1c([H])c([H])c2c(c1[H])C([H])([H])C([H])([H])C([H])([H])C2([H])N([H])C(=O)C1([H])N(C(=O)C([H])(N([H])C(=O)C([H])(N([H])C([H])([H])[H])C([H])([H])[H])C(C([H])([H])[H])(C([H])([H])[H])C([H])([H])[H])C([H])([H])c2c([H])c(OC(=O)C([H])([H])OC([H])([H])C(=O)N([H])C([H])([H])C([H])([H])OC([H])([H])C([H])([H])OC(=O)N3C([H])([H])C([H])([H])C([H])([H])C([H])(n4nc(-c5c([H])c([H])c(Oc6c([H])c([H])c(F)c([H])c6F)c([H])c5[H])c(C(=O)N([H])[H])c4N([H])[H])C3([H])[H])c([H])c([H])c2C1([H])[H]

$$$$
17:0:0
     RDKit          3D

 98106  0  0  1  0  0  0  0  0999 V2000
  -28.8940  -23.5800   19.1120 C   0  0  0  0  0  3  0  0  0  0  0  0
  -30.1770  -23.3020   19.4880 C   0  0  0  0  0  0  0  0  0  0  0  0
  -30.7940  -22.5910   18.4570 N   0  0  0  0  0  0  0  0  0  0  0  0
  -29.9520  -22.4400   17.4780 N   0  0  0  0  0  0  0  0  0  0  0  0
  -28.7960  -23.0460   17.8440 N   0  0  0  0  0  0  0  0  0  0  0  0
  -27.6790  -23.1100   16.9120 C   0  0  0  0  0  2  0  0  0  0  0  0
  -26.7690  -21.8650   16.9260 C   0  0  0  0  0  2  0  0  0  0  0  0
  -26.2200  -21.4810   18.3090 C   0  0  0  0  0  2  0  0  0  0  0  0
  -27.3060  -21.1290   19.1410 O   0  0  0  0  0  0  0  0  0  0  0  0
  -26.9720  -21.0020   20.5110 C   0  0  0  0  0  2  0  0  0  0  0  0
  -28.2620  -20.6970   21.2860 C   0  0  0  0  0  2  0  0  0  0  0  0
  -29.0830  -19.5660   20.6470 C   0  0  0  0  0  2  0  0  0  0  0  0
  -30.3630  -19.2330   21.4090 C   0  0  0  0  0  2  0  0  0  0  0  0
  -30.9280  -18.1230   20.7430 O   0  0  0  0  0  0  0  0  0  0  0  0
  -31.9940  -17.5230   21.4520 C   0  0  0  0  0  2  0  0  0  0  0  0
  -32.4010  -16.2770   20.6620 C   0  0  0  0  0  2  0  0  0  0  0  0
  -31.2340  -15.2680   20.4690 C   0  0  0  0  0  2  0  0  0  0  0  0
  -31.6240  -14.0340   19.6310 C   0  0  0  0  0  0  0  0  0  0  0  0
  -30.9630  -11.9280   18.5210 C   0  0  0  0  0  2  0  0  0  0  0  0
  -29.9330  -12.1850   17.3980 C   0  0  0  0  0  2  0  0  0  0  0  0
  -28.4980  -12.2820   17.9490 C   0  0  0  0  0  2  0  0  0  0  0  0
  -28.3860  -13.1930   19.1990 C   0  0  0  0  0  3  0  0  0  0  0  0
  -29.4820  -12.8320   20.2210 C   0  0  0  0  0  2  0  0  0  0  0  0
  -30.7870  -12.9650   19.5520 N   0  0  0  0  0  0  0  0  0  0  0  0
  -32.6710  -14.0900   18.9790 O   0  0  0  0  0  0  0  0  0  0  0  0
  -26.1610  -14.1560   20.0710 C   0  0  0  0  0  0  0  0  0  0  0  0
  -25.0210  -13.5540   20.5250 C   0  0  0  0  0  0  0  0  0  0  0  0
  -25.2700  -12.1480   20.4730 C   0  0  0  0  0  0  0  0  0  0  0  0
  -27.0450  -13.1290   19.7780 N   0  0  0  0  0  0  0  0  0  0  0  0
  -26.5100  -11.9150   20.0650 N   0  0  0  0  0  0  0  0  0  0  0  0
  -24.3830  -11.0090   20.7310 C   0  0  0  0  0  0  0  0  0  0  0  0
  -24.7450   -9.9720   21.6190 C   0  0  0  0  0  3  0  0  0  0  0  0
  -23.8640   -8.8960   21.8580 C   0  0  0  0  0  3  0  0  0  0  0  0
  -22.6070   -8.8500   21.2100 C   0  0  0  0  0  0  0  0  0  0  0  0
  -22.2640   -9.8700   20.3070 C   0  0  0  0  0  3  0  0  0  0  0  0
  -23.1440  -10.9380   20.0660 C   0  0  0  0  0  3  0  0  0  0  0  0
  -21.6960   -7.8310   21.3650 O   0  0  0  0  0  0  0  0  0  0  0  0
  -21.6410   -7.0820   22.5120 C   0  0  0  0  0  0  0  0  0  0  0  0
  -21.4480   -7.6730   23.7800 C   0  0  0  0  0  3  0  0  0  0  0  0
  -21.3330   -6.8600   24.9240 C   0  0  0  0  0  3  0  0  0  0  0  0
  -21.3980   -5.4580   24.8040 C   0  0  0  0  0  0  0  0  0  0  0  0
  -21.5850   -4.8690   23.5420 C   0  0  0  0  0  3  0  0  0  0  0  0
  -21.7030   -5.6800   22.3990 C   0  0  0  0  0  0  0  0  0  0  0  0
  -21.8610   -5.1030   21.1830 F   0  0  0  0  0  0  0  0  0  0  0  0
  -21.2810   -4.6760   25.9030 F   0  0  0  0  0  0  0  0  0  0  0  0
  -23.7360  -14.2300   20.9080 C   0  0  0  0  0  0  0  0  0  0  0  0
  -22.9890  -13.6510   21.8410 N   0  0  0  0  0  0  0  0  0  0  0  0
  -23.4110  -15.3060   20.4070 O   0  0  0  0  0  0  0  0  0  0  0  0
  -23.2750  -12.7820   22.2680 H   0  0  0  0  0  0  0  0  0  0  0  0
  -22.1210  -14.0760   22.1330 H   0  0  0  0  0  0  0  0  0  0  0  0
  -26.5170  -15.4880   19.8760 N   0  0  0  0  0  0  0  0  0  0  0  0
  -25.8720  -16.2510   20.0460 H   0  0  0  0  0  0  0  0  0  0  0  0
  -27.4100  -15.8000   19.5170 H   0  0  0  0  0  0  0  0  0  0  0  0
  -30.8870  -23.7030   20.7550 C   0  0  0  0  0  2  0  0  0  0  0  0
  -30.3630  -24.9160   21.2910 O   0  0  0  0  0  0  0  0  0  0  0  0
  -30.7130  -26.0830   20.5470 C   0  0  0  0  0  2  0  0  0  0  0  0
  -29.6340  -27.1560   20.7600 C   0  0  0  0  0  2  0  0  0  0  0  0
  -28.4710  -26.7480   20.0490 O   0  0  0  0  0  0  0  0  0  0  0  0
  -24.6450  -31.8940   23.2350 C   0  0  0  0  0  0  0  0  0  0  0  0
  -27.3290  -27.5150   20.1280 C   0  0  0  0  0  0  0  0  0  0  0  0
  -23.4390  -30.4900   21.5890 C   0  0  0  0  0  3  0  0  0  0  0  0
  -24.9040  -28.9640   20.1620 C   0  0  0  0  0  0  0  0  0  0  0  0
  -25.9580  -30.8750   21.3870 C   0  0  0  0  0  2  0  0  0  0  0  0
  -26.0530  -29.5080   20.7490 C   0  0  0  0  0  0  0  0  0  0  0  0
  -27.2680  -28.7930   20.7330 C   0  0  0  0  0  3  0  0  0  0  0  0
  -26.1620  -26.9770   19.5490 C   0  0  0  0  0  3  0  0  0  0  0  0
  -24.9500  -27.6930   19.5610 C   0  0  0  0  0  3  0  0  0  0  0  0
  -23.6500  -29.8090   20.2090 C   0  0  0  0  0  2  0  0  0  0  0  0
  -24.6980  -31.1010   22.1270 N   0  0  0  0  0  0  0  0  0  0  0  0
  -23.5650  -32.1570   23.7830 O   0  0  0  0  0  0  0  0  0  0  0  0
  -22.7980  -29.4620   22.5490 C   0  0  0  0  0  0  0  0  0  0  0  0
  -21.4740  -29.2780   22.4280 N   0  0  0  0  0  0  0  0  0  0  0  0
  -23.4900  -28.8350   23.3570 O   0  0  0  0  0  0  0  0  0  0  0  0
  -20.9780  -29.8350   21.7450 H   0  0  0  0  0  0  0  0  0  0  0  0
  -18.1080  -28.0740   22.9350 C   0  0  0  0  0  0  0  0  0  0  0  0
  -20.6640  -28.3360   23.2000 C   0  0  0  0  0  3  0  0  0  0  0  0
  -20.7690  -26.9070   22.6200 C   0  0  0  0  0  2  0  0  0  0  0  0
  -19.6660  -26.5840   21.6070 C   0  0  0  0  0  2  0  0  0  0  0  0
  -18.2850  -26.7250   22.2550 C   0  0  0  0  0  2  0  0  0  0  0  0
  -19.2250  -28.8370   23.3650 C   0  0  0  0  0  0  0  0  0  0  0  0
  -19.0050  -30.0980   23.9570 C   0  0  0  0  0  3  0  0  0  0  0  0
  -17.7010  -30.5970   24.1270 C   0  0  0  0  0  3  0  0  0  0  0  0
  -16.5960  -29.8290   23.7180 C   0  0  0  0  0  3  0  0  0  0  0  0
  -16.8020  -28.5710   23.1280 C   0  0  0  0  0  3  0  0  0  0  0  0
  -25.9330  -32.5280   23.8500 C   0  0  0  0  0  3  0  0  0  0  0  0
  -25.6160  -33.9170   24.2070 N   0  0  0  0  0  0  0  0  0  0  0  0
  -25.9270  -34.9830   23.4560 C   0  0  0  0  0  0  0  0  0  0  0  0
  -26.5850  -34.9030   22.4160 O   0  0  0  0  0  0  0  0  0  0  0  0
  -25.0410  -34.0550   25.0260 H   0  0  0  0  0  0  0  0  0  0  0  0
  -24.1700  -36.7540   23.1500 C   0  0  0  0  0  1  0  0  0  0  0  0
  -25.4290  -36.3580   23.9390 C   0  0  0  0  0  3  0  0  0  0  0  0
  -27.5680  -37.2560   24.7430 C   0  0  0  0  0  1  0  0  0  0  0  0
  -26.4450  -37.4260   23.8250 N   0  0  0  0  0  0  0  0  0  0  0  0
  -26.0290  -38.3360   24.0010 H   0  0  0  0  0  0  0  0  0  0  0  0
  -26.4780  -31.7390   25.1060 C   0  0  1  0  0  0  0  0  0  0  0  0
  -25.4030  -31.4720   26.1850 C   0  0  0  0  0  1  0  0  0  0  0  0
  -27.0680  -30.3750   24.6790 C   0  0  0  0  0  1  0  0  0  0  0  0
  -27.6280  -32.5340   25.7690 C   0  0  0  0  0  1  0  0  0  0  0  0
  1  2  2  0
  2 54  1  0
  3  2  1  0
  4  5  1  0
  4  3  2  0
  5  1  1  0
  6  7  1  0
  6  5  1  0
  7  8  1  0
  8  9  1  0
  9 10  1  0
 10 11  1  0
 12 11  1  0
 12 13  1  0
 14 13  1  0
 14 15  1  0
 16 15  1  0
 17 16  1  0
 18 17  1  0
 19 24  1  0
 20 21  1  0
 20 19  1  0
 22 21  1  0
 22 29  1  0
 22 23  1  0
 24 18  1  0
 24 23  1  0
 25 18  2  0
 26 27  2  0
 27 46  1  0
 28 27  1  0
 28 31  1  0
 29 30  1  0
 29 26  1  0
 30 28  2  0
 31 32  1  0
 32 33  2  0
 34 37  1  0
 34 33  1  0
 35 34  2  0
 36 35  1  0
 36 31  2  0
 37 38  1  0
 38 39  1  0
 39 40  2  0
 41 40  1  0
 41 45  1  0
 42 41  2  0
 43 38  2  0
 43 42  1  0
 44 43  1  0
 46 47  1  0
 47 50  1  0
 47 49  1  0
 48 46  2  0
 51 52  1  0
 51 26  1  0
 53 51  1  0
 54 55  1  0
 56 57  1  0
 56 55  1  0
 58 60  1  0
 58 57  1  0
 59 70  2  0
 60 65  1  0
 61 69  1  0
 61 71  1  0
 62 68  1  0
 62 64  1  0
 63 69  1  0
 64 63  1  0
 65 64  2  0
 66 67  1  0
 66 60  2  0
 67 62  2  0
 68 61  1  0
 69 59  1  0
 71 73  2  0
 72 71  1  0
 74 72  1  0
 75 84  2  0
 75 80  1  0
 76 72  1  0
 76 80  1  0
 77 76  1  0
 78 79  1  0
 78 77  1  0
 79 75  1  0
 80 81  2  0
 81 82  1  0
 83 82  2  0
 84 83  1  0
 85 59  1  0
 85 86  1  0
 85 95  1  0
 86 89  1  0
 87 91  1  0
 87 86  1  0
 88 87  2  0
 91 90  1  0
 93 91  1  0
 93 94  1  0
 93 92  1  0
 95 98  1  1
 95 96  1  0
 97 95  1  0
M  ISO  4  17 100  18 100  57 101  58 101
M  END
>  <TORSDO>  (18) 
F 32

>  <SCORE>  (18) 
-7.408

>  <name>  (18) 
17

>  <ligand_id>  (18) 
17

>  <original_smiles>  (18) 
[H]c1c([H])c([H])c2c(c1[H])C([H])([H])C([H])([H])C([H])([H])C2([H])N([H])C(=O)C1([H])N(C(=O)C([H])(N([H])C(=O)C([H])(N([H])C([H])([H])[H])C([H])([H])[H])C(C([H])([H])[H])(C([H])([H])[H])C([H])([H])[H])C([H])([H])c2c([H])c(OC([H])([H])C([H])([H])OC([H])([H])c3nnn(C([H])([H])C([H])([H])C([H])([H])OC([H])([H])C([H])([H])C([H])([H])C([H])([H])OC([H])([H])C([H])([H])C([H])([H])C(=O)N4C([H])([H])C([H])([H])C([H])([H])C([H])(n5nc(-c6c([H])c([H])c(Oc7c([H])c([H])c(F)c([H])c7F)c([H])c6[H])c(C(=O)N([H])[H])c5N([H])[H])C4([H])[H])c3[H])c([H])c([H])c2C1([H])[H]

>  <smiles>  (18) 
[H]c1c([H])c([H])c2c(c1[H])C([H])([H])C([H])([H])C([H])([H])C2([H])N([H])C(=O)C1([H])N(C(=O)C([H])(N([H])C(=O)C([H])(N([H])C([H])([H])[H])C([H])([H])[H])C(C([H])([H])[H])(C([H])([H])[H])C([H])([H])[H])C([H])([H])c2c([H])c(OC([H])([H])C([H])([H])OC([H])([H])c3nnn(C([H])([H])C([H])([H])C([H])([H])OC([H])([H])C([H])([H])C([H])([H])C([H])([H])OC([H])([H])C([H])([H])C([H])([H])C(=O)N4C([H])([H])C([H])([H])C([H])([H])C([H])(n5nc(-c6c([H])c([H])c(Oc7c([H])c([H])c(F)c([H])c7F)c([H])c6[H])c(C(=O)N([H])[H])c5N([H])[H])C4([H])[H])c3[H])c([H])c([H])c2C1([H])[H]

$$$$
18:0:0
     RDKit          3D

 89 97  0  0  1  0  0  0  0  0999 V2000
  -28.0630  -24.6820   20.2140 C   0  0  0  0  0  0  0  0  0  0  0  0
  -29.0030  -23.5510   19.9020 N   0  0  0  0  0  0  0  0  0  0  0  0
  -26.9000  -24.4450   20.5380 O   0  0  0  0  0  0  0  0  0  0  0  0
  -29.9180  -23.8750   19.6180 H   0  0  0  0  0  0  0  0  0  0  0  0
  -27.1870  -20.1090   20.2140 C   0  0  0  0  0  3  0  0  0  0  0  0
  -28.1510  -19.0870   20.0700 C   0  0  0  0  0  3  0  0  0  0  0  0
  -27.4990  -21.4880   20.1530 C   0  0  0  0  0  3  0  0  0  0  0  0
  -29.7960  -20.8590   19.7990 C   0  0  0  0  0  3  0  0  0  0  0  0
  -29.5090  -19.3760   19.8560 C   0  0  0  0  0  0  0  0  0  0  0  0
  -28.8080  -21.9900   19.9370 C   0  0  0  0  0  0  0  0  0  0  0  0
  -30.5360  -18.0600   19.7380 C   0  0  0  0  0  2  0  0  0  0  0  0
  -30.1720  -16.5530   19.9910 O   0  0  0  0  0  0  0  0  0  0  0  0
  -31.1070  -15.3100   19.8290 C   0  0  0  0  0  0  0  0  0  0  0  0
  -31.0740  -12.8350   19.1440 C   0  0  0  0  0  2  0  0  0  0  0  0
  -30.1190  -12.6290   17.9430 C   0  0  0  0  0  2  0  0  0  0  0  0
  -28.6840  -12.3680   18.4350 C   0  0  0  0  0  2  0  0  0  0  0  0
  -28.2450  -13.3730   19.5320 C   0  0  0  0  0  3  0  0  0  0  0  0
  -29.3140  -13.5830   20.6210 C   0  0  0  0  0  2  0  0  0  0  0  0
  -30.5540  -13.9760   19.9520 N   0  0  0  0  0  0  0  0  0  0  0  0
  -32.2780  -15.4230   19.4550 O   0  0  0  0  0  0  0  0  0  0  0  0
  -25.9330  -13.8880   20.4910 C   0  0  0  0  0  0  0  0  0  0  0  0
  -24.8960  -13.0870   20.8810 C   0  0  0  0  0  0  0  0  0  0  0  0
  -25.3500  -11.7420   20.7170 C   0  0  0  0  0  0  0  0  0  0  0  0
  -26.9490  -13.0310   20.1060 N   0  0  0  0  0  0  0  0  0  0  0  0
  -26.6150  -11.7300   20.3090 N   0  0  0  0  0  0  0  0  0  0  0  0
  -24.6310  -10.4690   20.8690 C   0  0  0  0  0  0  0  0  0  0  0  0
  -25.0310   -9.5020   21.8170 C   0  0  0  0  0  3  0  0  0  0  0  0
  -24.3110   -8.2960   21.9580 C   0  0  0  0  0  3  0  0  0  0  0  0
  -23.1760   -8.0480   21.1500 C   0  0  0  0  0  0  0  0  0  0  0  0
  -22.7960   -9.0050   20.1910 C   0  0  0  0  0  3  0  0  0  0  0  0
  -23.5170  -10.2020   20.0490 C   0  0  0  0  0  3  0  0  0  0  0  0
  -22.4300   -6.8950   21.1970 O   0  0  0  0  0  0  0  0  0  0  0  0
  -22.2100   -6.2300   22.3760 C   0  0  0  0  0  0  0  0  0  0  0  0
  -21.5780   -6.8500   23.4760 C   0  0  0  0  0  3  0  0  0  0  0  0
  -21.3080   -6.1070   24.6430 C   0  0  0  0  0  3  0  0  0  0  0  0
  -21.6600   -4.7470   24.7100 C   0  0  0  0  0  0  0  0  0  0  0  0
  -22.2850   -4.1260   23.6140 C   0  0  0  0  0  3  0  0  0  0  0  0
  -22.5560   -4.8650   22.4490 C   0  0  0  0  0  0  0  0  0  0  0  0
  -23.1380   -4.2560   21.3880 F   0  0  0  0  0  0  0  0  0  0  0  0
  -21.3950   -4.0310   25.8290 F   0  0  0  0  0  0  0  0  0  0  0  0
  -23.5260  -13.5440   21.2860 C   0  0  0  0  0  0  0  0  0  0  0  0
  -22.8650  -12.7970   22.1620 N   0  0  0  0  0  0  0  0  0  0  0  0
  -23.0530  -14.5980   20.8620 O   0  0  0  0  0  0  0  0  0  0  0  0
  -23.2640  -11.9440   22.5250 H   0  0  0  0  0  0  0  0  0  0  0  0
  -21.9480  -13.0810   22.4750 H   0  0  0  0  0  0  0  0  0  0  0  0
  -26.0940  -15.2680   20.4060 N   0  0  0  0  0  0  0  0  0  0  0  0
  -25.3500  -15.9180   20.6280 H   0  0  0  0  0  0  0  0  0  0  0  0
  -26.9350  -15.7240   20.0720 H   0  0  0  0  0  0  0  0  0  0  0  0
  -28.4850  -26.2130   20.1380 O   0  0  0  0  0  0  0  0  0  0  0  0
  -24.8900  -31.9120   23.3230 C   0  0  0  0  0  0  0  0  0  0  0  0
  -27.4990  -27.2930   20.1180 C   0  0  0  0  0  0  0  0  0  0  0  0
  -23.7200  -30.6080   21.5910 C   0  0  0  0  0  3  0  0  0  0  0  0
  -25.1950  -29.0990   20.1170 C   0  0  0  0  0  0  0  0  0  0  0  0
  -26.2850  -30.8490   21.5030 C   0  0  0  0  0  2  0  0  0  0  0  0
  -26.3660  -29.4860   20.7840 C   0  0  0  0  0  0  0  0  0  0  0  0
  -27.5180  -28.5980   20.7750 C   0  0  0  0  0  3  0  0  0  0  0  0
  -26.3110  -27.0460   19.3910 C   0  0  0  0  0  3  0  0  0  0  0  0
  -25.1850  -27.8940   19.4030 C   0  0  0  0  0  3  0  0  0  0  0  0
  -23.9720  -30.0040   20.1850 C   0  0  0  0  0  2  0  0  0  0  0  0
  -24.9840  -31.1430   22.1940 N   0  0  0  0  0  0  0  0  0  0  0  0
  -23.7930  -32.1770   23.8390 O   0  0  0  0  0  0  0  0  0  0  0  0
  -23.0150  -29.5560   22.4860 C   0  0  0  0  0  0  0  0  0  0  0  0
  -21.6870  -29.4050   22.3280 N   0  0  0  0  0  0  0  0  0  0  0  0
  -23.6650  -28.8830   23.2880 O   0  0  0  0  0  0  0  0  0  0  0  0
  -21.2190  -30.0000   21.6590 H   0  0  0  0  0  0  0  0  0  0  0  0
  -18.2800  -28.2400   22.7470 C   0  0  0  0  0  0  0  0  0  0  0  0
  -20.8430  -28.4380   23.0360 C   0  0  0  0  0  3  0  0  0  0  0  0
  -20.9200  -27.0440   22.3720 C   0  0  0  0  0  2  0  0  0  0  0  0
  -19.8160  -26.8060   21.3360 C   0  0  0  0  0  2  0  0  0  0  0  0
  -18.4350  -26.9330   21.9850 C   0  0  0  0  0  2  0  0  0  0  0  0
  -19.4110  -28.9530   23.2260 C   0  0  0  0  0  0  0  0  0  0  0  0
  -19.2100  -30.1780   23.9010 C   0  0  0  0  0  3  0  0  0  0  0  0
  -17.9130  -30.6870   24.0980 C   0  0  0  0  0  3  0  0  0  0  0  0
  -16.7970  -29.9700   23.6340 C   0  0  0  0  0  3  0  0  0  0  0  0
  -16.9810  -28.7470   22.9640 C   0  0  0  0  0  3  0  0  0  0  0  0
  -26.1550  -32.5110   24.0080 C   0  0  0  0  0  3  0  0  0  0  0  0
  -26.5820  -31.7290   25.3100 C   0  0  1  0  0  0  0  0  0  0  0  0
  -25.4300  -31.5250   26.3210 C   0  0  0  0  0  1  0  0  0  0  0  0
  -27.1460  -30.3330   24.9560 C   0  0  0  0  0  1  0  0  0  0  0  0
  -27.7190  -32.4920   26.0290 C   0  0  0  0  0  1  0  0  0  0  0  0
  -25.8670  -33.9190   24.3290 N   0  0  0  0  0  0  0  0  0  0  0  0
  -26.2500  -34.9670   23.5870 C   0  0  0  0  0  0  0  0  0  0  0  0
  -26.9480  -34.8500   22.5770 O   0  0  0  0  0  0  0  0  0  0  0  0
  -25.2530  -34.0860   25.1120 H   0  0  0  0  0  0  0  0  0  0  0  0
  -24.5840  -36.8110   23.1890 C   0  0  0  0  0  1  0  0  0  0  0  0
  -25.7880  -36.3670   24.0370 C   0  0  0  0  0  3  0  0  0  0  0  0
  -27.9160  -37.1950   24.9420 C   0  0  0  0  0  1  0  0  0  0  0  0
  -26.8520  -37.3930   23.9610 N   0  0  0  0  0  0  0  0  0  0  0  0
  -26.4660  -38.3230   24.0940 H   0  0  0  0  0  0  0  0  0  0  0  0
  1  3  2  0
  2 10  1  0
  2  1  1  0
  4  2  1  0
  6  5  2  0
  7  5  1  0
  8  9  2  0
  8 10  1  0
  9  6  1  0
 10  7  2  0
 11  9  1  0
 11 12  1  0
 13 19  1  0
 13 12  1  0
 14 19  1  0
 15 16  1  0
 15 14  1  0
 17 16  1  0
 17 24  1  0
 17 18  1  0
 19 18  1  0
 20 13  2  0
 21 22  2  0
 22 41  1  0
 23 26  1  0
 23 22  1  0
 24 25  1  0
 24 21  1  0
 25 23  2  0
 26 27  1  0
 27 28  2  0
 29 32  1  0
 29 28  1  0
 30 29  2  0
 31 30  1  0
 31 26  2  0
 32 33  1  0
 33 38  2  0
 33 34  1  0
 34 35  2  0
 35 36  1  0
 36 40  1  0
 37 36  2  0
 38 37  1  0
 39 38  1  0
 41 42  1  0
 42 45  1  0
 42 44  1  0
 43 41  2  0
 46 21  1  0
 46 47  1  0
 48 46  1  0
 49  1  1  0
 50 61  2  0
 51 49  1  0
 51 56  1  0
 52 60  1  0
 52 62  1  0
 53 59  1  0
 53 55  1  0
 54 60  1  0
 55 54  1  0
 56 55  2  0
 57 58  1  0
 57 51  2  0
 58 53  2  0
 59 52  1  0
 60 50  1  0
 62 64  2  0
 63 62  1  0
 65 63  1  0
 66 75  2  0
 66 71  1  0
 67 63  1  0
 67 71  1  0
 68 67  1  0
 69 70  1  0
 69 68  1  0
 70 66  1  0
 71 72  2  0
 72 73  1  0
 74 73  2  0
 75 74  1  0
 76 50  1  0
 76 81  1  0
 76 77  1  0
 77 80  1  1
 77 78  1  0
 79 77  1  0
 81 84  1  0
 82 86  1  0
 82 81  1  0
 83 82  2  0
 86 85  1  0
 88 86  1  0
 88 89  1  0
 88 87  1  0
M  ISO  4   1 101  12 100  13 100  49 101
M  END
>  <TORSDO>  (19) 
F 19

>  <SCORE>  (19) 
-12.038

>  <name>  (19) 
18

>  <ligand_id>  (19) 
18

>  <original_smiles>  (19) 
[H]c1c([H])c(N([H])C(=O)Oc2c([H])c([H])c3c(c2[H])C([H])([H])N(C(=O)C([H])(N([H])C(=O)C([H])(N([H])C([H])([H])[H])C([H])([H])[H])C(C([H])([H])[H])(C([H])([H])[H])C([H])([H])[H])C([H])(C(=O)N([H])C2([H])c4c([H])c([H])c([H])c([H])c4C([H])([H])C([H])([H])C2([H])[H])C3([H])[H])c([H])c(C([H])([H])OC(=O)N2C([H])([H])C([H])([H])C([H])([H])C([H])(n3nc(-c4c([H])c([H])c(Oc5c([H])c([H])c(F)c([H])c5F)c([H])c4[H])c(C(=O)N([H])[H])c3N([H])[H])C2([H])[H])c1[H]

>  <smiles>  (19) 
[H]c1c([H])c(N([H])C(=O)Oc2c([H])c([H])c3c(c2[H])C([H])([H])N(C(=O)C([H])(N([H])C(=O)C([H])(N([H])C([H])([H])[H])C([H])([H])[H])C(C([H])([H])[H])(C([H])([H])[H])C([H])([H])[H])C([H])(C(=O)N([H])C2([H])c4c([H])c([H])c([H])c([H])c4C([H])([H])C([H])([H])C2([H])[H])C3([H])[H])c([H])c(C([H])([H])OC(=O)N2C([H])([H])C([H])([H])C([H])([H])C([H])(n3nc(-c4c([H])c([H])c(Oc5c([H])c([H])c(F)c([H])c5F)c([H])c4[H])c(C(=O)N([H])[H])c3N([H])[H])C2([H])[H])c1[H]

$$$$
19:0:0
     RDKit          3D

 89 97  0  0  1  0  0  0  0  0999 V2000
  -28.9920  -22.1200   19.5690 O   0  0  0  0  0  0  0  0  0  0  0  0
  -29.6330  -18.3270   18.9320 C   0  0  0  0  0  3  0  0  0  0  0  0
  -29.7260  -18.6050   21.2660 C   0  0  0  0  0  3  0  0  0  0  0  0
  -29.3880  -19.7550   18.7990 C   0  0  0  0  0  3  0  0  0  0  0  0
  -29.5050  -20.0460   21.1270 C   0  0  0  0  0  3  0  0  0  0  0  0
  -29.8070  -17.6490   20.1820 C   0  0  0  0  0  0  0  0  0  0  0  0
  -29.2970  -20.7140   19.8710 C   0  0  0  0  0  0  0  0  0  0  0  0
  -30.5670  -15.0050   19.9290 C   0  0  0  0  0  0  0  0  0  0  0  0
  -30.3880  -12.6710   18.9530 C   0  0  0  0  0  2  0  0  0  0  0  0
  -29.3740  -12.6730   17.7850 C   0  0  0  0  0  2  0  0  0  0  0  0
  -27.9400  -12.4580   18.3070 C   0  0  0  0  0  2  0  0  0  0  0  0
  -27.6220  -13.3540   19.5330 C   0  0  0  0  0  3  0  0  0  0  0  0
  -28.7470  -13.3170   20.5890 C   0  0  0  0  0  2  0  0  0  0  0  0
  -29.9900  -13.7330   19.9210 N   0  0  0  0  0  0  0  0  0  0  0  0
  -31.7060  -15.1150   19.4610 O   0  0  0  0  0  0  0  0  0  0  0  0
  -29.8220  -16.1240   20.3820 N   0  0  0  0  0  0  0  0  0  0  0  0
  -29.0430  -15.8110   20.9450 H   0  0  0  0  0  0  0  0  0  0  0  0
  -25.2960  -13.9290   20.4400 C   0  0  0  0  0  0  0  0  0  0  0  0
  -24.2530  -13.1500   20.8600 C   0  0  0  0  0  0  0  0  0  0  0  0
  -24.7030  -11.7980   20.7600 C   0  0  0  0  0  0  0  0  0  0  0  0
  -26.3140  -13.0510   20.1060 N   0  0  0  0  0  0  0  0  0  0  0  0
  -25.9700  -11.7610   20.3610 N   0  0  0  0  0  0  0  0  0  0  0  0
  -23.9790  -10.5350   20.9640 C   0  0  0  0  0  0  0  0  0  0  0  0
  -24.4390   -9.5580   21.8740 C   0  0  0  0  0  3  0  0  0  0  0  0
  -23.7160   -8.3630   22.0680 C   0  0  0  0  0  3  0  0  0  0  0  0
  -22.5170   -8.1330   21.3500 C   0  0  0  0  0  0  0  0  0  0  0  0
  -22.0750   -9.0990   20.4280 C   0  0  0  0  0  3  0  0  0  0  0  0
  -22.8000  -10.2860   20.2330 C   0  0  0  0  0  3  0  0  0  0  0  0
  -21.7620   -6.9910   21.4540 O   0  0  0  0  0  0  0  0  0  0  0  0
  -21.7170   -6.2590   22.6150 C   0  0  0  0  0  0  0  0  0  0  0  0
  -21.2630   -6.8160   23.8300 C   0  0  0  0  0  3  0  0  0  0  0  0
  -21.1690   -6.0110   24.9810 C   0  0  0  0  0  3  0  0  0  0  0  0
  -21.5180   -4.6490   24.9190 C   0  0  0  0  0  0  0  0  0  0  0  0
  -21.9670   -4.0900   23.7090 C   0  0  0  0  0  3  0  0  0  0  0  0
  -22.0640   -4.8940   22.5580 C   0  0  0  0  0  0  0  0  0  0  0  0
  -22.4750   -4.3470   21.3900 F   0  0  0  0  0  0  0  0  0  0  0  0
  -21.4210   -3.8720   26.0230 F   0  0  0  0  0  0  0  0  0  0  0  0
  -22.8820  -13.6280   21.2390 C   0  0  0  0  0  0  0  0  0  0  0  0
  -22.2110  -12.9170   22.1380 N   0  0  0  0  0  0  0  0  0  0  0  0
  -22.4180  -14.6690   20.7760 O   0  0  0  0  0  0  0  0  0  0  0  0
  -22.6030  -12.0760   22.5350 H   0  0  0  0  0  0  0  0  0  0  0  0
  -21.2950  -13.2200   22.4350 H   0  0  0  0  0  0  0  0  0  0  0  0
  -25.4600  -15.3020   20.2900 N   0  0  0  0  0  0  0  0  0  0  0  0
  -24.7070  -15.9580   20.4680 H   0  0  0  0  0  0  0  0  0  0  0  0
  -26.2850  -15.7440   19.9040 H   0  0  0  0  0  0  0  0  0  0  0  0
  -28.8480  -23.3870   20.4400 C   0  0  0  0  0  2  0  0  0  0  0  0
  -28.2850  -24.7610   19.6990 C   0  0  0  0  0  0  0  0  0  0  0  0
  -27.8690  -24.6030   18.5470 O   0  0  0  0  0  0  0  0  0  0  0  0
  -28.2430  -26.1710   20.3520 O   0  0  0  0  0  0  0  0  0  0  0  0
  -24.6290  -31.8930   23.2500 C   0  0  0  0  0  0  0  0  0  0  0  0
  -27.2130  -27.1790   20.2040 C   0  0  0  0  0  0  0  0  0  0  0  0
  -23.4330  -30.5020   21.6070 C   0  0  0  0  0  3  0  0  0  0  0  0
  -24.8830  -28.9350   20.1750 C   0  0  0  0  0  0  0  0  0  0  0  0
  -25.9880  -30.7620   21.4490 C   0  0  0  0  0  2  0  0  0  0  0  0
  -26.0620  -29.3740   20.7900 C   0  0  0  0  0  0  0  0  0  0  0  0
  -27.2220  -28.5100   20.7930 C   0  0  0  0  0  3  0  0  0  0  0  0
  -26.0010  -26.8490   19.5520 C   0  0  0  0  0  3  0  0  0  0  0  0
  -24.8660  -27.6870   19.5410 C   0  0  0  0  0  3  0  0  0  0  0  0
  -23.6560  -29.8310   20.2250 C   0  0  0  0  0  2  0  0  0  0  0  0
  -24.7040  -31.0730   22.1570 N   0  0  0  0  0  0  0  0  0  0  0  0
  -23.5420  -32.1770   23.7760 O   0  0  0  0  0  0  0  0  0  0  0  0
  -22.7500  -29.4910   22.5640 C   0  0  0  0  0  0  0  0  0  0  0  0
  -21.4260  -29.3050   22.4180 N   0  0  0  0  0  0  0  0  0  0  0  0
  -23.4170  -28.8790   23.4030 O   0  0  0  0  0  0  0  0  0  0  0  0
  -20.9460  -29.8500   21.7170 H   0  0  0  0  0  0  0  0  0  0  0  0
  -18.0570  -28.0490   22.8600 C   0  0  0  0  0  0  0  0  0  0  0  0
  -20.6030  -28.3660   23.1850 C   0  0  0  0  0  3  0  0  0  0  0  0
  -20.7470  -26.9260   22.6390 C   0  0  0  0  0  2  0  0  0  0  0  0
  -19.6760  -26.5630   21.6040 C   0  0  0  0  0  2  0  0  0  0  0  0
  -18.2760  -26.6920   22.2130 C   0  0  0  0  0  2  0  0  0  0  0  0
  -19.1500  -28.8410   23.3030 C   0  0  0  0  0  0  0  0  0  0  0  0
  -18.8900  -30.1070   23.8700 C   0  0  0  0  0  3  0  0  0  0  0  0
  -17.5720  -30.5830   23.9980 C   0  0  0  0  0  3  0  0  0  0  0  0
  -16.4940  -29.7890   23.5690 C   0  0  0  0  0  3  0  0  0  0  0  0
  -16.7360  -28.5240   23.0060 C   0  0  0  0  0  3  0  0  0  0  0  0
  -25.9060  -32.5260   23.8810 C   0  0  0  0  0  3  0  0  0  0  0  0
  -26.4030  -31.7650   25.1710 C   0  0  1  0  0  0  0  0  0  0  0  0
  -25.2970  -31.5440   26.2300 C   0  0  0  0  0  1  0  0  0  0  0  0
  -26.9850  -30.3800   24.8050 C   0  0  0  0  0  1  0  0  0  0  0  0
  -27.5500  -32.5610   25.8380 C   0  0  0  0  0  1  0  0  0  0  0  0
  -25.5990  -33.9300   24.2000 N   0  0  0  0  0  0  0  0  0  0  0  0
  -25.9210  -34.9770   23.4290 C   0  0  0  0  0  0  0  0  0  0  0  0
  -26.5750  -34.8630   22.3890 O   0  0  0  0  0  0  0  0  0  0  0  0
  -25.0160  -34.0910   25.0080 H   0  0  0  0  0  0  0  0  0  0  0  0
  -24.1840  -36.7690   23.1000 C   0  0  0  0  0  1  0  0  0  0  0  0
  -25.4460  -36.3710   23.8840 C   0  0  0  0  0  3  0  0  0  0  0  0
  -27.5930  -37.2790   24.6590 C   0  0  0  0  0  1  0  0  0  0  0  0
  -26.4760  -37.4220   23.7280 N   0  0  0  0  0  0  0  0  0  0  0  0
  -26.0730  -38.3460   23.8550 H   0  0  0  0  0  0  0  0  0  0  0  0
  1  7  1  0
  1 46  1  0
  2  6  1  0
  4  2  2  0
  4  7  1  0
  5  3  1  0
  6 16  1  0
  6  3  2  0
  7  5  2  0
  8 16  1  0
  9 14  1  0
 10 11  1  0
 10  9  1  0
 12 11  1  0
 12 21  1  0
 12 13  1  0
 14  8  1  0
 14 13  1  0
 15  8  2  0
 16 17  1  0
 18 19  2  0
 19 38  1  0
 20 19  1  0
 20 23  1  0
 21 22  1  0
 21 18  1  0
 22 20  2  0
 23 24  1  0
 24 25  2  0
 26 29  1  0
 26 25  1  0
 27 26  2  0
 28 27  1  0
 28 23  2  0
 29 30  1  0
 30 31  1  0
 31 32  2  0
 33 32  1  0
 33 37  1  0
 34 33  2  0
 35 30  2  0
 35 34  1  0
 36 35  1  0
 38 39  1  0
 39 42  1  0
 39 41  1  0
 40 38  2  0
 43 18  1  0
 43 44  1  0
 45 43  1  0
 47 49  1  0
 47 46  1  0
 48 47  2  0
 50 61  2  0
 51 49  1  0
 51 56  1  0
 52 60  1  0
 52 62  1  0
 53 59  1  0
 53 55  1  0
 54 60  1  0
 55 56  2  0
 55 54  1  0
 57 51  2  0
 58 57  1  0
 58 53  2  0
 59 52  1  0
 60 50  1  0
 62 64  2  0
 63 62  1  0
 65 63  1  0
 66 75  2  0
 66 71  1  0
 67 63  1  0
 67 71  1  0
 68 67  1  0
 69 70  1  0
 69 68  1  0
 70 66  1  0
 71 72  2  0
 72 73  1  0
 74 73  2  0
 75 74  1  0
 76 50  1  0
 76 81  1  0
 76 77  1  0
 77 80  1  1
 77 78  1  0
 79 77  1  0
 81 84  1  0
 82 86  1  0
 82 81  1  0
 83 82  2  0
 86 85  1  0
 88 89  1  0
 88 86  1  0
 88 87  1  0
M  ISO  4   8 100  16 100  47 101  49 101
M  END
>  <TORSDO>  (20) 
F 19

>  <SCORE>  (20) 
-13.811

>  <name>  (20) 
19

>  <ligand_id>  (20) 
19

>  <original_smiles>  (20) 
[H]c1c([H])c([H])c2c(c1[H])C([H])([H])C([H])([H])C([H])([H])C2([H])N([H])C(=O)C1([H])N(C(=O)C([H])(N([H])C(=O)C([H])(N([H])C([H])([H])[H])C([H])([H])[H])C(C([H])([H])[H])(C([H])([H])[H])C([H])([H])[H])C([H])([H])c2c([H])c(OC(=O)C([H])([H])Oc3c([H])c([H])c(N([H])C(=O)N4C([H])([H])C([H])([H])C([H])([H])C([H])(n5nc(-c6c([H])c([H])c(Oc7c([H])c([H])c(F)c([H])c7F)c([H])c6[H])c(C(=O)N([H])[H])c5N([H])[H])C4([H])[H])c([H])c3[H])c([H])c([H])c2C1([H])[H]

>  <smiles>  (20) 
[H]c1c([H])c([H])c2c(c1[H])C([H])([H])C([H])([H])C([H])([H])C2([H])N([H])C(=O)C1([H])N(C(=O)C([H])(N([H])C(=O)C([H])(N([H])C([H])([H])[H])C([H])([H])[H])C(C([H])([H])[H])(C([H])([H])[H])C([H])([H])[H])C([H])([H])c2c([H])c(OC(=O)C([H])([H])Oc3c([H])c([H])c(N([H])C(=O)N4C([H])([H])C([H])([H])C([H])([H])C([H])(n5nc(-c6c([H])c([H])c(Oc7c([H])c([H])c(F)c([H])c7F)c([H])c6[H])c(C(=O)N([H])[H])c5N([H])[H])C4([H])[H])c([H])c3[H])c([H])c([H])c2C1([H])[H]

$$$$
20:0:0
     RDKit          3D

 87 94  0  0  1  0  0  0  0  0999 V2000
  -29.1130  -22.7980   20.1480 O   0  0  0  0  0  0  0  0  0  0  0  0
  -29.2650  -24.1800   20.5710 C   0  0  0  0  0  2  0  0  0  0  0  0
  -28.1950  -25.1410   19.9510 C   0  0  0  0  0  2  0  0  0  0  0  0
  -28.3440  -26.5690   20.2300 O   0  0  0  0  0  0  0  0  0  0  0  0
  -24.6030  -31.8820   23.2540 C   0  0  0  0  0  0  0  0  0  0  0  0
  -27.2030  -27.3700   20.1730 C   0  0  0  0  0  0  0  0  0  0  0  0
  -23.3880  -30.4910   21.6140 C   0  0  0  0  0  3  0  0  0  0  0  0
  -24.8290  -28.9470   20.1790 C   0  0  0  0  0  0  0  0  0  0  0  0
  -25.9230  -30.8160   21.4190 C   0  0  0  0  0  2  0  0  0  0  0  0
  -25.9960  -29.4430   20.7740 C   0  0  0  0  0  0  0  0  0  0  0  0
  -27.1840  -28.6630   20.7670 C   0  0  0  0  0  3  0  0  0  0  0  0
  -26.0140  -26.9200   19.5460 C   0  0  0  0  0  3  0  0  0  0  0  0
  -24.8370  -27.6890   19.5590 C   0  0  0  0  0  3  0  0  0  0  0  0
  -23.5920  -29.8180   20.2320 C   0  0  0  0  0  2  0  0  0  0  0  0
  -24.6560  -31.0790   22.1530 N   0  0  0  0  0  0  0  0  0  0  0  0
  -23.5240  -32.1610   23.7950 O   0  0  0  0  0  0  0  0  0  0  0  0
  -22.7290  -29.4710   22.5730 C   0  0  0  0  0  0  0  0  0  0  0  0
  -21.4040  -29.2960   22.4460 N   0  0  0  0  0  0  0  0  0  0  0  0
  -23.4090  -28.8420   23.3890 O   0  0  0  0  0  0  0  0  0  0  0  0
  -20.9160  -29.8550   21.7610 H   0  0  0  0  0  0  0  0  0  0  0  0
  -18.0240  -28.1080   22.9390 C   0  0  0  0  0  0  0  0  0  0  0  0
  -20.5820  -28.3620   23.2170 C   0  0  0  0  0  3  0  0  0  0  0  0
  -20.6820  -26.9290   22.6440 C   0  0  0  0  0  2  0  0  0  0  0  0
  -19.5830  -26.6070   21.6270 C   0  0  0  0  0  2  0  0  0  0  0  0
  -18.2000  -26.7570   22.2670 C   0  0  0  0  0  2  0  0  0  0  0  0
  -19.1430  -28.8680   23.3700 C   0  0  0  0  0  0  0  0  0  0  0  0
  -18.9250  -30.1340   23.9590 C   0  0  0  0  0  3  0  0  0  0  0  0
  -17.6220  -30.6390   24.1180 C   0  0  0  0  0  3  0  0  0  0  0  0
  -16.5170  -29.8760   23.7040 C   0  0  0  0  0  3  0  0  0  0  0  0
  -16.7190  -28.6120   23.1200 C   0  0  0  0  0  3  0  0  0  0  0  0
  -25.8930  -32.5060   23.8720 C   0  0  0  0  0  3  0  0  0  0  0  0
  -26.4080  -31.7310   25.1470 C   0  0  1  0  0  0  0  0  0  0  0  0
  -25.3180  -31.5010   26.2190 C   0  0  0  0  0  1  0  0  0  0  0  0
  -26.9820  -30.3500   24.7520 C   0  0  0  0  0  1  0  0  0  0  0  0
  -27.5640  -32.5190   25.8080 C   0  0  0  0  0  1  0  0  0  0  0  0
  -25.5920  -33.9060   24.2030 N   0  0  0  0  0  0  0  0  0  0  0  0
  -25.9250  -34.9570   23.4410 C   0  0  0  0  0  0  0  0  0  0  0  0
  -26.5890  -34.8480   22.4060 O   0  0  0  0  0  0  0  0  0  0  0  0
  -25.0030  -34.0650   25.0080 H   0  0  0  0  0  0  0  0  0  0  0  0
  -24.2020  -36.7560   23.0930 C   0  0  0  0  0  1  0  0  0  0  0  0
  -25.4460  -36.3470   23.8980 C   0  0  0  0  0  3  0  0  0  0  0  0
  -27.5900  -37.2240   24.7140 C   0  0  0  0  0  1  0  0  0  0  0  0
  -26.4820  -37.3950   23.7780 N   0  0  0  0  0  0  0  0  0  0  0  0
  -26.0800  -38.3170   23.9270 H   0  0  0  0  0  0  0  0  0  0  0  0
  -29.8660  -21.8260   20.9130 C   0  0  0  0  0  2  0  0  0  0  0  0
  -29.9940  -20.3890   20.2800 C   0  0  0  0  0  2  0  0  0  0  0  0
  -29.6060  -19.3250   21.1790 O   0  0  0  0  0  0  0  0  0  0  0  0
  -30.3560  -18.0820   21.1900 C   0  0  0  0  0  2  0  0  0  0  0  0
  -29.9920  -17.0260   20.1000 C   0  0  0  0  0  2  0  0  0  0  0  0
  -30.6580  -14.5630   20.1340 C   0  0  0  0  0  0  0  0  0  0  0  0
  -30.3320  -12.3860   19.0110 C   0  0  0  0  0  2  0  0  0  0  0  0
  -29.3420  -12.5990   17.8440 C   0  0  0  0  0  2  0  0  0  0  0  0
  -27.8850  -12.4670   18.3310 C   0  0  0  0  0  2  0  0  0  0  0  0
  -27.6040  -13.2910   19.6150 C   0  0  0  0  0  3  0  0  0  0  0  0
  -28.7030  -13.0590   20.6790 C   0  0  0  0  0  2  0  0  0  0  0  0
  -30.0040  -13.3660   20.0610 N   0  0  0  0  0  0  0  0  0  0  0  0
  -31.7760  -14.7380   19.6440 O   0  0  0  0  0  0  0  0  0  0  0  0
  -29.9110  -15.6090   20.5580 N   0  0  0  0  0  0  0  0  0  0  0  0
  -29.0360  -15.3490   20.9880 H   0  0  0  0  0  0  0  0  0  0  0  0
  -25.2410  -13.9170   20.4180 C   0  0  0  0  0  0  0  0  0  0  0  0
  -24.1800  -13.1550   20.8240 C   0  0  0  0  0  0  0  0  0  0  0  0
  -24.6260  -11.7980   20.7700 C   0  0  0  0  0  0  0  0  0  0  0  0
  -26.2680  -13.0270   20.1440 N   0  0  0  0  0  0  0  0  0  0  0  0
  -25.9040  -11.7470   20.4140 N   0  0  0  0  0  0  0  0  0  0  0  0
  -23.8950  -10.5420   20.9820 C   0  0  0  0  0  0  0  0  0  0  0  0
  -24.3570   -9.5630   21.8880 C   0  0  0  0  0  3  0  0  0  0  0  0
  -23.6260   -8.3710   22.0880 C   0  0  0  0  0  3  0  0  0  0  0  0
  -22.4190   -8.1520   21.3830 C   0  0  0  0  0  0  0  0  0  0  0  0
  -21.9750   -9.1210   20.4660 C   0  0  0  0  0  3  0  0  0  0  0  0
  -22.7060  -10.3040   20.2640 C   0  0  0  0  0  3  0  0  0  0  0  0
  -21.6570   -7.0150   21.4950 O   0  0  0  0  0  0  0  0  0  0  0  0
  -21.6560   -6.2580   22.6390 C   0  0  0  0  0  0  0  0  0  0  0  0
  -21.3040   -6.8040   23.8930 C   0  0  0  0  0  3  0  0  0  0  0  0
  -21.2500   -5.9740   25.0310 C   0  0  0  0  0  3  0  0  0  0  0  0
  -21.5350   -4.6010   24.9170 C   0  0  0  0  0  0  0  0  0  0  0  0
  -21.8800   -4.0550   23.6680 C   0  0  0  0  0  3  0  0  0  0  0  0
  -21.9370   -4.8820   22.5310 C   0  0  0  0  0  0  0  0  0  0  0  0
  -22.2490   -4.3460   21.3260 F   0  0  0  0  0  0  0  0  0  0  0  0
  -21.4760   -3.8020   26.0080 F   0  0  0  0  0  0  0  0  0  0  0  0
  -22.7990  -13.6450   21.1510 C   0  0  0  0  0  0  0  0  0  0  0  0
  -22.0980  -12.9520   22.0420 N   0  0  0  0  0  0  0  0  0  0  0  0
  -22.3520  -14.6760   20.6520 O   0  0  0  0  0  0  0  0  0  0  0  0
  -22.4730  -12.1180   22.4680 H   0  0  0  0  0  0  0  0  0  0  0  0
  -21.1730  -13.2630   22.3040 H   0  0  0  0  0  0  0  0  0  0  0  0
  -25.4140  -15.2870   20.2390 N   0  0  0  0  0  0  0  0  0  0  0  0
  -24.6560  -15.9470   20.3780 H   0  0  0  0  0  0  0  0  0  0  0  0
  -26.2510  -15.7180   19.8670 H   0  0  0  0  0  0  0  0  0  0  0  0
  1  2  1  0
  1 45  1  0
  3  4  1  0
  3  2  1  0
  5 16  2  0
  6  4  1  0
  6 11  1  0
  7 15  1  0
  7 17  1  0
  8 14  1  0
  8 10  1  0
  9 15  1  0
 10  9  1  0
 11 10  2  0
 12 13  1  0
 12  6  2  0
 13  8  2  0
 14  7  1  0
 15  5  1  0
 17 19  2  0
 18 17  1  0
 20 18  1  0
 21 30  2  0
 21 26  1  0
 22 18  1  0
 22 26  1  0
 23 22  1  0
 24 25  1  0
 24 23  1  0
 25 21  1  0
 26 27  2  0
 27 28  1  0
 29 28  2  0
 30 29  1  0
 31  5  1  0
 31 36  1  0
 31 32  1  0
 32 35  1  1
 32 33  1  0
 34 32  1  0
 36 39  1  0
 37 41  1  0
 37 36  1  0
 38 37  2  0
 41 40  1  0
 43 41  1  0
 43 44  1  0
 43 42  1  0
 46 45  1  0
 46 47  1  0
 47 48  1  0
 49 58  1  0
 49 48  1  0
 50 58  1  0
 51 56  1  0
 52 53  1  0
 52 51  1  0
 54 53  1  0
 54 63  1  0
 54 55  1  0
 56 50  1  0
 56 55  1  0
 57 50  2  0
 58 59  1  0
 60 61  2  0
 61 80  1  0
 62 61  1  0
 62 65  1  0
 63 64  1  0
 63 60  1  0
 64 62  2  0
 65 66  1  0
 66 67  2  0
 68 71  1  0
 68 67  1  0
 69 68  2  0
 70 69  1  0
 70 65  2  0
 71 72  1  0
 72 73  1  0
 73 74  2  0
 75 74  1  0
 75 79  1  0
 76 75  2  0
 77 72  2  0
 77 76  1  0
 78 77  1  0
 80 81  1  0
 81 84  1  0
 81 83  1  0
 82 80  2  0
 85 86  1  0
 85 60  1  0
 87 85  1  0
M  ISO  4   3 101   4 101  50 100  58 100
M  END
>  <TORSDO>  (21) 
F 23

>  <SCORE>  (21) 
-12.462

>  <name>  (21) 
20

>  <ligand_id>  (21) 
20

>  <original_smiles>  (21) 
[H]c1c([H])c([H])c2c(c1[H])C([H])([H])C([H])([H])C([H])([H])C2([H])N([H])C(=O)C1([H])N(C(=O)C([H])(N([H])C(=O)C([H])(N([H])C([H])([H])[H])C([H])([H])[H])C(C([H])([H])[H])(C([H])([H])[H])C([H])([H])[H])C([H])([H])c2c([H])c(OC([H])([H])C([H])([H])OC([H])([H])C([H])([H])OC([H])([H])C([H])([H])N([H])C(=O)N3C([H])([H])C([H])([H])C([H])([H])C([H])(n4nc(-c5c([H])c([H])c(Oc6c([H])c([H])c(F)c([H])c6F)c([H])c5[H])c(C(=O)N([H])[H])c4N([H])[H])C3([H])[H])c([H])c([H])c2C1([H])[H]

>  <smiles>  (21) 
[H]c1c([H])c([H])c2c(c1[H])C([H])([H])C([H])([H])C([H])([H])C2([H])N([H])C(=O)C1([H])N(C(=O)C([H])(N([H])C(=O)C([H])(N([H])C([H])([H])[H])C([H])([H])[H])C(C([H])([H])[H])(C([H])([H])[H])C([H])([H])[H])C([H])([H])c2c([H])c(OC([H])([H])C([H])([H])OC([H])([H])C([H])([H])OC([H])([H])C([H])([H])N([H])C(=O)N3C([H])([H])C([H])([H])C([H])([H])C([H])(n4nc(-c5c([H])c([H])c(Oc6c([H])c([H])c(F)c([H])c6F)c([H])c5[H])c(C(=O)N([H])[H])c4N([H])[H])C3([H])[H])c([H])c([H])c2C1([H])[H]

$$$$
21:0:0
     RDKit          3D

 87 94  0  0  1  0  0  0  0  0999 V2000
  -29.1130  -22.7980   20.1480 O   0  0  0  0  0  0  0  0  0  0  0  0
  -29.2650  -24.1800   20.5710 C   0  0  0  0  0  2  0  0  0  0  0  0
  -28.1950  -25.1410   19.9510 C   0  0  0  0  0  2  0  0  0  0  0  0
  -28.3440  -26.5690   20.2300 O   0  0  0  0  0  0  0  0  0  0  0  0
  -24.6030  -31.8820   23.2540 C   0  0  0  0  0  0  0  0  0  0  0  0
  -27.2030  -27.3700   20.1730 C   0  0  0  0  0  0  0  0  0  0  0  0
  -23.3880  -30.4910   21.6140 C   0  0  0  0  0  3  0  0  0  0  0  0
  -24.8290  -28.9470   20.1790 C   0  0  0  0  0  0  0  0  0  0  0  0
  -25.9230  -30.8160   21.4190 C   0  0  0  0  0  2  0  0  0  0  0  0
  -25.9960  -29.4430   20.7740 C   0  0  0  0  0  0  0  0  0  0  0  0
  -27.1840  -28.6630   20.7670 C   0  0  0  0  0  3  0  0  0  0  0  0
  -26.0140  -26.9200   19.5460 C   0  0  0  0  0  3  0  0  0  0  0  0
  -24.8370  -27.6890   19.5590 C   0  0  0  0  0  3  0  0  0  0  0  0
  -23.5920  -29.8180   20.2320 C   0  0  0  0  0  2  0  0  0  0  0  0
  -24.6560  -31.0790   22.1530 N   0  0  0  0  0  0  0  0  0  0  0  0
  -23.5240  -32.1610   23.7950 O   0  0  0  0  0  0  0  0  0  0  0  0
  -22.7290  -29.4710   22.5730 C   0  0  0  0  0  0  0  0  0  0  0  0
  -21.4040  -29.2960   22.4460 N   0  0  0  0  0  0  0  0  0  0  0  0
  -23.4090  -28.8420   23.3890 O   0  0  0  0  0  0  0  0  0  0  0  0
  -20.9160  -29.8550   21.7610 H   0  0  0  0  0  0  0  0  0  0  0  0
  -18.0240  -28.1080   22.9390 C   0  0  0  0  0  0  0  0  0  0  0  0
  -20.5820  -28.3620   23.2170 C   0  0  0  0  0  3  0  0  0  0  0  0
  -20.6820  -26.9290   22.6440 C   0  0  0  0  0  2  0  0  0  0  0  0
  -19.5830  -26.6070   21.6270 C   0  0  0  0  0  2  0  0  0  0  0  0
  -18.2000  -26.7570   22.2670 C   0  0  0  0  0  2  0  0  0  0  0  0
  -19.1430  -28.8680   23.3700 C   0  0  0  0  0  0  0  0  0  0  0  0
  -18.9250  -30.1340   23.9590 C   0  0  0  0  0  3  0  0  0  0  0  0
  -17.6220  -30.6390   24.1180 C   0  0  0  0  0  3  0  0  0  0  0  0
  -16.5170  -29.8760   23.7040 C   0  0  0  0  0  3  0  0  0  0  0  0
  -16.7190  -28.6120   23.1200 C   0  0  0  0  0  3  0  0  0  0  0  0
  -25.8930  -32.5060   23.8720 C   0  0  0  0  0  3  0  0  0  0  0  0
  -26.4080  -31.7310   25.1470 C   0  0  1  0  0  0  0  0  0  0  0  0
  -25.3180  -31.5010   26.2190 C   0  0  0  0  0  1  0  0  0  0  0  0
  -26.9820  -30.3500   24.7520 C   0  0  0  0  0  1  0  0  0  0  0  0
  -27.5640  -32.5190   25.8080 C   0  0  0  0  0  1  0  0  0  0  0  0
  -25.5920  -33.9060   24.2030 N   0  0  0  0  0  0  0  0  0  0  0  0
  -25.9250  -34.9570   23.4410 C   0  0  0  0  0  0  0  0  0  0  0  0
  -26.5890  -34.8480   22.4060 O   0  0  0  0  0  0  0  0  0  0  0  0
  -25.0030  -34.0650   25.0080 H   0  0  0  0  0  0  0  0  0  0  0  0
  -24.2020  -36.7560   23.0930 C   0  0  0  0  0  1  0  0  0  0  0  0
  -25.4460  -36.3470   23.8980 C   0  0  0  0  0  3  0  0  0  0  0  0
  -27.5900  -37.2240   24.7140 C   0  0  0  0  0  1  0  0  0  0  0  0
  -26.4820  -37.3950   23.7780 N   0  0  0  0  0  0  0  0  0  0  0  0
  -26.0800  -38.3170   23.9270 H   0  0  0  0  0  0  0  0  0  0  0  0
  -29.8660  -21.8260   20.9130 C   0  0  0  0  0  2  0  0  0  0  0  0
  -29.9940  -20.3890   20.2800 C   0  0  0  0  0  2  0  0  0  0  0  0
  -29.6060  -19.3250   21.1790 O   0  0  0  0  0  0  0  0  0  0  0  0
  -30.3560  -18.0820   21.1900 C   0  0  0  0  0  2  0  0  0  0  0  0
  -29.9920  -17.0260   20.1000 C   0  0  0  0  0  2  0  0  0  0  0  0
  -30.6580  -14.5630   20.1340 C   0  0  0  0  0  0  0  0  0  0  0  0
  -30.3320  -12.3860   19.0110 C   0  0  0  0  0  2  0  0  0  0  0  0
  -29.3420  -12.5990   17.8440 C   0  0  0  0  0  2  0  0  0  0  0  0
  -27.8850  -12.4670   18.3310 C   0  0  0  0  0  2  0  0  0  0  0  0
  -27.6040  -13.2910   19.6150 C   0  0  0  0  0  3  0  0  0  0  0  0
  -28.7030  -13.0590   20.6790 C   0  0  0  0  0  2  0  0  0  0  0  0
  -30.0040  -13.3660   20.0610 N   0  0  0  0  0  0  0  0  0  0  0  0
  -31.7760  -14.7380   19.6440 O   0  0  0  0  0  0  0  0  0  0  0  0
  -29.9110  -15.6090   20.5580 N   0  0  0  0  0  0  0  0  0  0  0  0
  -29.0360  -15.3490   20.9880 H   0  0  0  0  0  0  0  0  0  0  0  0
  -25.2410  -13.9170   20.4180 C   0  0  0  0  0  0  0  0  0  0  0  0
  -24.1800  -13.1550   20.8240 C   0  0  0  0  0  0  0  0  0  0  0  0
  -24.6260  -11.7980   20.7700 C   0  0  0  0  0  0  0  0  0  0  0  0
  -26.2680  -13.0270   20.1440 N   0  0  0  0  0  0  0  0  0  0  0  0
  -25.9040  -11.7470   20.4140 N   0  0  0  0  0  0  0  0  0  0  0  0
  -23.8950  -10.5420   20.9820 C   0  0  0  0  0  0  0  0  0  0  0  0
  -24.3570   -9.5630   21.8880 C   0  0  0  0  0  3  0  0  0  0  0  0
  -23.6260   -8.3710   22.0880 C   0  0  0  0  0  3  0  0  0  0  0  0
  -22.4190   -8.1520   21.3830 C   0  0  0  0  0  0  0  0  0  0  0  0
  -21.9750   -9.1210   20.4660 C   0  0  0  0  0  3  0  0  0  0  0  0
  -22.7060  -10.3040   20.2640 C   0  0  0  0  0  3  0  0  0  0  0  0
  -21.6570   -7.0150   21.4950 O   0  0  0  0  0  0  0  0  0  0  0  0
  -21.6560   -6.2580   22.6390 C   0  0  0  0  0  0  0  0  0  0  0  0
  -21.3040   -6.8040   23.8930 C   0  0  0  0  0  3  0  0  0  0  0  0
  -21.2500   -5.9740   25.0310 C   0  0  0  0  0  3  0  0  0  0  0  0
  -21.5350   -4.6010   24.9170 C   0  0  0  0  0  0  0  0  0  0  0  0
  -21.8800   -4.0550   23.6680 C   0  0  0  0  0  3  0  0  0  0  0  0
  -21.9370   -4.8820   22.5310 C   0  0  0  0  0  0  0  0  0  0  0  0
  -22.2490   -4.3460   21.3260 F   0  0  0  0  0  0  0  0  0  0  0  0
  -21.4760   -3.8020   26.0080 F   0  0  0  0  0  0  0  0  0  0  0  0
  -22.7990  -13.6450   21.1510 C   0  0  0  0  0  0  0  0  0  0  0  0
  -22.0980  -12.9520   22.0420 N   0  0  0  0  0  0  0  0  0  0  0  0
  -22.3520  -14.6760   20.6520 O   0  0  0  0  0  0  0  0  0  0  0  0
  -22.4730  -12.1180   22.4680 H   0  0  0  0  0  0  0  0  0  0  0  0
  -21.1730  -13.2630   22.3040 H   0  0  0  0  0  0  0  0  0  0  0  0
  -25.4140  -15.2870   20.2390 N   0  0  0  0  0  0  0  0  0  0  0  0
  -24.6560  -15.9470   20.3780 H   0  0  0  0  0  0  0  0  0  0  0  0
  -26.2510  -15.7180   19.8670 H   0  0  0  0  0  0  0  0  0  0  0  0
  1  2  1  0
  1 45  1  0
  3  4  1  0
  3  2  1  0
  5 16  2  0
  6  4  1  0
  6 11  1  0
  7 15  1  0
  7 17  1  0
  8 14  1  0
  8 10  1  0
  9 15  1  0
 10  9  1  0
 11 10  2  0
 12 13  1  0
 12  6  2  0
 13  8  2  0
 14  7  1  0
 15  5  1  0
 17 19  2  0
 18 17  1  0
 20 18  1  0
 21 30  2  0
 21 26  1  0
 22 18  1  0
 22 26  1  0
 23 22  1  0
 24 25  1  0
 24 23  1  0
 25 21  1  0
 26 27  2  0
 27 28  1  0
 29 28  2  0
 30 29  1  0
 31  5  1  0
 31 36  1  0
 31 32  1  0
 32 35  1  1
 32 33  1  0
 34 32  1  0
 36 39  1  0
 37 41  1  0
 37 36  1  0
 38 37  2  0
 41 40  1  0
 43 41  1  0
 43 44  1  0
 43 42  1  0
 46 45  1  0
 46 47  1  0
 47 48  1  0
 49 58  1  0
 49 48  1  0
 50 58  1  0
 51 56  1  0
 52 53  1  0
 52 51  1  0
 54 53  1  0
 54 63  1  0
 54 55  1  0
 56 50  1  0
 56 55  1  0
 57 50  2  0
 58 59  1  0
 60 61  2  0
 61 80  1  0
 62 61  1  0
 62 65  1  0
 63 64  1  0
 63 60  1  0
 64 62  2  0
 65 66  1  0
 66 67  2  0
 68 71  1  0
 68 67  1  0
 69 68  2  0
 70 69  1  0
 70 65  2  0
 71 72  1  0
 72 73  1  0
 73 74  2  0
 75 74  1  0
 75 79  1  0
 76 75  2  0
 77 72  2  0
 77 76  1  0
 78 77  1  0
 80 81  1  0
 81 84  1  0
 81 83  1  0
 82 80  2  0
 85 86  1  0
 85 60  1  0
 87 85  1  0
M  ISO  4   3 101   4 101  50 100  58 100
M  END
>  <TORSDO>  (22) 
F 23

>  <SCORE>  (22) 
-12.462

>  <name>  (22) 
21

>  <ligand_id>  (22) 
21

>  <original_smiles>  (22) 
[H]c1c([H])c([H])c2c(c1[H])C([H])([H])C([H])([H])C([H])([H])C2([H])N([H])C(=O)C1([H])N(C(=O)C([H])(N([H])C(=O)C([H])(N([H])C([H])([H])[H])C([H])([H])[H])C(C([H])([H])[H])(C([H])([H])[H])C([H])([H])[H])C([H])([H])c2c([H])c(OC([H])([H])C([H])([H])OC([H])([H])C([H])([H])OC([H])([H])C([H])([H])N([H])C(=O)N3C([H])([H])C([H])([H])C([H])([H])C([H])(n4nc(-c5c([H])c([H])c(Oc6c([H])c([H])c(F)c([H])c6F)c([H])c5[H])c(C(=O)N([H])[H])c4N([H])[H])C3([H])[H])c([H])c([H])c2C1([H])[H]

>  <smiles>  (22) 
[H]c1c([H])c([H])c2c(c1[H])C([H])([H])C([H])([H])C([H])([H])C2([H])N([H])C(=O)C1([H])N(C(=O)C([H])(N([H])C(=O)C([H])(N([H])C([H])([H])[H])C([H])([H])[H])C(C([H])([H])[H])(C([H])([H])[H])C([H])([H])[H])C([H])([H])c2c([H])c(OC([H])([H])C([H])([H])OC([H])([H])C([H])([H])OC([H])([H])C([H])([H])N([H])C(=O)N3C([H])([H])C([H])([H])C([H])([H])C([H])(n4nc(-c5c([H])c([H])c(Oc6c([H])c([H])c(F)c([H])c6F)c([H])c5[H])c(C(=O)N([H])[H])c4N([H])[H])C3([H])[H])c([H])c([H])c2C1([H])[H]

$$$$
22:0:0
     RDKit          3D

 85 92  0  0  1  0  0  0  0  0999 V2000
  -28.9750  -23.3500   20.3750 C   0  0  0  0  0  3  0  0  0  0  0  0
  -27.9560  -24.6690   20.0940 C   0  0  0  0  0  2  0  0  0  0  0  0
  -28.2430  -26.1940   20.2680 O   0  0  0  0  0  0  0  0  0  0  0  0
  -24.6460  -31.9030   23.2490 C   0  0  0  0  0  0  0  0  0  0  0  0
  -27.1910  -27.1810   20.2040 C   0  0  0  0  0  0  0  0  0  0  0  0
  -23.4340  -30.5130   21.6150 C   0  0  0  0  0  3  0  0  0  0  0  0
  -24.8680  -28.9340   20.1830 C   0  0  0  0  0  0  0  0  0  0  0  0
  -25.9880  -30.7680   21.4390 C   0  0  0  0  0  2  0  0  0  0  0  0
  -26.0530  -29.3760   20.7850 C   0  0  0  0  0  0  0  0  0  0  0  0
  -27.2150  -28.5160   20.7770 C   0  0  0  0  0  3  0  0  0  0  0  0
  -25.9780  -26.8410   19.5630 C   0  0  0  0  0  3  0  0  0  0  0  0
  -24.8440  -27.6790   19.5560 C   0  0  0  0  0  3  0  0  0  0  0  0
  -23.6450  -29.8350   20.2360 C   0  0  0  0  0  2  0  0  0  0  0  0
  -24.7100  -31.0840   22.1560 N   0  0  0  0  0  0  0  0  0  0  0  0
  -23.5640  -32.1920   23.7810 O   0  0  0  0  0  0  0  0  0  0  0  0
  -22.7550  -29.5090   22.5790 C   0  0  0  0  0  0  0  0  0  0  0  0
  -21.4280  -29.3310   22.4470 N   0  0  0  0  0  0  0  0  0  0  0  0
  -23.4240  -28.8910   23.4120 O   0  0  0  0  0  0  0  0  0  0  0  0
  -20.9440  -29.8820   21.7500 H   0  0  0  0  0  0  0  0  0  0  0  0
  -18.0530  -28.1000   22.9220 C   0  0  0  0  0  0  0  0  0  0  0  0
  -20.6050  -28.3960   23.2190 C   0  0  0  0  0  3  0  0  0  0  0  0
  -20.7310  -26.9570   22.6670 C   0  0  0  0  0  2  0  0  0  0  0  0
  -19.6460  -26.6080   21.6430 C   0  0  0  0  0  2  0  0  0  0  0  0
  -18.2540  -26.7450   22.2660 C   0  0  0  0  0  2  0  0  0  0  0  0
  -19.1570  -28.8830   23.3550 C   0  0  0  0  0  0  0  0  0  0  0  0
  -18.9160  -30.1490   23.9300 C   0  0  0  0  0  3  0  0  0  0  0  0
  -17.6020  -30.6350   24.0740 C   0  0  0  0  0  3  0  0  0  0  0  0
  -16.5120  -29.8520   23.6570 C   0  0  0  0  0  3  0  0  0  0  0  0
  -16.7390  -28.5860   23.0860 C   0  0  0  0  0  3  0  0  0  0  0  0
  -25.9300  -32.5330   23.8710 C   0  0  0  0  0  3  0  0  0  0  0  0
  -25.6240  -33.9320   24.2110 N   0  0  0  0  0  0  0  0  0  0  0  0
  -25.9330  -34.9890   23.4490 C   0  0  0  0  0  0  0  0  0  0  0  0
  -26.5730  -34.8900   22.3990 O   0  0  0  0  0  0  0  0  0  0  0  0
  -25.0510  -34.0820   25.0280 H   0  0  0  0  0  0  0  0  0  0  0  0
  -24.1800  -36.7740   23.1690 C   0  0  0  0  0  1  0  0  0  0  0  0
  -25.4590  -36.3760   23.9250 C   0  0  0  0  0  3  0  0  0  0  0  0
  -27.6210  -37.2770   24.6630 C   0  0  0  0  0  1  0  0  0  0  0  0
  -26.4790  -37.4360   23.7660 N   0  0  0  0  0  0  0  0  0  0  0  0
  -26.0740  -38.3530   23.9260 H   0  0  0  0  0  0  0  0  0  0  0  0
  -26.4450  -31.7590   25.1470 C   0  0  1  0  0  0  0  0  0  0  0  0
  -25.3510  -31.5270   26.2170 C   0  0  0  0  0  1  0  0  0  0  0  0
  -27.0210  -30.3790   24.7590 C   0  0  0  0  0  1  0  0  0  0  0  0
  -27.6000  -32.5480   25.8070 C   0  0  0  0  0  1  0  0  0  0  0  0
  -28.5630  -21.7150   20.2260 C   0  0  0  0  0  3  0  0  0  0  0  0
  -29.5050  -20.5030   20.4320 O   0  0  0  0  0  0  0  0  0  0  0  0
  -29.0950  -19.0100   20.3560 C   0  0  0  0  0  3  0  0  0  0  0  0
  -30.1530  -17.7000   20.4880 C   0  0  0  0  0  3  0  0  0  0  0  0
  -30.5250  -14.9830   20.3480 C   0  0  0  0  0  0  0  0  0  0  0  0
  -30.3970  -12.6420   19.3880 C   0  0  0  0  0  2  0  0  0  0  0  0
  -29.4560  -12.6070   18.1620 C   0  0  0  0  0  2  0  0  0  0  0  0
  -27.9970  -12.3890   18.6060 C   0  0  0  0  0  2  0  0  0  0  0  0
  -27.5960  -13.3050   19.7910 C   0  0  0  0  0  3  0  0  0  0  0  0
  -28.6590  -13.3150   20.9100 C   0  0  0  0  0  2  0  0  0  0  0  0
  -29.9240  -13.7280   20.2910 N   0  0  0  0  0  0  0  0  0  0  0  0
  -31.7260  -15.0500   20.0670 O   0  0  0  0  0  0  0  0  0  0  0  0
  -29.7590  -16.1680   20.5090 N   0  0  0  0  0  0  0  0  0  0  0  0
  -28.7780  -15.9930   20.6750 H   0  0  0  0  0  0  0  0  0  0  0  0
  -25.2170  -13.8670   20.5460 C   0  0  0  0  0  0  0  0  0  0  0  0
  -24.1590  -13.0830   20.9170 C   0  0  0  0  0  0  0  0  0  0  0  0
  -24.6330  -11.7350   20.8800 C   0  0  0  0  0  0  0  0  0  0  0  0
  -26.2640  -12.9960   20.2970 N   0  0  0  0  0  0  0  0  0  0  0  0
  -25.9220  -11.7080   20.5640 N   0  0  0  0  0  0  0  0  0  0  0  0
  -23.9140  -10.4680   21.0660 C   0  0  0  0  0  0  0  0  0  0  0  0
  -24.3590   -9.4960   21.9900 C   0  0  0  0  0  3  0  0  0  0  0  0
  -23.6390   -8.2940   22.1660 C   0  0  0  0  0  3  0  0  0  0  0  0
  -22.4600   -8.0560   21.4200 C   0  0  0  0  0  0  0  0  0  0  0  0
  -22.0350   -9.0170   20.4850 C   0  0  0  0  0  3  0  0  0  0  0  0
  -22.7550  -10.2100   20.3070 C   0  0  0  0  0  3  0  0  0  0  0  0
  -21.7110   -6.9070   21.5050 O   0  0  0  0  0  0  0  0  0  0  0  0
  -21.6790   -6.1530   22.6510 C   0  0  0  0  0  0  0  0  0  0  0  0
  -21.2580   -6.6910   23.8860 C   0  0  0  0  0  3  0  0  0  0  0  0
  -21.1760   -5.8630   25.0230 C   0  0  0  0  0  3  0  0  0  0  0  0
  -21.5020   -4.4980   24.9260 C   0  0  0  0  0  0  0  0  0  0  0  0
  -21.9170   -3.9590   23.6950 C   0  0  0  0  0  3  0  0  0  0  0  0
  -22.0020   -4.7840   22.5600 C   0  0  0  0  0  0  0  0  0  0  0  0
  -22.3810   -4.2550   21.3720 F   0  0  0  0  0  0  0  0  0  0  0  0
  -21.4160   -3.6990   26.0150 F   0  0  0  0  0  0  0  0  0  0  0  0
  -22.7600  -13.5500   21.1950 C   0  0  0  0  0  0  0  0  0  0  0  0
  -22.0430  -12.8520   22.0670 N   0  0  0  0  0  0  0  0  0  0  0  0
  -22.3130  -14.5720   20.6730 O   0  0  0  0  0  0  0  0  0  0  0  0
  -22.4180  -12.0250   22.5070 H   0  0  0  0  0  0  0  0  0  0  0  0
  -21.1060  -13.1500   22.2990 H   0  0  0  0  0  0  0  0  0  0  0  0
  -25.3700  -15.2390   20.3690 N   0  0  0  0  0  0  0  0  0  0  0  0
  -24.5960  -15.8850   20.4750 H   0  0  0  0  0  0  0  0  0  0  0  0
  -26.2030  -15.6800   20.0020 H   0  0  0  0  0  0  0  0  0  0  0  0
  2  3  1  0
  2  1  1  0
  4 15  2  0
  5  3  1  0
  5 10  1  0
  6 14  1  0
  6 16  1  0
  7 13  1  0
  7  9  1  0
  8 14  1  0
  9  8  1  0
 10  9  2  0
 11  5  2  0
 12 11  1  0
 12  7  2  0
 13  6  1  0
 14  4  1  0
 16 18  2  0
 17 16  1  0
 19 17  1  0
 20 29  2  0
 20 25  1  0
 21 17  1  0
 21 25  1  0
 22 21  1  0
 23 24  1  0
 23 22  1  0
 24 20  1  0
 25 26  2  0
 26 27  1  0
 28 27  2  0
 29 28  1  0
 30  4  1  0
 30 31  1  0
 30 40  1  0
 31 34  1  0
 32 36  1  0
 32 31  1  0
 33 32  2  0
 36 35  1  0
 38 36  1  0
 38 39  1  0
 38 37  1  0
 40 43  1  1
 40 41  1  0
 42 40  1  0
 44  1  2  0
 44 45  1  0
 46 45  1  0
 46 47  2  0
 47 56  1  0
 48 56  1  0
 49 54  1  0
 50 51  1  0
 50 49  1  0
 52 51  1  0
 52 61  1  0
 52 53  1  0
 54 48  1  0
 54 53  1  0
 55 48  2  0
 56 57  1  0
 58 59  2  0
 59 78  1  0
 60 59  1  0
 60 63  1  0
 61 58  1  0
 61 62  1  0
 62 60  2  0
 63 64  1  0
 64 65  2  0
 66 69  1  0
 66 65  1  0
 67 66  2  0
 68 67  1  0
 68 63  2  0
 69 70  1  0
 70 71  1  0
 71 72  2  0
 73 72  1  0
 73 77  1  0
 74 73  2  0
 75 70  2  0
 75 74  1  0
 76 75  1  0
 78 79  1  0
 79 82  1  0
 79 81  1  0
 80 78  2  0
 83 84  1  0
 83 58  1  0
 85 83  1  0
M  ISO  4   2 101   3 101  48 100  56 100
M  END
>  <TORSDO>  (23) 
F 21

>  <SCORE>  (23) 
-13.192

>  <name>  (23) 
22

>  <ligand_id>  (23) 
22

>  <original_smiles>  (23) 
[H]c1c([H])c([H])c2c(c1[H])C([H])([H])C([H])([H])C([H])([H])C2([H])N([H])C(=O)C1([H])N(C(=O)C([H])(N([H])C(=O)C([H])(N([H])C([H])([H])[H])C([H])([H])[H])C(C([H])([H])[H])(C([H])([H])[H])C([H])([H])[H])C([H])([H])c2c([H])c(OC([H])([H])C([H])([H])C([H])([H])OC([H])([H])C([H])([H])N([H])C(=O)N3C([H])([H])C([H])([H])C([H])([H])C([H])(n4nc(-c5c([H])c([H])c(Oc6c([H])c([H])c(F)c([H])c6F)c([H])c5[H])c(C(=O)N([H])[H])c4N([H])[H])C3([H])[H])c([H])c([H])c2C1([H])[H]

>  <smiles>  (23) 
[H]c1c([H])c([H])c2c(c1[H])C([H])([H])C([H])([H])C([H])([H])C2([H])N([H])C(=O)C1([H])N(C(=O)C([H])(N([H])C(=O)C([H])(N([H])C([H])([H])[H])C([H])([H])[H])C(C([H])([H])[H])(C([H])([H])[H])C([H])([H])[H])C([H])([H])c2c([H])c(OC([H])([H])C([H])([H])C([H])([H])OC([H])([H])C([H])([H])N([H])C(=O)N3C([H])([H])C([H])([H])C([H])([H])C([H])(n4nc(-c5c([H])c([H])c(Oc6c([H])c([H])c(F)c([H])c6F)c([H])c5[H])c(C(=O)N([H])[H])c4N([H])[H])C3([H])[H])c([H])c([H])c2C1([H])[H]

$$$$
23:0:0
     RDKit          3D

 96104  0  0  1  0  0  0  0  0999 V2000
  -30.4290  -22.0300   23.9950 C   0  0  0  0  0  0  0  0  0  0  0  0
  -30.9370  -23.2240   23.5130 N   0  0  0  0  0  0  0  0  0  0  0  0
  -29.7550  -21.9240   25.0190 O   0  0  0  0  0  0  0  0  0  0  0  0
  -30.7070  -24.0490   24.0500 H   0  0  0  0  0  0  0  0  0  0  0  0
  -31.7030  -23.4070   22.2820 C   0  0  0  0  0  2  0  0  0  0  0  0
  -30.7770  -23.6180   21.0770 C   0  0  0  0  0  2  0  0  0  0  0  0
  -30.0940  -24.8590   21.2140 O   0  0  0  0  0  0  0  0  0  0  0  0
  -29.3380  -25.1810   20.0540 C   0  0  0  0  0  2  0  0  0  0  0  0
  -28.7390  -26.5930   20.1570 C   0  0  0  0  0  2  0  0  0  0  0  0
  -27.7360  -26.6950   19.1520 O   0  0  0  0  0  0  0  0  0  0  0  0
  -24.6600  -31.6410   23.2870 C   0  0  0  0  0  0  0  0  0  0  0  0
  -26.6610  -27.5020   19.4340 C   0  0  0  0  0  0  0  0  0  0  0  0
  -23.1960  -30.5390   21.6230 C   0  0  0  0  0  3  0  0  0  0  0  0
  -24.3860  -29.1050   19.8820 C   0  0  0  0  0  0  0  0  0  0  0  0
  -25.7060  -30.7700   21.2030 C   0  0  0  0  0  2  0  0  0  0  0  0
  -25.6270  -29.4860   20.4090 C   0  0  0  0  0  0  0  0  0  0  0  0
  -26.7700  -28.6870   20.1940 C   0  0  0  0  0  3  0  0  0  0  0  0
  -25.4110  -27.1320   18.9020 C   0  0  0  0  0  3  0  0  0  0  0  0
  -24.2680  -27.9220   19.1310 C   0  0  0  0  0  3  0  0  0  0  0  0
  -23.2170  -30.0230   20.1580 C   0  0  0  0  0  2  0  0  0  0  0  0
  -24.5450  -30.9880   22.0960 N   0  0  0  0  0  0  0  0  0  0  0  0
  -23.6620  -31.9080   23.9710 O   0  0  0  0  0  0  0  0  0  0  0  0
  -22.5680  -29.4460   22.5180 C   0  0  0  0  0  0  0  0  0  0  0  0
  -21.2370  -29.2900   22.4250 N   0  0  0  0  0  0  0  0  0  0  0  0
  -23.2720  -28.7470   23.2510 O   0  0  0  0  0  0  0  0  0  0  0  0
  -20.7300  -29.9070   21.8040 H   0  0  0  0  0  0  0  0  0  0  0  0
  -17.8840  -28.0190   22.8480 C   0  0  0  0  0  0  0  0  0  0  0  0
  -20.4360  -28.3010   23.1450 C   0  0  0  0  0  3  0  0  0  0  0  0
  -20.5650  -26.9060   22.4920 C   0  0  0  0  0  2  0  0  0  0  0  0
  -19.4710  -26.6190   21.4600 C   0  0  0  0  0  2  0  0  0  0  0  0
  -18.0850  -26.7090   22.1040 C   0  0  0  0  0  2  0  0  0  0  0  0
  -18.9890  -28.7740   23.3230 C   0  0  0  0  0  0  0  0  0  0  0  0
  -18.7490  -30.0020   23.9760 C   0  0  0  0  0  3  0  0  0  0  0  0
  -17.4370  -30.4740   24.1620 C   0  0  0  0  0  3  0  0  0  0  0  0
  -16.3460  -29.7160   23.7050 C   0  0  0  0  0  3  0  0  0  0  0  0
  -16.5700  -28.4890   23.0530 C   0  0  0  0  0  3  0  0  0  0  0  0
  -26.0470  -32.1020   23.8360 C   0  0  0  0  0  3  0  0  0  0  0  0
  -25.8870  -33.4670   24.3520 N   0  0  0  0  0  0  0  0  0  0  0  0
  -26.2860  -34.5730   23.7080 C   0  0  0  0  0  0  0  0  0  0  0  0
  -26.8990  -34.5420   22.6390 O   0  0  0  0  0  0  0  0  0  0  0  0
  -25.3430  -33.5710   25.1960 H   0  0  0  0  0  0  0  0  0  0  0  0
  -24.7360  -36.5510   23.6420 C   0  0  0  0  0  1  0  0  0  0  0  0
  -25.9480  -35.9300   24.3540 C   0  0  0  0  0  3  0  0  0  0  0  0
  -28.1770  -36.4880   25.2200 C   0  0  0  0  0  1  0  0  0  0  0  0
  -27.0780  -36.8840   24.3440 N   0  0  0  0  0  0  0  0  0  0  0  0
  -26.7680  -37.8110   24.6230 H   0  0  0  0  0  0  0  0  0  0  0  0
  -26.6230  -31.1460   24.9520 C   0  0  1  0  0  0  0  0  0  0  0  0
  -25.6230  -30.8500   26.0920 C   0  0  0  0  0  1  0  0  0  0  0  0
  -27.0580  -29.7940   24.3420 C   0  0  0  0  0  1  0  0  0  0  0  0
  -27.8880  -31.7770   25.5810 C   0  0  0  0  0  1  0  0  0  0  0  0
  -30.7630  -20.9980   23.1950 O   0  0  0  0  0  0  0  0  0  0  0  0
  -30.3340  -19.6870   23.5490 C   0  0  0  0  0  2  0  0  0  0  0  0
  -31.1350  -18.8310   21.2630 C   0  0  0  0  0  3  0  0  0  0  0  0
  -30.8950  -17.2650   23.1080 C   0  0  0  0  0  3  0  0  0  0  0  0
  -31.4830  -17.7600   20.4090 C   0  0  0  0  0  3  0  0  0  0  0  0
  -31.2380  -16.1960   22.2570 C   0  0  0  0  0  3  0  0  0  0  0  0
  -30.8260  -18.5850   22.6190 C   0  0  0  0  0  0  0  0  0  0  0  0
  -31.5360  -16.4350   20.8960 C   0  0  0  0  0  0  0  0  0  0  0  0
  -32.4080  -14.2490   20.1330 C   0  0  0  0  0  0  0  0  0  0  0  0
  -31.9190  -12.0390   19.1770 C   0  0  0  0  0  2  0  0  0  0  0  0
  -30.9410  -12.2400   17.9960 C   0  0  0  0  0  2  0  0  0  0  0  0
  -29.4750  -12.2780   18.4830 C   0  0  0  0  0  2  0  0  0  0  0  0
  -29.2660  -13.2200   19.7010 C   0  0  0  0  0  3  0  0  0  0  0  0
  -30.3460  -12.9510   20.7740 C   0  0  0  0  0  2  0  0  0  0  0  0
  -31.6580  -13.1170   20.1380 N   0  0  0  0  0  0  0  0  0  0  0  0
  -33.5850  -14.2710   19.7630 O   0  0  0  0  0  0  0  0  0  0  0  0
  -31.6870  -15.3700   19.9700 N   0  0  0  0  0  0  0  0  0  0  0  0
  -31.9750  -15.7530   19.0820 H   0  0  0  0  0  0  0  0  0  0  0  0
  -27.0230  -14.1200   20.5860 C   0  0  0  0  0  0  0  0  0  0  0  0
  -25.8690  -13.4850   20.9590 C   0  0  0  0  0  0  0  0  0  0  0  0
  -26.1220  -12.0870   20.8110 C   0  0  0  0  0  0  0  0  0  0  0  0
  -27.9140  -13.1130   20.2400 N   0  0  0  0  0  0  0  0  0  0  0  0
  -27.3770  -11.8820   20.4330 N   0  0  0  0  0  0  0  0  0  0  0  0
  -25.2260  -10.9340   20.9540 C   0  0  0  0  0  0  0  0  0  0  0  0
  -25.5070   -9.8920   21.8640 C   0  0  0  0  0  3  0  0  0  0  0  0
  -24.6220   -8.8000   21.9980 C   0  0  0  0  0  3  0  0  0  0  0  0
  -23.4420   -8.7450   21.2190 C   0  0  0  0  0  0  0  0  0  0  0  0
  -23.1800   -9.7720   20.2960 C   0  0  0  0  0  3  0  0  0  0  0  0
  -24.0650  -10.8560   20.1610 C   0  0  0  0  0  3  0  0  0  0  0  0
  -22.5350   -7.7130   21.2660 O   0  0  0  0  0  0  0  0  0  0  0  0
  -22.1770   -7.1240   22.4520 C   0  0  0  0  0  0  0  0  0  0  0  0
  -21.6900   -7.8780   23.5420 C   0  0  0  0  0  3  0  0  0  0  0  0
  -21.2670   -7.2240   24.7170 C   0  0  0  0  0  3  0  0  0  0  0  0
  -21.3190   -5.8200   24.8000 C   0  0  0  0  0  0  0  0  0  0  0  0
  -21.7990   -5.0670   23.7130 C   0  0  0  0  0  3  0  0  0  0  0  0
  -22.2240   -5.7180   22.5420 C   0  0  0  0  0  0  0  0  0  0  0  0
  -22.6650   -4.9870   21.4890 F   0  0  0  0  0  0  0  0  0  0  0  0
  -20.9060   -5.1900   25.9250 F   0  0  0  0  0  0  0  0  0  0  0  0
  -24.5730  -14.1380   21.3430 C   0  0  0  0  0  0  0  0  0  0  0  0
  -23.8060  -13.5020   22.2210 N   0  0  0  0  0  0  0  0  0  0  0  0
  -24.2560  -15.2420   20.9030 O   0  0  0  0  0  0  0  0  0  0  0  0
  -24.0780  -12.6070   22.6030 H   0  0  0  0  0  0  0  0  0  0  0  0
  -22.9350  -13.9180   22.5200 H   0  0  0  0  0  0  0  0  0  0  0  0
  -27.3810  -15.4610   20.4950 N   0  0  0  0  0  0  0  0  0  0  0  0
  -26.7340  -16.2080   20.7180 H   0  0  0  0  0  0  0  0  0  0  0  0
  -28.2900  -15.7980   20.2020 H   0  0  0  0  0  0  0  0  0  0  0  0
  1  3  2  0
  2  1  1  0
  2  4  1  0
  5  2  1  0
  6  7  1  0
  6  5  1  0
  8  9  1  0
  8  7  1  0
 10 12  1  0
 10  9  1  0
 11 22  2  0
 12 17  1  0
 13 21  1  0
 13 23  1  0
 14 20  1  0
 14 16  1  0
 15 21  1  0
 16 15  1  0
 17 16  2  0
 18 19  1  0
 18 12  2  0
 19 14  2  0
 20 13  1  0
 21 11  1  0
 23 25  2  0
 24 23  1  0
 26 24  1  0
 27 36  2  0
 27 32  1  0
 28 24  1  0
 28 32  1  0
 29 28  1  0
 30 31  1  0
 30 29  1  0
 31 27  1  0
 32 33  2  0
 33 34  1  0
 35 34  2  0
 36 35  1  0
 37 11  1  0
 37 38  1  0
 37 47  1  0
 38 41  1  0
 39 38  1  0
 39 43  1  0
 40 39  2  0
 43 42  1  0
 45 43  1  0
 45 46  1  0
 45 44  1  0
 47 50  1  1
 47 48  1  0
 49 47  1  0
 51 52  1  0
 51  1  1  0
 53 57  1  0
 55 58  1  0
 55 53  2  0
 56 54  1  0
 57 54  2  0
 57 52  1  0
 58 56  2  0
 59 65  1  0
 60 65  1  0
 61 62  1  0
 61 60  1  0
 63 62  1  0
 63 72  1  0
 63 64  1  0
 65 64  1  0
 66 59  2  0
 67 59  1  0
 67 58  1  0
 68 67  1  0
 69 70  2  0
 70 89  1  0
 71 74  1  0
 71 70  1  0
 72 73  1  0
 72 69  1  0
 73 71  2  0
 74 75  1  0
 75 76  2  0
 77 80  1  0
 77 76  1  0
 78 77  2  0
 79 78  1  0
 79 74  2  0
 80 81  1  0
 81 86  2  0
 81 82  1  0
 82 83  2  0
 83 84  1  0
 84 88  1  0
 85 84  2  0
 86 85  1  0
 87 86  1  0
 89 90  1  0
 90 93  1  0
 90 92  1  0
 91 89  2  0
 94 69  1  0
 94 95  1  0
 96 94  1  0
M  ISO  4   9 101  10 101  59 100  67 100
M  END
>  <TORSDO>  (24) 
F 24

>  <SCORE>  (24) 
-7.461

>  <name>  (24) 
23

>  <ligand_id>  (24) 
23

>  <original_smiles>  (24) 
[H]c1c([H])c([H])c2c(c1[H])C([H])([H])C([H])([H])C([H])([H])C2([H])N([H])C(=O)C1([H])N(C(=O)C([H])(N([H])C(=O)C([H])(N([H])C([H])([H])[H])C([H])([H])[H])C(C([H])([H])[H])(C([H])([H])[H])C([H])([H])[H])C([H])([H])c2c([H])c(OC([H])([H])C([H])([H])OC([H])([H])C([H])([H])N([H])C(=O)OC([H])([H])c3c([H])c([H])c(N([H])C(=O)N4C([H])([H])C([H])([H])C([H])([H])C([H])(n5nc(-c6c([H])c([H])c(Oc7c([H])c([H])c(F)c([H])c7F)c([H])c6[H])c(C(=O)N([H])[H])c5N([H])[H])C4([H])[H])c([H])c3[H])c([H])c([H])c2C1([H])[H]

>  <smiles>  (24) 
[H]c1c([H])c([H])c2c(c1[H])C([H])([H])C([H])([H])C([H])([H])C2([H])N([H])C(=O)C1([H])N(C(=O)C([H])(N([H])C(=O)C([H])(N([H])C([H])([H])[H])C([H])([H])[H])C(C([H])([H])[H])(C([H])([H])[H])C([H])([H])[H])C([H])([H])c2c([H])c(OC([H])([H])C([H])([H])OC([H])([H])C([H])([H])N([H])C(=O)OC([H])([H])c3c([H])c([H])c(N([H])C(=O)N4C([H])([H])C([H])([H])C([H])([H])C([H])(n5nc(-c6c([H])c([H])c(Oc7c([H])c([H])c(F)c([H])c7F)c([H])c6[H])c(C(=O)N([H])[H])c5N([H])[H])C4([H])[H])c([H])c3[H])c([H])c([H])c2C1([H])[H]

$$$$
24:0:0
     RDKit          3D

 97105  0  0  1  0  0  0  0  0999 V2000
  -30.9580  -20.1230   15.5010 C   0  0  0  0  0  2  0  0  0  0  0  0
  -31.4850  -18.8050   17.5420 C   0  0  0  0  0  0  0  0  0  0  0  0
  -30.7970  -19.7630   16.9100 N   0  0  0  0  0  0  0  0  0  0  0  0
  -32.4060  -18.1790   17.0140 O   0  0  0  0  0  0  0  0  0  0  0  0
  -30.0390  -20.2060   17.4120 H   0  0  0  0  0  0  0  0  0  0  0  0
  -30.1810  -19.0050   21.1470 C   0  0  0  0  0  3  0  0  0  0  0  0
  -30.6500  -19.4040   19.8770 C   0  0  0  0  0  3  0  0  0  0  0  0
  -30.0550  -17.6400   21.4660 C   0  0  0  0  0  3  0  0  0  0  0  0
  -30.8950  -17.0640   19.2550 C   0  0  0  0  0  3  0  0  0  0  0  0
  -30.9960  -18.4290   18.9130 C   0  0  0  0  0  0  0  0  0  0  0  0
  -30.4230  -16.6530   20.5300 C   0  0  0  0  0  0  0  0  0  0  0  0
  -30.8370  -14.2330   20.2760 C   0  0  0  0  0  0  0  0  0  0  0  0
  -30.3600  -12.1510   19.0760 C   0  0  0  0  0  2  0  0  0  0  0  0
  -29.4080  -12.4750   17.9080 C   0  0  0  0  0  2  0  0  0  0  0  0
  -27.9400  -12.3970   18.3690 C   0  0  0  0  0  2  0  0  0  0  0  0
  -27.6800  -13.1940   19.6760 C   0  0  0  0  0  3  0  0  0  0  0  0
  -28.7520  -12.8820   20.7450 C   0  0  0  0  0  2  0  0  0  0  0  0
  -30.0840  -13.1100   20.1560 N   0  0  0  0  0  0  0  0  0  0  0  0
  -31.9590  -14.3460   19.7750 O   0  0  0  0  0  0  0  0  0  0  0  0
  -30.2430  -15.2790   20.8710 N   0  0  0  0  0  0  0  0  0  0  0  0
  -29.4580  -15.0620   21.4650 H   0  0  0  0  0  0  0  0  0  0  0  0
  -25.3100  -13.8660   20.4270 C   0  0  0  0  0  0  0  0  0  0  0  0
  -24.2280  -13.1230   20.8190 C   0  0  0  0  0  0  0  0  0  0  0  0
  -24.6520  -11.7590   20.7800 C   0  0  0  0  0  0  0  0  0  0  0  0
  -26.3280  -12.9570   20.1800 N   0  0  0  0  0  0  0  0  0  0  0  0
  -25.9350  -11.6850   20.4480 N   0  0  0  0  0  0  0  0  0  0  0  0
  -23.8960  -10.5180   20.9850 C   0  0  0  0  0  0  0  0  0  0  0  0
  -24.3200   -9.5370   21.9110 C   0  0  0  0  0  3  0  0  0  0  0  0
  -23.5680   -8.3590   22.1030 C   0  0  0  0  0  3  0  0  0  0  0  0
  -22.3750   -8.1500   21.3700 C   0  0  0  0  0  0  0  0  0  0  0  0
  -21.9680   -9.1180   20.4340 C   0  0  0  0  0  3  0  0  0  0  0  0
  -22.7230  -10.2880   20.2390 C   0  0  0  0  0  3  0  0  0  0  0  0
  -21.5930   -7.0250   21.4720 O   0  0  0  0  0  0  0  0  0  0  0  0
  -21.5520   -6.2810   22.6240 C   0  0  0  0  0  0  0  0  0  0  0  0
  -21.1700   -6.8440   23.8610 C   0  0  0  0  0  3  0  0  0  0  0  0
  -21.0690   -6.0250   25.0050 C   0  0  0  0  0  3  0  0  0  0  0  0
  -21.3460   -4.6480   24.9130 C   0  0  0  0  0  0  0  0  0  0  0  0
  -21.7220   -4.0860   23.6800 C   0  0  0  0  0  3  0  0  0  0  0  0
  -21.8200   -4.9000   22.5400 C   0  0  0  0  0  0  0  0  0  0  0  0
  -22.1620   -4.3490   21.3490 F   0  0  0  0  0  0  0  0  0  0  0  0
  -21.2440   -3.8610   26.0100 F   0  0  0  0  0  0  0  0  0  0  0  0
  -22.8500  -13.6360   21.1200 C   0  0  0  0  0  0  0  0  0  0  0  0
  -22.1240  -12.9590   22.0020 N   0  0  0  0  0  0  0  0  0  0  0  0
  -22.4270  -14.6720   20.6080 O   0  0  0  0  0  0  0  0  0  0  0  0
  -22.4840  -12.1240   22.4390 H   0  0  0  0  0  0  0  0  0  0  0  0
  -21.1980  -13.2810   22.2450 H   0  0  0  0  0  0  0  0  0  0  0  0
  -25.5120  -15.2290   20.2440 N   0  0  0  0  0  0  0  0  0  0  0  0
  -24.7690  -15.9090   20.3570 H   0  0  0  0  0  0  0  0  0  0  0  0
  -26.3720  -15.6360   19.9000 H   0  0  0  0  0  0  0  0  0  0  0  0
  -31.3320  -21.5980   15.3220 C   0  0  0  0  0  2  0  0  0  0  0  0
  -30.2410  -22.4010   15.7440 O   0  0  0  0  0  0  0  0  0  0  0  0
  -30.4610  -23.7800   15.4730 C   0  0  0  0  0  2  0  0  0  0  0  0
  -29.2730  -24.5910   15.9960 C   0  0  0  0  0  2  0  0  0  0  0  0
  -29.3600  -24.6370   17.4140 O   0  0  0  0  0  0  0  0  0  0  0  0
  -28.4640  -25.5770   17.9830 C   0  0  0  0  0  2  0  0  0  0  0  0
  -28.4830  -25.4370   19.5190 C   0  0  0  0  0  2  0  0  0  0  0  0
  -28.3970  -26.6990   20.1770 O   0  0  0  0  0  0  0  0  0  0  0  0
  -24.5700  -31.8330   23.2420 C   0  0  0  0  0  0  0  0  0  0  0  0
  -27.1980  -27.3760   20.1770 C   0  0  0  0  0  0  0  0  0  0  0  0
  -23.3650  -30.4410   21.5890 C   0  0  0  0  0  3  0  0  0  0  0  0
  -24.8120  -28.8860   20.1870 C   0  0  0  0  0  0  0  0  0  0  0  0
  -25.8950  -30.7760   21.4150 C   0  0  0  0  0  2  0  0  0  0  0  0
  -25.9680  -29.4040   20.7790 C   0  0  0  0  0  0  0  0  0  0  0  0
  -27.1620  -28.6540   20.7760 C   0  0  0  0  0  3  0  0  0  0  0  0
  -26.0100  -26.8560   19.6090 C   0  0  0  0  0  3  0  0  0  0  0  0
  -24.8230  -27.6080   19.6050 C   0  0  0  0  0  3  0  0  0  0  0  0
  -23.5780  -29.7540   20.2140 C   0  0  0  0  0  2  0  0  0  0  0  0
  -24.6280  -31.0320   22.1400 N   0  0  0  0  0  0  0  0  0  0  0  0
  -23.4870  -32.1150   23.7720 O   0  0  0  0  0  0  0  0  0  0  0  0
  -22.7000  -29.4240   22.5440 C   0  0  0  0  0  0  0  0  0  0  0  0
  -21.3760  -29.2510   22.4010 N   0  0  0  0  0  0  0  0  0  0  0  0
  -23.3710  -28.7950   23.3660 O   0  0  0  0  0  0  0  0  0  0  0  0
  -20.8990  -29.8150   21.7110 H   0  0  0  0  0  0  0  0  0  0  0  0
  -17.9890  -28.0830   22.8610 C   0  0  0  0  0  0  0  0  0  0  0  0
  -20.5450  -28.3210   23.1630 C   0  0  0  0  0  3  0  0  0  0  0  0
  -20.6410  -26.8890   22.5910 C   0  0  0  0  0  2  0  0  0  0  0  0
  -19.5500  -26.5710   21.5640 C   0  0  0  0  0  2  0  0  0  0  0  0
  -18.1620  -26.7280   22.1920 C   0  0  0  0  0  2  0  0  0  0  0  0
  -19.1080  -28.8360   23.3030 C   0  0  0  0  0  0  0  0  0  0  0  0
  -18.8970  -30.1020   23.8900 C   0  0  0  0  0  3  0  0  0  0  0  0
  -17.5970  -30.6190   24.0360 C   0  0  0  0  0  3  0  0  0  0  0  0
  -16.4900  -29.8640   23.6100 C   0  0  0  0  0  3  0  0  0  0  0  0
  -16.6860  -28.5970   23.0320 C   0  0  0  0  0  3  0  0  0  0  0  0
  -25.8580  -32.4500   23.8750 C   0  0  0  0  0  3  0  0  0  0  0  0
  -26.3660  -31.6670   25.1460 C   0  0  1  0  0  0  0  0  0  0  0  0
  -25.2660  -31.4250   26.2060 C   0  0  0  0  0  1  0  0  0  0  0  0
  -26.9430  -30.2910   24.7430 C   0  0  0  0  0  1  0  0  0  0  0  0
  -27.5180  -32.4480   25.8190 C   0  0  0  0  0  1  0  0  0  0  0  0
  -25.5570  -33.8490   24.2100 N   0  0  0  0  0  0  0  0  0  0  0  0
  -25.8960  -34.9010   23.4550 C   0  0  0  0  0  0  0  0  0  0  0  0
  -26.5700  -34.7990   22.4260 O   0  0  0  0  0  0  0  0  0  0  0  0
  -24.9650  -34.0060   25.0130 H   0  0  0  0  0  0  0  0  0  0  0  0
  -24.1750  -36.6980   23.0990 C   0  0  0  0  0  1  0  0  0  0  0  0
  -25.4110  -36.2890   23.9150 C   0  0  0  0  0  3  0  0  0  0  0  0
  -27.5430  -37.1590   24.7650 C   0  0  0  0  0  1  0  0  0  0  0  0
  -26.4480  -37.3380   23.8140 N   0  0  0  0  0  0  0  0  0  0  0  0
  -26.0460  -38.2600   23.9590 H   0  0  0  0  0  0  0  0  0  0  0  0
  1  3  1  0
  2 10  1  0
  3  5  1  0
  3  2  1  0
  4  2  2  0
  6  8  1  0
  7  6  2  0
  9 11  1  0
 10  9  2  0
 10  7  1  0
 11 20  1  0
 11  8  2  0
 12 20  1  0
 13 18  1  0
 14 15  1  0
 14 13  1  0
 16 15  1  0
 16 25  1  0
 16 17  1  0
 18 12  1  0
 18 17  1  0
 19 12  2  0
 20 21  1  0
 22 23  2  0
 23 42  1  0
 24 23  1  0
 24 27  1  0
 25 22  1  0
 25 26  1  0
 26 24  2  0
 27 28  1  0
 28 29  2  0
 30 33  1  0
 30 29  1  0
 31 30  2  0
 32 31  1  0
 32 27  2  0
 33 34  1  0
 34 35  1  0
 35 36  2  0
 37 36  1  0
 37 41  1  0
 38 37  2  0
 39 34  2  0
 39 38  1  0
 40 39  1  0
 42 43  1  0
 43 46  1  0
 43 45  1  0
 44 42  2  0
 47 48  1  0
 47 22  1  0
 49 47  1  0
 50  1  1  0
 50 51  1  0
 52 51  1  0
 52 53  1  0
 53 54  1  0
 54 55  1  0
 55 56  1  0
 56 57  1  0
 58 69  2  0
 59 57  1  0
 59 64  1  0
 60 68  1  0
 60 70  1  0
 61 67  1  0
 61 63  1  0
 62 68  1  0
 63 62  1  0
 64 63  2  0
 65 59  2  0
 66 65  1  0
 66 61  2  0
 67 60  1  0
 68 58  1  0
 70 72  2  0
 71 70  1  0
 73 71  1  0
 74 83  2  0
 74 79  1  0
 75 71  1  0
 75 79  1  0
 76 75  1  0
 77 78  1  0
 77 76  1  0
 78 74  1  0
 79 80  2  0
 80 81  1  0
 82 81  2  0
 83 82  1  0
 84 58  1  0
 84 89  1  0
 84 85  1  0
 85 88  1  1
 85 86  1  0
 87 85  1  0
 89 92  1  0
 90 94  1  0
 90 89  1  0
 91 90  2  0
 94 93  1  0
 96 94  1  0
 96 97  1  0
 96 95  1  0
M  ISO  4  12 100  20 100  56 101  57 101
M  END
>  <TORSDO>  (25) 
F 25

>  <SCORE>  (25) 
-12.117

>  <name>  (25) 
24

>  <ligand_id>  (25) 
24

>  <original_smiles>  (25) 
[H]c1c([H])c(C(=O)N([H])C([H])([H])C([H])([H])OC([H])([H])C([H])([H])OC([H])([H])C([H])([H])Oc2c([H])c([H])c3c(c2[H])C([H])([H])N(C(=O)C([H])(N([H])C(=O)C([H])(N([H])C([H])([H])[H])C([H])([H])[H])C(C([H])([H])[H])(C([H])([H])[H])C([H])([H])[H])C([H])(C(=O)N([H])C2([H])c4c([H])c([H])c([H])c([H])c4C([H])([H])C([H])([H])C2([H])[H])C3([H])[H])c([H])c(N([H])C(=O)N2C([H])([H])C([H])([H])C([H])([H])C([H])(n3nc(-c4c([H])c([H])c(Oc5c([H])c([H])c(F)c([H])c5F)c([H])c4[H])c(C(=O)N([H])[H])c3N([H])[H])C2([H])[H])c1[H]

>  <smiles>  (25) 
[H]c1c([H])c(C(=O)N([H])C([H])([H])C([H])([H])OC([H])([H])C([H])([H])OC([H])([H])C([H])([H])Oc2c([H])c([H])c3c(c2[H])C([H])([H])N(C(=O)C([H])(N([H])C(=O)C([H])(N([H])C([H])([H])[H])C([H])([H])[H])C(C([H])([H])[H])(C([H])([H])[H])C([H])([H])[H])C([H])(C(=O)N([H])C2([H])c4c([H])c([H])c([H])c([H])c4C([H])([H])C([H])([H])C2([H])[H])C3([H])[H])c([H])c(N([H])C(=O)N2C([H])([H])C([H])([H])C([H])([H])C([H])(n3nc(-c4c([H])c([H])c(Oc5c([H])c([H])c(F)c([H])c5F)c([H])c4[H])c(C(=O)N([H])[H])c3N([H])[H])C2([H])[H])c1[H]

$$$$
25:0:0
     RDKit          3D

 90 97  0  0  1  0  0  0  0  0999 V2000
  -27.8060  -22.7890   22.0570 C   0  0  0  0  0  2  0  0  0  0  0  0
  -28.1210  -23.6690   20.9800 O   0  0  0  0  0  0  0  0  0  0  0  0
  -28.3570  -25.0040   21.4180 C   0  0  0  0  0  2  0  0  0  0  0  0
  -29.0330  -25.8100   20.2920 C   0  0  0  0  0  2  0  0  0  0  0  0
  -28.9770  -27.2200   20.5330 O   0  0  0  0  0  0  0  0  0  0  0  0
  -24.8130  -32.1180   23.5430 C   0  0  0  0  0  0  0  0  0  0  0  0
  -27.7520  -27.8490   20.4980 C   0  0  0  0  0  0  0  0  0  0  0  0
  -23.7220  -30.6820   21.8480 C   0  0  0  0  0  3  0  0  0  0  0  0
  -25.2850  -29.2330   20.4560 C   0  0  0  0  0  0  0  0  0  0  0  0
  -26.2290  -31.1650   21.7290 C   0  0  0  0  0  2  0  0  0  0  0  0
  -26.3990  -29.8060   21.0820 C   0  0  0  0  0  0  0  0  0  0  0  0
  -27.6340  -29.1210   21.0980 C   0  0  0  0  0  3  0  0  0  0  0  0
  -26.6140  -27.2830   19.8740 C   0  0  0  0  0  3  0  0  0  0  0  0
  -25.3870  -27.9680   19.8540 C   0  0  0  0  0  3  0  0  0  0  0  0
  -24.0040  -30.0320   20.4680 C   0  0  0  0  0  2  0  0  0  0  0  0
  -24.9370  -31.3350   22.4330 N   0  0  0  0  0  0  0  0  0  0  0  0
  -23.7050  -32.3340   24.0530 O   0  0  0  0  0  0  0  0  0  0  0  0
  -23.0900  -29.6210   22.7760 C   0  0  0  0  0  0  0  0  0  0  0  0
  -21.7860  -29.3620   22.5830 N   0  0  0  0  0  0  0  0  0  0  0  0
  -23.7700  -29.0330   23.6190 O   0  0  0  0  0  0  0  0  0  0  0  0
  -21.2950  -29.8870   21.8700 H   0  0  0  0  0  0  0  0  0  0  0  0
  -18.4720  -27.9650   22.9140 C   0  0  0  0  0  0  0  0  0  0  0  0
  -20.9920  -28.3730   23.3120 C   0  0  0  0  0  3  0  0  0  0  0  0
  -21.2090  -26.9500   22.7440 C   0  0  0  0  0  2  0  0  0  0  0  0
  -20.1790  -26.5620   21.6760 C   0  0  0  0  0  2  0  0  0  0  0  0
  -18.7620  -26.6280   22.2540 C   0  0  0  0  0  2  0  0  0  0  0  0
  -19.5210  -28.7900   23.3990 C   0  0  0  0  0  0  0  0  0  0  0  0
  -19.2030  -30.0400   23.9710 C   0  0  0  0  0  3  0  0  0  0  0  0
  -17.8650  -30.4650   24.0730 C   0  0  0  0  0  3  0  0  0  0  0  0
  -16.8290  -29.6370   23.6090 C   0  0  0  0  0  3  0  0  0  0  0  0
  -17.1330  -28.3910   23.0320 C   0  0  0  0  0  3  0  0  0  0  0  0
  -26.0510  -32.7960   24.2080 C   0  0  0  0  0  3  0  0  0  0  0  0
  -26.4950  -32.0970   25.5500 C   0  0  1  0  0  0  0  0  0  0  0  0
  -25.3360  -31.8630   26.5460 C   0  0  0  0  0  1  0  0  0  0  0  0
  -27.1490  -30.7280   25.2540 C   0  0  0  0  0  1  0  0  0  0  0  0
  -27.5660  -32.9570   26.2590 C   0  0  0  0  0  1  0  0  0  0  0  0
  -25.7090  -34.2050   24.4420 N   0  0  0  0  0  0  0  0  0  0  0  0
  -26.0740  -35.2180   23.6420 C   0  0  0  0  0  0  0  0  0  0  0  0
  -26.8020  -35.0650   22.6570 O   0  0  0  0  0  0  0  0  0  0  0  0
  -25.0670  -34.3930   25.1980 H   0  0  0  0  0  0  0  0  0  0  0  0
  -24.3440  -36.9560   23.0900 C   0  0  0  0  0  1  0  0  0  0  0  0
  -25.5440  -36.6220   23.9910 C   0  0  0  0  0  3  0  0  0  0  0  0
  -27.6240  -37.5810   24.8740 C   0  0  0  0  0  1  0  0  0  0  0  0
  -26.5690  -37.6810   23.8690 N   0  0  0  0  0  0  0  0  0  0  0  0
  -26.1450  -38.6010   23.9460 H   0  0  0  0  0  0  0  0  0  0  0  0
  -27.4930  -21.3830   21.5210 C   0  0  0  0  0  2  0  0  0  0  0  0
  -28.6650  -20.7680   20.9950 O   0  0  0  0  0  0  0  0  0  0  0  0
  -28.3670  -19.5800   20.2660 C   0  0  0  0  0  2  0  0  0  0  0  0
  -29.6620  -18.8370   19.8940 C   0  0  0  0  0  2  0  0  0  0  0  0
  -30.0630  -17.9670   20.9490 O   0  0  0  0  0  0  0  0  0  0  0  0
  -31.4690  -17.8850   21.1710 C   0  0  0  0  0  2  0  0  0  0  0  0
  -32.1640  -16.8510   20.2700 C   0  0  0  0  0  2  0  0  0  0  0  0
  -31.9300  -14.4640   19.7030 C   0  0  0  0  0  0  0  0  0  0  0  0
  -31.3700  -12.1870   18.9420 C   0  0  0  0  0  2  0  0  0  0  0  0
  -30.3890  -12.2580   17.7560 C   0  0  0  0  0  2  0  0  0  0  0  0
  -28.9350  -12.3150   18.2570 C   0  0  0  0  0  2  0  0  0  0  0  0
  -28.7260  -13.3820   19.3650 C   0  0  0  0  0  3  0  0  0  0  0  0
  -29.8210  -13.2870   20.4530 C   0  0  0  0  0  2  0  0  0  0  0  0
  -31.1380  -13.3620   19.7950 N   0  0  0  0  0  0  0  0  0  0  0  0
  -32.9520  -14.5110   19.0150 O   0  0  0  0  0  0  0  0  0  0  0  0
  -31.5220  -15.5410   20.3790 N   0  0  0  0  0  0  0  0  0  0  0  0
  -30.6870  -15.4770   20.9440 H   0  0  0  0  0  0  0  0  0  0  0  0
  -26.5230  -14.3100   20.3180 C   0  0  0  0  0  0  0  0  0  0  0  0
  -25.3730  -13.6950   20.7340 C   0  0  0  0  0  0  0  0  0  0  0  0
  -25.5970  -12.2930   20.5790 C   0  0  0  0  0  0  0  0  0  0  0  0
  -27.3840  -13.2930   19.9390 N   0  0  0  0  0  0  0  0  0  0  0  0
  -26.8320  -12.0680   20.1490 N   0  0  0  0  0  0  0  0  0  0  0  0
  -24.6860  -11.1530   20.7540 C   0  0  0  0  0  0  0  0  0  0  0  0
  -25.0150  -10.0650   21.5910 C   0  0  0  0  0  3  0  0  0  0  0  0
  -24.1140   -8.9910   21.7570 C   0  0  0  0  0  3  0  0  0  0  0  0
  -22.8680   -9.0000   21.0880 C   0  0  0  0  0  0  0  0  0  0  0  0
  -22.5550  -10.0750   20.2360 C   0  0  0  0  0  3  0  0  0  0  0  0
  -23.4560  -11.1380   20.0660 C   0  0  0  0  0  3  0  0  0  0  0  0
  -21.9430   -7.9870   21.1680 O   0  0  0  0  0  0  0  0  0  0  0  0
  -21.8340   -7.1990   22.2860 C   0  0  0  0  0  0  0  0  0  0  0  0
  -21.5870   -7.7470   23.5640 C   0  0  0  0  0  3  0  0  0  0  0  0
  -21.4110   -6.8960   24.6730 C   0  0  0  0  0  3  0  0  0  0  0  0
  -21.4730   -5.4990   24.5060 C   0  0  0  0  0  0  0  0  0  0  0  0
  -21.7140   -4.9520   23.2340 C   0  0  0  0  0  3  0  0  0  0  0  0
  -21.8900   -5.8000   22.1260 C   0  0  0  0  0  0  0  0  0  0  0  0
  -22.1010   -5.2670   20.8980 F   0  0  0  0  0  0  0  0  0  0  0  0
  -21.2960   -4.6800   25.5700 F   0  0  0  0  0  0  0  0  0  0  0  0
  -24.1040  -14.3690   21.1660 C   0  0  0  0  0  0  0  0  0  0  0  0
  -23.3490  -13.7420   22.0620 N   0  0  0  0  0  0  0  0  0  0  0  0
  -23.7960  -15.4850   20.7480 O   0  0  0  0  0  0  0  0  0  0  0  0
  -23.6150  -12.8390   22.4260 H   0  0  0  0  0  0  0  0  0  0  0  0
  -22.4980  -14.1770   22.3890 H   0  0  0  0  0  0  0  0  0  0  0  0
  -26.9010  -15.6450   20.2170 N   0  0  0  0  0  0  0  0  0  0  0  0
  -26.2750  -16.4070   20.4510 H   0  0  0  0  0  0  0  0  0  0  0  0
  -27.7960  -15.9620   19.8690 H   0  0  0  0  0  0  0  0  0  0  0  0
  2  3  1  0
  2  1  1  0
  4  5  1  0
  4  3  1  0
  6 17  2  0
  7  5  1  0
  7 12  1  0
  8 16  1  0
  8 18  1  0
  9 15  1  0
  9 11  1  0
 10 16  1  0
 11 12  2  0
 11 10  1  0
 13  7  2  0
 14 13  1  0
 14  9  2  0
 15  8  1  0
 16  6  1  0
 18 20  2  0
 19 18  1  0
 21 19  1  0
 22 31  2  0
 22 27  1  0
 23 19  1  0
 23 27  1  0
 24 23  1  0
 25 26  1  0
 25 24  1  0
 26 22  1  0
 27 28  2  0
 28 29  1  0
 30 29  2  0
 31 30  1  0
 32  6  1  0
 32 37  1  0
 32 33  1  0
 33 36  1  1
 33 34  1  0
 35 33  1  0
 37 40  1  0
 38 42  1  0
 38 37  1  0
 39 38  2  0
 42 41  1  0
 44 45  1  0
 44 42  1  0
 44 43  1  0
 46  1  1  0
 47 46  1  0
 48 47  1  0
 49 48  1  0
 49 50  1  0
 50 51  1  0
 52 61  1  0
 52 51  1  0
 53 59  1  0
 53 61  1  0
 54 59  1  0
 55 56  1  0
 55 54  1  0
 57 56  1  0
 57 66  1  0
 57 58  1  0
 59 58  1  0
 60 53  2  0
 61 62  1  0
 63 64  2  0
 64 83  1  0
 65 64  1  0
 65 68  1  0
 66 67  1  0
 66 63  1  0
 67 65  2  0
 68 69  1  0
 69 70  2  0
 71 74  1  0
 71 70  1  0
 72 71  2  0
 73 72  1  0
 73 68  2  0
 74 75  1  0
 75 76  1  0
 76 77  2  0
 78 77  1  0
 78 82  1  0
 79 78  2  0
 80 75  2  0
 80 79  1  0
 81 80  1  0
 83 84  1  0
 84 87  1  0
 84 86  1  0
 85 83  2  0
 88 63  1  0
 88 89  1  0
 90 88  1  0
M  ISO  4   4 101   5 101  53 100  61 100
M  END
>  <TORSDO>  (26) 
F 26

>  <SCORE>  (26) 
-9.736

>  <name>  (26) 
25

>  <ligand_id>  (26) 
25

>  <original_smiles>  (26) 
[H]c1c([H])c([H])c2c(c1[H])C([H])([H])C([H])([H])C([H])([H])C2([H])N([H])C(=O)C1([H])N(C(=O)C([H])(N([H])C(=O)C([H])(N([H])C([H])([H])[H])C([H])([H])[H])C(C([H])([H])[H])(C([H])([H])[H])C([H])([H])[H])C([H])([H])c2c([H])c(OC([H])([H])C([H])([H])OC([H])([H])C([H])([H])OC([H])([H])C([H])([H])OC([H])([H])C([H])([H])N([H])C(=O)N3C([H])([H])C([H])([H])C([H])([H])C([H])(n4nc(-c5c([H])c([H])c(Oc6c([H])c([H])c(F)c([H])c6F)c([H])c5[H])c(C(=O)N([H])[H])c4N([H])[H])C3([H])[H])c([H])c([H])c2C1([H])[H]

>  <smiles>  (26) 
[H]c1c([H])c([H])c2c(c1[H])C([H])([H])C([H])([H])C([H])([H])C2([H])N([H])C(=O)C1([H])N(C(=O)C([H])(N([H])C(=O)C([H])(N([H])C([H])([H])[H])C([H])([H])[H])C(C([H])([H])[H])(C([H])([H])[H])C([H])([H])[H])C([H])([H])c2c([H])c(OC([H])([H])C([H])([H])OC([H])([H])C([H])([H])OC([H])([H])C([H])([H])OC([H])([H])C([H])([H])N([H])C(=O)N3C([H])([H])C([H])([H])C([H])([H])C([H])(n4nc(-c5c([H])c([H])c(Oc6c([H])c([H])c(F)c([H])c6F)c([H])c5[H])c(C(=O)N([H])[H])c4N([H])[H])C3([H])[H])c([H])c([H])c2C1([H])[H]

$$$$
26:0:0
     RDKit          3D

 87 94  0  0  1  0  0  0  0  0999 V2000
  -31.1720  -20.9140   20.4010 C   0  0  0  0  0  3  0  0  0  0  0  0
  -30.2650  -22.0300   20.3860 C   0  0  0  0  0  3  0  0  0  0  0  0
  -30.8570  -19.5100   20.3560 C   0  0  0  0  0  3  0  0  0  0  0  0
  -28.6030  -20.3030   20.2770 C   0  0  0  0  0  3  0  0  0  0  0  0
  -28.8540  -21.9210   20.3190 C   0  0  0  0  0  0  0  0  0  0  0  0
  -29.5470  -18.9690   20.2900 C   0  0  0  0  0  0  0  0  0  0  0  0
  -30.2090  -15.8290   20.1980 C   0  0  0  0  0  0  0  0  0  0  0  0
  -30.3590  -13.2660   19.3530 C   0  0  0  0  0  2  0  0  0  0  0  0
  -29.4810  -12.8090   18.1500 C   0  0  0  0  0  2  0  0  0  0  0  0
  -28.0690  -12.4170   18.6080 C   0  0  0  0  0  2  0  0  0  0  0  0
  -27.5380  -13.4080   19.6660 C   0  0  0  0  0  3  0  0  0  0  0  0
  -28.5620  -13.7640   20.7720 C   0  0  0  0  0  2  0  0  0  0  0  0
  -29.7070  -14.4410   20.1070 N   0  0  0  0  0  0  0  0  0  0  0  0
  -31.4460  -15.7550   20.0420 O   0  0  0  0  0  0  0  0  0  0  0  0
  -29.4280  -17.2130   20.2630 N   0  0  0  0  0  0  0  0  0  0  0  0
  -28.4520  -16.9570   20.3020 H   0  0  0  0  0  0  0  0  0  0  0  0
  -25.1680  -13.8930   20.4280 C   0  0  0  0  0  0  0  0  0  0  0  0
  -24.1230  -13.0940   20.7950 C   0  0  0  0  0  0  0  0  0  0  0  0
  -24.6190  -11.7540   20.7710 C   0  0  0  0  0  0  0  0  0  0  0  0
  -26.2290  -13.0410   20.1890 N   0  0  0  0  0  0  0  0  0  0  0  0
  -25.9140  -11.7470   20.4630 N   0  0  0  0  0  0  0  0  0  0  0  0
  -23.9120  -10.4800   20.9630 C   0  0  0  0  0  0  0  0  0  0  0  0
  -24.3380   -9.5340   21.9220 C   0  0  0  0  0  3  0  0  0  0  0  0
  -23.6260   -8.3280   22.1030 C   0  0  0  0  0  3  0  0  0  0  0  0
  -22.4740   -8.0590   21.3280 C   0  0  0  0  0  0  0  0  0  0  0  0
  -22.0670   -8.9940   20.3600 C   0  0  0  0  0  3  0  0  0  0  0  0
  -22.7800  -10.1910   20.1750 C   0  0  0  0  0  3  0  0  0  0  0  0
  -21.7340   -6.9040   21.4170 O   0  0  0  0  0  0  0  0  0  0  0  0
  -21.6550   -6.1900   22.5860 C   0  0  0  0  0  0  0  0  0  0  0  0
  -21.1510   -6.7600   23.7750 C   0  0  0  0  0  3  0  0  0  0  0  0
  -21.0210   -5.9700   24.9340 C   0  0  0  0  0  3  0  0  0  0  0  0
  -21.3860   -4.6100   24.9060 C   0  0  0  0  0  0  0  0  0  0  0  0
  -21.8830   -4.0390   23.7210 C   0  0  0  0  0  3  0  0  0  0  0  0
  -22.0140   -4.8260   22.5640 C   0  0  0  0  0  0  0  0  0  0  0  0
  -22.4730   -4.2660   21.4190 F   0  0  0  0  0  0  0  0  0  0  0  0
  -21.2550   -3.8490   26.0170 F   0  0  0  0  0  0  0  0  0  0  0  0
  -22.7150  -13.5460   21.0490 C   0  0  0  0  0  0  0  0  0  0  0  0
  -21.9970  -12.8510   21.9220 N   0  0  0  0  0  0  0  0  0  0  0  0
  -22.2630  -14.5560   20.5090 O   0  0  0  0  0  0  0  0  0  0  0  0
  -22.3770  -12.0360   22.3800 H   0  0  0  0  0  0  0  0  0  0  0  0
  -21.0520  -13.1380   22.1370 H   0  0  0  0  0  0  0  0  0  0  0  0
  -25.3000  -15.2650   20.2410 N   0  0  0  0  0  0  0  0  0  0  0  0
  -24.5140  -15.8990   20.3400 H   0  0  0  0  0  0  0  0  0  0  0  0
  -26.1260  -15.7150   19.8720 H   0  0  0  0  0  0  0  0  0  0  0  0
  -27.8660  -23.5190   20.2940 C   0  0  0  0  0  2  0  0  0  0  0  0
  -26.6640  -23.2500   20.2140 O   0  0  0  0  0  1  0  0  0  0  0  0
  -28.1230  -25.4160   20.3590 O   0  0  0  0  0  1  0  0  0  0  0  0
  -24.6620  -31.8640   23.2530 C   0  0  0  0  0  0  0  0  0  0  0  0
  -27.1860  -26.6900   20.3070 C   0  0  0  0  0  0  0  0  0  0  0  0
  -23.4850  -30.4670   21.6110 C   0  0  0  0  0  3  0  0  0  0  0  0
  -24.9370  -28.7920   20.2230 C   0  0  0  0  0  0  0  0  0  0  0  0
  -26.0690  -30.5680   21.5260 C   0  0  0  0  0  2  0  0  0  0  0  0
  -26.1300  -29.1230   20.8750 C   0  0  0  0  0  0  0  0  0  0  0  0
  -27.2320  -28.1020   20.8890 C   0  0  0  0  0  3  0  0  0  0  0  0
  -25.9570  -26.5940   19.5970 C   0  0  0  0  0  3  0  0  0  0  0  0
  -24.8940  -27.5520   19.5600 C   0  0  0  0  0  3  0  0  0  0  0  0
  -23.7380  -29.7590   20.2480 C   0  0  0  0  0  2  0  0  0  0  0  0
  -24.7640  -31.0010   22.1820 N   0  0  0  0  0  0  0  0  0  0  0  0
  -23.5640  -32.1770   23.7470 O   0  0  0  0  0  0  0  0  0  0  0  0
  -22.7450  -29.5040   22.5800 C   0  0  0  0  0  0  0  0  0  0  0  0
  -21.4110  -29.3680   22.4490 N   0  0  0  0  0  0  0  0  0  0  0  0
  -23.3860  -28.8750   23.4250 O   0  0  0  0  0  0  0  0  0  0  0  0
  -20.9420  -29.9250   21.7480 H   0  0  0  0  0  0  0  0  0  0  0  0
  -18.0050  -28.1990   22.9540 C   0  0  0  0  0  0  0  0  0  0  0  0
  -20.5690  -28.4420   23.2180 C   0  0  0  0  0  3  0  0  0  0  0  0
  -20.6540  -27.0080   22.6450 C   0  0  0  0  0  2  0  0  0  0  0  0
  -19.5510  -26.6980   21.6270 C   0  0  0  0  0  2  0  0  0  0  0  0
  -18.1700  -26.8520   22.2690 C   0  0  0  0  0  2  0  0  0  0  0  0
  -19.1300  -28.9520   23.3840 C   0  0  0  0  0  0  0  0  0  0  0  0
  -18.9170  -30.2100   23.9900 C   0  0  0  0  0  3  0  0  0  0  0  0
  -17.6150  -30.7150   24.1650 C   0  0  0  0  0  3  0  0  0  0  0  0
  -16.5050  -29.9600   23.7460 C   0  0  0  0  0  3  0  0  0  0  0  0
  -16.7020  -28.7030   23.1470 C   0  0  0  0  0  3  0  0  0  0  0  0
  -25.9190  -32.5130   23.9070 C   0  0  0  0  0  3  0  0  0  0  0  0
  -25.6020  -33.9200   24.2290 N   0  0  0  0  0  0  0  0  0  0  0  0
  -25.9260  -34.9790   23.4760 C   0  0  0  0  0  0  0  0  0  0  0  0
  -26.5810  -34.8770   22.4360 O   0  0  0  0  0  0  0  0  0  0  0  0
  -25.0170  -34.0720   25.0370 H   0  0  0  0  0  0  0  0  0  0  0  0
  -24.1850  -36.7790   23.1830 C   0  0  0  0  0  1  0  0  0  0  0  0
  -25.4560  -36.3740   23.9470 C   0  0  0  0  0  3  0  0  0  0  0  0
  -27.6150  -37.2760   24.6970 C   0  0  0  0  0  1  0  0  0  0  0  0
  -26.4820  -37.4290   23.7890 N   0  0  0  0  0  0  0  0  0  0  0  0
  -26.0780  -38.3490   23.9390 H   0  0  0  0  0  0  0  0  0  0  0  0
  -26.3910  -31.7630   25.2150 C   0  0  1  0  0  0  0  0  0  0  0  0
  -25.2670  -31.5590   26.2580 C   0  0  0  0  0  1  0  0  0  0  0  0
  -26.9700  -30.3710   24.8810 C   0  0  0  0  0  1  0  0  0  0  0  0
  -27.5330  -32.5580   25.8920 C   0  0  0  0  0  1  0  0  0  0  0  0
  2  1  1  0
  3  1  2  0
  4  6  2  0
  4  5  1  0
  5  2  2  0
  6  3  1  0
  7 15  1  0
  8 13  1  0
  9 10  1  0
  9  8  1  0
 11 10  1  0
 11 20  1  0
 11 12  1  0
 13  7  1  0
 13 12  1  0
 14  7  2  0
 15  6  1  0
 15 16  1  0
 17 18  2  0
 18 37  1  0
 19 18  1  0
 19 22  1  0
 20 17  1  0
 20 21  1  0
 21 19  2  0
 22 23  1  0
 23 24  2  0
 25 28  1  0
 25 24  1  0
 26 25  2  0
 27 26  1  0
 27 22  2  0
 28 29  1  0
 29 30  1  0
 30 31  2  0
 32 31  1  0
 32 36  1  0
 33 32  2  0
 34 29  2  0
 34 33  1  0
 35 34  1  0
 37 38  1  0
 38 41  1  0
 38 40  1  0
 39 37  2  0
 42 43  1  0
 42 17  1  0
 44 42  1  0
 45  5  1  0
 46 45  1  0
 48 59  2  0
 49 47  1  0
 49 54  1  0
 50 58  1  0
 50 60  1  0
 51 57  1  0
 51 53  1  0
 52 58  1  0
 53 54  2  0
 53 52  1  0
 55 49  2  0
 56 55  1  0
 56 51  2  0
 57 50  1  0
 58 48  1  0
 60 62  2  0
 61 60  1  0
 63 61  1  0
 64 73  2  0
 64 69  1  0
 65 61  1  0
 65 69  1  0
 66 65  1  0
 67 68  1  0
 67 66  1  0
 68 64  1  0
 69 70  2  0
 70 71  1  0
 72 71  2  0
 73 72  1  0
 74 48  1  0
 74 75  1  0
 74 84  1  0
 75 78  1  0
 76 80  1  0
 76 75  1  0
 77 76  2  0
 80 79  1  0
 82 83  1  0
 82 80  1  0
 82 81  1  0
 84 87  1  1
 84 85  1  0
 86 84  1  0
M  ISO  4   7 100  15 100  45 101  47 101
M  END
>  <TORSDO>  (27) 
F 17

>  <SCORE>  (27) 
-16.517

>  <name>  (27) 
26

>  <ligand_id>  (27) 
26

>  <original_smiles>  (27) 
[H]c1c([H])c(C(=O)Oc2c([H])c([H])c3c(c2[H])C([H])([H])N(C(=O)C([H])(N([H])C(=O)C([H])(N([H])C([H])([H])[H])C([H])([H])[H])C(C([H])([H])[H])(C([H])([H])[H])C([H])([H])[H])C([H])(C(=O)N([H])C2([H])c4c([H])c([H])c([H])c([H])c4C([H])([H])C([H])([H])C2([H])[H])C3([H])[H])c([H])c(N([H])C(=O)N2C([H])([H])C([H])([H])C([H])([H])C([H])(n3nc(-c4c([H])c([H])c(Oc5c([H])c([H])c(F)c([H])c5F)c([H])c4[H])c(C(=O)N([H])[H])c3N([H])[H])C2([H])[H])c1[H]

>  <smiles>  (27) 
[H]c1c([H])c(C(=O)Oc2c([H])c([H])c3c(c2[H])C([H])([H])N(C(=O)C([H])(N([H])C(=O)C([H])(N([H])C([H])([H])[H])C([H])([H])[H])C(C([H])([H])[H])(C([H])([H])[H])C([H])([H])[H])C([H])(C(=O)N([H])C2([H])c4c([H])c([H])c([H])c([H])c4C([H])([H])C([H])([H])C2([H])[H])C3([H])[H])c([H])c(N([H])C(=O)N2C([H])([H])C([H])([H])C([H])([H])C([H])(n3nc(-c4c([H])c([H])c(Oc5c([H])c([H])c(F)c([H])c5F)c([H])c4[H])c(C(=O)N([H])[H])c3N([H])[H])C2([H])[H])c1[H]

$$$$
27:0:0
     RDKit          3D

 88 95  0  0  1  0  0  0  0  0999 V2000
  -30.5360  -22.4340   20.8370 C   0  0  0  0  0  2  0  0  0  0  0  0
  -30.7560  -21.1380   20.0300 C   0  0  0  0  0  2  0  0  0  0  0  0
  -30.0460  -20.0080   20.5440 O   0  0  0  0  0  0  0  0  0  0  0  0
  -30.0950  -18.9170   19.6260 C   0  0  0  0  0  2  0  0  0  0  0  0
  -29.4910  -17.6060   20.1730 C   0  0  0  0  0  2  0  0  0  0  0  0
  -30.3670  -16.8330   21.1870 C   0  0  0  0  0  2  0  0  0  0  0  0
  -30.6640  -14.4330   20.5430 C   0  0  0  0  0  0  0  0  0  0  0  0
  -30.3310  -12.3090   19.3390 C   0  0  0  0  0  2  0  0  0  0  0  0
  -29.3820  -12.5460   18.1470 C   0  0  0  0  0  2  0  0  0  0  0  0
  -27.9090  -12.4200   18.5820 C   0  0  0  0  0  2  0  0  0  0  0  0
  -27.5910  -13.2410   19.8600 C   0  0  0  0  0  3  0  0  0  0  0  0
  -28.6470  -12.9760   20.9580 C   0  0  0  0  0  2  0  0  0  0  0  0
  -29.9770  -13.2690   20.3970 N   0  0  0  0  0  0  0  0  0  0  0  0
  -31.7530  -14.6440   20.0010 O   0  0  0  0  0  0  0  0  0  0  0  0
  -30.0160  -15.4050   21.2070 N   0  0  0  0  0  0  0  0  0  0  0  0
  -29.1390  -15.1490   21.6360 H   0  0  0  0  0  0  0  0  0  0  0  0
  -25.1960  -13.8710   20.5660 C   0  0  0  0  0  0  0  0  0  0  0  0
  -24.1220  -13.1070   20.9370 C   0  0  0  0  0  0  0  0  0  0  0  0
  -24.5720  -11.7510   20.9060 C   0  0  0  0  0  0  0  0  0  0  0  0
  -26.2350  -12.9810   20.3380 N   0  0  0  0  0  0  0  0  0  0  0  0
  -25.8610  -11.7020   20.5960 N   0  0  0  0  0  0  0  0  0  0  0  0
  -23.8360  -10.4960   21.0990 C   0  0  0  0  0  0  0  0  0  0  0  0
  -24.2860   -9.5120   22.0070 C   0  0  0  0  0  3  0  0  0  0  0  0
  -23.5540   -8.3190   22.1880 C   0  0  0  0  0  3  0  0  0  0  0  0
  -22.3580   -8.1030   21.4620 C   0  0  0  0  0  0  0  0  0  0  0  0
  -21.9280   -9.0750   20.5440 C   0  0  0  0  0  3  0  0  0  0  0  0
  -22.6590  -10.2600   20.3610 C   0  0  0  0  0  3  0  0  0  0  0  0
  -21.5940   -6.9650   21.5560 O   0  0  0  0  0  0  0  0  0  0  0  0
  -21.5920   -6.1890   22.6880 C   0  0  0  0  0  0  0  0  0  0  0  0
  -21.2570   -6.7180   23.9530 C   0  0  0  0  0  3  0  0  0  0  0  0
  -21.2000   -5.8700   25.0780 C   0  0  0  0  0  3  0  0  0  0  0  0
  -21.4670   -4.4960   24.9390 C   0  0  0  0  0  0  0  0  0  0  0  0
  -21.7940   -3.9660   23.6780 C   0  0  0  0  0  3  0  0  0  0  0  0
  -21.8540   -4.8100   22.5560 C   0  0  0  0  0  0  0  0  0  0  0  0
  -22.1490   -4.2910   21.3400 F   0  0  0  0  0  0  0  0  0  0  0  0
  -21.4030   -3.6800   26.0170 F   0  0  0  0  0  0  0  0  0  0  0  0
  -22.7290  -13.5950   21.2130 C   0  0  0  0  0  0  0  0  0  0  0  0
  -22.0000  -12.9070   22.0850 N   0  0  0  0  0  0  0  0  0  0  0  0
  -22.2960  -14.6210   20.6910 O   0  0  0  0  0  0  0  0  0  0  0  0
  -22.3640  -12.0790   22.5310 H   0  0  0  0  0  0  0  0  0  0  0  0
  -21.0640  -13.2150   22.3100 H   0  0  0  0  0  0  0  0  0  0  0  0
  -25.3730  -15.2390   20.3870 N   0  0  0  0  0  0  0  0  0  0  0  0
  -24.6120  -15.9010   20.4980 H   0  0  0  0  0  0  0  0  0  0  0  0
  -26.2300  -15.6710   20.0650 H   0  0  0  0  0  0  0  0  0  0  0  0
  -29.4510  -23.1800   20.2830 O   0  0  0  0  0  0  0  0  0  0  0  0
  -29.5270  -24.5820   20.5500 C   0  0  0  0  0  2  0  0  0  0  0  0
  -28.2780  -25.2910   19.9950 C   0  0  0  0  0  2  0  0  0  0  0  0
  -28.3690  -26.7110   20.1540 O   0  0  0  0  0  0  0  0  0  0  0  0
  -24.5800  -31.8770   23.2220 C   0  0  0  0  0  0  0  0  0  0  0  0
  -27.1870  -27.4270   20.1300 C   0  0  0  0  0  0  0  0  0  0  0  0
  -23.3530  -30.4720   21.5980 C   0  0  0  0  0  3  0  0  0  0  0  0
  -24.7890  -28.9330   20.1600 C   0  0  0  0  0  0  0  0  0  0  0  0
  -25.8780  -30.8290   21.3710 C   0  0  0  0  0  2  0  0  0  0  0  0
  -25.9540  -29.4570   20.7330 C   0  0  0  0  0  0  0  0  0  0  0  0
  -27.1540  -28.7130   20.7140 C   0  0  0  0  0  3  0  0  0  0  0  0
  -26.0040  -26.9180   19.5450 C   0  0  0  0  0  3  0  0  0  0  0  0
  -24.8090  -27.6610   19.5640 C   0  0  0  0  0  3  0  0  0  0  0  0
  -23.5460  -29.7910   20.2180 C   0  0  0  0  0  2  0  0  0  0  0  0
  -24.6220  -31.0740   22.1220 N   0  0  0  0  0  0  0  0  0  0  0  0
  -23.5050  -32.1510   23.7730 O   0  0  0  0  0  0  0  0  0  0  0  0
  -22.7140  -29.4520   22.5680 C   0  0  0  0  0  0  0  0  0  0  0  0
  -21.3880  -29.2690   22.4550 N   0  0  0  0  0  0  0  0  0  0  0  0
  -23.4060  -28.8290   23.3760 O   0  0  0  0  0  0  0  0  0  0  0  0
  -20.8910  -29.8250   21.7720 H   0  0  0  0  0  0  0  0  0  0  0  0
  -18.0190  -28.0700   22.9750 C   0  0  0  0  0  0  0  0  0  0  0  0
  -20.5770  -28.3350   23.2350 C   0  0  0  0  0  3  0  0  0  0  0  0
  -20.6820  -26.9000   22.6700 C   0  0  0  0  0  2  0  0  0  0  0  0
  -19.5780  -26.5670   21.6620 C   0  0  0  0  0  2  0  0  0  0  0  0
  -18.1970  -26.7150   22.3110 C   0  0  0  0  0  2  0  0  0  0  0  0
  -19.1380  -28.8380   23.3950 C   0  0  0  0  0  0  0  0  0  0  0  0
  -18.9210  -30.1060   23.9740 C   0  0  0  0  0  3  0  0  0  0  0  0
  -17.6160  -30.6080   24.1410 C   0  0  0  0  0  3  0  0  0  0  0  0
  -16.5110  -29.8380   23.7400 C   0  0  0  0  0  3  0  0  0  0  0  0
  -16.7130  -28.5710   23.1620 C   0  0  0  0  0  3  0  0  0  0  0  0
  -25.8730  -32.5100   23.8250 C   0  0  0  0  0  3  0  0  0  0  0  0
  -26.4160  -31.7300   25.0850 C   0  0  1  0  0  0  0  0  0  0  0  0
  -25.3460  -31.4820   26.1730 C   0  0  0  0  0  1  0  0  0  0  0  0
  -26.9950  -30.3580   24.6690 C   0  0  0  0  0  1  0  0  0  0  0  0
  -27.5760  -32.5240   25.7310 C   0  0  0  0  0  1  0  0  0  0  0  0
  -25.5650  -33.9030   24.1680 N   0  0  0  0  0  0  0  0  0  0  0  0
  -25.8810  -34.9600   23.4090 C   0  0  0  0  0  0  0  0  0  0  0  0
  -26.5340  -34.8640   22.3660 O   0  0  0  0  0  0  0  0  0  0  0  0
  -24.9850  -34.0520   24.9810 H   0  0  0  0  0  0  0  0  0  0  0  0
  -24.1340  -36.7440   23.0980 C   0  0  0  0  0  1  0  0  0  0  0  0
  -25.3950  -36.3440   23.8820 C   0  0  0  0  0  3  0  0  0  0  0  0
  -27.5430  -37.2340   24.6680 C   0  0  0  0  0  1  0  0  0  0  0  0
  -26.4180  -37.4040   23.7530 N   0  0  0  0  0  0  0  0  0  0  0  0
  -26.0100  -38.3200   23.9190 H   0  0  0  0  0  0  0  0  0  0  0  0
  2  3  1  0
  2  1  1  0
  4  5  1  0
  4  3  1  0
  5  6  1  0
  6 15  1  0
  7 15  1  0
  8 13  1  0
  9 10  1  0
  9  8  1  0
 11 10  1  0
 11 20  1  0
 11 12  1  0
 13  7  1  0
 13 12  1  0
 14  7  2  0
 15 16  1  0
 17 18  2  0
 18 37  1  0
 19 18  1  0
 19 22  1  0
 20 17  1  0
 20 21  1  0
 21 19  2  0
 22 23  1  0
 23 24  2  0
 25 28  1  0
 25 24  1  0
 26 25  2  0
 27 26  1  0
 27 22  2  0
 28 29  1  0
 29 30  1  0
 30 31  2  0
 32 31  1  0
 32 36  1  0
 33 32  2  0
 34 29  2  0
 34 33  1  0
 35 34  1  0
 37 38  1  0
 38 41  1  0
 38 40  1  0
 39 37  2  0
 42 43  1  0
 42 17  1  0
 44 42  1  0
 45 46  1  0
 45  1  1  0
 47 48  1  0
 47 46  1  0
 49 60  2  0
 50 48  1  0
 50 55  1  0
 51 59  1  0
 51 61  1  0
 52 58  1  0
 52 54  1  0
 53 59  1  0
 54 53  1  0
 55 54  2  0
 56 57  1  0
 56 50  2  0
 57 52  2  0
 58 51  1  0
 59 49  1  0
 61 63  2  0
 62 61  1  0
 64 62  1  0
 65 74  2  0
 65 70  1  0
 66 62  1  0
 66 70  1  0
 67 66  1  0
 68 69  1  0
 68 67  1  0
 69 65  1  0
 70 71  2  0
 71 72  1  0
 73 72  2  0
 74 73  1  0
 75 49  1  0
 75 80  1  0
 75 76  1  0
 76 79  1  1
 76 77  1  0
 78 76  1  0
 80 83  1  0
 81 85  1  0
 81 80  1  0
 82 81  2  0
 85 84  1  0
 87 85  1  0
 87 88  1  0
 87 86  1  0
M  ISO  4   7 100  15 100  47 101  48 101
M  END
>  <TORSDO>  (28) 
F 24

>  <SCORE>  (28) 
-12.331

>  <name>  (28) 
27

>  <ligand_id>  (28) 
27

>  <original_smiles>  (28) 
[H]c1c([H])c([H])c2c(c1[H])C([H])([H])C([H])([H])C([H])([H])C2([H])N([H])C(=O)C1([H])N(C(=O)C([H])(N([H])C(=O)C([H])(N([H])C([H])([H])[H])C([H])([H])[H])C(C([H])([H])[H])(C([H])([H])[H])C([H])([H])[H])C([H])([H])c2c([H])c(OC([H])([H])C([H])([H])OC([H])([H])C([H])([H])OC([H])([H])C([H])([H])C([H])([H])N([H])C(=O)N3C([H])([H])C([H])([H])C([H])([H])C([H])(n4nc(-c5c([H])c([H])c(Oc6c([H])c([H])c(F)c([H])c6F)c([H])c5[H])c(C(=O)N([H])[H])c4N([H])[H])C3([H])[H])c([H])c([H])c2C1([H])[H]

>  <smiles>  (28) 
[H]c1c([H])c([H])c2c(c1[H])C([H])([H])C([H])([H])C([H])([H])C2([H])N([H])C(=O)C1([H])N(C(=O)C([H])(N([H])C(=O)C([H])(N([H])C([H])([H])[H])C([H])([H])[H])C(C([H])([H])[H])(C([H])([H])[H])C([H])([H])[H])C([H])([H])c2c([H])c(OC([H])([H])C([H])([H])OC([H])([H])C([H])([H])OC([H])([H])C([H])([H])C([H])([H])N([H])C(=O)N3C([H])([H])C([H])([H])C([H])([H])C([H])(n4nc(-c5c([H])c([H])c(Oc6c([H])c([H])c(F)c([H])c6F)c([H])c5[H])c(C(=O)N([H])[H])c4N([H])[H])C3([H])[H])c([H])c([H])c2C1([H])[H]

$$$$
28:0:0
     RDKit          3D

 98105  0  0  1  0  0  0  0  0999 V2000
  -28.8060  -21.3550   21.3790 C   0  0  0  0  0  2  0  0  0  0  0  0
  -30.0050  -21.6590   19.1660 C   0  0  0  0  0  0  0  0  0  0  0  0
  -29.1310  -21.0530   19.9840 N   0  0  0  0  0  0  0  0  0  0  0  0
  -30.2170  -21.1900   18.0480 O   0  0  0  0  0  0  0  0  0  0  0  0
  -28.7060  -20.2230   19.5970 H   0  0  0  0  0  0  0  0  0  0  0  0
  -30.7340  -22.9440   19.5890 C   0  0  0  0  0  2  0  0  0  0  0  0
  -31.8500  -22.6310   20.4110 O   0  0  0  0  0  0  0  0  0  0  0  0
  -32.8400  -23.6480   20.3840 C   0  0  0  0  0  2  0  0  0  0  0  0
  -33.9970  -23.2540   21.3040 C   0  0  0  0  0  2  0  0  0  0  0  0
  -34.3490  -21.8940   21.0900 O   0  0  0  0  0  0  0  0  0  0  0  0
  -35.6940  -21.6230   21.4590 C   0  0  0  0  0  2  0  0  0  0  0  0
  -35.8000  -20.1770   21.9700 C   0  0  0  0  0  2  0  0  0  0  0  0
  -35.5870  -18.7770   19.9030 C   0  0  0  0  0  0  0  0  0  0  0  0
  -35.5850  -16.8400   18.3770 C   0  0  0  0  0  2  0  0  0  0  0  0
  -34.7830  -17.0650   17.0860 C   0  0  0  0  0  2  0  0  0  0  0  0
  -33.3030  -16.7100   17.3110 C   0  0  0  0  0  2  0  0  0  0  0  0
  -32.7120  -17.4080   18.5630 C   0  0  0  0  0  3  0  0  0  0  0  0
  -33.6230  -17.2040   19.7940 C   0  0  0  0  0  2  0  0  0  0  0  0
  -34.9910  -17.6440   19.4570 N   0  0  0  0  0  0  0  0  0  0  0  0
  -36.5620  -19.2950   19.3550 O   0  0  0  0  0  0  0  0  0  0  0  0
  -35.1580  -19.1920   21.0990 N   0  0  0  0  0  0  0  0  0  0  0  0
  -34.3640  -18.7010   21.4810 H   0  0  0  0  0  0  0  0  0  0  0  0
  -30.1740  -17.6890   18.8970 C   0  0  0  0  0  0  0  0  0  0  0  0
  -29.1710  -16.7770   19.0940 C   0  0  0  0  0  0  0  0  0  0  0  0
  -29.8030  -15.4970   19.1260 C   0  0  0  0  0  0  0  0  0  0  0  0
  -31.3470  -16.9540   18.8240 N   0  0  0  0  0  0  0  0  0  0  0  0
  -31.1180  -15.6300   19.0170 N   0  0  0  0  0  0  0  0  0  0  0  0
  -29.2260  -14.1480   19.1980 C   0  0  0  0  0  0  0  0  0  0  0  0
  -29.4820  -13.2920   20.2910 C   0  0  0  0  0  3  0  0  0  0  0  0
  -28.9010  -12.0060   20.3450 C   0  0  0  0  0  3  0  0  0  0  0  0
  -28.0520  -11.5670   19.3010 C   0  0  0  0  0  0  0  0  0  0  0  0
  -27.8180  -12.4150   18.2040 C   0  0  0  0  0  3  0  0  0  0  0  0
  -28.4000  -13.6920   18.1500 C   0  0  0  0  0  3  0  0  0  0  0  0
  -27.4660  -10.3230   19.2550 O   0  0  0  0  0  0  0  0  0  0  0  0
  -26.9650   -9.7210   20.3810 C   0  0  0  0  0  0  0  0  0  0  0  0
  -25.9420  -10.3160   21.1500 C   0  0  0  0  0  3  0  0  0  0  0  0
  -25.4080   -9.6320   22.2610 C   0  0  0  0  0  3  0  0  0  0  0  0
  -25.8880   -8.3530   22.5970 C   0  0  0  0  0  0  0  0  0  0  0  0
  -26.9040   -7.7550   21.8280 C   0  0  0  0  0  3  0  0  0  0  0  0
  -27.4390   -8.4380   20.7210 C   0  0  0  0  0  0  0  0  0  0  0  0
  -28.4020   -7.8510   19.9720 F   0  0  0  0  0  0  0  0  0  0  0  0
  -25.3710   -7.6910   23.6580 F   0  0  0  0  0  0  0  0  0  0  0  0
  -27.7000  -17.0670   19.1550 C   0  0  0  0  0  0  0  0  0  0  0  0
  -26.9460  -16.2630   19.8990 N   0  0  0  0  0  0  0  0  0  0  0  0
  -27.2130  -18.0400   18.5800 O   0  0  0  0  0  0  0  0  0  0  0  0
  -27.3490  -15.4770   20.3870 H   0  0  0  0  0  0  0  0  0  0  0  0
  -25.9560  -16.4390   19.9810 H   0  0  0  0  0  0  0  0  0  0  0  0
  -30.1870  -19.0720   18.7560 N   0  0  0  0  0  0  0  0  0  0  0  0
  -29.3390  -19.6270   18.7610 H   0  0  0  0  0  0  0  0  0  0  0  0
  -31.0200  -19.6270   18.6000 H   0  0  0  0  0  0  0  0  0  0  0  0
  -28.0240  -22.6670   21.5380 C   0  0  0  0  0  2  0  0  0  0  0  0
  -28.5610  -23.8280   20.6740 C   0  0  0  0  0  2  0  0  0  0  0  0
  -28.6540  -25.1420   21.4730 C   0  0  0  0  0  2  0  0  0  0  0  0
  -29.4370  -26.9240   19.8680 C   0  0  0  0  0  0  0  0  0  0  0  0
  -28.4460  -26.3290   20.6420 N   0  0  0  0  0  0  0  0  0  0  0  0
  -30.5650  -26.4640   19.6900 O   0  0  0  0  0  0  0  0  0  0  0  0
  -27.5740  -26.8360   20.7090 H   0  0  0  0  0  0  0  0  0  0  0  0
  -29.0620  -28.1360   19.3460 O   0  0  0  0  0  0  0  0  0  0  0  0
  -24.5040  -31.9190   23.3070 C   0  0  0  0  0  0  0  0  0  0  0  0
  -27.7950  -28.6540   19.4900 C   0  0  0  0  0  0  0  0  0  0  0  0
  -23.5240  -30.6760   21.4100 C   0  0  0  0  0  3  0  0  0  0  0  0
  -25.1890  -29.6970   19.7420 C   0  0  0  0  0  0  0  0  0  0  0  0
  -25.9540  -31.4750   21.3280 C   0  0  0  0  0  2  0  0  0  0  0  0
  -26.2530  -30.2900   20.4380 C   0  0  0  0  0  0  0  0  0  0  0  0
  -27.5630  -29.7820   20.3060 C   0  0  0  0  0  3  0  0  0  0  0  0
  -26.7220  -28.0740   18.7830 C   0  0  0  0  0  3  0  0  0  0  0  0
  -25.4180  -28.5860   18.9120 C   0  0  0  0  0  3  0  0  0  0  0  0
  -23.8230  -30.3140   19.9310 C   0  0  0  0  0  2  0  0  0  0  0  0
  -24.6780  -31.3620   22.0750 N   0  0  0  0  0  0  0  0  0  0  0  0
  -23.3990  -31.8980   23.8690 O   0  0  0  0  0  0  0  0  0  0  0  0
  -23.0690  -29.3940   22.1440 C   0  0  0  0  0  0  0  0  0  0  0  0
  -21.7890  -29.0280   21.9720 N   0  0  0  0  0  0  0  0  0  0  0  0
  -23.8660  -28.7410   22.8230 O   0  0  0  0  0  0  0  0  0  0  0  0
  -21.1970  -29.6230   21.4080 H   0  0  0  0  0  0  0  0  0  0  0  0
  -18.6380  -27.2940   22.2990 C   0  0  0  0  0  0  0  0  0  0  0  0
  -21.1520  -27.8400   22.5380 C   0  0  0  0  0  3  0  0  0  0  0  0
  -21.4030  -26.6020   21.6500 C   0  0  0  0  0  2  0  0  0  0  0  0
  -20.2920  -26.3590   20.6250 C   0  0  0  0  0  2  0  0  0  0  0  0
  -18.9440  -26.1650   21.3280 C   0  0  0  0  0  2  0  0  0  0  0  0
  -19.6730  -28.0920   22.8520 C   0  0  0  0  0  0  0  0  0  0  0  0
  -19.3340  -29.1550   23.7180 C   0  0  0  0  0  3  0  0  0  0  0  0
  -17.9900  -29.4250   24.0320 C   0  0  0  0  0  3  0  0  0  0  0  0
  -16.9670  -28.6240   23.4920 C   0  0  0  0  0  3  0  0  0  0  0  0
  -17.2930  -27.5580   22.6350 C   0  0  0  0  0  3  0  0  0  0  0  0
  -25.6780  -32.6240   24.0560 C   0  0  0  0  0  3  0  0  0  0  0  0
  -25.2420  -33.9940   24.3660 N   0  0  0  0  0  0  0  0  0  0  0  0
  -25.5850  -35.0770   23.6560 C   0  0  0  0  0  0  0  0  0  0  0  0
  -26.3690  -35.0340   22.7030 O   0  0  0  0  0  0  0  0  0  0  0  0
  -24.5630  -34.1000   25.1050 H   0  0  0  0  0  0  0  0  0  0  0  0
  -23.7860  -36.7480   23.1280 C   0  0  0  0  0  1  0  0  0  0  0  0
  -24.9600  -36.4260   24.0670 C   0  0  0  0  0  3  0  0  0  0  0  0
  -26.9340  -37.4320   25.1200 C   0  0  0  0  0  1  0  0  0  0  0  0
  -25.9260  -37.5460   24.0690 N   0  0  0  0  0  0  0  0  0  0  0  0
  -25.4490  -38.4370   24.1790 H   0  0  0  0  0  0  0  0  0  0  0  0
  -26.1190  -31.8720   25.3720 C   0  0  1  0  0  0  0  0  0  0  0  0
  -24.9430  -31.5180   26.3150 C   0  0  0  0  0  1  0  0  0  0  0  0
  -26.8560  -30.5590   25.0240 C   0  0  0  0  0  1  0  0  0  0  0  0
  -27.1280  -32.7390   26.1580 C   0  0  0  0  0  1  0  0  0  0  0  0
  1 51  1  0
  2  6  1  0
  2  3  1  0
  3  1  1  0
  4  2  2  0
  5  3  1  0
  6  7  1  0
  8  7  1  0
  8  9  1  0
 10  9  1  0
 10 11  1  0
 11 12  1  0
 13 21  1  0
 14 19  1  0
 15 16  1  0
 15 14  1  0
 17 16  1  0
 17 26  1  0
 17 18  1  0
 19 18  1  0
 19 13  1  0
 20 13  2  0
 21 22  1  0
 21 12  1  0
 23 24  2  0
 24 25  1  0
 24 43  1  0
 25 28  1  0
 26 23  1  0
 26 27  1  0
 27 25  2  0
 28 29  1  0
 29 30  2  0
 31 30  1  0
 32 31  2  0
 33 32  1  0
 33 28  2  0
 34 31  1  0
 34 35  1  0
 35 40  2  0
 35 36  1  0
 36 37  2  0
 37 38  1  0
 38 42  1  0
 39 38  2  0
 40 39  1  0
 41 40  1  0
 43 44  1  0
 44 47  1  0
 44 46  1  0
 45 43  2  0
 48 49  1  0
 48 23  1  0
 50 48  1  0
 52 53  1  0
 52 51  1  0
 54 55  1  0
 55 57  1  0
 55 53  1  0
 56 54  2  0
 58 60  1  0
 58 54  1  0
 59 70  2  0
 60 65  1  0
 61 69  1  0
 61 71  1  0
 62 68  1  0
 62 64  1  0
 63 69  1  0
 64 63  1  0
 65 64  2  0
 66 67  1  0
 66 60  2  0
 67 62  2  0
 68 61  1  0
 69 59  1  0
 71 73  2  0
 72 71  1  0
 74 72  1  0
 75 84  2  0
 75 80  1  0
 76 72  1  0
 76 80  1  0
 77 76  1  0
 78 79  1  0
 78 77  1  0
 79 75  1  0
 80 81  2  0
 81 82  1  0
 83 82  2  0
 84 83  1  0
 85 59  1  0
 85 86  1  0
 85 95  1  0
 86 89  1  0
 87 91  1  0
 87 86  1  0
 88 87  2  0
 91 90  1  0
 91 93  1  0
 93 94  1  0
 93 92  1  0
 95 98  1  1
 95 96  1  0
 97 95  1  0
M  ISO  4  13 100  21 100  54 101  58 101
M  END
>  <TORSDO>  (29) 
F 28

>  <SCORE>  (29) 
-1.470

>  <name>  (29) 
28

>  <ligand_id>  (29) 
28

>  <original_smiles>  (29) 
[H]c1c([H])c([H])c2c(c1[H])C([H])([H])C([H])([H])C([H])([H])C2([H])N([H])C(=O)C1([H])N(C(=O)C([H])(N([H])C(=O)C([H])(N([H])C([H])([H])[H])C([H])([H])[H])C(C([H])([H])[H])(C([H])([H])[H])C([H])([H])[H])C([H])([H])c2c([H])c(OC(=O)N([H])C([H])([H])C([H])([H])C([H])([H])C([H])([H])N([H])C(=O)C([H])([H])OC([H])([H])C([H])([H])OC([H])([H])C([H])([H])N([H])C(=O)N3C([H])([H])C([H])([H])C([H])([H])C([H])(n4nc(-c5c([H])c([H])c(Oc6c([H])c([H])c(F)c([H])c6F)c([H])c5[H])c(C(=O)N([H])[H])c4N([H])[H])C3([H])[H])c([H])c([H])c2C1([H])[H]

>  <smiles>  (29) 
[H]c1c([H])c([H])c2c(c1[H])C([H])([H])C([H])([H])C([H])([H])C2([H])N([H])C(=O)C1([H])N(C(=O)C([H])(N([H])C(=O)C([H])(N([H])C([H])([H])[H])C([H])([H])[H])C(C([H])([H])[H])(C([H])([H])[H])C([H])([H])[H])C([H])([H])c2c([H])c(OC(=O)N([H])C([H])([H])C([H])([H])C([H])([H])C([H])([H])N([H])C(=O)C([H])([H])OC([H])([H])C([H])([H])OC([H])([H])C([H])([H])N([H])C(=O)N3C([H])([H])C([H])([H])C([H])([H])C([H])(n4nc(-c5c([H])c([H])c(Oc6c([H])c([H])c(F)c([H])c6F)c([H])c5[H])c(C(=O)N([H])[H])c4N([H])[H])C3([H])[H])c([H])c([H])c2C1([H])[H]

$$$$
29:0:0
     RDKit          3D

 90 97  0  0  1  0  0  0  0  0999 V2000
  -27.8060  -22.7890   22.0570 C   0  0  0  0  0  2  0  0  0  0  0  0
  -28.1210  -23.6690   20.9800 O   0  0  0  0  0  0  0  0  0  0  0  0
  -28.3570  -25.0040   21.4180 C   0  0  0  0  0  2  0  0  0  0  0  0
  -29.0330  -25.8100   20.2920 C   0  0  0  0  0  2  0  0  0  0  0  0
  -28.9770  -27.2200   20.5330 O   0  0  0  0  0  0  0  0  0  0  0  0
  -24.8130  -32.1180   23.5430 C   0  0  0  0  0  0  0  0  0  0  0  0
  -27.7520  -27.8490   20.4980 C   0  0  0  0  0  0  0  0  0  0  0  0
  -23.7220  -30.6820   21.8480 C   0  0  0  0  0  3  0  0  0  0  0  0
  -25.2850  -29.2330   20.4560 C   0  0  0  0  0  0  0  0  0  0  0  0
  -26.2290  -31.1650   21.7290 C   0  0  0  0  0  2  0  0  0  0  0  0
  -26.3990  -29.8060   21.0820 C   0  0  0  0  0  0  0  0  0  0  0  0
  -27.6340  -29.1210   21.0980 C   0  0  0  0  0  3  0  0  0  0  0  0
  -26.6140  -27.2830   19.8740 C   0  0  0  0  0  3  0  0  0  0  0  0
  -25.3870  -27.9680   19.8540 C   0  0  0  0  0  3  0  0  0  0  0  0
  -24.0040  -30.0320   20.4680 C   0  0  0  0  0  2  0  0  0  0  0  0
  -24.9370  -31.3350   22.4330 N   0  0  0  0  0  0  0  0  0  0  0  0
  -23.7050  -32.3340   24.0530 O   0  0  0  0  0  0  0  0  0  0  0  0
  -23.0900  -29.6210   22.7760 C   0  0  0  0  0  0  0  0  0  0  0  0
  -21.7860  -29.3620   22.5830 N   0  0  0  0  0  0  0  0  0  0  0  0
  -23.7700  -29.0330   23.6190 O   0  0  0  0  0  0  0  0  0  0  0  0
  -21.2950  -29.8870   21.8700 H   0  0  0  0  0  0  0  0  0  0  0  0
  -18.4720  -27.9650   22.9140 C   0  0  0  0  0  0  0  0  0  0  0  0
  -20.9920  -28.3730   23.3120 C   0  0  0  0  0  3  0  0  0  0  0  0
  -21.2090  -26.9500   22.7440 C   0  0  0  0  0  2  0  0  0  0  0  0
  -20.1790  -26.5620   21.6760 C   0  0  0  0  0  2  0  0  0  0  0  0
  -18.7620  -26.6280   22.2540 C   0  0  0  0  0  2  0  0  0  0  0  0
  -19.5210  -28.7900   23.3990 C   0  0  0  0  0  0  0  0  0  0  0  0
  -19.2030  -30.0400   23.9710 C   0  0  0  0  0  3  0  0  0  0  0  0
  -17.8650  -30.4650   24.0730 C   0  0  0  0  0  3  0  0  0  0  0  0
  -16.8290  -29.6370   23.6090 C   0  0  0  0  0  3  0  0  0  0  0  0
  -17.1330  -28.3910   23.0320 C   0  0  0  0  0  3  0  0  0  0  0  0
  -26.0510  -32.7960   24.2080 C   0  0  0  0  0  3  0  0  0  0  0  0
  -26.4950  -32.0970   25.5500 C   0  0  1  0  0  0  0  0  0  0  0  0
  -25.3360  -31.8630   26.5460 C   0  0  0  0  0  1  0  0  0  0  0  0
  -27.1490  -30.7280   25.2540 C   0  0  0  0  0  1  0  0  0  0  0  0
  -27.5660  -32.9570   26.2590 C   0  0  0  0  0  1  0  0  0  0  0  0
  -25.7090  -34.2050   24.4420 N   0  0  0  0  0  0  0  0  0  0  0  0
  -26.0740  -35.2180   23.6420 C   0  0  0  0  0  0  0  0  0  0  0  0
  -26.8020  -35.0650   22.6570 O   0  0  0  0  0  0  0  0  0  0  0  0
  -25.0670  -34.3930   25.1980 H   0  0  0  0  0  0  0  0  0  0  0  0
  -24.3440  -36.9560   23.0900 C   0  0  0  0  0  1  0  0  0  0  0  0
  -25.5440  -36.6220   23.9910 C   0  0  0  0  0  3  0  0  0  0  0  0
  -27.6240  -37.5810   24.8740 C   0  0  0  0  0  1  0  0  0  0  0  0
  -26.5690  -37.6810   23.8690 N   0  0  0  0  0  0  0  0  0  0  0  0
  -26.1450  -38.6010   23.9460 H   0  0  0  0  0  0  0  0  0  0  0  0
  -27.4930  -21.3830   21.5210 C   0  0  0  0  0  2  0  0  0  0  0  0
  -28.6650  -20.7680   20.9950 O   0  0  0  0  0  0  0  0  0  0  0  0
  -28.3670  -19.5800   20.2660 C   0  0  0  0  0  2  0  0  0  0  0  0
  -29.6620  -18.8370   19.8940 C   0  0  0  0  0  2  0  0  0  0  0  0
  -30.0630  -17.9670   20.9490 O   0  0  0  0  0  0  0  0  0  0  0  0
  -31.4690  -17.8850   21.1710 C   0  0  0  0  0  2  0  0  0  0  0  0
  -32.1640  -16.8510   20.2700 C   0  0  0  0  0  2  0  0  0  0  0  0
  -31.9300  -14.4640   19.7030 C   0  0  0  0  0  0  0  0  0  0  0  0
  -31.3700  -12.1870   18.9420 C   0  0  0  0  0  2  0  0  0  0  0  0
  -30.3890  -12.2580   17.7560 C   0  0  0  0  0  2  0  0  0  0  0  0
  -28.9350  -12.3150   18.2570 C   0  0  0  0  0  2  0  0  0  0  0  0
  -28.7260  -13.3820   19.3650 C   0  0  0  0  0  3  0  0  0  0  0  0
  -29.8210  -13.2870   20.4530 C   0  0  0  0  0  2  0  0  0  0  0  0
  -31.1380  -13.3620   19.7950 N   0  0  0  0  0  0  0  0  0  0  0  0
  -32.9520  -14.5110   19.0150 O   0  0  0  0  0  0  0  0  0  0  0  0
  -31.5220  -15.5410   20.3790 N   0  0  0  0  0  0  0  0  0  0  0  0
  -30.6870  -15.4770   20.9440 H   0  0  0  0  0  0  0  0  0  0  0  0
  -26.5230  -14.3100   20.3180 C   0  0  0  0  0  0  0  0  0  0  0  0
  -25.3730  -13.6950   20.7340 C   0  0  0  0  0  0  0  0  0  0  0  0
  -25.5970  -12.2930   20.5790 C   0  0  0  0  0  0  0  0  0  0  0  0
  -27.3840  -13.2930   19.9390 N   0  0  0  0  0  0  0  0  0  0  0  0
  -26.8320  -12.0680   20.1490 N   0  0  0  0  0  0  0  0  0  0  0  0
  -24.6860  -11.1530   20.7540 C   0  0  0  0  0  0  0  0  0  0  0  0
  -25.0150  -10.0650   21.5910 C   0  0  0  0  0  3  0  0  0  0  0  0
  -24.1140   -8.9910   21.7570 C   0  0  0  0  0  3  0  0  0  0  0  0
  -22.8680   -9.0000   21.0880 C   0  0  0  0  0  0  0  0  0  0  0  0
  -22.5550  -10.0750   20.2360 C   0  0  0  0  0  3  0  0  0  0  0  0
  -23.4560  -11.1380   20.0660 C   0  0  0  0  0  3  0  0  0  0  0  0
  -21.9430   -7.9870   21.1680 O   0  0  0  0  0  0  0  0  0  0  0  0
  -21.8340   -7.1990   22.2860 C   0  0  0  0  0  0  0  0  0  0  0  0
  -21.5870   -7.7470   23.5640 C   0  0  0  0  0  3  0  0  0  0  0  0
  -21.4110   -6.8960   24.6730 C   0  0  0  0  0  3  0  0  0  0  0  0
  -21.4730   -5.4990   24.5060 C   0  0  0  0  0  0  0  0  0  0  0  0
  -21.7140   -4.9520   23.2340 C   0  0  0  0  0  3  0  0  0  0  0  0
  -21.8900   -5.8000   22.1260 C   0  0  0  0  0  0  0  0  0  0  0  0
  -22.1010   -5.2670   20.8980 F   0  0  0  0  0  0  0  0  0  0  0  0
  -21.2960   -4.6800   25.5700 F   0  0  0  0  0  0  0  0  0  0  0  0
  -24.1040  -14.3690   21.1660 C   0  0  0  0  0  0  0  0  0  0  0  0
  -23.3490  -13.7420   22.0620 N   0  0  0  0  0  0  0  0  0  0  0  0
  -23.7960  -15.4850   20.7480 O   0  0  0  0  0  0  0  0  0  0  0  0
  -23.6150  -12.8390   22.4260 H   0  0  0  0  0  0  0  0  0  0  0  0
  -22.4980  -14.1770   22.3890 H   0  0  0  0  0  0  0  0  0  0  0  0
  -26.9010  -15.6450   20.2170 N   0  0  0  0  0  0  0  0  0  0  0  0
  -26.2750  -16.4070   20.4510 H   0  0  0  0  0  0  0  0  0  0  0  0
  -27.7960  -15.9620   19.8690 H   0  0  0  0  0  0  0  0  0  0  0  0
  2  3  1  0
  2  1  1  0
  4  5  1  0
  4  3  1  0
  6 17  2  0
  7  5  1  0
  7 12  1  0
  8 16  1  0
  8 18  1  0
  9 15  1  0
  9 11  1  0
 10 16  1  0
 11 12  2  0
 11 10  1  0
 13  7  2  0
 14 13  1  0
 14  9  2  0
 15  8  1  0
 16  6  1  0
 18 20  2  0
 19 18  1  0
 21 19  1  0
 22 31  2  0
 22 27  1  0
 23 19  1  0
 23 27  1  0
 24 23  1  0
 25 26  1  0
 25 24  1  0
 26 22  1  0
 27 28  2  0
 28 29  1  0
 30 29  2  0
 31 30  1  0
 32  6  1  0
 32 37  1  0
 32 33  1  0
 33 36  1  1
 33 34  1  0
 35 33  1  0
 37 40  1  0
 38 42  1  0
 38 37  1  0
 39 38  2  0
 42 41  1  0
 44 45  1  0
 44 42  1  0
 44 43  1  0
 46  1  1  0
 47 46  1  0
 48 47  1  0
 49 48  1  0
 49 50  1  0
 50 51  1  0
 52 61  1  0
 52 51  1  0
 53 59  1  0
 53 61  1  0
 54 59  1  0
 55 56  1  0
 55 54  1  0
 57 56  1  0
 57 66  1  0
 57 58  1  0
 59 58  1  0
 60 53  2  0
 61 62  1  0
 63 64  2  0
 64 83  1  0
 65 64  1  0
 65 68  1  0
 66 67  1  0
 66 63  1  0
 67 65  2  0
 68 69  1  0
 69 70  2  0
 71 74  1  0
 71 70  1  0
 72 71  2  0
 73 72  1  0
 73 68  2  0
 74 75  1  0
 75 76  1  0
 76 77  2  0
 78 77  1  0
 78 82  1  0
 79 78  2  0
 80 75  2  0
 80 79  1  0
 81 80  1  0
 83 84  1  0
 84 87  1  0
 84 86  1  0
 85 83  2  0
 88 63  1  0
 88 89  1  0
 90 88  1  0
M  ISO  4   4 101   5 101  53 100  61 100
M  END
>  <TORSDO>  (30) 
F 26

>  <SCORE>  (30) 
-9.736

>  <name>  (30) 
29

>  <ligand_id>  (30) 
29

>  <original_smiles>  (30) 
[H]c1c([H])c([H])c2c(c1[H])C([H])([H])C([H])([H])C([H])([H])C2([H])N([H])C(=O)C1([H])N(C(=O)C([H])(N([H])C(=O)C([H])(N([H])C([H])([H])[H])C([H])([H])[H])C(C([H])([H])[H])(C([H])([H])[H])C([H])([H])[H])C([H])([H])c2c([H])c(OC([H])([H])C([H])([H])OC([H])([H])C([H])([H])OC([H])([H])C([H])([H])OC([H])([H])C([H])([H])N([H])C(=O)N3C([H])([H])C([H])([H])C([H])([H])C([H])(n4nc(-c5c([H])c([H])c(Oc6c([H])c([H])c(F)c([H])c6F)c([H])c5[H])c(C(=O)N([H])[H])c4N([H])[H])C3([H])[H])c([H])c([H])c2C1([H])[H]

>  <smiles>  (30) 
[H]c1c([H])c([H])c2c(c1[H])C([H])([H])C([H])([H])C([H])([H])C2([H])N([H])C(=O)C1([H])N(C(=O)C([H])(N([H])C(=O)C([H])(N([H])C([H])([H])[H])C([H])([H])[H])C(C([H])([H])[H])(C([H])([H])[H])C([H])([H])[H])C([H])([H])c2c([H])c(OC([H])([H])C([H])([H])OC([H])([H])C([H])([H])OC([H])([H])C([H])([H])OC([H])([H])C([H])([H])N([H])C(=O)N3C([H])([H])C([H])([H])C([H])([H])C([H])(n4nc(-c5c([H])c([H])c(Oc6c([H])c([H])c(F)c([H])c6F)c([H])c5[H])c(C(=O)N([H])[H])c4N([H])[H])C3([H])[H])c([H])c([H])c2C1([H])[H]

$$$$
30:0:0
     RDKit          3D

 91 98  0  0  1  0  0  0  0  0999 V2000
  -31.5490  -23.0530   17.4200 C   0  0  0  0  0  2  0  0  0  0  0  0
  -31.6700  -21.9010   18.2500 O   0  0  0  0  0  0  0  0  0  0  0  0
  -31.9720  -22.1720   19.6160 C   0  0  0  0  0  2  0  0  0  0  0  0
  -31.1020  -21.2770   20.5060 C   0  0  0  0  0  2  0  0  0  0  0  0
  -31.5190  -19.9160   20.4120 O   0  0  0  0  0  0  0  0  0  0  0  0
  -30.5680  -19.0420   21.0070 C   0  0  0  0  0  2  0  0  0  0  0  0
  -31.0100  -17.5700   20.9260 C   0  0  0  0  0  2  0  0  0  0  0  0
  -29.8030  -16.6500   21.1940 C   0  0  0  0  0  2  0  0  0  0  0  0
  -30.6810  -14.3920   20.5050 C   0  0  0  0  0  0  0  0  0  0  0  0
  -30.3640  -12.3100   19.2230 C   0  0  0  0  0  2  0  0  0  0  0  0
  -29.3990  -12.5980   18.0540 C   0  0  0  0  0  2  0  0  0  0  0  0
  -27.9280  -12.4710   18.5020 C   0  0  0  0  0  2  0  0  0  0  0  0
  -27.6290  -13.2520   19.8090 C   0  0  0  0  0  3  0  0  0  0  0  0
  -28.6870  -12.9010   20.8800 C   0  0  0  0  0  2  0  0  0  0  0  0
  -30.0240  -13.2170   20.3300 N   0  0  0  0  0  0  0  0  0  0  0  0
  -31.7000  -14.7090   19.8820 O   0  0  0  0  0  0  0  0  0  0  0  0
  -30.0680  -15.2200   21.3590 N   0  0  0  0  0  0  0  0  0  0  0  0
  -29.3820  -14.7470   21.9270 H   0  0  0  0  0  0  0  0  0  0  0  0
  -25.2330  -13.8880   20.5210 C   0  0  0  0  0  0  0  0  0  0  0  0
  -24.1590  -13.1250   20.8930 C   0  0  0  0  0  0  0  0  0  0  0  0
  -24.6050  -11.7680   20.8490 C   0  0  0  0  0  0  0  0  0  0  0  0
  -26.2710  -12.9970   20.2830 N   0  0  0  0  0  0  0  0  0  0  0  0
  -25.8910  -11.7160   20.5300 N   0  0  0  0  0  0  0  0  0  0  0  0
  -23.8680  -10.5120   21.0370 C   0  0  0  0  0  0  0  0  0  0  0  0
  -24.3220   -9.5200   21.9330 C   0  0  0  0  0  3  0  0  0  0  0  0
  -23.5890   -8.3260   22.1100 C   0  0  0  0  0  3  0  0  0  0  0  0
  -22.3870   -8.1190   21.3910 C   0  0  0  0  0  0  0  0  0  0  0  0
  -21.9520   -9.1010   20.4830 C   0  0  0  0  0  3  0  0  0  0  0  0
  -22.6860  -10.2850   20.3050 C   0  0  0  0  0  3  0  0  0  0  0  0
  -21.6220   -6.9800   21.4790 O   0  0  0  0  0  0  0  0  0  0  0  0
  -21.6270   -6.1950   22.6040 C   0  0  0  0  0  0  0  0  0  0  0  0
  -21.3000   -6.7120   23.8760 C   0  0  0  0  0  3  0  0  0  0  0  0
  -21.2520   -5.8550   24.9930 C   0  0  0  0  0  3  0  0  0  0  0  0
  -21.5180   -4.4820   24.8400 C   0  0  0  0  0  0  0  0  0  0  0  0
  -21.8380   -3.9630   23.5720 C   0  0  0  0  0  3  0  0  0  0  0  0
  -21.8900   -4.8180   22.4580 C   0  0  0  0  0  0  0  0  0  0  0  0
  -22.1780   -4.3100   21.2350 F   0  0  0  0  0  0  0  0  0  0  0  0
  -21.4640   -3.6560   25.9120 F   0  0  0  0  0  0  0  0  0  0  0  0
  -22.7690  -13.6130   21.1840 C   0  0  0  0  0  0  0  0  0  0  0  0
  -22.0440  -12.9170   22.0530 N   0  0  0  0  0  0  0  0  0  0  0  0
  -22.3320  -14.6450   20.6760 O   0  0  0  0  0  0  0  0  0  0  0  0
  -22.4090  -12.0820   22.4880 H   0  0  0  0  0  0  0  0  0  0  0  0
  -21.1100  -13.2230   22.2880 H   0  0  0  0  0  0  0  0  0  0  0  0
  -25.4120  -15.2580   20.3500 N   0  0  0  0  0  0  0  0  0  0  0  0
  -24.6550  -15.9230   20.4680 H   0  0  0  0  0  0  0  0  0  0  0  0
  -26.2710  -15.6880   20.0320 H   0  0  0  0  0  0  0  0  0  0  0  0
  -30.1060  -23.5900   17.4430 C   0  0  0  0  0  2  0  0  0  0  0  0
  -29.8700  -24.3150   18.6410 O   0  0  0  0  0  0  0  0  0  0  0  0
  -28.5020  -24.6470   18.8320 C   0  0  0  0  0  2  0  0  0  0  0  0
  -28.3400  -25.3180   20.2060 C   0  0  0  0  0  2  0  0  0  0  0  0
  -28.4240  -26.7420   20.1230 O   0  0  0  0  0  0  0  0  0  0  0  0
  -24.6140  -31.8640   23.2190 C   0  0  0  0  0  0  0  0  0  0  0  0
  -27.2370  -27.4390   20.1150 C   0  0  0  0  0  0  0  0  0  0  0  0
  -23.3940  -30.4610   21.5870 C   0  0  0  0  0  3  0  0  0  0  0  0
  -24.8350  -28.9260   20.1490 C   0  0  0  0  0  0  0  0  0  0  0  0
  -25.9170  -30.8240   21.3690 C   0  0  0  0  0  2  0  0  0  0  0  0
  -25.9960  -29.4550   20.7280 C   0  0  0  0  0  0  0  0  0  0  0  0
  -27.1990  -28.7200   20.7050 C   0  0  0  0  0  3  0  0  0  0  0  0
  -26.0560  -26.9200   19.5320 C   0  0  0  0  0  3  0  0  0  0  0  0
  -24.8600  -27.6570   19.5480 C   0  0  0  0  0  3  0  0  0  0  0  0
  -23.5920  -29.7820   20.2060 C   0  0  0  0  0  2  0  0  0  0  0  0
  -24.6600  -31.0640   22.1160 N   0  0  0  0  0  0  0  0  0  0  0  0
  -23.5360  -32.1390   23.7660 O   0  0  0  0  0  0  0  0  0  0  0  0
  -22.7510  -29.4390   22.5520 C   0  0  0  0  0  0  0  0  0  0  0  0
  -21.4250  -29.2600   22.4330 N   0  0  0  0  0  0  0  0  0  0  0  0
  -23.4390  -28.8130   23.3610 O   0  0  0  0  0  0  0  0  0  0  0  0
  -20.9330  -29.8170   21.7490 H   0  0  0  0  0  0  0  0  0  0  0  0
  -18.0520  -28.0750   22.9450 C   0  0  0  0  0  0  0  0  0  0  0  0
  -20.6110  -28.3260   23.2080 C   0  0  0  0  0  3  0  0  0  0  0  0
  -20.7100  -26.8940   22.6350 C   0  0  0  0  0  2  0  0  0  0  0  0
  -19.6030  -26.5730   21.6250 C   0  0  0  0  0  2  0  0  0  0  0  0
  -18.2230  -26.7230   22.2730 C   0  0  0  0  0  2  0  0  0  0  0  0
  -19.1750  -28.8350   23.3710 C   0  0  0  0  0  0  0  0  0  0  0  0
  -18.9620  -30.1010   23.9580 C   0  0  0  0  0  3  0  0  0  0  0  0
  -17.6600  -30.6060   24.1280 C   0  0  0  0  0  3  0  0  0  0  0  0
  -16.5510  -29.8440   23.7180 C   0  0  0  0  0  3  0  0  0  0  0  0
  -16.7500  -28.5800   23.1340 C   0  0  0  0  0  3  0  0  0  0  0  0
  -25.9060  -32.4900   23.8300 C   0  0  0  0  0  3  0  0  0  0  0  0
  -26.4410  -31.7060   25.0900 C   0  0  1  0  0  0  0  0  0  0  0  0
  -25.3630  -31.4580   26.1700 C   0  0  0  0  0  1  0  0  0  0  0  0
  -27.0180  -30.3330   24.6730 C   0  0  0  0  0  1  0  0  0  0  0  0
  -27.6010  -32.4950   25.7430 C   0  0  0  0  0  1  0  0  0  0  0  0
  -25.6020  -33.8850   24.1730 N   0  0  0  0  0  0  0  0  0  0  0  0
  -25.9300  -34.9410   23.4170 C   0  0  0  0  0  0  0  0  0  0  0  0
  -26.5920  -34.8440   22.3800 O   0  0  0  0  0  0  0  0  0  0  0  0
  -25.0140  -34.0360   24.9790 H   0  0  0  0  0  0  0  0  0  0  0  0
  -24.1950  -36.7320   23.0880 C   0  0  0  0  0  1  0  0  0  0  0  0
  -25.4440  -36.3260   23.8860 C   0  0  0  0  0  3  0  0  0  0  0  0
  -27.5860  -37.2040   24.7020 C   0  0  0  0  0  1  0  0  0  0  0  0
  -26.4740  -37.3810   23.7710 N   0  0  0  0  0  0  0  0  0  0  0  0
  -26.0700  -38.2990   23.9320 H   0  0  0  0  0  0  0  0  0  0  0  0
  1 47  1  0
  1  2  1  0
  2  3  1  0
  3  4  1  0
  5  4  1  0
  5  6  1  0
  7  6  1  0
  7  8  1  0
  8 17  1  0
  9 17  1  0
 10 15  1  0
 11 12  1  0
 11 10  1  0
 13 12  1  0
 13 22  1  0
 13 14  1  0
 15  9  1  0
 15 14  1  0
 16  9  2  0
 17 18  1  0
 19 20  2  0
 20 39  1  0
 21 20  1  0
 21 24  1  0
 22 19  1  0
 22 23  1  0
 23 21  2  0
 24 25  1  0
 25 26  2  0
 27 30  1  0
 27 26  1  0
 28 27  2  0
 29 28  1  0
 29 24  2  0
 30 31  1  0
 31 32  1  0
 32 33  2  0
 34 33  1  0
 34 38  1  0
 35 34  2  0
 36 31  2  0
 36 35  1  0
 37 36  1  0
 39 40  1  0
 40 43  1  0
 40 42  1  0
 41 39  2  0
 44 45  1  0
 44 19  1  0
 46 44  1  0
 47 48  1  0
 48 49  1  0
 49 50  1  0
 51 50  1  0
 52 63  2  0
 53 51  1  0
 53 58  1  0
 54 62  1  0
 54 64  1  0
 55 61  1  0
 55 57  1  0
 56 62  1  0
 57 56  1  0
 58 57  2  0
 59 60  1  0
 59 53  2  0
 60 55  2  0
 61 54  1  0
 62 52  1  0
 64 66  2  0
 65 64  1  0
 67 65  1  0
 68 77  2  0
 68 73  1  0
 69 65  1  0
 69 73  1  0
 70 69  1  0
 71 72  1  0
 71 70  1  0
 72 68  1  0
 73 74  2  0
 74 75  1  0
 76 75  2  0
 77 76  1  0
 78 52  1  0
 78 83  1  0
 78 79  1  0
 79 82  1  1
 79 80  1  0
 81 79  1  0
 83 86  1  0
 84 88  1  0
 84 83  1  0
 85 84  2  0
 88 87  1  0
 90 88  1  0
 90 91  1  0
 90 89  1  0
M  ISO  4   9 100  17 100  50 101  51 101
M  END
>  <TORSDO>  (31) 
F 27

>  <SCORE>  (31) 
-11.534

>  <name>  (31) 
30

>  <ligand_id>  (31) 
30

>  <original_smiles>  (31) 
[H]c1c([H])c([H])c2c(c1[H])C([H])([H])C([H])([H])C([H])([H])C2([H])N([H])C(=O)C1([H])N(C(=O)C([H])(N([H])C(=O)C([H])(N([H])C([H])([H])[H])C([H])([H])[H])C(C([H])([H])[H])(C([H])([H])[H])C([H])([H])[H])C([H])([H])c2c([H])c(OC([H])([H])C([H])([H])OC([H])([H])C([H])([H])OC([H])([H])C([H])([H])OC([H])([H])C([H])([H])C([H])([H])N([H])C(=O)N3C([H])([H])C([H])([H])C([H])([H])C([H])(n4nc(-c5c([H])c([H])c(Oc6c([H])c([H])c(F)c([H])c6F)c([H])c5[H])c(C(=O)N([H])[H])c4N([H])[H])C3([H])[H])c([H])c([H])c2C1([H])[H]

>  <smiles>  (31) 
[H]c1c([H])c([H])c2c(c1[H])C([H])([H])C([H])([H])C([H])([H])C2([H])N([H])C(=O)C1([H])N(C(=O)C([H])(N([H])C(=O)C([H])(N([H])C([H])([H])[H])C([H])([H])[H])C(C([H])([H])[H])(C([H])([H])[H])C([H])([H])[H])C([H])([H])c2c([H])c(OC([H])([H])C([H])([H])OC([H])([H])C([H])([H])OC([H])([H])C([H])([H])OC([H])([H])C([H])([H])C([H])([H])N([H])C(=O)N3C([H])([H])C([H])([H])C([H])([H])C([H])(n4nc(-c5c([H])c([H])c(Oc6c([H])c([H])c(F)c([H])c6F)c([H])c5[H])c(C(=O)N([H])[H])c4N([H])[H])C3([H])[H])c([H])c([H])c2C1([H])[H]

$$$$
31:0:0
     RDKit          3D

 90 97  0  0  1  0  0  0  0  0999 V2000
  -27.8060  -22.7890   22.0570 C   0  0  0  0  0  2  0  0  0  0  0  0
  -28.1210  -23.6690   20.9800 O   0  0  0  0  0  0  0  0  0  0  0  0
  -28.3570  -25.0040   21.4180 C   0  0  0  0  0  2  0  0  0  0  0  0
  -29.0330  -25.8100   20.2920 C   0  0  0  0  0  2  0  0  0  0  0  0
  -28.9770  -27.2200   20.5330 O   0  0  0  0  0  0  0  0  0  0  0  0
  -24.8130  -32.1180   23.5430 C   0  0  0  0  0  0  0  0  0  0  0  0
  -27.7520  -27.8490   20.4980 C   0  0  0  0  0  0  0  0  0  0  0  0
  -23.7220  -30.6820   21.8480 C   0  0  0  0  0  3  0  0  0  0  0  0
  -25.2850  -29.2330   20.4560 C   0  0  0  0  0  0  0  0  0  0  0  0
  -26.2290  -31.1650   21.7290 C   0  0  0  0  0  2  0  0  0  0  0  0
  -26.3990  -29.8060   21.0820 C   0  0  0  0  0  0  0  0  0  0  0  0
  -27.6340  -29.1210   21.0980 C   0  0  0  0  0  3  0  0  0  0  0  0
  -26.6140  -27.2830   19.8740 C   0  0  0  0  0  3  0  0  0  0  0  0
  -25.3870  -27.9680   19.8540 C   0  0  0  0  0  3  0  0  0  0  0  0
  -24.0040  -30.0320   20.4680 C   0  0  0  0  0  2  0  0  0  0  0  0
  -24.9370  -31.3350   22.4330 N   0  0  0  0  0  0  0  0  0  0  0  0
  -23.7050  -32.3340   24.0530 O   0  0  0  0  0  0  0  0  0  0  0  0
  -23.0900  -29.6210   22.7760 C   0  0  0  0  0  0  0  0  0  0  0  0
  -21.7860  -29.3620   22.5830 N   0  0  0  0  0  0  0  0  0  0  0  0
  -23.7700  -29.0330   23.6190 O   0  0  0  0  0  0  0  0  0  0  0  0
  -21.2950  -29.8870   21.8700 H   0  0  0  0  0  0  0  0  0  0  0  0
  -18.4720  -27.9650   22.9140 C   0  0  0  0  0  0  0  0  0  0  0  0
  -20.9920  -28.3730   23.3120 C   0  0  0  0  0  3  0  0  0  0  0  0
  -21.2090  -26.9500   22.7440 C   0  0  0  0  0  2  0  0  0  0  0  0
  -20.1790  -26.5620   21.6760 C   0  0  0  0  0  2  0  0  0  0  0  0
  -18.7620  -26.6280   22.2540 C   0  0  0  0  0  2  0  0  0  0  0  0
  -19.5210  -28.7900   23.3990 C   0  0  0  0  0  0  0  0  0  0  0  0
  -19.2030  -30.0400   23.9710 C   0  0  0  0  0  3  0  0  0  0  0  0
  -17.8650  -30.4650   24.0730 C   0  0  0  0  0  3  0  0  0  0  0  0
  -16.8290  -29.6370   23.6090 C   0  0  0  0  0  3  0  0  0  0  0  0
  -17.1330  -28.3910   23.0320 C   0  0  0  0  0  3  0  0  0  0  0  0
  -26.0510  -32.7960   24.2080 C   0  0  0  0  0  3  0  0  0  0  0  0
  -26.4950  -32.0970   25.5500 C   0  0  1  0  0  0  0  0  0  0  0  0
  -25.3360  -31.8630   26.5460 C   0  0  0  0  0  1  0  0  0  0  0  0
  -27.1490  -30.7280   25.2540 C   0  0  0  0  0  1  0  0  0  0  0  0
  -27.5660  -32.9570   26.2590 C   0  0  0  0  0  1  0  0  0  0  0  0
  -25.7090  -34.2050   24.4420 N   0  0  0  0  0  0  0  0  0  0  0  0
  -26.0740  -35.2180   23.6420 C   0  0  0  0  0  0  0  0  0  0  0  0
  -26.8020  -35.0650   22.6570 O   0  0  0  0  0  0  0  0  0  0  0  0
  -25.0670  -34.3930   25.1980 H   0  0  0  0  0  0  0  0  0  0  0  0
  -24.3440  -36.9560   23.0900 C   0  0  0  0  0  1  0  0  0  0  0  0
  -25.5440  -36.6220   23.9910 C   0  0  0  0  0  3  0  0  0  0  0  0
  -27.6240  -37.5810   24.8740 C   0  0  0  0  0  1  0  0  0  0  0  0
  -26.5690  -37.6810   23.8690 N   0  0  0  0  0  0  0  0  0  0  0  0
  -26.1450  -38.6010   23.9460 H   0  0  0  0  0  0  0  0  0  0  0  0
  -27.4930  -21.3830   21.5210 C   0  0  0  0  0  2  0  0  0  0  0  0
  -28.6650  -20.7680   20.9950 O   0  0  0  0  0  0  0  0  0  0  0  0
  -28.3670  -19.5800   20.2660 C   0  0  0  0  0  2  0  0  0  0  0  0
  -29.6620  -18.8370   19.8940 C   0  0  0  0  0  2  0  0  0  0  0  0
  -30.0630  -17.9670   20.9490 O   0  0  0  0  0  0  0  0  0  0  0  0
  -31.4690  -17.8850   21.1710 C   0  0  0  0  0  2  0  0  0  0  0  0
  -32.1640  -16.8510   20.2700 C   0  0  0  0  0  2  0  0  0  0  0  0
  -31.9300  -14.4640   19.7030 C   0  0  0  0  0  0  0  0  0  0  0  0
  -31.3700  -12.1870   18.9420 C   0  0  0  0  0  2  0  0  0  0  0  0
  -30.3890  -12.2580   17.7560 C   0  0  0  0  0  2  0  0  0  0  0  0
  -28.9350  -12.3150   18.2570 C   0  0  0  0  0  2  0  0  0  0  0  0
  -28.7260  -13.3820   19.3650 C   0  0  0  0  0  3  0  0  0  0  0  0
  -29.8210  -13.2870   20.4530 C   0  0  0  0  0  2  0  0  0  0  0  0
  -31.1380  -13.3620   19.7950 N   0  0  0  0  0  0  0  0  0  0  0  0
  -32.9520  -14.5110   19.0150 O   0  0  0  0  0  0  0  0  0  0  0  0
  -31.5220  -15.5410   20.3790 N   0  0  0  0  0  0  0  0  0  0  0  0
  -30.6870  -15.4770   20.9440 H   0  0  0  0  0  0  0  0  0  0  0  0
  -26.5230  -14.3100   20.3180 C   0  0  0  0  0  0  0  0  0  0  0  0
  -25.3730  -13.6950   20.7340 C   0  0  0  0  0  0  0  0  0  0  0  0
  -25.5970  -12.2930   20.5790 C   0  0  0  0  0  0  0  0  0  0  0  0
  -27.3840  -13.2930   19.9390 N   0  0  0  0  0  0  0  0  0  0  0  0
  -26.8320  -12.0680   20.1490 N   0  0  0  0  0  0  0  0  0  0  0  0
  -24.6860  -11.1530   20.7540 C   0  0  0  0  0  0  0  0  0  0  0  0
  -25.0150  -10.0650   21.5910 C   0  0  0  0  0  3  0  0  0  0  0  0
  -24.1140   -8.9910   21.7570 C   0  0  0  0  0  3  0  0  0  0  0  0
  -22.8680   -9.0000   21.0880 C   0  0  0  0  0  0  0  0  0  0  0  0
  -22.5550  -10.0750   20.2360 C   0  0  0  0  0  3  0  0  0  0  0  0
  -23.4560  -11.1380   20.0660 C   0  0  0  0  0  3  0  0  0  0  0  0
  -21.9430   -7.9870   21.1680 O   0  0  0  0  0  0  0  0  0  0  0  0
  -21.8340   -7.1990   22.2860 C   0  0  0  0  0  0  0  0  0  0  0  0
  -21.5870   -7.7470   23.5640 C   0  0  0  0  0  3  0  0  0  0  0  0
  -21.4110   -6.8960   24.6730 C   0  0  0  0  0  3  0  0  0  0  0  0
  -21.4730   -5.4990   24.5060 C   0  0  0  0  0  0  0  0  0  0  0  0
  -21.7140   -4.9520   23.2340 C   0  0  0  0  0  3  0  0  0  0  0  0
  -21.8900   -5.8000   22.1260 C   0  0  0  0  0  0  0  0  0  0  0  0
  -22.1010   -5.2670   20.8980 F   0  0  0  0  0  0  0  0  0  0  0  0
  -21.2960   -4.6800   25.5700 F   0  0  0  0  0  0  0  0  0  0  0  0
  -24.1040  -14.3690   21.1660 C   0  0  0  0  0  0  0  0  0  0  0  0
  -23.3490  -13.7420   22.0620 N   0  0  0  0  0  0  0  0  0  0  0  0
  -23.7960  -15.4850   20.7480 O   0  0  0  0  0  0  0  0  0  0  0  0
  -23.6150  -12.8390   22.4260 H   0  0  0  0  0  0  0  0  0  0  0  0
  -22.4980  -14.1770   22.3890 H   0  0  0  0  0  0  0  0  0  0  0  0
  -26.9010  -15.6450   20.2170 N   0  0  0  0  0  0  0  0  0  0  0  0
  -26.2750  -16.4070   20.4510 H   0  0  0  0  0  0  0  0  0  0  0  0
  -27.7960  -15.9620   19.8690 H   0  0  0  0  0  0  0  0  0  0  0  0
  2  3  1  0
  2  1  1  0
  4  5  1  0
  4  3  1  0
  6 17  2  0
  7  5  1  0
  7 12  1  0
  8 16  1  0
  8 18  1  0
  9 15  1  0
  9 11  1  0
 10 16  1  0
 11 12  2  0
 11 10  1  0
 13  7  2  0
 14 13  1  0
 14  9  2  0
 15  8  1  0
 16  6  1  0
 18 20  2  0
 19 18  1  0
 21 19  1  0
 22 31  2  0
 22 27  1  0
 23 19  1  0
 23 27  1  0
 24 23  1  0
 25 26  1  0
 25 24  1  0
 26 22  1  0
 27 28  2  0
 28 29  1  0
 30 29  2  0
 31 30  1  0
 32  6  1  0
 32 37  1  0
 32 33  1  0
 33 36  1  1
 33 34  1  0
 35 33  1  0
 37 40  1  0
 38 42  1  0
 38 37  1  0
 39 38  2  0
 42 41  1  0
 44 45  1  0
 44 42  1  0
 44 43  1  0
 46  1  1  0
 47 46  1  0
 48 47  1  0
 49 48  1  0
 49 50  1  0
 50 51  1  0
 52 61  1  0
 52 51  1  0
 53 59  1  0
 53 61  1  0
 54 59  1  0
 55 56  1  0
 55 54  1  0
 57 56  1  0
 57 66  1  0
 57 58  1  0
 59 58  1  0
 60 53  2  0
 61 62  1  0
 63 64  2  0
 64 83  1  0
 65 64  1  0
 65 68  1  0
 66 67  1  0
 66 63  1  0
 67 65  2  0
 68 69  1  0
 69 70  2  0
 71 74  1  0
 71 70  1  0
 72 71  2  0
 73 72  1  0
 73 68  2  0
 74 75  1  0
 75 76  1  0
 76 77  2  0
 78 77  1  0
 78 82  1  0
 79 78  2  0
 80 75  2  0
 80 79  1  0
 81 80  1  0
 83 84  1  0
 84 87  1  0
 84 86  1  0
 85 83  2  0
 88 63  1  0
 88 89  1  0
 90 88  1  0
M  ISO  4   4 101   5 101  53 100  61 100
M  END
>  <TORSDO>  (32) 
F 26

>  <SCORE>  (32) 
-9.736

>  <name>  (32) 
31

>  <ligand_id>  (32) 
31

>  <original_smiles>  (32) 
[H]c1c([H])c([H])c2c(c1[H])C([H])([H])C([H])([H])C([H])([H])C2([H])N([H])C(=O)C1([H])N(C(=O)C([H])(N([H])C(=O)C([H])(N([H])C([H])([H])[H])C([H])([H])[H])C(C([H])([H])[H])(C([H])([H])[H])C([H])([H])[H])C([H])([H])c2c([H])c(OC([H])([H])C([H])([H])OC([H])([H])C([H])([H])OC([H])([H])C([H])([H])OC([H])([H])C([H])([H])N([H])C(=O)N3C([H])([H])C([H])([H])C([H])([H])C([H])(n4nc(-c5c([H])c([H])c(Oc6c([H])c([H])c(F)c([H])c6F)c([H])c5[H])c(C(=O)N([H])[H])c4N([H])[H])C3([H])[H])c([H])c([H])c2C1([H])[H]

>  <smiles>  (32) 
[H]c1c([H])c([H])c2c(c1[H])C([H])([H])C([H])([H])C([H])([H])C2([H])N([H])C(=O)C1([H])N(C(=O)C([H])(N([H])C(=O)C([H])(N([H])C([H])([H])[H])C([H])([H])[H])C(C([H])([H])[H])(C([H])([H])[H])C([H])([H])[H])C([H])([H])c2c([H])c(OC([H])([H])C([H])([H])OC([H])([H])C([H])([H])OC([H])([H])C([H])([H])OC([H])([H])C([H])([H])N([H])C(=O)N3C([H])([H])C([H])([H])C([H])([H])C([H])(n4nc(-c5c([H])c([H])c(Oc6c([H])c([H])c(F)c([H])c6F)c([H])c5[H])c(C(=O)N([H])[H])c4N([H])[H])C3([H])[H])c([H])c([H])c2C1([H])[H]

$$$$
32:0:0
     RDKit          3D

 87 94  0  0  1  0  0  0  0  0999 V2000
  -29.1130  -22.7980   20.1480 O   0  0  0  0  0  0  0  0  0  0  0  0
  -29.2650  -24.1800   20.5710 C   0  0  0  0  0  2  0  0  0  0  0  0
  -28.1950  -25.1410   19.9510 C   0  0  0  0  0  2  0  0  0  0  0  0
  -28.3440  -26.5690   20.2300 O   0  0  0  0  0  0  0  0  0  0  0  0
  -24.6030  -31.8820   23.2540 C   0  0  0  0  0  0  0  0  0  0  0  0
  -27.2030  -27.3700   20.1730 C   0  0  0  0  0  0  0  0  0  0  0  0
  -23.3880  -30.4910   21.6140 C   0  0  0  0  0  3  0  0  0  0  0  0
  -24.8290  -28.9470   20.1790 C   0  0  0  0  0  0  0  0  0  0  0  0
  -25.9230  -30.8160   21.4190 C   0  0  0  0  0  2  0  0  0  0  0  0
  -25.9960  -29.4430   20.7740 C   0  0  0  0  0  0  0  0  0  0  0  0
  -27.1840  -28.6630   20.7670 C   0  0  0  0  0  3  0  0  0  0  0  0
  -26.0140  -26.9200   19.5460 C   0  0  0  0  0  3  0  0  0  0  0  0
  -24.8370  -27.6890   19.5590 C   0  0  0  0  0  3  0  0  0  0  0  0
  -23.5920  -29.8180   20.2320 C   0  0  0  0  0  2  0  0  0  0  0  0
  -24.6560  -31.0790   22.1530 N   0  0  0  0  0  0  0  0  0  0  0  0
  -23.5240  -32.1610   23.7950 O   0  0  0  0  0  0  0  0  0  0  0  0
  -22.7290  -29.4710   22.5730 C   0  0  0  0  0  0  0  0  0  0  0  0
  -21.4040  -29.2960   22.4460 N   0  0  0  0  0  0  0  0  0  0  0  0
  -23.4090  -28.8420   23.3890 O   0  0  0  0  0  0  0  0  0  0  0  0
  -20.9160  -29.8550   21.7610 H   0  0  0  0  0  0  0  0  0  0  0  0
  -18.0240  -28.1080   22.9390 C   0  0  0  0  0  0  0  0  0  0  0  0
  -20.5820  -28.3620   23.2170 C   0  0  0  0  0  3  0  0  0  0  0  0
  -20.6820  -26.9290   22.6440 C   0  0  0  0  0  2  0  0  0  0  0  0
  -19.5830  -26.6070   21.6270 C   0  0  0  0  0  2  0  0  0  0  0  0
  -18.2000  -26.7570   22.2670 C   0  0  0  0  0  2  0  0  0  0  0  0
  -19.1430  -28.8680   23.3700 C   0  0  0  0  0  0  0  0  0  0  0  0
  -18.9250  -30.1340   23.9590 C   0  0  0  0  0  3  0  0  0  0  0  0
  -17.6220  -30.6390   24.1180 C   0  0  0  0  0  3  0  0  0  0  0  0
  -16.5170  -29.8760   23.7040 C   0  0  0  0  0  3  0  0  0  0  0  0
  -16.7190  -28.6120   23.1200 C   0  0  0  0  0  3  0  0  0  0  0  0
  -25.8930  -32.5060   23.8720 C   0  0  0  0  0  3  0  0  0  0  0  0
  -26.4080  -31.7310   25.1470 C   0  0  1  0  0  0  0  0  0  0  0  0
  -25.3180  -31.5010   26.2190 C   0  0  0  0  0  1  0  0  0  0  0  0
  -26.9820  -30.3500   24.7520 C   0  0  0  0  0  1  0  0  0  0  0  0
  -27.5640  -32.5190   25.8080 C   0  0  0  0  0  1  0  0  0  0  0  0
  -25.5920  -33.9060   24.2030 N   0  0  0  0  0  0  0  0  0  0  0  0
  -25.9250  -34.9570   23.4410 C   0  0  0  0  0  0  0  0  0  0  0  0
  -26.5890  -34.8480   22.4060 O   0  0  0  0  0  0  0  0  0  0  0  0
  -25.0030  -34.0650   25.0080 H   0  0  0  0  0  0  0  0  0  0  0  0
  -24.2020  -36.7560   23.0930 C   0  0  0  0  0  1  0  0  0  0  0  0
  -25.4460  -36.3470   23.8980 C   0  0  0  0  0  3  0  0  0  0  0  0
  -27.5900  -37.2240   24.7140 C   0  0  0  0  0  1  0  0  0  0  0  0
  -26.4820  -37.3950   23.7780 N   0  0  0  0  0  0  0  0  0  0  0  0
  -26.0800  -38.3170   23.9270 H   0  0  0  0  0  0  0  0  0  0  0  0
  -29.8660  -21.8260   20.9130 C   0  0  0  0  0  2  0  0  0  0  0  0
  -29.9940  -20.3890   20.2800 C   0  0  0  0  0  2  0  0  0  0  0  0
  -29.6060  -19.3250   21.1790 O   0  0  0  0  0  0  0  0  0  0  0  0
  -30.3560  -18.0820   21.1900 C   0  0  0  0  0  2  0  0  0  0  0  0
  -29.9920  -17.0260   20.1000 C   0  0  0  0  0  2  0  0  0  0  0  0
  -30.6580  -14.5630   20.1340 C   0  0  0  0  0  0  0  0  0  0  0  0
  -30.3320  -12.3860   19.0110 C   0  0  0  0  0  2  0  0  0  0  0  0
  -29.3420  -12.5990   17.8440 C   0  0  0  0  0  2  0  0  0  0  0  0
  -27.8850  -12.4670   18.3310 C   0  0  0  0  0  2  0  0  0  0  0  0
  -27.6040  -13.2910   19.6150 C   0  0  0  0  0  3  0  0  0  0  0  0
  -28.7030  -13.0590   20.6790 C   0  0  0  0  0  2  0  0  0  0  0  0
  -30.0040  -13.3660   20.0610 N   0  0  0  0  0  0  0  0  0  0  0  0
  -31.7760  -14.7380   19.6440 O   0  0  0  0  0  0  0  0  0  0  0  0
  -29.9110  -15.6090   20.5580 N   0  0  0  0  0  0  0  0  0  0  0  0
  -29.0360  -15.3490   20.9880 H   0  0  0  0  0  0  0  0  0  0  0  0
  -25.2410  -13.9170   20.4180 C   0  0  0  0  0  0  0  0  0  0  0  0
  -24.1800  -13.1550   20.8240 C   0  0  0  0  0  0  0  0  0  0  0  0
  -24.6260  -11.7980   20.7700 C   0  0  0  0  0  0  0  0  0  0  0  0
  -26.2680  -13.0270   20.1440 N   0  0  0  0  0  0  0  0  0  0  0  0
  -25.9040  -11.7470   20.4140 N   0  0  0  0  0  0  0  0  0  0  0  0
  -23.8950  -10.5420   20.9820 C   0  0  0  0  0  0  0  0  0  0  0  0
  -24.3570   -9.5630   21.8880 C   0  0  0  0  0  3  0  0  0  0  0  0
  -23.6260   -8.3710   22.0880 C   0  0  0  0  0  3  0  0  0  0  0  0
  -22.4190   -8.1520   21.3830 C   0  0  0  0  0  0  0  0  0  0  0  0
  -21.9750   -9.1210   20.4660 C   0  0  0  0  0  3  0  0  0  0  0  0
  -22.7060  -10.3040   20.2640 C   0  0  0  0  0  3  0  0  0  0  0  0
  -21.6570   -7.0150   21.4950 O   0  0  0  0  0  0  0  0  0  0  0  0
  -21.6560   -6.2580   22.6390 C   0  0  0  0  0  0  0  0  0  0  0  0
  -21.3040   -6.8040   23.8930 C   0  0  0  0  0  3  0  0  0  0  0  0
  -21.2500   -5.9740   25.0310 C   0  0  0  0  0  3  0  0  0  0  0  0
  -21.5350   -4.6010   24.9170 C   0  0  0  0  0  0  0  0  0  0  0  0
  -21.8800   -4.0550   23.6680 C   0  0  0  0  0  3  0  0  0  0  0  0
  -21.9370   -4.8820   22.5310 C   0  0  0  0  0  0  0  0  0  0  0  0
  -22.2490   -4.3460   21.3260 F   0  0  0  0  0  0  0  0  0  0  0  0
  -21.4760   -3.8020   26.0080 F   0  0  0  0  0  0  0  0  0  0  0  0
  -22.7990  -13.6450   21.1510 C   0  0  0  0  0  0  0  0  0  0  0  0
  -22.0980  -12.9520   22.0420 N   0  0  0  0  0  0  0  0  0  0  0  0
  -22.3520  -14.6760   20.6520 O   0  0  0  0  0  0  0  0  0  0  0  0
  -22.4730  -12.1180   22.4680 H   0  0  0  0  0  0  0  0  0  0  0  0
  -21.1730  -13.2630   22.3040 H   0  0  0  0  0  0  0  0  0  0  0  0
  -25.4140  -15.2870   20.2390 N   0  0  0  0  0  0  0  0  0  0  0  0
  -24.6560  -15.9470   20.3780 H   0  0  0  0  0  0  0  0  0  0  0  0
  -26.2510  -15.7180   19.8670 H   0  0  0  0  0  0  0  0  0  0  0  0
  1  2  1  0
  1 45  1  0
  3  4  1  0
  3  2  1  0
  5 16  2  0
  6  4  1  0
  6 11  1  0
  7 15  1  0
  7 17  1  0
  8 14  1  0
  8 10  1  0
  9 15  1  0
 10  9  1  0
 11 10  2  0
 12 13  1  0
 12  6  2  0
 13  8  2  0
 14  7  1  0
 15  5  1  0
 17 19  2  0
 18 17  1  0
 20 18  1  0
 21 30  2  0
 21 26  1  0
 22 18  1  0
 22 26  1  0
 23 22  1  0
 24 25  1  0
 24 23  1  0
 25 21  1  0
 26 27  2  0
 27 28  1  0
 29 28  2  0
 30 29  1  0
 31  5  1  0
 31 36  1  0
 31 32  1  0
 32 35  1  1
 32 33  1  0
 34 32  1  0
 36 39  1  0
 37 41  1  0
 37 36  1  0
 38 37  2  0
 41 40  1  0
 43 41  1  0
 43 44  1  0
 43 42  1  0
 46 45  1  0
 46 47  1  0
 47 48  1  0
 49 58  1  0
 49 48  1  0
 50 58  1  0
 51 56  1  0
 52 53  1  0
 52 51  1  0
 54 53  1  0
 54 63  1  0
 54 55  1  0
 56 50  1  0
 56 55  1  0
 57 50  2  0
 58 59  1  0
 60 61  2  0
 61 80  1  0
 62 61  1  0
 62 65  1  0
 63 64  1  0
 63 60  1  0
 64 62  2  0
 65 66  1  0
 66 67  2  0
 68 71  1  0
 68 67  1  0
 69 68  2  0
 70 69  1  0
 70 65  2  0
 71 72  1  0
 72 73  1  0
 73 74  2  0
 75 74  1  0
 75 79  1  0
 76 75  2  0
 77 72  2  0
 77 76  1  0
 78 77  1  0
 80 81  1  0
 81 84  1  0
 81 83  1  0
 82 80  2  0
 85 86  1  0
 85 60  1  0
 87 85  1  0
M  ISO  4   3 101   4 101  50 100  58 100
M  END
>  <TORSDO>  (33) 
F 23

>  <SCORE>  (33) 
-12.462

>  <name>  (33) 
32

>  <ligand_id>  (33) 
32

>  <original_smiles>  (33) 
[H]c1c([H])c([H])c2c(c1[H])C([H])([H])C([H])([H])C([H])([H])C2([H])N([H])C(=O)C1([H])N(C(=O)C([H])(N([H])C(=O)C([H])(N([H])C([H])([H])[H])C([H])([H])[H])C(C([H])([H])[H])(C([H])([H])[H])C([H])([H])[H])C([H])([H])c2c([H])c(OC([H])([H])C([H])([H])OC([H])([H])C([H])([H])OC([H])([H])C([H])([H])N([H])C(=O)N3C([H])([H])C([H])([H])C([H])([H])C([H])(n4nc(-c5c([H])c([H])c(Oc6c([H])c([H])c(F)c([H])c6F)c([H])c5[H])c(C(=O)N([H])[H])c4N([H])[H])C3([H])[H])c([H])c([H])c2C1([H])[H]

>  <smiles>  (33) 
[H]c1c([H])c([H])c2c(c1[H])C([H])([H])C([H])([H])C([H])([H])C2([H])N([H])C(=O)C1([H])N(C(=O)C([H])(N([H])C(=O)C([H])(N([H])C([H])([H])[H])C([H])([H])[H])C(C([H])([H])[H])(C([H])([H])[H])C([H])([H])[H])C([H])([H])c2c([H])c(OC([H])([H])C([H])([H])OC([H])([H])C([H])([H])OC([H])([H])C([H])([H])N([H])C(=O)N3C([H])([H])C([H])([H])C([H])([H])C([H])(n4nc(-c5c([H])c([H])c(Oc6c([H])c([H])c(F)c([H])c6F)c([H])c5[H])c(C(=O)N([H])[H])c4N([H])[H])C3([H])[H])c([H])c([H])c2C1([H])[H]

$$$$
33:0:0
     RDKit          3D

 90 98  0  0  1  0  0  0  0  0999 V2000
  -28.9310  -23.4160   20.2220 C   0  0  0  0  0  0  0  0  0  0  0  0
  -28.4630  -22.0840   20.1210 N   0  0  0  0  0  0  0  0  0  0  0  0
  -30.1160  -23.6430   20.4820 O   0  0  0  0  0  0  0  0  0  0  0  0
  -27.4640  -22.1140   19.9670 H   0  0  0  0  0  0  0  0  0  0  0  0
  -27.9860  -19.5960   20.3820 C   0  0  0  0  0  3  0  0  0  0  0  0
  -30.2740  -20.0540   20.0680 C   0  0  0  0  0  3  0  0  0  0  0  0
  -28.2670  -18.1810   20.4180 C   0  0  0  0  0  3  0  0  0  0  0  0
  -30.5590  -18.6110   20.0910 C   0  0  0  0  0  3  0  0  0  0  0  0
  -28.9570  -20.6310   20.2070 C   0  0  0  0  0  0  0  0  0  0  0  0
  -29.5590  -17.5830   20.2670 C   0  0  0  0  0  0  0  0  0  0  0  0
  -30.5130  -14.9770   20.0040 C   0  0  0  0  0  0  0  0  0  0  0  0
  -30.3820  -12.6540   18.9940 C   0  0  0  0  0  2  0  0  0  0  0  0
  -29.3680  -12.6620   17.8240 C   0  0  0  0  0  2  0  0  0  0  0  0
  -27.9300  -12.4380   18.3350 C   0  0  0  0  0  2  0  0  0  0  0  0
  -27.6000  -13.3170   19.5690 C   0  0  0  0  0  3  0  0  0  0  0  0
  -28.7220  -13.2610   20.6290 C   0  0  0  0  0  2  0  0  0  0  0  0
  -29.9630  -13.6970   19.9700 N   0  0  0  0  0  0  0  0  0  0  0  0
  -31.6770  -15.1220   19.6110 O   0  0  0  0  0  0  0  0  0  0  0  0
  -29.6540  -16.0530   20.3280 N   0  0  0  0  0  0  0  0  0  0  0  0
  -28.7800  -15.6530   20.6320 H   0  0  0  0  0  0  0  0  0  0  0  0
  -25.2640  -13.8770   20.4600 C   0  0  0  0  0  0  0  0  0  0  0  0
  -24.2230  -13.0910   20.8730 C   0  0  0  0  0  0  0  0  0  0  0  0
  -24.6820  -11.7420   20.7720 C   0  0  0  0  0  0  0  0  0  0  0  0
  -26.2900  -13.0060   20.1330 N   0  0  0  0  0  0  0  0  0  0  0  0
  -25.9530  -11.7150   20.3840 N   0  0  0  0  0  0  0  0  0  0  0  0
  -23.9660  -10.4750   20.9660 C   0  0  0  0  0  0  0  0  0  0  0  0
  -24.4190   -9.5040   21.8880 C   0  0  0  0  0  3  0  0  0  0  0  0
  -23.7010   -8.3020   22.0710 C   0  0  0  0  0  3  0  0  0  0  0  0
  -22.5180   -8.0620   21.3330 C   0  0  0  0  0  0  0  0  0  0  0  0
  -22.0850   -9.0220   20.4000 C   0  0  0  0  0  3  0  0  0  0  0  0
  -22.8030  -10.2140   20.2150 C   0  0  0  0  0  3  0  0  0  0  0  0
  -21.7710   -6.9130   21.4260 O   0  0  0  0  0  0  0  0  0  0  0  0
  -21.6980   -6.1940   22.5920 C   0  0  0  0  0  0  0  0  0  0  0  0
  -21.2190   -6.7650   23.7910 C   0  0  0  0  0  3  0  0  0  0  0  0
  -21.0960   -5.9710   24.9500 C   0  0  0  0  0  3  0  0  0  0  0  0
  -21.4430   -4.6080   24.9090 C   0  0  0  0  0  0  0  0  0  0  0  0
  -21.9150   -4.0360   23.7150 C   0  0  0  0  0  3  0  0  0  0  0  0
  -22.0400   -4.8260   22.5590 C   0  0  0  0  0  0  0  0  0  0  0  0
  -22.4760   -4.2660   21.4050 F   0  0  0  0  0  0  0  0  0  0  0  0
  -21.3170   -3.8430   26.0190 F   0  0  0  0  0  0  0  0  0  0  0  0
  -22.8450  -13.5600   21.2390 C   0  0  0  0  0  0  0  0  0  0  0  0
  -22.1690  -12.8420   22.1280 N   0  0  0  0  0  0  0  0  0  0  0  0
  -22.3770  -14.5980   20.7720 O   0  0  0  0  0  0  0  0  0  0  0  0
  -22.5610  -12.0010   22.5270 H   0  0  0  0  0  0  0  0  0  0  0  0
  -21.2460  -13.1360   22.4160 H   0  0  0  0  0  0  0  0  0  0  0  0
  -25.4150  -15.2520   20.3080 N   0  0  0  0  0  0  0  0  0  0  0  0
  -24.6390  -15.8890   20.4550 H   0  0  0  0  0  0  0  0  0  0  0  0
  -26.1990  -15.6880   19.8400 H   0  0  0  0  0  0  0  0  0  0  0  0
  -27.9110  -24.7020   19.9780 C   0  0  0  0  0  2  0  0  0  0  0  0
  -28.2560  -26.1990   20.2280 O   0  0  0  0  0  0  0  0  0  0  0  0
  -24.6290  -31.8650   23.2570 C   0  0  0  0  0  0  0  0  0  0  0  0
  -27.2090  -27.1930   20.1680 C   0  0  0  0  0  0  0  0  0  0  0  0
  -23.4300  -30.4920   21.5980 C   0  0  0  0  0  3  0  0  0  0  0  0
  -24.8800  -28.9390   20.1560 C   0  0  0  0  0  0  0  0  0  0  0  0
  -25.9860  -30.7580   21.4420 C   0  0  0  0  0  2  0  0  0  0  0  0
  -26.0600  -29.3750   20.7720 C   0  0  0  0  0  0  0  0  0  0  0  0
  -27.2250  -28.5190   20.7620 C   0  0  0  0  0  3  0  0  0  0  0  0
  -26.0000  -26.8630   19.5110 C   0  0  0  0  0  3  0  0  0  0  0  0
  -24.8630  -27.6960   19.5110 C   0  0  0  0  0  3  0  0  0  0  0  0
  -23.6540  -29.8350   20.2110 C   0  0  0  0  0  2  0  0  0  0  0  0
  -24.7020  -31.0590   22.1540 N   0  0  0  0  0  0  0  0  0  0  0  0
  -23.5430  -32.1440   23.7860 O   0  0  0  0  0  0  0  0  0  0  0  0
  -22.7490  -29.4720   22.5450 C   0  0  0  0  0  0  0  0  0  0  0  0
  -21.4220  -29.2990   22.4060 N   0  0  0  0  0  0  0  0  0  0  0  0
  -23.4160  -28.8410   23.3690 O   0  0  0  0  0  0  0  0  0  0  0  0
  -20.9400  -29.8590   21.7180 H   0  0  0  0  0  0  0  0  0  0  0  0
  -18.0400  -28.0900   22.8780 C   0  0  0  0  0  0  0  0  0  0  0  0
  -20.5970  -28.3540   23.1640 C   0  0  0  0  0  3  0  0  0  0  0  0
  -20.7040  -26.9270   22.5780 C   0  0  0  0  0  2  0  0  0  0  0  0
  -19.6090  -26.6110   21.5540 C   0  0  0  0  0  2  0  0  0  0  0  0
  -18.2230  -26.7480   22.1900 C   0  0  0  0  0  2  0  0  0  0  0  0
  -19.1540  -28.8510   23.3210 C   0  0  0  0  0  0  0  0  0  0  0  0
  -18.9270  -30.1070   23.9260 C   0  0  0  0  0  3  0  0  0  0  0  0
  -17.6190  -30.6010   24.0910 C   0  0  0  0  0  3  0  0  0  0  0  0
  -16.5210  -29.8380   23.6630 C   0  0  0  0  0  3  0  0  0  0  0  0
  -16.7310  -28.5830   23.0620 C   0  0  0  0  0  3  0  0  0  0  0  0
  -25.9070  -32.4900   23.8940 C   0  0  0  0  0  3  0  0  0  0  0  0
  -25.6030  -33.8920   24.2220 N   0  0  0  0  0  0  0  0  0  0  0  0
  -25.9250  -34.9430   23.4550 C   0  0  0  0  0  0  0  0  0  0  0  0
  -26.5760  -34.8340   22.4130 O   0  0  0  0  0  0  0  0  0  0  0  0
  -25.0230  -34.0500   25.0320 H   0  0  0  0  0  0  0  0  0  0  0  0
  -24.1830  -36.7330   23.1470 C   0  0  0  0  0  1  0  0  0  0  0  0
  -25.4530  -36.3360   23.9180 C   0  0  0  0  0  3  0  0  0  0  0  0
  -27.6100  -37.2370   24.6730 C   0  0  0  0  0  1  0  0  0  0  0  0
  -26.4790  -37.3900   23.7600 N   0  0  0  0  0  0  0  0  0  0  0  0
  -26.0760  -38.3110   23.9070 H   0  0  0  0  0  0  0  0  0  0  0  0
  -26.3980  -31.7190   25.1810 C   0  0  1  0  0  0  0  0  0  0  0  0
  -25.2890  -31.4950   26.2350 C   0  0  0  0  0  1  0  0  0  0  0  0
  -26.9750  -30.3350   24.8060 C   0  0  0  0  0  1  0  0  0  0  0  0
  -27.5470  -32.5060   25.8560 C   0  0  0  0  0  1  0  0  0  0  0  0
  1  3  2  0
  2  9  1  0
  2  1  1  0
  4  2  1  0
  5  7  1  0
  6  8  2  0
  6  9  1  0
  8 10  1  0
  9  5  2  0
 10 19  1  0
 10  7  2  0
 11 19  1  0
 12 17  1  0
 13 14  1  0
 13 12  1  0
 15 14  1  0
 15 24  1  0
 15 16  1  0
 17 11  1  0
 17 16  1  0
 18 11  2  0
 19 20  1  0
 21 22  2  0
 22 41  1  0
 23 22  1  0
 23 26  1  0
 24 25  1  0
 24 21  1  0
 25 23  2  0
 26 27  1  0
 27 28  2  0
 29 32  1  0
 29 28  1  0
 30 29  2  0
 31 30  1  0
 31 26  2  0
 32 33  1  0
 33 34  1  0
 34 35  2  0
 36 35  1  0
 36 40  1  0
 37 36  2  0
 38 33  2  0
 38 37  1  0
 39 38  1  0
 41 42  1  0
 42 45  1  0
 42 44  1  0
 43 41  2  0
 46 47  1  0
 46 21  1  0
 48 46  1  0
 49  1  1  0
 49 50  1  0
 51 62  2  0
 52 50  1  0
 52 57  1  0
 53 61  1  0
 53 63  1  0
 54 60  1  0
 54 56  1  0
 55 61  1  0
 56 55  1  0
 57 56  2  0
 58 52  2  0
 59 58  1  0
 59 54  2  0
 60 53  1  0
 61 51  1  0
 63 65  2  0
 64 63  1  0
 66 64  1  0
 67 76  2  0
 67 72  1  0
 68 64  1  0
 68 72  1  0
 69 68  1  0
 70 71  1  0
 70 69  1  0
 71 67  1  0
 72 73  2  0
 73 74  1  0
 75 74  2  0
 76 75  1  0
 77 51  1  0
 77 78  1  0
 77 87  1  0
 78 81  1  0
 79 83  1  0
 79 78  1  0
 80 79  2  0
 83 82  1  0
 85 86  1  0
 85 83  1  0
 85 84  1  0
 87 90  1  1
 87 88  1  0
 89 87  1  0
M  ISO  4  11 100  19 100  49 101  50 101
M  END
>  <TORSDO>  (34) 
F 18

>  <SCORE>  (34) 
-14.555

>  <name>  (34) 
33

>  <ligand_id>  (34) 
33

>  <original_smiles>  (34) 
[H]c1c([H])c([H])c2c(c1[H])C([H])([H])C([H])([H])C([H])([H])C2([H])N([H])C(=O)C1([H])N(C(=O)C([H])(N([H])C(=O)C([H])(N([H])C([H])([H])[H])C([H])([H])[H])C(C([H])([H])[H])(C([H])([H])[H])C([H])([H])[H])C([H])([H])c2c([H])c(OC([H])([H])C(=O)N([H])c3c([H])c([H])c(N([H])C(=O)N4C([H])([H])C([H])([H])C([H])([H])C([H])(n5nc(-c6c([H])c([H])c(Oc7c([H])c([H])c(F)c([H])c7F)c([H])c6[H])c(C(=O)N([H])[H])c5N([H])[H])C4([H])[H])c([H])c3[H])c([H])c([H])c2C1([H])[H]

>  <smiles>  (34) 
[H]c1c([H])c([H])c2c(c1[H])C([H])([H])C([H])([H])C([H])([H])C2([H])N([H])C(=O)C1([H])N(C(=O)C([H])(N([H])C(=O)C([H])(N([H])C([H])([H])[H])C([H])([H])[H])C(C([H])([H])[H])(C([H])([H])[H])C([H])([H])[H])C([H])([H])c2c([H])c(OC([H])([H])C(=O)N([H])c3c([H])c([H])c(N([H])C(=O)N4C([H])([H])C([H])([H])C([H])([H])C([H])(n5nc(-c6c([H])c([H])c(Oc7c([H])c([H])c(F)c([H])c7F)c([H])c6[H])c(C(=O)N([H])[H])c5N([H])[H])C4([H])[H])c([H])c3[H])c([H])c([H])c2C1([H])[H]

$$$$
34:0:0
     RDKit          3D

 91 99  0  0  1  0  0  0  0  0999 V2000
  -30.9190  -21.8580   20.9780 C   0  0  0  0  0  2  0  0  0  0  0  0
  -30.6510  -23.1960   21.7050 C   0  0  0  0  0  2  0  0  0  0  0  0
  -29.9080  -24.1340   20.9180 O   0  0  0  0  0  0  0  0  0  0  0  0
  -29.3500  -25.2100   21.6870 C   0  0  0  0  0  2  0  0  0  0  0  0
  -29.5220  -26.5910   21.0130 C   0  0  0  0  0  2  0  0  0  0  0  0
  -28.6770  -26.7250   19.8690 O   0  0  0  0  0  0  0  0  0  0  0  0
  -24.6310  -31.6820   23.1210 C   0  0  0  0  0  0  0  0  0  0  0  0
  -27.5050  -27.4440   19.9740 C   0  0  0  0  0  0  0  0  0  0  0  0
  -23.5040  -30.2760   21.4250 C   0  0  0  0  0  3  0  0  0  0  0  0
  -25.0410  -28.8340   19.9870 C   0  0  0  0  0  0  0  0  0  0  0  0
  -26.0120  -30.7460   21.2720 C   0  0  0  0  0  2  0  0  0  0  0  0
  -26.1640  -29.3940   20.6080 C   0  0  0  0  0  0  0  0  0  0  0  0
  -27.4000  -28.7070   20.6050 C   0  0  0  0  0  3  0  0  0  0  0  0
  -26.3670  -26.9010   19.3440 C   0  0  0  0  0  3  0  0  0  0  0  0
  -25.1360  -27.5830   19.3540 C   0  0  0  0  0  3  0  0  0  0  0  0
  -23.7600  -29.6390   20.0330 C   0  0  0  0  0  2  0  0  0  0  0  0
  -24.7330  -30.9160   21.9980 N   0  0  0  0  0  0  0  0  0  0  0  0
  -23.5340  -31.8980   23.6540 O   0  0  0  0  0  0  0  0  0  0  0  0
  -22.8830  -29.2050   22.3490 C   0  0  0  0  0  0  0  0  0  0  0  0
  -21.5660  -28.9820   22.2060 N   0  0  0  0  0  0  0  0  0  0  0  0
  -23.5820  -28.5790   23.1500 O   0  0  0  0  0  0  0  0  0  0  0  0
  -21.0620  -29.5440   21.5350 H   0  0  0  0  0  0  0  0  0  0  0  0
  -18.2260  -27.6860   22.6630 C   0  0  0  0  0  0  0  0  0  0  0  0
  -20.7770  -27.9950   22.9410 C   0  0  0  0  0  3  0  0  0  0  0  0
  -20.9130  -26.5910   22.3100 C   0  0  0  0  0  2  0  0  0  0  0  0
  -19.8170  -26.2810   21.2850 C   0  0  0  0  0  2  0  0  0  0  0  0
  -18.4330  -26.3670   21.9360 C   0  0  0  0  0  2  0  0  0  0  0  0
  -19.3260  -28.4570   23.1210 C   0  0  0  0  0  0  0  0  0  0  0  0
  -19.0790  -29.6920   23.7590 C   0  0  0  0  0  3  0  0  0  0  0  0
  -17.7630  -30.1570   23.9430 C   0  0  0  0  0  3  0  0  0  0  0  0
  -16.6760  -29.3810   23.5030 C   0  0  0  0  0  3  0  0  0  0  0  0
  -16.9080  -28.1470   22.8680 C   0  0  0  0  0  3  0  0  0  0  0  0
  -25.8850  -32.3460   23.7740 C   0  0  0  0  0  3  0  0  0  0  0  0
  -25.5240  -33.7250   24.1250 N   0  0  0  0  0  0  0  0  0  0  0  0
  -25.8400  -34.8020   23.3950 C   0  0  0  0  0  0  0  0  0  0  0  0
  -26.5390  -34.7420   22.3800 O   0  0  0  0  0  0  0  0  0  0  0  0
  -24.9040  -33.8430   24.9130 H   0  0  0  0  0  0  0  0  0  0  0  0
  -24.0670  -36.5460   23.0230 C   0  0  0  0  0  1  0  0  0  0  0  0
  -25.2950  -36.1630   23.8660 C   0  0  0  0  0  3  0  0  0  0  0  0
  -27.3690  -37.0970   24.7900 C   0  0  0  0  0  1  0  0  0  0  0  0
  -26.2970  -37.2500   23.8100 N   0  0  0  0  0  0  0  0  0  0  0  0
  -25.8580  -38.1530   23.9600 H   0  0  0  0  0  0  0  0  0  0  0  0
  -26.4140  -31.5660   25.0400 C   0  0  1  0  0  0  0  0  0  0  0  0
  -25.3150  -31.2590   26.0840 C   0  0  0  0  0  1  0  0  0  0  0  0
  -27.0590  -30.2230   24.6240 C   0  0  0  0  0  1  0  0  0  0  0  0
  -27.5200  -32.3900   25.7400 C   0  0  0  0  0  1  0  0  0  0  0  0
  -29.8230  -20.9710   21.2050 O   0  0  0  0  0  0  0  0  0  0  0  0
  -29.4160  -17.3650   21.8340 C   0  0  0  0  0  3  0  0  0  0  0  0
  -31.0980  -17.6220   20.0990 C   0  0  0  0  0  3  0  0  0  0  0  0
  -29.2690  -18.7640   21.8970 C   0  0  0  0  0  3  0  0  0  0  0  0
  -30.9580  -19.0280   20.1750 C   0  0  0  0  0  3  0  0  0  0  0  0
  -30.3250  -16.7730   20.9300 C   0  0  0  0  0  0  0  0  0  0  0  0
  -30.0380  -19.6130   21.0770 C   0  0  0  0  0  0  0  0  0  0  0  0
  -30.9160  -14.5050   20.0100 C   0  0  0  0  0  0  0  0  0  0  0  0
  -30.5420  -12.4090   18.7560 C   0  0  0  0  0  2  0  0  0  0  0  0
  -29.5080  -12.6610   17.6380 C   0  0  0  0  0  2  0  0  0  0  0  0
  -28.0680  -12.5060   18.1670 C   0  0  0  0  0  2  0  0  0  0  0  0
  -27.8290  -13.2900   19.4840 C   0  0  0  0  0  3  0  0  0  0  0  0
  -28.9560  -12.9940   20.4990 C   0  0  0  0  0  2  0  0  0  0  0  0
  -30.2470  -13.3280   19.8650 N   0  0  0  0  0  0  0  0  0  0  0  0
  -31.9410  -14.7760   19.3750 O   0  0  0  0  0  0  0  0  0  0  0  0
  -30.3610  -15.3460   20.9010 N   0  0  0  0  0  0  0  0  0  0  0  0
  -29.6640  -14.8960   21.4760 H   0  0  0  0  0  0  0  0  0  0  0  0
  -25.4800  -13.8870   20.3600 C   0  0  0  0  0  0  0  0  0  0  0  0
  -24.4390  -13.1070   20.7890 C   0  0  0  0  0  0  0  0  0  0  0  0
  -24.8990  -11.7560   20.7060 C   0  0  0  0  0  0  0  0  0  0  0  0
  -26.5080  -13.0110   20.0450 N   0  0  0  0  0  0  0  0  0  0  0  0
  -26.1640  -11.7240   20.3070 N   0  0  0  0  0  0  0  0  0  0  0  0
  -24.1890  -10.4900   20.9270 C   0  0  0  0  0  0  0  0  0  0  0  0
  -24.6230   -9.5630   21.9000 C   0  0  0  0  0  3  0  0  0  0  0  0
  -23.9140   -8.3590   22.1070 C   0  0  0  0  0  3  0  0  0  0  0  0
  -22.7590   -8.0740   21.3410 C   0  0  0  0  0  0  0  0  0  0  0  0
  -22.3450   -8.9920   20.3580 C   0  0  0  0  0  3  0  0  0  0  0  0
  -23.0540  -10.1860   20.1500 C   0  0  0  0  0  3  0  0  0  0  0  0
  -22.0250   -6.9190   21.4550 O   0  0  0  0  0  0  0  0  0  0  0  0
  -21.8800   -6.2730   22.6560 C   0  0  0  0  0  0  0  0  0  0  0  0
  -21.3150   -6.9110   23.7820 C   0  0  0  0  0  3  0  0  0  0  0  0
  -21.1200   -6.1870   24.9760 C   0  0  0  0  0  3  0  0  0  0  0  0
  -21.4800   -4.8290   25.0440 C   0  0  0  0  0  0  0  0  0  0  0  0
  -22.0400   -4.1910   23.9220 C   0  0  0  0  0  3  0  0  0  0  0  0
  -22.2340   -4.9110   22.7310 C   0  0  0  0  0  0  0  0  0  0  0  0
  -22.7530   -4.2850   21.6470 F   0  0  0  0  0  0  0  0  0  0  0  0
  -21.2870   -4.1320   26.1880 F   0  0  0  0  0  0  0  0  0  0  0  0
  -23.0640  -13.5760   21.1680 C   0  0  0  0  0  0  0  0  0  0  0  0
  -22.4120  -12.8850   22.0970 N   0  0  0  0  0  0  0  0  0  0  0  0
  -22.5760  -14.5910   20.6720 O   0  0  0  0  0  0  0  0  0  0  0  0
  -22.8210  -12.0640   22.5200 H   0  0  0  0  0  0  0  0  0  0  0  0
  -21.4930  -13.1830   22.3910 H   0  0  0  0  0  0  0  0  0  0  0  0
  -25.6320  -15.2620   20.1970 N   0  0  0  0  0  0  0  0  0  0  0  0
  -24.8820  -15.9170   20.3820 H   0  0  0  0  0  0  0  0  0  0  0  0
  -26.4690  -15.7070   19.8400 H   0  0  0  0  0  0  0  0  0  0  0  0
  1 47  1  0
  1  2  1  0
  3  4  1  0
  3  2  1  0
  5  4  1  0
  6  8  1  0
  6  5  1  0
  7 18  2  0
  8 13  1  0
  9 17  1  0
  9 19  1  0
 10 16  1  0
 10 12  1  0
 11 17  1  0
 12 11  1  0
 13 12  2  0
 14 15  1  0
 14  8  2  0
 15 10  2  0
 16  9  1  0
 17  7  1  0
 19 21  2  0
 20 19  1  0
 22 20  1  0
 23 32  2  0
 23 28  1  0
 24 20  1  0
 24 28  1  0
 25 24  1  0
 26 27  1  0
 26 25  1  0
 27 23  1  0
 28 29  2  0
 29 30  1  0
 31 30  2  0
 32 31  1  0
 33  7  1  0
 33 34  1  0
 33 43  1  0
 34 37  1  0
 35 39  1  0
 35 34  1  0
 36 35  2  0
 39 38  1  0
 41 39  1  0
 41 42  1  0
 41 40  1  0
 43 46  1  1
 43 44  1  0
 45 43  1  0
 48 50  1  0
 49 51  2  0
 49 52  1  0
 51 53  1  0
 52 48  2  0
 53 47  1  0
 53 50  2  0
 54 62  1  0
 55 60  1  0
 56 57  1  0
 56 55  1  0
 58 57  1  0
 58 67  1  0
 58 59  1  0
 60 54  1  0
 60 59  1  0
 61 54  2  0
 62 52  1  0
 62 63  1  0
 64 65  2  0
 65 84  1  0
 66 65  1  0
 66 69  1  0
 67 68  1  0
 67 64  1  0
 68 66  2  0
 69 70  1  0
 70 71  2  0
 72 75  1  0
 72 71  1  0
 73 72  2  0
 74 73  1  0
 74 69  2  0
 75 76  1  0
 76 81  2  0
 76 77  1  0
 77 78  2  0
 78 79  1  0
 79 83  1  0
 80 79  2  0
 81 80  1  0
 82 81  1  0
 84 85  1  0
 85 88  1  0
 85 87  1  0
 86 84  2  0
 89 64  1  0
 89 90  1  0
 91 89  1  0
M  ISO  4   5 101   6 101  54 100  62 100
M  END
>  <TORSDO>  (35) 
F 22

>  <SCORE>  (35) 
-10.972

>  <name>  (35) 
34

>  <ligand_id>  (35) 
34

>  <original_smiles>  (35) 
[H]c1c([H])c([H])c2c(c1[H])C([H])([H])C([H])([H])C([H])([H])C2([H])N([H])C(=O)C1([H])N(C(=O)C([H])(N([H])C(=O)C([H])(N([H])C([H])([H])[H])C([H])([H])[H])C(C([H])([H])[H])(C([H])([H])[H])C([H])([H])[H])C([H])([H])c2c([H])c(OC([H])([H])C([H])([H])OC([H])([H])C([H])([H])Oc3c([H])c([H])c(N([H])C(=O)N4C([H])([H])C([H])([H])C([H])([H])C([H])(n5nc(-c6c([H])c([H])c(Oc7c([H])c([H])c(F)c([H])c7F)c([H])c6[H])c(C(=O)N([H])[H])c5N([H])[H])C4([H])[H])c([H])c3[H])c([H])c([H])c2C1([H])[H]

>  <smiles>  (35) 
[H]c1c([H])c([H])c2c(c1[H])C([H])([H])C([H])([H])C([H])([H])C2([H])N([H])C(=O)C1([H])N(C(=O)C([H])(N([H])C(=O)C([H])(N([H])C([H])([H])[H])C([H])([H])[H])C(C([H])([H])[H])(C([H])([H])[H])C([H])([H])[H])C([H])([H])c2c([H])c(OC([H])([H])C([H])([H])OC([H])([H])C([H])([H])Oc3c([H])c([H])c(N([H])C(=O)N4C([H])([H])C([H])([H])C([H])([H])C([H])(n5nc(-c6c([H])c([H])c(Oc7c([H])c([H])c(F)c([H])c7F)c([H])c6[H])c(C(=O)N([H])[H])c5N([H])[H])C4([H])[H])c([H])c3[H])c([H])c([H])c2C1([H])[H]

$$$$
35:0:0
     RDKit          3D

109117  0  0  1  0  0  0  0  0999 V2000
  -21.9750  -11.5380   22.0120 O   0  0  0  0  0  0  0  0  0  0  0  0
  -22.5060  -10.2560   22.8220 C   0  0  0  0  0  2  0  0  0  0  0  0
  -23.9170   -9.7380   23.7520 C   0  0  0  0  0  2  0  0  0  0  0  0
  -25.4960   -9.6270   23.5160 O   0  0  0  0  0  0  0  0  0  0  0  0
  -26.6700   -8.6680   22.9940 C   0  0  0  0  0  2  0  0  0  0  0  0
  -27.3030   -8.0920   21.4570 C   0  0  0  0  0  2  0  0  0  0  0  0
  -27.4090   -8.8490   20.0390 N   0  0  0  0  0  0  0  0  0  0  0  0
  -27.2610   -9.8420   20.2830 H   0  0  0  0  0  0  0  0  0  0  0  0
  -27.6780   -8.4570   17.4180 O   0  0  0  0  0  0  0  0  0  0  0  0
  -29.6660   -7.9370   18.8700 O   0  0  0  0  0  0  0  0  0  0  0  0
  -28.5570   -8.8460   18.5300 S   0  0  2  0  0  0  0  0  0  0  0  0
  -28.9260  -13.0040   17.8590 C   0  0  0  0  0  3  0  0  0  0  0  0
  -30.1630  -13.2990   18.4940 C   0  0  0  0  0  3  0  0  0  0  0  0
  -28.4640  -11.6690   17.7300 C   0  0  0  0  0  3  0  0  0  0  0  0
  -30.7050  -10.9820   18.2870 C   0  0  0  0  0  3  0  0  0  0  0  0
  -31.0260  -12.2670   18.9440 C   0  0  0  0  0  0  0  0  0  0  0  0
  -29.3300  -10.5940   18.0140 C   0  0  0  0  0  0  0  0  0  0  0  0
  -32.2920  -12.5060   21.4570 C   0  0  0  0  0  0  0  0  0  0  0  0
  -31.7410  -10.3470   22.0870 C   0  0  0  0  0  2  0  0  0  0  0  0
  -31.0640   -9.9790   20.8270 C   0  0  0  0  0  2  0  0  0  0  0  0
  -29.6490  -10.6450   20.8950 C   0  0  0  0  0  2  0  0  0  0  0  0
  -29.2720  -12.0340   21.3700 C   0  0  0  0  0  3  0  0  0  0  0  0
  -30.0900  -12.1250   22.6430 C   0  0  0  0  0  2  0  0  0  0  0  0
  -31.4650  -11.7620   22.2220 N   0  0  0  0  0  0  0  0  0  0  0  0
  -33.3820  -12.7960   21.9660 O   0  0  0  0  0  0  0  0  0  0  0  0
  -32.0630  -12.6300   20.0330 N   0  0  0  0  0  0  0  0  0  0  0  0
  -32.8010  -13.2040   19.6520 H   0  0  0  0  0  0  0  0  0  0  0  0
  -27.0420  -13.2840   21.6490 C   0  0  0  0  0  0  0  0  0  0  0  0
  -25.7480  -12.8510   21.6530 C   0  0  0  0  0  0  0  0  0  0  0  0
  -25.7230  -11.5230   20.9880 C   0  0  0  0  0  0  0  0  0  0  0  0
  -27.8100  -12.2040   21.3810 N   0  0  0  0  0  0  0  0  0  0  0  0
  -26.9960  -11.3090   20.8090 N   0  0  0  0  0  0  0  0  0  0  0  0
  -24.8190  -10.2730   20.6130 C   0  0  0  0  0  0  0  0  0  0  0  0
  -24.8840   -8.8860   21.0820 C   0  0  0  0  0  3  0  0  0  0  0  0
  -23.8850   -7.9250   21.0690 C   0  0  0  0  0  3  0  0  0  0  0  0
  -22.6640   -8.2860   20.5340 C   0  0  0  0  0  0  0  0  0  0  0  0
  -22.5570   -9.5570   19.9270 C   0  0  0  0  0  3  0  0  0  0  0  0
  -23.6410  -10.4710   19.8870 C   0  0  0  0  0  3  0  0  0  0  0  0
  -21.6020   -7.4210   20.4960 O   0  0  0  0  0  0  0  0  0  0  0  0
  -21.3520   -6.5240   21.5150 C   0  0  0  0  0  0  0  0  0  0  0  0
  -20.8900   -6.9490   22.7790 C   0  0  0  0  0  3  0  0  0  0  0  0
  -20.5010   -5.9930   23.7470 C   0  0  0  0  0  3  0  0  0  0  0  0
  -20.5650   -4.6200   23.4450 C   0  0  0  0  0  0  0  0  0  0  0  0
  -21.0490   -4.1970   22.1950 C   0  0  0  0  0  3  0  0  0  0  0  0
  -21.4550   -5.1480   21.2410 C   0  0  0  0  0  0  0  0  0  0  0  0
  -21.9070   -4.7310   20.0330 F   0  0  0  0  0  0  0  0  0  0  0  0
  -20.1540   -3.7010   24.3520 F   0  0  0  0  0  0  0  0  0  0  0  0
  -24.7480  -13.8070   22.2820 C   0  0  0  0  0  0  0  0  0  0  0  0
  -23.7520  -13.4780   23.0590 N   0  0  0  0  0  0  0  0  0  0  0  0
  -24.8760  -14.9980   22.1920 O   0  0  0  0  0  0  0  0  0  0  0  0
  -23.4710  -12.5190   23.1420 H   0  0  0  0  0  0  0  0  0  0  0  0
  -23.1770  -14.2070   23.4540 H   0  0  0  0  0  0  0  0  0  0  0  0
  -27.6530  -14.5040   21.9160 N   0  0  0  0  0  0  0  0  0  0  0  0
  -27.0850  -15.3000   22.1860 H   0  0  0  0  0  0  0  0  0  0  0  0
  -28.6460  -14.6890   21.9700 H   0  0  0  0  0  0  0  0  0  0  0  0
  -22.0750  -12.5300   20.7630 C   0  0  0  0  0  2  0  0  0  0  0  0
  -23.2470  -13.2210   19.6900 C   0  0  0  0  0  2  0  0  0  0  0  0
  -24.0980  -14.5110   19.8320 O   0  0  0  0  0  0  0  0  0  0  0  0
  -25.4670  -14.8250   19.1660 C   0  0  0  0  0  3  0  0  0  0  0  0
  -26.5210  -16.0470   19.6570 C   0  0  0  0  0  3  0  0  0  0  0  0
  -28.8810  -17.3060   19.4710 C   0  0  0  0  0  0  0  0  0  0  0  0
  -27.7970  -16.5840   18.9200 N   0  0  0  0  0  0  0  0  0  0  0  0
  -29.0950  -17.2050   20.6810 O   0  0  0  0  0  0  0  0  0  0  0  0
  -27.7440  -16.6080   17.9070 H   0  0  0  0  0  0  0  0  0  0  0  0
  -29.8140  -18.3980   18.6760 C   0  0  0  0  0  2  0  0  0  0  0  0
  -31.3040  -18.4730   18.9580 O   0  0  0  0  0  0  0  0  0  0  0  0
  -32.1900  -19.7200   18.8590 C   0  0  0  0  0  3  0  0  0  0  0  0
  -33.5340  -19.8320   17.8840 C   0  0  0  0  0  3  0  0  0  0  0  0
  -34.6570  -20.9310   17.9530 O   0  0  0  0  0  0  0  0  0  0  0  0
  -35.4460  -28.0040   16.0100 C   0  0  0  0  0  0  0  0  0  0  0  0
  -34.7660  -21.9610   16.9780 C   0  0  0  0  0  0  0  0  0  0  0  0
  -34.0130  -26.5120   14.6870 C   0  0  0  0  0  3  0  0  0  0  0  0
  -34.3590  -24.0170   15.0280 C   0  0  0  0  0  0  0  0  0  0  0  0
  -36.0500  -25.5650   15.9460 C   0  0  0  0  0  2  0  0  0  0  0  0
  -35.3070  -24.2270   16.0330 C   0  0  0  0  0  0  0  0  0  0  0  0
  -35.5000  -23.2160   17.0460 C   0  0  0  0  0  3  0  0  0  0  0  0
  -34.0300  -21.7600   15.8040 C   0  0  0  0  0  3  0  0  0  0  0  0
  -33.7360  -22.7780   14.9080 C   0  0  0  0  0  3  0  0  0  0  0  0
  -34.0640  -25.1130   14.0320 C   0  0  0  0  0  2  0  0  0  0  0  0
  -35.1910  -26.7340   15.5810 N   0  0  0  0  0  0  0  0  0  0  0  0
  -34.7300  -28.9570   15.6720 O   0  0  0  0  0  0  0  0  0  0  0  0
  -32.6540  -26.7030   15.4120 C   0  0  0  0  0  0  0  0  0  0  0  0
  -31.6070  -27.0700   14.6500 N   0  0  0  0  0  0  0  0  0  0  0  0
  -32.5560  -26.5160   16.6280 O   0  0  0  0  0  0  0  0  0  0  0  0
  -31.7630  -27.2020   13.6610 H   0  0  0  0  0  0  0  0  0  0  0  0
  -28.2900  -28.0530   13.5930 C   0  0  0  0  0  0  0  0  0  0  0  0
  -30.2370  -27.2990   15.1210 C   0  0  0  0  0  3  0  0  0  0  0  0
  -29.4740  -25.9620   15.2680 C   0  0  0  0  0  2  0  0  0  0  0  0
  -28.6800  -25.5860   14.0130 C   0  0  0  0  0  2  0  0  0  0  0  0
  -27.6540  -26.6740   13.6800 C   0  0  0  0  0  2  0  0  0  0  0  0
  -29.5110  -28.3410   14.2590 C   0  0  0  0  0  0  0  0  0  0  0  0
  -30.0790  -29.6260   14.1180 C   0  0  0  0  0  3  0  0  0  0  0  0
  -29.4460  -30.6130   13.3400 C   0  0  0  0  0  3  0  0  0  0  0  0
  -28.2290  -30.3290   12.7000 C   0  0  0  0  0  3  0  0  0  0  0  0
  -27.6520  -29.0520   12.8290 C   0  0  0  0  0  3  0  0  0  0  0  0
  -36.6600  -28.3170   16.9290 C   0  0  0  0  0  3  0  0  0  0  0  0
  -36.2700  -28.3970   18.4570 C   0  0  1  0  0  0  0  0  0  0  0  0
  -35.0440  -29.2990   18.7400 C   0  0  0  0  0  1  0  0  0  0  0  0
  -35.9590  -26.9940   19.0270 C   0  0  0  0  0  1  0  0  0  0  0  0
  -37.4680  -28.9300   19.2730 C   0  0  0  0  0  1  0  0  0  0  0  0
  -37.2350  -29.5930   16.4800 N   0  0  0  0  0  0  0  0  0  0  0  0
  -38.3040  -29.7090   15.6770 C   0  0  0  0  0  0  0  0  0  0  0  0
  -38.9570  -28.7380   15.2950 O   0  0  0  0  0  0  0  0  0  0  0  0
  -36.7110  -30.4260   16.7050 H   0  0  0  0  0  0  0  0  0  0  0  0
  -38.2170  -31.3720   13.7890 C   0  0  0  0  0  1  0  0  0  0  0  0
  -38.7090  -31.1270   15.2270 C   0  0  0  0  0  3  0  0  0  0  0  0
  -40.6710  -31.4360   16.6730 C   0  0  0  0  0  1  0  0  0  0  0  0
  -40.1680  -31.3740   15.3030 N   0  0  0  0  0  0  0  0  0  0  0  0
  -40.4110  -32.2440   14.8350 H   0  0  0  0  0  0  0  0  0  0  0  0
  1  2  1  0
  2  3  1  0
  4  3  1  0
  5  4  1  0
  6  5  1  0
  7  8  1  0
  7  6  1  0
  9 11  2  0
 11 10  2  0
 11  7  1  1
 12 13  1  0
 13 16  2  0
 14 12  2  0
 14 17  1  0
 15 16  1  0
 16 26  1  0
 17 15  2  0
 17 11  1  0
 18 25  2  0
 18 24  1  0
 19 24  1  0
 20 21  1  0
 20 19  1  0
 22 21  1  0
 22 31  1  0
 22 23  1  0
 24 23  1  0
 26 18  1  0
 27 26  1  0
 28 29  2  0
 28 53  1  0
 29 48  1  0
 30 29  1  0
 31 28  1  0
 32 30  2  0
 32 31  1  0
 33 30  1  0
 33 34  1  0
 35 34  2  0
 36 35  1  0
 37 36  2  0
 38 37  1  0
 38 33  2  0
 39 36  1  0
 39 40  1  0
 40 41  1  0
 41 42  2  0
 43 42  1  0
 43 47  1  0
 44 43  2  0
 45 40  2  0
 45 44  1  0
 46 45  1  0
 48 49  1  0
 49 51  1  0
 49 52  1  0
 50 48  2  0
 53 55  1  0
 53 54  1  0
 56  1  1  0
 57 58  1  0
 57 56  1  0
 59 60  2  0
 59 58  1  0
 61 63  2  0
 62 61  1  0
 62 60  1  0
 64 62  1  0
 65 66  1  0
 65 61  1  0
 67 66  1  0
 68 69  1  0
 68 67  2  0
 71 76  1  0
 71 69  1  0
 72 82  1  0
 72 80  1  0
 73 75  1  0
 74 75  1  0
 75 76  2  0
 77 71  2  0
 78 73  2  0
 78 77  1  0
 79 72  1  0
 79 73  1  0
 80 74  1  0
 80 70  1  0
 81 70  2  0
 82 84  2  0
 83 82  1  0
 85 83  1  0
 86 90  1  0
 86 91  1  0
 87 83  1  0
 87 88  1  0
 89 88  1  0
 90 89  1  0
 91 87  1  0
 92 91  2  0
 93 92  1  0
 94 95  1  0
 94 93  2  0
 95 86  2  0
 96 70  1  0
 96 97  1  0
 97 98  1  6
 97 99  1  0
 97100  1  0
101104  1  0
101 96  1  0
102101  1  0
103102  2  0
106105  1  0
106108  1  0
106102  1  0
108107  1  0
109108  1  0
M  ISO  4  18 100  26 100  68 101  69 101
M  END
>  <TORSDO>  (36) 
F 34

>  <SCORE>  (36) 
4.043

>  <name>  (36) 
35

>  <ligand_id>  (36) 
35

>  <original_smiles>  (36) 
[H]c1c([H])c([H])c2c(c1[H])C([H])([H])C([H])([H])C([H])([H])C2([H])N([H])C(=O)C1([H])N(C(=O)C([H])(N([H])C(=O)C([H])(N([H])C([H])([H])[H])C([H])([H])[H])C(C([H])([H])[H])(C([H])([H])[H])C([H])([H])[H])C([H])([H])c2c([H])c(OC([H])([H])C([H])([H])OC([H])([H])C(=O)N([H])C([H])([H])C([H])([H])OC([H])([H])C([H])([H])OC([H])([H])C([H])([H])OC([H])([H])C([H])([H])N([H])S(=O)(=O)c3c([H])c([H])c([H])c(N([H])C(=O)N4C([H])([H])C([H])([H])C([H])([H])C([H])(n5nc(-c6c([H])c([H])c(Oc7c([H])c([H])c(F)c([H])c7F)c([H])c6[H])c(C(=O)N([H])[H])c5N([H])[H])C4([H])[H])c3[H])c([H])c([H])c2C1([H])[H]

>  <smiles>  (36) 
[H]c1c([H])c([H])c2c(c1[H])C([H])([H])C([H])([H])C([H])([H])C2([H])N([H])C(=O)C1([H])N(C(=O)C([H])(N([H])C(=O)C([H])(N([H])C([H])([H])[H])C([H])([H])[H])C(C([H])([H])[H])(C([H])([H])[H])C([H])([H])[H])C([H])([H])c2c([H])c(OC([H])([H])C([H])([H])OC([H])([H])C(=O)N([H])C([H])([H])C([H])([H])OC([H])([H])C([H])([H])OC([H])([H])C([H])([H])OC([H])([H])C([H])([H])N([H])S(=O)(=O)c3c([H])c([H])c([H])c(N([H])C(=O)N4C([H])([H])C([H])([H])C([H])([H])C([H])(n5nc(-c6c([H])c([H])c(Oc7c([H])c([H])c(F)c([H])c7F)c([H])c6[H])c(C(=O)N([H])[H])c5N([H])[H])C4([H])[H])c3[H])c([H])c([H])c2C1([H])[H]

$$$$
36:0:0
     RDKit          3D

 87 94  0  0  1  0  0  0  0  0999 V2000
  -29.1130  -22.7980   20.1480 O   0  0  0  0  0  0  0  0  0  0  0  0
  -29.2650  -24.1800   20.5710 C   0  0  0  0  0  2  0  0  0  0  0  0
  -28.1950  -25.1410   19.9510 C   0  0  0  0  0  2  0  0  0  0  0  0
  -28.3440  -26.5690   20.2300 O   0  0  0  0  0  0  0  0  0  0  0  0
  -24.6030  -31.8820   23.2540 C   0  0  0  0  0  0  0  0  0  0  0  0
  -27.2030  -27.3700   20.1730 C   0  0  0  0  0  0  0  0  0  0  0  0
  -23.3880  -30.4910   21.6140 C   0  0  0  0  0  3  0  0  0  0  0  0
  -24.8290  -28.9470   20.1790 C   0  0  0  0  0  0  0  0  0  0  0  0
  -25.9230  -30.8160   21.4190 C   0  0  0  0  0  2  0  0  0  0  0  0
  -25.9960  -29.4430   20.7740 C   0  0  0  0  0  0  0  0  0  0  0  0
  -27.1840  -28.6630   20.7670 C   0  0  0  0  0  3  0  0  0  0  0  0
  -26.0140  -26.9200   19.5460 C   0  0  0  0  0  3  0  0  0  0  0  0
  -24.8370  -27.6890   19.5590 C   0  0  0  0  0  3  0  0  0  0  0  0
  -23.5920  -29.8180   20.2320 C   0  0  0  0  0  2  0  0  0  0  0  0
  -24.6560  -31.0790   22.1530 N   0  0  0  0  0  0  0  0  0  0  0  0
  -23.5240  -32.1610   23.7950 O   0  0  0  0  0  0  0  0  0  0  0  0
  -22.7290  -29.4710   22.5730 C   0  0  0  0  0  0  0  0  0  0  0  0
  -21.4040  -29.2960   22.4460 N   0  0  0  0  0  0  0  0  0  0  0  0
  -23.4090  -28.8420   23.3890 O   0  0  0  0  0  0  0  0  0  0  0  0
  -20.9160  -29.8550   21.7610 H   0  0  0  0  0  0  0  0  0  0  0  0
  -18.0240  -28.1080   22.9390 C   0  0  0  0  0  0  0  0  0  0  0  0
  -20.5820  -28.3620   23.2170 C   0  0  0  0  0  3  0  0  0  0  0  0
  -20.6820  -26.9290   22.6440 C   0  0  0  0  0  2  0  0  0  0  0  0
  -19.5830  -26.6070   21.6270 C   0  0  0  0  0  2  0  0  0  0  0  0
  -18.2000  -26.7570   22.2670 C   0  0  0  0  0  2  0  0  0  0  0  0
  -19.1430  -28.8680   23.3700 C   0  0  0  0  0  0  0  0  0  0  0  0
  -18.9250  -30.1340   23.9590 C   0  0  0  0  0  3  0  0  0  0  0  0
  -17.6220  -30.6390   24.1180 C   0  0  0  0  0  3  0  0  0  0  0  0
  -16.5170  -29.8760   23.7040 C   0  0  0  0  0  3  0  0  0  0  0  0
  -16.7190  -28.6120   23.1200 C   0  0  0  0  0  3  0  0  0  0  0  0
  -25.8930  -32.5060   23.8720 C   0  0  0  0  0  3  0  0  0  0  0  0
  -26.4080  -31.7310   25.1470 C   0  0  1  0  0  0  0  0  0  0  0  0
  -25.3180  -31.5010   26.2190 C   0  0  0  0  0  1  0  0  0  0  0  0
  -26.9820  -30.3500   24.7520 C   0  0  0  0  0  1  0  0  0  0  0  0
  -27.5640  -32.5190   25.8080 C   0  0  0  0  0  1  0  0  0  0  0  0
  -25.5920  -33.9060   24.2030 N   0  0  0  0  0  0  0  0  0  0  0  0
  -25.9250  -34.9570   23.4410 C   0  0  0  0  0  0  0  0  0  0  0  0
  -26.5890  -34.8480   22.4060 O   0  0  0  0  0  0  0  0  0  0  0  0
  -25.0030  -34.0650   25.0080 H   0  0  0  0  0  0  0  0  0  0  0  0
  -24.2020  -36.7560   23.0930 C   0  0  0  0  0  1  0  0  0  0  0  0
  -25.4460  -36.3470   23.8980 C   0  0  0  0  0  3  0  0  0  0  0  0
  -27.5900  -37.2240   24.7140 C   0  0  0  0  0  1  0  0  0  0  0  0
  -26.4820  -37.3950   23.7780 N   0  0  0  0  0  0  0  0  0  0  0  0
  -26.0800  -38.3170   23.9270 H   0  0  0  0  0  0  0  0  0  0  0  0
  -29.8660  -21.8260   20.9130 C   0  0  0  0  0  2  0  0  0  0  0  0
  -29.9940  -20.3890   20.2800 C   0  0  0  0  0  2  0  0  0  0  0  0
  -29.6060  -19.3250   21.1790 O   0  0  0  0  0  0  0  0  0  0  0  0
  -30.3560  -18.0820   21.1900 C   0  0  0  0  0  2  0  0  0  0  0  0
  -29.9920  -17.0260   20.1000 C   0  0  0  0  0  2  0  0  0  0  0  0
  -30.6580  -14.5630   20.1340 C   0  0  0  0  0  0  0  0  0  0  0  0
  -30.3320  -12.3860   19.0110 C   0  0  0  0  0  2  0  0  0  0  0  0
  -29.3420  -12.5990   17.8440 C   0  0  0  0  0  2  0  0  0  0  0  0
  -27.8850  -12.4670   18.3310 C   0  0  0  0  0  2  0  0  0  0  0  0
  -27.6040  -13.2910   19.6150 C   0  0  0  0  0  3  0  0  0  0  0  0
  -28.7030  -13.0590   20.6790 C   0  0  0  0  0  2  0  0  0  0  0  0
  -30.0040  -13.3660   20.0610 N   0  0  0  0  0  0  0  0  0  0  0  0
  -31.7760  -14.7380   19.6440 O   0  0  0  0  0  0  0  0  0  0  0  0
  -29.9110  -15.6090   20.5580 N   0  0  0  0  0  0  0  0  0  0  0  0
  -29.0360  -15.3490   20.9880 H   0  0  0  0  0  0  0  0  0  0  0  0
  -25.2410  -13.9170   20.4180 C   0  0  0  0  0  0  0  0  0  0  0  0
  -24.1800  -13.1550   20.8240 C   0  0  0  0  0  0  0  0  0  0  0  0
  -24.6260  -11.7980   20.7700 C   0  0  0  0  0  0  0  0  0  0  0  0
  -26.2680  -13.0270   20.1440 N   0  0  0  0  0  0  0  0  0  0  0  0
  -25.9040  -11.7470   20.4140 N   0  0  0  0  0  0  0  0  0  0  0  0
  -23.8950  -10.5420   20.9820 C   0  0  0  0  0  0  0  0  0  0  0  0
  -24.3570   -9.5630   21.8880 C   0  0  0  0  0  3  0  0  0  0  0  0
  -23.6260   -8.3710   22.0880 C   0  0  0  0  0  3  0  0  0  0  0  0
  -22.4190   -8.1520   21.3830 C   0  0  0  0  0  0  0  0  0  0  0  0
  -21.9750   -9.1210   20.4660 C   0  0  0  0  0  3  0  0  0  0  0  0
  -22.7060  -10.3040   20.2640 C   0  0  0  0  0  3  0  0  0  0  0  0
  -21.6570   -7.0150   21.4950 O   0  0  0  0  0  0  0  0  0  0  0  0
  -21.6560   -6.2580   22.6390 C   0  0  0  0  0  0  0  0  0  0  0  0
  -21.3040   -6.8040   23.8930 C   0  0  0  0  0  3  0  0  0  0  0  0
  -21.2500   -5.9740   25.0310 C   0  0  0  0  0  3  0  0  0  0  0  0
  -21.5350   -4.6010   24.9170 C   0  0  0  0  0  0  0  0  0  0  0  0
  -21.8800   -4.0550   23.6680 C   0  0  0  0  0  3  0  0  0  0  0  0
  -21.9370   -4.8820   22.5310 C   0  0  0  0  0  0  0  0  0  0  0  0
  -22.2490   -4.3460   21.3260 F   0  0  0  0  0  0  0  0  0  0  0  0
  -21.4760   -3.8020   26.0080 F   0  0  0  0  0  0  0  0  0  0  0  0
  -22.7990  -13.6450   21.1510 C   0  0  0  0  0  0  0  0  0  0  0  0
  -22.0980  -12.9520   22.0420 N   0  0  0  0  0  0  0  0  0  0  0  0
  -22.3520  -14.6760   20.6520 O   0  0  0  0  0  0  0  0  0  0  0  0
  -22.4730  -12.1180   22.4680 H   0  0  0  0  0  0  0  0  0  0  0  0
  -21.1730  -13.2630   22.3040 H   0  0  0  0  0  0  0  0  0  0  0  0
  -25.4140  -15.2870   20.2390 N   0  0  0  0  0  0  0  0  0  0  0  0
  -24.6560  -15.9470   20.3780 H   0  0  0  0  0  0  0  0  0  0  0  0
  -26.2510  -15.7180   19.8670 H   0  0  0  0  0  0  0  0  0  0  0  0
  1  2  1  0
  1 45  1  0
  3  4  1  0
  3  2  1  0
  5 16  2  0
  6  4  1  0
  6 11  1  0
  7 15  1  0
  7 17  1  0
  8 14  1  0
  8 10  1  0
  9 15  1  0
 10  9  1  0
 11 10  2  0
 12 13  1  0
 12  6  2  0
 13  8  2  0
 14  7  1  0
 15  5  1  0
 17 19  2  0
 18 17  1  0
 20 18  1  0
 21 30  2  0
 21 26  1  0
 22 18  1  0
 22 26  1  0
 23 22  1  0
 24 25  1  0
 24 23  1  0
 25 21  1  0
 26 27  2  0
 27 28  1  0
 29 28  2  0
 30 29  1  0
 31  5  1  0
 31 36  1  0
 31 32  1  0
 32 35  1  1
 32 33  1  0
 34 32  1  0
 36 39  1  0
 37 41  1  0
 37 36  1  0
 38 37  2  0
 41 40  1  0
 43 41  1  0
 43 44  1  0
 43 42  1  0
 46 45  1  0
 46 47  1  0
 47 48  1  0
 49 58  1  0
 49 48  1  0
 50 58  1  0
 51 56  1  0
 52 53  1  0
 52 51  1  0
 54 53  1  0
 54 63  1  0
 54 55  1  0
 56 50  1  0
 56 55  1  0
 57 50  2  0
 58 59  1  0
 60 61  2  0
 61 80  1  0
 62 61  1  0
 62 65  1  0
 63 64  1  0
 63 60  1  0
 64 62  2  0
 65 66  1  0
 66 67  2  0
 68 71  1  0
 68 67  1  0
 69 68  2  0
 70 69  1  0
 70 65  2  0
 71 72  1  0
 72 73  1  0
 73 74  2  0
 75 74  1  0
 75 79  1  0
 76 75  2  0
 77 72  2  0
 77 76  1  0
 78 77  1  0
 80 81  1  0
 81 84  1  0
 81 83  1  0
 82 80  2  0
 85 86  1  0
 85 60  1  0
 87 85  1  0
M  ISO  4   3 101   4 101  50 100  58 100
M  END
>  <TORSDO>  (37) 
F 23

>  <SCORE>  (37) 
-12.462

>  <name>  (37) 
36

>  <ligand_id>  (37) 
36

>  <original_smiles>  (37) 
[H]c1c([H])c([H])c2c(c1[H])C([H])([H])C([H])([H])C([H])([H])C2([H])N([H])C(=O)C1([H])N(C(=O)C([H])(N([H])C(=O)C([H])(N([H])C([H])([H])[H])C([H])([H])[H])C(C([H])([H])[H])(C([H])([H])[H])C([H])([H])[H])C([H])([H])c2c([H])c(OC([H])([H])C([H])([H])OC([H])([H])C([H])([H])OC([H])([H])C([H])([H])N([H])C(=O)N3C([H])([H])C([H])([H])C([H])([H])C([H])(n4nc(-c5c([H])c([H])c(Oc6c([H])c([H])c(F)c([H])c6F)c([H])c5[H])c(C(=O)N([H])[H])c4N([H])[H])C3([H])[H])c([H])c([H])c2C1([H])[H]

>  <smiles>  (37) 
[H]c1c([H])c([H])c2c(c1[H])C([H])([H])C([H])([H])C([H])([H])C2([H])N([H])C(=O)C1([H])N(C(=O)C([H])(N([H])C(=O)C([H])(N([H])C([H])([H])[H])C([H])([H])[H])C(C([H])([H])[H])(C([H])([H])[H])C([H])([H])[H])C([H])([H])c2c([H])c(OC([H])([H])C([H])([H])OC([H])([H])C([H])([H])OC([H])([H])C([H])([H])N([H])C(=O)N3C([H])([H])C([H])([H])C([H])([H])C([H])(n4nc(-c5c([H])c([H])c(Oc6c([H])c([H])c(F)c([H])c6F)c([H])c5[H])c(C(=O)N([H])[H])c4N([H])[H])C3([H])[H])c([H])c([H])c2C1([H])[H]

$$$$
37:0:0
     RDKit          3D

 98106  0  0  1  0  0  0  0  0999 V2000
  -27.9860  -24.4800   23.9770 C   0  0  0  0  0  0  0  0  0  0  0  0
  -29.2420  -27.0260   21.4770 C   0  0  0  0  0  2  0  0  0  0  0  0
  -28.2050  -26.2150   22.2810 C   0  0  0  0  0  2  0  0  0  0  0  0
  -30.1360  -24.6650   22.6710 C   0  0  0  0  0  2  0  0  0  0  0  0
  -30.3540  -27.6670   22.3290 C   0  0  0  0  0  2  0  0  0  0  0  0
  -31.2440  -25.5670   23.3180 C   0  0  0  0  0  2  0  0  0  0  0  0
  -28.7660  -25.0910   23.0450 N   0  0  0  0  0  0  0  0  0  0  0  0
  -31.5600  -26.8340   22.5810 N   0  0  2  0  0  4  0  0  0  0  0  0
  -27.1820  -25.1060   24.6810 O   0  0  0  0  0  0  0  0  0  0  0  0
  -31.9810  -26.5790   21.6980 H   0  0  0  0  0  0  0  0  0  0  0  0
  -27.9670  -22.9530   24.0440 C   0  0  0  0  0  2  0  0  0  0  0  0
  -28.8370  -22.5060   25.0740 O   0  0  0  0  0  0  0  0  0  0  0  0
  -29.6870  -21.4450   24.6620 C   0  0  0  0  0  2  0  0  0  0  0  0
  -31.1040  -21.7120   25.2140 C   0  0  0  0  0  2  0  0  0  0  0  0
  -31.9760  -22.1380   24.1730 O   0  0  0  0  0  0  0  0  0  0  0  0
  -32.5680  -21.0800   23.4290 C   0  0  0  0  0  2  0  0  0  0  0  0
  -32.6560  -21.5170   21.9670 C   0  0  0  0  0  2  0  0  0  0  0  0
  -32.3460  -20.3880   21.1530 O   0  0  0  0  0  0  0  0  0  0  0  0
  -33.2240  -19.9520   20.2420 C   0  0  0  0  0  0  0  0  0  0  0  0
  -33.2340  -18.4760   18.2580 C   0  0  0  0  0  2  0  0  0  0  0  0
  -32.1890  -19.0130   17.2620 C   0  0  0  0  0  2  0  0  0  0  0  0
  -30.7940  -18.4200   17.5530 C   0  0  0  0  0  2  0  0  0  0  0  0
  -30.3860  -18.5460   19.0480 C   0  0  0  0  0  3  0  0  0  0  0  0
  -31.5270  -18.0740   19.9710 C   0  0  0  0  0  2  0  0  0  0  0  0
  -32.7550  -18.7980   19.6020 N   0  0  0  0  0  0  0  0  0  0  0  0
  -34.2420  -20.5720   19.9290 O   0  0  0  0  0  0  0  0  0  0  0  0
  -27.8550  -18.3350   19.4830 C   0  0  0  0  0  0  0  0  0  0  0  0
  -27.0450  -17.2440   19.6620 C   0  0  0  0  0  0  0  0  0  0  0  0
  -27.9050  -16.1030   19.6020 C   0  0  0  0  0  0  0  0  0  0  0  0
  -29.1370  -17.8360   19.3290 N   0  0  0  0  0  0  0  0  0  0  0  0
  -29.1670  -16.4830   19.4550 N   0  0  0  0  0  0  0  0  0  0  0  0
  -27.5840  -14.6680   19.6150 C   0  0  0  0  0  0  0  0  0  0  0  0
  -27.9440  -13.8400   20.7030 C   0  0  0  0  0  3  0  0  0  0  0  0
  -27.6090  -12.4710   20.6970 C   0  0  0  0  0  3  0  0  0  0  0  0
  -26.9030  -11.9140   19.6050 C   0  0  0  0  0  0  0  0  0  0  0  0
  -26.5740  -12.7370   18.5130 C   0  0  0  0  0  3  0  0  0  0  0  0
  -26.9130  -14.0990   18.5160 C   0  0  0  0  0  3  0  0  0  0  0  0
  -26.5590  -10.5890   19.5040 O   0  0  0  0  0  0  0  0  0  0  0  0
  -25.9290   -9.9260   20.5300 C   0  0  0  0  0  0  0  0  0  0  0  0
  -24.6410  -10.2950   20.9690 C   0  0  0  0  0  3  0  0  0  0  0  0
  -24.0000   -9.5440   21.9770 C   0  0  0  0  0  3  0  0  0  0  0  0
  -24.6450   -8.4250   22.5370 C   0  0  0  0  0  0  0  0  0  0  0  0
  -25.9270   -8.0560   22.0960 C   0  0  0  0  0  3  0  0  0  0  0  0
  -26.5670   -8.8030   21.0900 C   0  0  0  0  0  0  0  0  0  0  0  0
  -27.7930   -8.4320   20.6520 F   0  0  0  0  0  0  0  0  0  0  0  0
  -24.0310   -7.6960   23.4990 F   0  0  0  0  0  0  0  0  0  0  0  0
  -25.5510  -17.2520   19.7930 C   0  0  0  0  0  0  0  0  0  0  0  0
  -24.9970  -16.3250   20.5710 N   0  0  0  0  0  0  0  0  0  0  0  0
  -24.8640  -18.1090   19.2360 O   0  0  0  0  0  0  0  0  0  0  0  0
  -25.5660  -15.6390   21.0430 H   0  0  0  0  0  0  0  0  0  0  0  0
  -23.9960  -16.3010   20.6920 H   0  0  0  0  0  0  0  0  0  0  0  0
  -27.6010  -19.6990   19.4210 N   0  0  0  0  0  0  0  0  0  0  0  0
  -26.6590  -20.0700   19.4630 H   0  0  0  0  0  0  0  0  0  0  0  0
  -28.3010  -20.4120   19.2570 H   0  0  0  0  0  0  0  0  0  0  0  0
  -32.5970  -27.6850   23.2630 C   0  0  0  0  0  2  0  0  0  0  0  0
  -33.3890  -28.5520   22.2540 C   0  0  0  0  0  0  0  0  0  0  0  0
  -34.3340  -28.0550   21.6380 O   0  0  0  0  0  0  0  0  0  0  0  0
  -33.1160  -29.9170   22.2170 O   0  0  0  0  0  0  0  0  0  0  0  0
  -29.0670  -32.4420   27.5520 C   0  0  0  0  0  0  0  0  0  0  0  0
  -31.9040  -30.4550   22.6220 C   0  0  0  0  0  0  0  0  0  0  0  0
  -27.9050  -32.0010   25.4260 C   0  0  0  0  0  3  0  0  0  0  0  0
  -29.4080  -31.5130   23.4340 C   0  0  0  0  0  0  0  0  0  0  0  0
  -30.3870  -32.6290   25.4400 C   0  0  0  0  0  2  0  0  0  0  0  0
  -30.5500  -31.7780   24.1940 C   0  0  0  0  0  0  0  0  0  0  0  0
  -31.8020  -31.2440   23.7960 C   0  0  0  0  0  3  0  0  0  0  0  0
  -30.7380  -30.2400   21.8490 C   0  0  0  0  0  3  0  0  0  0  0  0
  -29.4860  -30.7120   22.2850 C   0  0  0  0  0  3  0  0  0  0  0  0
  -28.1150  -32.1450   23.8970 C   0  0  0  0  0  2  0  0  0  0  0  0
  -29.1420  -32.3370   26.1970 N   0  0  0  0  0  0  0  0  0  0  0  0
  -27.9870  -32.3060   28.1500 O   0  0  0  0  0  0  0  0  0  0  0  0
  -27.3610  -30.5850   25.7070 C   0  0  0  0  0  0  0  0  0  0  0  0
  -26.3270  -30.1760   24.9530 N   0  0  0  0  0  0  0  0  0  0  0  0
  -27.8900  -29.8680   26.5620 O   0  0  0  0  0  0  0  0  0  0  0  0
  -25.8890  -30.8620   24.3470 H   0  0  0  0  0  0  0  0  0  0  0  0
  -23.9250  -28.0110   23.3060 C   0  0  0  0  0  0  0  0  0  0  0  0
  -25.7030  -28.8500   24.9970 C   0  0  0  0  0  3  0  0  0  0  0  0
  -26.6240  -27.7620   24.3940 C   0  0  0  0  0  2  0  0  0  0  0  0
  -26.3570  -27.4980   22.9070 C   0  0  0  0  0  2  0  0  0  0  0  0
  -24.9110  -27.0420   22.6740 C   0  0  0  0  0  2  0  0  0  0  0  0
  -24.3030  -28.8760   24.3710 C   0  0  0  0  0  0  0  0  0  0  0  0
  -23.3670  -29.8120   24.8590 C   0  0  0  0  0  3  0  0  0  0  0  0
  -22.0660  -29.8800   24.3270 C   0  0  0  0  0  3  0  0  0  0  0  0
  -21.6870  -28.9920   23.3100 C   0  0  0  0  0  3  0  0  0  0  0  0
  -22.6100  -28.0630   22.8000 C   0  0  0  0  0  3  0  0  0  0  0  0
  -30.3220  -32.7610   28.4100 C   0  0  0  0  0  3  0  0  0  0  0  0
  -30.4160  -31.8860   29.7160 C   0  0  1  0  0  0  0  0  0  0  0  0
  -29.0670  -31.7420   30.4610 C   0  0  0  0  0  1  0  0  0  0  0  0
  -30.9350  -30.4640   29.3880 C   0  0  0  0  0  1  0  0  0  0  0  0
  -31.4380  -32.5210   30.6860 C   0  0  0  0  0  1  0  0  0  0  0  0
  -30.2790  -34.1920   28.7330 N   0  0  0  0  0  0  0  0  0  0  0  0
  -30.9780  -35.1410   28.0970 C   0  0  0  0  0  0  0  0  0  0  0  0
  -31.7960  -34.8880   27.2090 O   0  0  0  0  0  0  0  0  0  0  0  0
  -29.5850  -34.4840   29.4040 H   0  0  0  0  0  0  0  0  0  0  0  0
  -29.7950  -37.2790   27.5000 C   0  0  0  0  0  1  0  0  0  0  0  0
  -30.7340  -36.6030   28.5120 C   0  0  0  0  0  3  0  0  0  0  0  0
  -32.8220  -36.9590   29.7530 C   0  0  0  0  0  1  0  0  0  0  0  0
  -31.9780  -37.3920   28.6430 N   0  0  0  0  0  0  0  0  0  0  0  0
  -31.7640  -38.3750   28.7800 H   0  0  0  0  0  0  0  0  0  0  0  0
  1 11  1  0
  1  9  2  0
  2  3  1  0
  2  5  1  0
  3  7  1  0
  4  7  1  0
  4  6  1  0
  5  8  1  0
  7  1  1  0
  8 55  1  0
  8  6  1  0
  8 10  1  6
 11 12  1  0
 13 12  1  0
 13 14  1  0
 15 14  1  0
 16 15  1  0
 17 16  1  0
 18 17  1  0
 19 18  1  0
 20 25  1  0
 21 22  1  0
 21 20  1  0
 23 22  1  0
 23 30  1  0
 23 24  1  0
 25 24  1  0
 25 19  1  0
 26 19  2  0
 27 28  2  0
 28 47  1  0
 29 32  1  0
 29 28  1  0
 30 31  1  0
 30 27  1  0
 31 29  2  0
 32 33  1  0
 34 33  2  0
 35 34  1  0
 36 37  1  0
 36 35  2  0
 37 32  2  0
 38 35  1  0
 38 39  1  0
 39 40  2  0
 39 44  1  0
 40 41  1  0
 41 42  2  0
 42 46  1  0
 43 42  1  0
 44 43  2  0
 45 44  1  0
 47 48  1  0
 48 51  1  0
 48 50  1  0
 49 47  2  0
 52 53  1  0
 52 27  1  0
 54 52  1  0
 56 55  1  0
 57 56  2  0
 58 56  1  0
 58 60  1  0
 59 70  2  0
 60 65  1  0
 61 71  1  0
 61 69  1  0
 62 68  1  0
 62 64  1  0
 63 69  1  0
 64 63  1  0
 65 64  2  0
 66 67  1  0
 66 60  2  0
 67 62  2  0
 68 61  1  0
 69 59  1  0
 71 73  2  0
 72 71  1  0
 74 72  1  0
 75 80  1  0
 76 72  1  0
 77 76  1  0
 78 77  1  0
 79 78  1  0
 79 75  1  0
 80 81  2  0
 80 76  1  0
 82 81  1  0
 83 82  2  0
 84 75  2  0
 84 83  1  0
 85 59  1  0
 85 90  1  0
 85 86  1  0
 86 87  1  1
 86 89  1  0
 88 86  1  0
 90 93  1  0
 91 95  1  0
 91 90  1  0
 92 91  2  0
 95 94  1  0
 95 97  1  0
 97 98  1  0
 97 96  1  0
M  ISO  4  18 100  19 100  56 101  58 101
M  END
>  <TORSDO>  (38) 
F 26

>  <SCORE>  (38) 
7.861

>  <name>  (38) 
37

>  <ligand_id>  (38) 
37

>  <original_smiles>  (38) 
[H]c1c([H])c([H])c2c(c1[H])C([H])([H])C([H])([H])C([H])([H])C2([H])N([H])C(=O)C1([H])N(C(=O)C([H])(N([H])C(=O)C([H])(N([H])C([H])([H])[H])C([H])([H])[H])C(C([H])([H])[H])(C([H])([H])[H])C([H])([H])[H])C([H])([H])c2c([H])c(OC(=O)C([H])([H])[N+]3([H])C([H])([H])C([H])([H])N(C(=O)C([H])([H])OC([H])([H])C([H])([H])OC([H])([H])C([H])([H])OC(=O)N4C([H])([H])C([H])([H])C([H])([H])C([H])(n5nc(-c6c([H])c([H])c(Oc7c([H])c([H])c(F)c([H])c7F)c([H])c6[H])c(C(=O)N([H])[H])c5N([H])[H])C4([H])[H])C([H])([H])C([H])([H])C3([H])[H])c([H])c([H])c2C1([H])[H]

>  <smiles>  (38) 
[H]c1c([H])c([H])c2c(c1[H])C([H])([H])C([H])([H])C([H])([H])C2([H])N([H])C(=O)C1([H])N(C(=O)C([H])(N([H])C(=O)C([H])(N([H])C([H])([H])[H])C([H])([H])[H])C(C([H])([H])[H])(C([H])([H])[H])C([H])([H])[H])C([H])([H])c2c([H])c(OC(=O)C([H])([H])[N+]3([H])C([H])([H])C([H])([H])N(C(=O)C([H])([H])OC([H])([H])C([H])([H])OC([H])([H])C([H])([H])OC(=O)N4C([H])([H])C([H])([H])C([H])([H])C([H])(n5nc(-c6c([H])c([H])c(Oc7c([H])c([H])c(F)c([H])c7F)c([H])c6[H])c(C(=O)N([H])[H])c5N([H])[H])C4([H])[H])C([H])([H])C([H])([H])C3([H])[H])c([H])c([H])c2C1([H])[H]

$$$$
38:0:0
     RDKit          3D

 95102  0  0  1  0  0  0  0  0999 V2000
  -22.5430  -28.1840   24.1610 C   0  0  0  0  0  3  0  0  0  0  0  0
  -22.8090  -26.5210   24.4170 O   0  0  0  0  0  0  0  0  0  0  0  0
  -23.9320  -25.3010   24.3050 C   0  0  0  0  0  2  0  0  0  0  0  0
  -24.4570  -24.0850   23.0880 C   0  0  0  0  0  2  0  0  0  0  0  0
  -25.8220  -23.8280   22.2290 O   0  0  0  0  0  0  0  0  0  0  0  0
  -26.2020  -22.7900   21.0280 C   0  0  0  0  0  2  0  0  0  0  0  0
  -27.6540  -22.5120   20.0090 C   0  0  0  0  0  2  0  0  0  0  0  0
  -28.2930  -21.2200   19.2440 O   0  0  0  0  0  0  0  0  0  0  0  0
  -29.4700  -21.0420   18.1290 C   0  0  0  0  0  2  0  0  0  0  0  0
  -30.5220  -19.6780   17.6600 C   0  0  0  0  0  2  0  0  0  0  0  0
  -32.3060  -18.3700   15.6890 C   0  0  0  0  0  0  0  0  0  0  0  0
  -33.7060  -17.8550   13.5460 C   0  0  0  0  0  2  0  0  0  0  0  0
  -34.4230  -19.1100   12.9670 C   0  0  0  0  0  2  0  0  0  0  0  0
  -33.4500  -19.9960   12.1620 C   0  0  0  0  0  2  0  0  0  0  0  0
  -32.1000  -20.1590   12.9050 C   0  0  0  0  0  3  0  0  0  0  0  0
  -31.5230  -18.8050   13.3380 C   0  0  0  0  0  2  0  0  0  0  0  0
  -32.4730  -18.2790   14.3010 N   0  0  0  0  0  0  0  0  0  0  0  0
  -33.1230  -17.6860   16.3390 O   0  0  0  0  0  0  0  0  0  0  0  0
  -31.3050  -19.2980   16.2540 N   0  0  0  0  0  0  0  0  0  0  0  0
  -30.8620  -19.7820   15.4870 H   0  0  0  0  0  0  0  0  0  0  0  0
  -30.8360  -22.2560   12.2180 C   0  0  0  0  0  0  0  0  0  0  0  0
  -29.8610  -22.4710   11.2890 C   0  0  0  0  0  0  0  0  0  0  0  0
  -29.5860  -21.1980   10.7010 C   0  0  0  0  0  0  0  0  0  0  0  0
  -31.1170  -20.9040   12.1530 N   0  0  0  0  0  0  0  0  0  0  0  0
  -30.3130  -20.2530   11.2800 N   0  0  0  0  0  0  0  0  0  0  0  0
  -28.7210  -20.8320    9.5750 C   0  0  0  0  0  0  0  0  0  0  0  0
  -27.5230  -20.1100    9.7660 C   0  0  0  0  0  3  0  0  0  0  0  0
  -26.7020  -19.7870    8.6650 C   0  0  0  0  0  3  0  0  0  0  0  0
  -27.0760  -20.1900    7.3600 C   0  0  0  0  0  0  0  0  0  0  0  0
  -28.2840  -20.8860    7.1750 C   0  0  0  0  0  3  0  0  0  0  0  0
  -29.1020  -21.2020    8.2710 C   0  0  0  0  0  3  0  0  0  0  0  0
  -26.3530  -19.9010    6.2290 O   0  0  0  0  0  0  0  0  0  0  0  0
  -24.9810  -19.8840    6.2370 C   0  0  0  0  0  0  0  0  0  0  0  0
  -24.2220  -21.0600    6.4190 C   0  0  0  0  0  3  0  0  0  0  0  0
  -22.8160  -21.0070    6.3480 C   0  0  0  0  0  3  0  0  0  0  0  0
  -22.1680  -19.7830    6.0900 C   0  0  0  0  0  0  0  0  0  0  0  0
  -22.9230  -18.6120    5.9040 C   0  0  0  0  0  3  0  0  0  0  0  0
  -24.3270  -18.6630    5.9740 C   0  0  0  0  0  0  0  0  0  0  0  0
  -25.0510  -17.5360    5.7730 F   0  0  0  0  0  0  0  0  0  0  0  0
  -20.8180  -19.7340    6.0140 F   0  0  0  0  0  0  0  0  0  0  0  0
  -29.2870  -23.8000   10.8940 C   0  0  0  0  0  0  0  0  0  0  0  0
  -27.9950  -23.8460   10.6020 N   0  0  0  0  0  0  0  0  0  0  0  0
  -29.9810  -24.8170   10.8930 O   0  0  0  0  0  0  0  0  0  0  0  0
  -27.4240  -23.0140   10.6260 H   0  0  0  0  0  0  0  0  0  0  0  0
  -27.5670  -24.7260   10.3520 H   0  0  0  0  0  0  0  0  0  0  0  0
  -31.5240  -23.0930   13.0960 N   0  0  0  0  0  0  0  0  0  0  0  0
  -31.3840  -24.0970   13.0860 H   0  0  0  0  0  0  0  0  0  0  0  0
  -32.3300  -22.8120   13.6390 H   0  0  0  0  0  0  0  0  0  0  0  0
  -21.7810  -29.2370   22.7530 C   0  0  0  0  0  3  0  0  0  0  0  0
  -20.7830  -28.7990   21.2000 C   0  0  0  0  0  2  0  0  0  0  0  0
  -21.2270  -28.5280   19.5790 O   0  0  0  0  0  0  0  0  0  0  0  0
  -22.0430  -27.5990   18.4000 C   0  0  0  0  0  2  0  0  0  0  0  0
  -23.5600  -26.6380   18.2280 C   0  0  0  0  0  0  0  0  0  0  0  0
  -23.3400  -25.4680   18.5270 O   0  0  0  0  0  0  0  0  0  0  0  0
  -25.1700  -26.8480   17.6610 O   0  0  0  0  0  0  0  0  0  0  0  0
  -26.3140  -28.4970   23.2470 C   0  0  0  0  0  0  0  0  0  0  0  0
  -25.9110  -27.9560   17.3980 C   0  0  0  0  0  3  0  0  0  0  0  0
  -24.3540  -28.5860   21.6910 C   0  0  0  0  0  3  0  0  0  0  0  0
  -24.7550  -29.3430   19.3320 C   0  0  0  0  0  0  0  0  0  0  0  0
  -26.6740  -29.1710   20.9020 C   0  0  0  0  0  2  0  0  0  0  0  0
  -26.0710  -28.9460   19.5360 C   0  0  0  0  0  3  0  0  0  0  0  0
  -26.7360  -28.3040   18.4860 C   0  0  0  0  0  2  0  0  0  0  0  0
  -24.9030  -28.7890   16.9820 C   0  0  0  0  0  2  0  0  0  0  0  0
  -24.2150  -29.4090   18.0300 C   0  0  0  0  0  3  0  0  0  0  0  0
  -24.0230  -29.6570   20.5810 C   0  0  0  0  0  2  0  0  0  0  0  0
  -25.7990  -28.7470   22.0120 N   0  0  0  0  0  0  0  0  0  0  0  0
  -25.6330  -28.2370   24.2360 O   0  0  0  0  0  0  0  0  0  0  0  0
  -24.0560  -26.9890   21.3590 C   0  0  0  0  0  0  0  0  0  0  0  0
  -22.8570  -26.1430   21.1660 N   0  0  0  0  0  0  0  0  0  0  0  0
  -25.0540  -26.3380   21.3670 O   0  0  0  0  0  0  0  0  0  0  0  0
  -23.2910  -25.2920   20.8390 H   0  0  0  0  0  0  0  0  0  0  0  0
  -18.7130  -25.4250   21.5070 C   0  0  0  0  0  0  0  0  0  0  0  0
  -21.3890  -25.5630   21.6720 C   0  0  0  0  0  3  0  0  0  0  0  0
  -21.3420  -24.2530   20.9530 C   0  0  0  0  0  2  0  0  0  0  0  0
  -20.2490  -24.2240   19.9190 C   0  0  0  0  0  2  0  0  0  0  0  0
  -18.9110  -24.2090   20.6410 C   0  0  0  0  0  2  0  0  0  0  0  0
  -19.8400  -26.1070   22.0470 C   0  0  0  0  0  0  0  0  0  0  0  0
  -19.4110  -27.0920   23.0140 C   0  0  0  0  0  3  0  0  0  0  0  0
  -18.1030  -27.6020   23.1580 C   0  0  0  0  0  3  0  0  0  0  0  0
  -17.0540  -26.9230   22.5440 C   0  0  0  0  0  3  0  0  0  0  0  0
  -17.3690  -25.7940   21.7760 C   0  0  0  0  0  3  0  0  0  0  0  0
  -27.8350  -28.5490   23.5050 C   0  0  0  0  0  3  0  0  0  0  0  0
  -28.0750  -29.7010   24.3840 N   0  0  0  0  0  0  0  0  0  0  0  0
  -28.7310  -30.8060   24.0150 C   0  0  0  0  0  0  0  0  0  0  0  0
  -29.2750  -30.9220   22.9140 O   0  0  0  0  0  0  0  0  0  0  0  0
  -27.6060  -29.6940   25.2770 H   0  0  0  0  0  0  0  0  0  0  0  0
  -27.9710  -33.1460   24.5420 C   0  0  0  0  0  1  0  0  0  0  0  0
  -28.8130  -31.9580   25.0340 C   0  0  0  0  0  3  0  0  0  0  0  0
  -30.9820  -31.4250   26.0560 C   0  0  0  0  0  1  0  0  0  0  0  0
  -30.1990  -32.4010   25.3010 N   0  0  0  0  0  0  0  0  0  0  0  0
  -30.2040  -33.2780   25.8150 H   0  0  0  0  0  0  0  0  0  0  0  0
  -28.3700  -27.2260   24.1710 C   0  0  1  0  0  0  0  0  0  0  0  0
  -27.6190  -26.8030   25.4520 C   0  0  0  0  0  1  0  0  0  0  0  0
  -28.3190  -26.0360   23.1860 C   0  0  0  0  0  1  0  0  0  0  0  0
  -29.8550  -27.4130   24.5370 C   0  0  0  0  0  1  0  0  0  0  0  0
  1  2  1  0
  3  2  1  0
  4  3  1  0
  5  4  1  0
  6  5  1  0
  7  6  1  0
  8  7  1  0
  9  8  1  0
 10  9  1  0
 11 19  1  0
 11 18  2  0
 12 17  1  0
 13 12  1  0
 14 15  1  0
 14 13  1  0
 15 24  1  0
 15 16  1  0
 16 17  1  0
 17 11  1  0
 19 10  1  0
 20 19  1  0
 21 46  1  0
 22 21  2  0
 23 25  2  0
 23 22  1  0
 24 21  1  0
 25 24  1  0
 26 27  1  0
 26 23  1  0
 28 27  2  0
 29 28  1  0
 30 29  2  0
 30 31  1  0
 31 26  2  0
 32 33  1  0
 32 29  1  0
 33 34  1  0
 35 34  2  0
 36 35  1  0
 37 38  1  0
 37 36  2  0
 38 33  2  0
 39 38  1  0
 40 36  1  0
 41 22  1  0
 42 44  1  0
 42 41  1  0
 43 41  2  0
 45 42  1  0
 46 48  1  0
 47 46  1  0
 49  1  2  0
 50 49  1  0
 51 50  1  0
 52 51  1  0
 53 52  1  0
 53 54  2  0
 55 53  1  0
 56 67  2  0
 57 55  1  0
 57 62  1  0
 58 68  1  0
 58 66  1  0
 59 61  1  0
 59 65  1  0
 60 66  1  0
 61 62  1  0
 61 60  1  0
 63 57  1  0
 63 64  1  0
 64 59  2  0
 65 58  1  0
 66 56  1  0
 68 70  2  0
 69 68  1  0
 71 69  1  0
 72 81  2  0
 72 77  1  0
 73 69  1  0
 73 77  1  0
 74 73  1  0
 75 76  1  0
 75 74  1  0
 76 72  1  0
 77 78  2  0
 78 79  1  0
 80 79  2  0
 81 80  1  0
 82 56  1  0
 82 92  1  0
 82 83  1  0
 83 86  1  0
 84 83  1  0
 84 88  1  0
 85 84  2  0
 88 87  1  0
 88 90  1  0
 90 91  1  0
 90 89  1  0
 92 95  1  1
 92 93  1  0
 94 92  1  0
M  ISO  4  11 100  19 100  53 101  55 101
M  END
>  <TORSDO>  (39) 
F 30

>  <SCORE>  (39) 
-6.587

>  <name>  (39) 
38

>  <ligand_id>  (39) 
38

>  <original_smiles>  (39) 
[H]c1c([H])c([H])c2c(c1[H])C([H])([H])C([H])([H])C([H])([H])C2([H])N([H])C(=O)C1([H])N(C(=O)C([H])(N([H])C(=O)C([H])(N([H])C([H])([H])[H])C([H])([H])[H])C(C([H])([H])[H])(C([H])([H])[H])C([H])([H])[H])C([H])([H])c2c([H])c(OC(=O)C([H])([H])OC([H])([H])C([H])([H])C([H])([H])OC([H])([H])C([H])([H])OC([H])([H])C([H])([H])OC([H])([H])C([H])([H])N([H])C(=O)N3C([H])([H])C([H])([H])C([H])([H])C([H])(n4nc(-c5c([H])c([H])c(Oc6c([H])c([H])c(F)c([H])c6F)c([H])c5[H])c(C(=O)N([H])[H])c4N([H])[H])C3([H])[H])c([H])c([H])c2C1([H])[H]

>  <smiles>  (39) 
[H]c1c([H])c([H])c2c(c1[H])C([H])([H])C([H])([H])C([H])([H])C2([H])N([H])C(=O)C1([H])N(C(=O)C([H])(N([H])C(=O)C([H])(N([H])C([H])([H])[H])C([H])([H])[H])C(C([H])([H])[H])(C([H])([H])[H])C([H])([H])[H])C([H])([H])c2c([H])c(OC(=O)C([H])([H])OC([H])([H])C([H])([H])C([H])([H])OC([H])([H])C([H])([H])OC([H])([H])C([H])([H])OC([H])([H])C([H])([H])N([H])C(=O)N3C([H])([H])C([H])([H])C([H])([H])C([H])(n4nc(-c5c([H])c([H])c(Oc6c([H])c([H])c(F)c([H])c6F)c([H])c5[H])c(C(=O)N([H])[H])c4N([H])[H])C3([H])[H])c([H])c([H])c2C1([H])[H]

$$$$
39:0:0
     RDKit          3D

 90 97  0  0  1  0  0  0  0  0999 V2000
  -31.9930  -24.4370   18.2750 C   0  0  0  0  0  2  0  0  0  0  0  0
  -32.0840  -23.1710   18.9230 O   0  0  0  0  0  0  0  0  0  0  0  0
  -32.6110  -23.1800   20.2460 C   0  0  0  0  0  2  0  0  0  0  0  0
  -31.8410  -22.1300   21.0630 C   0  0  0  0  0  2  0  0  0  0  0  0
  -32.2450  -20.6820   20.7620 C   0  0  0  0  0  2  0  0  0  0  0  0
  -31.2530  -19.7960   21.2730 O   0  0  0  0  0  0  0  0  0  0  0  0
  -31.7790  -18.5450   21.6960 C   0  0  0  0  0  2  0  0  0  0  0  0
  -30.6730  -17.4820   21.6790 C   0  0  0  0  0  2  0  0  0  0  0  0
  -31.1510  -16.1400   22.2560 C   0  0  0  0  0  2  0  0  0  0  0  0
  -30.3760  -15.0480   21.7610 O   0  0  0  0  0  0  0  0  0  0  0  0
  -30.8200  -14.3500   20.6940 C   0  0  0  0  0  0  0  0  0  0  0  0
  -30.4090  -12.2740   19.3880 C   0  0  0  0  0  2  0  0  0  0  0  0
  -29.4770  -12.5220   18.1920 C   0  0  0  0  0  2  0  0  0  0  0  0
  -28.0040  -12.3720   18.6180 C   0  0  0  0  0  2  0  0  0  0  0  0
  -27.6640  -13.2050   19.8840 C   0  0  0  0  0  3  0  0  0  0  0  0
  -28.7000  -12.9710   21.0080 C   0  0  0  0  0  2  0  0  0  0  0  0
  -30.0390  -13.2150   20.4490 N   0  0  0  0  0  0  0  0  0  0  0  0
  -31.8270  -14.6650   20.0560 O   0  0  0  0  0  0  0  0  0  0  0  0
  -25.2590  -13.8190   20.5710 C   0  0  0  0  0  0  0  0  0  0  0  0
  -24.1830  -13.0440   20.9170 C   0  0  0  0  0  0  0  0  0  0  0  0
  -24.6390  -11.6910   20.8750 C   0  0  0  0  0  0  0  0  0  0  0  0
  -26.3020  -12.9340   20.3430 N   0  0  0  0  0  0  0  0  0  0  0  0
  -25.9320  -11.6500   20.5810 N   0  0  0  0  0  0  0  0  0  0  0  0
  -23.9060  -10.4300   21.0430 C   0  0  0  0  0  0  0  0  0  0  0  0
  -24.3620   -9.4210   21.9200 C   0  0  0  0  0  3  0  0  0  0  0  0
  -23.6290   -8.2240   22.0750 C   0  0  0  0  0  3  0  0  0  0  0  0
  -22.4260   -8.0290   21.3550 C   0  0  0  0  0  0  0  0  0  0  0  0
  -21.9920   -9.0260   20.4640 C   0  0  0  0  0  3  0  0  0  0  0  0
  -22.7250  -10.2140   20.3060 C   0  0  0  0  0  3  0  0  0  0  0  0
  -21.6620   -6.8890   21.4250 O   0  0  0  0  0  0  0  0  0  0  0  0
  -21.6860   -6.0750   22.5300 C   0  0  0  0  0  0  0  0  0  0  0  0
  -21.4010   -6.5650   23.8230 C   0  0  0  0  0  3  0  0  0  0  0  0
  -21.3650   -5.6800   24.9190 C   0  0  0  0  0  3  0  0  0  0  0  0
  -21.6050   -4.3060   24.7240 C   0  0  0  0  0  0  0  0  0  0  0  0
  -21.8810   -3.8150   23.4360 C   0  0  0  0  0  3  0  0  0  0  0  0
  -21.9180   -4.6970   22.3410 C   0  0  0  0  0  0  0  0  0  0  0  0
  -22.1660   -4.2160   21.0990 F   0  0  0  0  0  0  0  0  0  0  0  0
  -21.5620   -3.4530   25.7750 F   0  0  0  0  0  0  0  0  0  0  0  0
  -22.7860  -13.5250   21.1830 C   0  0  0  0  0  0  0  0  0  0  0  0
  -22.0500  -12.8240   22.0400 N   0  0  0  0  0  0  0  0  0  0  0  0
  -22.3550  -14.5560   20.6690 O   0  0  0  0  0  0  0  0  0  0  0  0
  -22.4080  -11.9880   22.4780 H   0  0  0  0  0  0  0  0  0  0  0  0
  -21.1130  -13.1280   22.2620 H   0  0  0  0  0  0  0  0  0  0  0  0
  -25.4330  -15.1900   20.4110 N   0  0  0  0  0  0  0  0  0  0  0  0
  -24.6780  -15.8580   20.5280 H   0  0  0  0  0  0  0  0  0  0  0  0
  -26.3040  -15.6240   20.1260 H   0  0  0  0  0  0  0  0  0  0  0  0
  -30.9940  -25.3980   18.9650 C   0  0  0  0  0  2  0  0  0  0  0  0
  -29.7270  -24.6950   19.4910 C   0  0  0  0  0  2  0  0  0  0  0  0
  -28.4220  -25.4860   19.3530 C   0  0  0  0  0  2  0  0  0  0  0  0
  -28.4230  -26.7360   20.0520 O   0  0  0  0  0  0  0  0  0  0  0  0
  -24.6120  -31.8700   23.2150 C   0  0  0  0  0  0  0  0  0  0  0  0
  -27.2370  -27.4500   20.0690 C   0  0  0  0  0  0  0  0  0  0  0  0
  -23.3990  -30.4980   21.5530 C   0  0  0  0  0  3  0  0  0  0  0  0
  -24.8480  -28.9730   20.1170 C   0  0  0  0  0  0  0  0  0  0  0  0
  -25.9310  -30.8370   21.3760 C   0  0  0  0  0  2  0  0  0  0  0  0
  -26.0080  -29.4740   20.7180 C   0  0  0  0  0  0  0  0  0  0  0  0
  -27.2020  -28.7160   20.7030 C   0  0  0  0  0  3  0  0  0  0  0  0
  -26.0470  -26.9660   19.4700 C   0  0  0  0  0  3  0  0  0  0  0  0
  -24.8590  -27.7140   19.5000 C   0  0  0  0  0  3  0  0  0  0  0  0
  -23.6110  -29.8380   20.1650 C   0  0  0  0  0  2  0  0  0  0  0  0
  -24.6640  -31.0810   22.1060 N   0  0  0  0  0  0  0  0  0  0  0  0
  -23.5330  -32.1460   23.7550 O   0  0  0  0  0  0  0  0  0  0  0  0
  -22.7390  -29.4670   22.4960 C   0  0  0  0  0  0  0  0  0  0  0  0
  -21.4110  -29.3040   22.3710 N   0  0  0  0  0  0  0  0  0  0  0  0
  -23.4170  -28.8200   23.2990 O   0  0  0  0  0  0  0  0  0  0  0  0
  -20.9240  -29.8750   21.6930 H   0  0  0  0  0  0  0  0  0  0  0  0
  -18.0280  -28.1380   22.8510 C   0  0  0  0  0  0  0  0  0  0  0  0
  -20.5870  -28.3670   23.1320 C   0  0  0  0  0  3  0  0  0  0  0  0
  -20.6780  -26.9410   22.5410 C   0  0  0  0  0  2  0  0  0  0  0  0
  -19.5750  -26.6400   21.5220 C   0  0  0  0  0  2  0  0  0  0  0  0
  -18.1930  -26.7940   22.1640 C   0  0  0  0  0  2  0  0  0  0  0  0
  -19.1530  -28.8840   23.2920 C   0  0  0  0  0  0  0  0  0  0  0  0
  -18.9450  -30.1450   23.8920 C   0  0  0  0  0  3  0  0  0  0  0  0
  -17.6460  -30.6590   24.0570 C   0  0  0  0  0  3  0  0  0  0  0  0
  -16.5350  -29.9090   23.6330 C   0  0  0  0  0  3  0  0  0  0  0  0
  -16.7270  -28.6510   23.0350 C   0  0  0  0  0  3  0  0  0  0  0  0
  -25.9050  -32.4820   23.8410 C   0  0  0  0  0  3  0  0  0  0  0  0
  -26.4500  -31.6590   25.0720 C   0  0  1  0  0  0  0  0  0  0  0  0
  -25.3760  -31.3730   26.1460 C   0  0  0  0  0  1  0  0  0  0  0  0
  -27.0330  -30.3010   24.6130 C   0  0  0  0  0  1  0  0  0  0  0  0
  -27.6070  -32.4300   25.7480 C   0  0  0  0  0  1  0  0  0  0  0  0
  -25.5910  -33.8620   24.2340 N   0  0  0  0  0  0  0  0  0  0  0  0
  -25.9040  -34.9470   23.5120 C   0  0  0  0  0  0  0  0  0  0  0  0
  -26.5570  -34.8910   22.4660 O   0  0  0  0  0  0  0  0  0  0  0  0
  -25.0120  -33.9810   25.0530 H   0  0  0  0  0  0  0  0  0  0  0  0
  -24.1500  -36.7300   23.2630 C   0  0  0  0  0  1  0  0  0  0  0  0
  -25.4120  -36.3090   24.0320 C   0  0  0  0  0  3  0  0  0  0  0  0
  -27.5580  -37.1800   24.8460 C   0  0  0  0  0  1  0  0  0  0  0  0
  -26.4310  -37.3770   23.9390 N   0  0  0  0  0  0  0  0  0  0  0  0
  -26.0180  -38.2830   24.1400 H   0  0  0  0  0  0  0  0  0  0  0  0
  1  2  1  0
  1 47  1  0
  2  3  1  0
  3  4  1  0
  5  4  1  0
  5  6  1  0
  6  7  1  0
  8  7  1  0
  8  9  1  0
 10  9  1  0
 11 10  1  0
 12 17  1  0
 13 14  1  0
 13 12  1  0
 15 14  1  0
 15 22  1  0
 15 16  1  0
 17 11  1  0
 17 16  1  0
 18 11  2  0
 19 20  2  0
 20 39  1  0
 21 20  1  0
 21 24  1  0
 22 19  1  0
 22 23  1  0
 23 21  2  0
 24 25  1  0
 25 26  2  0
 27 30  1  0
 27 26  1  0
 28 27  2  0
 29 28  1  0
 29 24  2  0
 30 31  1  0
 31 32  1  0
 32 33  2  0
 34 33  1  0
 34 38  1  0
 35 34  2  0
 36 31  2  0
 36 35  1  0
 37 36  1  0
 39 40  1  0
 40 43  1  0
 40 42  1  0
 41 39  2  0
 44 45  1  0
 44 19  1  0
 46 44  1  0
 47 48  1  0
 49 48  1  0
 49 50  1  0
 50 52  1  0
 51 62  2  0
 52 57  1  0
 53 61  1  0
 53 63  1  0
 54 60  1  0
 54 56  1  0
 55 61  1  0
 56 55  1  0
 57 56  2  0
 58 59  1  0
 58 52  2  0
 59 54  2  0
 60 53  1  0
 61 51  1  0
 63 65  2  0
 64 63  1  0
 66 64  1  0
 67 76  2  0
 67 72  1  0
 68 64  1  0
 68 72  1  0
 69 68  1  0
 70 71  1  0
 70 69  1  0
 71 67  1  0
 72 73  2  0
 73 74  1  0
 75 74  2  0
 76 75  1  0
 77 51  1  0
 77 82  1  0
 77 78  1  0
 78 81  1  1
 78 79  1  0
 80 78  1  0
 82 85  1  0
 83 87  1  0
 83 82  1  0
 84 83  2  0
 87 86  1  0
 89 87  1  0
 89 90  1  0
 89 88  1  0
M  ISO  4  10 100  11 100  49 101  50 101
M  END
>  <TORSDO>  (40) 
F 28

>  <SCORE>  (40) 
-10.817

>  <name>  (40) 
39

>  <ligand_id>  (40) 
39

>  <original_smiles>  (40) 
[H]c1c([H])c([H])c2c(c1[H])C([H])([H])C([H])([H])C([H])([H])C2([H])N([H])C(=O)C1([H])N(C(=O)C([H])(N([H])C(=O)C([H])(N([H])C([H])([H])[H])C([H])([H])[H])C(C([H])([H])[H])(C([H])([H])[H])C([H])([H])[H])C([H])([H])c2c([H])c(OC([H])([H])C([H])([H])C([H])([H])C([H])([H])OC([H])([H])C([H])([H])C([H])([H])OC([H])([H])C([H])([H])C([H])([H])OC(=O)N3C([H])([H])C([H])([H])C([H])([H])C([H])(n4nc(-c5c([H])c([H])c(Oc6c([H])c([H])c(F)c([H])c6F)c([H])c5[H])c(C(=O)N([H])[H])c4N([H])[H])C3([H])[H])c([H])c([H])c2C1([H])[H]

>  <smiles>  (40) 
[H]c1c([H])c([H])c2c(c1[H])C([H])([H])C([H])([H])C([H])([H])C2([H])N([H])C(=O)C1([H])N(C(=O)C([H])(N([H])C(=O)C([H])(N([H])C([H])([H])[H])C([H])([H])[H])C(C([H])([H])[H])(C([H])([H])[H])C([H])([H])[H])C([H])([H])c2c([H])c(OC([H])([H])C([H])([H])C([H])([H])C([H])([H])OC([H])([H])C([H])([H])C([H])([H])OC([H])([H])C([H])([H])C([H])([H])OC(=O)N3C([H])([H])C([H])([H])C([H])([H])C([H])(n4nc(-c5c([H])c([H])c(Oc6c([H])c([H])c(F)c([H])c6F)c([H])c5[H])c(C(=O)N([H])[H])c4N([H])[H])C3([H])[H])c([H])c([H])c2C1([H])[H]

$$$$
40:0:0
     RDKit          3D

 84 91  0  0  1  0  0  0  0  0999 V2000
  -28.0360  -24.2690   20.5090 C   0  0  0  0  0  2  0  0  0  0  0  0
  -28.2220  -25.8810   20.2090 O   0  0  0  0  0  0  0  0  0  0  0  0
  -24.6160  -31.8370   23.1800 C   0  0  0  0  0  0  0  0  0  0  0  0
  -27.1870  -26.9520   20.2070 C   0  0  0  0  0  0  0  0  0  0  0  0
  -23.4240  -30.4230   21.5540 C   0  0  0  0  0  3  0  0  0  0  0  0
  -24.8760  -28.8110   20.1480 C   0  0  0  0  0  0  0  0  0  0  0  0
  -25.9900  -30.6480   21.3990 C   0  0  0  0  0  2  0  0  0  0  0  0
  -26.0650  -29.2330   20.7580 C   0  0  0  0  0  0  0  0  0  0  0  0
  -27.2180  -28.3250   20.7560 C   0  0  0  0  0  3  0  0  0  0  0  0
  -25.9650  -26.6750   19.5560 C   0  0  0  0  0  3  0  0  0  0  0  0
  -24.8500  -27.5530   19.5260 C   0  0  0  0  0  3  0  0  0  0  0  0
  -23.6540  -29.7270   20.1840 C   0  0  0  0  0  2  0  0  0  0  0  0
  -24.6980  -30.9970   22.0980 N   0  0  0  0  0  0  0  0  0  0  0  0
  -23.5260  -32.1260   23.7010 O   0  0  0  0  0  0  0  0  0  0  0  0
  -22.7360  -29.4330   22.5290 C   0  0  0  0  0  0  0  0  0  0  0  0
  -21.4040  -29.2710   22.4160 N   0  0  0  0  0  0  0  0  0  0  0  0
  -23.4070  -28.8080   23.3540 O   0  0  0  0  0  0  0  0  0  0  0  0
  -20.9170  -29.8260   21.7270 H   0  0  0  0  0  0  0  0  0  0  0  0
  -18.0230  -28.0690   22.9520 C   0  0  0  0  0  0  0  0  0  0  0  0
  -20.5850  -28.3390   23.1970 C   0  0  0  0  0  3  0  0  0  0  0  0
  -20.6840  -26.9040   22.6300 C   0  0  0  0  0  2  0  0  0  0  0  0
  -19.5750  -26.5740   21.6240 C   0  0  0  0  0  2  0  0  0  0  0  0
  -18.1970  -26.7180   22.2770 C   0  0  0  0  0  2  0  0  0  0  0  0
  -19.1440  -28.8370   23.3690 C   0  0  0  0  0  0  0  0  0  0  0  0
  -18.9240  -30.0980   23.9630 C   0  0  0  0  0  3  0  0  0  0  0  0
  -17.6200  -30.5940   24.1420 C   0  0  0  0  0  3  0  0  0  0  0  0
  -16.5140  -29.8250   23.7380 C   0  0  0  0  0  3  0  0  0  0  0  0
  -16.7170  -28.5640   23.1490 C   0  0  0  0  0  3  0  0  0  0  0  0
  -25.8860  -32.4890   23.8060 C   0  0  0  0  0  3  0  0  0  0  0  0
  -26.4090  -31.7230   25.0840 C   0  0  1  0  0  0  0  0  0  0  0  0
  -25.3200  -31.4800   26.1550 C   0  0  0  0  0  1  0  0  0  0  0  0
  -27.0000  -30.3470   24.6990 C   0  0  0  0  0  1  0  0  0  0  0  0
  -27.5570  -32.5240   25.7410 C   0  0  0  0  0  1  0  0  0  0  0  0
  -25.5550  -33.8830   24.1530 N   0  0  0  0  0  0  0  0  0  0  0  0
  -25.8660  -34.9530   23.4100 C   0  0  0  0  0  0  0  0  0  0  0  0
  -26.5250  -34.8730   22.3700 O   0  0  0  0  0  0  0  0  0  0  0  0
  -24.9660  -34.0180   24.9610 H   0  0  0  0  0  0  0  0  0  0  0  0
  -24.1090  -36.7340   23.1180 C   0  0  0  0  0  1  0  0  0  0  0  0
  -25.3720  -36.3320   23.8960 C   0  0  0  0  0  3  0  0  0  0  0  0
  -27.5150  -37.2360   24.6870 C   0  0  0  0  0  1  0  0  0  0  0  0
  -26.3890  -37.4000   23.7720 N   0  0  0  0  0  0  0  0  0  0  0  0
  -25.9750  -38.3130   23.9390 H   0  0  0  0  0  0  0  0  0  0  0  0
  -28.7190  -22.6990   19.9240 C   0  0  0  0  0  2  0  0  0  0  0  0
  -28.9900  -21.2170   20.5850 O   0  0  0  0  0  0  0  0  0  0  0  0
  -29.0780  -19.6810   19.9990 C   0  0  0  0  0  2  0  0  0  0  0  0
  -29.8810  -18.1670   20.5600 C   0  0  0  0  0  2  0  0  0  0  0  0
  -30.3820  -15.2640   20.2540 C   0  0  0  0  0  0  0  0  0  0  0  0
  -30.3490  -12.8260   19.3660 C   0  0  0  0  0  2  0  0  0  0  0  0
  -29.4210  -12.6110   18.1440 C   0  0  0  0  0  2  0  0  0  0  0  0
  -27.9740  -12.3490   18.5940 C   0  0  0  0  0  2  0  0  0  0  0  0
  -27.5290  -13.3180   19.7180 C   0  0  0  0  0  3  0  0  0  0  0  0
  -28.5830  -13.4670   20.8330 C   0  0  0  0  0  2  0  0  0  0  0  0
  -29.8060  -13.9670   20.1860 N   0  0  0  0  0  0  0  0  0  0  0  0
  -31.6080  -15.2630   20.0800 O   0  0  0  0  0  0  0  0  0  0  0  0
  -29.6180  -16.5330   20.3180 N   0  0  0  0  0  0  0  0  0  0  0  0
  -28.6290  -16.3280   20.3210 H   0  0  0  0  0  0  0  0  0  0  0  0
  -25.1610  -13.8840   20.4750 C   0  0  0  0  0  0  0  0  0  0  0  0
  -24.0990  -13.1090   20.8510 C   0  0  0  0  0  0  0  0  0  0  0  0
  -24.5680  -11.7590   20.8280 C   0  0  0  0  0  0  0  0  0  0  0  0
  -26.2030  -13.0060   20.2350 N   0  0  0  0  0  0  0  0  0  0  0  0
  -25.8590  -11.7220   20.5170 N   0  0  0  0  0  0  0  0  0  0  0  0
  -23.8400  -10.4970   21.0260 C   0  0  0  0  0  0  0  0  0  0  0  0
  -24.2820   -9.5240   21.9500 C   0  0  0  0  0  3  0  0  0  0  0  0
  -23.5520   -8.3310   22.1370 C   0  0  0  0  0  3  0  0  0  0  0  0
  -22.3660   -8.1010   21.4000 C   0  0  0  0  0  0  0  0  0  0  0  0
  -21.9430   -9.0620   20.4650 C   0  0  0  0  0  3  0  0  0  0  0  0
  -22.6730  -10.2470   20.2760 C   0  0  0  0  0  3  0  0  0  0  0  0
  -21.6060   -6.9600   21.4960 O   0  0  0  0  0  0  0  0  0  0  0  0
  -21.5890   -6.2020   22.6400 C   0  0  0  0  0  0  0  0  0  0  0  0
  -21.2240   -6.7480   23.8900 C   0  0  0  0  0  3  0  0  0  0  0  0
  -21.1520   -5.9180   25.0260 C   0  0  0  0  0  3  0  0  0  0  0  0
  -21.4340   -4.5440   24.9150 C   0  0  0  0  0  0  0  0  0  0  0  0
  -21.7920   -3.9970   23.6700 C   0  0  0  0  0  3  0  0  0  0  0  0
  -21.8660   -4.8250   22.5350 C   0  0  0  0  0  0  0  0  0  0  0  0
  -22.1910   -4.2890   21.3340 F   0  0  0  0  0  0  0  0  0  0  0  0
  -21.3580   -3.7440   26.0040 F   0  0  0  0  0  0  0  0  0  0  0  0
  -22.7020  -13.5880   21.1150 C   0  0  0  0  0  0  0  0  0  0  0  0
  -21.9740  -12.9020   21.9880 N   0  0  0  0  0  0  0  0  0  0  0  0
  -22.2660  -14.6070   20.5800 O   0  0  0  0  0  0  0  0  0  0  0  0
  -22.3410  -12.0790   22.4420 H   0  0  0  0  0  0  0  0  0  0  0  0
  -21.0360  -13.2060   22.2080 H   0  0  0  0  0  0  0  0  0  0  0  0
  -25.3200  -15.2530   20.2870 N   0  0  0  0  0  0  0  0  0  0  0  0
  -24.5470  -15.9020   20.3920 H   0  0  0  0  0  0  0  0  0  0  0  0
  -26.1550  -15.6900   19.9190 H   0  0  0  0  0  0  0  0  0  0  0  0
  2  1  1  0
  3 14  2  0
  4  2  1  0
  4  9  1  0
  5 13  1  0
  5 15  1  0
  6 12  1  0
  6  8  1  0
  7 13  1  0
  8  7  1  0
  9  8  2  0
 10  4  2  0
 11 10  1  0
 11  6  2  0
 12  5  1  0
 13  3  1  0
 15 17  2  0
 16 15  1  0
 18 16  1  0
 19 28  2  0
 19 24  1  0
 20 16  1  0
 20 24  1  0
 21 20  1  0
 22 23  1  0
 22 21  1  0
 23 19  1  0
 24 25  2  0
 25 26  1  0
 27 26  2  0
 28 27  1  0
 29  3  1  0
 29 34  1  0
 29 30  1  0
 30 33  1  1
 30 31  1  0
 32 30  1  0
 34 37  1  0
 35 39  1  0
 35 34  1  0
 36 35  2  0
 39 38  1  0
 41 39  1  0
 41 42  1  0
 41 40  1  0
 43  1  1  0
 43 44  1  0
 45 46  1  0
 45 44  1  0
 47 55  1  0
 48 53  1  0
 49 50  1  0
 49 48  1  0
 51 50  1  0
 51 60  1  0
 51 52  1  0
 53 47  1  0
 53 52  1  0
 54 47  2  0
 55 56  1  0
 55 46  1  0
 57 58  2  0
 58 77  1  0
 59 58  1  0
 59 62  1  0
 60 57  1  0
 60 61  1  0
 61 59  2  0
 62 63  1  0
 63 64  2  0
 65 68  1  0
 65 64  1  0
 66 65  2  0
 67 66  1  0
 67 62  2  0
 68 69  1  0
 69 70  1  0
 70 71  2  0
 72 71  1  0
 72 76  1  0
 73 72  2  0
 74 69  2  0
 74 73  1  0
 75 74  1  0
 77 78  1  0
 78 81  1  0
 78 80  1  0
 79 77  2  0
 82 83  1  0
 82 57  1  0
 84 82  1  0
M  ISO  4   1 101   2 101  47 100  55 100
M  END
>  <TORSDO>  (41) 
F 20

>  <SCORE>  (41) 
-15.761

>  <name>  (41) 
40

>  <ligand_id>  (41) 
40

>  <original_smiles>  (41) 
[H]c1c([H])c([H])c2c(c1[H])C([H])([H])C([H])([H])C([H])([H])C2([H])N([H])C(=O)C1([H])N(C(=O)C([H])(N([H])C(=O)C([H])(N([H])C([H])([H])[H])C([H])([H])[H])C(C([H])([H])[H])(C([H])([H])[H])C([H])([H])[H])C([H])([H])c2c([H])c(OC([H])([H])C([H])([H])OC([H])([H])C([H])([H])N([H])C(=O)N3C([H])([H])C([H])([H])C([H])([H])C([H])(n4nc(-c5c([H])c([H])c(Oc6c([H])c([H])c(F)c([H])c6F)c([H])c5[H])c(C(=O)N([H])[H])c4N([H])[H])C3([H])[H])c([H])c([H])c2C1([H])[H]

>  <smiles>  (41) 
[H]c1c([H])c([H])c2c(c1[H])C([H])([H])C([H])([H])C([H])([H])C2([H])N([H])C(=O)C1([H])N(C(=O)C([H])(N([H])C(=O)C([H])(N([H])C([H])([H])[H])C([H])([H])[H])C(C([H])([H])[H])(C([H])([H])[H])C([H])([H])[H])C([H])([H])c2c([H])c(OC([H])([H])C([H])([H])OC([H])([H])C([H])([H])N([H])C(=O)N3C([H])([H])C([H])([H])C([H])([H])C([H])(n4nc(-c5c([H])c([H])c(Oc6c([H])c([H])c(F)c([H])c6F)c([H])c5[H])c(C(=O)N([H])[H])c4N([H])[H])C3([H])[H])c([H])c([H])c2C1([H])[H]

$$$$
41:0:0
     RDKit          3D

100107  0  0  1  0  0  0  0  0999 V2000
  -32.0880  -25.9960   21.2610 C   0  0  0  0  0  0  0  0  0  0  0  0
  -31.6960  -24.8670   20.6610 N   0  0  0  0  0  0  0  0  0  0  0  0
  -33.2310  -26.4450   21.1520 O   0  0  0  0  0  0  0  0  0  0  0  0
  -30.7430  -24.5760   20.8440 H   0  0  0  0  0  0  0  0  0  0  0  0
  -32.4680  -24.0490   19.7340 C   0  0  0  0  0  2  0  0  0  0  0  0
  -31.5070  -23.2170   18.8780 C   0  0  0  0  0  2  0  0  0  0  0  0
  -30.5540  -22.6070   19.7450 O   0  0  0  0  0  0  0  0  0  0  0  0
  -29.5330  -21.8750   19.0770 C   0  0  0  0  0  2  0  0  0  0  0  0
  -29.9620  -20.4470   18.7030 C   0  0  0  0  0  2  0  0  0  0  0  0
  -30.1620  -19.6800   19.8880 O   0  0  0  0  0  0  0  0  0  0  0  0
  -30.2370  -18.2840   19.6350 C   0  0  0  0  0  2  0  0  0  0  0  0
  -30.5170  -17.5350   20.9540 C   0  0  0  0  0  2  0  0  0  0  0  0
  -30.8080  -15.1790   20.1630 C   0  0  0  0  0  0  0  0  0  0  0  0
  -30.6530  -12.8980   19.2380 C   0  0  0  0  0  2  0  0  0  0  0  0
  -29.6870  -12.8700   18.0390 C   0  0  0  0  0  2  0  0  0  0  0  0
  -28.2350  -12.6630   18.5100 C   0  0  0  0  0  2  0  0  0  0  0  0
  -27.8360  -13.6290   19.6560 C   0  0  0  0  0  3  0  0  0  0  0  0
  -28.9100  -13.6310   20.7680 C   0  0  0  0  0  2  0  0  0  0  0  0
  -30.2110  -13.9590   20.1550 N   0  0  0  0  0  0  0  0  0  0  0  0
  -31.8310  -15.4440   19.5270 O   0  0  0  0  0  0  0  0  0  0  0  0
  -30.1760  -16.1130   20.8790 N   0  0  0  0  0  0  0  0  0  0  0  0
  -29.3520  -15.8140   21.3780 H   0  0  0  0  0  0  0  0  0  0  0  0
  -25.4570  -14.1570   20.4910 C   0  0  0  0  0  0  0  0  0  0  0  0
  -24.4220  -13.3470   20.8790 C   0  0  0  0  0  0  0  0  0  0  0  0
  -24.9090  -12.0090   20.7760 C   0  0  0  0  0  0  0  0  0  0  0  0
  -26.5100  -13.3090   20.1820 N   0  0  0  0  0  0  0  0  0  0  0  0
  -26.1850  -12.0100   20.4070 N   0  0  0  0  0  0  0  0  0  0  0  0
  -24.2210  -10.7230   20.9530 C   0  0  0  0  0  0  0  0  0  0  0  0
  -24.6310   -9.7930   21.9340 C   0  0  0  0  0  3  0  0  0  0  0  0
  -23.9410   -8.5730   22.0960 C   0  0  0  0  0  3  0  0  0  0  0  0
  -22.8270   -8.2730   21.2770 C   0  0  0  0  0  0  0  0  0  0  0  0
  -22.4360   -9.1920   20.2880 C   0  0  0  0  0  3  0  0  0  0  0  0
  -23.1270  -10.4040   20.1230 C   0  0  0  0  0  3  0  0  0  0  0  0
  -22.1120   -7.1020   21.3460 O   0  0  0  0  0  0  0  0  0  0  0  0
  -21.9200   -6.4450   22.5340 C   0  0  0  0  0  0  0  0  0  0  0  0
  -21.2520   -7.0510   23.6200 C   0  0  0  0  0  3  0  0  0  0  0  0
  -21.0140   -6.3170   24.7990 C   0  0  0  0  0  3  0  0  0  0  0  0
  -21.4320   -4.9760   24.8910 C   0  0  0  0  0  0  0  0  0  0  0  0
  -22.0920   -4.3690   23.8080 C   0  0  0  0  0  3  0  0  0  0  0  0
  -22.3320   -5.1000   22.6320 C   0  0  0  0  0  0  0  0  0  0  0  0
  -22.9490   -4.5040   21.5840 F   0  0  0  0  0  0  0  0  0  0  0  0
  -21.1970   -4.2680   26.0200 F   0  0  0  0  0  0  0  0  0  0  0  0
  -23.0310  -13.7820   21.2370 C   0  0  0  0  0  0  0  0  0  0  0  0
  -22.3570  -13.0290   22.1020 N   0  0  0  0  0  0  0  0  0  0  0  0
  -22.5480  -14.8200   20.7880 O   0  0  0  0  0  0  0  0  0  0  0  0
  -22.7590  -12.1870   22.4860 H   0  0  0  0  0  0  0  0  0  0  0  0
  -21.4250  -13.3000   22.3840 H   0  0  0  0  0  0  0  0  0  0  0  0
  -25.5830  -15.5370   20.3600 N   0  0  0  0  0  0  0  0  0  0  0  0
  -24.8080  -16.1710   20.5240 H   0  0  0  0  0  0  0  0  0  0  0  0
  -26.4160  -16.0060   20.0270 H   0  0  0  0  0  0  0  0  0  0  0  0
  -31.0260  -26.7420   22.0800 C   0  0  0  0  0  2  0  0  0  0  0  0
  -29.8100  -25.9920   22.1070 O   0  0  0  0  0  0  0  0  0  0  0  0
  -28.6830  -26.7980   22.4380 C   0  0  0  0  0  2  0  0  0  0  0  0
  -27.3750  -25.9860   22.3640 C   0  0  0  0  0  0  0  0  0  0  0  0
  -27.1160  -25.1500   21.3440 N   0  0  0  0  0  0  0  0  0  0  0  0
  -26.5330  -26.1350   23.2490 O   0  0  0  0  0  0  0  0  0  0  0  0
  -26.2080  -24.7080   21.3710 H   0  0  0  0  0  0  0  0  0  0  0  0
  -27.9920  -24.7160   20.2540 C   0  0  0  0  0  2  0  0  0  0  0  0
  -27.9610  -25.6080   18.9970 C   0  0  0  0  0  2  0  0  0  0  0  0
  -27.9330  -27.0050   19.2990 O   0  0  0  0  0  0  0  0  0  0  0  0
  -24.4980  -31.8500   23.1860 C   0  0  0  0  0  0  0  0  0  0  0  0
  -26.7340  -27.6630   19.4870 C   0  0  0  0  0  0  0  0  0  0  0  0
  -23.0990  -30.5870   21.5850 C   0  0  0  0  0  3  0  0  0  0  0  0
  -24.3660  -29.1600   19.8980 C   0  0  0  0  0  0  0  0  0  0  0  0
  -25.5920  -30.9520   21.1340 C   0  0  0  0  0  2  0  0  0  0  0  0
  -25.5870  -29.6340   20.3900 C   0  0  0  0  0  0  0  0  0  0  0  0
  -26.7700  -28.8930   20.1830 C   0  0  0  0  0  3  0  0  0  0  0  0
  -25.4840  -27.1900   19.0170 C   0  0  0  0  0  3  0  0  0  0  0  0
  -24.3090  -27.9360   19.2120 C   0  0  0  0  0  3  0  0  0  0  0  0
  -23.1470  -30.0160   20.1430 C   0  0  0  0  0  2  0  0  0  0  0  0
  -24.4220  -31.1400   22.0250 N   0  0  0  0  0  0  0  0  0  0  0  0
  -23.4870  -32.0840   23.8630 O   0  0  0  0  0  0  0  0  0  0  0  0
  -22.5450  -29.4960   22.5290 C   0  0  0  0  0  0  0  0  0  0  0  0
  -21.2400  -29.2060   22.4040 N   0  0  0  0  0  0  0  0  0  0  0  0
  -23.2850  -28.9150   23.3260 O   0  0  0  0  0  0  0  0  0  0  0  0
  -20.7010  -29.7360   21.7350 H   0  0  0  0  0  0  0  0  0  0  0  0
  -18.0220  -27.6040   22.7590 C   0  0  0  0  0  0  0  0  0  0  0  0
  -20.5060  -28.1900   23.1590 C   0  0  0  0  0  3  0  0  0  0  0  0
  -20.8210  -26.7710   22.6310 C   0  0  0  0  0  2  0  0  0  0  0  0
  -19.8270  -26.2870   21.5710 C   0  0  0  0  0  2  0  0  0  0  0  0
  -18.4050  -26.2710   22.1360 C   0  0  0  0  0  2  0  0  0  0  0  0
  -19.0100  -28.5120   23.2240 C   0  0  0  0  0  0  0  0  0  0  0  0
  -18.6030  -29.7510   23.7620 C   0  0  0  0  0  3  0  0  0  0  0  0
  -17.2390  -30.0880   23.8410 C   0  0  0  0  0  3  0  0  0  0  0  0
  -16.2640  -29.1780   23.3940 C   0  0  0  0  0  3  0  0  0  0  0  0
  -16.6570  -27.9390   22.8580 C   0  0  0  0  0  3  0  0  0  0  0  0
  -25.8540  -32.4220   23.7070 C   0  0  0  0  0  3  0  0  0  0  0  0
  -25.6240  -33.8200   24.0920 N   0  0  0  0  0  0  0  0  0  0  0  0
  -25.9580  -34.8780   23.3420 C   0  0  0  0  0  0  0  0  0  0  0  0
  -26.5660  -34.7770   22.2730 O   0  0  0  0  0  0  0  0  0  0  0  0
  -25.0730  -33.9740   24.9230 H   0  0  0  0  0  0  0  0  0  0  0  0
  -24.2990  -36.7570   23.1190 C   0  0  0  0  0  1  0  0  0  0  0  0
  -25.5540  -36.2720   23.8610 C   0  0  0  0  0  3  0  0  0  0  0  0
  -27.7580  -37.0410   24.6260 C   0  0  0  0  0  1  0  0  0  0  0  0
  -26.6270  -37.2810   23.7330 N   0  0  0  0  0  0  0  0  0  0  0  0
  -26.2680  -38.2150   23.9150 H   0  0  0  0  0  0  0  0  0  0  0  0
  -26.4520  -31.5980   24.9140 C   0  0  1  0  0  0  0  0  0  0  0  0
  -25.4510  -31.3730   26.0700 C   0  0  0  0  0  1  0  0  0  0  0  0
  -26.9420  -30.2100   24.4360 C   0  0  0  0  0  1  0  0  0  0  0  0
  -27.6880  -32.3310   25.4860 C   0  0  0  0  0  1  0  0  0  0  0  0
  1 51  1  0
  2  4  1  0
  2  1  1  0
  3  1  2  0
  5  2  1  0
  6  5  1  0
  6  7  1  0
  8  7  1  0
  9  8  1  0
  9 10  1  0
 11 10  1  0
 11 12  1  0
 13 21  1  0
 14 19  1  0
 15 16  1  0
 15 14  1  0
 17 16  1  0
 17 26  1  0
 17 18  1  0
 19 13  1  0
 19 18  1  0
 20 13  2  0
 21 12  1  0
 21 22  1  0
 23 24  2  0
 24 43  1  0
 25 24  1  0
 25 28  1  0
 26 27  1  0
 26 23  1  0
 27 25  2  0
 28 29  1  0
 29 30  2  0
 31 34  1  0
 31 30  1  0
 32 31  2  0
 33 32  1  0
 33 28  2  0
 34 35  1  0
 35 40  2  0
 35 36  1  0
 36 37  2  0
 37 38  1  0
 38 42  1  0
 39 38  2  0
 40 39  1  0
 41 40  1  0
 43 44  1  0
 44 47  1  0
 44 46  1  0
 45 43  2  0
 48 23  1  0
 48 49  1  0
 50 48  1  0
 51 52  1  0
 52 53  1  0
 54 53  1  0
 54 56  2  0
 55 57  1  0
 55 54  1  0
 58 55  1  0
 59 60  1  0
 59 58  1  0
 60 62  1  0
 61 72  2  0
 62 67  1  0
 63 71  1  0
 63 73  1  0
 64 70  1  0
 64 66  1  0
 65 71  1  0
 66 65  1  0
 67 66  2  0
 68 69  1  0
 68 62  2  0
 69 64  2  0
 70 63  1  0
 71 61  1  0
 73 75  2  0
 74 73  1  0
 76 74  1  0
 77 86  2  0
 77 82  1  0
 78 74  1  0
 78 82  1  0
 79 78  1  0
 80 81  1  0
 80 79  1  0
 81 77  1  0
 82 83  2  0
 83 84  1  0
 85 84  2  0
 86 85  1  0
 87 61  1  0
 87 88  1  0
 87 97  1  0
 88 91  1  0
 89 93  1  0
 89 88  1  0
 90 89  2  0
 93 92  1  0
 95 93  1  0
 95 96  1  0
 95 94  1  0
 97100  1  1
 97 98  1  0
 99 97  1  0
M  ISO  4  13 100  21 100  59 101  60 101
M  END
>  <TORSDO>  (42) 
F 30

>  <SCORE>  (42) 
-10.467

>  <name>  (42) 
41

>  <ligand_id>  (42) 
41

>  <original_smiles>  (42) 
[H]c1c([H])c([H])c2c(c1[H])C([H])([H])C([H])([H])C([H])([H])C2([H])N([H])C(=O)C1([H])N(C(=O)C([H])(N([H])C(=O)C([H])(N([H])C([H])([H])[H])C([H])([H])[H])C(C([H])([H])[H])(C([H])([H])[H])C([H])([H])[H])C([H])([H])c2c([H])c(OC([H])([H])C([H])([H])N([H])C(=O)C([H])([H])OC([H])([H])C(=O)N([H])C([H])([H])C([H])([H])OC([H])([H])C([H])([H])OC([H])([H])C([H])([H])N([H])C(=O)N3C([H])([H])C([H])([H])C([H])([H])C([H])(n4nc(-c5c([H])c([H])c(Oc6c([H])c([H])c(F)c([H])c6F)c([H])c5[H])c(C(=O)N([H])[H])c4N([H])[H])C3([H])[H])c([H])c([H])c2C1([H])[H]

>  <smiles>  (42) 
[H]c1c([H])c([H])c2c(c1[H])C([H])([H])C([H])([H])C([H])([H])C2([H])N([H])C(=O)C1([H])N(C(=O)C([H])(N([H])C(=O)C([H])(N([H])C([H])([H])[H])C([H])([H])[H])C(C([H])([H])[H])(C([H])([H])[H])C([H])([H])[H])C([H])([H])c2c([H])c(OC([H])([H])C([H])([H])N([H])C(=O)C([H])([H])OC([H])([H])C(=O)N([H])C([H])([H])C([H])([H])OC([H])([H])C([H])([H])OC([H])([H])C([H])([H])N([H])C(=O)N3C([H])([H])C([H])([H])C([H])([H])C([H])(n4nc(-c5c([H])c([H])c(Oc6c([H])c([H])c(F)c([H])c6F)c([H])c5[H])c(C(=O)N([H])[H])c4N([H])[H])C3([H])[H])c([H])c([H])c2C1([H])[H]

$$$$
42:0:0
     RDKit          3D

 95102  0  0  1  0  0  0  0  0999 V2000
  -28.6080  -18.4000   18.6140 C   0  0  0  0  0  2  0  0  0  0  0  0
  -29.6930  -19.3050   18.7020 O   0  0  0  0  0  0  0  0  0  0  0  0
  -29.3390  -20.6470   18.3920 C   0  0  0  0  0  2  0  0  0  0  0  0
  -29.8570  -21.5170   19.5340 C   0  0  0  0  0  2  0  0  0  0  0  0
  -30.4360  -22.7320   19.0660 O   0  0  0  0  0  0  0  0  0  0  0  0
  -29.8310  -23.8500   19.7040 C   0  0  0  0  0  2  0  0  0  0  0  0
  -30.7710  -25.0680   19.8060 C   0  0  0  0  0  2  0  0  0  0  0  0
  -30.4070  -26.1960   18.9920 O   0  0  0  0  0  0  0  0  0  0  0  0
  -26.4500  -29.3510   24.0110 C   0  0  0  0  0  0  0  0  0  0  0  0
  -29.2190  -26.8050   19.3260 C   0  0  0  0  0  0  0  0  0  0  0  0
  -25.2710  -28.6990   21.9390 C   0  0  0  0  0  3  0  0  0  0  0  0
  -26.7590  -28.0120   19.9890 C   0  0  0  0  0  0  0  0  0  0  0  0
  -27.7670  -29.2620   21.9000 C   0  0  0  0  0  2  0  0  0  0  0  0
  -27.9030  -28.2960   20.7450 C   0  0  0  0  0  0  0  0  0  0  0  0
  -29.1380  -27.6890   20.4230 C   0  0  0  0  0  3  0  0  0  0  0  0
  -28.0680  -26.5790   18.5410 C   0  0  0  0  0  3  0  0  0  0  0  0
  -26.8320  -27.1490   18.8860 C   0  0  0  0  0  3  0  0  0  0  0  0
  -25.4730  -28.6880   20.4010 C   0  0  0  0  0  2  0  0  0  0  0  0
  -26.5150  -29.0930   22.6760 N   0  0  0  0  0  0  0  0  0  0  0  0
  -25.3730  -29.3040   24.6220 O   0  0  0  0  0  0  0  0  0  0  0  0
  -24.7100  -27.3270   22.3770 C   0  0  0  0  0  0  0  0  0  0  0  0
  -23.5150  -26.9790   21.8690 N   0  0  0  0  0  0  0  0  0  0  0  0
  -25.3500  -26.5940   23.1350 O   0  0  0  0  0  0  0  0  0  0  0  0
  -23.0510  -27.6390   21.2610 H   0  0  0  0  0  0  0  0  0  0  0  0
  -20.7230  -24.9550   20.7930 C   0  0  0  0  0  0  0  0  0  0  0  0
  -22.8070  -25.7240   22.1120 C   0  0  0  0  0  3  0  0  0  0  0  0
  -23.5410  -24.5340   21.4510 C   0  0  0  0  0  2  0  0  0  0  0  0
  -23.0250  -24.2160   20.0440 C   0  0  0  0  0  2  0  0  0  0  0  0
  -21.5310  -23.8820   20.0830 C   0  0  0  0  0  2  0  0  0  0  0  0
  -21.3270  -25.8310   21.7340 C   0  0  0  0  0  0  0  0  0  0  0  0
  -20.5390  -26.8320   22.3410 C   0  0  0  0  0  3  0  0  0  0  0  0
  -19.1760  -26.9690   22.0220 C   0  0  0  0  0  3  0  0  0  0  0  0
  -18.5780  -26.0890   21.1020 C   0  0  0  0  0  3  0  0  0  0  0  0
  -19.3500  -25.0830   20.4930 C   0  0  0  0  0  3  0  0  0  0  0  0
  -27.7200  -29.7430   24.8290 C   0  0  0  0  0  3  0  0  0  0  0  0
  -27.4170  -30.9880   25.5480 N   0  0  0  0  0  0  0  0  0  0  0  0
  -27.9060  -32.1920   25.2210 C   0  0  0  0  0  0  0  0  0  0  0  0
  -28.7280  -32.3580   24.3140 O   0  0  0  0  0  0  0  0  0  0  0  0
  -26.7090  -30.9360   26.2660 H   0  0  0  0  0  0  0  0  0  0  0  0
  -26.3750  -34.1860   25.1960 C   0  0  0  0  0  1  0  0  0  0  0  0
  -27.4060  -33.4060   26.0280 C   0  0  0  0  0  3  0  0  0  0  0  0
  -29.3570  -33.7340   27.4810 C   0  0  0  0  0  1  0  0  0  0  0  0
  -28.4920  -34.3130   26.4580 N   0  0  0  0  0  0  0  0  0  0  0  0
  -28.1100  -35.1830   26.8220 H   0  0  0  0  0  0  0  0  0  0  0  0
  -28.1850  -28.6170   25.8310 C   0  0  1  0  0  0  0  0  0  0  0  0
  -27.0540  -28.0970   26.7470 C   0  0  0  0  0  1  0  0  0  0  0  0
  -28.7640  -27.4080   25.0610 C   0  0  0  0  0  1  0  0  0  0  0  0
  -29.3240  -29.1540   26.7300 C   0  0  0  0  0  1  0  0  0  0  0  0
  -28.8950  -17.3360   17.5420 C   0  0  0  0  0  2  0  0  0  0  0  0
  -29.7870  -16.3630   18.0710 O   0  0  0  0  0  0  0  0  0  0  0  0
  -31.0040  -16.8610   18.6300 C   0  0  0  0  0  2  0  0  0  0  0  0
  -32.2270  -15.9170   18.5090 C   0  0  0  0  0  2  0  0  0  0  0  0
  -32.3940  -15.1060   19.6730 O   0  0  0  0  0  0  0  0  0  0  0  0
  -33.0920  -13.8890   19.4080 C   0  0  0  0  0  2  0  0  0  0  0  0
  -33.5910  -13.2100   20.7050 C   0  0  0  0  0  2  0  0  0  0  0  0
  -35.1160  -13.1540   20.8810 C   0  0  0  0  0  2  0  0  0  0  0  0
  -35.7690  -11.9930   20.1080 C   0  0  0  0  0  2  0  0  0  0  0  0
  -38.1900  -12.2180   19.5380 C   0  0  0  0  0  0  0  0  0  0  0  0
  -40.4630  -12.9730   18.9340 C   0  0  0  0  0  2  0  0  0  0  0  0
  -41.0920  -13.8600   20.0240 C   0  0  0  0  0  2  0  0  0  0  0  0
  -40.6510  -15.3290   19.8710 C   0  0  0  0  0  2  0  0  0  0  0  0
  -39.1180  -15.4710   19.7130 C   0  0  0  0  0  3  0  0  0  0  0  0
  -38.6060  -14.5150   18.6170 C   0  0  0  0  0  2  0  0  0  0  0  0
  -39.0070  -13.1370   18.9690 N   0  0  0  0  0  0  0  0  0  0  0  0
  -38.5820  -11.2060   20.1300 O   0  0  0  0  0  0  0  0  0  0  0  0
  -36.8980  -12.4930   19.3490 N   0  0  0  0  0  0  0  0  0  0  0  0
  -36.7110  -13.2720   18.7320 H   0  0  0  0  0  0  0  0  0  0  0  0
  -37.9940  -17.7430   20.1950 C   0  0  0  0  0  0  0  0  0  0  0  0
  -38.0000  -18.9270   19.5100 C   0  0  0  0  0  0  0  0  0  0  0  0
  -38.7730  -18.6950   18.3290 C   0  0  0  0  0  0  0  0  0  0  0  0
  -38.7410  -16.8570   19.4330 N   0  0  0  0  0  0  0  0  0  0  0  0
  -39.1620  -17.4280   18.2760 N   0  0  0  0  0  0  0  0  0  0  0  0
  -39.2070  -19.6150   17.2730 C   0  0  0  0  0  0  0  0  0  0  0  0
  -38.5340  -19.6860   16.0310 C   0  0  0  0  0  3  0  0  0  0  0  0
  -38.9620  -20.5910   15.0360 C   0  0  0  0  0  3  0  0  0  0  0  0
  -40.0720  -21.4370   15.2760 C   0  0  0  0  0  0  0  0  0  0  0  0
  -40.7480  -21.3480   16.5060 C   0  0  0  0  0  3  0  0  0  0  0  0
  -40.3240  -20.4450   17.4930 C   0  0  0  0  0  3  0  0  0  0  0  0
  -40.5750  -22.3300   14.3600 O   0  0  0  0  0  0  0  0  0  0  0  0
  -39.7590  -23.2040   13.6870 C   0  0  0  0  0  0  0  0  0  0  0  0
  -39.0700  -24.2440   14.3510 C   0  0  0  0  0  3  0  0  0  0  0  0
  -38.3000  -25.1640   13.6100 C   0  0  0  0  0  3  0  0  0  0  0  0
  -38.2230  -25.0510   12.2080 C   0  0  0  0  0  0  0  0  0  0  0  0
  -38.9080  -24.0180   11.5470 C   0  0  0  0  0  3  0  0  0  0  0  0
  -39.6760  -23.1010   12.2840 C   0  0  0  0  0  0  0  0  0  0  0  0
  -40.3520  -22.1210   11.6410 F   0  0  0  0  0  0  0  0  0  0  0  0
  -37.4880  -25.9370   11.4960 F   0  0  0  0  0  0  0  0  0  0  0  0
  -37.4040  -20.2290   19.9620 C   0  0  0  0  0  0  0  0  0  0  0  0
  -36.9530  -21.0520   19.0230 N   0  0  0  0  0  0  0  0  0  0  0  0
  -37.2930  -20.5040   21.1570 O   0  0  0  0  0  0  0  0  0  0  0  0
  -37.0370  -20.8270   18.0430 H   0  0  0  0  0  0  0  0  0  0  0  0
  -36.5140  -21.9210   19.2910 H   0  0  0  0  0  0  0  0  0  0  0  0
  -37.4280  -17.3410   21.4010 N   0  0  0  0  0  0  0  0  0  0  0  0
  -36.7150  -17.9060   21.8540 H   0  0  0  0  0  0  0  0  0  0  0  0
  -37.4060  -16.3730   21.6940 H   0  0  0  0  0  0  0  0  0  0  0  0
  1  2  1  0
  3  2  1  0
  3  4  1  0
  5  4  1  0
  5  6  1  0
  6  7  1  0
  8 10  1  0
  8  7  1  0
  9 20  2  0
 10 15  1  0
 11 21  1  0
 11 19  1  0
 12 18  1  0
 12 14  1  0
 13 19  1  0
 14 13  1  0
 15 14  2  0
 16 17  1  0
 16 10  2  0
 17 12  2  0
 18 11  1  0
 19  9  1  0
 21 23  2  0
 22 21  1  0
 24 22  1  0
 25 30  1  0
 26 22  1  0
 27 26  1  0
 28 29  1  0
 28 27  1  0
 29 25  1  0
 30 26  1  0
 30 31  2  0
 32 31  1  0
 33 32  2  0
 34 25  2  0
 34 33  1  0
 35  9  1  0
 35 36  1  0
 35 45  1  0
 36 39  1  0
 37 36  1  0
 37 41  1  0
 38 37  2  0
 41 40  1  0
 41 43  1  0
 43 44  1  0
 43 42  1  0
 45 48  1  1
 45 46  1  0
 47 45  1  0
 49 50  1  0
 49  1  1  0
 50 51  1  0
 52 51  1  0
 52 53  1  0
 54 53  1  0
 54 55  1  0
 55 56  1  0
 57 56  1  0
 58 65  2  0
 59 64  1  0
 59 60  1  0
 61 60  1  0
 62 63  1  0
 62 61  1  0
 63 64  1  0
 64 58  1  0
 66 58  1  0
 66 57  1  0
 67 66  1  0
 68 93  1  0
 69 88  1  0
 69 68  2  0
 70 69  1  0
 71 62  1  0
 71 68  1  0
 72 70  2  0
 72 71  1  0
 73 78  1  0
 73 70  1  0
 74 73  2  0
 75 76  2  0
 75 74  1  0
 76 77  1  0
 77 78  2  0
 79 76  1  0
 80 81  1  0
 80 79  1  0
 82 81  2  0
 83 82  1  0
 84 83  2  0
 84 85  1  0
 85 80  2  0
 86 85  1  0
 87 83  1  0
 88 90  2  0
 89 92  1  0
 89 88  1  0
 91 89  1  0
 93 95  1  0
 93 94  1  0
M  ISO  4   7 101   8 101  58 100  66 100
M  END
>  <TORSDO>  (43) 
F 31

>  <SCORE>  (43) 
-2.678

>  <name>  (43) 
42

>  <ligand_id>  (43) 
42

>  <original_smiles>  (43) 
[H]c1c([H])c([H])c2c(c1[H])C([H])([H])C([H])([H])C([H])([H])C2([H])N([H])C(=O)C1([H])N(C(=O)C([H])(N([H])C(=O)C([H])(N([H])C([H])([H])[H])C([H])([H])[H])C(C([H])([H])[H])(C([H])([H])[H])C([H])([H])[H])C([H])([H])c2c([H])c(OC([H])([H])C([H])([H])OC([H])([H])C([H])([H])OC([H])([H])C([H])([H])OC([H])([H])C([H])([H])OC([H])([H])C([H])([H])C([H])([H])C([H])([H])N([H])C(=O)N3C([H])([H])C([H])([H])C([H])([H])C([H])(n4nc(-c5c([H])c([H])c(Oc6c([H])c([H])c(F)c([H])c6F)c([H])c5[H])c(C(=O)N([H])[H])c4N([H])[H])C3([H])[H])c([H])c([H])c2C1([H])[H]

>  <smiles>  (43) 
[H]c1c([H])c([H])c2c(c1[H])C([H])([H])C([H])([H])C([H])([H])C2([H])N([H])C(=O)C1([H])N(C(=O)C([H])(N([H])C(=O)C([H])(N([H])C([H])([H])[H])C([H])([H])[H])C(C([H])([H])[H])(C([H])([H])[H])C([H])([H])[H])C([H])([H])c2c([H])c(OC([H])([H])C([H])([H])OC([H])([H])C([H])([H])OC([H])([H])C([H])([H])OC([H])([H])C([H])([H])OC([H])([H])C([H])([H])C([H])([H])C([H])([H])N([H])C(=O)N3C([H])([H])C([H])([H])C([H])([H])C([H])(n4nc(-c5c([H])c([H])c(Oc6c([H])c([H])c(F)c([H])c6F)c([H])c5[H])c(C(=O)N([H])[H])c4N([H])[H])C3([H])[H])c([H])c([H])c2C1([H])[H]

$$$$
43:0:0
     RDKit          3D

 90 97  0  0  1  0  0  0  0  0999 V2000
  -27.8060  -22.7890   22.0570 C   0  0  0  0  0  2  0  0  0  0  0  0
  -28.1210  -23.6690   20.9800 O   0  0  0  0  0  0  0  0  0  0  0  0
  -28.3570  -25.0040   21.4180 C   0  0  0  0  0  2  0  0  0  0  0  0
  -29.0330  -25.8100   20.2920 C   0  0  0  0  0  2  0  0  0  0  0  0
  -28.9770  -27.2200   20.5330 O   0  0  0  0  0  0  0  0  0  0  0  0
  -24.8130  -32.1180   23.5430 C   0  0  0  0  0  0  0  0  0  0  0  0
  -27.7520  -27.8490   20.4980 C   0  0  0  0  0  0  0  0  0  0  0  0
  -23.7220  -30.6820   21.8480 C   0  0  0  0  0  3  0  0  0  0  0  0
  -25.2850  -29.2330   20.4560 C   0  0  0  0  0  0  0  0  0  0  0  0
  -26.2290  -31.1650   21.7290 C   0  0  0  0  0  2  0  0  0  0  0  0
  -26.3990  -29.8060   21.0820 C   0  0  0  0  0  0  0  0  0  0  0  0
  -27.6340  -29.1210   21.0980 C   0  0  0  0  0  3  0  0  0  0  0  0
  -26.6140  -27.2830   19.8740 C   0  0  0  0  0  3  0  0  0  0  0  0
  -25.3870  -27.9680   19.8540 C   0  0  0  0  0  3  0  0  0  0  0  0
  -24.0040  -30.0320   20.4680 C   0  0  0  0  0  2  0  0  0  0  0  0
  -24.9370  -31.3350   22.4330 N   0  0  0  0  0  0  0  0  0  0  0  0
  -23.7050  -32.3340   24.0530 O   0  0  0  0  0  0  0  0  0  0  0  0
  -23.0900  -29.6210   22.7760 C   0  0  0  0  0  0  0  0  0  0  0  0
  -21.7860  -29.3620   22.5830 N   0  0  0  0  0  0  0  0  0  0  0  0
  -23.7700  -29.0330   23.6190 O   0  0  0  0  0  0  0  0  0  0  0  0
  -21.2950  -29.8870   21.8700 H   0  0  0  0  0  0  0  0  0  0  0  0
  -18.4720  -27.9650   22.9140 C   0  0  0  0  0  0  0  0  0  0  0  0
  -20.9920  -28.3730   23.3120 C   0  0  0  0  0  3  0  0  0  0  0  0
  -21.2090  -26.9500   22.7440 C   0  0  0  0  0  2  0  0  0  0  0  0
  -20.1790  -26.5620   21.6760 C   0  0  0  0  0  2  0  0  0  0  0  0
  -18.7620  -26.6280   22.2540 C   0  0  0  0  0  2  0  0  0  0  0  0
  -19.5210  -28.7900   23.3990 C   0  0  0  0  0  0  0  0  0  0  0  0
  -19.2030  -30.0400   23.9710 C   0  0  0  0  0  3  0  0  0  0  0  0
  -17.8650  -30.4650   24.0730 C   0  0  0  0  0  3  0  0  0  0  0  0
  -16.8290  -29.6370   23.6090 C   0  0  0  0  0  3  0  0  0  0  0  0
  -17.1330  -28.3910   23.0320 C   0  0  0  0  0  3  0  0  0  0  0  0
  -26.0510  -32.7960   24.2080 C   0  0  0  0  0  3  0  0  0  0  0  0
  -26.4950  -32.0970   25.5500 C   0  0  1  0  0  0  0  0  0  0  0  0
  -25.3360  -31.8630   26.5460 C   0  0  0  0  0  1  0  0  0  0  0  0
  -27.1490  -30.7280   25.2540 C   0  0  0  0  0  1  0  0  0  0  0  0
  -27.5660  -32.9570   26.2590 C   0  0  0  0  0  1  0  0  0  0  0  0
  -25.7090  -34.2050   24.4420 N   0  0  0  0  0  0  0  0  0  0  0  0
  -26.0740  -35.2180   23.6420 C   0  0  0  0  0  0  0  0  0  0  0  0
  -26.8020  -35.0650   22.6570 O   0  0  0  0  0  0  0  0  0  0  0  0
  -25.0670  -34.3930   25.1980 H   0  0  0  0  0  0  0  0  0  0  0  0
  -24.3440  -36.9560   23.0900 C   0  0  0  0  0  1  0  0  0  0  0  0
  -25.5440  -36.6220   23.9910 C   0  0  0  0  0  3  0  0  0  0  0  0
  -27.6240  -37.5810   24.8740 C   0  0  0  0  0  1  0  0  0  0  0  0
  -26.5690  -37.6810   23.8690 N   0  0  0  0  0  0  0  0  0  0  0  0
  -26.1450  -38.6010   23.9460 H   0  0  0  0  0  0  0  0  0  0  0  0
  -27.4930  -21.3830   21.5210 C   0  0  0  0  0  2  0  0  0  0  0  0
  -28.6650  -20.7680   20.9950 O   0  0  0  0  0  0  0  0  0  0  0  0
  -28.3670  -19.5800   20.2660 C   0  0  0  0  0  2  0  0  0  0  0  0
  -29.6620  -18.8370   19.8940 C   0  0  0  0  0  2  0  0  0  0  0  0
  -30.0630  -17.9670   20.9490 O   0  0  0  0  0  0  0  0  0  0  0  0
  -31.4690  -17.8850   21.1710 C   0  0  0  0  0  2  0  0  0  0  0  0
  -32.1640  -16.8510   20.2700 C   0  0  0  0  0  2  0  0  0  0  0  0
  -31.9300  -14.4640   19.7030 C   0  0  0  0  0  0  0  0  0  0  0  0
  -31.3700  -12.1870   18.9420 C   0  0  0  0  0  2  0  0  0  0  0  0
  -30.3890  -12.2580   17.7560 C   0  0  0  0  0  2  0  0  0  0  0  0
  -28.9350  -12.3150   18.2570 C   0  0  0  0  0  2  0  0  0  0  0  0
  -28.7260  -13.3820   19.3650 C   0  0  0  0  0  3  0  0  0  0  0  0
  -29.8210  -13.2870   20.4530 C   0  0  0  0  0  2  0  0  0  0  0  0
  -31.1380  -13.3620   19.7950 N   0  0  0  0  0  0  0  0  0  0  0  0
  -32.9520  -14.5110   19.0150 O   0  0  0  0  0  0  0  0  0  0  0  0
  -31.5220  -15.5410   20.3790 N   0  0  0  0  0  0  0  0  0  0  0  0
  -30.6870  -15.4770   20.9440 H   0  0  0  0  0  0  0  0  0  0  0  0
  -26.5230  -14.3100   20.3180 C   0  0  0  0  0  0  0  0  0  0  0  0
  -25.3730  -13.6950   20.7340 C   0  0  0  0  0  0  0  0  0  0  0  0
  -25.5970  -12.2930   20.5790 C   0  0  0  0  0  0  0  0  0  0  0  0
  -27.3840  -13.2930   19.9390 N   0  0  0  0  0  0  0  0  0  0  0  0
  -26.8320  -12.0680   20.1490 N   0  0  0  0  0  0  0  0  0  0  0  0
  -24.6860  -11.1530   20.7540 C   0  0  0  0  0  0  0  0  0  0  0  0
  -25.0150  -10.0650   21.5910 C   0  0  0  0  0  3  0  0  0  0  0  0
  -24.1140   -8.9910   21.7570 C   0  0  0  0  0  3  0  0  0  0  0  0
  -22.8680   -9.0000   21.0880 C   0  0  0  0  0  0  0  0  0  0  0  0
  -22.5550  -10.0750   20.2360 C   0  0  0  0  0  3  0  0  0  0  0  0
  -23.4560  -11.1380   20.0660 C   0  0  0  0  0  3  0  0  0  0  0  0
  -21.9430   -7.9870   21.1680 O   0  0  0  0  0  0  0  0  0  0  0  0
  -21.8340   -7.1990   22.2860 C   0  0  0  0  0  0  0  0  0  0  0  0
  -21.5870   -7.7470   23.5640 C   0  0  0  0  0  3  0  0  0  0  0  0
  -21.4110   -6.8960   24.6730 C   0  0  0  0  0  3  0  0  0  0  0  0
  -21.4730   -5.4990   24.5060 C   0  0  0  0  0  0  0  0  0  0  0  0
  -21.7140   -4.9520   23.2340 C   0  0  0  0  0  3  0  0  0  0  0  0
  -21.8900   -5.8000   22.1260 C   0  0  0  0  0  0  0  0  0  0  0  0
  -22.1010   -5.2670   20.8980 F   0  0  0  0  0  0  0  0  0  0  0  0
  -21.2960   -4.6800   25.5700 F   0  0  0  0  0  0  0  0  0  0  0  0
  -24.1040  -14.3690   21.1660 C   0  0  0  0  0  0  0  0  0  0  0  0
  -23.3490  -13.7420   22.0620 N   0  0  0  0  0  0  0  0  0  0  0  0
  -23.7960  -15.4850   20.7480 O   0  0  0  0  0  0  0  0  0  0  0  0
  -23.6150  -12.8390   22.4260 H   0  0  0  0  0  0  0  0  0  0  0  0
  -22.4980  -14.1770   22.3890 H   0  0  0  0  0  0  0  0  0  0  0  0
  -26.9010  -15.6450   20.2170 N   0  0  0  0  0  0  0  0  0  0  0  0
  -26.2750  -16.4070   20.4510 H   0  0  0  0  0  0  0  0  0  0  0  0
  -27.7960  -15.9620   19.8690 H   0  0  0  0  0  0  0  0  0  0  0  0
  2  3  1  0
  2  1  1  0
  4  5  1  0
  4  3  1  0
  6 17  2  0
  7  5  1  0
  7 12  1  0
  8 16  1  0
  8 18  1  0
  9 15  1  0
  9 11  1  0
 10 16  1  0
 11 12  2  0
 11 10  1  0
 13  7  2  0
 14 13  1  0
 14  9  2  0
 15  8  1  0
 16  6  1  0
 18 20  2  0
 19 18  1  0
 21 19  1  0
 22 31  2  0
 22 27  1  0
 23 19  1  0
 23 27  1  0
 24 23  1  0
 25 26  1  0
 25 24  1  0
 26 22  1  0
 27 28  2  0
 28 29  1  0
 30 29  2  0
 31 30  1  0
 32  6  1  0
 32 37  1  0
 32 33  1  0
 33 36  1  1
 33 34  1  0
 35 33  1  0
 37 40  1  0
 38 42  1  0
 38 37  1  0
 39 38  2  0
 42 41  1  0
 44 45  1  0
 44 42  1  0
 44 43  1  0
 46  1  1  0
 47 46  1  0
 48 47  1  0
 49 48  1  0
 49 50  1  0
 50 51  1  0
 52 61  1  0
 52 51  1  0
 53 59  1  0
 53 61  1  0
 54 59  1  0
 55 56  1  0
 55 54  1  0
 57 56  1  0
 57 66  1  0
 57 58  1  0
 59 58  1  0
 60 53  2  0
 61 62  1  0
 63 64  2  0
 64 83  1  0
 65 64  1  0
 65 68  1  0
 66 67  1  0
 66 63  1  0
 67 65  2  0
 68 69  1  0
 69 70  2  0
 71 74  1  0
 71 70  1  0
 72 71  2  0
 73 72  1  0
 73 68  2  0
 74 75  1  0
 75 76  1  0
 76 77  2  0
 78 77  1  0
 78 82  1  0
 79 78  2  0
 80 75  2  0
 80 79  1  0
 81 80  1  0
 83 84  1  0
 84 87  1  0
 84 86  1  0
 85 83  2  0
 88 63  1  0
 88 89  1  0
 90 88  1  0
M  ISO  4   4 101   5 101  53 100  61 100
M  END
>  <TORSDO>  (44) 
F 26

>  <SCORE>  (44) 
-9.736

>  <name>  (44) 
43

>  <ligand_id>  (44) 
43

>  <original_smiles>  (44) 
[H]c1c([H])c([H])c2c(c1[H])C([H])([H])C([H])([H])C([H])([H])C2([H])N([H])C(=O)C1([H])N(C(=O)C([H])(N([H])C(=O)C([H])(N([H])C([H])([H])[H])C([H])([H])[H])C(C([H])([H])[H])(C([H])([H])[H])C([H])([H])[H])C([H])([H])c2c([H])c(OC([H])([H])C([H])([H])OC([H])([H])C([H])([H])OC([H])([H])C([H])([H])OC([H])([H])C([H])([H])N([H])C(=O)N3C([H])([H])C([H])([H])C([H])([H])C([H])(n4nc(-c5c([H])c([H])c(Oc6c([H])c([H])c(F)c([H])c6F)c([H])c5[H])c(C(=O)N([H])[H])c4N([H])[H])C3([H])[H])c([H])c([H])c2C1([H])[H]

>  <smiles>  (44) 
[H]c1c([H])c([H])c2c(c1[H])C([H])([H])C([H])([H])C([H])([H])C2([H])N([H])C(=O)C1([H])N(C(=O)C([H])(N([H])C(=O)C([H])(N([H])C([H])([H])[H])C([H])([H])[H])C(C([H])([H])[H])(C([H])([H])[H])C([H])([H])[H])C([H])([H])c2c([H])c(OC([H])([H])C([H])([H])OC([H])([H])C([H])([H])OC([H])([H])C([H])([H])OC([H])([H])C([H])([H])N([H])C(=O)N3C([H])([H])C([H])([H])C([H])([H])C([H])(n4nc(-c5c([H])c([H])c(Oc6c([H])c([H])c(F)c([H])c6F)c([H])c5[H])c(C(=O)N([H])[H])c4N([H])[H])C3([H])[H])c([H])c([H])c2C1([H])[H]

$$$$
44:0:0
     RDKit          3D

 89 97  0  0  1  0  0  0  0  0999 V2000
  -28.9920  -22.1200   19.5690 O   0  0  0  0  0  0  0  0  0  0  0  0
  -29.6330  -18.3270   18.9320 C   0  0  0  0  0  3  0  0  0  0  0  0
  -29.7260  -18.6050   21.2660 C   0  0  0  0  0  3  0  0  0  0  0  0
  -29.3880  -19.7550   18.7990 C   0  0  0  0  0  3  0  0  0  0  0  0
  -29.5050  -20.0460   21.1270 C   0  0  0  0  0  3  0  0  0  0  0  0
  -29.8070  -17.6490   20.1820 C   0  0  0  0  0  0  0  0  0  0  0  0
  -29.2970  -20.7140   19.8710 C   0  0  0  0  0  0  0  0  0  0  0  0
  -30.5670  -15.0050   19.9290 C   0  0  0  0  0  0  0  0  0  0  0  0
  -30.3880  -12.6710   18.9530 C   0  0  0  0  0  2  0  0  0  0  0  0
  -29.3740  -12.6730   17.7850 C   0  0  0  0  0  2  0  0  0  0  0  0
  -27.9400  -12.4580   18.3070 C   0  0  0  0  0  2  0  0  0  0  0  0
  -27.6220  -13.3540   19.5330 C   0  0  0  0  0  3  0  0  0  0  0  0
  -28.7470  -13.3170   20.5890 C   0  0  0  0  0  2  0  0  0  0  0  0
  -29.9900  -13.7330   19.9210 N   0  0  0  0  0  0  0  0  0  0  0  0
  -31.7060  -15.1150   19.4610 O   0  0  0  0  0  0  0  0  0  0  0  0
  -29.8220  -16.1240   20.3820 N   0  0  0  0  0  0  0  0  0  0  0  0
  -29.0430  -15.8110   20.9450 H   0  0  0  0  0  0  0  0  0  0  0  0
  -25.2960  -13.9290   20.4400 C   0  0  0  0  0  0  0  0  0  0  0  0
  -24.2530  -13.1500   20.8600 C   0  0  0  0  0  0  0  0  0  0  0  0
  -24.7030  -11.7980   20.7600 C   0  0  0  0  0  0  0  0  0  0  0  0
  -26.3140  -13.0510   20.1060 N   0  0  0  0  0  0  0  0  0  0  0  0
  -25.9700  -11.7610   20.3610 N   0  0  0  0  0  0  0  0  0  0  0  0
  -23.9790  -10.5350   20.9640 C   0  0  0  0  0  0  0  0  0  0  0  0
  -24.4390   -9.5580   21.8740 C   0  0  0  0  0  3  0  0  0  0  0  0
  -23.7160   -8.3630   22.0680 C   0  0  0  0  0  3  0  0  0  0  0  0
  -22.5170   -8.1330   21.3500 C   0  0  0  0  0  0  0  0  0  0  0  0
  -22.0750   -9.0990   20.4280 C   0  0  0  0  0  3  0  0  0  0  0  0
  -22.8000  -10.2860   20.2330 C   0  0  0  0  0  3  0  0  0  0  0  0
  -21.7620   -6.9910   21.4540 O   0  0  0  0  0  0  0  0  0  0  0  0
  -21.7170   -6.2590   22.6150 C   0  0  0  0  0  0  0  0  0  0  0  0
  -21.2630   -6.8160   23.8300 C   0  0  0  0  0  3  0  0  0  0  0  0
  -21.1690   -6.0110   24.9810 C   0  0  0  0  0  3  0  0  0  0  0  0
  -21.5180   -4.6490   24.9190 C   0  0  0  0  0  0  0  0  0  0  0  0
  -21.9670   -4.0900   23.7090 C   0  0  0  0  0  3  0  0  0  0  0  0
  -22.0640   -4.8940   22.5580 C   0  0  0  0  0  0  0  0  0  0  0  0
  -22.4750   -4.3470   21.3900 F   0  0  0  0  0  0  0  0  0  0  0  0
  -21.4210   -3.8720   26.0230 F   0  0  0  0  0  0  0  0  0  0  0  0
  -22.8820  -13.6280   21.2390 C   0  0  0  0  0  0  0  0  0  0  0  0
  -22.2110  -12.9170   22.1380 N   0  0  0  0  0  0  0  0  0  0  0  0
  -22.4180  -14.6690   20.7760 O   0  0  0  0  0  0  0  0  0  0  0  0
  -22.6030  -12.0760   22.5350 H   0  0  0  0  0  0  0  0  0  0  0  0
  -21.2950  -13.2200   22.4350 H   0  0  0  0  0  0  0  0  0  0  0  0
  -25.4600  -15.3020   20.2900 N   0  0  0  0  0  0  0  0  0  0  0  0
  -24.7070  -15.9580   20.4680 H   0  0  0  0  0  0  0  0  0  0  0  0
  -26.2850  -15.7440   19.9040 H   0  0  0  0  0  0  0  0  0  0  0  0
  -28.8480  -23.3870   20.4400 C   0  0  0  0  0  2  0  0  0  0  0  0
  -28.2850  -24.7610   19.6990 C   0  0  0  0  0  0  0  0  0  0  0  0
  -27.8690  -24.6030   18.5470 O   0  0  0  0  0  0  0  0  0  0  0  0
  -28.2430  -26.1710   20.3520 O   0  0  0  0  0  0  0  0  0  0  0  0
  -24.6290  -31.8930   23.2500 C   0  0  0  0  0  0  0  0  0  0  0  0
  -27.2130  -27.1790   20.2040 C   0  0  0  0  0  0  0  0  0  0  0  0
  -23.4330  -30.5020   21.6070 C   0  0  0  0  0  3  0  0  0  0  0  0
  -24.8830  -28.9350   20.1750 C   0  0  0  0  0  0  0  0  0  0  0  0
  -25.9880  -30.7620   21.4490 C   0  0  0  0  0  2  0  0  0  0  0  0
  -26.0620  -29.3740   20.7900 C   0  0  0  0  0  0  0  0  0  0  0  0
  -27.2220  -28.5100   20.7930 C   0  0  0  0  0  3  0  0  0  0  0  0
  -26.0010  -26.8490   19.5520 C   0  0  0  0  0  3  0  0  0  0  0  0
  -24.8660  -27.6870   19.5410 C   0  0  0  0  0  3  0  0  0  0  0  0
  -23.6560  -29.8310   20.2250 C   0  0  0  0  0  2  0  0  0  0  0  0
  -24.7040  -31.0730   22.1570 N   0  0  0  0  0  0  0  0  0  0  0  0
  -23.5420  -32.1770   23.7760 O   0  0  0  0  0  0  0  0  0  0  0  0
  -22.7500  -29.4910   22.5640 C   0  0  0  0  0  0  0  0  0  0  0  0
  -21.4260  -29.3050   22.4180 N   0  0  0  0  0  0  0  0  0  0  0  0
  -23.4170  -28.8790   23.4030 O   0  0  0  0  0  0  0  0  0  0  0  0
  -20.9460  -29.8500   21.7170 H   0  0  0  0  0  0  0  0  0  0  0  0
  -18.0570  -28.0490   22.8600 C   0  0  0  0  0  0  0  0  0  0  0  0
  -20.6030  -28.3660   23.1850 C   0  0  0  0  0  3  0  0  0  0  0  0
  -20.7470  -26.9260   22.6390 C   0  0  0  0  0  2  0  0  0  0  0  0
  -19.6760  -26.5630   21.6040 C   0  0  0  0  0  2  0  0  0  0  0  0
  -18.2760  -26.6920   22.2130 C   0  0  0  0  0  2  0  0  0  0  0  0
  -19.1500  -28.8410   23.3030 C   0  0  0  0  0  0  0  0  0  0  0  0
  -18.8900  -30.1070   23.8700 C   0  0  0  0  0  3  0  0  0  0  0  0
  -17.5720  -30.5830   23.9980 C   0  0  0  0  0  3  0  0  0  0  0  0
  -16.4940  -29.7890   23.5690 C   0  0  0  0  0  3  0  0  0  0  0  0
  -16.7360  -28.5240   23.0060 C   0  0  0  0  0  3  0  0  0  0  0  0
  -25.9060  -32.5260   23.8810 C   0  0  0  0  0  3  0  0  0  0  0  0
  -26.4030  -31.7650   25.1710 C   0  0  1  0  0  0  0  0  0  0  0  0
  -25.2970  -31.5440   26.2300 C   0  0  0  0  0  1  0  0  0  0  0  0
  -26.9850  -30.3800   24.8050 C   0  0  0  0  0  1  0  0  0  0  0  0
  -27.5500  -32.5610   25.8380 C   0  0  0  0  0  1  0  0  0  0  0  0
  -25.5990  -33.9300   24.2000 N   0  0  0  0  0  0  0  0  0  0  0  0
  -25.9210  -34.9770   23.4290 C   0  0  0  0  0  0  0  0  0  0  0  0
  -26.5750  -34.8630   22.3890 O   0  0  0  0  0  0  0  0  0  0  0  0
  -25.0160  -34.0910   25.0080 H   0  0  0  0  0  0  0  0  0  0  0  0
  -24.1840  -36.7690   23.1000 C   0  0  0  0  0  1  0  0  0  0  0  0
  -25.4460  -36.3710   23.8840 C   0  0  0  0  0  3  0  0  0  0  0  0
  -27.5930  -37.2790   24.6590 C   0  0  0  0  0  1  0  0  0  0  0  0
  -26.4760  -37.4220   23.7280 N   0  0  0  0  0  0  0  0  0  0  0  0
  -26.0730  -38.3460   23.8550 H   0  0  0  0  0  0  0  0  0  0  0  0
  1  7  1  0
  1 46  1  0
  2  6  1  0
  4  2  2  0
  4  7  1  0
  5  3  1  0
  6 16  1  0
  6  3  2  0
  7  5  2  0
  8 16  1  0
  9 14  1  0
 10 11  1  0
 10  9  1  0
 12 11  1  0
 12 21  1  0
 12 13  1  0
 14  8  1  0
 14 13  1  0
 15  8  2  0
 16 17  1  0
 18 19  2  0
 19 38  1  0
 20 19  1  0
 20 23  1  0
 21 22  1  0
 21 18  1  0
 22 20  2  0
 23 24  1  0
 24 25  2  0
 26 29  1  0
 26 25  1  0
 27 26  2  0
 28 27  1  0
 28 23  2  0
 29 30  1  0
 30 31  1  0
 31 32  2  0
 33 32  1  0
 33 37  1  0
 34 33  2  0
 35 30  2  0
 35 34  1  0
 36 35  1  0
 38 39  1  0
 39 42  1  0
 39 41  1  0
 40 38  2  0
 43 18  1  0
 43 44  1  0
 45 43  1  0
 47 49  1  0
 47 46  1  0
 48 47  2  0
 50 61  2  0
 51 49  1  0
 51 56  1  0
 52 60  1  0
 52 62  1  0
 53 59  1  0
 53 55  1  0
 54 60  1  0
 55 56  2  0
 55 54  1  0
 57 51  2  0
 58 57  1  0
 58 53  2  0
 59 52  1  0
 60 50  1  0
 62 64  2  0
 63 62  1  0
 65 63  1  0
 66 75  2  0
 66 71  1  0
 67 63  1  0
 67 71  1  0
 68 67  1  0
 69 70  1  0
 69 68  1  0
 70 66  1  0
 71 72  2  0
 72 73  1  0
 74 73  2  0
 75 74  1  0
 76 50  1  0
 76 81  1  0
 76 77  1  0
 77 80  1  1
 77 78  1  0
 79 77  1  0
 81 84  1  0
 82 86  1  0
 82 81  1  0
 83 82  2  0
 86 85  1  0
 88 89  1  0
 88 86  1  0
 88 87  1  0
M  ISO  4   8 100  16 100  47 101  49 101
M  END
>  <TORSDO>  (45) 
F 19

>  <SCORE>  (45) 
-13.811

>  <name>  (45) 
44

>  <ligand_id>  (45) 
44

>  <original_smiles>  (45) 
[H]c1c([H])c([H])c2c(c1[H])C([H])([H])C([H])([H])C([H])([H])C2([H])N([H])C(=O)C1([H])N(C(=O)C([H])(N([H])C(=O)C([H])(N([H])C([H])([H])[H])C([H])([H])[H])C(C([H])([H])[H])(C([H])([H])[H])C([H])([H])[H])C([H])([H])c2c([H])c(OC(=O)C([H])([H])Oc3c([H])c([H])c(N([H])C(=O)N4C([H])([H])C([H])([H])C([H])([H])C([H])(n5nc(-c6c([H])c([H])c(Oc7c([H])c([H])c(F)c([H])c7F)c([H])c6[H])c(C(=O)N([H])[H])c5N([H])[H])C4([H])[H])c([H])c3[H])c([H])c([H])c2C1([H])[H]

>  <smiles>  (45) 
[H]c1c([H])c([H])c2c(c1[H])C([H])([H])C([H])([H])C([H])([H])C2([H])N([H])C(=O)C1([H])N(C(=O)C([H])(N([H])C(=O)C([H])(N([H])C([H])([H])[H])C([H])([H])[H])C(C([H])([H])[H])(C([H])([H])[H])C([H])([H])[H])C([H])([H])c2c([H])c(OC(=O)C([H])([H])Oc3c([H])c([H])c(N([H])C(=O)N4C([H])([H])C([H])([H])C([H])([H])C([H])(n5nc(-c6c([H])c([H])c(Oc7c([H])c([H])c(F)c([H])c7F)c([H])c6[H])c(C(=O)N([H])[H])c5N([H])[H])C4([H])[H])c([H])c3[H])c([H])c([H])c2C1([H])[H]

$$$$
45:0:0
     RDKit          3D

 96103  0  0  1  0  0  0  0  0999 V2000
  -26.4820  -20.4170   19.8560 C   0  0  0  0  0  2  0  0  0  0  0  0
  -26.0480  -20.8990   18.4590 C   0  0  0  0  0  2  0  0  0  0  0  0
  -26.7700  -22.0460   18.0170 O   0  0  0  0  0  0  0  0  0  0  0  0
  -28.0040  -21.7390   17.3770 C   0  0  0  0  0  2  0  0  0  0  0  0
  -28.7890  -23.0340   17.1180 C   0  0  0  0  0  2  0  0  0  0  0  0
  -29.0260  -23.6870   18.3610 O   0  0  0  0  0  0  0  0  0  0  0  0
  -28.3870  -24.9540   18.4470 C   0  0  0  0  0  2  0  0  0  0  0  0
  -28.3280  -25.3950   19.9210 C   0  0  0  0  0  2  0  0  0  0  0  0
  -28.3780  -26.8130   20.0960 O   0  0  0  0  0  0  0  0  0  0  0  0
  -24.5700  -31.8810   23.2920 C   0  0  0  0  0  0  0  0  0  0  0  0
  -27.1920  -27.5140   20.1070 C   0  0  0  0  0  0  0  0  0  0  0  0
  -23.3670  -30.5470   21.5950 C   0  0  0  0  0  3  0  0  0  0  0  0
  -24.8130  -29.0400   20.1440 C   0  0  0  0  0  0  0  0  0  0  0  0
  -25.8960  -30.8920   21.4280 C   0  0  0  0  0  2  0  0  0  0  0  0
  -25.9700  -29.5400   20.7490 C   0  0  0  0  0  0  0  0  0  0  0  0
  -27.1680  -28.7870   20.7180 C   0  0  0  0  0  3  0  0  0  0  0  0
  -26.0000  -27.0160   19.5330 C   0  0  0  0  0  3  0  0  0  0  0  0
  -24.8180  -27.7740   19.5380 C   0  0  0  0  0  3  0  0  0  0  0  0
  -23.5800  -29.9120   20.1980 C   0  0  0  0  0  2  0  0  0  0  0  0
  -24.6300  -31.1170   22.1670 N   0  0  0  0  0  0  0  0  0  0  0  0
  -23.4860  -32.1490   23.8280 O   0  0  0  0  0  0  0  0  0  0  0  0
  -22.6950  -29.5020   22.5150 C   0  0  0  0  0  0  0  0  0  0  0  0
  -21.3750  -29.3210   22.3520 N   0  0  0  0  0  0  0  0  0  0  0  0
  -23.3620  -28.8510   23.3250 O   0  0  0  0  0  0  0  0  0  0  0  0
  -20.8950  -29.9010   21.6760 H   0  0  0  0  0  0  0  0  0  0  0  0
  -17.9950  -28.1000   22.7230 C   0  0  0  0  0  0  0  0  0  0  0  0
  -20.5410  -28.3650   23.0770 C   0  0  0  0  0  3  0  0  0  0  0  0
  -20.6690  -26.9460   22.4750 C   0  0  0  0  0  2  0  0  0  0  0  0
  -19.6000  -26.6360   21.4250 C   0  0  0  0  0  2  0  0  0  0  0  0
  -18.1980  -26.7640   22.0270 C   0  0  0  0  0  2  0  0  0  0  0  0
  -19.0960  -28.8580   23.2030 C   0  0  0  0  0  0  0  0  0  0  0  0
  -18.8520  -30.1100   23.8070 C   0  0  0  0  0  3  0  0  0  0  0  0
  -17.5420  -30.6060   23.9330 C   0  0  0  0  0  3  0  0  0  0  0  0
  -16.4550  -29.8450   23.4690 C   0  0  0  0  0  3  0  0  0  0  0  0
  -16.6800  -28.5940   22.8710 C   0  0  0  0  0  3  0  0  0  0  0  0
  -25.8560  -32.4780   23.9450 C   0  0  0  0  0  3  0  0  0  0  0  0
  -26.3190  -31.6920   25.2310 C   0  0  1  0  0  0  0  0  0  0  0  0
  -25.1950  -31.4890   26.2730 C   0  0  0  0  0  1  0  0  0  0  0  0
  -26.8640  -30.2970   24.8450 C   0  0  0  0  0  1  0  0  0  0  0  0
  -27.4790  -32.4480   25.9190 C   0  0  0  0  0  1  0  0  0  0  0  0
  -25.5760  -33.8840   24.2650 N   0  0  0  0  0  0  0  0  0  0  0  0
  -25.9570  -34.9250   23.5120 C   0  0  0  0  0  0  0  0  0  0  0  0
  -26.6530  -34.8010   22.5000 O   0  0  0  0  0  0  0  0  0  0  0  0
  -24.9650  -34.0570   25.0500 H   0  0  0  0  0  0  0  0  0  0  0  0
  -24.2950  -36.7640   23.0870 C   0  0  0  0  0  1  0  0  0  0  0  0
  -25.4900  -36.3270   23.9500 C   0  0  0  0  0  3  0  0  0  0  0  0
  -27.6120  -37.1510   24.8700 C   0  0  0  0  0  1  0  0  0  0  0  0
  -26.5570  -37.3490   23.8780 N   0  0  0  0  0  0  0  0  0  0  0  0
  -26.1720  -38.2810   24.0060 H   0  0  0  0  0  0  0  0  0  0  0  0
  -27.6020  -19.5320   19.8380 O   0  0  0  0  0  0  0  0  0  0  0  0
  -28.8800  -20.1710   19.9020 C   0  0  0  0  0  2  0  0  0  0  0  0
  -29.7420  -19.4640   20.9600 C   0  0  0  0  0  0  0  0  0  0  0  0
  -29.7690  -18.1280   20.9330 N   0  0  0  0  0  0  0  0  0  0  0  0
  -30.3590  -20.1210   21.8020 O   0  0  0  0  0  0  0  0  0  0  0  0
  -29.2850  -17.6660   20.1730 H   0  0  0  0  0  0  0  0  0  0  0  0
  -30.4830  -17.2760   21.8800 C   0  0  0  0  0  2  0  0  0  0  0  0
  -31.3770  -14.2110   19.9620 C   0  0  0  0  0  0  0  0  0  0  0  0
  -30.8930  -12.0100   18.9430 C   0  0  0  0  0  2  0  0  0  0  0  0
  -29.8900  -12.1540   17.7830 C   0  0  0  0  0  2  0  0  0  0  0  0
  -28.4400  -12.1210   18.3000 C   0  0  0  0  0  2  0  0  0  0  0  0
  -28.2160  -13.0740   19.5030 C   0  0  0  0  0  3  0  0  0  0  0  0
  -29.3160  -12.8810   20.5710 C   0  0  0  0  0  2  0  0  0  0  0  0
  -30.6270  -13.0770   19.9190 N   0  0  0  0  0  0  0  0  0  0  0  0
  -32.3750  -14.3700   19.2480 O   0  0  0  0  0  0  0  0  0  0  0  0
  -31.4070  -16.3490   21.0960 C   0  0  0  0  0  0  0  0  0  0  0  0
  -30.9180  -15.1320   20.8230 N   0  0  0  0  0  0  0  0  0  0  0  0
  -32.5020  -16.7830   20.7200 O   0  0  0  0  0  0  0  0  0  0  0  0
  -30.0640  -14.8770   21.2960 H   0  0  0  0  0  0  0  0  0  0  0  0
  -25.9230  -13.8630   20.3780 C   0  0  0  0  0  0  0  0  0  0  0  0
  -24.8260  -13.1700   20.8130 C   0  0  0  0  0  0  0  0  0  0  0  0
  -25.1710  -11.7860   20.7230 C   0  0  0  0  0  0  0  0  0  0  0  0
  -26.8780  -12.9080   20.0660 N   0  0  0  0  0  0  0  0  0  0  0  0
  -26.4290  -11.6530   20.3270 N   0  0  0  0  0  0  0  0  0  0  0  0
  -24.3620  -10.5810   20.9450 C   0  0  0  0  0  0  0  0  0  0  0  0
  -24.7240   -9.6210   21.9150 C   0  0  0  0  0  3  0  0  0  0  0  0
  -23.9200   -8.4780   22.1220 C   0  0  0  0  0  3  0  0  0  0  0  0
  -22.7430   -8.2890   21.3590 C   0  0  0  0  0  0  0  0  0  0  0  0
  -22.4030   -9.2390   20.3800 C   0  0  0  0  0  3  0  0  0  0  0  0
  -23.2050  -10.3720   20.1710 C   0  0  0  0  0  3  0  0  0  0  0  0
  -21.9190   -7.1950   21.4700 O   0  0  0  0  0  0  0  0  0  0  0  0
  -21.7100   -6.5700   22.6740 C   0  0  0  0  0  0  0  0  0  0  0  0
  -21.2020   -7.2620   23.7960 C   0  0  0  0  0  3  0  0  0  0  0  0
  -20.9380   -6.5660   24.9930 C   0  0  0  0  0  3  0  0  0  0  0  0
  -21.1710   -5.1790   25.0650 C   0  0  0  0  0  0  0  0  0  0  0  0
  -21.6720   -4.4870   23.9480 C   0  0  0  0  0  3  0  0  0  0  0  0
  -21.9380   -5.1810   22.7550 C   0  0  0  0  0  0  0  0  0  0  0  0
  -22.4000   -4.5070   21.6740 F   0  0  0  0  0  0  0  0  0  0  0  0
  -20.9150   -4.5070   26.2120 F   0  0  0  0  0  0  0  0  0  0  0  0
  -23.4960  -13.7480   21.2020 C   0  0  0  0  0  0  0  0  0  0  0  0
  -22.8130  -13.1260   22.1550 N   0  0  0  0  0  0  0  0  0  0  0  0
  -23.0770  -14.7850   20.6900 O   0  0  0  0  0  0  0  0  0  0  0  0
  -23.1730  -12.2890   22.5900 H   0  0  0  0  0  0  0  0  0  0  0  0
  -21.9220  -13.4920   22.4610 H   0  0  0  0  0  0  0  0  0  0  0  0
  -26.1820  -15.2210   20.2110 N   0  0  0  0  0  0  0  0  0  0  0  0
  -25.4600  -15.9120   20.3750 H   0  0  0  0  0  0  0  0  0  0  0  0
  -27.0380  -15.6170   19.8430 H   0  0  0  0  0  0  0  0  0  0  0  0
  2  1  1  0
  3  2  1  0
  4  3  1  0
  5  4  1  0
  5  6  1  0
  6  7  1  0
  7  8  1  0
  8  9  1  0
  9 11  1  0
 10 21  2  0
 11 16  1  0
 12 20  1  0
 12 22  1  0
 13 19  1  0
 13 15  1  0
 14 20  1  0
 15 14  1  0
 16 15  2  0
 17 18  1  0
 17 11  2  0
 18 13  2  0
 19 12  1  0
 20 10  1  0
 22 24  2  0
 23 22  1  0
 25 23  1  0
 26 35  2  0
 26 31  1  0
 27 23  1  0
 27 31  1  0
 28 27  1  0
 29 30  1  0
 29 28  1  0
 30 26  1  0
 31 32  2  0
 32 33  1  0
 34 33  2  0
 35 34  1  0
 36 10  1  0
 36 41  1  0
 36 37  1  0
 37 40  1  1
 37 38  1  0
 39 37  1  0
 41 44  1  0
 42 46  1  0
 42 41  1  0
 43 42  2  0
 46 45  1  0
 48 46  1  0
 48 49  1  0
 48 47  1  0
 50  1  1  0
 50 51  1  0
 51 52  1  0
 52 54  2  0
 53 52  1  0
 53 56  1  0
 55 53  1  0
 57 66  1  0
 58 63  1  0
 59 60  1  0
 59 58  1  0
 61 60  1  0
 61 72  1  0
 61 62  1  0
 63 57  1  0
 63 62  1  0
 64 57  2  0
 65 56  1  0
 66 65  1  0
 66 68  1  0
 67 65  2  0
 69 70  2  0
 70 89  1  0
 71 70  1  0
 71 74  1  0
 72 73  1  0
 72 69  1  0
 73 71  2  0
 74 75  1  0
 75 76  2  0
 77 80  1  0
 77 76  1  0
 78 77  2  0
 79 78  1  0
 79 74  2  0
 80 81  1  0
 81 86  2  0
 81 82  1  0
 82 83  2  0
 83 84  1  0
 84 88  1  0
 85 84  2  0
 86 85  1  0
 87 86  1  0
 89 90  1  0
 90 93  1  0
 90 92  1  0
 91 89  2  0
 94 95  1  0
 94 69  1  0
 96 94  1  0
M  ISO  4   8 101   9 101  57 100  66 100
M  END
>  <TORSDO>  (46) 
F 27

>  <SCORE>  (46) 
-10.291

>  <name>  (46) 
45

>  <ligand_id>  (46) 
45

>  <original_smiles>  (46) 
[H]c1c([H])c([H])c2c(c1[H])C([H])([H])C([H])([H])C([H])([H])C2([H])N([H])C(=O)C1([H])N(C(=O)C([H])(N([H])C(=O)C([H])(N([H])C([H])([H])[H])C([H])([H])[H])C(C([H])([H])[H])(C([H])([H])[H])C([H])([H])[H])C([H])([H])c2c([H])c(OC([H])([H])C([H])([H])OC([H])([H])C([H])([H])OC([H])([H])C([H])([H])OC([H])([H])C(=O)N([H])C([H])([H])C(=O)N([H])C(=O)N3C([H])([H])C([H])([H])C([H])([H])C([H])(n4nc(-c5c([H])c([H])c(Oc6c([H])c([H])c(F)c([H])c6F)c([H])c5[H])c(C(=O)N([H])[H])c4N([H])[H])C3([H])[H])c([H])c([H])c2C1([H])[H]

>  <smiles>  (46) 
[H]c1c([H])c([H])c2c(c1[H])C([H])([H])C([H])([H])C([H])([H])C2([H])N([H])C(=O)C1([H])N(C(=O)C([H])(N([H])C(=O)C([H])(N([H])C([H])([H])[H])C([H])([H])[H])C(C([H])([H])[H])(C([H])([H])[H])C([H])([H])[H])C([H])([H])c2c([H])c(OC([H])([H])C([H])([H])OC([H])([H])C([H])([H])OC([H])([H])C([H])([H])OC([H])([H])C(=O)N([H])C([H])([H])C(=O)N([H])C(=O)N3C([H])([H])C([H])([H])C([H])([H])C([H])(n4nc(-c5c([H])c([H])c(Oc6c([H])c([H])c(F)c([H])c6F)c([H])c5[H])c(C(=O)N([H])[H])c4N([H])[H])C3([H])[H])c([H])c([H])c2C1([H])[H]

$$$$
46:0:0
     RDKit          3D

 90 98  0  0  1  0  0  0  0  0999 V2000
  -28.9940  -22.2300   19.4400 C   0  0  0  0  0  2  0  0  0  0  0  0
  -28.4090  -19.8100   20.6080 C   0  0  0  0  0  3  0  0  0  0  0  0
  -30.4640  -19.9350   19.4700 C   0  0  0  0  0  3  0  0  0  0  0  0
  -28.5940  -18.3730   20.7400 C   0  0  0  0  0  3  0  0  0  0  0  0
  -30.6540  -18.4930   19.6050 C   0  0  0  0  0  3  0  0  0  0  0  0
  -29.3260  -20.6870   19.9430 C   0  0  0  0  0  0  0  0  0  0  0  0
  -29.7060  -17.6140   20.2290 C   0  0  0  0  0  0  0  0  0  0  0  0
  -30.5370  -14.9830   19.9650 C   0  0  0  0  0  0  0  0  0  0  0  0
  -30.3770  -12.6640   18.9560 C   0  0  0  0  0  2  0  0  0  0  0  0
  -29.3610  -12.6790   17.7880 C   0  0  0  0  0  2  0  0  0  0  0  0
  -27.9240  -12.4620   18.3050 C   0  0  0  0  0  2  0  0  0  0  0  0
  -27.6040  -13.3380   19.5430 C   0  0  0  0  0  3  0  0  0  0  0  0
  -28.7300  -13.2810   20.5980 C   0  0  0  0  0  2  0  0  0  0  0  0
  -29.9710  -13.7100   19.9340 N   0  0  0  0  0  0  0  0  0  0  0  0
  -31.6940  -15.1110   19.5480 O   0  0  0  0  0  0  0  0  0  0  0  0
  -29.7250  -16.0830   20.3340 N   0  0  0  0  0  0  0  0  0  0  0  0
  -28.8660  -15.7280   20.7270 H   0  0  0  0  0  0  0  0  0  0  0  0
  -25.2690  -13.8990   20.4360 C   0  0  0  0  0  0  0  0  0  0  0  0
  -24.2290  -13.1140   20.8520 C   0  0  0  0  0  0  0  0  0  0  0  0
  -24.6900  -11.7640   20.7560 C   0  0  0  0  0  0  0  0  0  0  0  0
  -26.2960  -13.0290   20.1110 N   0  0  0  0  0  0  0  0  0  0  0  0
  -25.9590  -11.7370   20.3660 N   0  0  0  0  0  0  0  0  0  0  0  0
  -23.9740  -10.4970   20.9580 C   0  0  0  0  0  0  0  0  0  0  0  0
  -24.4290   -9.5300   21.8820 C   0  0  0  0  0  3  0  0  0  0  0  0
  -23.7130   -8.3290   22.0710 C   0  0  0  0  0  3  0  0  0  0  0  0
  -22.5280   -8.0850   21.3360 C   0  0  0  0  0  0  0  0  0  0  0  0
  -22.0920   -9.0400   20.4010 C   0  0  0  0  0  3  0  0  0  0  0  0
  -22.8090  -10.2340   20.2100 C   0  0  0  0  0  3  0  0  0  0  0  0
  -21.7810   -6.9350   21.4360 O   0  0  0  0  0  0  0  0  0  0  0  0
  -21.7180   -6.2170   22.6030 C   0  0  0  0  0  0  0  0  0  0  0  0
  -21.2330   -6.7830   23.8010 C   0  0  0  0  0  3  0  0  0  0  0  0
  -21.1210   -5.9890   24.9600 C   0  0  0  0  0  3  0  0  0  0  0  0
  -21.4820   -4.6300   24.9200 C   0  0  0  0  0  0  0  0  0  0  0  0
  -21.9610   -4.0620   23.7260 C   0  0  0  0  0  3  0  0  0  0  0  0
  -22.0750   -4.8540   22.5700 C   0  0  0  0  0  0  0  0  0  0  0  0
  -22.5160   -4.2960   21.4160 F   0  0  0  0  0  0  0  0  0  0  0  0
  -21.3680   -3.8640   26.0310 F   0  0  0  0  0  0  0  0  0  0  0  0
  -22.8510  -13.5830   21.2210 C   0  0  0  0  0  0  0  0  0  0  0  0
  -22.1770  -12.8630   22.1110 N   0  0  0  0  0  0  0  0  0  0  0  0
  -22.3840  -14.6210   20.7550 O   0  0  0  0  0  0  0  0  0  0  0  0
  -22.5690  -12.0220   22.5070 H   0  0  0  0  0  0  0  0  0  0  0  0
  -21.2550  -13.1580   22.4000 H   0  0  0  0  0  0  0  0  0  0  0  0
  -25.4210  -15.2740   20.2830 N   0  0  0  0  0  0  0  0  0  0  0  0
  -24.6530  -15.9170   20.4450 H   0  0  0  0  0  0  0  0  0  0  0  0
  -26.2250  -15.7200   19.8610 H   0  0  0  0  0  0  0  0  0  0  0  0
  -28.2790  -24.8220   19.5110 C   0  0  0  0  0  0  0  0  0  0  0  0
  -28.7940  -23.6100   20.1750 N   0  0  0  0  0  0  0  0  0  0  0  0
  -27.8980  -24.7550   18.3420 O   0  0  0  0  0  0  0  0  0  0  0  0
  -29.1010  -23.7210   21.1320 H   0  0  0  0  0  0  0  0  0  0  0  0
  -28.2330  -26.1740   20.2510 O   0  0  0  0  0  0  0  0  0  0  0  0
  -24.6400  -31.8920   23.1930 C   0  0  0  0  0  0  0  0  0  0  0  0
  -27.2020  -27.1850   20.1230 C   0  0  0  0  0  0  0  0  0  0  0  0
  -23.4290  -30.4990   21.5620 C   0  0  0  0  0  3  0  0  0  0  0  0
  -24.8680  -28.9360   20.1200 C   0  0  0  0  0  0  0  0  0  0  0  0
  -25.9840  -30.7650   21.3800 C   0  0  0  0  0  2  0  0  0  0  0  0
  -26.0530  -29.3770   20.7220 C   0  0  0  0  0  0  0  0  0  0  0  0
  -27.2170  -28.5160   20.7120 C   0  0  0  0  0  3  0  0  0  0  0  0
  -25.9790  -26.8520   19.4900 C   0  0  0  0  0  3  0  0  0  0  0  0
  -24.8440  -27.6860   19.4900 C   0  0  0  0  0  3  0  0  0  0  0  0
  -23.6390  -29.8290   20.1800 C   0  0  0  0  0  2  0  0  0  0  0  0
  -24.7050  -31.0730   22.0990 N   0  0  0  0  0  0  0  0  0  0  0  0
  -23.5570  -32.1760   23.7280 O   0  0  0  0  0  0  0  0  0  0  0  0
  -22.7580  -29.4880   22.5260 C   0  0  0  0  0  0  0  0  0  0  0  0
  -21.4310  -29.3070   22.4020 N   0  0  0  0  0  0  0  0  0  0  0  0
  -23.4340  -28.8700   23.3530 O   0  0  0  0  0  0  0  0  0  0  0  0
  -20.9410  -29.8580   21.7100 H   0  0  0  0  0  0  0  0  0  0  0  0
  -18.0610  -28.0730   22.8990 C   0  0  0  0  0  0  0  0  0  0  0  0
  -20.6150  -28.3680   23.1780 C   0  0  0  0  0  3  0  0  0  0  0  0
  -20.7370  -26.9320   22.6210 C   0  0  0  0  0  2  0  0  0  0  0  0
  -19.6460  -26.5840   21.6030 C   0  0  0  0  0  2  0  0  0  0  0  0
  -18.2580  -26.7200   22.2380 C   0  0  0  0  0  2  0  0  0  0  0  0
  -19.1680  -28.8540   23.3260 C   0  0  0  0  0  0  0  0  0  0  0  0
  -18.9280  -30.1200   23.9050 C   0  0  0  0  0  3  0  0  0  0  0  0
  -17.6160  -30.6040   24.0610 C   0  0  0  0  0  3  0  0  0  0  0  0
  -16.5240  -29.8210   23.6480 C   0  0  0  0  0  3  0  0  0  0  0  0
  -16.7470  -28.5580   23.0730 C   0  0  0  0  0  3  0  0  0  0  0  0
  -25.9220  -32.5300   23.8090 C   0  0  0  0  0  3  0  0  0  0  0  0
  -25.6070  -33.9250   24.1540 N   0  0  0  0  0  0  0  0  0  0  0  0
  -25.9080  -34.9870   23.3930 C   0  0  0  0  0  0  0  0  0  0  0  0
  -26.5480  -34.8950   22.3420 O   0  0  0  0  0  0  0  0  0  0  0  0
  -25.0350  -34.0700   24.9730 H   0  0  0  0  0  0  0  0  0  0  0  0
  -24.1540  -36.7690   23.1100 C   0  0  0  0  0  1  0  0  0  0  0  0
  -25.4270  -36.3700   23.8760 C   0  0  0  0  0  3  0  0  0  0  0  0
  -27.5760  -37.2760   24.6430 C   0  0  0  0  0  1  0  0  0  0  0  0
  -26.4460  -37.4330   23.7310 N   0  0  0  0  0  0  0  0  0  0  0  0
  -26.0350  -38.3500   23.8890 H   0  0  0  0  0  0  0  0  0  0  0  0
  -26.4470  -31.7560   25.0800 C   0  0  1  0  0  0  0  0  0  0  0  0
  -25.3600  -31.5090   26.1530 C   0  0  0  0  0  1  0  0  0  0  0  0
  -27.0340  -30.3810   24.6840 C   0  0  0  0  0  1  0  0  0  0  0  0
  -27.5980  -32.5510   25.7400 C   0  0  0  0  0  1  0  0  0  0  0  0
  1  6  1  0
  1 47  1  0
  2  4  1  0
  3  5  2  0
  3  6  1  0
  5  7  1  0
  6  2  2  0
  7 16  1  0
  7  4  2  0
  8 16  1  0
  9 14  1  0
 10 11  1  0
 10  9  1  0
 12 11  1  0
 12 21  1  0
 12 13  1  0
 14  8  1  0
 14 13  1  0
 15  8  2  0
 16 17  1  0
 18 19  2  0
 19 38  1  0
 20 19  1  0
 20 23  1  0
 21 22  1  0
 21 18  1  0
 22 20  2  0
 23 24  1  0
 24 25  2  0
 26 29  1  0
 26 25  1  0
 27 26  2  0
 28 27  1  0
 28 23  2  0
 29 30  1  0
 30 31  1  0
 31 32  2  0
 33 32  1  0
 33 37  1  0
 34 33  2  0
 35 30  2  0
 35 34  1  0
 36 35  1  0
 38 39  1  0
 39 42  1  0
 39 41  1  0
 40 38  2  0
 43 18  1  0
 43 44  1  0
 45 43  1  0
 46 47  1  0
 46 50  1  0
 47 49  1  0
 48 46  2  0
 51 62  2  0
 52 50  1  0
 52 57  1  0
 53 61  1  0
 53 63  1  0
 54 60  1  0
 54 56  1  0
 55 61  1  0
 56 55  1  0
 57 56  2  0
 58 52  2  0
 59 58  1  0
 59 54  2  0
 60 53  1  0
 61 51  1  0
 63 65  2  0
 64 63  1  0
 66 64  1  0
 67 76  2  0
 67 72  1  0
 68 64  1  0
 68 72  1  0
 69 68  1  0
 70 71  1  0
 70 69  1  0
 71 67  1  0
 72 73  2  0
 73 74  1  0
 75 74  2  0
 76 75  1  0
 77 51  1  0
 77 78  1  0
 77 87  1  0
 78 81  1  0
 79 83  1  0
 79 78  1  0
 80 79  2  0
 83 82  1  0
 85 83  1  0
 85 86  1  0
 85 84  1  0
 87 90  1  1
 87 88  1  0
 89 87  1  0
M  ISO  4   8 100  16 100  46 101  50 101
M  END
>  <TORSDO>  (47) 
F 18

>  <SCORE>  (47) 
-14.347

>  <name>  (47) 
46

>  <ligand_id>  (47) 
46

>  <original_smiles>  (47) 
[H]c1c([H])c([H])c2c(c1[H])C([H])([H])C([H])([H])C([H])([H])C2([H])N([H])C(=O)C1([H])N(C(=O)C([H])(N([H])C(=O)C([H])(N([H])C([H])([H])[H])C([H])([H])[H])C(C([H])([H])[H])(C([H])([H])[H])C([H])([H])[H])C([H])([H])c2c([H])c(OC(=O)N([H])C([H])([H])c3c([H])c([H])c(N([H])C(=O)N4C([H])([H])C([H])([H])C([H])([H])C([H])(n5nc(-c6c([H])c([H])c(Oc7c([H])c([H])c(F)c([H])c7F)c([H])c6[H])c(C(=O)N([H])[H])c5N([H])[H])C4([H])[H])c([H])c3[H])c([H])c([H])c2C1([H])[H]

>  <smiles>  (47) 
[H]c1c([H])c([H])c2c(c1[H])C([H])([H])C([H])([H])C([H])([H])C2([H])N([H])C(=O)C1([H])N(C(=O)C([H])(N([H])C(=O)C([H])(N([H])C([H])([H])[H])C([H])([H])[H])C(C([H])([H])[H])(C([H])([H])[H])C([H])([H])[H])C([H])([H])c2c([H])c(OC(=O)N([H])C([H])([H])c3c([H])c([H])c(N([H])C(=O)N4C([H])([H])C([H])([H])C([H])([H])C([H])(n5nc(-c6c([H])c([H])c(Oc7c([H])c([H])c(F)c([H])c7F)c([H])c6[H])c(C(=O)N([H])[H])c5N([H])[H])C4([H])[H])c([H])c3[H])c([H])c([H])c2C1([H])[H]

$$$$
47:0:0
     RDKit          3D

 81 85  0  0  1  0  0  0  0  0999 V2000
  -28.1090  -24.6470   20.3000 O   0  0  0  0  0  1  0  0  0  0  0  0
  -24.7100  -31.7810   23.1610 C   0  0  0  0  0  0  0  0  0  0  0  0
  -27.2070  -26.1440   20.2640 C   0  0  0  0  0  0  0  0  0  0  0  0
  -23.5560  -30.3680   21.5220 C   0  0  0  0  0  3  0  0  0  0  0  0
  -25.0090  -28.5810   20.1690 C   0  0  0  0  0  0  0  0  0  0  0  0
  -26.1560  -30.3130   21.5020 C   0  0  0  0  0  2  0  0  0  0  0  0
  -26.2110  -28.8120   20.8490 C   0  0  0  0  0  0  0  0  0  0  0  0
  -27.2590  -27.6460   20.8460 C   0  0  0  0  0  3  0  0  0  0  0  0
  -25.9680  -26.2870   19.5230 C   0  0  0  0  0  3  0  0  0  0  0  0
  -24.9660  -27.3480   19.4800 C   0  0  0  0  0  3  0  0  0  0  0  0
  -23.8360  -29.6140   20.1780 C   0  0  0  0  0  2  0  0  0  0  0  0
  -24.8390  -30.8700   22.1140 N   0  0  0  0  0  0  0  0  0  0  0  0
  -23.6010  -32.1150   23.6230 O   0  0  0  0  0  0  0  0  0  0  0  0
  -22.7620  -29.4580   22.5040 C   0  0  0  0  0  0  0  0  0  0  0  0
  -21.4220  -29.3560   22.3730 N   0  0  0  0  0  0  0  0  0  0  0  0
  -23.3780  -28.8290   23.3670 O   0  0  0  0  0  0  0  0  0  0  0  0
  -20.9670  -29.9120   21.6630 H   0  0  0  0  0  0  0  0  0  0  0  0
  -17.9970  -28.2130   22.9010 C   0  0  0  0  0  0  0  0  0  0  0  0
  -20.5670  -28.4380   23.1430 C   0  0  0  0  0  3  0  0  0  0  0  0
  -20.6330  -27.0060   22.5600 C   0  0  0  0  0  2  0  0  0  0  0  0
  -19.5210  -26.7160   21.5460 C   0  0  0  0  0  2  0  0  0  0  0  0
  -18.1460  -26.8740   22.1990 C   0  0  0  0  0  2  0  0  0  0  0  0
  -19.1320  -28.9550   23.3290 C   0  0  0  0  0  0  0  0  0  0  0  0
  -18.9320  -30.2040   23.9560 C   0  0  0  0  0  3  0  0  0  0  0  0
  -17.6350  -30.7130   24.1530 C   0  0  0  0  0  3  0  0  0  0  0  0
  -16.5160  -29.9710   23.7350 C   0  0  0  0  0  3  0  0  0  0  0  0
  -16.6980  -28.7220   23.1160 C   0  0  0  0  0  3  0  0  0  0  0  0
  -25.9400  -32.4590   23.8420 C   0  0  0  0  0  3  0  0  0  0  0  0
  -25.5980  -33.8650   24.1720 N   0  0  0  0  0  0  0  0  0  0  0  0
  -25.9200  -34.9450   23.4450 C   0  0  0  0  0  0  0  0  0  0  0  0
  -26.5760  -34.8640   22.4040 O   0  0  0  0  0  0  0  0  0  0  0  0
  -25.0070  -33.9990   24.9800 H   0  0  0  0  0  0  0  0  0  0  0  0
  -24.1680  -36.7480   23.1980 C   0  0  0  0  0  1  0  0  0  0  0  0
  -25.4480  -36.3330   23.9420 C   0  0  0  0  0  3  0  0  0  0  0  0
  -27.6060  -37.2470   24.6880 C   0  0  0  0  0  1  0  0  0  0  0  0
  -26.4650  -37.3980   23.7880 N   0  0  0  0  0  0  0  0  0  0  0  0
  -26.0550  -38.3150   23.9480 H   0  0  0  0  0  0  0  0  0  0  0  0
  -26.3960  -31.7200   25.1620 C   0  0  1  0  0  0  0  0  0  0  0  0
  -25.2580  -31.5140   26.1910 C   0  0  0  0  0  1  0  0  0  0  0  0
  -26.9880  -30.3300   24.8490 C   0  0  0  0  0  1  0  0  0  0  0  0
  -27.5230  -32.5250   25.8520 C   0  0  0  0  0  1  0  0  0  0  0  0
  -28.1400  -22.5480   20.1630 C   0  0  0  0  0 15  0  0  0  0  0  0
  -29.1420  -20.4180   20.2160 C   0  0  0  0  0 15  0  0  0  0  0  0
  -29.9010  -16.6470   20.0860 C   0  0  0  0  0  0  0  0  0  0  0  0
  -30.2300  -13.8900   19.2940 C   0  0  0  0  0  2  0  0  0  0  0  0
  -29.4480  -13.0530   18.1990 C   0  0  0  0  0  2  0  0  0  0  0  0
  -28.1340  -12.4820   18.7300 C   0  0  0  0  0  2  0  0  0  0  0  0
  -27.5010  -13.5140   19.6750 C   0  0  0  0  0  3  0  0  0  0  0  0
  -28.4750  -14.2100   20.6950 C   0  0  0  0  0  2  0  0  0  0  0  0
  -29.4550  -15.1290   19.9600 N   0  0  0  0  0  0  0  0  0  0  0  0
  -31.1430  -16.3980   20.0040 O   0  0  0  0  0  0  0  0  0  0  0  0
  -29.2570  -18.3100   20.1340 N   0  0  0  0  0  2  0  0  0  0  0  0
  -30.2580  -18.4710   20.1320 H   0  0  0  0  0  0  0  0  0  0  0  0
  -25.1600  -13.9200   20.5080 C   0  0  0  0  0  0  0  0  0  0  0  0
  -24.1280  -13.1120   20.8810 C   0  0  0  0  0  0  0  0  0  0  0  0
  -24.6260  -11.7720   20.8220 C   0  0  0  0  0  0  0  0  0  0  0  0
  -26.2240  -13.0860   20.2420 N   0  0  0  0  0  0  0  0  0  0  0  0
  -25.9190  -11.7780   20.4820 N   0  0  0  0  0  0  0  0  0  0  0  0
  -23.9140  -10.4950   21.0120 C   0  0  0  0  0  0  0  0  0  0  0  0
  -24.3570   -9.5290   21.9420 C   0  0  0  0  0  3  0  0  0  0  0  0
  -23.6350   -8.3280   22.1300 C   0  0  0  0  0  3  0  0  0  0  0  0
  -22.4560   -8.0830   21.3870 C   0  0  0  0  0  0  0  0  0  0  0  0
  -22.0290   -9.0390   20.4470 C   0  0  0  0  0  3  0  0  0  0  0  0
  -22.7510  -10.2310   20.2590 C   0  0  0  0  0  3  0  0  0  0  0  0
  -21.7070   -6.9350   21.4820 O   0  0  0  0  0  0  0  0  0  0  0  0
  -21.6700   -6.1910   22.6350 C   0  0  0  0  0  0  0  0  0  0  0  0
  -21.2140   -6.7320   23.8560 C   0  0  0  0  0  3  0  0  0  0  0  0
  -21.1260   -5.9140   25.0000 C   0  0  0  0  0  3  0  0  0  0  0  0
  -21.4850   -4.5540   24.9250 C   0  0  0  0  0  0  0  0  0  0  0  0
  -21.9340   -4.0110   23.7070 C   0  0  0  0  0  3  0  0  0  0  0  0
  -22.0220   -4.8270   22.5660 C   0  0  0  0  0  0  0  0  0  0  0  0
  -22.4340   -4.2930   21.3900 F   0  0  0  0  0  0  0  0  0  0  0  0
  -21.3950   -3.7660   26.0220 F   0  0  0  0  0  0  0  0  0  0  0  0
  -22.7270  -13.5620   21.1730 C   0  0  0  0  0  0  0  0  0  0  0  0
  -22.0260  -12.8570   22.0520 N   0  0  0  0  0  0  0  0  0  0  0  0
  -22.2670  -14.5820   20.6590 O   0  0  0  0  0  0  0  0  0  0  0  0
  -22.4140  -12.0340   22.4890 H   0  0  0  0  0  0  0  0  0  0  0  0
  -21.0880  -13.1430   22.2910 H   0  0  0  0  0  0  0  0  0  0  0  0
  -25.2790  -15.2960   20.3350 N   0  0  0  0  0  0  0  0  0  0  0  0
  -24.4980  -15.9290   20.4650 H   0  0  0  0  0  0  0  0  0  0  0  0
  -26.1180  -15.7610   20.0090 H   0  0  0  0  0  0  0  0  0  0  0  0
  2 13  2  0
  3  1  1  0
  3  8  1  0
  4 12  1  0
  4 14  1  0
  5 11  1  0
  5  7  1  0
  6 12  1  0
  7  6  1  0
  8  7  2  0
  9  3  2  0
 10  9  1  0
 10  5  2  0
 11  4  1  0
 12  2  1  0
 14 16  2  0
 15 14  1  0
 17 15  1  0
 18 27  2  0
 18 23  1  0
 19 15  1  0
 19 23  1  0
 20 19  1  0
 21 22  1  0
 21 20  1  0
 22 18  1  0
 23 24  2  0
 24 25  1  0
 26 25  2  0
 27 26  1  0
 28  2  1  0
 28 29  1  0
 28 38  1  0
 29 32  1  0
 30 34  1  0
 30 29  1  0
 31 30  2  0
 34 33  1  0
 36 34  1  0
 36 37  1  0
 36 35  1  0
 38 41  1  1
 38 39  1  0
 40 38  1  0
 44 52  1  0
 45 50  1  0
 46 47  1  0
 46 45  1  0
 48 47  1  0
 48 57  1  0
 48 49  1  0
 50 44  1  0
 50 49  1  0
 51 44  2  0
 53 52  1  0
 54 55  2  0
 55 74  1  0
 56 55  1  0
 56 59  1  0
 57 58  1  0
 57 54  1  0
 58 56  2  0
 59 60  1  0
 60 61  2  0
 62 65  1  0
 62 61  1  0
 63 62  2  0
 64 63  1  0
 64 59  2  0
 65 66  1  0
 66 67  1  0
 67 68  2  0
 69 68  1  0
 69 73  1  0
 70 69  2  0
 71 66  2  0
 71 70  1  0
 72 71  1  0
 74 75  1  0
 75 78  1  0
 75 77  1  0
 76 74  2  0
 79 80  1  0
 79 54  1  0
 81 79  1  0
M  ISO  4   1 101  42 101  44 100  52 100
M  END
>  <TORSDO>  (48) 
F 17

>  <SCORE>  (48) 
-16.141

>  <name>  (48) 
47

>  <ligand_id>  (48) 
47

>  <original_smiles>  (48) 
[H]c1c([H])c([H])c2c(c1[H])C([H])([H])C([H])([H])C([H])([H])C2([H])N([H])C(=O)C1([H])N(C(=O)C([H])(N([H])C(=O)C([H])(N([H])C([H])([H])[H])C([H])([H])[H])C(C([H])([H])[H])(C([H])([H])[H])C([H])([H])[H])C([H])([H])c2c([H])c(OC([H])([H])C([H])([H])N([H])C(=O)N3C([H])([H])C([H])([H])C([H])([H])C([H])(n4nc(-c5c([H])c([H])c(Oc6c([H])c([H])c(F)c([H])c6F)c([H])c5[H])c(C(=O)N([H])[H])c4N([H])[H])C3([H])[H])c([H])c([H])c2C1([H])[H]

>  <smiles>  (48) 
[H]c1c([H])c([H])c2c(c1[H])C([H])([H])C([H])([H])C([H])([H])C2([H])N([H])C(=O)C1([H])N(C(=O)C([H])(N([H])C(=O)C([H])(N([H])C([H])([H])[H])C([H])([H])[H])C(C([H])([H])[H])(C([H])([H])[H])C([H])([H])[H])C([H])([H])c2c([H])c(OC([H])([H])C([H])([H])N([H])C(=O)N3C([H])([H])C([H])([H])C([H])([H])C([H])(n4nc(-c5c([H])c([H])c(Oc6c([H])c([H])c(F)c([H])c6F)c([H])c5[H])c(C(=O)N([H])[H])c4N([H])[H])C3([H])[H])c([H])c([H])c2C1([H])[H]

$$$$
48:0:0
     RDKit          3D

100107  0  0  1  0  0  0  0  0999 V2000
  -23.3510  -23.7040   19.3760 C   0  0  0  0  0  2  0  0  0  0  0  0
  -23.9510  -23.6140   20.6630 O   0  0  0  0  0  0  0  0  0  0  0  0
  -23.5780  -24.6820   21.5240 C   0  0  0  0  0  2  0  0  0  0  0  0
  -24.3360  -24.6210   22.8620 C   0  0  0  0  0  2  0  0  0  0  0  0
  -25.6780  -25.0950   22.7850 O   0  0  0  0  0  0  0  0  0  0  0  0
  -26.5990  -24.1470   22.2630 C   0  0  0  0  0  2  0  0  0  0  0  0
  -28.0350  -24.6440   22.4580 C   0  0  0  0  0  2  0  0  0  0  0  0
  -28.1690  -25.8310   21.6930 O   0  0  0  0  0  0  0  0  0  0  0  0
  -29.4440  -26.0090   21.1040 C   0  0  0  0  0  2  0  0  0  0  0  0
  -29.3930  -27.3030   20.2850 C   0  0  0  0  0  2  0  0  0  0  0  0
  -28.3560  -27.1890   19.3010 O   0  0  0  0  0  0  0  0  0  0  0  0
  -24.4790  -31.7390   23.1940 C   0  0  0  0  0  0  0  0  0  0  0  0
  -27.1740  -27.8690   19.5050 C   0  0  0  0  0  0  0  0  0  0  0  0
  -23.2480  -30.5060   21.4330 C   0  0  0  0  0  3  0  0  0  0  0  0
  -24.7000  -29.2200   19.7700 C   0  0  0  0  0  0  0  0  0  0  0  0
  -25.7350  -31.0120   21.1750 C   0  0  0  0  0  2  0  0  0  0  0  0
  -25.8520  -29.7320   20.3800 C   0  0  0  0  0  0  0  0  0  0  0  0
  -27.0860  -29.0720   20.2480 C   0  0  0  0  0  3  0  0  0  0  0  0
  -26.0080  -27.3660   18.8890 C   0  0  0  0  0  3  0  0  0  0  0  0
  -24.7730  -28.0370   19.0130 C   0  0  0  0  0  3  0  0  0  0  0  0
  -23.4230  -30.0080   19.9700 C   0  0  0  0  0  2  0  0  0  0  0  0
  -24.5080  -31.0920   21.9950 N   0  0  0  0  0  0  0  0  0  0  0  0
  -23.4180  -31.8900   23.8150 O   0  0  0  0  0  0  0  0  0  0  0  0
  -22.6820  -29.3490   22.2870 C   0  0  0  0  0  0  0  0  0  0  0  0
  -21.3590  -29.1270   22.1930 N   0  0  0  0  0  0  0  0  0  0  0  0
  -23.4240  -28.6600   22.9900 O   0  0  0  0  0  0  0  0  0  0  0  0
  -20.8150  -29.7540   21.6160 H   0  0  0  0  0  0  0  0  0  0  0  0
  -18.0800  -27.6610   22.5760 C   0  0  0  0  0  0  0  0  0  0  0  0
  -20.6150  -28.0630   22.8670 C   0  0  0  0  0  3  0  0  0  0  0  0
  -20.8110  -26.7100   22.1490 C   0  0  0  0  0  2  0  0  0  0  0  0
  -19.7230  -26.4100   21.1150 C   0  0  0  0  0  2  0  0  0  0  0  0
  -18.3420  -26.3950   21.7750 C   0  0  0  0  0  2  0  0  0  0  0  0
  -19.1490  -28.4530   23.0740 C   0  0  0  0  0  0  0  0  0  0  0  0
  -18.8540  -29.6410   23.7770 C   0  0  0  0  0  3  0  0  0  0  0  0
  -17.5220  -30.0360   23.9950 C   0  0  0  0  0  3  0  0  0  0  0  0
  -16.4670  -29.2390   23.5170 C   0  0  0  0  0  3  0  0  0  0  0  0
  -16.7470  -28.0540   22.8120 C   0  0  0  0  0  3  0  0  0  0  0  0
  -25.7700  -32.3420   23.8310 C   0  0  0  0  0  3  0  0  0  0  0  0
  -25.4940  -33.7460   24.1610 N   0  0  0  0  0  0  0  0  0  0  0  0
  -25.8730  -34.7910   23.4110 C   0  0  0  0  0  0  0  0  0  0  0  0
  -26.5660  -34.6740   22.3980 O   0  0  0  0  0  0  0  0  0  0  0  0
  -24.8880  -33.9140   24.9500 H   0  0  0  0  0  0  0  0  0  0  0  0
  -24.2020  -36.6260   23.0080 C   0  0  0  0  0  1  0  0  0  0  0  0
  -25.4060  -36.1910   23.8570 C   0  0  0  0  0  3  0  0  0  0  0  0
  -27.5360  -37.0200   24.7540 C   0  0  0  0  0  1  0  0  0  0  0  0
  -26.4670  -37.2180   23.7800 N   0  0  0  0  0  0  0  0  0  0  0  0
  -26.0790  -38.1460   23.9250 H   0  0  0  0  0  0  0  0  0  0  0  0
  -26.2610  -31.5470   25.1010 C   0  0  1  0  0  0  0  0  0  0  0  0
  -25.1650  -31.3320   26.1700 C   0  0  0  0  0  1  0  0  0  0  0  0
  -26.8070  -30.1560   24.6970 C   0  0  0  0  0  1  0  0  0  0  0  0
  -27.4260  -32.3080   25.7750 C   0  0  0  0  0  1  0  0  0  0  0  0
  -23.7020  -22.4710   18.5250 C   0  0  0  0  0  2  0  0  0  0  0  0
  -25.0700  -22.5690   17.8310 C   0  0  0  0  0  2  0  0  0  0  0  0
  -26.0660  -22.2360   18.7840 O   0  0  0  0  0  0  0  0  0  0  0  0
  -27.3810  -22.6300   18.4320 C   0  0  0  0  0  2  0  0  0  0  0  0
  -28.2750  -22.1790   19.5920 C   0  0  0  0  0  2  0  0  0  0  0  0
  -29.5660  -22.7580   19.4960 O   0  0  0  0  0  0  0  0  0  0  0  0
  -30.3870  -22.4310   20.6130 C   0  0  0  0  0  2  0  0  0  0  0  0
  -31.8170  -22.9410   20.3690 C   0  0  0  0  0  2  0  0  0  0  0  0
  -32.6030  -22.0220   19.6050 O   0  0  0  0  0  0  0  0  0  0  0  0
  -32.2150  -21.9340   18.2360 C   0  0  0  0  0  2  0  0  0  0  0  0
  -33.4020  -21.4910   17.3740 C   0  0  0  0  0  2  0  0  0  0  0  0
  -34.5640  -19.4490   16.6920 C   0  0  0  0  0  0  0  0  0  0  0  0
  -35.0880  -17.2720   15.6790 C   0  0  0  0  0  2  0  0  0  0  0  0
  -33.8520  -16.7610   14.9110 C   0  0  0  0  0  2  0  0  0  0  0  0
  -32.9020  -15.9900   15.8510 C   0  0  0  0  0  2  0  0  0  0  0  0
  -32.6120  -16.7450   17.1780 C   0  0  0  0  0  3  0  0  0  0  0  0
  -33.9160  -17.2800   17.8070 C   0  0  0  0  0  2  0  0  0  0  0  0
  -34.6120  -18.0970   16.7990 N   0  0  0  0  0  0  0  0  0  0  0  0
  -35.1200  -20.0750   15.7870 O   0  0  0  0  0  0  0  0  0  0  0  0
  -33.7640  -20.0840   17.5540 N   0  0  0  0  0  0  0  0  0  0  0  0
  -33.3090  -19.5530   18.2850 H   0  0  0  0  0  0  0  0  0  0  0  0
  -30.6780  -16.1750   18.7810 C   0  0  0  0  0  0  0  0  0  0  0  0
  -30.3770  -15.0440   19.4880 C   0  0  0  0  0  0  0  0  0  0  0  0
  -31.4230  -14.1120   19.2050 C   0  0  0  0  0  0  0  0  0  0  0  0
  -31.8650  -15.9090   18.1170 N   0  0  0  0  0  0  0  0  0  0  0  0
  -32.3350  -14.6710   18.4200 N   0  0  0  0  0  0  0  0  0  0  0  0
  -31.5750  -12.7010   19.5860 C   0  0  0  0  0  0  0  0  0  0  0  0
  -32.7610  -12.2240   20.1860 C   0  0  0  0  0  3  0  0  0  0  0  0
  -32.8810  -10.8680   20.5580 C   0  0  0  0  0  3  0  0  0  0  0  0
  -31.8050   -9.9740   20.3360 C   0  0  0  0  0  0  0  0  0  0  0  0
  -30.6370  -10.4480   19.7140 C   0  0  0  0  0  3  0  0  0  0  0  0
  -30.5230  -11.7980   19.3400 C   0  0  0  0  0  3  0  0  0  0  0  0
  -31.8410   -8.6340   20.6400 O   0  0  0  0  0  0  0  0  0  0  0  0
  -32.6810   -8.1340   21.6020 C   0  0  0  0  0  0  0  0  0  0  0  0
  -32.6270   -8.5780   22.9410 C   0  0  0  0  0  3  0  0  0  0  0  0
  -33.4650   -7.9910   23.9120 C   0  0  0  0  0  3  0  0  0  0  0  0
  -34.3450   -6.9550   23.5470 C   0  0  0  0  0  0  0  0  0  0  0  0
  -34.3950   -6.5060   22.2170 C   0  0  0  0  0  3  0  0  0  0  0  0
  -33.5630   -7.0940   21.2470 C   0  0  0  0  0  0  0  0  0  0  0  0
  -33.6010   -6.6460   19.9690 F   0  0  0  0  0  0  0  0  0  0  0  0
  -35.1420   -6.3840   24.4820 F   0  0  0  0  0  0  0  0  0  0  0  0
  -29.1380  -14.7970   20.3020 C   0  0  0  0  0  0  0  0  0  0  0  0
  -29.2450  -14.0140   21.3700 N   0  0  0  0  0  0  0  0  0  0  0  0
  -28.0710  -15.3390   20.0180 O   0  0  0  0  0  0  0  0  0  0  0  0
  -30.1230  -13.5890   21.6230 H   0  0  0  0  0  0  0  0  0  0  0  0
  -28.4300  -13.8380   21.9400 H   0  0  0  0  0  0  0  0  0  0  0  0
  -30.0360  -17.4040   18.6360 N   0  0  0  0  0  0  0  0  0  0  0  0
  -29.1410  -17.5910   19.0750 H   0  0  0  0  0  0  0  0  0  0  0  0
  -30.3360  -18.1470   18.0180 H   0  0  0  0  0  0  0  0  0  0  0  0
  1  2  1  0
  2  3  1  0
  3  4  1  0
  5  4  1  0
  6  7  1  0
  6  5  1  0
  8  7  1  0
  9  8  1  0
 10  9  1  0
 11 13  1  0
 11 10  1  0
 12 23  2  0
 13 18  1  0
 14 22  1  0
 14 24  1  0
 15 21  1  0
 15 17  1  0
 16 22  1  0
 17 16  1  0
 18 17  2  0
 19 20  1  0
 19 13  2  0
 20 15  2  0
 21 14  1  0
 22 12  1  0
 24 26  2  0
 25 24  1  0
 27 25  1  0
 28 37  2  0
 28 33  1  0
 29 25  1  0
 29 33  1  0
 30 29  1  0
 31 32  1  0
 31 30  1  0
 32 28  1  0
 33 34  2  0
 34 35  1  0
 36 35  2  0
 37 36  1  0
 38 12  1  0
 38 39  1  0
 38 48  1  0
 39 42  1  0
 40 44  1  0
 40 39  1  0
 41 40  2  0
 44 43  1  0
 46 44  1  0
 46 47  1  0
 46 45  1  0
 48 51  1  1
 48 49  1  0
 50 48  1  0
 52  1  1  0
 53 52  1  0
 53 54  1  0
 55 54  1  0
 55 56  1  0
 57 56  1  0
 57 58  1  0
 59 58  1  0
 60 59  1  0
 61 60  1  0
 62 71  1  0
 62 61  1  0
 63 69  1  0
 63 71  1  0
 64 69  1  0
 65 64  1  0
 65 66  1  0
 67 66  1  0
 67 68  1  0
 67 76  1  0
 69 68  1  0
 70 63  2  0
 71 72  1  0
 73 74  2  0
 74 93  1  0
 75 74  1  0
 75 78  1  0
 76 77  1  0
 76 73  1  0
 77 75  2  0
 78 79  1  0
 79 80  2  0
 81 80  1  0
 81 84  1  0
 82 81  2  0
 83 78  2  0
 83 82  1  0
 84 85  1  0
 85 86  1  0
 86 87  2  0
 88 87  1  0
 88 92  1  0
 89 88  2  0
 90 85  2  0
 90 89  1  0
 91 90  1  0
 93 94  1  0
 94 96  1  0
 94 97  1  0
 95 93  2  0
 98 73  1  0
 98 99  1  0
100 98  1  0
M  ISO  4  10 101  11 101  63 100  71 100
M  END
>  <TORSDO>  (49) 
F 36

>  <SCORE>  (49) 
-6.232

>  <name>  (49) 
48

>  <ligand_id>  (49) 
48

>  <original_smiles>  (49) 
[H]c1c([H])c([H])c2c(c1[H])C([H])([H])C([H])([H])C([H])([H])C2([H])N([H])C(=O)C1([H])N(C(=O)C([H])(N([H])C(=O)C([H])(N([H])C([H])([H])[H])C([H])([H])[H])C(C([H])([H])[H])(C([H])([H])[H])C([H])([H])[H])C([H])([H])c2c([H])c(OC([H])([H])C([H])([H])OC([H])([H])C([H])([H])OC([H])([H])C([H])([H])OC([H])([H])C([H])([H])C([H])([H])OC([H])([H])C([H])([H])OC([H])([H])C([H])([H])OC([H])([H])C([H])([H])N([H])C(=O)N3C([H])([H])C([H])([H])C([H])([H])C([H])(n4nc(-c5c([H])c([H])c(Oc6c([H])c([H])c(F)c([H])c6F)c([H])c5[H])c(C(=O)N([H])[H])c4N([H])[H])C3([H])[H])c([H])c([H])c2C1([H])[H]

>  <smiles>  (49) 
[H]c1c([H])c([H])c2c(c1[H])C([H])([H])C([H])([H])C([H])([H])C2([H])N([H])C(=O)C1([H])N(C(=O)C([H])(N([H])C(=O)C([H])(N([H])C([H])([H])[H])C([H])([H])[H])C(C([H])([H])[H])(C([H])([H])[H])C([H])([H])[H])C([H])([H])c2c([H])c(OC([H])([H])C([H])([H])OC([H])([H])C([H])([H])OC([H])([H])C([H])([H])OC([H])([H])C([H])([H])C([H])([H])OC([H])([H])C([H])([H])OC([H])([H])C([H])([H])OC([H])([H])C([H])([H])N([H])C(=O)N3C([H])([H])C([H])([H])C([H])([H])C([H])(n4nc(-c5c([H])c([H])c(Oc6c([H])c([H])c(F)c([H])c6F)c([H])c5[H])c(C(=O)N([H])[H])c4N([H])[H])C3([H])[H])c([H])c([H])c2C1([H])[H]

$$$$
49:0:0
     RDKit          3D

112120  0  0  1  0  0  0  0  0999 V2000
  -30.9950  -31.6390   19.0010 C   0  0  0  0  0  0  0  0  0  0  0  0
  -30.5990  -30.9900   17.9000 N   0  0  0  0  0  0  0  0  0  0  0  0
  -31.8900  -32.4860   19.0000 O   0  0  0  0  0  0  0  0  0  0  0  0
  -29.8980  -30.2710   18.0240 H   0  0  0  0  0  0  0  0  0  0  0  0
  -30.9560  -31.2710   16.5110 C   0  0  0  0  0  2  0  0  0  0  0  0
  -32.4730  -31.2110   16.2110 C   0  0  0  0  0  2  0  0  0  0  0  0
  -32.7630  -30.4690   15.0230 O   0  0  0  0  0  0  0  0  0  0  0  0
  -31.0940  -27.2180   14.7800 C   0  0  0  0  0  3  0  0  0  0  0  0
  -32.9010  -27.0520   16.4180 C   0  0  0  0  0  3  0  0  0  0  0  0
  -31.5020  -28.5230   14.4540 C   0  0  0  0  0  3  0  0  0  0  0  0
  -33.3000  -28.3620   16.0990 C   0  0  0  0  0  3  0  0  0  0  0  0
  -31.7470  -26.5200   15.8140 C   0  0  0  0  0  0  0  0  0  0  0  0
  -32.5520  -29.1220   15.1730 C   0  0  0  0  0  0  0  0  0  0  0  0
  -31.1360  -25.3160   16.3650 C   0  0  0  0  0  3  0  0  0  0  0  0
  -30.1720  -25.3480   17.3120 C   0  0  0  0  0  3  0  0  0  0  0  0
  -29.6000  -26.5930   17.8870 C   0  0  0  0  0  0  0  0  0  0  0  0
  -29.7310  -27.7380   17.4480 O   0  0  0  0  0  0  0  0  0  0  0  0
  -28.8500  -26.3200   18.9460 O   0  0  0  0  0  0  0  0  0  0  0  0
  -24.7730  -30.4590   23.0460 C   0  0  0  0  0  0  0  0  0  0  0  0
  -27.6760  -27.0060   19.1040 C   0  0  0  0  0  0  0  0  0  0  0  0
  -23.6490  -29.3280   21.1580 C   0  0  0  0  0  3  0  0  0  0  0  0
  -25.1850  -28.2610   19.4320 C   0  0  0  0  0  0  0  0  0  0  0  0
  -26.1270  -29.9440   21.0200 C   0  0  0  0  0  2  0  0  0  0  0  0
  -26.3090  -28.7450   20.1170 C   0  0  0  0  0  0  0  0  0  0  0  0
  -27.5610  -28.1150   19.9650 C   0  0  0  0  0  3  0  0  0  0  0  0
  -26.5400  -26.5190   18.4300 C   0  0  0  0  0  3  0  0  0  0  0  0
  -25.2940  -27.1430   18.5840 C   0  0  0  0  0  3  0  0  0  0  0  0
  -23.8750  -28.9770   19.6650 C   0  0  0  0  0  2  0  0  0  0  0  0
  -24.8690  -29.9150   21.8010 N   0  0  0  0  0  0  0  0  0  0  0  0
  -23.6880  -30.5190   23.6380 O   0  0  0  0  0  0  0  0  0  0  0  0
  -23.1130  -28.0730   21.8870 C   0  0  0  0  0  0  0  0  0  0  0  0
  -21.8080  -27.8060   21.7360 N   0  0  0  0  0  0  0  0  0  0  0  0
  -23.8710  -27.3530   22.5440 O   0  0  0  0  0  0  0  0  0  0  0  0
  -21.2530  -28.4480   21.1880 H   0  0  0  0  0  0  0  0  0  0  0  0
  -18.5620  -26.2350   21.9860 C   0  0  0  0  0  0  0  0  0  0  0  0
  -21.0910  -26.6610   22.3030 C   0  0  0  0  0  3  0  0  0  0  0  0
  -21.3100  -25.3930   21.4460 C   0  0  0  0  0  2  0  0  0  0  0  0
  -20.2190  -25.1830   20.3900 C   0  0  0  0  0  2  0  0  0  0  0  0
  -18.8430  -25.0710   21.0520 C   0  0  0  0  0  2  0  0  0  0  0  0
  -19.6170  -26.9910   22.5620 C   0  0  0  0  0  0  0  0  0  0  0  0
  -19.3010  -28.0850   23.3970 C   0  0  0  0  0  3  0  0  0  0  0  0
  -17.9620  -28.4250   23.6610 C   0  0  0  0  0  3  0  0  0  0  0  0
  -16.9200  -27.6640   23.1020 C   0  0  0  0  0  3  0  0  0  0  0  0
  -17.2220  -26.5700   22.2700 C   0  0  0  0  0  3  0  0  0  0  0  0
  -26.0200  -31.0600   23.7720 C   0  0  0  0  0  3  0  0  0  0  0  0
  -26.6510  -30.0780   24.8340 C   0  0  1  0  0  0  0  0  0  0  0  0
  -25.6240  -29.5070   25.8370 C   0  0  0  0  0  1  0  0  0  0  0  0
  -27.3430  -28.8870   24.1320 C   0  0  0  0  0  1  0  0  0  0  0  0
  -27.7510  -30.8160   25.6350 C   0  0  0  0  0  1  0  0  0  0  0  0
  -25.5980  -32.3130   24.4070 N   0  0  0  0  0  0  0  0  0  0  0  0
  -25.8060  -33.5330   23.8940 C   0  0  0  0  0  0  0  0  0  0  0  0
  -26.4500  -33.7220   22.8570 O   0  0  0  0  0  0  0  0  0  0  0  0
  -25.0180  -32.2320   25.2290 H   0  0  0  0  0  0  0  0  0  0  0  0
  -23.9100  -35.1820   23.9620 C   0  0  0  0  0  1  0  0  0  0  0  0
  -25.2080  -34.7330   24.6510 C   0  0  0  0  0  3  0  0  0  0  0  0
  -27.2840  -35.6150   25.6180 C   0  0  0  0  0  1  0  0  0  0  0  0
  -26.1350  -35.8800   24.7580 N   0  0  0  0  0  0  0  0  0  0  0  0
  -25.6530  -36.7030   25.1140 H   0  0  0  0  0  0  0  0  0  0  0  0
  -30.2540  -31.2830   20.3040 C   0  0  0  0  0  2  0  0  0  0  0  0
  -31.1180  -30.7480   21.3150 O   0  0  0  0  0  0  0  0  0  0  0  0
  -32.0200  -29.7220   20.9020 C   0  0  0  0  0  2  0  0  0  0  0  0
  -31.8610  -28.4610   21.7830 C   0  0  0  0  0  2  0  0  0  0  0  0
  -32.8320  -27.4470   21.4940 O   0  0  0  0  0  0  0  0  0  0  0  0
  -32.7070  -26.8980   20.1830 C   0  0  0  0  0  2  0  0  0  0  0  0
  -33.8340  -25.9050   19.8290 C   0  0  0  0  0  2  0  0  0  0  0  0
  -33.5820  -24.5500   20.1980 O   0  0  0  0  0  0  0  0  0  0  0  0
  -32.4700  -23.9510   19.5350 C   0  0  0  0  0  2  0  0  0  0  0  0
  -32.7050  -22.4420   19.3510 C   0  0  0  0  0  2  0  0  0  0  0  0
  -33.2880  -22.1480   18.0790 O   0  0  0  0  0  0  0  0  0  0  0  0
  -33.4330  -20.7410   17.8910 C   0  0  0  0  0  2  0  0  0  0  0  0
  -33.8520  -20.3480   16.4600 C   0  0  0  0  0  2  0  0  0  0  0  0
  -35.2440  -20.0510   16.4120 O   0  0  0  0  0  0  0  0  0  0  0  0
  -35.5660  -19.1640   15.3470 C   0  0  0  0  0  2  0  0  0  0  0  0
  -37.0920  -18.9140   15.2900 C   0  0  0  0  0  2  0  0  0  0  0  0
  -38.4420  -18.2340   13.2700 C   0  0  0  0  0  0  0  0  0  0  0  0
  -39.3660  -17.4570   11.0970 C   0  0  0  0  0  2  0  0  0  0  0  0
  -38.6270  -18.0960    9.9030 C   0  0  0  0  0  2  0  0  0  0  0  0
  -37.3490  -17.3080    9.5520 C   0  0  0  0  0  2  0  0  0  0  0  0
  -36.4670  -17.0330   10.8000 C   0  0  0  0  0  3  0  0  0  0  0  0
  -37.3310  -16.4200   11.9220 C   0  0  0  0  0  2  0  0  0  0  0  0
  -38.4280  -17.3590   12.2310 N   0  0  0  0  0  0  0  0  0  0  0  0
  -39.2880  -19.1250   13.3960 O   0  0  0  0  0  0  0  0  0  0  0  0
  -37.4430  -18.0630   14.1480 N   0  0  0  0  0  0  0  0  0  0  0  0
  -36.8440  -17.2680   13.9660 H   0  0  0  0  0  0  0  0  0  0  0  0
  -33.9840  -16.3720   10.6690 C   0  0  0  0  0  0  0  0  0  0  0  0
  -33.3550  -15.2790   10.1220 C   0  0  0  0  0  0  0  0  0  0  0  0
  -34.3910  -14.4520    9.5950 C   0  0  0  0  0  0  0  0  0  0  0  0
  -35.3390  -16.1650   10.4690 N   0  0  0  0  0  0  0  0  0  0  0  0
  -35.5810  -14.9720    9.8670 N   0  0  0  0  0  0  0  0  0  0  0  0
  -34.3210  -13.2130    8.8060 C   0  0  0  0  0  0  0  0  0  0  0  0
  -35.0550  -12.0610    9.1690 C   0  0  0  0  0  3  0  0  0  0  0  0
  -34.9570  -10.8810    8.4010 C   0  0  0  0  0  3  0  0  0  0  0  0
  -34.1180  -10.8420    7.2620 C   0  0  0  0  0  0  0  0  0  0  0  0
  -33.4090  -11.9980    6.8930 C   0  0  0  0  0  3  0  0  0  0  0  0
  -33.5100  -13.1750    7.6530 C   0  0  0  0  0  3  0  0  0  0  0  0
  -33.9800   -9.7490    6.4400 O   0  0  0  0  0  0  0  0  0  0  0  0
  -34.2030   -8.4750    6.8970 C   0  0  0  0  0  0  0  0  0  0  0  0
  -33.5170   -7.9560    8.0150 C   0  0  0  0  0  3  0  0  0  0  0  0
  -33.7250   -6.6190    8.4100 C   0  0  0  0  0  3  0  0  0  0  0  0
  -34.6090   -5.7990    7.6840 C   0  0  0  0  0  0  0  0  0  0  0  0
  -35.2890   -6.3130    6.5670 C   0  0  0  0  0  3  0  0  0  0  0  0
  -35.0840   -7.6480    6.1720 C   0  0  0  0  0  0  0  0  0  0  0  0
  -35.7260   -8.1350    5.0830 F   0  0  0  0  0  0  0  0  0  0  0  0
  -34.8030   -4.5110    8.0550 F   0  0  0  0  0  0  0  0  0  0  0  0
  -31.8750  -15.0620   10.0060 C   0  0  0  0  0  0  0  0  0  0  0  0
  -31.4350  -13.8060   10.0240 N   0  0  0  0  0  0  0  0  0  0  0  0
  -31.0930  -16.0090    9.9450 O   0  0  0  0  0  0  0  0  0  0  0  0
  -32.0780  -13.0300   10.0880 H   0  0  0  0  0  0  0  0  0  0  0  0
  -30.4440  -13.6180    9.9760 H   0  0  0  0  0  0  0  0  0  0  0  0
  -33.5200  -17.5190   11.2970 N   0  0  0  0  0  0  0  0  0  0  0  0
  -32.5350  -17.7220   11.4200 H   0  0  0  0  0  0  0  0  0  0  0  0
  -34.1180  -18.2690   11.6170 H   0  0  0  0  0  0  0  0  0  0  0  0
  1 59  1  0
  2  4  1  0
  2  1  1  0
  3  1  2  0
  5  2  1  0
  6  5  1  0
  7 13  1  0
  7  6  1  0
  8 12  1  0
 10  8  2  0
 10 13  1  0
 11  9  1  0
 12 14  1  0
 12  9  2  0
 13 11  2  0
 14 15  2  0
 15 16  1  0
 16 18  1  0
 17 16  2  0
 18 20  1  0
 19 30  2  0
 20 25  1  0
 21 29  1  0
 21 31  1  0
 22 28  1  0
 22 24  1  0
 23 29  1  0
 24 23  1  0
 25 24  2  0
 26 27  1  0
 26 20  2  0
 27 22  2  0
 28 21  1  0
 29 19  1  0
 31 33  2  0
 32 31  1  0
 34 32  1  0
 35 44  2  0
 35 40  1  0
 36 32  1  0
 36 40  1  0
 37 36  1  0
 38 39  1  0
 38 37  1  0
 39 35  1  0
 40 41  2  0
 41 42  1  0
 43 42  2  0
 44 43  1  0
 45 19  1  0
 45 50  1  0
 45 46  1  0
 46 49  1  1
 46 47  1  0
 48 46  1  0
 50 53  1  0
 51 50  1  0
 51 55  1  0
 52 51  2  0
 55 54  1  0
 55 57  1  0
 57 58  1  0
 57 56  1  0
 59 60  1  0
 61 60  1  0
 61 62  1  0
 63 62  1  0
 64 63  1  0
 65 64  1  0
 65 66  1  0
 67 66  1  0
 68 67  1  0
 69 68  1  0
 70 69  1  0
 71 70  1  0
 72 71  1  0
 73 72  1  0
 74 73  1  0
 75 82  2  0
 75 83  1  0
 76 81  1  0
 77 76  1  0
 78 77  1  0
 79 78  1  0
 79 80  1  0
 80 81  1  0
 81 75  1  0
 83 74  1  0
 84 83  1  0
 85110  1  0
 86 85  2  0
 87 89  2  0
 87 86  1  0
 88 85  1  0
 88 79  1  0
 89 88  1  0
 90 91  1  0
 90 87  1  0
 92 91  2  0
 93 92  1  0
 94 93  2  0
 94 95  1  0
 95 90  2  0
 96 97  1  0
 96 93  1  0
 97 98  1  0
 98 99  2  0
100104  1  0
100 99  1  0
101100  2  0
102101  1  0
102 97  2  0
103102  1  0
105106  1  0
105 86  1  0
106108  1  0
107105  2  0
109106  1  0
110111  1  0
110112  1  0
M  ISO  4  16 101  18 101  75 100  83 100
M  END
>  <TORSDO>  (50) 
F 38

>  <SCORE>  (50) 
5.619

>  <name>  (50) 
49

>  <ligand_id>  (50) 
49

>  <original_smiles>  (50) 
[H]C(C(=O)Oc1c([H])c([H])c2c(c1[H])C([H])([H])N(C(=O)C([H])(N([H])C(=O)C([H])(N([H])C([H])([H])[H])C([H])([H])[H])C(C([H])([H])[H])(C([H])([H])[H])C([H])([H])[H])C([H])(C(=O)N([H])C1([H])c3c([H])c([H])c([H])c([H])c3C([H])([H])C([H])([H])C1([H])[H])C2([H])[H])=C([H])c1c([H])c([H])c(OC([H])([H])C([H])([H])N([H])C(=O)C([H])([H])OC([H])([H])C([H])([H])OC([H])([H])C([H])([H])OC([H])([H])C([H])([H])OC([H])([H])C([H])([H])OC([H])([H])C([H])([H])N([H])C(=O)N2C([H])([H])C([H])([H])C([H])([H])C([H])(n3nc(-c4c([H])c([H])c(Oc5c([H])c([H])c(F)c([H])c5F)c([H])c4[H])c(C(=O)N([H])[H])c3N([H])[H])C2([H])[H])c([H])c1[H]

>  <smiles>  (50) 
[H]C(C(=O)Oc1c([H])c([H])c2c(c1[H])C([H])([H])N(C(=O)C([H])(N([H])C(=O)C([H])(N([H])C([H])([H])[H])C([H])([H])[H])C(C([H])([H])[H])(C([H])([H])[H])C([H])([H])[H])C([H])(C(=O)N([H])C1([H])c3c([H])c([H])c([H])c([H])c3C([H])([H])C([H])([H])C1([H])[H])C2([H])[H])=C([H])c1c([H])c([H])c(OC([H])([H])C([H])([H])N([H])C(=O)C([H])([H])OC([H])([H])C([H])([H])OC([H])([H])C([H])([H])OC([H])([H])C([H])([H])OC([H])([H])C([H])([H])OC([H])([H])C([H])([H])N([H])C(=O)N2C([H])([H])C([H])([H])C([H])([H])C([H])(n3nc(-c4c([H])c([H])c(Oc5c([H])c([H])c(F)c([H])c5F)c([H])c4[H])c(C(=O)N([H])[H])c3N([H])[H])C2([H])[H])c([H])c1[H]

$$$$
50:0:0
     RDKit          3D

 93101  0  0  1  0  0  0  0  0999 V2000
  -29.2670  -22.5810   21.2020 C   0  0  0  0  0  0  0  0  0  0  0  0
  -28.8430  -23.2610   20.0800 N   0  0  0  0  0  0  0  0  0  0  0  0
  -28.9130  -22.7910   22.3610 O   0  0  0  0  0  0  0  0  0  0  0  0
  -29.2350  -22.9630   19.1970 H   0  0  0  0  0  0  0  0  0  0  0  0
  -27.9070  -24.3800   20.0990 C   0  0  0  0  0  2  0  0  0  0  0  0
  -28.4150  -25.5690   20.9420 C   0  0  0  0  0  2  0  0  0  0  0  0
  -28.3500  -26.8020   20.2370 O   0  0  0  0  0  0  0  0  0  0  0  0
  -24.5740  -31.9690   23.3230 C   0  0  0  0  0  0  0  0  0  0  0  0
  -27.1590  -27.4790   20.2950 C   0  0  0  0  0  0  0  0  0  0  0  0
  -23.3390  -30.5500   21.7150 C   0  0  0  0  0  3  0  0  0  0  0  0
  -24.7660  -28.9710   20.3120 C   0  0  0  0  0  0  0  0  0  0  0  0
  -25.8610  -30.8910   21.4850 C   0  0  0  0  0  2  0  0  0  0  0  0
  -25.9300  -29.5080   20.8750 C   0  0  0  0  0  0  0  0  0  0  0  0
  -27.1300  -28.7680   20.8650 C   0  0  0  0  0  3  0  0  0  0  0  0
  -25.9810  -26.9440   19.7320 C   0  0  0  0  0  3  0  0  0  0  0  0
  -24.7830  -27.6850   19.7400 C   0  0  0  0  0  3  0  0  0  0  0  0
  -23.5290  -29.8380   20.3480 C   0  0  0  0  0  2  0  0  0  0  0  0
  -24.6100  -31.1510   22.2330 N   0  0  0  0  0  0  0  0  0  0  0  0
  -23.5020  -32.2600   23.8690 O   0  0  0  0  0  0  0  0  0  0  0  0
  -22.6880  -29.5520   22.6990 C   0  0  0  0  0  0  0  0  0  0  0  0
  -21.3760  -29.3230   22.5370 N   0  0  0  0  0  0  0  0  0  0  0  0
  -23.3630  -28.9840   23.5620 O   0  0  0  0  0  0  0  0  0  0  0  0
  -20.8930  -29.8360   21.8120 H   0  0  0  0  0  0  0  0  0  0  0  0
  -18.0460  -27.9690   22.8970 C   0  0  0  0  0  0  0  0  0  0  0  0
  -20.5600  -28.3960   23.3200 C   0  0  0  0  0  3  0  0  0  0  0  0
  -20.7820  -26.9360   22.8610 C   0  0  0  0  0  2  0  0  0  0  0  0
  -19.7740  -26.4770   21.8030 C   0  0  0  0  0  2  0  0  0  0  0  0
  -18.3440  -26.5870   22.3400 C   0  0  0  0  0  2  0  0  0  0  0  0
  -19.0890  -28.8250   23.3420 C   0  0  0  0  0  0  0  0  0  0  0  0
  -18.7630  -30.1120   23.8180 C   0  0  0  0  0  3  0  0  0  0  0  0
  -17.4240  -30.5480   23.8560 C   0  0  0  0  0  3  0  0  0  0  0  0
  -16.3950  -29.6920   23.4290 C   0  0  0  0  0  3  0  0  0  0  0  0
  -16.7070  -28.4050   22.9550 C   0  0  0  0  0  3  0  0  0  0  0  0
  -25.8730  -32.5960   23.9200 C   0  0  0  0  0  3  0  0  0  0  0  0
  -25.5870  -34.0050   24.2200 N   0  0  0  0  0  0  0  0  0  0  0  0
  -25.9240  -35.0320   23.4310 C   0  0  0  0  0  0  0  0  0  0  0  0
  -26.5820  -34.8960   22.3950 O   0  0  0  0  0  0  0  0  0  0  0  0
  -25.0030  -34.1860   25.0230 H   0  0  0  0  0  0  0  0  0  0  0  0
  -24.2020  -36.8260   23.0610 C   0  0  0  0  0  1  0  0  0  0  0  0
  -25.4580  -36.4370   23.8570 C   0  0  0  0  0  3  0  0  0  0  0  0
  -27.6160  -37.3280   24.6150 C   0  0  0  0  0  1  0  0  0  0  0  0
  -26.4950  -37.4780   23.6900 N   0  0  0  0  0  0  0  0  0  0  0  0
  -26.0990  -38.4050   23.8200 H   0  0  0  0  0  0  0  0  0  0  0  0
  -26.3920  -31.8430   25.2050 C   0  0  1  0  0  0  0  0  0  0  0  0
  -25.3010  -31.6220   26.2790 C   0  0  0  0  0  1  0  0  0  0  0  0
  -26.9740  -30.4600   24.8300 C   0  0  0  0  0  1  0  0  0  0  0  0
  -27.5450  -32.6460   25.8540 C   0  0  0  0  0  1  0  0  0  0  0  0
  -30.1580  -21.6640   20.8190 O   0  0  0  0  0  0  0  0  0  0  0  0
  -30.9770  -21.0030   21.7770 C   0  0  0  0  0  2  0  0  0  0  0  0
  -31.4590  -18.9590   20.3470 C   0  0  0  0  0  3  0  0  0  0  0  0
  -30.5380  -18.6410   22.5790 C   0  0  0  0  0  3  0  0  0  0  0  0
  -31.4590  -17.5640   20.1430 C   0  0  0  0  0  3  0  0  0  0  0  0
  -30.5390  -17.2490   22.3780 C   0  0  0  0  0  3  0  0  0  0  0  0
  -30.9900  -19.5030   21.5610 C   0  0  0  0  0  0  0  0  0  0  0  0
  -30.9910  -16.6970   21.1610 C   0  0  0  0  0  0  0  0  0  0  0  0
  -31.3590  -14.4680   20.0760 C   0  0  0  0  0  0  0  0  0  0  0  0
  -30.9320  -12.3320   18.9130 C   0  0  0  0  0  2  0  0  0  0  0  0
  -29.9430  -12.5450   17.7500 C   0  0  0  0  0  2  0  0  0  0  0  0
  -28.4830  -12.4700   18.2400 C   0  0  0  0  0  2  0  0  0  0  0  0
  -28.2300  -13.3520   19.4900 C   0  0  0  0  0  3  0  0  0  0  0  0
  -29.3100  -13.0830   20.5600 C   0  0  0  0  0  2  0  0  0  0  0  0
  -30.6370  -13.3240   19.9560 N   0  0  0  0  0  0  0  0  0  0  0  0
  -32.3680  -14.7050   19.4010 O   0  0  0  0  0  0  0  0  0  0  0  0
  -30.9080  -15.2850   21.0390 N   0  0  0  0  0  0  0  0  0  0  0  0
  -30.2090  -14.8510   21.6200 H   0  0  0  0  0  0  0  0  0  0  0  0
  -25.9100  -14.0870   20.3420 C   0  0  0  0  0  0  0  0  0  0  0  0
  -24.8130  -13.3690   20.7340 C   0  0  0  0  0  0  0  0  0  0  0  0
  -25.1800  -11.9940   20.6220 C   0  0  0  0  0  0  0  0  0  0  0  0
  -26.8830  -13.1510   20.0210 N   0  0  0  0  0  0  0  0  0  0  0  0
  -26.4460  -11.8840   20.2430 N   0  0  0  0  0  0  0  0  0  0  0  0
  -24.3820  -10.7730   20.7980 C   0  0  0  0  0  0  0  0  0  0  0  0
  -24.7320   -9.7940   21.7530 C   0  0  0  0  0  3  0  0  0  0  0  0
  -23.9390   -8.6370   21.9150 C   0  0  0  0  0  3  0  0  0  0  0  0
  -22.7820   -8.4530   21.1220 C   0  0  0  0  0  0  0  0  0  0  0  0
  -22.4510   -9.4210   20.1570 C   0  0  0  0  0  3  0  0  0  0  0  0
  -23.2440  -10.5680   19.9920 C   0  0  0  0  0  3  0  0  0  0  0  0
  -21.9670   -7.3490   21.1920 O   0  0  0  0  0  0  0  0  0  0  0  0
  -21.7370   -6.6980   22.3770 C   0  0  0  0  0  0  0  0  0  0  0  0
  -21.1930   -7.3620   23.4990 C   0  0  0  0  0  3  0  0  0  0  0  0
  -20.9090   -6.6390   24.6750 C   0  0  0  0  0  3  0  0  0  0  0  0
  -21.1570   -5.2550   24.7290 C   0  0  0  0  0  0  0  0  0  0  0  0
  -21.6930   -4.5910   23.6110 C   0  0  0  0  0  3  0  0  0  0  0  0
  -21.9800   -5.3110   22.4370 C   0  0  0  0  0  0  0  0  0  0  0  0
  -22.4760   -4.6620   21.3560 F   0  0  0  0  0  0  0  0  0  0  0  0
  -20.8760   -4.5580   25.8540 F   0  0  0  0  0  0  0  0  0  0  0  0
  -23.4660  -13.9220   21.1040 C   0  0  0  0  0  0  0  0  0  0  0  0
  -22.7500  -13.2500   21.9980 N   0  0  0  0  0  0  0  0  0  0  0  0
  -23.0600  -14.9860   20.6350 O   0  0  0  0  0  0  0  0  0  0  0  0
  -23.0920  -12.3880   22.3980 H   0  0  0  0  0  0  0  0  0  0  0  0
  -21.8490  -13.6010   22.2880 H   0  0  0  0  0  0  0  0  0  0  0  0
  -26.1600  -15.4500   20.2150 N   0  0  0  0  0  0  0  0  0  0  0  0
  -25.4500  -16.1510   20.3970 H   0  0  0  0  0  0  0  0  0  0  0  0
  -27.0300  -15.8460   19.8840 H   0  0  0  0  0  0  0  0  0  0  0  0
  1  3  2  0
  2  5  1  0
  2  1  1  0
  4  2  1  0
  5  6  1  0
  7  9  1  0
  7  6  1  0
  8 19  2  0
  9 14  1  0
 10 18  1  0
 10 20  1  0
 11 17  1  0
 11 13  1  0
 12 18  1  0
 13 12  1  0
 14 13  2  0
 15 16  1  0
 15  9  2  0
 16 11  2  0
 17 10  1  0
 18  8  1  0
 20 22  2  0
 21 20  1  0
 23 21  1  0
 24 33  2  0
 24 29  1  0
 25 21  1  0
 25 29  1  0
 26 25  1  0
 27 28  1  0
 27 26  1  0
 28 24  1  0
 29 30  2  0
 30 31  1  0
 32 31  2  0
 33 32  1  0
 34  8  1  0
 34 35  1  0
 34 44  1  0
 35 38  1  0
 36 40  1  0
 36 35  1  0
 37 36  2  0
 40 39  1  0
 42 43  1  0
 42 40  1  0
 42 41  1  0
 44 47  1  1
 44 45  1  0
 46 44  1  0
 48  1  1  0
 48 49  1  0
 50 54  1  0
 52 50  2  0
 52 55  1  0
 53 51  1  0
 54 49  1  0
 54 51  2  0
 55 53  2  0
 56 64  1  0
 57 62  1  0
 58 59  1  0
 58 57  1  0
 60 59  1  0
 60 69  1  0
 60 61  1  0
 62 56  1  0
 62 61  1  0
 63 56  2  0
 64 55  1  0
 64 65  1  0
 66 67  2  0
 67 86  1  0
 68 67  1  0
 68 71  1  0
 69 70  1  0
 69 66  1  0
 70 68  2  0
 71 72  1  0
 72 73  2  0
 74 77  1  0
 74 73  1  0
 75 74  2  0
 76 75  1  0
 76 71  2  0
 77 78  1  0
 78 83  2  0
 78 79  1  0
 79 80  2  0
 80 81  1  0
 81 85  1  0
 82 81  2  0
 83 82  1  0
 84 83  1  0
 86 87  1  0
 87 90  1  0
 87 89  1  0
 88 86  2  0
 91 66  1  0
 91 92  1  0
 93 91  1  0
M  ISO  4   6 101   7 101  56 100  64 100
M  END
>  <TORSDO>  (51) 
F 21

>  <SCORE>  (51) 
-12.667

>  <name>  (51) 
50

>  <ligand_id>  (51) 
50

>  <original_smiles>  (51) 
[H]c1c([H])c([H])c2c(c1[H])C([H])([H])C([H])([H])C([H])([H])C2([H])N([H])C(=O)C1([H])N(C(=O)C([H])(N([H])C(=O)C([H])(N([H])C([H])([H])[H])C([H])([H])[H])C(C([H])([H])[H])(C([H])([H])[H])C([H])([H])[H])C([H])([H])c2c([H])c(OC([H])([H])C([H])([H])N([H])C(=O)OC([H])([H])c3c([H])c([H])c(N([H])C(=O)N4C([H])([H])C([H])([H])C([H])([H])C([H])(n5nc(-c6c([H])c([H])c(Oc7c([H])c([H])c(F)c([H])c7F)c([H])c6[H])c(C(=O)N([H])[H])c5N([H])[H])C4([H])[H])c([H])c3[H])c([H])c([H])c2C1([H])[H]

>  <smiles>  (51) 
[H]c1c([H])c([H])c2c(c1[H])C([H])([H])C([H])([H])C([H])([H])C2([H])N([H])C(=O)C1([H])N(C(=O)C([H])(N([H])C(=O)C([H])(N([H])C([H])([H])[H])C([H])([H])[H])C(C([H])([H])[H])(C([H])([H])[H])C([H])([H])[H])C([H])([H])c2c([H])c(OC([H])([H])C([H])([H])N([H])C(=O)OC([H])([H])c3c([H])c([H])c(N([H])C(=O)N4C([H])([H])C([H])([H])C([H])([H])C([H])(n5nc(-c6c([H])c([H])c(Oc7c([H])c([H])c(F)c([H])c7F)c([H])c6[H])c(C(=O)N([H])[H])c5N([H])[H])C4([H])[H])c([H])c3[H])c([H])c([H])c2C1([H])[H]

$$$$
51:0:0
     RDKit          3D

 81 85  0  0  1  0  0  0  0  0999 V2000
  -28.1090  -24.6470   20.3000 O   0  0  0  0  0  1  0  0  0  0  0  0
  -24.7100  -31.7810   23.1610 C   0  0  0  0  0  0  0  0  0  0  0  0
  -27.2070  -26.1440   20.2640 C   0  0  0  0  0  0  0  0  0  0  0  0
  -23.5560  -30.3680   21.5220 C   0  0  0  0  0  3  0  0  0  0  0  0
  -25.0090  -28.5810   20.1690 C   0  0  0  0  0  0  0  0  0  0  0  0
  -26.1560  -30.3130   21.5020 C   0  0  0  0  0  2  0  0  0  0  0  0
  -26.2110  -28.8120   20.8490 C   0  0  0  0  0  0  0  0  0  0  0  0
  -27.2590  -27.6460   20.8460 C   0  0  0  0  0  3  0  0  0  0  0  0
  -25.9680  -26.2870   19.5230 C   0  0  0  0  0  3  0  0  0  0  0  0
  -24.9660  -27.3480   19.4800 C   0  0  0  0  0  3  0  0  0  0  0  0
  -23.8360  -29.6140   20.1780 C   0  0  0  0  0  2  0  0  0  0  0  0
  -24.8390  -30.8700   22.1140 N   0  0  0  0  0  0  0  0  0  0  0  0
  -23.6010  -32.1150   23.6230 O   0  0  0  0  0  0  0  0  0  0  0  0
  -22.7620  -29.4580   22.5040 C   0  0  0  0  0  0  0  0  0  0  0  0
  -21.4220  -29.3560   22.3730 N   0  0  0  0  0  0  0  0  0  0  0  0
  -23.3780  -28.8290   23.3670 O   0  0  0  0  0  0  0  0  0  0  0  0
  -20.9670  -29.9120   21.6630 H   0  0  0  0  0  0  0  0  0  0  0  0
  -17.9970  -28.2130   22.9010 C   0  0  0  0  0  0  0  0  0  0  0  0
  -20.5670  -28.4380   23.1430 C   0  0  0  0  0  3  0  0  0  0  0  0
  -20.6330  -27.0060   22.5600 C   0  0  0  0  0  2  0  0  0  0  0  0
  -19.5210  -26.7160   21.5460 C   0  0  0  0  0  2  0  0  0  0  0  0
  -18.1460  -26.8740   22.1990 C   0  0  0  0  0  2  0  0  0  0  0  0
  -19.1320  -28.9550   23.3290 C   0  0  0  0  0  0  0  0  0  0  0  0
  -18.9320  -30.2040   23.9560 C   0  0  0  0  0  3  0  0  0  0  0  0
  -17.6350  -30.7130   24.1530 C   0  0  0  0  0  3  0  0  0  0  0  0
  -16.5160  -29.9710   23.7350 C   0  0  0  0  0  3  0  0  0  0  0  0
  -16.6980  -28.7220   23.1160 C   0  0  0  0  0  3  0  0  0  0  0  0
  -25.9400  -32.4590   23.8420 C   0  0  0  0  0  3  0  0  0  0  0  0
  -25.5980  -33.8650   24.1720 N   0  0  0  0  0  0  0  0  0  0  0  0
  -25.9200  -34.9450   23.4450 C   0  0  0  0  0  0  0  0  0  0  0  0
  -26.5760  -34.8640   22.4040 O   0  0  0  0  0  0  0  0  0  0  0  0
  -25.0070  -33.9990   24.9800 H   0  0  0  0  0  0  0  0  0  0  0  0
  -24.1680  -36.7480   23.1980 C   0  0  0  0  0  1  0  0  0  0  0  0
  -25.4480  -36.3330   23.9420 C   0  0  0  0  0  3  0  0  0  0  0  0
  -27.6060  -37.2470   24.6880 C   0  0  0  0  0  1  0  0  0  0  0  0
  -26.4650  -37.3980   23.7880 N   0  0  0  0  0  0  0  0  0  0  0  0
  -26.0550  -38.3150   23.9480 H   0  0  0  0  0  0  0  0  0  0  0  0
  -26.3960  -31.7200   25.1620 C   0  0  1  0  0  0  0  0  0  0  0  0
  -25.2580  -31.5140   26.1910 C   0  0  0  0  0  1  0  0  0  0  0  0
  -26.9880  -30.3300   24.8490 C   0  0  0  0  0  1  0  0  0  0  0  0
  -27.5230  -32.5250   25.8520 C   0  0  0  0  0  1  0  0  0  0  0  0
  -28.1400  -22.5480   20.1630 C   0  0  0  0  0 15  0  0  0  0  0  0
  -29.1420  -20.4180   20.2160 C   0  0  0  0  0 15  0  0  0  0  0  0
  -29.9010  -16.6470   20.0860 C   0  0  0  0  0  0  0  0  0  0  0  0
  -30.2300  -13.8900   19.2940 C   0  0  0  0  0  2  0  0  0  0  0  0
  -29.4480  -13.0530   18.1990 C   0  0  0  0  0  2  0  0  0  0  0  0
  -28.1340  -12.4820   18.7300 C   0  0  0  0  0  2  0  0  0  0  0  0
  -27.5010  -13.5140   19.6750 C   0  0  0  0  0  3  0  0  0  0  0  0
  -28.4750  -14.2100   20.6950 C   0  0  0  0  0  2  0  0  0  0  0  0
  -29.4550  -15.1290   19.9600 N   0  0  0  0  0  0  0  0  0  0  0  0
  -31.1430  -16.3980   20.0040 O   0  0  0  0  0  0  0  0  0  0  0  0
  -29.2570  -18.3100   20.1340 N   0  0  0  0  0  2  0  0  0  0  0  0
  -30.2580  -18.4710   20.1320 H   0  0  0  0  0  0  0  0  0  0  0  0
  -25.1600  -13.9200   20.5080 C   0  0  0  0  0  0  0  0  0  0  0  0
  -24.1280  -13.1120   20.8810 C   0  0  0  0  0  0  0  0  0  0  0  0
  -24.6260  -11.7720   20.8220 C   0  0  0  0  0  0  0  0  0  0  0  0
  -26.2240  -13.0860   20.2420 N   0  0  0  0  0  0  0  0  0  0  0  0
  -25.9190  -11.7780   20.4820 N   0  0  0  0  0  0  0  0  0  0  0  0
  -23.9140  -10.4950   21.0120 C   0  0  0  0  0  0  0  0  0  0  0  0
  -24.3570   -9.5290   21.9420 C   0  0  0  0  0  3  0  0  0  0  0  0
  -23.6350   -8.3280   22.1300 C   0  0  0  0  0  3  0  0  0  0  0  0
  -22.4560   -8.0830   21.3870 C   0  0  0  0  0  0  0  0  0  0  0  0
  -22.0290   -9.0390   20.4470 C   0  0  0  0  0  3  0  0  0  0  0  0
  -22.7510  -10.2310   20.2590 C   0  0  0  0  0  3  0  0  0  0  0  0
  -21.7070   -6.9350   21.4820 O   0  0  0  0  0  0  0  0  0  0  0  0
  -21.6700   -6.1910   22.6350 C   0  0  0  0  0  0  0  0  0  0  0  0
  -21.2140   -6.7320   23.8560 C   0  0  0  0  0  3  0  0  0  0  0  0
  -21.1260   -5.9140   25.0000 C   0  0  0  0  0  3  0  0  0  0  0  0
  -21.4850   -4.5540   24.9250 C   0  0  0  0  0  0  0  0  0  0  0  0
  -21.9340   -4.0110   23.7070 C   0  0  0  0  0  3  0  0  0  0  0  0
  -22.0220   -4.8270   22.5660 C   0  0  0  0  0  0  0  0  0  0  0  0
  -22.4340   -4.2930   21.3900 F   0  0  0  0  0  0  0  0  0  0  0  0
  -21.3950   -3.7660   26.0220 F   0  0  0  0  0  0  0  0  0  0  0  0
  -22.7270  -13.5620   21.1730 C   0  0  0  0  0  0  0  0  0  0  0  0
  -22.0260  -12.8570   22.0520 N   0  0  0  0  0  0  0  0  0  0  0  0
  -22.2670  -14.5820   20.6590 O   0  0  0  0  0  0  0  0  0  0  0  0
  -22.4140  -12.0340   22.4890 H   0  0  0  0  0  0  0  0  0  0  0  0
  -21.0880  -13.1430   22.2910 H   0  0  0  0  0  0  0  0  0  0  0  0
  -25.2790  -15.2960   20.3350 N   0  0  0  0  0  0  0  0  0  0  0  0
  -24.4980  -15.9290   20.4650 H   0  0  0  0  0  0  0  0  0  0  0  0
  -26.1180  -15.7610   20.0090 H   0  0  0  0  0  0  0  0  0  0  0  0
  2 13  2  0
  3  1  1  0
  3  8  1  0
  4 12  1  0
  4 14  1  0
  5 11  1  0
  5  7  1  0
  6 12  1  0
  7  6  1  0
  8  7  2  0
  9  3  2  0
 10  9  1  0
 10  5  2  0
 11  4  1  0
 12  2  1  0
 14 16  2  0
 15 14  1  0
 17 15  1  0
 18 27  2  0
 18 23  1  0
 19 15  1  0
 19 23  1  0
 20 19  1  0
 21 22  1  0
 21 20  1  0
 22 18  1  0
 23 24  2  0
 24 25  1  0
 26 25  2  0
 27 26  1  0
 28  2  1  0
 28 29  1  0
 28 38  1  0
 29 32  1  0
 30 34  1  0
 30 29  1  0
 31 30  2  0
 34 33  1  0
 36 34  1  0
 36 37  1  0
 36 35  1  0
 38 41  1  1
 38 39  1  0
 40 38  1  0
 44 52  1  0
 45 50  1  0
 46 47  1  0
 46 45  1  0
 48 47  1  0
 48 57  1  0
 48 49  1  0
 50 44  1  0
 50 49  1  0
 51 44  2  0
 53 52  1  0
 54 55  2  0
 55 74  1  0
 56 55  1  0
 56 59  1  0
 57 58  1  0
 57 54  1  0
 58 56  2  0
 59 60  1  0
 60 61  2  0
 62 65  1  0
 62 61  1  0
 63 62  2  0
 64 63  1  0
 64 59  2  0
 65 66  1  0
 66 67  1  0
 67 68  2  0
 69 68  1  0
 69 73  1  0
 70 69  2  0
 71 66  2  0
 71 70  1  0
 72 71  1  0
 74 75  1  0
 75 78  1  0
 75 77  1  0
 76 74  2  0
 79 80  1  0
 79 54  1  0
 81 79  1  0
M  ISO  4   1 101  42 101  44 100  52 100
M  END
>  <TORSDO>  (52) 
F 17

>  <SCORE>  (52) 
-16.141

>  <name>  (52) 
51

>  <ligand_id>  (52) 
51

>  <original_smiles>  (52) 
[H]c1c([H])c([H])c2c(c1[H])C([H])([H])C([H])([H])C([H])([H])C2([H])N([H])C(=O)C1([H])N(C(=O)C([H])(N([H])C(=O)C([H])(N([H])C([H])([H])[H])C([H])([H])[H])C(C([H])([H])[H])(C([H])([H])[H])C([H])([H])[H])C([H])([H])c2c([H])c(OC([H])([H])C([H])([H])N([H])C(=O)N3C([H])([H])C([H])([H])C([H])([H])C([H])(n4nc(-c5c([H])c([H])c(Oc6c([H])c([H])c(F)c([H])c6F)c([H])c5[H])c(C(=O)N([H])[H])c4N([H])[H])C3([H])[H])c([H])c([H])c2C1([H])[H]

>  <smiles>  (52) 
[H]c1c([H])c([H])c2c(c1[H])C([H])([H])C([H])([H])C([H])([H])C2([H])N([H])C(=O)C1([H])N(C(=O)C([H])(N([H])C(=O)C([H])(N([H])C([H])([H])[H])C([H])([H])[H])C(C([H])([H])[H])(C([H])([H])[H])C([H])([H])[H])C([H])([H])c2c([H])c(OC([H])([H])C([H])([H])N([H])C(=O)N3C([H])([H])C([H])([H])C([H])([H])C([H])(n4nc(-c5c([H])c([H])c(Oc6c([H])c([H])c(F)c([H])c6F)c([H])c5[H])c(C(=O)N([H])[H])c4N([H])[H])C3([H])[H])c([H])c([H])c2C1([H])[H]

$$$$
52:0:0
     RDKit          3D

105112  0  0  1  0  0  0  0  0999 V2000
  -30.1890  -19.7370   17.7520 C   0  0  0  0  0  2  0  0  0  0  0  0
  -31.3920  -19.0720   18.1070 O   0  0  0  0  0  0  0  0  0  0  0  0
  -32.4460  -19.3000   17.1800 C   0  0  0  0  0  2  0  0  0  0  0  0
  -33.7670  -18.7920   17.7710 C   0  0  0  0  0  2  0  0  0  0  0  0
  -33.9570  -19.3830   19.0510 O   0  0  0  0  0  0  0  0  0  0  0  0
  -35.2680  -19.2120   19.5760 C   0  0  0  0  0  2  0  0  0  0  0  0
  -35.1870  -19.2840   21.1030 C   0  0  0  0  0  2  0  0  0  0  0  0
  -34.6410  -20.5380   21.5000 O   0  0  0  0  0  0  0  0  0  0  0  0
  -34.0020  -20.4990   22.7730 C   0  0  0  0  0  2  0  0  0  0  0  0
  -32.5270  -20.9290   22.6490 C   0  0  0  0  0  2  0  0  0  0  0  0
  -31.6530  -20.0470   21.7370 C   0  0  0  0  0  2  0  0  0  0  0  0
  -30.8200  -17.7180   21.6430 C   0  0  0  0  0  0  0  0  0  0  0  0
  -31.5300  -18.6820   22.2370 N   0  0  0  0  0  0  0  0  0  0  0  0
  -30.1020  -17.9270   20.6610 O   0  0  0  0  0  0  0  0  0  0  0  0
  -32.0580  -18.4310   23.0630 H   0  0  0  0  0  0  0  0  0  0  0  0
  -30.9410  -16.3230   22.2670 C   0  0  0  0  0  2  0  0  0  0  0  0
  -30.1480  -15.3630   21.5730 O   0  0  0  0  0  0  0  0  0  0  0  0
  -30.6070  -14.7270   20.4800 C   0  0  0  0  0  0  0  0  0  0  0  0
  -30.3330  -12.5480   19.3010 C   0  0  0  0  0  2  0  0  0  0  0  0
  -29.3640  -12.6140   18.1120 C   0  0  0  0  0  2  0  0  0  0  0  0
  -27.9130  -12.3980   18.5830 C   0  0  0  0  0  2  0  0  0  0  0  0
  -27.5330  -13.3200   19.7720 C   0  0  0  0  0  3  0  0  0  0  0  0
  -28.5910  -13.2340   20.8920 C   0  0  0  0  0  2  0  0  0  0  0  0
  -29.9020  -13.5340   20.2930 N   0  0  0  0  0  0  0  0  0  0  0  0
  -31.5800  -15.0960   19.8140 O   0  0  0  0  0  0  0  0  0  0  0  0
  -25.1420  -13.8740   20.5490 C   0  0  0  0  0  0  0  0  0  0  0  0
  -24.0940  -13.0750   20.9250 C   0  0  0  0  0  0  0  0  0  0  0  0
  -24.5780  -11.7330   20.8470 C   0  0  0  0  0  0  0  0  0  0  0  0
  -26.1940  -13.0160   20.2710 N   0  0  0  0  0  0  0  0  0  0  0  0
  -25.8580  -11.7220   20.5030 N   0  0  0  0  0  0  0  0  0  0  0  0
  -23.8800  -10.4520   21.0210 C   0  0  0  0  0  0  0  0  0  0  0  0
  -24.3250   -9.4900   21.9540 C   0  0  0  0  0  3  0  0  0  0  0  0
  -23.6270   -8.2740   22.1170 C   0  0  0  0  0  3  0  0  0  0  0  0
  -22.4700   -8.0130   21.3460 C   0  0  0  0  0  0  0  0  0  0  0  0
  -22.0430   -8.9650   20.4040 C   0  0  0  0  0  3  0  0  0  0  0  0
  -22.7420  -10.1710   20.2390 C   0  0  0  0  0  3  0  0  0  0  0  0
  -21.7410   -6.8500   21.4190 O   0  0  0  0  0  0  0  0  0  0  0  0
  -21.6260   -6.1450   22.5900 C   0  0  0  0  0  0  0  0  0  0  0  0
  -21.1000   -6.7310   23.7630 C   0  0  0  0  0  3  0  0  0  0  0  0
  -20.9350   -5.9510   24.9250 C   0  0  0  0  0  3  0  0  0  0  0  0
  -21.2830   -4.5870   24.9130 C   0  0  0  0  0  0  0  0  0  0  0  0
  -21.8010   -4.0020   23.7440 C   0  0  0  0  0  3  0  0  0  0  0  0
  -21.9680   -4.7780   22.5850 C   0  0  0  0  0  0  0  0  0  0  0  0
  -22.4490   -4.2050   21.4550 F   0  0  0  0  0  0  0  0  0  0  0  0
  -21.1180   -3.8340   26.0260 F   0  0  0  0  0  0  0  0  0  0  0  0
  -22.6970  -13.5230   21.2450 C   0  0  0  0  0  0  0  0  0  0  0  0
  -22.0040  -12.7960   22.1150 N   0  0  0  0  0  0  0  0  0  0  0  0
  -22.2290  -14.5500   20.7610 O   0  0  0  0  0  0  0  0  0  0  0  0
  -22.3930  -11.9640   22.5330 H   0  0  0  0  0  0  0  0  0  0  0  0
  -21.0660  -13.0750   22.3670 H   0  0  0  0  0  0  0  0  0  0  0  0
  -25.2780  -15.2510   20.4020 N   0  0  0  0  0  0  0  0  0  0  0  0
  -24.5070  -15.8930   20.5480 H   0  0  0  0  0  0  0  0  0  0  0  0
  -26.1250  -15.7130   20.0980 H   0  0  0  0  0  0  0  0  0  0  0  0
  -29.2270  -19.6600   18.9470 C   0  0  0  0  0  2  0  0  0  0  0  0
  -27.7630  -21.6800   18.9900 C   0  0  0  0  0  0  0  0  0  0  0  0
  -27.9630  -20.3690   18.6740 N   0  0  0  0  0  0  0  0  0  0  0  0
  -26.7050  -22.2690   18.7350 O   0  0  0  0  0  0  0  0  0  0  0  0
  -26.4730  -19.9770   16.6720 C   0  0  0  0  0  1  0  0  0  0  0  0
  -25.7300  -19.2960   19.0340 C   0  0  0  0  0  1  0  0  0  0  0  0
  -26.9160  -19.5060   18.0740 C   0  0  0  0  0  3  0  0  0  0  0  0
  -28.8690  -22.4760   19.7130 C   0  0  0  0  0  2  0  0  0  0  0  0
  -28.4000  -23.7880   20.0170 O   0  0  0  0  0  0  0  0  0  0  0  0
  -29.3110  -24.5490   20.7980 C   0  0  0  0  0  2  0  0  0  0  0  0
  -28.6030  -25.8310   21.2560 C   0  0  0  0  0  2  0  0  0  0  0  0
  -28.5390  -26.7690   20.1870 O   0  0  0  0  0  0  0  0  0  0  0  0
  -24.6370  -31.8610   23.2440 C   0  0  0  0  0  0  0  0  0  0  0  0
  -27.3740  -27.4890   20.1840 C   0  0  0  0  0  0  0  0  0  0  0  0
  -23.4680  -30.4510   21.5810 C   0  0  0  0  0  3  0  0  0  0  0  0
  -24.9590  -28.9350   20.1720 C   0  0  0  0  0  0  0  0  0  0  0  0
  -25.9880  -30.8470   21.4150 C   0  0  0  0  0  2  0  0  0  0  0  0
  -26.1010  -29.4810   20.7760 C   0  0  0  0  0  0  0  0  0  0  0  0
  -27.3140  -28.7630   20.7830 C   0  0  0  0  0  3  0  0  0  0  0  0
  -26.2250  -26.9430   19.5810 C   0  0  0  0  0  3  0  0  0  0  0  0
  -25.0140  -27.6620   19.5740 C   0  0  0  0  0  3  0  0  0  0  0  0
  -23.7030  -29.7750   20.2030 C   0  0  0  0  0  2  0  0  0  0  0  0
  -24.7160  -31.0660   22.1400 N   0  0  0  0  0  0  0  0  0  0  0  0
  -23.5470  -32.1210   23.7700 O   0  0  0  0  0  0  0  0  0  0  0  0
  -22.8170  -29.4200   22.5280 C   0  0  0  0  0  0  0  0  0  0  0  0
  -21.4930  -29.2380   22.3920 N   0  0  0  0  0  0  0  0  0  0  0  0
  -23.4970  -28.7860   23.3390 O   0  0  0  0  0  0  0  0  0  0  0  0
  -21.0060  -29.8010   21.7080 H   0  0  0  0  0  0  0  0  0  0  0  0
  -18.1140  -28.0510   22.8630 C   0  0  0  0  0  0  0  0  0  0  0  0
  -20.6710  -28.2930   23.1490 C   0  0  0  0  0  3  0  0  0  0  0  0
  -20.7710  -26.8690   22.5530 C   0  0  0  0  0  2  0  0  0  0  0  0
  -19.6710  -26.5650   21.5310 C   0  0  0  0  0  2  0  0  0  0  0  0
  -18.2880  -26.7090   22.1720 C   0  0  0  0  0  2  0  0  0  0  0  0
  -19.2340  -28.8020   23.3060 C   0  0  0  0  0  0  0  0  0  0  0  0
  -19.0190  -30.0600   23.9090 C   0  0  0  0  0  3  0  0  0  0  0  0
  -17.7170  -30.5670   24.0740 C   0  0  0  0  0  3  0  0  0  0  0  0
  -16.6110  -29.8110   23.6490 C   0  0  0  0  0  3  0  0  0  0  0  0
  -16.8110  -28.5550   23.0490 C   0  0  0  0  0  3  0  0  0  0  0  0
  -25.9100  -32.5010   23.8840 C   0  0  0  0  0  3  0  0  0  0  0  0
  -25.5880  -33.8980   24.2030 N   0  0  0  0  0  0  0  0  0  0  0  0
  -25.9300  -34.9480   23.4430 C   0  0  0  0  0  0  0  0  0  0  0  0
  -26.6180  -34.8430   22.4240 O   0  0  0  0  0  0  0  0  0  0  0  0
  -24.9800  -34.0540   24.9930 H   0  0  0  0  0  0  0  0  0  0  0  0
  -24.1980  -36.7260   23.0440 C   0  0  0  0  0  1  0  0  0  0  0  0
  -25.4240  -36.3350   23.8840 C   0  0  0  0  0  3  0  0  0  0  0  0
  -27.5360  -37.2340   24.7570 C   0  0  0  0  0  1  0  0  0  0  0  0
  -26.4540  -37.3930   23.7880 N   0  0  0  0  0  0  0  0  0  0  0  0
  -26.0410  -38.3110   23.9220 H   0  0  0  0  0  0  0  0  0  0  0  0
  -26.4120  -31.7350   25.1690 C   0  0  1  0  0  0  0  0  0  0  0  0
  -25.3040  -31.4910   26.2190 C   0  0  0  0  0  1  0  0  0  0  0  0
  -27.0090  -30.3620   24.7830 C   0  0  0  0  0  1  0  0  0  0  0  0
  -27.5470  -32.5360   25.8480 C   0  0  0  0  0  1  0  0  0  0  0  0
  1  2  1  0
  1 54  1  0
  3  4  1  0
  3  2  1  0
  4  5  1  0
  5  6  1  0
  6  7  1  0
  7  8  1  0
  8  9  1  0
 10  9  1  0
 11 13  1  0
 11 10  1  0
 12 13  1  0
 12 16  1  0
 13 15  1  0
 14 12  2  0
 17 16  1  0
 18 17  1  0
 19 24  1  0
 20 21  1  0
 20 19  1  0
 22 21  1  0
 22 29  1  0
 22 23  1  0
 24 18  1  0
 24 23  1  0
 25 18  2  0
 26 27  2  0
 27 46  1  0
 28 27  1  0
 28 31  1  0
 29 30  1  0
 29 26  1  0
 30 28  2  0
 31 32  1  0
 32 33  2  0
 34 37  1  0
 34 33  1  0
 35 34  2  0
 36 35  1  0
 36 31  2  0
 37 38  1  0
 38 39  1  0
 39 40  2  0
 41 40  1  0
 41 45  1  0
 42 41  2  0
 43 38  2  0
 43 42  1  0
 44 43  1  0
 46 47  1  0
 47 50  1  0
 47 49  1  0
 48 46  2  0
 51 52  1  0
 51 26  1  0
 53 51  1  0
 55 61  1  0
 56 54  1  0
 56 55  1  0
 57 55  2  0
 58 60  1  0
 60 56  1  0
 60 59  1  0
 61 62  1  0
 62 63  1  0
 63 64  1  0
 65 64  1  0
 66 77  2  0
 67 65  1  0
 67 72  1  0
 68 76  1  0
 68 78  1  0
 69 75  1  0
 69 71  1  0
 70 76  1  0
 71 72  2  0
 71 70  1  0
 73 67  2  0
 74 73  1  0
 74 69  2  0
 75 68  1  0
 76 66  1  0
 78 80  2  0
 79 78  1  0
 81 79  1  0
 82 91  2  0
 82 87  1  0
 83 79  1  0
 83 87  1  0
 84 83  1  0
 85 86  1  0
 85 84  1  0
 86 82  1  0
 87 88  2  0
 88 89  1  0
 90 89  2  0
 91 90  1  0
 92 66  1  0
 92 93  1  0
 92102  1  0
 93 96  1  0
 94 98  1  0
 94 93  1  0
 95 94  2  0
 98 97  1  0
100 98  1  0
100101  1  0
100 99  1  0
102105  1  1
102103  1  0
104102  1  0
M  ISO  4  17 100  18 100  64 101  65 101
M  END
>  <TORSDO>  (53) 
F 36

>  <SCORE>  (53) 
-9.519

>  <name>  (53) 
52

>  <ligand_id>  (53) 
52

>  <original_smiles>  (53) 
[H]c1c([H])c([H])c2c(c1[H])C([H])([H])C([H])([H])C([H])([H])C2([H])N([H])C(=O)C1([H])N(C(=O)C([H])(N([H])C(=O)C([H])(N([H])C([H])([H])[H])C([H])([H])[H])C(C([H])([H])[H])(C([H])([H])[H])C([H])([H])[H])C([H])([H])c2c([H])c(OC([H])([H])C([H])([H])OC([H])([H])C(=O)N(C([H])([H])C([H])([H])OC([H])([H])C([H])([H])OC([H])([H])C([H])([H])OC([H])([H])C([H])([H])C([H])([H])N([H])C(=O)C([H])([H])OC(=O)N3C([H])([H])C([H])([H])C([H])([H])C([H])(n4nc(-c5c([H])c([H])c(Oc6c([H])c([H])c(F)c([H])c6F)c([H])c5[H])c(C(=O)N([H])[H])c4N([H])[H])C3([H])[H])C([H])(C([H])([H])[H])C([H])([H])[H])c([H])c([H])c2C1([H])[H]

>  <smiles>  (53) 
[H]c1c([H])c([H])c2c(c1[H])C([H])([H])C([H])([H])C([H])([H])C2([H])N([H])C(=O)C1([H])N(C(=O)C([H])(N([H])C(=O)C([H])(N([H])C([H])([H])[H])C([H])([H])[H])C(C([H])([H])[H])(C([H])([H])[H])C([H])([H])[H])C([H])([H])c2c([H])c(OC([H])([H])C([H])([H])OC([H])([H])C(=O)N(C([H])([H])C([H])([H])OC([H])([H])C([H])([H])OC([H])([H])C([H])([H])OC([H])([H])C([H])([H])C([H])([H])N([H])C(=O)C([H])([H])OC(=O)N3C([H])([H])C([H])([H])C([H])([H])C([H])(n4nc(-c5c([H])c([H])c(Oc6c([H])c([H])c(F)c([H])c6F)c([H])c5[H])c(C(=O)N([H])[H])c4N([H])[H])C3([H])[H])C([H])(C([H])([H])[H])C([H])([H])[H])c([H])c([H])c2C1([H])[H]

$$$$
53:0:0
     RDKit          3D

 91 99  0  0  1  0  0  0  0  0999 V2000
  -29.0480  -21.9640   21.5170 C   0  0  0  0  0  3  0  0  0  0  0  0
  -28.5830  -22.4530   19.1860 C   0  0  0  0  0  3  0  0  0  0  0  0
  -28.9630  -23.3460   21.8130 C   0  0  0  0  0  3  0  0  0  0  0  0
  -28.4970  -23.8340   19.4820 C   0  0  0  0  0  3  0  0  0  0  0  0
  -28.8540  -21.4950   20.1970 C   0  0  0  0  0  0  0  0  0  0  0  0
  -28.6760  -24.2940   20.8050 C   0  0  0  0  0  0  0  0  0  0  0  0
  -28.8170  -20.0160   19.8660 C   0  0  0  0  0  0  0  0  0  0  0  0
  -29.5190  -19.1590   20.6320 N   0  0  0  0  0  0  0  0  0  0  0  0
  -28.1600  -19.6250   18.8980 O   0  0  0  0  0  0  0  0  0  0  0  0
  -30.0700  -19.5360   21.3900 H   0  0  0  0  0  0  0  0  0  0  0  0
  -29.4250  -17.6930   20.4880 C   0  0  0  0  0  2  0  0  0  0  0  0
  -30.4520  -16.8880   21.3210 C   0  0  0  0  0  2  0  0  0  0  0  0
  -30.0820  -15.5010   21.3540 O   0  0  0  0  0  0  0  0  0  0  0  0
  -30.7470  -14.5440   20.6470 C   0  0  0  0  0  0  0  0  0  0  0  0
  -30.3720  -12.3530   19.5130 C   0  0  0  0  0  2  0  0  0  0  0  0
  -29.5220  -12.5200   18.2300 C   0  0  0  0  0  2  0  0  0  0  0  0
  -28.0280  -12.8260   18.5000 C   0  0  0  0  0  2  0  0  0  0  0  0
  -27.6690  -12.7460   19.9840 C   0  0  0  0  0  3  0  0  0  0  0  0
  -28.6310  -13.2390   21.0560 C   0  0  0  0  0  2  0  0  0  0  0  0
  -29.9820  -13.3820   20.4940 N   0  0  0  0  0  0  0  0  0  0  0  0
  -31.8510  -14.7330   20.1380 O   0  0  0  0  0  0  0  0  0  0  0  0
  -25.2570  -13.7610   20.4640 C   0  0  0  0  0  0  0  0  0  0  0  0
  -24.1310  -13.0540   20.8220 C   0  0  0  0  0  0  0  0  0  0  0  0
  -24.5250  -11.6860   20.8560 C   0  0  0  0  0  0  0  0  0  0  0  0
  -26.2570  -12.7910   20.3290 N   0  0  0  0  0  0  0  0  0  0  0  0
  -25.7930  -11.5650   20.5970 N   0  0  0  0  0  0  0  0  0  0  0  0
  -23.8000  -10.4430   21.0550 C   0  0  0  0  0  0  0  0  0  0  0  0
  -24.2470   -9.4870   21.9930 C   0  0  0  0  0  3  0  0  0  0  0  0
  -23.5410   -8.2810   22.1620 C   0  0  0  0  0  3  0  0  0  0  0  0
  -22.3800   -8.0320   21.3930 C   0  0  0  0  0  0  0  0  0  0  0  0
  -21.9640   -8.9750   20.4390 C   0  0  0  0  0  3  0  0  0  0  0  0
  -22.6700  -10.1740   20.2640 C   0  0  0  0  0  3  0  0  0  0  0  0
  -21.6360   -6.8840   21.4800 O   0  0  0  0  0  0  0  0  0  0  0  0
  -21.5950   -6.1460   22.6340 C   0  0  0  0  0  0  0  0  0  0  0  0
  -21.1930   -6.7060   23.8670 C   0  0  0  0  0  3  0  0  0  0  0  0
  -21.0990   -5.8900   25.0110 C   0  0  0  0  0  3  0  0  0  0  0  0
  -21.3980   -4.5170   24.9240 C   0  0  0  0  0  0  0  0  0  0  0  0
  -21.7970   -3.9590   23.6960 C   0  0  0  0  0  3  0  0  0  0  0  0
  -21.8920   -4.7720   22.5540 C   0  0  0  0  0  0  0  0  0  0  0  0
  -22.2570   -4.2280   21.3680 F   0  0  0  0  0  0  0  0  0  0  0  0
  -21.2980   -3.7300   26.0200 F   0  0  0  0  0  0  0  0  0  0  0  0
  -22.7370  -13.5690   21.0430 C   0  0  0  0  0  0  0  0  0  0  0  0
  -21.9710  -12.8980   21.8990 N   0  0  0  0  0  0  0  0  0  0  0  0
  -22.3290  -14.5870   20.4870 O   0  0  0  0  0  0  0  0  0  0  0  0
  -22.3100  -12.0730   22.3700 H   0  0  0  0  0  0  0  0  0  0  0  0
  -21.0320  -13.2190   22.0890 H   0  0  0  0  0  0  0  0  0  0  0  0
  -25.4970  -15.1140   20.2460 N   0  0  0  0  0  0  0  0  0  0  0  0
  -24.7710  -15.8210   20.2860 H   0  0  0  0  0  0  0  0  0  0  0  0
  -26.3890  -15.4740   19.9260 H   0  0  0  0  0  0  0  0  0  0  0  0
  -28.5410  -25.7760   21.1810 C   0  0  0  0  0  2  0  0  0  0  0  0
  -28.3720  -26.6820   20.0810 O   0  0  0  0  0  0  0  0  0  0  0  0
  -24.6040  -31.8750   23.2240 C   0  0  0  0  0  0  0  0  0  0  0  0
  -27.2180  -27.4310   20.1260 C   0  0  0  0  0  0  0  0  0  0  0  0
  -23.3820  -30.4740   21.5900 C   0  0  0  0  0  3  0  0  0  0  0  0
  -24.8230  -28.9300   20.1570 C   0  0  0  0  0  0  0  0  0  0  0  0
  -25.9050  -30.8300   21.3710 C   0  0  0  0  0  2  0  0  0  0  0  0
  -25.9860  -29.4570   20.7370 C   0  0  0  0  0  0  0  0  0  0  0  0
  -27.1880  -28.7120   20.7200 C   0  0  0  0  0  3  0  0  0  0  0  0
  -26.0440  -26.9140   19.5450 C   0  0  0  0  0  3  0  0  0  0  0  0
  -24.8450  -27.6560   19.5610 C   0  0  0  0  0  3  0  0  0  0  0  0
  -23.5800  -29.7890   20.2100 C   0  0  0  0  0  2  0  0  0  0  0  0
  -24.6490  -31.0750   22.1190 N   0  0  0  0  0  0  0  0  0  0  0  0
  -23.5290  -32.1490   23.7730 O   0  0  0  0  0  0  0  0  0  0  0  0
  -22.7370  -29.4560   22.5580 C   0  0  0  0  0  0  0  0  0  0  0  0
  -21.4110  -29.2780   22.4420 N   0  0  0  0  0  0  0  0  0  0  0  0
  -23.4260  -28.8290   23.3660 O   0  0  0  0  0  0  0  0  0  0  0  0
  -20.9160  -29.8360   21.7610 H   0  0  0  0  0  0  0  0  0  0  0  0
  -18.0390  -28.0880   22.9640 C   0  0  0  0  0  0  0  0  0  0  0  0
  -20.5980  -28.3420   23.2200 C   0  0  0  0  0  3  0  0  0  0  0  0
  -20.6950  -26.9100   22.6440 C   0  0  0  0  0  2  0  0  0  0  0  0
  -19.5860  -26.5890   21.6360 C   0  0  0  0  0  2  0  0  0  0  0  0
  -18.2090  -26.7370   22.2890 C   0  0  0  0  0  2  0  0  0  0  0  0
  -19.1610  -28.8490   23.3870 C   0  0  0  0  0  0  0  0  0  0  0  0
  -18.9490  -30.1130   23.9760 C   0  0  0  0  0  3  0  0  0  0  0  0
  -17.6460  -30.6180   24.1480 C   0  0  0  0  0  3  0  0  0  0  0  0
  -16.5380  -29.8550   23.7420 C   0  0  0  0  0  3  0  0  0  0  0  0
  -16.7350  -28.5910   23.1560 C   0  0  0  0  0  3  0  0  0  0  0  0
  -25.8980  -32.5030   23.8310 C   0  0  0  0  0  3  0  0  0  0  0  0
  -25.5920  -33.8980   24.1770 N   0  0  0  0  0  0  0  0  0  0  0  0
  -25.9170  -34.9560   23.4220 C   0  0  0  0  0  0  0  0  0  0  0  0
  -26.5780  -34.8610   22.3830 O   0  0  0  0  0  0  0  0  0  0  0  0
  -25.0070  -34.0460   24.9850 H   0  0  0  0  0  0  0  0  0  0  0  0
  -24.1860  -36.7490   23.0930 C   0  0  0  0  0  1  0  0  0  0  0  0
  -25.4330  -36.3400   23.8930 C   0  0  0  0  0  3  0  0  0  0  0  0
  -27.5750  -37.2160   24.7140 C   0  0  0  0  0  1  0  0  0  0  0  0
  -26.4650  -37.3950   23.7820 N   0  0  0  0  0  0  0  0  0  0  0  0
  -26.0600  -38.3130   23.9410 H   0  0  0  0  0  0  0  0  0  0  0  0
  -26.4360  -31.7200   25.0930 C   0  0  1  0  0  0  0  0  0  0  0  0
  -25.3600  -31.4730   26.1750 C   0  0  0  0  0  1  0  0  0  0  0  0
  -27.0110  -30.3470   24.6760 C   0  0  0  0  0  1  0  0  0  0  0  0
  -27.5960  -32.5090   25.7440 C   0  0  0  0  0  1  0  0  0  0  0  0
  1  3  1  0
  2  4  2  0
  2  5  1  0
  4  6  1  0
  5  1  2  0
  6 50  1  0
  6  3  2  0
  7  5  1  0
  7  8  1  0
  8 10  1  0
  9  7  2  0
 11  8  1  0
 11 12  1  0
 12 13  1  0
 14 13  1  0
 15 20  1  0
 16 17  1  0
 16 15  1  0
 18 17  1  0
 18 25  1  0
 18 19  1  0
 20 14  1  0
 20 19  1  0
 21 14  2  0
 22 23  2  0
 23 24  1  0
 23 42  1  0
 24 27  1  0
 25 22  1  0
 25 26  1  0
 26 24  2  0
 27 28  1  0
 28 29  2  0
 30 33  1  0
 30 29  1  0
 31 30  2  0
 32 31  1  0
 32 27  2  0
 33 34  1  0
 34 35  1  0
 35 36  2  0
 37 36  1  0
 37 41  1  0
 38 37  2  0
 39 34  2  0
 39 38  1  0
 40 39  1  0
 42 43  1  0
 43 46  1  0
 43 45  1  0
 44 42  2  0
 47 48  1  0
 47 22  1  0
 49 47  1  0
 51 53  1  0
 51 50  1  0
 52 63  2  0
 53 58  1  0
 54 62  1  0
 54 64  1  0
 55 61  1  0
 55 57  1  0
 56 62  1  0
 57 56  1  0
 58 57  2  0
 59 60  1  0
 59 53  2  0
 60 55  2  0
 61 54  1  0
 62 52  1  0
 64 66  2  0
 65 64  1  0
 67 65  1  0
 68 77  2  0
 68 73  1  0
 69 65  1  0
 69 73  1  0
 70 69  1  0
 71 72  1  0
 71 70  1  0
 72 68  1  0
 73 74  2  0
 74 75  1  0
 76 75  2  0
 77 76  1  0
 78 52  1  0
 78 79  1  0
 78 88  1  0
 79 82  1  0
 80 84  1  0
 80 79  1  0
 81 80  2  0
 84 83  1  0
 86 84  1  0
 86 87  1  0
 86 85  1  0
 88 91  1  1
 88 89  1  0
 90 88  1  0
M  ISO  4  13 100  14 100  50 101  51 101
M  END
>  <TORSDO>  (54) 
F 21

>  <SCORE>  (54) 
-13.748

>  <name>  (54) 
53

>  <ligand_id>  (54) 
53

>  <original_smiles>  (54) 
[H]c1c([H])c([H])c2c(c1[H])C([H])([H])C([H])([H])C([H])([H])C2([H])N([H])C(=O)C1([H])N(C(=O)C([H])(N([H])C(=O)C([H])(N([H])C([H])([H])[H])C([H])([H])[H])C(C([H])([H])[H])(C([H])([H])[H])C([H])([H])[H])C([H])([H])c2c([H])c(OC([H])([H])c3c([H])c([H])c(C(=O)N([H])C([H])([H])C([H])([H])OC(=O)N4C([H])([H])C([H])([H])C([H])([H])C([H])(n5nc(-c6c([H])c([H])c(Oc7c([H])c([H])c(F)c([H])c7F)c([H])c6[H])c(C(=O)N([H])[H])c5N([H])[H])C4([H])[H])c([H])c3[H])c([H])c([H])c2C1([H])[H]

>  <smiles>  (54) 
[H]c1c([H])c([H])c2c(c1[H])C([H])([H])C([H])([H])C([H])([H])C2([H])N([H])C(=O)C1([H])N(C(=O)C([H])(N([H])C(=O)C([H])(N([H])C([H])([H])[H])C([H])([H])[H])C(C([H])([H])[H])(C([H])([H])[H])C([H])([H])[H])C([H])([H])c2c([H])c(OC([H])([H])c3c([H])c([H])c(C(=O)N([H])C([H])([H])C([H])([H])OC(=O)N4C([H])([H])C([H])([H])C([H])([H])C([H])(n5nc(-c6c([H])c([H])c(Oc7c([H])c([H])c(F)c([H])c7F)c([H])c6[H])c(C(=O)N([H])[H])c5N([H])[H])C4([H])[H])c([H])c3[H])c([H])c([H])c2C1([H])[H]

$$$$
54:0:0
     RDKit          3D

 92 99  0  0  1  0  0  0  0  0999 V2000
  -25.6860  -21.4260   19.9020 C   0  0  0  0  0  2  0  0  0  0  0  0
  -26.8610  -20.9500   19.1320 N   0  0  0  0  0  4  0  0  0  0  0  0
  -27.6130  -21.6010   19.3110 H   0  0  0  0  0  0  0  0  0  0  0  0
  -26.6530  -20.9970   18.1440 H   0  0  0  0  0  0  0  0  0  0  0  0
  -27.3070  -19.5840   19.4860 C   0  0  0  0  0  2  0  0  0  0  0  0
  -28.7960  -19.3520   19.1780 C   0  0  0  0  0  2  0  0  0  0  0  0
  -29.1350  -18.1130   19.7910 O   0  0  0  0  0  0  0  0  0  0  0  0
  -30.5300  -17.8580   19.9080 C   0  0  0  0  0  2  0  0  0  0  0  0
  -30.7560  -17.1190   21.2420 C   0  0  0  0  0  2  0  0  0  0  0  0
  -30.2760  -15.7730   21.2290 O   0  0  0  0  0  0  0  0  0  0  0  0
  -31.0110  -14.8200   20.6250 C   0  0  0  0  0  0  0  0  0  0  0  0
  -30.6820  -12.6760   19.4290 C   0  0  0  0  0  2  0  0  0  0  0  0
  -29.7660  -12.9410   18.2160 C   0  0  0  0  0  2  0  0  0  0  0  0
  -28.2870  -12.7990   18.6200 C   0  0  0  0  0  2  0  0  0  0  0  0
  -27.9280  -13.6180   19.8860 C   0  0  0  0  0  3  0  0  0  0  0  0
  -28.9560  -13.3710   21.0130 C   0  0  0  0  0  2  0  0  0  0  0  0
  -30.2980  -13.6230   20.4770 N   0  0  0  0  0  0  0  0  0  0  0  0
  -32.1250  -15.0430   20.1530 O   0  0  0  0  0  0  0  0  0  0  0  0
  -25.5030  -14.2190   20.5160 C   0  0  0  0  0  0  0  0  0  0  0  0
  -24.4240  -13.4460   20.8490 C   0  0  0  0  0  0  0  0  0  0  0  0
  -24.8880  -12.0940   20.8290 C   0  0  0  0  0  0  0  0  0  0  0  0
  -26.5590  -13.3410   20.3220 N   0  0  0  0  0  0  0  0  0  0  0  0
  -26.1870  -12.0570   20.5610 N   0  0  0  0  0  0  0  0  0  0  0  0
  -24.1560  -10.8310   20.9940 C   0  0  0  0  0  0  0  0  0  0  0  0
  -24.5450   -9.8690   21.9530 C   0  0  0  0  0  3  0  0  0  0  0  0
  -23.8160   -8.6710   22.1010 C   0  0  0  0  0  3  0  0  0  0  0  0
  -22.6810   -8.4250   21.2910 C   0  0  0  0  0  0  0  0  0  0  0  0
  -22.3120   -9.3750   20.3220 C   0  0  0  0  0  3  0  0  0  0  0  0
  -23.0420  -10.5650   20.1730 C   0  0  0  0  0  3  0  0  0  0  0  0
  -21.9270   -7.2790   21.3480 O   0  0  0  0  0  0  0  0  0  0  0  0
  -21.8040   -6.5540   22.5080 C   0  0  0  0  0  0  0  0  0  0  0  0
  -21.2750   -7.1200   23.6870 C   0  0  0  0  0  3  0  0  0  0  0  0
  -21.1060   -6.3230   24.8370 C   0  0  0  0  0  3  0  0  0  0  0  0
  -21.4530   -4.9600   24.8050 C   0  0  0  0  0  0  0  0  0  0  0  0
  -21.9710   -4.3910   23.6280 C   0  0  0  0  0  3  0  0  0  0  0  0
  -22.1450   -5.1870   22.4820 C   0  0  0  0  0  0  0  0  0  0  0  0
  -22.6300   -4.6310   21.3450 F   0  0  0  0  0  0  0  0  0  0  0  0
  -21.2830   -4.1900   25.9050 F   0  0  0  0  0  0  0  0  0  0  0  0
  -23.0180  -13.9220   21.0760 C   0  0  0  0  0  0  0  0  0  0  0  0
  -22.2620  -13.2300   21.9200 N   0  0  0  0  0  0  0  0  0  0  0  0
  -22.5970  -14.9460   20.5420 O   0  0  0  0  0  0  0  0  0  0  0  0
  -22.6080  -12.4010   22.3800 H   0  0  0  0  0  0  0  0  0  0  0  0
  -21.3190  -13.5400   22.1130 H   0  0  0  0  0  0  0  0  0  0  0  0
  -25.6690  -15.5910   20.3430 N   0  0  0  0  0  0  0  0  0  0  0  0
  -24.8840  -16.2300   20.4020 H   0  0  0  0  0  0  0  0  0  0  0  0
  -26.5350  -16.0430   20.0750 H   0  0  0  0  0  0  0  0  0  0  0  0
  -25.3080  -22.8540   19.4730 C   0  0  0  0  0  2  0  0  0  0  0  0
  -26.4850  -23.6550   19.5010 O   0  0  0  0  0  0  0  0  0  0  0  0
  -26.8540  -24.1050   20.8000 C   0  0  0  0  0  2  0  0  0  0  0  0
  -28.3080  -24.5970   20.7440 C   0  0  0  0  0  2  0  0  0  0  0  0
  -28.6120  -25.6690   19.6800 C   0  0  0  0  0  2  0  0  0  0  0  0
  -28.4770  -26.9860   20.2050 O   0  0  0  0  0  0  0  0  0  0  0  0
  -24.5600  -31.9820   23.3560 C   0  0  0  0  0  0  0  0  0  0  0  0
  -27.2600  -27.6260   20.2090 C   0  0  0  0  0  0  0  0  0  0  0  0
  -23.3720  -30.5910   21.6870 C   0  0  0  0  0  3  0  0  0  0  0  0
  -24.8450  -29.0930   20.2440 C   0  0  0  0  0  0  0  0  0  0  0  0
  -25.8960  -30.9740   21.5110 C   0  0  0  0  0  2  0  0  0  0  0  0
  -25.9910  -29.6180   20.8470 C   0  0  0  0  0  0  0  0  0  0  0  0
  -27.1970  -28.8900   20.8270 C   0  0  0  0  0  3  0  0  0  0  0  0
  -26.0890  -27.1050   19.6080 C   0  0  0  0  0  3  0  0  0  0  0  0
  -24.8860  -27.8330   19.6210 C   0  0  0  0  0  3  0  0  0  0  0  0
  -23.5950  -29.9390   20.2980 C   0  0  0  0  0  2  0  0  0  0  0  0
  -24.6260  -31.1950   22.2450 N   0  0  0  0  0  0  0  0  0  0  0  0
  -23.4740  -32.2400   23.8920 O   0  0  0  0  0  0  0  0  0  0  0  0
  -22.7230  -29.5490   22.6260 C   0  0  0  0  0  0  0  0  0  0  0  0
  -21.4010  -29.3560   22.4820 N   0  0  0  0  0  0  0  0  0  0  0  0
  -23.4050  -28.9230   23.4400 O   0  0  0  0  0  0  0  0  0  0  0  0
  -20.9160  -29.9210   21.8010 H   0  0  0  0  0  0  0  0  0  0  0  0
  -18.0310  -28.1280   22.9340 C   0  0  0  0  0  0  0  0  0  0  0  0
  -20.5820  -28.4030   23.2290 C   0  0  0  0  0  3  0  0  0  0  0  0
  -20.7010  -26.9770   22.6420 C   0  0  0  0  0  2  0  0  0  0  0  0
  -19.6140  -26.6510   21.6170 C   0  0  0  0  0  2  0  0  0  0  0  0
  -18.2250  -26.7830   22.2480 C   0  0  0  0  0  2  0  0  0  0  0  0
  -19.1400  -28.8940   23.3800 C   0  0  0  0  0  0  0  0  0  0  0  0
  -18.9110  -30.1460   23.9880 C   0  0  0  0  0  3  0  0  0  0  0  0
  -17.6030  -30.6400   24.1470 C   0  0  0  0  0  3  0  0  0  0  0  0
  -16.5050  -29.8710   23.7180 C   0  0  0  0  0  3  0  0  0  0  0  0
  -16.7200  -28.6150   23.1220 C   0  0  0  0  0  3  0  0  0  0  0  0
  -25.8390  -32.6110   23.9910 C   0  0  0  0  0  3  0  0  0  0  0  0
  -26.3110  -31.8680   25.3030 C   0  0  1  0  0  0  0  0  0  0  0  0
  -25.1890  -31.6690   26.3490 C   0  0  0  0  0  1  0  0  0  0  0  0
  -26.8880  -30.4750   24.9620 C   0  0  0  0  0  1  0  0  0  0  0  0
  -27.4560  -32.6640   25.9740 C   0  0  0  0  0  1  0  0  0  0  0  0
  -25.5490  -34.0230   24.2750 N   0  0  0  0  0  0  0  0  0  0  0  0
  -25.9080  -35.0430   23.4850 C   0  0  0  0  0  0  0  0  0  0  0  0
  -26.5970  -34.8960   22.4730 O   0  0  0  0  0  0  0  0  0  0  0  0
  -24.9540  -34.2140   25.0670 H   0  0  0  0  0  0  0  0  0  0  0  0
  -24.2160  -36.8420   23.0250 C   0  0  0  0  0  1  0  0  0  0  0  0
  -25.4290  -36.4520   23.8830 C   0  0  0  0  0  3  0  0  0  0  0  0
  -27.5510  -37.3330   24.7420 C   0  0  0  0  0  1  0  0  0  0  0  0
  -26.4790  -37.4870   23.7630 N   0  0  0  0  0  0  0  0  0  0  0  0
  -26.0850  -38.4180   23.8700 H   0  0  0  0  0  0  0  0  0  0  0  0
  2  3  1  0
  2  5  1  0
  2  1  1  0
  4  2  1  0
  6  5  1  0
  6  7  1  0
  7  8  1  0
  8  9  1  0
 10  9  1  0
 11 10  1  0
 12 17  1  0
 13 14  1  0
 13 12  1  0
 15 14  1  0
 15 22  1  0
 15 16  1  0
 17 11  1  0
 17 16  1  0
 18 11  2  0
 19 20  2  0
 20 39  1  0
 21 20  1  0
 21 24  1  0
 22 19  1  0
 22 23  1  0
 23 21  2  0
 24 25  1  0
 25 26  2  0
 27 30  1  0
 27 26  1  0
 28 27  2  0
 29 28  1  0
 29 24  2  0
 30 31  1  0
 31 32  1  0
 32 33  2  0
 34 33  1  0
 34 38  1  0
 35 34  2  0
 36 31  2  0
 36 35  1  0
 37 36  1  0
 39 40  1  0
 40 43  1  0
 40 42  1  0
 41 39  2  0
 44 45  1  0
 44 19  1  0
 46 44  1  0
 47 48  1  0
 47  1  1  0
 48 49  1  0
 50 49  1  0
 51 52  1  0
 51 50  1  0
 52 54  1  0
 53 64  2  0
 54 59  1  0
 55 63  1  0
 55 65  1  0
 56 62  1  0
 56 58  1  0
 57 63  1  0
 58 57  1  0
 59 58  2  0
 60 61  1  0
 60 54  2  0
 61 56  2  0
 62 55  1  0
 63 53  1  0
 65 67  2  0
 66 65  1  0
 68 66  1  0
 69 78  2  0
 69 74  1  0
 70 66  1  0
 70 74  1  0
 71 70  1  0
 72 73  1  0
 72 71  1  0
 73 69  1  0
 74 75  2  0
 75 76  1  0
 77 76  2  0
 78 77  1  0
 79 53  1  0
 79 84  1  0
 79 80  1  0
 80 83  1  1
 80 81  1  0
 82 80  1  0
 84 87  1  0
 85 89  1  0
 85 84  1  0
 86 85  2  0
 89 88  1  0
 91 92  1  0
 91 89  1  0
 91 90  1  0
M  ISO  4  10 100  11 100  51 101  52 101
M  END
>  <TORSDO>  (55) 
F 28

>  <SCORE>  (55) 
-10.163

>  <name>  (55) 
54

>  <ligand_id>  (55) 
54

>  <original_smiles>  (55) 
[H]c1c([H])c([H])c2c(c1[H])C([H])([H])C([H])([H])C([H])([H])C2([H])N([H])C(=O)C1([H])N(C(=O)C([H])(N([H])C(=O)C([H])(N([H])C([H])([H])[H])C([H])([H])[H])C(C([H])([H])[H])(C([H])([H])[H])C([H])([H])[H])C([H])([H])c2c([H])c(OC([H])([H])C([H])([H])C([H])([H])OC([H])([H])C([H])([H])[N+]([H])([H])C([H])([H])C([H])([H])OC([H])([H])C([H])([H])OC(=O)N3C([H])([H])C([H])([H])C([H])([H])C([H])(n4nc(-c5c([H])c([H])c(Oc6c([H])c([H])c(F)c([H])c6F)c([H])c5[H])c(C(=O)N([H])[H])c4N([H])[H])C3([H])[H])c([H])c([H])c2C1([H])[H]

>  <smiles>  (55) 
[H]c1c([H])c([H])c2c(c1[H])C([H])([H])C([H])([H])C([H])([H])C2([H])N([H])C(=O)C1([H])N(C(=O)C([H])(N([H])C(=O)C([H])(N([H])C([H])([H])[H])C([H])([H])[H])C(C([H])([H])[H])(C([H])([H])[H])C([H])([H])[H])C([H])([H])c2c([H])c(OC([H])([H])C([H])([H])C([H])([H])OC([H])([H])C([H])([H])[N+]([H])([H])C([H])([H])C([H])([H])OC([H])([H])C([H])([H])OC(=O)N3C([H])([H])C([H])([H])C([H])([H])C([H])(n4nc(-c5c([H])c([H])c(Oc6c([H])c([H])c(F)c([H])c6F)c([H])c5[H])c(C(=O)N([H])[H])c4N([H])[H])C3([H])[H])c([H])c([H])c2C1([H])[H]

$$$$
55:0:0
     RDKit          3D

 96103  0  0  1  0  0  0  0  0999 V2000
  -25.4100  -22.9830   20.5010 C   0  0  0  0  0  0  0  0  0  0  0  0
  -25.2400  -22.6730   19.2100 N   0  0  0  0  0  0  0  0  0  0  0  0
  -24.9620  -22.3030   21.4280 O   0  0  0  0  0  0  0  0  0  0  0  0
  -25.6620  -23.2890   18.5280 H   0  0  0  0  0  0  0  0  0  0  0  0
  -24.4760  -21.5490   18.6750 C   0  0  0  0  0  2  0  0  0  0  0  0
  -25.4090  -20.4600   18.1350 C   0  0  0  0  0  2  0  0  0  0  0  0
  -25.9440  -19.7550   19.2430 O   0  0  0  0  0  0  0  0  0  0  0  0
  -26.8850  -18.7570   18.8880 C   0  0  0  0  0  2  0  0  0  0  0  0
  -28.3060  -19.2230   19.2040 C   0  0  0  0  0  2  0  0  0  0  0  0
  -29.1350  -18.0810   19.4030 O   0  0  0  0  0  0  0  0  0  0  0  0
  -30.2560  -18.3600   20.2320 C   0  0  0  0  0  2  0  0  0  0  0  0
  -31.3110  -17.2570   20.0830 C   0  0  0  0  0  2  0  0  0  0  0  0
  -31.4950  -14.8130   20.2220 C   0  0  0  0  0  0  0  0  0  0  0  0
  -31.1340  -12.5460   19.3550 C   0  0  0  0  0  2  0  0  0  0  0  0
  -30.2330  -12.6600   18.1100 C   0  0  0  0  0  2  0  0  0  0  0  0
  -28.7500  -12.6110   18.5220 C   0  0  0  0  0  2  0  0  0  0  0  0
  -28.4090  -13.5740   19.6920 C   0  0  0  0  0  3  0  0  0  0  0  0
  -29.4450  -13.4680   20.8340 C   0  0  0  0  0  2  0  0  0  0  0  0
  -30.7810  -13.6580   20.2490 N   0  0  0  0  0  0  0  0  0  0  0  0
  -32.6440  -14.8850   19.7850 O   0  0  0  0  0  0  0  0  0  0  0  0
  -30.8110  -15.9350   20.4790 N   0  0  0  0  0  0  0  0  0  0  0  0
  -29.8400  -15.8650   20.7360 H   0  0  0  0  0  0  0  0  0  0  0  0
  -26.0840  -14.3190   20.4990 C   0  0  0  0  0  0  0  0  0  0  0  0
  -24.9560  -13.6210   20.8310 C   0  0  0  0  0  0  0  0  0  0  0  0
  -25.2910  -12.2430   20.6730 C   0  0  0  0  0  0  0  0  0  0  0  0
  -27.0440  -13.3740   20.1740 N   0  0  0  0  0  0  0  0  0  0  0  0
  -26.5680  -12.1130   20.3340 N   0  0  0  0  0  0  0  0  0  0  0  0
  -24.4540  -11.0440   20.7720 C   0  0  0  0  0  0  0  0  0  0  0  0
  -24.7890   -9.9800   21.6410 C   0  0  0  0  0  3  0  0  0  0  0  0
  -23.9560   -8.8440   21.7330 C   0  0  0  0  0  3  0  0  0  0  0  0
  -22.7760   -8.7650   20.9600 C   0  0  0  0  0  0  0  0  0  0  0  0
  -22.4590   -9.8150   20.0800 C   0  0  0  0  0  3  0  0  0  0  0  0
  -23.2900  -10.9440   19.9840 C   0  0  0  0  0  3  0  0  0  0  0  0
  -21.9230   -7.6880   20.9630 O   0  0  0  0  0  0  0  0  0  0  0  0
  -21.7710   -6.8970   22.0750 C   0  0  0  0  0  0  0  0  0  0  0  0
  -21.3430   -7.4290   23.3110 C   0  0  0  0  0  3  0  0  0  0  0  0
  -21.1340   -6.5720   24.4100 C   0  0  0  0  0  3  0  0  0  0  0  0
  -21.3360   -5.1850   24.2720 C   0  0  0  0  0  0  0  0  0  0  0  0
  -21.7530   -4.6530   23.0380 C   0  0  0  0  0  3  0  0  0  0  0  0
  -21.9650   -5.5070   21.9420 C   0  0  0  0  0  0  0  0  0  0  0  0
  -22.3490   -4.9880   20.7520 F   0  0  0  0  0  0  0  0  0  0  0  0
  -21.1240   -4.3610   25.3230 F   0  0  0  0  0  0  0  0  0  0  0  0
  -23.6150  -14.2040   21.1760 C   0  0  0  0  0  0  0  0  0  0  0  0
  -22.8410  -13.5200   22.0100 N   0  0  0  0  0  0  0  0  0  0  0  0
  -23.2660  -15.3030   20.7450 O   0  0  0  0  0  0  0  0  0  0  0  0
  -23.1280  -12.6300   22.3860 H   0  0  0  0  0  0  0  0  0  0  0  0
  -21.9450  -13.9010   22.2800 H   0  0  0  0  0  0  0  0  0  0  0  0
  -26.3620  -15.6750   20.4320 N   0  0  0  0  0  0  0  0  0  0  0  0
  -25.6500  -16.3700   20.6250 H   0  0  0  0  0  0  0  0  0  0  0  0
  -27.2530  -16.0670   20.1520 H   0  0  0  0  0  0  0  0  0  0  0  0
  -26.1570  -24.2920   20.7700 C   0  0  0  0  0  2  0  0  0  0  0  0
  -26.8930  -24.2280   21.9900 O   0  0  0  0  0  0  0  0  0  0  0  0
  -27.5080  -25.4690   22.3580 C   0  0  0  0  0  2  0  0  0  0  0  0
  -28.7180  -25.8180   21.4470 C   0  0  0  0  0  0  0  0  0  0  0  0
  -29.7430  -25.1360   21.5110 O   0  0  0  0  0  0  0  0  0  0  0  0
  -28.6090  -26.8850   20.5900 O   0  0  0  0  0  0  0  0  0  0  0  0
  -24.6470  -32.0480   23.4150 C   0  0  0  0  0  0  0  0  0  0  0  0
  -27.4570  -27.6230   20.5110 C   0  0  0  0  0  0  0  0  0  0  0  0
  -23.5200  -30.6080   21.7440 C   0  0  0  0  0  3  0  0  0  0  0  0
  -25.0490  -29.0790   20.3920 C   0  0  0  0  0  0  0  0  0  0  0  0
  -26.0430  -31.0050   21.6400 C   0  0  0  0  0  2  0  0  0  0  0  0
  -26.1690  -29.6280   21.0310 C   0  0  0  0  0  0  0  0  0  0  0  0
  -27.3760  -28.9010   21.1030 C   0  0  0  0  0  3  0  0  0  0  0  0
  -26.3450  -27.1090   19.8140 C   0  0  0  0  0  3  0  0  0  0  0  0
  -25.1290  -27.8160   19.7800 C   0  0  0  0  0  3  0  0  0  0  0  0
  -23.7890  -29.9140   20.3810 C   0  0  0  0  0  2  0  0  0  0  0  0
  -24.7510  -31.2360   22.3250 N   0  0  0  0  0  0  0  0  0  0  0  0
  -23.5450  -32.3150   23.9110 O   0  0  0  0  0  0  0  0  0  0  0  0
  -22.8480  -29.5910   22.6900 C   0  0  0  0  0  0  0  0  0  0  0  0
  -21.5330  -29.3860   22.5130 N   0  0  0  0  0  0  0  0  0  0  0  0
  -23.5070  -28.9870   23.5400 O   0  0  0  0  0  0  0  0  0  0  0  0
  -21.0610  -29.9260   21.7990 H   0  0  0  0  0  0  0  0  0  0  0  0
  -18.1570  -28.1720   22.9030 C   0  0  0  0  0  0  0  0  0  0  0  0
  -20.7010  -28.4460   23.2620 C   0  0  0  0  0  3  0  0  0  0  0  0
  -20.8340  -27.0130   22.6950 C   0  0  0  0  0  2  0  0  0  0  0  0
  -19.7680  -26.6810   21.6460 C   0  0  0  0  0  2  0  0  0  0  0  0
  -18.3650  -26.8190   22.2420 C   0  0  0  0  0  2  0  0  0  0  0  0
  -19.2550  -28.9430   23.3690 C   0  0  0  0  0  0  0  0  0  0  0  0
  -19.0100  -30.2080   23.9440 C   0  0  0  0  0  3  0  0  0  0  0  0
  -17.6980  -30.7040   24.0620 C   0  0  0  0  0  3  0  0  0  0  0  0
  -16.6130  -29.9300   23.6150 C   0  0  0  0  0  3  0  0  0  0  0  0
  -16.8430  -28.6670   23.0430 C   0  0  0  0  0  3  0  0  0  0  0  0
  -25.9050  -32.7010   24.0700 C   0  0  0  0  0  3  0  0  0  0  0  0
  -26.3420  -31.9980   25.4120 C   0  0  1  0  0  0  0  0  0  0  0  0
  -25.1810  -31.8060   26.4160 C   0  0  0  0  0  1  0  0  0  0  0  0
  -26.9510  -30.6050   25.1220 C   0  0  0  0  0  1  0  0  0  0  0  0
  -27.4460  -32.8270   26.1060 C   0  0  0  0  0  1  0  0  0  0  0  0
  -25.5970  -34.1180   24.3000 N   0  0  0  0  0  0  0  0  0  0  0  0
  -25.9870  -35.1200   23.5000 C   0  0  0  0  0  0  0  0  0  0  0  0
  -26.7120  -34.9490   22.5160 O   0  0  0  0  0  0  0  0  0  0  0  0
  -24.9650  -34.3240   25.0580 H   0  0  0  0  0  0  0  0  0  0  0  0
  -24.2980  -36.8970   22.9420 C   0  0  0  0  0  1  0  0  0  0  0  0
  -25.4890  -36.5360   23.8430 C   0  0  0  0  0  3  0  0  0  0  0  0
  -27.5840  -37.4500   24.7410 C   0  0  0  0  0  1  0  0  0  0  0  0
  -26.5390  -37.5720   23.7280 N   0  0  0  0  0  0  0  0  0  0  0  0
  -26.1350  -38.5010   23.8020 H   0  0  0  0  0  0  0  0  0  0  0  0
  1 51  1  0
  1  3  2  0
  2  1  1  0
  4  2  1  0
  5  2  1  0
  6  5  1  0
  6  7  1  0
  8  9  1  0
  8  7  1  0
  9 10  1  0
 10 11  1  0
 12 11  1  0
 12 21  1  0
 13 19  1  0
 13 21  1  0
 14 19  1  0
 15 16  1  0
 15 14  1  0
 17 16  1  0
 17 26  1  0
 17 18  1  0
 19 18  1  0
 20 13  2  0
 21 22  1  0
 23 24  2  0
 24 43  1  0
 25 28  1  0
 25 24  1  0
 26 27  1  0
 26 23  1  0
 27 25  2  0
 28 29  1  0
 29 30  2  0
 31 34  1  0
 31 30  1  0
 32 31  2  0
 33 32  1  0
 33 28  2  0
 34 35  1  0
 35 36  1  0
 36 37  2  0
 38 37  1  0
 38 42  1  0
 39 38  2  0
 40 35  2  0
 40 39  1  0
 41 40  1  0
 43 44  1  0
 44 47  1  0
 44 46  1  0
 45 43  2  0
 48 23  1  0
 48 49  1  0
 50 48  1  0
 51 52  1  0
 52 53  1  0
 54 55  2  0
 54 53  1  0
 56 54  1  0
 57 68  2  0
 58 56  1  0
 58 63  1  0
 59 67  1  0
 59 69  1  0
 60 62  1  0
 61 67  1  0
 62 63  2  0
 62 61  1  0
 64 58  2  0
 65 64  1  0
 65 60  2  0
 66 60  1  0
 66 59  1  0
 67 57  1  0
 69 71  2  0
 70 69  1  0
 72 70  1  0
 73 82  2  0
 73 78  1  0
 74 70  1  0
 74 78  1  0
 75 74  1  0
 76 77  1  0
 76 75  1  0
 77 73  1  0
 78 79  2  0
 79 80  1  0
 81 80  2  0
 82 81  1  0
 83 57  1  0
 83 88  1  0
 83 84  1  0
 84 87  1  1
 84 85  1  0
 86 84  1  0
 88 91  1  0
 89 93  1  0
 89 88  1  0
 90 89  2  0
 93 92  1  0
 95 96  1  0
 95 93  1  0
 95 94  1  0
M  ISO  4  13 100  21 100  54 101  56 101
M  END
>  <TORSDO>  (56) 
F 28

>  <SCORE>  (56) 
-8.608

>  <name>  (56) 
55

>  <ligand_id>  (56) 
55

>  <original_smiles>  (56) 
[H]c1c([H])c([H])c2c(c1[H])C([H])([H])C([H])([H])C([H])([H])C2([H])N([H])C(=O)C1([H])N(C(=O)C([H])(N([H])C(=O)C([H])(N([H])C([H])([H])[H])C([H])([H])[H])C(C([H])([H])[H])(C([H])([H])[H])C([H])([H])[H])C([H])([H])c2c([H])c(OC(=O)C([H])([H])OC([H])([H])C(=O)N([H])C([H])([H])C([H])([H])OC([H])([H])C([H])([H])OC([H])([H])C([H])([H])N([H])C(=O)N3C([H])([H])C([H])([H])C([H])([H])C([H])(n4nc(-c5c([H])c([H])c(Oc6c([H])c([H])c(F)c([H])c6F)c([H])c5[H])c(C(=O)N([H])[H])c4N([H])[H])C3([H])[H])c([H])c([H])c2C1([H])[H]

>  <smiles>  (56) 
[H]c1c([H])c([H])c2c(c1[H])C([H])([H])C([H])([H])C([H])([H])C2([H])N([H])C(=O)C1([H])N(C(=O)C([H])(N([H])C(=O)C([H])(N([H])C([H])([H])[H])C([H])([H])[H])C(C([H])([H])[H])(C([H])([H])[H])C([H])([H])[H])C([H])([H])c2c([H])c(OC(=O)C([H])([H])OC([H])([H])C(=O)N([H])C([H])([H])C([H])([H])OC([H])([H])C([H])([H])OC([H])([H])C([H])([H])N([H])C(=O)N3C([H])([H])C([H])([H])C([H])([H])C([H])(n4nc(-c5c([H])c([H])c(Oc6c([H])c([H])c(F)c([H])c6F)c([H])c5[H])c(C(=O)N([H])[H])c4N([H])[H])C3([H])[H])c([H])c([H])c2C1([H])[H]

$$$$
56:0:0
     RDKit          3D

106114  0  0  1  0  0  0  0  0999 V2000
  -27.4800  -22.7400   21.5870 C   0  0  0  0  0  0  0  0  0  0  0  0
  -27.4710  -21.9140   20.5320 N   0  0  0  0  0  0  0  0  0  0  0  0
  -26.4710  -22.9860   22.2530 O   0  0  0  0  0  0  0  0  0  0  0  0
  -28.3620  -21.7500   20.0830 H   0  0  0  0  0  0  0  0  0  0  0  0
  -28.8410  -23.3960   21.9220 C   0  0  0  0  0  3  0  0  0  0  0  0
  -29.9760  -26.7650   23.2490 C   0  0  0  0  0  2  0  0  0  0  0  0
  -30.0800  -25.6280   22.2290 C   0  0  0  0  0  2  0  0  0  0  0  0
  -28.8690  -26.3430   24.2300 C   0  0  0  0  0  2  0  0  0  0  0  0
  -28.7450  -24.8800   22.3480 C   0  0  0  0  0  3  0  0  0  0  0  0
  -28.3550  -25.0410   23.7630 N   0  0  0  0  0  4  0  0  0  0  0  0
  -27.3600  -24.9510   23.9050 H   0  0  0  0  0  0  0  0  0  0  0  0
  -28.8080  -24.3070   24.2880 H   0  0  0  0  0  0  0  0  0  0  0  0
  -29.4740  -22.7040   23.0060 O   0  0  0  0  0  0  0  0  0  0  0  0
  -30.6010  -21.8970   22.6590 C   0  0  0  0  0  2  0  0  0  0  0  0
  -30.1830  -20.4940   22.1920 C   0  0  0  0  0  2  0  0  0  0  0  0
  -31.3360  -19.7540   21.8120 O   0  0  0  0  0  0  0  0  0  0  0  0
  -31.0120  -18.4130   21.4750 C   0  0  0  0  0  2  0  0  0  0  0  0
  -32.2840  -17.6040   21.1750 C   0  0  0  0  0  2  0  0  0  0  0  0
  -32.3580  -15.3320   20.1030 C   0  0  0  0  0  0  0  0  0  0  0  0
  -32.0040  -13.0550   19.2160 C   0  0  0  0  0  2  0  0  0  0  0  0
  -31.0990  -13.0610   17.9690 C   0  0  0  0  0  2  0  0  0  0  0  0
  -29.6080  -13.0450   18.3580 C   0  0  0  0  0  2  0  0  0  0  0  0
  -29.2620  -14.1170   19.4240 C   0  0  0  0  0  3  0  0  0  0  0  0
  -30.2580  -14.0380   20.5990 C   0  0  0  0  0  2  0  0  0  0  0  0
  -31.6300  -14.1880   20.0690 N   0  0  0  0  0  0  0  0  0  0  0  0
  -33.3600  -15.5410   19.4120 O   0  0  0  0  0  0  0  0  0  0  0  0
  -31.9110  -16.2090   21.0040 N   0  0  0  0  0  0  0  0  0  0  0  0
  -31.1340  -15.8860   21.5600 H   0  0  0  0  0  0  0  0  0  0  0  0
  -26.9390  -14.9780   20.1330 C   0  0  0  0  0  0  0  0  0  0  0  0
  -25.7890  -14.3220   20.4800 C   0  0  0  0  0  0  0  0  0  0  0  0
  -26.0940  -12.9280   20.4140 C   0  0  0  0  0  0  0  0  0  0  0  0
  -27.8800  -13.9910   19.8820 N   0  0  0  0  0  0  0  0  0  0  0  0
  -27.3720  -12.7520   20.1030 N   0  0  0  0  0  0  0  0  0  0  0  0
  -25.2310  -11.7500   20.5660 C   0  0  0  0  0  0  0  0  0  0  0  0
  -25.5640  -10.7040   21.4550 C   0  0  0  0  0  3  0  0  0  0  0  0
  -24.7100   -9.5900   21.6000 C   0  0  0  0  0  3  0  0  0  0  0  0
  -23.5080   -9.5140   20.8560 C   0  0  0  0  0  0  0  0  0  0  0  0
  -23.1920  -10.5480   19.9560 C   0  0  0  0  0  3  0  0  0  0  0  0
  -24.0470  -11.6530   19.8090 C   0  0  0  0  0  3  0  0  0  0  0  0
  -22.6310   -8.4590   20.9120 O   0  0  0  0  0  0  0  0  0  0  0  0
  -22.4570   -7.7260   22.0590 C   0  0  0  0  0  0  0  0  0  0  0  0
  -22.1040   -8.3320   23.2840 C   0  0  0  0  0  3  0  0  0  0  0  0
  -21.8690   -7.5360   24.4210 C   0  0  0  0  0  3  0  0  0  0  0  0
  -21.9770   -6.1350   24.3360 C   0  0  0  0  0  0  0  0  0  0  0  0
  -22.3220   -5.5280   23.1160 C   0  0  0  0  0  3  0  0  0  0  0  0
  -22.5610   -6.3220   21.9800 C   0  0  0  0  0  0  0  0  0  0  0  0
  -22.8760   -5.7310   20.8010 F   0  0  0  0  0  0  0  0  0  0  0  0
  -21.7420   -5.3690   25.4270 F   0  0  0  0  0  0  0  0  0  0  0  0
  -24.4520  -14.9450   20.7640 C   0  0  0  0  0  0  0  0  0  0  0  0
  -23.6520  -14.3210   21.6220 N   0  0  0  0  0  0  0  0  0  0  0  0
  -24.1280  -16.0210   20.2610 O   0  0  0  0  0  0  0  0  0  0  0  0
  -23.9260  -13.4500   22.0520 H   0  0  0  0  0  0  0  0  0  0  0  0
  -22.7540  -14.7210   21.8540 H   0  0  0  0  0  0  0  0  0  0  0  0
  -27.2580  -16.3260   19.9940 N   0  0  0  0  0  0  0  0  0  0  0  0
  -26.5680  -17.0580   20.1170 H   0  0  0  0  0  0  0  0  0  0  0  0
  -28.1500  -16.6730   19.6630 H   0  0  0  0  0  0  0  0  0  0  0  0
  -26.3170  -21.2610   19.9150 C   0  0  0  0  0  2  0  0  0  0  0  0
  -25.7000  -22.0650   18.7430 C   0  0  0  0  0  2  0  0  0  0  0  0
  -26.6260  -23.1150   18.0970 C   0  0  0  0  0  2  0  0  0  0  0  0
  -26.1900  -23.4270   16.7810 O   0  0  0  0  0  0  0  0  0  0  0  0
  -26.8890  -24.4970   16.1390 C   0  0  0  0  0  2  0  0  0  0  0  0
  -28.4350  -24.3900   16.1580 C   0  0  0  0  0  2  0  0  0  0  0  0
  -28.9690  -24.8590   17.3970 O   0  0  0  0  0  0  0  0  0  0  0  0
  -29.2480  -26.2610   17.4140 C   0  0  0  0  0  2  0  0  0  0  0  0
  -28.5520  -26.9360   18.6060 C   0  0  0  0  0  2  0  0  0  0  0  0
  -27.1800  -27.0380   18.2470 O   0  0  0  0  0  0  0  0  0  0  0  0
  -25.3130  -31.0860   23.8690 C   0  0  0  0  0  0  0  0  0  0  0  0
  -26.3260  -27.9120   18.8790 C   0  0  0  0  0  0  0  0  0  0  0  0
  -23.5860  -30.7460   22.1290 C   0  0  0  0  0  3  0  0  0  0  0  0
  -24.4040  -29.6820   19.9600 C   0  0  0  0  0  0  0  0  0  0  0  0
  -26.0710  -30.6780   21.5350 C   0  0  0  0  0  2  0  0  0  0  0  0
  -25.7190  -29.6920   20.4410 C   0  0  0  0  0  0  0  0  0  0  0  0
  -26.6830  -28.8070   19.9130 C   0  0  0  0  0  3  0  0  0  0  0  0
  -24.9990  -27.9150   18.4030 C   0  0  0  0  0  3  0  0  0  0  0  0
  -24.0340  -28.7880   18.9410 C   0  0  0  0  0  3  0  0  0  0  0  0
  -23.4380  -30.6640   20.5850 C   0  0  0  0  0  2  0  0  0  0  0  0
  -25.0190  -30.8230   22.5660 N   0  0  0  0  0  0  0  0  0  0  0  0
  -24.4180  -31.3070   24.6960 O   0  0  0  0  0  0  0  0  0  0  0  0
  -22.8160  -29.5660   22.7600 C   0  0  0  0  0  0  0  0  0  0  0  0
  -21.4790  -29.5970   22.6520 N   0  0  0  0  0  0  0  0  0  0  0  0
  -23.4210  -28.6350   23.3020 O   0  0  0  0  0  0  0  0  0  0  0  0
  -21.0590  -30.3980   22.2010 H   0  0  0  0  0  0  0  0  0  0  0  0
  -18.0100  -28.5840   22.6640 C   0  0  0  0  0  0  0  0  0  0  0  0
  -20.5520  -28.5750   23.1380 C   0  0  0  0  0  3  0  0  0  0  0  0
  -20.6100  -27.3080   22.2550 C   0  0  0  0  0  2  0  0  0  0  0  0
  -19.5700  -27.3080   21.1310 C   0  0  0  0  0  2  0  0  0  0  0  0
  -18.1540  -27.4110   21.7080 C   0  0  0  0  0  2  0  0  0  0  0  0
  -19.1390  -29.1390   23.3240 C   0  0  0  0  0  0  0  0  0  0  0  0
  -18.9570  -30.2520   24.1750 C   0  0  0  0  0  3  0  0  0  0  0  0
  -17.6780  -30.8030   24.3740 C   0  0  0  0  0  3  0  0  0  0  0  0
  -16.5620  -30.2410   23.7300 C   0  0  0  0  0  3  0  0  0  0  0  0
  -16.7290  -29.1310   22.8820 C   0  0  0  0  0  3  0  0  0  0  0  0
  -26.7880  -31.1430   24.3800 C   0  0  0  0  0  3  0  0  0  0  0  0
  -26.8980  -32.2960   25.2820 N   0  0  0  0  0  0  0  0  0  0  0  0
  -27.4510  -33.4710   24.9510 C   0  0  0  0  0  0  0  0  0  0  0  0
  -27.9940  -33.6720   23.8600 O   0  0  0  0  0  0  0  0  0  0  0  0
  -26.4280  -32.2190   26.1730 H   0  0  0  0  0  0  0  0  0  0  0  0
  -26.2860  -35.5980   25.6110 C   0  0  0  0  0  1  0  0  0  0  0  0
  -27.3910  -34.6020   25.9940 C   0  0  0  0  0  3  0  0  0  0  0  0
  -29.7200  -34.5060   26.7690 C   0  0  0  0  0  1  0  0  0  0  0  0
  -28.6750  -35.3210   26.1550 N   0  0  0  0  0  0  0  0  0  0  0  0
  -28.5510  -36.1570   26.7190 H   0  0  0  0  0  0  0  0  0  0  0  0
  -27.2490  -29.8190   25.1020 C   0  0  1  0  0  0  0  0  0  0  0  0
  -26.2890  -29.3550   26.2220 C   0  0  0  0  0  1  0  0  0  0  0  0
  -27.3850  -28.6600   24.0870 C   0  0  0  0  0  1  0  0  0  0  0  0
  -28.6470  -30.0230   25.7310 C   0  0  0  0  0  1  0  0  0  0  0  0
  1  3  2  0
  2  1  1  0
  4  2  1  0
  5  1  1  0
  5 13  1  0
  6  8  1  0
  7  9  1  0
  7  6  1  0
  9  5  1  0
  9 10  1  0
 10 11  1  0
 10  8  1  0
 10 12  1  0
 14 13  1  0
 15 14  1  0
 16 15  1  0
 17 16  1  0
 18 17  1  0
 19 27  1  0
 20 25  1  0
 21 22  1  0
 21 20  1  0
 23 22  1  0
 23 32  1  0
 23 24  1  0
 25 19  1  0
 25 24  1  0
 26 19  2  0
 27 18  1  0
 27 28  1  0
 29 30  2  0
 30 49  1  0
 31 30  1  0
 31 34  1  0
 32 33  1  0
 32 29  1  0
 33 31  2  0
 34 35  1  0
 35 36  2  0
 37 40  1  0
 37 36  1  0
 38 37  2  0
 39 38  1  0
 39 34  2  0
 40 41  1  0
 41 42  1  0
 42 43  2  0
 44 43  1  0
 44 48  1  0
 45 44  2  0
 46 41  2  0
 46 45  1  0
 47 46  1  0
 49 50  1  0
 50 53  1  0
 50 52  1  0
 51 49  2  0
 54 55  1  0
 54 29  1  0
 56 54  1  0
 57  2  1  0
 58 57  1  0
 59 58  1  0
 60 59  1  0
 61 62  1  0
 61 60  1  0
 62 63  1  0
 63 64  1  0
 64 65  1  0
 66 65  1  0
 66 68  1  0
 67 78  2  0
 68 73  1  0
 69 77  1  0
 69 79  1  0
 70 72  1  0
 70 76  1  0
 71 77  1  0
 72 71  1  0
 73 72  2  0
 74 68  2  0
 74 75  1  0
 75 70  2  0
 76 69  1  0
 77 67  1  0
 79 81  2  0
 80 79  1  0
 82 80  1  0
 83 92  2  0
 83 88  1  0
 84 80  1  0
 84 88  1  0
 85 84  1  0
 86 87  1  0
 86 85  1  0
 87 83  1  0
 88 89  2  0
 89 90  1  0
 91 90  2  0
 92 91  1  0
 93 67  1  0
 93103  1  0
 93 94  1  0
 94 97  1  0
 95 94  1  0
 95 99  1  0
 96 95  2  0
 99 98  1  0
 99101  1  0
101102  1  0
101100  1  0
103106  1  1
103104  1  0
105103  1  0
M  ISO  4  19 100  27 100  65 101  66 101
M  END
>  <TORSDO>  (57) 
F 33

>  <SCORE>  (57) 
-5.499

>  <name>  (57) 
56

>  <ligand_id>  (57) 
56

>  <original_smiles>  (57) 
[H]c1c([H])c([H])c2c(c1[H])C([H])([H])C([H])([H])C([H])([H])C2([H])N([H])C(=O)C1([H])N(C(=O)C([H])(N([H])C(=O)C([H])(N([H])C([H])([H])[H])C([H])([H])[H])C(C([H])([H])[H])(C([H])([H])[H])C([H])([H])[H])C([H])([H])c2c([H])c(OC([H])([H])C([H])([H])OC([H])([H])C([H])([H])OC([H])([H])C([H])([H])C([H])([H])N([H])C(=O)C([H])(OC([H])([H])C([H])([H])OC([H])([H])C([H])([H])N([H])C(=O)N3C([H])([H])C([H])([H])C([H])([H])C([H])(n4nc(-c5c([H])c([H])c(Oc6c([H])c([H])c(F)c([H])c6F)c([H])c5[H])c(C(=O)N([H])[H])c4N([H])[H])C3([H])[H])C3([H])C([H])([H])C([H])([H])C([H])([H])[N+]3([H])[H])c([H])c([H])c2C1([H])[H]

>  <smiles>  (57) 
[H]c1c([H])c([H])c2c(c1[H])C([H])([H])C([H])([H])C([H])([H])C2([H])N([H])C(=O)C1([H])N(C(=O)C([H])(N([H])C(=O)C([H])(N([H])C([H])([H])[H])C([H])([H])[H])C(C([H])([H])[H])(C([H])([H])[H])C([H])([H])[H])C([H])([H])c2c([H])c(OC([H])([H])C([H])([H])OC([H])([H])C([H])([H])OC([H])([H])C([H])([H])C([H])([H])N([H])C(=O)C([H])(OC([H])([H])C([H])([H])OC([H])([H])C([H])([H])N([H])C(=O)N3C([H])([H])C([H])([H])C([H])([H])C([H])(n4nc(-c5c([H])c([H])c(Oc6c([H])c([H])c(F)c([H])c6F)c([H])c5[H])c(C(=O)N([H])[H])c4N([H])[H])C3([H])[H])C3([H])C([H])([H])C([H])([H])C([H])([H])[N+]3([H])[H])c([H])c([H])c2C1([H])[H]

$$$$
57:0:0
     RDKit          3D

108116  0  0  1  0  0  0  0  0999 V2000
  -24.8100  -20.0350   19.2060 C   0  0  0  0  0  3  0  0  0  0  0  0
  -25.4840  -21.5570   17.4310 C   0  0  0  0  0  3  0  0  0  0  0  0
  -23.8690  -20.9800   19.6550 C   0  0  0  0  0  3  0  0  0  0  0  0
  -24.5390  -22.5010   17.8790 C   0  0  0  0  0  3  0  0  0  0  0  0
  -25.6490  -20.3320   18.1110 C   0  0  0  0  0  0  0  0  0  0  0  0
  -23.7550  -22.2380   19.0180 C   0  0  0  0  0  0  0  0  0  0  0  0
  -26.6530  -19.4510   17.6940 N   0  0  0  0  0  0  0  0  0  0  0  0
  -27.0650  -19.7330   16.8100 H   0  0  0  0  0  0  0  0  0  0  0  0
  -27.7080  -19.1920   18.6780 C   0  0  0  0  0  2  0  0  0  0  0  0
  -28.8970  -20.1370   18.4540 C   0  0  0  0  0  2  0  0  0  0  0  0
  -28.3560  -21.4430   18.3830 O   0  0  0  0  0  0  0  0  0  0  0  0
  -29.3170  -22.4810   18.3910 C   0  0  0  0  0  2  0  0  0  0  0  0
  -28.5800  -23.7240   17.8980 C   0  0  0  0  0  2  0  0  0  0  0  0
  -28.9580  -24.8840   18.6130 O   0  0  0  0  0  0  0  0  0  0  0  0
  -28.6920  -26.0490   17.7160 O   0  0  0  0  0  0  0  0  0  0  0  0
  -24.7840  -30.1960   21.9830 C   0  0  0  0  0  0  0  0  0  0  0  0
  -27.4730  -26.6070   17.9950 C   0  0  0  0  0  0  0  0  0  0  0  0
  -23.5590  -29.0860   20.1380 C   0  0  0  0  0  3  0  0  0  0  0  0
  -25.0090  -27.9160   18.4000 C   0  0  0  0  0  0  0  0  0  0  0  0
  -26.0530  -29.6000   19.9270 C   0  0  0  0  0  2  0  0  0  0  0  0
  -26.1640  -28.3790   19.0420 C   0  0  0  0  0  0  0  0  0  0  0  0
  -27.3970  -27.7230   18.8500 C   0  0  0  0  0  3  0  0  0  0  0  0
  -26.3060  -26.1450   17.3520 C   0  0  0  0  0  3  0  0  0  0  0  0
  -25.0690  -26.7890   17.5600 C   0  0  0  0  0  3  0  0  0  0  0  0
  -23.7350  -28.6940   18.6460 C   0  0  0  0  0  2  0  0  0  0  0  0
  -24.8190  -29.6290   20.7430 N   0  0  0  0  0  0  0  0  0  0  0  0
  -23.7200  -30.3050   22.6060 O   0  0  0  0  0  0  0  0  0  0  0  0
  -22.9900  -27.8700   20.9030 C   0  0  0  0  0  0  0  0  0  0  0  0
  -21.6550  -27.7280   20.8930 N   0  0  0  0  0  0  0  0  0  0  0  0
  -23.7410  -27.0650   21.4610 O   0  0  0  0  0  0  0  0  0  0  0  0
  -21.1080  -28.4350   20.4230 H   0  0  0  0  0  0  0  0  0  0  0  0
  -18.3190  -26.5610   21.6410 C   0  0  0  0  0  0  0  0  0  0  0  0
  -20.9000  -26.6390   21.5100 C   0  0  0  0  0  3  0  0  0  0  0  0
  -20.7870  -25.4270   20.5570 C   0  0  0  0  0  2  0  0  0  0  0  0
  -19.5120  -25.4430   19.7070 C   0  0  0  0  0  2  0  0  0  0  0  0
  -18.2690  -25.4520   20.6030 C   0  0  0  0  0  2  0  0  0  0  0  0
  -19.5530  -27.1280   22.0540 C   0  0  0  0  0  0  0  0  0  0  0  0
  -19.5430  -28.1820   22.9940 C   0  0  0  0  0  3  0  0  0  0  0  0
  -18.3300  -28.6660   23.5200 C   0  0  0  0  0  3  0  0  0  0  0  0
  -17.1120  -28.0880   23.1200 C   0  0  0  0  0  3  0  0  0  0  0  0
  -17.1090  -27.0370   22.1870 C   0  0  0  0  0  3  0  0  0  0  0  0
  -26.0740  -30.7490   22.6660 C   0  0  0  0  0  3  0  0  0  0  0  0
  -26.7220  -29.7340   23.6850 C   0  0  1  0  0  0  0  0  0  0  0  0
  -25.7260  -29.1790   24.7300 C   0  0  0  0  0  1  0  0  0  0  0  0
  -27.3410  -28.5330   22.9340 C   0  0  0  0  0  1  0  0  0  0  0  0
  -27.8740  -30.4240   24.4510 C   0  0  0  0  0  1  0  0  0  0  0  0
  -25.7130  -32.0030   23.3400 N   0  0  0  0  0  0  0  0  0  0  0  0
  -25.9770  -33.2260   22.8620 C   0  0  0  0  0  0  0  0  0  0  0  0
  -26.6250  -33.4150   21.8270 O   0  0  0  0  0  0  0  0  0  0  0  0
  -25.1360  -31.9220   24.1650 H   0  0  0  0  0  0  0  0  0  0  0  0
  -24.1790  -34.9810   22.9730 C   0  0  0  0  0  1  0  0  0  0  0  0
  -25.4390  -34.4310   23.6580 C   0  0  0  0  0  3  0  0  0  0  0  0
  -27.5320  -35.1670   24.7140 C   0  0  0  0  0  1  0  0  0  0  0  0
  -26.4310  -35.5170   23.8210 N   0  0  0  0  0  0  0  0  0  0  0  0
  -25.9880  -36.3600   24.1780 H   0  0  0  0  0  0  0  0  0  0  0  0
  -22.9480  -23.2520   19.4850 O   0  0  0  0  0  0  0  0  0  0  0  0
  -23.2060  -23.7190   20.8100 C   0  0  0  0  0  2  0  0  0  0  0  0
  -24.5590  -24.4680   20.8980 C   0  0  0  0  0  2  0  0  0  0  0  0
  -25.3830  -24.0750   22.1400 C   0  0  0  0  0  2  0  0  0  0  0  0
  -26.5930  -24.8180   22.3100 O   0  0  0  0  0  0  0  0  0  0  0  0
  -27.5730  -24.7710   21.2640 C   0  0  0  0  0  2  0  0  0  0  0  0
  -28.0580  -23.3540   20.8860 C   0  0  0  0  0  2  0  0  0  0  0  0
  -28.8150  -22.7620   21.9410 O   0  0  0  0  0  0  0  0  0  0  0  0
  -28.6900  -21.3440   21.9750 C   0  0  0  0  0  2  0  0  0  0  0  0
  -29.8070  -20.6680   22.7910 C   0  0  0  0  0  2  0  0  0  0  0  0
  -31.1590  -20.5210   22.0650 C   0  0  0  0  0  2  0  0  0  0  0  0
  -31.0260  -19.7270   20.8860 O   0  0  0  0  0  0  0  0  0  0  0  0
  -32.2680  -19.2360   20.3790 C   0  0  0  0  0  2  0  0  0  0  0  0
  -32.4580  -17.7510   20.7440 C   0  0  0  0  0  2  0  0  0  0  0  0
  -32.5710  -16.7900   19.5320 C   0  0  0  0  0  2  0  0  0  0  0  0
  -32.7890  -14.2910   19.3180 C   0  0  0  0  0  0  0  0  0  0  0  0
  -32.2750  -11.8860   19.0580 C   0  0  0  0  0  2  0  0  0  0  0  0
  -31.2470  -11.6560   17.9300 C   0  0  0  0  0  2  0  0  0  0  0  0
  -29.8010  -11.8380   18.4350 C   0  0  0  0  0  2  0  0  0  0  0  0
  -29.6190  -13.1470   19.2420 C   0  0  0  0  0  3  0  0  0  0  0  0
  -30.7190  -13.2640   20.3180 C   0  0  0  0  0  2  0  0  0  0  0  0
  -32.0380  -13.2080   19.6480 N   0  0  0  0  0  0  0  0  0  0  0  0
  -33.7210  -14.2630   18.5040 O   0  0  0  0  0  0  0  0  0  0  0  0
  -32.4250  -15.4030   19.9720 N   0  0  0  0  0  0  0  0  0  0  0  0
  -31.7700  -15.2450   20.7240 H   0  0  0  0  0  0  0  0  0  0  0  0
  -27.5700  -14.3550   20.2450 C   0  0  0  0  0  0  0  0  0  0  0  0
  -26.3460  -13.8940   20.6490 C   0  0  0  0  0  0  0  0  0  0  0  0
  -26.3670  -12.4810   20.4320 C   0  0  0  0  0  0  0  0  0  0  0  0
  -28.2790  -13.2390   19.8210 N   0  0  0  0  0  0  0  0  0  0  0  0
  -27.5550  -12.1030   19.9840 N   0  0  0  0  0  0  0  0  0  0  0  0
  -25.3100  -11.4750   20.5770 C   0  0  0  0  0  0  0  0  0  0  0  0
  -25.5070  -10.2980   21.3330 C   0  0  0  0  0  3  0  0  0  0  0  0
  -24.4690   -9.3540   21.4770 C   0  0  0  0  0  3  0  0  0  0  0  0
  -23.2150   -9.5800   20.8610 C   0  0  0  0  0  0  0  0  0  0  0  0
  -23.0300  -10.7400   20.0900 C   0  0  0  0  0  3  0  0  0  0  0  0
  -24.0680  -11.6770   19.9440 C   0  0  0  0  0  3  0  0  0  0  0  0
  -22.1560   -8.7060   20.9200 O   0  0  0  0  0  0  0  0  0  0  0  0
  -21.9720   -7.8730   21.9930 C   0  0  0  0  0  0  0  0  0  0  0  0
  -21.8310   -8.3700   23.3070 C   0  0  0  0  0  3  0  0  0  0  0  0
  -21.5730   -7.4840   24.3700 C   0  0  0  0  0  3  0  0  0  0  0  0
  -21.4460   -6.1040   24.1250 C   0  0  0  0  0  0  0  0  0  0  0  0
  -21.5810   -5.6100   22.8160 C   0  0  0  0  0  3  0  0  0  0  0  0
  -21.8400   -6.4920   21.7540 C   0  0  0  0  0  0  0  0  0  0  0  0
  -21.9440   -6.0120   20.4900 F   0  0  0  0  0  0  0  0  0  0  0  0
  -21.1910   -5.2520   25.1440 F   0  0  0  0  0  0  0  0  0  0  0  0
  -25.1860  -14.7220   21.1230 C   0  0  0  0  0  0  0  0  0  0  0  0
  -24.3420  -14.1570   21.9770 N   0  0  0  0  0  0  0  0  0  0  0  0
  -25.0460  -15.8930   20.7680 O   0  0  0  0  0  0  0  0  0  0  0  0
  -24.4660  -13.2030   22.2830 H   0  0  0  0  0  0  0  0  0  0  0  0
  -23.5580  -14.6890   22.3240 H   0  0  0  0  0  0  0  0  0  0  0  0
  -28.1390  -15.6260   20.1930 N   0  0  0  0  0  0  0  0  0  0  0  0
  -27.6290  -16.4660   20.4400 H   0  0  0  0  0  0  0  0  0  0  0  0
  -29.0810  -15.8090   19.8730 H   0  0  0  0  0  0  0  0  0  0  0  0
  1  3  1  0
  2  4  2  0
  2  5  1  0
  4  6  1  0
  5  1  2  0
  6 56  1  0
  6  3  2  0
  7  5  1  0
  7  9  1  0
  8  7  1  0
 10  9  1  0
 11 12  1  0
 11 10  1  0
 13 12  1  0
 13 14  1  0
 15 17  1  0
 15 14  1  0
 16 27  2  0
 17 22  1  0
 18 26  1  0
 18 28  1  0
 19 25  1  0
 19 21  1  0
 20 26  1  0
 21 20  1  0
 22 21  2  0
 23 24  1  0
 23 17  2  0
 24 19  2  0
 25 18  1  0
 26 16  1  0
 28 30  2  0
 29 28  1  0
 31 29  1  0
 32 37  2  0
 32 41  1  0
 33 29  1  0
 33 37  1  0
 34 33  1  0
 35 34  1  0
 35 36  1  0
 36 32  1  0
 37 38  1  0
 38 39  2  0
 40 39  1  0
 41 40  2  0
 42 16  1  0
 42 47  1  0
 42 43  1  0
 43 46  1  1
 43 44  1  0
 45 43  1  0
 47 50  1  0
 48 47  1  0
 48 52  1  0
 49 48  2  0
 52 51  1  0
 52 54  1  0
 54 55  1  0
 54 53  1  0
 56 57  1  0
 57 58  1  0
 58 59  1  0
 59 60  1  0
 61 60  1  0
 62 61  1  0
 62 63  1  0
 63 64  1  0
 64 65  1  0
 66 65  1  0
 67 66  1  0
 68 69  1  0
 68 67  1  0
 70 79  1  0
 70 69  1  0
 71 77  1  0
 71 79  1  0
 72 77  1  0
 73 74  1  0
 73 72  1  0
 75 74  1  0
 75 84  1  0
 75 76  1  0
 77 76  1  0
 78 71  2  0
 79 80  1  0
 81 82  2  0
 82101  1  0
 83 86  1  0
 83 82  1  0
 84 85  1  0
 84 81  1  0
 85 83  2  0
 86 87  1  0
 87 88  2  0
 89 92  1  0
 89 88  1  0
 90 89  2  0
 91 90  1  0
 91 86  2  0
 92 93  1  0
 93 94  1  0
 94 95  2  0
 96 95  1  0
 96100  1  0
 97 96  2  0
 98 93  2  0
 98 97  1  0
 99 98  1  0
101102  1  0
102104  1  0
102105  1  0
103101  2  0
106 81  1  0
106107  1  0
108106  1  0
M  ISO  4  14 101  15 101  71 100  79 100
M  END
>  <TORSDO>  (58) 
F 38

>  <SCORE>  (58) 
-2.916

>  <name>  (58) 
57

>  <ligand_id>  (58) 
57

>  <original_smiles>  (58) 
[H]c1c([H])c([H])c2c(c1[H])C([H])([H])C([H])([H])C([H])([H])C2([H])N([H])C(=O)C1([H])N(C(=O)C([H])(N([H])C(=O)C([H])(N([H])C([H])([H])[H])C([H])([H])[H])C(C([H])([H])[H])(C([H])([H])[H])C([H])([H])[H])C([H])([H])c2c([H])c(OOC([H])([H])C([H])([H])OC([H])([H])C([H])([H])N([H])c3c([H])c([H])c(OC([H])([H])C([H])([H])C([H])([H])OC([H])([H])C([H])([H])OC([H])([H])C([H])([H])C([H])([H])OC([H])([H])C([H])([H])C([H])([H])N([H])C(=O)N4C([H])([H])C([H])([H])C([H])([H])C([H])(n5nc(-c6c([H])c([H])c(Oc7c([H])c([H])c(F)c([H])c7F)c([H])c6[H])c(C(=O)N([H])[H])c5N([H])[H])C4([H])[H])c([H])c3[H])c([H])c([H])c2C1([H])[H]

>  <smiles>  (58) 
[H]c1c([H])c([H])c2c(c1[H])C([H])([H])C([H])([H])C([H])([H])C2([H])N([H])C(=O)C1([H])N(C(=O)C([H])(N([H])C(=O)C([H])(N([H])C([H])([H])[H])C([H])([H])[H])C(C([H])([H])[H])(C([H])([H])[H])C([H])([H])[H])C([H])([H])c2c([H])c(OOC([H])([H])C([H])([H])OC([H])([H])C([H])([H])N([H])c3c([H])c([H])c(OC([H])([H])C([H])([H])C([H])([H])OC([H])([H])C([H])([H])OC([H])([H])C([H])([H])C([H])([H])OC([H])([H])C([H])([H])C([H])([H])N([H])C(=O)N4C([H])([H])C([H])([H])C([H])([H])C([H])(n5nc(-c6c([H])c([H])c(Oc7c([H])c([H])c(F)c([H])c7F)c([H])c6[H])c(C(=O)N([H])[H])c5N([H])[H])C4([H])[H])c([H])c3[H])c([H])c([H])c2C1([H])[H]

$$$$
58:0:0
     RDKit          3D

 90 97  0  0  1  0  0  0  0  0999 V2000
  -27.7060  -23.2880   20.6090 C   0  0  0  0  0  2  0  0  0  0  0  0
  -28.6750  -25.4890   19.9400 C   0  0  0  0  0  0  0  0  0  0  0  0
  -27.6980  -24.7500   20.5870 N   0  0  0  0  0  0  0  0  0  0  0  0
  -29.6940  -25.0180   19.4340 O   0  0  0  0  0  0  0  0  0  0  0  0
  -26.9300  -25.2580   21.0020 H   0  0  0  0  0  0  0  0  0  0  0  0
  -28.4510  -26.8350   19.9580 O   0  0  0  0  0  0  0  0  0  0  0  0
  -24.6380  -31.8720   23.2230 C   0  0  0  0  0  0  0  0  0  0  0  0
  -27.2320  -27.4820   20.0350 C   0  0  0  0  0  0  0  0  0  0  0  0
  -23.4020  -30.4950   21.5790 C   0  0  0  0  0  3  0  0  0  0  0  0
  -24.8290  -28.9720   20.1150 C   0  0  0  0  0  0  0  0  0  0  0  0
  -25.9230  -30.8510   21.3510 C   0  0  0  0  0  2  0  0  0  0  0  0
  -25.9920  -29.4860   20.7000 C   0  0  0  0  0  0  0  0  0  0  0  0
  -27.1910  -28.7440   20.6680 C   0  0  0  0  0  3  0  0  0  0  0  0
  -26.0510  -26.9810   19.4360 C   0  0  0  0  0  3  0  0  0  0  0  0
  -24.8500  -27.7140   19.4870 C   0  0  0  0  0  3  0  0  0  0  0  0
  -23.5870  -29.8310   20.1880 C   0  0  0  0  0  2  0  0  0  0  0  0
  -24.6720  -31.0880   22.1090 N   0  0  0  0  0  0  0  0  0  0  0  0
  -23.5660  -32.1400   23.7840 O   0  0  0  0  0  0  0  0  0  0  0  0
  -22.7670  -29.4590   22.5350 C   0  0  0  0  0  0  0  0  0  0  0  0
  -21.4410  -29.2810   22.4240 N   0  0  0  0  0  0  0  0  0  0  0  0
  -23.4630  -28.8200   23.3280 O   0  0  0  0  0  0  0  0  0  0  0  0
  -20.9420  -29.8500   21.7540 H   0  0  0  0  0  0  0  0  0  0  0  0
  -18.0750  -28.0800   22.9390 C   0  0  0  0  0  0  0  0  0  0  0  0
  -20.6340  -28.3350   23.1940 C   0  0  0  0  0  3  0  0  0  0  0  0
  -20.7340  -26.9110   22.6000 C   0  0  0  0  0  2  0  0  0  0  0  0
  -19.6230  -26.5980   21.5930 C   0  0  0  0  0  2  0  0  0  0  0  0
  -18.2470  -26.7370   22.2500 C   0  0  0  0  0  2  0  0  0  0  0  0
  -19.1970  -28.8370   23.3680 C   0  0  0  0  0  0  0  0  0  0  0  0
  -18.9830  -30.0960   23.9710 C   0  0  0  0  0  3  0  0  0  0  0  0
  -17.6800  -30.5960   24.1510 C   0  0  0  0  0  3  0  0  0  0  0  0
  -16.5720  -29.8340   23.7410 C   0  0  0  0  0  3  0  0  0  0  0  0
  -16.7710  -28.5780   23.1410 C   0  0  0  0  0  3  0  0  0  0  0  0
  -25.9370  -32.4890   23.8290 C   0  0  0  0  0  3  0  0  0  0  0  0
  -26.4770  -31.6970   25.0840 C   0  0  1  0  0  0  0  0  0  0  0  0
  -25.4030  -31.4470   26.1680 C   0  0  0  0  0  1  0  0  0  0  0  0
  -27.0480  -30.3240   24.6580 C   0  0  0  0  0  1  0  0  0  0  0  0
  -27.6410  -32.4780   25.7370 C   0  0  0  0  0  1  0  0  0  0  0  0
  -25.6400  -33.8830   24.1830 N   0  0  0  0  0  0  0  0  0  0  0  0
  -25.9700  -34.9440   23.4340 C   0  0  0  0  0  0  0  0  0  0  0  0
  -26.6310  -34.8530   22.3960 O   0  0  0  0  0  0  0  0  0  0  0  0
  -25.0550  -34.0290   24.9930 H   0  0  0  0  0  0  0  0  0  0  0  0
  -24.2480  -36.7470   23.1170 C   0  0  0  0  0  1  0  0  0  0  0  0
  -25.4920  -36.3270   23.9150 C   0  0  0  0  0  3  0  0  0  0  0  0
  -27.6360  -37.1870   24.7440 C   0  0  0  0  0  1  0  0  0  0  0  0
  -26.5280  -37.3760   23.8130 N   0  0  0  0  0  0  0  0  0  0  0  0
  -26.1280  -38.2950   23.9810 H   0  0  0  0  0  0  0  0  0  0  0  0
  -28.6860  -22.7240   21.6490 C   0  0  0  0  0  2  0  0  0  0  0  0
  -29.0940  -21.4240   21.2450 O   0  0  0  0  0  0  0  0  0  0  0  0
  -29.9040  -20.7690   22.2150 C   0  0  0  0  0  2  0  0  0  0  0  0
  -30.6330  -19.5890   21.5580 C   0  0  0  0  0  2  0  0  0  0  0  0
  -29.6880  -18.6270   21.1060 O   0  0  0  0  0  0  0  0  0  0  0  0
  -30.2800  -17.5170   20.4380 C   0  0  0  0  0  2  0  0  0  0  0  0
  -30.9690  -16.5410   21.4140 C   0  0  0  0  0  2  0  0  0  0  0  0
  -30.5070  -15.2150   21.1980 O   0  0  0  0  0  0  0  0  0  0  0  0
  -31.0750  -14.4270   20.2700 C   0  0  0  0  0  0  0  0  0  0  0  0
  -30.6550  -12.3030   19.0400 C   0  0  0  0  0  2  0  0  0  0  0  0
  -29.7010  -12.5540   17.8570 C   0  0  0  0  0  2  0  0  0  0  0  0
  -28.2280  -12.4710   18.3070 C   0  0  0  0  0  2  0  0  0  0  0  0
  -27.9400  -13.3240   19.5720 C   0  0  0  0  0  3  0  0  0  0  0  0
  -28.9860  -13.0380   20.6730 C   0  0  0  0  0  2  0  0  0  0  0  0
  -30.3200  -13.2630   20.0940 N   0  0  0  0  0  0  0  0  0  0  0  0
  -32.1010  -14.7200   19.6500 O   0  0  0  0  0  0  0  0  0  0  0  0
  -25.5630  -14.0340   20.2730 C   0  0  0  0  0  0  0  0  0  0  0  0
  -24.4730  -13.3070   20.6670 C   0  0  0  0  0  0  0  0  0  0  0  0
  -24.8870  -11.9400   20.6600 C   0  0  0  0  0  0  0  0  0  0  0  0
  -26.5780  -13.1120   20.0570 N   0  0  0  0  0  0  0  0  0  0  0  0
  -26.1710  -11.8490   20.3410 N   0  0  0  0  0  0  0  0  0  0  0  0
  -24.1220  -10.7070   20.8850 C   0  0  0  0  0  0  0  0  0  0  0  0
  -24.5290   -9.7470   21.8370 C   0  0  0  0  0  3  0  0  0  0  0  0
  -23.7670   -8.5770   22.0470 C   0  0  0  0  0  3  0  0  0  0  0  0
  -22.5840   -8.3590   21.3030 C   0  0  0  0  0  0  0  0  0  0  0  0
  -22.1940   -9.3070   20.3400 C   0  0  0  0  0  3  0  0  0  0  0  0
  -22.9570  -10.4680   20.1300 C   0  0  0  0  0  3  0  0  0  0  0  0
  -21.7940   -7.2420   21.4200 O   0  0  0  0  0  0  0  0  0  0  0  0
  -21.7150   -6.5360   22.5940 C   0  0  0  0  0  0  0  0  0  0  0  0
  -21.3140   -7.1440   23.8030 C   0  0  0  0  0  3  0  0  0  0  0  0
  -21.1790   -6.3660   24.9700 C   0  0  0  0  0  3  0  0  0  0  0  0
  -21.4360   -4.9830   24.9290 C   0  0  0  0  0  0  0  0  0  0  0  0
  -21.8310   -4.3750   23.7250 C   0  0  0  0  0  3  0  0  0  0  0  0
  -21.9670   -5.1500   22.5590 C   0  0  0  0  0  0  0  0  0  0  0  0
  -22.3270   -4.5560   21.3960 F   0  0  0  0  0  0  0  0  0  0  0  0
  -21.2990   -4.2340   26.0490 F   0  0  0  0  0  0  0  0  0  0  0  0
  -23.0950  -13.8360   20.9450 C   0  0  0  0  0  0  0  0  0  0  0  0
  -22.3580  -13.1900   21.8410 N   0  0  0  0  0  0  0  0  0  0  0  0
  -22.6830  -14.8600   20.4000 O   0  0  0  0  0  0  0  0  0  0  0  0
  -22.7060  -12.3640   22.3060 H   0  0  0  0  0  0  0  0  0  0  0  0
  -21.4350  -13.5280   22.0680 H   0  0  0  0  0  0  0  0  0  0  0  0
  -25.7750  -15.3950   20.0660 N   0  0  0  0  0  0  0  0  0  0  0  0
  -25.0380  -16.0830   20.1700 H   0  0  0  0  0  0  0  0  0  0  0  0
  -26.6480  -15.7960   19.7500 H   0  0  0  0  0  0  0  0  0  0  0  0
  1 47  1  0
  2  6  1  0
  2  3  1  0
  3  1  1  0
  3  5  1  0
  4  2  2  0
  6  8  1  0
  7 18  2  0
  8 13  1  0
  9 17  1  0
  9 19  1  0
 10 16  1  0
 10 12  1  0
 11 17  1  0
 12 11  1  0
 13 12  2  0
 14 15  1  0
 14  8  2  0
 15 10  2  0
 16  9  1  0
 17  7  1  0
 19 21  2  0
 20 19  1  0
 22 20  1  0
 23 32  2  0
 23 28  1  0
 24 20  1  0
 24 28  1  0
 25 24  1  0
 26 27  1  0
 26 25  1  0
 27 23  1  0
 28 29  2  0
 29 30  1  0
 31 30  2  0
 32 31  1  0
 33  7  1  0
 33 38  1  0
 33 34  1  0
 34 37  1  1
 34 35  1  0
 36 34  1  0
 38 41  1  0
 39 43  1  0
 39 38  1  0
 40 39  2  0
 43 42  1  0
 45 43  1  0
 45 46  1  0
 45 44  1  0
 48 47  1  0
 48 49  1  0
 50 49  1  0
 51 50  1  0
 52 51  1  0
 52 53  1  0
 54 53  1  0
 55 54  1  0
 56 61  1  0
 57 58  1  0
 57 56  1  0
 59 58  1  0
 59 66  1  0
 59 60  1  0
 61 55  1  0
 61 60  1  0
 62 55  2  0
 63 64  2  0
 64 83  1  0
 65 64  1  0
 65 68  1  0
 66 63  1  0
 66 67  1  0
 67 65  2  0
 68 69  1  0
 69 70  2  0
 71 74  1  0
 71 70  1  0
 72 71  2  0
 73 72  1  0
 73 68  2  0
 74 75  1  0
 75 76  1  0
 76 77  2  0
 78 77  1  0
 78 82  1  0
 79 78  2  0
 80 75  2  0
 80 79  1  0
 81 80  1  0
 83 84  1  0
 84 87  1  0
 84 86  1  0
 85 83  2  0
 88 89  1  0
 88 63  1  0
 90 88  1  0
M  ISO  4   2 101   6 101  54 100  55 100
M  END
>  <TORSDO>  (59) 
F 25

>  <SCORE>  (59) 
-11.904

>  <name>  (59) 
58

>  <ligand_id>  (59) 
58

>  <original_smiles>  (59) 
[H]c1c([H])c([H])c2c(c1[H])C([H])([H])C([H])([H])C([H])([H])C2([H])N([H])C(=O)C1([H])N(C(=O)C([H])(N([H])C(=O)C([H])(N([H])C([H])([H])[H])C([H])([H])[H])C(C([H])([H])[H])(C([H])([H])[H])C([H])([H])[H])C([H])([H])c2c([H])c(OC(=O)N([H])C([H])([H])C([H])([H])OC([H])([H])C([H])([H])OC([H])([H])C([H])([H])OC(=O)N3C([H])([H])C([H])([H])C([H])([H])C([H])(n4nc(-c5c([H])c([H])c(Oc6c([H])c([H])c(F)c([H])c6F)c([H])c5[H])c(C(=O)N([H])[H])c4N([H])[H])C3([H])[H])c([H])c([H])c2C1([H])[H]

>  <smiles>  (59) 
[H]c1c([H])c([H])c2c(c1[H])C([H])([H])C([H])([H])C([H])([H])C2([H])N([H])C(=O)C1([H])N(C(=O)C([H])(N([H])C(=O)C([H])(N([H])C([H])([H])[H])C([H])([H])[H])C(C([H])([H])[H])(C([H])([H])[H])C([H])([H])[H])C([H])([H])c2c([H])c(OC(=O)N([H])C([H])([H])C([H])([H])OC([H])([H])C([H])([H])OC([H])([H])C([H])([H])OC(=O)N3C([H])([H])C([H])([H])C([H])([H])C([H])(n4nc(-c5c([H])c([H])c(Oc6c([H])c([H])c(F)c([H])c6F)c([H])c5[H])c(C(=O)N([H])[H])c4N([H])[H])C3([H])[H])c([H])c([H])c2C1([H])[H]

$$$$
59:0:0
     RDKit          3D

 84 91  0  0  1  0  0  0  0  0999 V2000
  -28.0360  -24.2690   20.5090 C   0  0  0  0  0  2  0  0  0  0  0  0
  -28.2220  -25.8810   20.2090 O   0  0  0  0  0  0  0  0  0  0  0  0
  -24.6160  -31.8370   23.1800 C   0  0  0  0  0  0  0  0  0  0  0  0
  -27.1870  -26.9520   20.2070 C   0  0  0  0  0  0  0  0  0  0  0  0
  -23.4240  -30.4230   21.5540 C   0  0  0  0  0  3  0  0  0  0  0  0
  -24.8760  -28.8110   20.1480 C   0  0  0  0  0  0  0  0  0  0  0  0
  -25.9900  -30.6480   21.3990 C   0  0  0  0  0  2  0  0  0  0  0  0
  -26.0650  -29.2330   20.7580 C   0  0  0  0  0  0  0  0  0  0  0  0
  -27.2180  -28.3250   20.7560 C   0  0  0  0  0  3  0  0  0  0  0  0
  -25.9650  -26.6750   19.5560 C   0  0  0  0  0  3  0  0  0  0  0  0
  -24.8500  -27.5530   19.5260 C   0  0  0  0  0  3  0  0  0  0  0  0
  -23.6540  -29.7270   20.1840 C   0  0  0  0  0  2  0  0  0  0  0  0
  -24.6980  -30.9970   22.0980 N   0  0  0  0  0  0  0  0  0  0  0  0
  -23.5260  -32.1260   23.7010 O   0  0  0  0  0  0  0  0  0  0  0  0
  -22.7360  -29.4330   22.5290 C   0  0  0  0  0  0  0  0  0  0  0  0
  -21.4040  -29.2710   22.4160 N   0  0  0  0  0  0  0  0  0  0  0  0
  -23.4070  -28.8080   23.3540 O   0  0  0  0  0  0  0  0  0  0  0  0
  -20.9170  -29.8260   21.7270 H   0  0  0  0  0  0  0  0  0  0  0  0
  -18.0230  -28.0690   22.9520 C   0  0  0  0  0  0  0  0  0  0  0  0
  -20.5850  -28.3390   23.1970 C   0  0  0  0  0  3  0  0  0  0  0  0
  -20.6840  -26.9040   22.6300 C   0  0  0  0  0  2  0  0  0  0  0  0
  -19.5750  -26.5740   21.6240 C   0  0  0  0  0  2  0  0  0  0  0  0
  -18.1970  -26.7180   22.2770 C   0  0  0  0  0  2  0  0  0  0  0  0
  -19.1440  -28.8370   23.3690 C   0  0  0  0  0  0  0  0  0  0  0  0
  -18.9240  -30.0980   23.9630 C   0  0  0  0  0  3  0  0  0  0  0  0
  -17.6200  -30.5940   24.1420 C   0  0  0  0  0  3  0  0  0  0  0  0
  -16.5140  -29.8250   23.7380 C   0  0  0  0  0  3  0  0  0  0  0  0
  -16.7170  -28.5640   23.1490 C   0  0  0  0  0  3  0  0  0  0  0  0
  -25.8860  -32.4890   23.8060 C   0  0  0  0  0  3  0  0  0  0  0  0
  -26.4090  -31.7230   25.0840 C   0  0  1  0  0  0  0  0  0  0  0  0
  -25.3200  -31.4800   26.1550 C   0  0  0  0  0  1  0  0  0  0  0  0
  -27.0000  -30.3470   24.6990 C   0  0  0  0  0  1  0  0  0  0  0  0
  -27.5570  -32.5240   25.7410 C   0  0  0  0  0  1  0  0  0  0  0  0
  -25.5550  -33.8830   24.1530 N   0  0  0  0  0  0  0  0  0  0  0  0
  -25.8660  -34.9530   23.4100 C   0  0  0  0  0  0  0  0  0  0  0  0
  -26.5250  -34.8730   22.3700 O   0  0  0  0  0  0  0  0  0  0  0  0
  -24.9660  -34.0180   24.9610 H   0  0  0  0  0  0  0  0  0  0  0  0
  -24.1090  -36.7340   23.1180 C   0  0  0  0  0  1  0  0  0  0  0  0
  -25.3720  -36.3320   23.8960 C   0  0  0  0  0  3  0  0  0  0  0  0
  -27.5150  -37.2360   24.6870 C   0  0  0  0  0  1  0  0  0  0  0  0
  -26.3890  -37.4000   23.7720 N   0  0  0  0  0  0  0  0  0  0  0  0
  -25.9750  -38.3130   23.9390 H   0  0  0  0  0  0  0  0  0  0  0  0
  -28.7190  -22.6990   19.9240 C   0  0  0  0  0  2  0  0  0  0  0  0
  -28.9900  -21.2170   20.5850 O   0  0  0  0  0  0  0  0  0  0  0  0
  -29.0780  -19.6810   19.9990 C   0  0  0  0  0  2  0  0  0  0  0  0
  -29.8810  -18.1670   20.5600 C   0  0  0  0  0  2  0  0  0  0  0  0
  -30.3820  -15.2640   20.2540 C   0  0  0  0  0  0  0  0  0  0  0  0
  -30.3490  -12.8260   19.3660 C   0  0  0  0  0  2  0  0  0  0  0  0
  -29.4210  -12.6110   18.1440 C   0  0  0  0  0  2  0  0  0  0  0  0
  -27.9740  -12.3490   18.5940 C   0  0  0  0  0  2  0  0  0  0  0  0
  -27.5290  -13.3180   19.7180 C   0  0  0  0  0  3  0  0  0  0  0  0
  -28.5830  -13.4670   20.8330 C   0  0  0  0  0  2  0  0  0  0  0  0
  -29.8060  -13.9670   20.1860 N   0  0  0  0  0  0  0  0  0  0  0  0
  -31.6080  -15.2630   20.0800 O   0  0  0  0  0  0  0  0  0  0  0  0
  -29.6180  -16.5330   20.3180 N   0  0  0  0  0  0  0  0  0  0  0  0
  -28.6290  -16.3280   20.3210 H   0  0  0  0  0  0  0  0  0  0  0  0
  -25.1610  -13.8840   20.4750 C   0  0  0  0  0  0  0  0  0  0  0  0
  -24.0990  -13.1090   20.8510 C   0  0  0  0  0  0  0  0  0  0  0  0
  -24.5680  -11.7590   20.8280 C   0  0  0  0  0  0  0  0  0  0  0  0
  -26.2030  -13.0060   20.2350 N   0  0  0  0  0  0  0  0  0  0  0  0
  -25.8590  -11.7220   20.5170 N   0  0  0  0  0  0  0  0  0  0  0  0
  -23.8400  -10.4970   21.0260 C   0  0  0  0  0  0  0  0  0  0  0  0
  -24.2820   -9.5240   21.9500 C   0  0  0  0  0  3  0  0  0  0  0  0
  -23.5520   -8.3310   22.1370 C   0  0  0  0  0  3  0  0  0  0  0  0
  -22.3660   -8.1010   21.4000 C   0  0  0  0  0  0  0  0  0  0  0  0
  -21.9430   -9.0620   20.4650 C   0  0  0  0  0  3  0  0  0  0  0  0
  -22.6730  -10.2470   20.2760 C   0  0  0  0  0  3  0  0  0  0  0  0
  -21.6060   -6.9600   21.4960 O   0  0  0  0  0  0  0  0  0  0  0  0
  -21.5890   -6.2020   22.6400 C   0  0  0  0  0  0  0  0  0  0  0  0
  -21.2240   -6.7480   23.8900 C   0  0  0  0  0  3  0  0  0  0  0  0
  -21.1520   -5.9180   25.0260 C   0  0  0  0  0  3  0  0  0  0  0  0
  -21.4340   -4.5440   24.9150 C   0  0  0  0  0  0  0  0  0  0  0  0
  -21.7920   -3.9970   23.6700 C   0  0  0  0  0  3  0  0  0  0  0  0
  -21.8660   -4.8250   22.5350 C   0  0  0  0  0  0  0  0  0  0  0  0
  -22.1910   -4.2890   21.3340 F   0  0  0  0  0  0  0  0  0  0  0  0
  -21.3580   -3.7440   26.0040 F   0  0  0  0  0  0  0  0  0  0  0  0
  -22.7020  -13.5880   21.1150 C   0  0  0  0  0  0  0  0  0  0  0  0
  -21.9740  -12.9020   21.9880 N   0  0  0  0  0  0  0  0  0  0  0  0
  -22.2660  -14.6070   20.5800 O   0  0  0  0  0  0  0  0  0  0  0  0
  -22.3410  -12.0790   22.4420 H   0  0  0  0  0  0  0  0  0  0  0  0
  -21.0360  -13.2060   22.2080 H   0  0  0  0  0  0  0  0  0  0  0  0
  -25.3200  -15.2530   20.2870 N   0  0  0  0  0  0  0  0  0  0  0  0
  -24.5470  -15.9020   20.3920 H   0  0  0  0  0  0  0  0  0  0  0  0
  -26.1550  -15.6900   19.9190 H   0  0  0  0  0  0  0  0  0  0  0  0
  2  1  1  0
  3 14  2  0
  4  2  1  0
  4  9  1  0
  5 13  1  0
  5 15  1  0
  6 12  1  0
  6  8  1  0
  7 13  1  0
  8  7  1  0
  9  8  2  0
 10  4  2  0
 11 10  1  0
 11  6  2  0
 12  5  1  0
 13  3  1  0
 15 17  2  0
 16 15  1  0
 18 16  1  0
 19 28  2  0
 19 24  1  0
 20 16  1  0
 20 24  1  0
 21 20  1  0
 22 23  1  0
 22 21  1  0
 23 19  1  0
 24 25  2  0
 25 26  1  0
 27 26  2  0
 28 27  1  0
 29  3  1  0
 29 34  1  0
 29 30  1  0
 30 33  1  1
 30 31  1  0
 32 30  1  0
 34 37  1  0
 35 39  1  0
 35 34  1  0
 36 35  2  0
 39 38  1  0
 41 39  1  0
 41 42  1  0
 41 40  1  0
 43  1  1  0
 43 44  1  0
 45 46  1  0
 45 44  1  0
 47 55  1  0
 48 53  1  0
 49 50  1  0
 49 48  1  0
 51 50  1  0
 51 60  1  0
 51 52  1  0
 53 47  1  0
 53 52  1  0
 54 47  2  0
 55 56  1  0
 55 46  1  0
 57 58  2  0
 58 77  1  0
 59 58  1  0
 59 62  1  0
 60 57  1  0
 60 61  1  0
 61 59  2  0
 62 63  1  0
 63 64  2  0
 65 68  1  0
 65 64  1  0
 66 65  2  0
 67 66  1  0
 67 62  2  0
 68 69  1  0
 69 70  1  0
 70 71  2  0
 72 71  1  0
 72 76  1  0
 73 72  2  0
 74 69  2  0
 74 73  1  0
 75 74  1  0
 77 78  1  0
 78 81  1  0
 78 80  1  0
 79 77  2  0
 82 83  1  0
 82 57  1  0
 84 82  1  0
M  ISO  4   1 101   2 101  47 100  55 100
M  END
>  <TORSDO>  (60) 
F 20

>  <SCORE>  (60) 
-15.761

>  <name>  (60) 
59

>  <ligand_id>  (60) 
59

>  <original_smiles>  (60) 
[H]c1c([H])c([H])c2c(c1[H])C([H])([H])C([H])([H])C([H])([H])C2([H])N([H])C(=O)C1([H])N(C(=O)C([H])(N([H])C(=O)C([H])(N([H])C([H])([H])[H])C([H])([H])[H])C(C([H])([H])[H])(C([H])([H])[H])C([H])([H])[H])C([H])([H])c2c([H])c(OC([H])([H])C([H])([H])OC([H])([H])C([H])([H])N([H])C(=O)N3C([H])([H])C([H])([H])C([H])([H])C([H])(n4nc(-c5c([H])c([H])c(Oc6c([H])c([H])c(F)c([H])c6F)c([H])c5[H])c(C(=O)N([H])[H])c4N([H])[H])C3([H])[H])c([H])c([H])c2C1([H])[H]

>  <smiles>  (60) 
[H]c1c([H])c([H])c2c(c1[H])C([H])([H])C([H])([H])C([H])([H])C2([H])N([H])C(=O)C1([H])N(C(=O)C([H])(N([H])C(=O)C([H])(N([H])C([H])([H])[H])C([H])([H])[H])C(C([H])([H])[H])(C([H])([H])[H])C([H])([H])[H])C([H])([H])c2c([H])c(OC([H])([H])C([H])([H])OC([H])([H])C([H])([H])N([H])C(=O)N3C([H])([H])C([H])([H])C([H])([H])C([H])(n4nc(-c5c([H])c([H])c(Oc6c([H])c([H])c(F)c([H])c6F)c([H])c5[H])c(C(=O)N([H])[H])c4N([H])[H])C3([H])[H])c([H])c([H])c2C1([H])[H]

$$$$
60:0:0
     RDKit          3D

 99106  0  0  1  0  0  0  0  0999 V2000
  -30.6050  -22.6760   17.7980 C   0  0  0  0  0  0  0  0  0  0  0  0
  -30.8070  -21.3830   17.5270 N   0  0  0  0  0  0  0  0  0  0  0  0
  -31.3940  -23.5650   17.4620 O   0  0  0  0  0  0  0  0  0  0  0  0
  -30.0800  -20.7370   17.8060 H   0  0  0  0  0  0  0  0  0  0  0  0
  -32.0870  -20.7930   17.1420 C   0  0  0  0  0  2  0  0  0  0  0  0
  -32.5680  -19.8570   18.2590 C   0  0  0  0  0  2  0  0  0  0  0  0
  -32.7040  -20.5970   19.4650 O   0  0  0  0  0  0  0  0  0  0  0  0
  -32.9910  -19.7700   20.5840 C   0  0  0  0  0  2  0  0  0  0  0  0
  -33.0850  -20.6390   21.8460 C   0  0  0  0  0  2  0  0  0  0  0  0
  -31.8200  -21.2130   22.1730 O   0  0  0  0  0  0  0  0  0  0  0  0
  -31.1180  -20.5820   23.2430 C   0  0  0  0  0  2  0  0  0  0  0  0
  -30.3570  -19.3310   22.7880 C   0  0  0  0  0  2  0  0  0  0  0  0
  -31.2310  -18.2110   22.6850 O   0  0  0  0  0  0  0  0  0  0  0  0
  -30.5800  -17.1040   22.0800 C   0  0  0  0  0  2  0  0  0  0  0  0
  -31.5520  -15.9330   21.8920 C   0  0  0  0  0  2  0  0  0  0  0  0
  -31.0890  -14.1530   20.1860 C   0  0  0  0  0  0  0  0  0  0  0  0
  -30.5270  -12.1430   18.8690 C   0  0  0  0  0  2  0  0  0  0  0  0
  -29.5590  -12.4410   17.7110 C   0  0  0  0  0  2  0  0  0  0  0  0
  -28.0960  -12.3980   18.1950 C   0  0  0  0  0  2  0  0  0  0  0  0
  -27.8660  -13.2410   19.4770 C   0  0  0  0  0  3  0  0  0  0  0  0
  -28.9290  -12.9010   20.5420 C   0  0  0  0  0  2  0  0  0  0  0  0
  -30.2690  -13.0990   19.9540 N   0  0  0  0  0  0  0  0  0  0  0  0
  -32.0490  -14.4520   19.4710 O   0  0  0  0  0  0  0  0  0  0  0  0
  -30.8370  -14.7900   21.3340 N   0  0  0  0  0  0  0  0  0  0  0  0
  -30.0450  -14.4490   21.8580 H   0  0  0  0  0  0  0  0  0  0  0  0
  -25.5270  -14.0120   20.2450 C   0  0  0  0  0  0  0  0  0  0  0  0
  -24.4270  -13.3110   20.6720 C   0  0  0  0  0  0  0  0  0  0  0  0
  -24.8090  -11.9340   20.6510 C   0  0  0  0  0  0  0  0  0  0  0  0
  -26.5090  -13.0630   19.9970 N   0  0  0  0  0  0  0  0  0  0  0  0
  -26.0800  -11.8120   20.2960 N   0  0  0  0  0  0  0  0  0  0  0  0
  -24.0170  -10.7180   20.8870 C   0  0  0  0  0  0  0  0  0  0  0  0
  -24.4270   -9.7340   21.8110 C   0  0  0  0  0  3  0  0  0  0  0  0
  -23.6380   -8.5840   22.0310 C   0  0  0  0  0  3  0  0  0  0  0  0
  -22.4230   -8.4140   21.3250 C   0  0  0  0  0  0  0  0  0  0  0  0
  -22.0330   -9.3850   20.3870 C   0  0  0  0  0  3  0  0  0  0  0  0
  -22.8240  -10.5260   20.1660 C   0  0  0  0  0  3  0  0  0  0  0  0
  -21.6040   -7.3190   21.4570 O   0  0  0  0  0  0  0  0  0  0  0  0
  -21.5580   -6.5880   22.6180 C   0  0  0  0  0  0  0  0  0  0  0  0
  -21.2600   -7.1850   23.8640 C   0  0  0  0  0  3  0  0  0  0  0  0
  -21.1540   -6.3870   25.0210 C   0  0  0  0  0  3  0  0  0  0  0  0
  -21.3400   -4.9940   24.9370 C   0  0  0  0  0  0  0  0  0  0  0  0
  -21.6320   -4.3980   23.6970 C   0  0  0  0  0  3  0  0  0  0  0  0
  -21.7390   -5.1920   22.5420 C   0  0  0  0  0  0  0  0  0  0  0  0
  -21.9990   -4.6070   21.3460 F   0  0  0  0  0  0  0  0  0  0  0  0
  -21.2330   -4.2270   26.0450 F   0  0  0  0  0  0  0  0  0  0  0  0
  -23.0710  -13.8740   20.9800 C   0  0  0  0  0  0  0  0  0  0  0  0
  -22.3300  -13.2410   21.8860 N   0  0  0  0  0  0  0  0  0  0  0  0
  -22.6730  -14.9110   20.4520 O   0  0  0  0  0  0  0  0  0  0  0  0
  -22.6530  -12.3980   22.3380 H   0  0  0  0  0  0  0  0  0  0  0  0
  -21.4210  -13.6080   22.1280 H   0  0  0  0  0  0  0  0  0  0  0  0
  -25.7690  -15.3670   20.0320 N   0  0  0  0  0  0  0  0  0  0  0  0
  -25.0740  -16.0890   20.1900 H   0  0  0  0  0  0  0  0  0  0  0  0
  -26.6270  -15.7270   19.6330 H   0  0  0  0  0  0  0  0  0  0  0  0
  -29.3600  -23.0080   18.6270 C   0  0  0  0  0  2  0  0  0  0  0  0
  -29.6250  -24.1530   19.4350 O   0  0  0  0  0  0  0  0  0  0  0  0
  -28.7470  -24.2280   20.5480 C   0  0  0  0  0  2  0  0  0  0  0  0
  -28.7230  -25.6480   21.1230 C   0  0  0  0  0  0  0  0  0  0  0  0
  -28.7600  -25.8590   22.3380 O   0  0  0  0  0  0  0  0  0  0  0  0
  -28.5360  -26.5900   20.1760 O   0  0  0  0  0  0  0  0  0  0  0  0
  -24.6620  -31.7480   23.2230 C   0  0  0  0  0  0  0  0  0  0  0  0
  -27.3760  -27.3190   20.2230 C   0  0  0  0  0  0  0  0  0  0  0  0
  -23.4830  -30.3230   21.5790 C   0  0  0  0  0  3  0  0  0  0  0  0
  -24.9680  -28.7820   20.1910 C   0  0  0  0  0  0  0  0  0  0  0  0
  -26.0060  -30.7070   21.4020 C   0  0  0  0  0  2  0  0  0  0  0  0
  -26.1130  -29.3310   20.7840 C   0  0  0  0  0  0  0  0  0  0  0  0
  -27.3250  -28.6090   20.7960 C   0  0  0  0  0  3  0  0  0  0  0  0
  -26.2180  -26.7780   19.6270 C   0  0  0  0  0  3  0  0  0  0  0  0
  -25.0120  -27.5010   19.6140 C   0  0  0  0  0  3  0  0  0  0  0  0
  -23.7140  -29.6290   20.2100 C   0  0  0  0  0  2  0  0  0  0  0  0
  -24.7350  -30.9400   22.1270 N   0  0  0  0  0  0  0  0  0  0  0  0
  -23.5730  -32.0180   23.7480 O   0  0  0  0  0  0  0  0  0  0  0  0
  -22.8270  -29.3070   22.5390 C   0  0  0  0  0  0  0  0  0  0  0  0
  -21.5050  -29.1200   22.4030 N   0  0  0  0  0  0  0  0  0  0  0  0
  -23.5070  -28.6860   23.3620 O   0  0  0  0  0  0  0  0  0  0  0  0
  -21.0190  -29.6720   21.7100 H   0  0  0  0  0  0  0  0  0  0  0  0
  -18.1320  -27.9180   22.8730 C   0  0  0  0  0  0  0  0  0  0  0  0
  -20.6850  -28.1870   23.1720 C   0  0  0  0  0  3  0  0  0  0  0  0
  -20.7980  -26.7520   22.6070 C   0  0  0  0  0  2  0  0  0  0  0  0
  -19.7080  -26.4180   21.5830 C   0  0  0  0  0  2  0  0  0  0  0  0
  -18.3190  -26.5650   22.2110 C   0  0  0  0  0  2  0  0  0  0  0  0
  -19.2420  -28.6870   23.3100 C   0  0  0  0  0  0  0  0  0  0  0  0
  -19.0150  -29.9550   23.8870 C   0  0  0  0  0  3  0  0  0  0  0  0
  -17.7070  -30.4560   24.0320 C   0  0  0  0  0  3  0  0  0  0  0  0
  -16.6100  -29.6840   23.6130 C   0  0  0  0  0  3  0  0  0  0  0  0
  -16.8220  -28.4180   23.0400 C   0  0  0  0  0  3  0  0  0  0  0  0
  -25.9370  -32.3900   23.8530 C   0  0  0  0  0  3  0  0  0  0  0  0
  -26.4640  -31.6140   25.1210 C   0  0  1  0  0  0  0  0  0  0  0  0
  -25.3720  -31.3520   26.1850 C   0  0  0  0  0  1  0  0  0  0  0  0
  -27.0650  -30.2480   24.7160 C   0  0  0  0  0  1  0  0  0  0  0  0
  -27.6070  -32.4150   25.7900 C   0  0  0  0  0  1  0  0  0  0  0  0
  -25.6100  -33.7820   24.1920 N   0  0  0  0  0  0  0  0  0  0  0  0
  -25.9300  -34.8410   23.4360 C   0  0  0  0  0  0  0  0  0  0  0  0
  -26.6020  -34.7520   22.4040 O   0  0  0  0  0  0  0  0  0  0  0  0
  -25.0140  -33.9250   24.9930 H   0  0  0  0  0  0  0  0  0  0  0  0
  -24.1710  -36.6040   23.0910 C   0  0  0  0  0  1  0  0  0  0  0  0
  -25.4210  -36.2200   23.8980 C   0  0  0  0  0  3  0  0  0  0  0  0
  -27.5500  -37.1300   24.7160 C   0  0  0  0  0  1  0  0  0  0  0  0
  -26.4360  -37.2900   23.7850 N   0  0  0  0  0  0  0  0  0  0  0  0
  -26.0180  -38.2020   23.9450 H   0  0  0  0  0  0  0  0  0  0  0  0
  1 54  1  0
  2  1  1  0
  2  4  1  0
  3  1  2  0
  5  2  1  0
  5  6  1  0
  6  7  1  0
  7  8  1  0
  8  9  1  0
  9 10  1  0
 10 11  1  0
 12 11  1  0
 13 12  1  0
 14 13  1  0
 15 14  1  0
 16 24  1  0
 17 22  1  0
 18 19  1  0
 18 17  1  0
 20 19  1  0
 20 29  1  0
 20 21  1  0
 22 16  1  0
 22 21  1  0
 23 16  2  0
 24 25  1  0
 24 15  1  0
 26 27  2  0
 27 46  1  0
 28 27  1  0
 28 31  1  0
 29 26  1  0
 29 30  1  0
 30 28  2  0
 31 32  1  0
 32 33  2  0
 34 37  1  0
 34 33  1  0
 35 34  2  0
 36 35  1  0
 36 31  2  0
 37 38  1  0
 38 39  1  0
 39 40  2  0
 41 40  1  0
 41 45  1  0
 42 41  2  0
 43 38  2  0
 43 42  1  0
 44 43  1  0
 46 47  1  0
 47 50  1  0
 47 49  1  0
 48 46  2  0
 51 52  1  0
 51 26  1  0
 53 51  1  0
 54 55  1  0
 55 56  1  0
 56 57  1  0
 57 58  2  0
 59 61  1  0
 59 57  1  0
 60 71  2  0
 61 66  1  0
 62 70  1  0
 62 72  1  0
 63 69  1  0
 63 65  1  0
 64 70  1  0
 65 66  2  0
 65 64  1  0
 67 61  2  0
 68 67  1  0
 68 63  2  0
 69 62  1  0
 70 60  1  0
 72 74  2  0
 73 72  1  0
 75 73  1  0
 76 85  2  0
 76 81  1  0
 77 73  1  0
 77 81  1  0
 78 77  1  0
 79 80  1  0
 79 78  1  0
 80 76  1  0
 81 82  2  0
 82 83  1  0
 84 83  2  0
 85 84  1  0
 86 60  1  0
 86 91  1  0
 86 87  1  0
 87 90  1  1
 87 88  1  0
 89 87  1  0
 91 94  1  0
 92 96  1  0
 92 91  1  0
 93 92  2  0
 96 95  1  0
 98 96  1  0
 98 99  1  0
 98 97  1  0
M  ISO  4  16 100  24 100  57 101  59 101
M  END
>  <TORSDO>  (61) 
F 31

>  <SCORE>  (61) 
-9.776

>  <name>  (61) 
60

>  <ligand_id>  (61) 
60

>  <original_smiles>  (61) 
[H]c1c([H])c([H])c2c(c1[H])C([H])([H])C([H])([H])C([H])([H])C2([H])N([H])C(=O)C1([H])N(C(=O)C([H])(N([H])C(=O)C([H])(N([H])C([H])([H])[H])C([H])([H])[H])C(C([H])([H])[H])(C([H])([H])[H])C([H])([H])[H])C([H])([H])c2c([H])c(OC(=O)C([H])([H])OC([H])([H])C(=O)N([H])C([H])([H])C([H])([H])OC([H])([H])C([H])([H])OC([H])([H])C([H])([H])OC([H])([H])C([H])([H])N([H])C(=O)N3C([H])([H])C([H])([H])C([H])([H])C([H])(n4nc(-c5c([H])c([H])c(Oc6c([H])c([H])c(F)c([H])c6F)c([H])c5[H])c(C(=O)N([H])[H])c4N([H])[H])C3([H])[H])c([H])c([H])c2C1([H])[H]

>  <smiles>  (61) 
[H]c1c([H])c([H])c2c(c1[H])C([H])([H])C([H])([H])C([H])([H])C2([H])N([H])C(=O)C1([H])N(C(=O)C([H])(N([H])C(=O)C([H])(N([H])C([H])([H])[H])C([H])([H])[H])C(C([H])([H])[H])(C([H])([H])[H])C([H])([H])[H])C([H])([H])c2c([H])c(OC(=O)C([H])([H])OC([H])([H])C(=O)N([H])C([H])([H])C([H])([H])OC([H])([H])C([H])([H])OC([H])([H])C([H])([H])OC([H])([H])C([H])([H])N([H])C(=O)N3C([H])([H])C([H])([H])C([H])([H])C([H])(n4nc(-c5c([H])c([H])c(Oc6c([H])c([H])c(F)c([H])c6F)c([H])c5[H])c(C(=O)N([H])[H])c4N([H])[H])C3([H])[H])c([H])c([H])c2C1([H])[H]

$$$$
62:0:0
     RDKit          3D

 83 87  0  0  1  0  0  0  0  0999 V2000
  -28.0950  -23.1700   19.9530 C   0  0  0  0  0  2  0  0  0  0  0  0
  -27.2760  -22.9340   19.0610 O   0  0  0  0  0  0  0  0  0  0  0  0
  -28.1050  -25.1740   20.3780 O   0  0  0  0  0  1  0  0  0  0  0  0
  -24.6430  -31.8270   23.1620 C   0  0  0  0  0  0  0  0  0  0  0  0
  -27.1940  -26.5210   20.2410 C   0  0  0  0  0  0  0  0  0  0  0  0
  -23.4780  -30.4060   21.5320 C   0  0  0  0  0  3  0  0  0  0  0  0
  -24.9420  -28.7070   20.1490 C   0  0  0  0  0  0  0  0  0  0  0  0
  -26.0670  -30.4820   21.4570 C   0  0  0  0  0  2  0  0  0  0  0  0
  -26.1350  -29.0190   20.8100 C   0  0  0  0  0  0  0  0  0  0  0  0
  -27.2260  -27.9590   20.8270 C   0  0  0  0  0  3  0  0  0  0  0  0
  -25.9680  -26.4890   19.5080 C   0  0  0  0  0  3  0  0  0  0  0  0
  -24.9140  -27.4710   19.4730 C   0  0  0  0  0  3  0  0  0  0  0  0
  -23.7410  -29.6810   20.1760 C   0  0  0  0  0  2  0  0  0  0  0  0
  -24.7550  -30.9460   22.1010 N   0  0  0  0  0  0  0  0  0  0  0  0
  -23.5420  -32.1390   23.6500 O   0  0  0  0  0  0  0  0  0  0  0  0
  -22.7360  -29.4580   22.5140 C   0  0  0  0  0  0  0  0  0  0  0  0
  -21.3990  -29.3230   22.3940 N   0  0  0  0  0  0  0  0  0  0  0  0
  -23.3790  -28.8360   23.3620 O   0  0  0  0  0  0  0  0  0  0  0  0
  -20.9260  -29.8730   21.6910 H   0  0  0  0  0  0  0  0  0  0  0  0
  -18.0000  -28.1340   22.9320 C   0  0  0  0  0  0  0  0  0  0  0  0
  -20.5650  -28.3960   23.1730 C   0  0  0  0  0  3  0  0  0  0  0  0
  -20.6540  -26.9600   22.6040 C   0  0  0  0  0  2  0  0  0  0  0  0
  -19.5450  -26.6420   21.5960 C   0  0  0  0  0  2  0  0  0  0  0  0
  -18.1680  -26.7890   22.2480 C   0  0  0  0  0  2  0  0  0  0  0  0
  -19.1250  -28.8970   23.3520 C   0  0  0  0  0  0  0  0  0  0  0  0
  -18.9090  -30.1530   23.9600 C   0  0  0  0  0  3  0  0  0  0  0  0
  -17.6050  -30.6490   24.1470 C   0  0  0  0  0  3  0  0  0  0  0  0
  -16.4960  -29.8870   23.7380 C   0  0  0  0  0  3  0  0  0  0  0  0
  -16.6950  -28.6300   23.1370 C   0  0  0  0  0  3  0  0  0  0  0  0
  -25.8910  -32.4990   23.8130 C   0  0  0  0  0  3  0  0  0  0  0  0
  -25.5530  -33.9040   24.1360 N   0  0  0  0  0  0  0  0  0  0  0  0
  -25.8900  -34.9730   23.4020 C   0  0  0  0  0  0  0  0  0  0  0  0
  -26.5690  -34.8830   22.3770 O   0  0  0  0  0  0  0  0  0  0  0  0
  -24.9460  -34.0460   24.9300 H   0  0  0  0  0  0  0  0  0  0  0  0
  -24.1640  -36.7830   23.0700 C   0  0  0  0  0  1  0  0  0  0  0  0
  -25.4040  -36.3630   23.8750 C   0  0  0  0  0  3  0  0  0  0  0  0
  -27.5330  -37.2530   24.7200 C   0  0  0  0  0  1  0  0  0  0  0  0
  -26.4360  -37.4200   23.7720 N   0  0  0  0  0  0  0  0  0  0  0  0
  -26.0260  -38.3380   23.9190 H   0  0  0  0  0  0  0  0  0  0  0  0
  -26.3720  -31.7620   25.1250 C   0  0  1  0  0  0  0  0  0  0  0  0
  -25.2520  -31.5520   26.1720 C   0  0  0  0  0  1  0  0  0  0  0  0
  -26.9670  -30.3750   24.8000 C   0  0  0  0  0  1  0  0  0  0  0  0
  -27.5060  -32.5740   25.7960 C   0  0  0  0  0  1  0  0  0  0  0  0
  -28.8790  -21.4080   20.4960 C   0  0  0  0  0 15  0  0  0  0  0  0
  -29.3870  -19.4490   19.8980 C   0  0  0  0  0  1  0  0  0  0  0  0
  -30.1740  -16.0950   20.1150 C   0  0  0  0  0  0  0  0  0  0  0  0
  -30.3570  -13.4580   19.3270 C   0  0  0  0  0  2  0  0  0  0  0  0
  -29.4960  -12.9010   18.1460 C   0  0  0  0  0  2  0  0  0  0  0  0
  -28.1060  -12.4660   18.6250 C   0  0  0  0  0  2  0  0  0  0  0  0
  -27.5580  -13.4770   19.6500 C   0  0  0  0  0  3  0  0  0  0  0  0
  -28.5750  -13.9280   20.7380 C   0  0  0  0  0  2  0  0  0  0  0  0
  -29.6890  -14.6650   20.0620 N   0  0  0  0  0  0  0  0  0  0  0  0
  -31.4000  -15.9710   19.8840 O   0  0  0  0  0  0  0  0  0  0  0  0
  -29.4380  -17.5650   20.2450 N   0  0  0  0  0  0  0  0  0  0  0  0
  -28.4990  -17.3210   20.5290 H   0  0  0  0  0  0  0  0  0  0  0  0
  -25.2080  -13.9630   20.4480 C   0  0  0  0  0  0  0  0  0  0  0  0
  -24.1590  -13.1720   20.8200 C   0  0  0  0  0  0  0  0  0  0  0  0
  -24.6400  -11.8270   20.7740 C   0  0  0  0  0  0  0  0  0  0  0  0
  -26.2570  -13.1050   20.1890 N   0  0  0  0  0  0  0  0  0  0  0  0
  -25.9310  -11.8090   20.4480 N   0  0  0  0  0  0  0  0  0  0  0  0
  -23.9180  -10.5590   20.9630 C   0  0  0  0  0  0  0  0  0  0  0  0
  -24.3540   -9.5880   21.8920 C   0  0  0  0  0  3  0  0  0  0  0  0
  -23.6260   -8.3920   22.0740 C   0  0  0  0  0  3  0  0  0  0  0  0
  -22.4470   -8.1570   21.3260 C   0  0  0  0  0  0  0  0  0  0  0  0
  -22.0290   -9.1150   20.3870 C   0  0  0  0  0  3  0  0  0  0  0  0
  -22.7580  -10.3030   20.2040 C   0  0  0  0  0  3  0  0  0  0  0  0
  -21.6910   -7.0130   21.4170 O   0  0  0  0  0  0  0  0  0  0  0  0
  -21.6430   -6.2700   22.5710 C   0  0  0  0  0  0  0  0  0  0  0  0
  -21.2010   -6.8210   23.7930 C   0  0  0  0  0  3  0  0  0  0  0  0
  -21.1010   -6.0050   24.9380 C   0  0  0  0  0  3  0  0  0  0  0  0
  -21.4340   -4.6390   24.8610 C   0  0  0  0  0  0  0  0  0  0  0  0
  -21.8700   -4.0870   23.6430 C   0  0  0  0  0  3  0  0  0  0  0  0
  -21.9710   -4.9000   22.5010 C   0  0  0  0  0  0  0  0  0  0  0  0
  -22.3690   -4.3600   21.3250 F   0  0  0  0  0  0  0  0  0  0  0  0
  -21.3320   -3.8530   25.9580 F   0  0  0  0  0  0  0  0  0  0  0  0
  -22.7610  -13.6400   21.0970 C   0  0  0  0  0  0  0  0  0  0  0  0
  -22.0420  -12.9380   21.9640 N   0  0  0  0  0  0  0  0  0  0  0  0
  -22.3190  -14.6660   20.5820 O   0  0  0  0  0  0  0  0  0  0  0  0
  -22.4150  -12.1100   22.4030 H   0  0  0  0  0  0  0  0  0  0  0  0
  -21.1040  -13.2350   22.1940 H   0  0  0  0  0  0  0  0  0  0  0  0
  -25.3530  -15.3370   20.2740 N   0  0  0  0  0  0  0  0  0  0  0  0
  -24.5770  -15.9800   20.3870 H   0  0  0  0  0  0  0  0  0  0  0  0
  -26.1870  -15.7800   19.9110 H   0  0  0  0  0  0  0  0  0  0  0  0
  2  1  2  0
  4 15  2  0
  5  3  1  0
  5 10  1  0
  6 14  1  0
  6 16  1  0
  7 13  1  0
  7  9  1  0
  8 14  1  0
  9 10  2  0
  9  8  1  0
 11  5  2  0
 12 11  1  0
 12  7  2  0
 13  6  1  0
 14  4  1  0
 16 18  2  0
 17 16  1  0
 19 17  1  0
 20 29  2  0
 20 25  1  0
 21 17  1  0
 21 25  1  0
 22 21  1  0
 23 24  1  0
 23 22  1  0
 24 20  1  0
 25 26  2  0
 26 27  1  0
 28 27  2  0
 29 28  1  0
 30  4  1  0
 30 31  1  0
 30 40  1  0
 31 34  1  0
 32 36  1  0
 32 31  1  0
 33 32  2  0
 36 35  1  0
 38 36  1  0
 38 39  1  0
 38 37  1  0
 40 43  1  1
 40 41  1  0
 42 40  1  0
 45 54  1  0
 46 54  1  0
 47 52  1  0
 48 49  1  0
 48 47  1  0
 50 49  1  0
 50 59  1  0
 50 51  1  0
 52 46  1  0
 52 51  1  0
 53 46  2  0
 54 55  1  0
 56 57  2  0
 57 76  1  0
 58 57  1  0
 58 61  1  0
 59 60  1  0
 59 56  1  0
 60 58  2  0
 61 62  1  0
 62 63  2  0
 64 67  1  0
 64 63  1  0
 65 64  2  0
 66 65  1  0
 66 61  2  0
 67 68  1  0
 68 69  1  0
 69 70  2  0
 71 70  1  0
 71 75  1  0
 72 71  2  0
 73 68  2  0
 73 72  1  0
 74 73  1  0
 76 77  1  0
 77 80  1  0
 77 79  1  0
 78 76  2  0
 81 82  1  0
 81 56  1  0
 83 81  1  0
M  ISO  4   1 101   3 101  46 100  54 100
M  END
>  <TORSDO>  (62) 
F 18

>  <SCORE>  (62) 
-16.173

>  <name>  (62) 
62

>  <ligand_id>  (62) 
62

>  <original_smiles>  (62) 
[H]c1c([H])c([H])c2c(c1[H])C([H])([H])C([H])([H])C([H])([H])C2([H])N([H])C(=O)C1([H])N(C(=O)C([H])(N([H])C(=O)C([H])(N([H])C([H])([H])[H])C([H])([H])[H])C(C([H])([H])[H])(C([H])([H])[H])C([H])([H])[H])C([H])([H])c2c([H])c(OC(=O)C([H])([H])C([H])([H])N([H])C(=O)N3C([H])([H])C([H])([H])C([H])([H])C([H])(n4nc(-c5c([H])c([H])c(Oc6c([H])c([H])c(F)c([H])c6F)c([H])c5[H])c(C(=O)N([H])[H])c4N([H])[H])C3([H])[H])c([H])c([H])c2C1([H])[H]

>  <smiles>  (62) 
[H]c1c([H])c([H])c2c(c1[H])C([H])([H])C([H])([H])C([H])([H])C2([H])N([H])C(=O)C1([H])N(C(=O)C([H])(N([H])C(=O)C([H])(N([H])C([H])([H])[H])C([H])([H])[H])C(C([H])([H])[H])(C([H])([H])[H])C([H])([H])[H])C([H])([H])c2c([H])c(OC(=O)C([H])([H])C([H])([H])N([H])C(=O)N3C([H])([H])C([H])([H])C([H])([H])C([H])(n4nc(-c5c([H])c([H])c(Oc6c([H])c([H])c(F)c([H])c6F)c([H])c5[H])c(C(=O)N([H])[H])c4N([H])[H])C3([H])[H])c([H])c([H])c2C1([H])[H]

$$$$
63:0:0
     RDKit          3D

 96103  0  0  1  0  0  0  0  0999 V2000
  -24.7930  -23.7780   20.5920 C   0  0  0  0  0  2  0  0  0  0  0  0
  -25.4560  -22.7280   19.8900 O   0  0  0  0  0  0  0  0  0  0  0  0
  -26.0820  -23.0590   18.6510 C   0  0  0  0  0  2  0  0  0  0  0  0
  -27.5250  -23.5730   18.8070 C   0  0  0  0  0  2  0  0  0  0  0  0
  -28.3000  -25.9040   18.3110 C   0  0  0  0  0  0  0  0  0  0  0  0
  -27.5450  -25.0110   19.0480 N   0  0  0  0  0  0  0  0  0  0  0  0
  -29.1690  -25.5990   17.4940 O   0  0  0  0  0  0  0  0  0  0  0  0
  -26.9060  -25.4170   19.7160 H   0  0  0  0  0  0  0  0  0  0  0  0
  -28.0430  -27.2010   18.6280 O   0  0  0  0  0  0  0  0  0  0  0  0
  -24.4730  -31.5900   22.9330 C   0  0  0  0  0  0  0  0  0  0  0  0
  -26.8140  -27.7700   18.9170 C   0  0  0  0  0  0  0  0  0  0  0  0
  -23.0990  -30.3940   21.2590 C   0  0  0  0  0  3  0  0  0  0  0  0
  -24.3940  -29.1310   19.4640 C   0  0  0  0  0  0  0  0  0  0  0  0
  -25.5700  -30.8720   20.8190 C   0  0  0  0  0  2  0  0  0  0  0  0
  -25.6010  -29.6070   19.9880 C   0  0  0  0  0  0  0  0  0  0  0  0
  -26.8070  -28.9230   19.7300 C   0  0  0  0  0  3  0  0  0  0  0  0
  -25.5850  -27.3150   18.3760 C   0  0  0  0  0  3  0  0  0  0  0  0
  -24.3780  -27.9770   18.6650 C   0  0  0  0  0  3  0  0  0  0  0  0
  -23.1490  -29.9280   19.7790 C   0  0  0  0  0  2  0  0  0  0  0  0
  -24.4050  -30.9590   21.7280 N   0  0  0  0  0  0  0  0  0  0  0  0
  -23.4630  -31.7410   23.6330 O   0  0  0  0  0  0  0  0  0  0  0  0
  -22.5960  -29.2190   22.1270 C   0  0  0  0  0  0  0  0  0  0  0  0
  -21.2770  -28.9720   22.0910 N   0  0  0  0  0  0  0  0  0  0  0  0
  -23.3850  -28.5380   22.7880 O   0  0  0  0  0  0  0  0  0  0  0  0
  -20.6970  -29.5790   21.5270 H   0  0  0  0  0  0  0  0  0  0  0  0
  -18.0410  -27.4630   22.6330 C   0  0  0  0  0  0  0  0  0  0  0  0
  -20.5840  -27.8940   22.7960 C   0  0  0  0  0  3  0  0  0  0  0  0
  -20.7580  -26.5430   22.0620 C   0  0  0  0  0  2  0  0  0  0  0  0
  -19.6210  -26.2360   21.0810 C   0  0  0  0  0  2  0  0  0  0  0  0
  -18.2750  -26.2060   21.8120 C   0  0  0  0  0  2  0  0  0  0  0  0
  -19.1240  -28.2630   23.0820 C   0  0  0  0  0  0  0  0  0  0  0  0
  -18.8500  -29.4390   23.8110 C   0  0  0  0  0  3  0  0  0  0  0  0
  -17.5240  -29.8180   24.0950 C   0  0  0  0  0  3  0  0  0  0  0  0
  -16.4570  -29.0130   23.6640 C   0  0  0  0  0  3  0  0  0  0  0  0
  -16.7150  -27.8370   22.9380 C   0  0  0  0  0  3  0  0  0  0  0  0
  -25.8150  -32.1720   23.4770 C   0  0  0  0  0  3  0  0  0  0  0  0
  -26.4910  -31.2560   24.5700 C   0  0  1  0  0  0  0  0  0  0  0  0
  -25.5400  -30.8530   25.7210 C   0  0  0  0  0  1  0  0  0  0  0  0
  -27.0350  -29.9570   23.9320 C   0  0  0  0  0  1  0  0  0  0  0  0
  -27.7070  -31.9880   25.1850 C   0  0  0  0  0  1  0  0  0  0  0  0
  -25.5290  -33.5080   24.0170 N   0  0  0  0  0  0  0  0  0  0  0  0
  -25.7810  -34.6570   23.3730 C   0  0  0  0  0  0  0  0  0  0  0  0
  -26.3510  -34.7010   22.2810 O   0  0  0  0  0  0  0  0  0  0  0  0
  -25.0090  -33.5440   24.8810 H   0  0  0  0  0  0  0  0  0  0  0  0
  -24.0130  -36.4430   23.4130 C   0  0  0  0  0  1  0  0  0  0  0  0
  -25.3260  -35.9620   24.0520 C   0  0  0  0  0  3  0  0  0  0  0  0
  -27.5240  -36.7660   24.7920 C   0  0  0  0  0  1  0  0  0  0  0  0
  -26.3360  -37.0400   23.9880 N   0  0  0  0  0  0  0  0  0  0  0  0
  -25.9400  -37.9230   24.2990 H   0  0  0  0  0  0  0  0  0  0  0  0
  -25.7400  -24.5370   21.5500 C   0  0  0  0  0  2  0  0  0  0  0  0
  -26.4580  -23.6890   22.4430 O   0  0  0  0  0  0  0  0  0  0  0  0
  -27.4820  -22.9160   21.8260 C   0  0  0  0  0  2  0  0  0  0  0  0
  -28.7040  -22.8190   22.7540 C   0  0  0  0  0  2  0  0  0  0  0  0
  -29.4190  -21.5930   22.6220 O   0  0  0  0  0  0  0  0  0  0  0  0
  -30.1920  -21.4810   21.4300 C   0  0  0  0  0  2  0  0  0  0  0  0
  -31.2800  -20.4170   21.6400 C   0  0  0  0  0  2  0  0  0  0  0  0
  -31.8090  -19.9810   20.3920 O   0  0  0  0  0  0  0  0  0  0  0  0
  -33.2310  -19.9080   20.3690 C   0  0  0  0  0  2  0  0  0  0  0  0
  -33.6700  -18.7620   19.4500 C   0  0  0  0  0  2  0  0  0  0  0  0
  -33.2250  -17.5320   20.0060 O   0  0  0  0  0  0  0  0  0  0  0  0
  -33.7780  -16.3750   19.6110 C   0  0  0  0  0  0  0  0  0  0  0  0
  -33.2610  -13.9440   19.4450 C   0  0  0  0  0  2  0  0  0  0  0  0
  -32.4090  -13.6640   18.1950 C   0  0  0  0  0  2  0  0  0  0  0  0
  -30.9100  -13.8460   18.5020 C   0  0  0  0  0  2  0  0  0  0  0  0
  -30.6060  -15.1950   19.2100 C   0  0  0  0  0  3  0  0  0  0  0  0
  -31.5610  -15.4180   20.4040 C   0  0  0  0  0  2  0  0  0  0  0  0
  -32.9400  -15.2960   19.9090 N   0  0  0  0  0  0  0  0  0  0  0  0
  -34.8730  -16.2970   19.0440 O   0  0  0  0  0  0  0  0  0  0  0  0
  -28.4310  -16.3910   19.8930 C   0  0  0  0  0  0  0  0  0  0  0  0
  -27.1760  -15.9160   20.1700 C   0  0  0  0  0  0  0  0  0  0  0  0
  -27.2550  -14.4950   20.0430 C   0  0  0  0  0  0  0  0  0  0  0  0
  -29.2070  -15.2740   19.6210 N   0  0  0  0  0  0  0  0  0  0  0  0
  -28.4980  -14.1260   19.7660 N   0  0  0  0  0  0  0  0  0  0  0  0
  -26.2070  -13.4680   20.1110 C   0  0  0  0  0  0  0  0  0  0  0  0
  -26.3220  -12.3520   20.9690 C   0  0  0  0  0  3  0  0  0  0  0  0
  -25.2920  -11.3870   21.0310 C   0  0  0  0  0  3  0  0  0  0  0  0
  -24.1330  -11.5360   20.2330 C   0  0  0  0  0  0  0  0  0  0  0  0
  -24.0320  -12.6370   19.3650 C   0  0  0  0  0  3  0  0  0  0  0  0
  -25.0610  -13.5920   19.3010 C   0  0  0  0  0  3  0  0  0  0  0  0
  -23.0940  -10.6370   20.2100 O   0  0  0  0  0  0  0  0  0  0  0  0
  -22.7800   -9.8700   21.3030 C   0  0  0  0  0  0  0  0  0  0  0  0
  -22.4400  -10.4480   22.5460 C   0  0  0  0  0  3  0  0  0  0  0  0
  -22.0570   -9.6240   23.6230 C   0  0  0  0  0  3  0  0  0  0  0  0
  -22.0030   -8.2260   23.4580 C   0  0  0  0  0  0  0  0  0  0  0  0
  -22.3360   -7.6500   22.2200 C   0  0  0  0  0  3  0  0  0  0  0  0
  -22.7200   -8.4700   21.1450 C   0  0  0  0  0  0  0  0  0  0  0  0
  -23.0190   -7.9120   19.9460 F   0  0  0  0  0  0  0  0  0  0  0  0
  -21.6260   -7.4360   24.4900 F   0  0  0  0  0  0  0  0  0  0  0  0
  -25.9490  -16.7350   20.4470 C   0  0  0  0  0  0  0  0  0  0  0  0
  -25.0200  -16.2000   21.2310 N   0  0  0  0  0  0  0  0  0  0  0  0
  -25.8300  -17.8790   20.0080 O   0  0  0  0  0  0  0  0  0  0  0  0
  -25.1280  -15.2700   21.6080 H   0  0  0  0  0  0  0  0  0  0  0  0
  -24.1910  -16.7280   21.4630 H   0  0  0  0  0  0  0  0  0  0  0  0
  -28.9690  -17.6730   19.8330 N   0  0  0  0  0  0  0  0  0  0  0  0
  -28.4130  -18.5070   19.9860 H   0  0  0  0  0  0  0  0  0  0  0  0
  -29.9390  -17.8770   19.6180 H   0  0  0  0  0  0  0  0  0  0  0  0
  1 50  1  0
  2  1  1  0
  3  4  1  0
  3  2  1  0
  4  6  1  0
  5  9  1  0
  5  6  1  0
  6  8  1  0
  7  5  2  0
  9 11  1  0
 10 21  2  0
 11 16  1  0
 12 20  1  0
 12 22  1  0
 13 19  1  0
 13 15  1  0
 14 20  1  0
 15 14  1  0
 16 15  2  0
 17 18  1  0
 17 11  2  0
 18 13  2  0
 19 12  1  0
 20 10  1  0
 22 24  2  0
 23 22  1  0
 25 23  1  0
 26 35  2  0
 26 31  1  0
 27 23  1  0
 27 31  1  0
 28 27  1  0
 29 30  1  0
 29 28  1  0
 30 26  1  0
 31 32  2  0
 32 33  1  0
 34 33  2  0
 35 34  1  0
 36 10  1  0
 36 41  1  0
 36 37  1  0
 37 40  1  1
 37 38  1  0
 39 37  1  0
 41 44  1  0
 42 41  1  0
 42 46  1  0
 43 42  2  0
 46 45  1  0
 48 46  1  0
 48 49  1  0
 48 47  1  0
 50 51  1  0
 52 51  1  0
 52 53  1  0
 54 53  1  0
 55 56  1  0
 55 54  1  0
 57 56  1  0
 58 57  1  0
 59 60  1  0
 59 58  1  0
 61 67  1  0
 61 60  1  0
 62 67  1  0
 63 64  1  0
 63 62  1  0
 65 64  1  0
 65 72  1  0
 65 66  1  0
 67 66  1  0
 68 61  2  0
 69 70  2  0
 70 89  1  0
 71 74  1  0
 71 70  1  0
 72 73  1  0
 72 69  1  0
 73 71  2  0
 74 75  1  0
 75 76  2  0
 77 76  1  0
 78 77  2  0
 79 78  1  0
 79 74  2  0
 80 77  1  0
 80 81  1  0
 81 82  1  0
 82 83  2  0
 84 83  1  0
 84 88  1  0
 85 84  2  0
 86 81  2  0
 86 85  1  0
 87 86  1  0
 89 90  1  0
 90 93  1  0
 90 92  1  0
 91 89  2  0
 94 69  1  0
 94 95  1  0
 96 94  1  0
M  ISO  4   5 101   9 101  60 100  61 100
M  END
>  <TORSDO>  (63) 
F 31

>  <SCORE>  (63) 
-4.720

>  <name>  (63) 
63

>  <ligand_id>  (63) 
63

>  <original_smiles>  (63) 
[H]c1c([H])c([H])c2c(c1[H])C([H])([H])C([H])([H])C([H])([H])C2([H])N([H])C(=O)C1([H])N(C(=O)C([H])(N([H])C(=O)C([H])(N([H])C([H])([H])[H])C([H])([H])[H])C(C([H])([H])[H])(C([H])([H])[H])C([H])([H])[H])C([H])([H])c2c([H])c(OC(=O)N([H])C([H])([H])C([H])([H])OC([H])([H])C([H])([H])OC([H])([H])C([H])([H])OC([H])([H])C([H])([H])OC([H])([H])C([H])([H])OC(=O)N3C([H])([H])C([H])([H])C([H])([H])C([H])(n4nc(-c5c([H])c([H])c(Oc6c([H])c([H])c(F)c([H])c6F)c([H])c5[H])c(C(=O)N([H])[H])c4N([H])[H])C3([H])[H])c([H])c([H])c2C1([H])[H]

>  <smiles>  (63) 
[H]c1c([H])c([H])c2c(c1[H])C([H])([H])C([H])([H])C([H])([H])C2([H])N([H])C(=O)C1([H])N(C(=O)C([H])(N([H])C(=O)C([H])(N([H])C([H])([H])[H])C([H])([H])[H])C(C([H])([H])[H])(C([H])([H])[H])C([H])([H])[H])C([H])([H])c2c([H])c(OC(=O)N([H])C([H])([H])C([H])([H])OC([H])([H])C([H])([H])OC([H])([H])C([H])([H])OC([H])([H])C([H])([H])OC([H])([H])C([H])([H])OC(=O)N3C([H])([H])C([H])([H])C([H])([H])C([H])(n4nc(-c5c([H])c([H])c(Oc6c([H])c([H])c(F)c([H])c6F)c([H])c5[H])c(C(=O)N([H])[H])c4N([H])[H])C3([H])[H])c([H])c([H])c2C1([H])[H]

$$$$
64:0:0
     RDKit          3D

 99106  0  0  1  0  0  0  0  0999 V2000
  -28.9430  -22.6400   24.7390 O   0  0  0  0  0  0  0  0  0  0  0  0
  -30.2130  -22.3830   24.1490 C   0  0  0  0  0  2  0  0  0  0  0  0
  -30.0480  -21.3780   23.0030 C   0  0  0  0  0  2  0  0  0  0  0  0
  -29.6180  -22.0040   21.7980 O   0  0  0  0  0  0  0  0  0  0  0  0
  -29.4360  -21.0750   20.7290 C   0  0  0  0  0  2  0  0  0  0  0  0
  -30.5930  -21.1460   19.7210 C   0  0  0  0  0  2  0  0  0  0  0  0
  -31.7720  -20.5270   20.2290 O   0  0  0  0  0  0  0  0  0  0  0  0
  -32.2070  -19.3530   19.5440 C   0  0  0  0  0  2  0  0  0  0  0  0
  -32.0750  -18.0760   20.3920 C   0  0  0  0  0  2  0  0  0  0  0  0
  -30.8490  -17.4000   20.1210 O   0  0  0  0  0  0  0  0  0  0  0  0
  -30.3920  -16.5910   21.2000 C   0  0  0  0  0  2  0  0  0  0  0  0
  -31.3670  -15.4680   21.6190 C   0  0  0  0  0  2  0  0  0  0  0  0
  -31.3760  -13.0510   21.0230 C   0  0  0  0  0  0  0  0  0  0  0  0
  -30.9250  -10.9150   19.8880 C   0  0  0  0  0  2  0  0  0  0  0  0
  -30.1680  -11.1990   18.5750 C   0  0  0  0  0  2  0  0  0  0  0  0
  -28.6500  -11.2650   18.8200 C   0  0  0  0  0  2  0  0  0  0  0  0
  -28.2750  -12.1900   20.0070 C   0  0  0  0  0  3  0  0  0  0  0  0
  -29.1510  -11.8880   21.2420 C   0  0  0  0  0  2  0  0  0  0  0  0
  -30.5660  -11.9780   20.8360 N   0  0  0  0  0  0  0  0  0  0  0  0
  -32.5680  -13.0770   20.7160 O   0  0  0  0  0  0  0  0  0  0  0  0
  -30.7500  -14.1570   21.4280 N   0  0  0  0  0  0  0  0  0  0  0  0
  -29.7560  -14.0830   21.5620 H   0  0  0  0  0  0  0  0  0  0  0  0
  -25.8960  -13.1150   20.3390 C   0  0  0  0  0  0  0  0  0  0  0  0
  -24.7030  -12.4990   20.6060 C   0  0  0  0  0  0  0  0  0  0  0  0
  -24.9980  -11.1050   20.7280 C   0  0  0  0  0  0  0  0  0  0  0  0
  -26.8490  -12.1080   20.3180 N   0  0  0  0  0  0  0  0  0  0  0  0
  -26.3030  -10.8990   20.6090 N   0  0  0  0  0  0  0  0  0  0  0  0
  -24.1070   -9.9500   20.8980 C   0  0  0  0  0  0  0  0  0  0  0  0
  -24.3210   -9.0040   21.9250 C   0  0  0  0  0  3  0  0  0  0  0  0
  -23.4450   -7.9090   22.0810 C   0  0  0  0  0  3  0  0  0  0  0  0
  -22.3420   -7.7530   21.2080 C   0  0  0  0  0  0  0  0  0  0  0  0
  -22.1480   -8.6840   20.1730 C   0  0  0  0  0  3  0  0  0  0  0  0
  -23.0220   -9.7730   20.0170 C   0  0  0  0  0  3  0  0  0  0  0  0
  -21.4530   -6.7070   21.2690 O   0  0  0  0  0  0  0  0  0  0  0  0
  -21.1370   -6.0970   22.4570 C   0  0  0  0  0  0  0  0  0  0  0  0
  -20.6050   -6.8180   23.5480 C   0  0  0  0  0  3  0  0  0  0  0  0
  -20.2300   -6.1390   24.7250 C   0  0  0  0  0  3  0  0  0  0  0  0
  -20.3750   -4.7410   24.8100 C   0  0  0  0  0  0  0  0  0  0  0  0
  -20.8980   -4.0200   23.7200 C   0  0  0  0  0  3  0  0  0  0  0  0
  -21.2730   -4.6970   22.5460 C   0  0  0  0  0  0  0  0  0  0  0  0
  -21.7560   -3.9950   21.4930 F   0  0  0  0  0  0  0  0  0  0  0  0
  -20.0090   -4.0860   25.9340 F   0  0  0  0  0  0  0  0  0  0  0  0
  -23.3470  -13.1440   20.6490 C   0  0  0  0  0  0  0  0  0  0  0  0
  -22.4540  -12.6310   21.4870 N   0  0  0  0  0  0  0  0  0  0  0  0
  -23.0870  -14.1370   19.9710 O   0  0  0  0  0  0  0  0  0  0  0  0
  -22.6810  -11.8280   22.0580 H   0  0  0  0  0  0  0  0  0  0  0  0
  -21.5320  -13.0370   21.5560 H   0  0  0  0  0  0  0  0  0  0  0  0
  -26.2560  -14.4380   20.0940 N   0  0  0  0  0  0  0  0  0  0  0  0
  -25.5830  -15.1940   20.0430 H   0  0  0  0  0  0  0  0  0  0  0  0
  -27.1920  -14.7260   19.8350 H   0  0  0  0  0  0  0  0  0  0  0  0
  -28.9670  -23.6100   25.7830 C   0  0  0  0  0  2  0  0  0  0  0  0
  -29.3550  -25.0040   25.2680 C   0  0  0  0  0  2  0  0  0  0  0  0
  -28.1600  -25.7660   25.1990 O   0  0  0  0  0  0  0  0  0  0  0  0
  -28.0690  -26.6390   24.0830 C   0  0  0  0  0  2  0  0  0  0  0  0
  -27.2370  -26.0210   22.9440 C   0  0  0  0  0  2  0  0  0  0  0  0
  -28.0650  -25.6310   21.8440 O   0  0  0  0  0  0  0  0  0  0  0  0
  -27.3580  -25.7180   20.6090 C   0  0  0  0  0  2  0  0  0  0  0  0
  -28.2790  -25.7320   19.3560 C   0  0  0  0  0  2  0  0  0  0  0  0
  -27.6700  -26.2880   18.1730 O   0  0  0  0  0  0  0  0  0  0  0  0
  -24.8390  -30.8730   22.7850 C   0  0  0  0  0  0  0  0  0  0  0  0
  -26.6450  -27.1620   18.4330 C   0  0  0  0  0  0  0  0  0  0  0  0
  -23.3110  -29.9900   21.0520 C   0  0  0  0  0  3  0  0  0  0  0  0
  -24.4230  -28.7510   19.1170 C   0  0  0  0  0  0  0  0  0  0  0  0
  -25.8130  -30.2230   20.5880 C   0  0  0  0  0  2  0  0  0  0  0  0
  -25.6870  -29.0460   19.6460 C   0  0  0  0  0  0  0  0  0  0  0  0
  -26.8050  -28.2530   19.3110 C   0  0  0  0  0  3  0  0  0  0  0  0
  -25.3750  -26.8820   17.8880 C   0  0  0  0  0  3  0  0  0  0  0  0
  -24.2580  -27.6640   18.2390 C   0  0  0  0  0  3  0  0  0  0  0  0
  -23.2770  -29.6430   19.5400 C   0  0  0  0  0  2  0  0  0  0  0  0
  -24.6810  -30.3600   21.5330 N   0  0  0  0  0  0  0  0  0  0  0  0
  -23.8650  -31.0760   23.5220 O   0  0  0  0  0  0  0  0  0  0  0  0
  -22.6840  -28.8150   21.8390 C   0  0  0  0  0  0  0  0  0  0  0  0
  -21.3520  -28.6800   21.7510 N   0  0  0  0  0  0  0  0  0  0  0  0
  -23.3910  -28.0350   22.4820 O   0  0  0  0  0  0  0  0  0  0  0  0
  -20.8440  -29.3560   21.1980 H   0  0  0  0  0  0  0  0  0  0  0  0
  -18.0020  -27.3660   22.0450 C   0  0  0  0  0  0  0  0  0  0  0  0
  -20.5520  -27.6280   22.3750 C   0  0  0  0  0  3  0  0  0  0  0  0
  -20.6890  -26.2960   21.6010 C   0  0  0  0  0  2  0  0  0  0  0  0
  -19.5990  -26.1010   20.5420 C   0  0  0  0  0  2  0  0  0  0  0  0
  -18.2090  -26.1290   21.1870 C   0  0  0  0  0  2  0  0  0  0  0  0
  -19.1010  -28.0780   22.5890 C   0  0  0  0  0  0  0  0  0  0  0  0
  -18.8550  -29.2430   23.3490 C   0  0  0  0  0  3  0  0  0  0  0  0
  -17.5390  -29.6930   23.5710 C   0  0  0  0  0  3  0  0  0  0  0  0
  -16.4550  -28.9720   23.0450 C   0  0  0  0  0  3  0  0  0  0  0  0
  -16.6840  -27.8110   22.2860 C   0  0  0  0  0  3  0  0  0  0  0  0
  -26.2470  -31.2500   23.3430 C   0  0  0  0  0  3  0  0  0  0  0  0
  -26.1540  -32.6090   23.8900 N   0  0  0  0  0  0  0  0  0  0  0  0
  -26.6170  -33.7090   23.2830 C   0  0  0  0  0  0  0  0  0  0  0  0
  -27.2380  -33.6730   22.2170 O   0  0  0  0  0  0  0  0  0  0  0  0
  -25.6090  -32.7190   24.7320 H   0  0  0  0  0  0  0  0  0  0  0  0
  -25.1850  -35.7770   23.2610 C   0  0  0  0  0  1  0  0  0  0  0  0
  -26.3510  -35.0650   23.9670 C   0  0  0  0  0  3  0  0  0  0  0  0
  -28.6010  -35.4670   24.8630 C   0  0  0  0  0  1  0  0  0  0  0  0
  -27.5330  -35.9530   23.9910 N   0  0  0  0  0  0  0  0  0  0  0  0
  -27.2770  -36.8880   24.2960 H   0  0  0  0  0  0  0  0  0  0  0  0
  -26.7710  -30.2400   24.4360 C   0  0  1  0  0  0  0  0  0  0  0  0
  -25.7480  -29.9520   25.5600 C   0  0  0  0  0  1  0  0  0  0  0  0
  -27.1510  -28.8870   23.7890 C   0  0  0  0  0  1  0  0  0  0  0  0
  -28.0530  -30.8000   25.0960 C   0  0  0  0  0  1  0  0  0  0  0  0
  1 51  1  0
  2  1  1  0
  3  2  1  0
  4  3  1  0
  5  4  1  0
  6  7  1  0
  6  5  1  0
  8  7  1  0
  8  9  1  0
 10  9  1  0
 10 11  1  0
 11 12  1  0
 13 21  1  0
 14 19  1  0
 15 16  1  0
 15 14  1  0
 17 16  1  0
 17 26  1  0
 17 18  1  0
 19 13  1  0
 19 18  1  0
 20 13  2  0
 21 22  1  0
 21 12  1  0
 23 24  2  0
 24 43  1  0
 24 25  1  0
 25 28  1  0
 26 23  1  0
 26 27  1  0
 27 25  2  0
 28 29  1  0
 29 30  2  0
 31 34  1  0
 31 30  1  0
 32 31  2  0
 33 32  1  0
 33 28  2  0
 34 35  1  0
 35 40  2  0
 35 36  1  0
 36 37  2  0
 37 38  1  0
 38 42  1  0
 39 38  2  0
 40 39  1  0
 41 40  1  0
 43 44  1  0
 44 47  1  0
 44 46  1  0
 45 43  2  0
 48 23  1  0
 49 48  1  0
 50 48  1  0
 52 51  1  0
 53 52  1  0
 54 53  1  0
 55 54  1  0
 56 55  1  0
 57 56  1  0
 58 57  1  0
 59 61  1  0
 59 58  1  0
 60 71  2  0
 61 66  1  0
 62 70  1  0
 62 72  1  0
 63 69  1  0
 63 65  1  0
 64 70  1  0
 65 64  1  0
 66 65  2  0
 67 68  1  0
 67 61  2  0
 68 63  2  0
 69 62  1  0
 70 60  1  0
 72 74  2  0
 73 72  1  0
 75 73  1  0
 76 85  2  0
 76 81  1  0
 77 73  1  0
 77 81  1  0
 78 77  1  0
 79 80  1  0
 79 78  1  0
 80 76  1  0
 81 82  2  0
 82 83  1  0
 84 83  2  0
 85 84  1  0
 86 60  1  0
 86 87  1  0
 86 96  1  0
 87 90  1  0
 88 87  1  0
 88 92  1  0
 89 88  2  0
 92 91  1  0
 92 94  1  0
 94 95  1  0
 94 93  1  0
 96 99  1  1
 96 97  1  0
 98 96  1  0
M  ISO  4  13 100  21 100  58 101  59 101
M  END
>  <TORSDO>  (64) 
F 35

>  <SCORE>  (64) 
-3.476

>  <name>  (64) 
64

>  <ligand_id>  (64) 
64

>  <original_smiles>  (64) 
[H]c1c([H])c([H])c2c(c1[H])C([H])([H])C([H])([H])C([H])([H])C2([H])N([H])C(=O)C1([H])N(C(=O)C([H])(N([H])C(=O)C([H])(N([H])C([H])([H])[H])C([H])([H])[H])C(C([H])([H])[H])(C([H])([H])[H])C([H])([H])[H])C([H])([H])c2c([H])c(OC([H])([H])C([H])([H])OC([H])([H])C([H])([H])OC([H])([H])C([H])([H])OC([H])([H])C([H])([H])OC([H])([H])C([H])([H])OC([H])([H])C([H])([H])OC([H])([H])C([H])([H])N([H])C(=O)N3C([H])([H])C([H])([H])C([H])([H])C([H])(n4nc(-c5c([H])c([H])c(Oc6c([H])c([H])c(F)c([H])c6F)c([H])c5[H])c(C(=O)N([H])[H])c4N([H])[H])C3([H])[H])c([H])c([H])c2C1([H])[H]

>  <smiles>  (64) 
[H]c1c([H])c([H])c2c(c1[H])C([H])([H])C([H])([H])C([H])([H])C2([H])N([H])C(=O)C1([H])N(C(=O)C([H])(N([H])C(=O)C([H])(N([H])C([H])([H])[H])C([H])([H])[H])C(C([H])([H])[H])(C([H])([H])[H])C([H])([H])[H])C([H])([H])c2c([H])c(OC([H])([H])C([H])([H])OC([H])([H])C([H])([H])OC([H])([H])C([H])([H])OC([H])([H])C([H])([H])OC([H])([H])C([H])([H])OC([H])([H])C([H])([H])OC([H])([H])C([H])([H])N([H])C(=O)N3C([H])([H])C([H])([H])C([H])([H])C([H])(n4nc(-c5c([H])c([H])c(Oc6c([H])c([H])c(F)c([H])c6F)c([H])c5[H])c(C(=O)N([H])[H])c4N([H])[H])C3([H])[H])c([H])c([H])c2C1([H])[H]

$$$$
65:0:0
     RDKit          3D

102109  0  0  1  0  0  0  0  0999 V2000
  -26.5200  -20.8360   19.9510 C   0  0  0  0  0  2  0  0  0  0  0  0
  -26.5010  -21.6660   21.2390 C   0  0  0  0  0  2  0  0  0  0  0  0
  -27.8350  -21.9920   21.5990 O   0  0  0  0  0  0  0  0  0  0  0  0
  -27.9110  -22.7810   22.7770 C   0  0  0  0  0  2  0  0  0  0  0  0
  -29.3470  -23.2900   22.9470 C   0  0  0  0  0  2  0  0  0  0  0  0
  -29.7470  -23.1560   24.3010 O   0  0  0  0  0  0  0  0  0  0  0  0
  -31.0950  -23.5550   24.5110 C   0  0  0  0  0  2  0  0  0  0  0  0
  -31.6540  -22.7760   25.7110 C   0  0  0  0  0  2  0  0  0  0  0  0
  -31.7100  -21.3750   25.4560 O   0  0  0  0  0  0  0  0  0  0  0  0
  -32.8970  -20.9030   24.8250 C   0  0  0  0  0  2  0  0  0  0  0  0
  -32.6750  -20.7410   23.3120 C   0  0  0  0  0  2  0  0  0  0  0  0
  -33.3840  -21.7310   22.5750 O   0  0  0  0  0  0  0  0  0  0  0  0
  -33.1860  -21.6090   21.1700 C   0  0  0  0  0  2  0  0  0  0  0  0
  -34.5050  -21.9040   20.4410 C   0  0  0  0  0  2  0  0  0  0  0  0
  -36.3750  -20.3540   20.1780 C   0  0  0  0  0  0  0  0  0  0  0  0
  -36.7930  -18.1160   19.2280 C   0  0  0  0  0  2  0  0  0  0  0  0
  -36.0820  -17.9450   17.8730 C   0  0  0  0  0  2  0  0  0  0  0  0
  -34.6220  -17.4890   18.0630 C   0  0  0  0  0  2  0  0  0  0  0  0
  -33.8610  -18.3490   19.1070 C   0  0  0  0  0  3  0  0  0  0  0  0
  -34.7010  -18.4750   20.3970 C   0  0  0  0  0  2  0  0  0  0  0  0
  -36.0080  -19.0540   20.0400 N   0  0  0  0  0  0  0  0  0  0  0  0
  -37.4110  -20.8240   19.7050 O   0  0  0  0  0  0  0  0  0  0  0  0
  -35.6060  -21.0970   20.9750 N   0  0  0  0  0  0  0  0  0  0  0  0
  -36.1700  -21.6720   21.5820 H   0  0  0  0  0  0  0  0  0  0  0  0
  -31.3230  -18.4750   19.5390 C   0  0  0  0  0  0  0  0  0  0  0  0
  -30.3760  -17.4990   19.6950 C   0  0  0  0  0  0  0  0  0  0  0  0
  -31.0700  -16.2550   19.5920 C   0  0  0  0  0  0  0  0  0  0  0  0
  -32.5300  -17.8090   19.3720 N   0  0  0  0  0  0  0  0  0  0  0  0
  -32.3720  -16.4630   19.4520 N   0  0  0  0  0  0  0  0  0  0  0  0
  -30.5630  -14.8770   19.5630 C   0  0  0  0  0  0  0  0  0  0  0  0
  -30.9950  -13.9120   20.4980 C   0  0  0  0  0  3  0  0  0  0  0  0
  -30.4800  -12.5980   20.4620 C   0  0  0  0  0  3  0  0  0  0  0  0
  -29.5190  -12.2390   19.4870 C   0  0  0  0  0  0  0  0  0  0  0  0
  -29.1110  -13.1980   18.5420 C   0  0  0  0  0  3  0  0  0  0  0  0
  -29.6300  -14.5030   18.5760 C   0  0  0  0  0  3  0  0  0  0  0  0
  -28.9810  -10.9820   19.3620 O   0  0  0  0  0  0  0  0  0  0  0  0
  -28.7720  -10.1760   20.4540 C   0  0  0  0  0  0  0  0  0  0  0  0
  -27.9070  -10.5510   21.5050 C   0  0  0  0  0  3  0  0  0  0  0  0
  -27.6670   -9.6610   22.5710 C   0  0  0  0  0  3  0  0  0  0  0  0
  -28.2850   -8.3960   22.5850 C   0  0  0  0  0  0  0  0  0  0  0  0
  -29.1450   -8.0190   21.5380 C   0  0  0  0  0  3  0  0  0  0  0  0
  -29.3830   -8.9060   20.4730 C   0  0  0  0  0  0  0  0  0  0  0  0
  -30.1930   -8.5300   19.4550 F   0  0  0  0  0  0  0  0  0  0  0  0
  -28.0500   -7.5360   23.6030 F   0  0  0  0  0  0  0  0  0  0  0  0
  -28.8930  -17.7020   19.8280 C   0  0  0  0  0  0  0  0  0  0  0  0
  -28.2170  -16.8110   20.5450 N   0  0  0  0  0  0  0  0  0  0  0  0
  -28.3340  -18.6790   19.3320 O   0  0  0  0  0  0  0  0  0  0  0  0
  -28.6810  -16.0230   20.9730 H   0  0  0  0  0  0  0  0  0  0  0  0
  -27.2200  -16.9180   20.6690 H   0  0  0  0  0  0  0  0  0  0  0  0
  -31.2600  -19.8650   19.5050 N   0  0  0  0  0  0  0  0  0  0  0  0
  -30.3760  -20.3600   19.5280 H   0  0  0  0  0  0  0  0  0  0  0  0
  -32.0350  -20.4560   19.2340 H   0  0  0  0  0  0  0  0  0  0  0  0
  -27.5820  -21.2940   19.1280 O   0  0  0  0  0  0  0  0  0  0  0  0
  -27.4660  -20.8510   17.7840 C   0  0  0  0  0  2  0  0  0  0  0  0
  -28.8060  -21.0710   17.0720 C   0  0  0  0  0  2  0  0  0  0  0  0
  -29.2850  -22.3710   17.3830 O   0  0  0  0  0  0  0  0  0  0  0  0
  -30.4940  -22.6960   16.7110 C   0  0  0  0  0  2  0  0  0  0  0  0
  -31.2150  -23.7890   17.5080 C   0  0  0  0  0  2  0  0  0  0  0  0
  -30.4070  -24.9600   17.5530 O   0  0  0  0  0  0  0  0  0  0  0  0
  -30.7070  -25.7830   18.6740 C   0  0  0  0  0  2  0  0  0  0  0  0
  -29.7250  -26.9580   18.7450 C   0  0  0  0  0  2  0  0  0  0  0  0
  -28.4030  -26.4280   18.6820 O   0  0  0  0  0  0  0  0  0  0  0  0
  -25.1000  -30.7520   23.3150 C   0  0  0  0  0  0  0  0  0  0  0  0
  -27.3330  -27.2320   19.0040 C   0  0  0  0  0  0  0  0  0  0  0  0
  -23.7320  -29.9300   21.4210 C   0  0  0  0  0  3  0  0  0  0  0  0
  -25.0210  -28.7660   19.5550 C   0  0  0  0  0  0  0  0  0  0  0  0
  -26.2600  -30.2060   21.1840 C   0  0  0  0  0  2  0  0  0  0  0  0
  -26.2310  -29.0600   20.1950 C   0  0  0  0  0  0  0  0  0  0  0  0
  -27.3870  -28.3050   19.9240 C   0  0  0  0  0  3  0  0  0  0  0  0
  -26.1050  -26.9330   18.3790 C   0  0  0  0  0  3  0  0  0  0  0  0
  -24.9490  -27.6970   18.6430 C   0  0  0  0  0  3  0  0  0  0  0  0
  -23.8390  -29.6420   19.8980 C   0  0  0  0  0  2  0  0  0  0  0  0
  -25.0520  -30.2910   22.0330 N   0  0  0  0  0  0  0  0  0  0  0  0
  -24.0640  -30.9240   23.9720 O   0  0  0  0  0  0  0  0  0  0  0  0
  -23.0490  -28.7240   22.1020 C   0  0  0  0  0  0  0  0  0  0  0  0
  -21.7190  -28.6300   21.9540 N   0  0  0  0  0  0  0  0  0  0  0  0
  -23.7140  -27.8860   22.7190 O   0  0  0  0  0  0  0  0  0  0  0  0
  -21.2480  -29.3620   21.4410 H   0  0  0  0  0  0  0  0  0  0  0  0
  -18.3180  -27.4230   22.0820 C   0  0  0  0  0  0  0  0  0  0  0  0
  -20.8690  -27.5600   22.4730 C   0  0  0  0  0  3  0  0  0  0  0  0
  -20.9690  -26.2930   21.5920 C   0  0  0  0  0  2  0  0  0  0  0  0
  -19.8930  -26.2310   20.5020 C   0  0  0  0  0  2  0  0  0  0  0  0
  -18.4950  -26.2560   21.1270 C   0  0  0  0  0  2  0  0  0  0  0  0
  -19.4340  -28.0460   22.7030 C   0  0  0  0  0  0  0  0  0  0  0  0
  -19.2160  -29.1510   23.5550 C   0  0  0  0  0  3  0  0  0  0  0  0
  -17.9140  -29.6300   23.7940 C   0  0  0  0  0  3  0  0  0  0  0  0
  -16.8130  -29.0000   23.1910 C   0  0  0  0  0  3  0  0  0  0  0  0
  -17.0140  -27.8980   22.3410 C   0  0  0  0  0  3  0  0  0  0  0  0
  -26.4530  -31.1070   24.0080 C   0  0  0  0  0  3  0  0  0  0  0  0
  -26.9300  -30.0140   25.0420 C   0  0  1  0  0  0  0  0  0  0  0  0
  -25.8490  -29.6210   26.0740 C   0  0  0  0  0  1  0  0  0  0  0  0
  -27.3720  -28.7270   24.3060 C   0  0  0  0  0  1  0  0  0  0  0  0
  -28.1660  -30.5280   25.8160 C   0  0  0  0  0  1  0  0  0  0  0  0
  -26.2830  -32.4080   24.6680 N   0  0  0  0  0  0  0  0  0  0  0  0
  -26.7580  -33.5680   24.1940 C   0  0  0  0  0  0  0  0  0  0  0  0
  -27.4560  -33.6410   23.1790 O   0  0  0  0  0  0  0  0  0  0  0  0
  -25.6760  -32.4310   25.4750 H   0  0  0  0  0  0  0  0  0  0  0  0
  -25.2850  -35.6050   24.2300 C   0  0  0  0  0  1  0  0  0  0  0  0
  -26.4020  -34.8510   24.9690 C   0  0  0  0  0  3  0  0  0  0  0  0
  -28.5530  -35.2050   26.0980 C   0  0  0  0  0  1  0  0  0  0  0  0
  -27.5560  -35.7500   25.1810 N   0  0  0  0  0  0  0  0  0  0  0  0
  -27.2500  -36.6490   25.5420 H   0  0  0  0  0  0  0  0  0  0  0  0
  1  2  1  0
  2  3  1  0
  3  4  1  0
  4  5  1  0
  5  6  1  0
  6  7  1  0
  7  8  1  0
  9  8  1  0
 10  9  1  0
 11 10  1  0
 12 11  1  0
 13 12  1  0
 14 23  1  0
 14 13  1  0
 15 23  1  0
 16 21  1  0
 17 18  1  0
 17 16  1  0
 19 18  1  0
 19 28  1  0
 19 20  1  0
 21 15  1  0
 21 20  1  0
 22 15  2  0
 23 24  1  0
 25 26  2  0
 26 45  1  0
 27 26  1  0
 28 29  1  0
 28 25  1  0
 29 27  2  0
 30 27  1  0
 30 31  1  0
 32 31  2  0
 33 32  1  0
 34 35  1  0
 34 33  2  0
 35 30  2  0
 36 33  1  0
 36 37  1  0
 37 42  2  0
 37 38  1  0
 38 39  2  0
 39 40  1  0
 40 44  1  0
 41 40  2  0
 42 41  1  0
 43 42  1  0
 45 46  1  0
 46 49  1  0
 46 48  1  0
 47 45  2  0
 50 51  1  0
 50 25  1  0
 52 50  1  0
 53  1  1  0
 54 53  1  0
 55 56  1  0
 55 54  1  0
 57 56  1  0
 57 58  1  0
 58 59  1  0
 59 60  1  0
 60 61  1  0
 62 61  1  0
 62 64  1  0
 63 74  2  0
 64 69  1  0
 65 73  1  0
 65 75  1  0
 66 72  1  0
 66 68  1  0
 67 73  1  0
 68 67  1  0
 69 68  2  0
 70 71  1  0
 70 64  2  0
 71 66  2  0
 72 65  1  0
 73 63  1  0
 75 77  2  0
 76 75  1  0
 78 76  1  0
 79 88  2  0
 79 84  1  0
 80 76  1  0
 80 84  1  0
 81 80  1  0
 82 83  1  0
 82 81  1  0
 83 79  1  0
 84 85  2  0
 85 86  1  0
 87 86  2  0
 88 87  1  0
 89 63  1  0
 89 94  1  0
 89 90  1  0
 90 93  1  1
 90 91  1  0
 92 90  1  0
 94 97  1  0
 95 94  1  0
 95 99  1  0
 96 95  2  0
 99 98  1  0
 99101  1  0
101102  1  0
101100  1  0
M  ISO  4  15 100  23 100  61 101  62 101
M  END
>  <TORSDO>  (65) 
F 38

>  <SCORE>  (65) 
2.613

>  <name>  (65) 
65

>  <ligand_id>  (65) 
65

>  <original_smiles>  (65) 
[H]c1c([H])c([H])c2c(c1[H])C([H])([H])C([H])([H])C([H])([H])C2([H])N([H])C(=O)C1([H])N(C(=O)C([H])(N([H])C(=O)C([H])(N([H])C([H])([H])[H])C([H])([H])[H])C(C([H])([H])[H])(C([H])([H])[H])C([H])([H])[H])C([H])([H])c2c([H])c(OC([H])([H])C([H])([H])OC([H])([H])C([H])([H])OC([H])([H])C([H])([H])OC([H])([H])C([H])([H])OC([H])([H])C([H])([H])OC([H])([H])C([H])([H])OC([H])([H])C([H])([H])OC([H])([H])C([H])([H])N([H])C(=O)N3C([H])([H])C([H])([H])C([H])([H])C([H])(n4nc(-c5c([H])c([H])c(Oc6c([H])c([H])c(F)c([H])c6F)c([H])c5[H])c(C(=O)N([H])[H])c4N([H])[H])C3([H])[H])c([H])c([H])c2C1([H])[H]

>  <smiles>  (65) 
[H]c1c([H])c([H])c2c(c1[H])C([H])([H])C([H])([H])C([H])([H])C2([H])N([H])C(=O)C1([H])N(C(=O)C([H])(N([H])C(=O)C([H])(N([H])C([H])([H])[H])C([H])([H])[H])C(C([H])([H])[H])(C([H])([H])[H])C([H])([H])[H])C([H])([H])c2c([H])c(OC([H])([H])C([H])([H])OC([H])([H])C([H])([H])OC([H])([H])C([H])([H])OC([H])([H])C([H])([H])OC([H])([H])C([H])([H])OC([H])([H])C([H])([H])OC([H])([H])C([H])([H])OC([H])([H])C([H])([H])N([H])C(=O)N3C([H])([H])C([H])([H])C([H])([H])C([H])(n4nc(-c5c([H])c([H])c(Oc6c([H])c([H])c(F)c([H])c6F)c([H])c5[H])c(C(=O)N([H])[H])c4N([H])[H])C3([H])[H])c([H])c([H])c2C1([H])[H]

$$$$
66:0:0
     RDKit          3D

101108  0  0  1  0  0  0  0  0999 V2000
  -31.6710  -19.6090   17.5290 C   0  0  0  0  0  2  0  0  0  0  0  0
  -31.5010  -21.3720   19.2760 C   0  0  0  0  0  0  0  0  0  0  0  0
  -31.6190  -20.9960   17.9950 N   0  0  0  0  0  0  0  0  0  0  0  0
  -31.3710  -20.5620   20.1960 O   0  0  0  0  0  0  0  0  0  0  0  0
  -31.6870  -21.7200   17.2940 H   0  0  0  0  0  0  0  0  0  0  0  0
  -31.5350  -22.8710   19.5870 C   0  0  0  0  0  2  0  0  0  0  0  0
  -30.2680  -23.2880   20.0820 O   0  0  0  0  0  0  0  0  0  0  0  0
  -30.2790  -24.6780   20.3980 C   0  0  0  0  0  2  0  0  0  0  0  0
  -28.8630  -25.1780   20.6960 C   0  0  0  0  0  0  0  0  0  0  0  0
  -27.9540  -24.4090   21.0280 O   0  0  0  0  0  0  0  0  0  0  0  0
  -28.7690  -26.5190   20.5230 O   0  0  0  0  0  0  0  0  0  0  0  0
  -24.7370  -31.6690   23.3070 C   0  0  0  0  0  0  0  0  0  0  0  0
  -27.5670  -27.1900   20.4760 C   0  0  0  0  0  0  0  0  0  0  0  0
  -23.6320  -30.2370   21.6180 C   0  0  0  0  0  3  0  0  0  0  0  0
  -25.1700  -28.6770   20.3160 C   0  0  0  0  0  0  0  0  0  0  0  0
  -26.1630  -30.5970   21.5720 C   0  0  0  0  0  2  0  0  0  0  0  0
  -26.2860  -29.2150   20.9720 C   0  0  0  0  0  0  0  0  0  0  0  0
  -27.4830  -28.4740   21.0600 C   0  0  0  0  0  3  0  0  0  0  0  0
  -26.4360  -26.6640   19.8090 C   0  0  0  0  0  3  0  0  0  0  0  0
  -25.2390  -27.3990   19.7350 C   0  0  0  0  0  3  0  0  0  0  0  0
  -23.9250  -29.5310   20.2660 C   0  0  0  0  0  2  0  0  0  0  0  0
  -24.8590  -30.8500   22.2250 N   0  0  0  0  0  0  0  0  0  0  0  0
  -23.6250  -31.9500   23.7740 O   0  0  0  0  0  0  0  0  0  0  0  0
  -22.9260  -29.2300   22.5520 C   0  0  0  0  0  0  0  0  0  0  0  0
  -21.6030  -29.0840   22.3820 N   0  0  0  0  0  0  0  0  0  0  0  0
  -23.5670  -28.5850   23.3860 O   0  0  0  0  0  0  0  0  0  0  0  0
  -21.1480  -29.6570   21.6840 H   0  0  0  0  0  0  0  0  0  0  0  0
  -18.1700  -28.0680   22.8480 C   0  0  0  0  0  0  0  0  0  0  0  0
  -20.7380  -28.1670   23.1210 C   0  0  0  0  0  3  0  0  0  0  0  0
  -20.7570  -26.7530   22.4950 C   0  0  0  0  0  2  0  0  0  0  0  0
  -19.6380  -26.5300   21.4730 C   0  0  0  0  0  2  0  0  0  0  0  0
  -18.2680  -26.7340   22.1260 C   0  0  0  0  0  2  0  0  0  0  0  0
  -19.3310  -28.7470   23.3020 C   0  0  0  0  0  0  0  0  0  0  0  0
  -19.1880  -30.0030   23.9330 C   0  0  0  0  0  3  0  0  0  0  0  0
  -17.9140  -30.5750   24.1180 C   0  0  0  0  0  3  0  0  0  0  0  0
  -16.7670  -29.8890   23.6830 C   0  0  0  0  0  3  0  0  0  0  0  0
  -16.8960  -28.6380   23.0530 C   0  0  0  0  0  3  0  0  0  0  0  0
  -25.9840  -32.3110   23.9930 C   0  0  0  0  0  3  0  0  0  0  0  0
  -25.6510  -33.7090   24.2970 N   0  0  0  0  0  0  0  0  0  0  0  0
  -26.0020  -34.7550   23.5390 C   0  0  0  0  0  0  0  0  0  0  0  0
  -26.7120  -34.6480   22.5350 O   0  0  0  0  0  0  0  0  0  0  0  0
  -25.0270  -33.8660   25.0750 H   0  0  0  0  0  0  0  0  0  0  0  0
  -24.2680  -36.5220   23.0970 C   0  0  0  0  0  1  0  0  0  0  0  0
  -25.4820  -36.1420   23.9600 C   0  0  0  0  0  3  0  0  0  0  0  0
  -27.5680  -37.0670   24.8680 C   0  0  0  0  0  1  0  0  0  0  0  0
  -26.5060  -37.2060   23.8750 N   0  0  0  0  0  0  0  0  0  0  0  0
  -26.0840  -38.1240   23.9880 H   0  0  0  0  0  0  0  0  0  0  0  0
  -26.4380  -31.5470   25.2970 C   0  0  1  0  0  0  0  0  0  0  0  0
  -25.2910  -31.3000   26.3020 C   0  0  0  0  0  1  0  0  0  0  0  0
  -27.0580  -30.1760   24.9390 C   0  0  0  0  0  1  0  0  0  0  0  0
  -27.5420  -32.3540   26.0200 C   0  0  0  0  0  1  0  0  0  0  0  0
  -30.2930  -18.9330   17.5760 C   0  0  0  0  0  2  0  0  0  0  0  0
  -29.3220  -19.8300   17.0500 O   0  0  0  0  0  0  0  0  0  0  0  0
  -28.0420  -19.6020   17.6170 C   0  0  0  0  0  2  0  0  0  0  0  0
  -27.0710  -20.7270   17.2350 C   0  0  0  0  0  2  0  0  0  0  0  0
  -25.9290  -20.7540   18.0900 O   0  0  0  0  0  0  0  0  0  0  0  0
  -25.1650  -19.5480   18.1160 C   0  0  0  0  0  2  0  0  0  0  0  0
  -25.4620  -18.7720   19.4080 C   0  0  0  0  0  2  0  0  0  0  0  0
  -26.7910  -18.2780   19.3430 O   0  0  0  0  0  0  0  0  0  0  0  0
  -27.3970  -18.0560   20.6080 C   0  0  0  0  0  2  0  0  0  0  0  0
  -28.8690  -18.4840   20.5060 C   0  0  0  0  0  2  0  0  0  0  0  0
  -29.7130  -17.3490   20.3400 O   0  0  0  0  0  0  0  0  0  0  0  0
  -30.5650  -17.1190   21.4540 C   0  0  0  0  0  2  0  0  0  0  0  0
  -31.5850  -16.0330   21.1060 C   0  0  0  0  0  2  0  0  0  0  0  0
  -30.9490  -14.7650   21.1090 O   0  0  0  0  0  0  0  0  0  0  0  0
  -31.5020  -13.7400   20.4460 C   0  0  0  0  0  0  0  0  0  0  0  0
  -31.1260  -11.3360   19.9160 C   0  0  0  0  0  2  0  0  0  0  0  0
  -30.2640  -11.1810   18.6520 C   0  0  0  0  0  2  0  0  0  0  0  0
  -28.7690  -11.1860   19.0180 C   0  0  0  0  0  2  0  0  0  0  0  0
  -28.3880  -12.3940   19.9120 C   0  0  0  0  0  3  0  0  0  0  0  0
  -29.3540  -12.5440   21.1050 C   0  0  0  0  0  2  0  0  0  0  0  0
  -30.7270  -12.5800   20.5770 N   0  0  0  0  0  0  0  0  0  0  0  0
  -32.5680  -13.8210   19.8320 O   0  0  0  0  0  0  0  0  0  0  0  0
  -26.0940  -13.3190   20.6110 C   0  0  0  0  0  0  0  0  0  0  0  0
  -24.9130  -12.6990   20.9230 C   0  0  0  0  0  0  0  0  0  0  0  0
  -25.1670  -11.2980   20.8300 C   0  0  0  0  0  0  0  0  0  0  0  0
  -27.0010  -12.3040   20.3580 N   0  0  0  0  0  0  0  0  0  0  0  0
  -26.4450  -11.0790   20.5430 N   0  0  0  0  0  0  0  0  0  0  0  0
  -24.2550  -10.1540   20.9480 C   0  0  0  0  0  0  0  0  0  0  0  0
  -24.4450   -9.1610   21.9340 C   0  0  0  0  0  3  0  0  0  0  0  0
  -23.5500   -8.0770   22.0390 C   0  0  0  0  0  3  0  0  0  0  0  0
  -22.4460   -7.9830   21.1590 C   0  0  0  0  0  0  0  0  0  0  0  0
  -22.2690   -8.9650   20.1680 C   0  0  0  0  0  3  0  0  0  0  0  0
  -23.1660  -10.0420   20.0620 C   0  0  0  0  0  3  0  0  0  0  0  0
  -21.5380   -6.9520   21.1730 O   0  0  0  0  0  0  0  0  0  0  0  0
  -21.2110   -6.2960   22.3310 C   0  0  0  0  0  0  0  0  0  0  0  0
  -20.6160   -6.9600   23.4260 C   0  0  0  0  0  3  0  0  0  0  0  0
  -20.2320   -6.2310   24.5700 C   0  0  0  0  0  3  0  0  0  0  0  0
  -20.4340   -4.8390   24.6160 C   0  0  0  0  0  0  0  0  0  0  0  0
  -21.0230   -4.1750   23.5270 C   0  0  0  0  0  3  0  0  0  0  0  0
  -21.4060   -4.9000   22.3850 C   0  0  0  0  0  0  0  0  0  0  0  0
  -21.9510   -4.2510   21.3270 F   0  0  0  0  0  0  0  0  0  0  0  0
  -20.0630   -4.1370   25.7120 F   0  0  0  0  0  0  0  0  0  0  0  0
  -23.6000  -13.3720   21.2020 C   0  0  0  0  0  0  0  0  0  0  0  0
  -22.7700  -12.7680   22.0460 N   0  0  0  0  0  0  0  0  0  0  0  0
  -23.3220  -14.4650   20.7110 O   0  0  0  0  0  0  0  0  0  0  0  0
  -23.0090  -11.8810   22.4630 H   0  0  0  0  0  0  0  0  0  0  0  0
  -21.8870  -13.2010   22.2720 H   0  0  0  0  0  0  0  0  0  0  0  0
  -26.4530  -14.6540   20.5130 N   0  0  0  0  0  0  0  0  0  0  0  0
  -25.7620  -15.3800   20.6510 H   0  0  0  0  0  0  0  0  0  0  0  0
  -27.3960  -15.0130   20.4080 H   0  0  0  0  0  0  0  0  0  0  0  0
  1 52  1  0
  1  3  1  0
  2  6  1  0
  2  4  2  0
  3  2  1  0
  5  3  1  0
  6  7  1  0
  7  8  1  0
  8  9  1  0
  9 10  2  0
 11  9  1  0
 12 23  2  0
 13 11  1  0
 13 18  1  0
 14 22  1  0
 14 24  1  0
 15 17  1  0
 16 22  1  0
 17 18  2  0
 17 16  1  0
 19 13  2  0
 20 19  1  0
 20 15  2  0
 21 15  1  0
 21 14  1  0
 22 12  1  0
 24 26  2  0
 25 24  1  0
 27 25  1  0
 28 37  2  0
 28 33  1  0
 29 25  1  0
 29 33  1  0
 30 29  1  0
 31 32  1  0
 31 30  1  0
 32 28  1  0
 33 34  2  0
 34 35  1  0
 36 35  2  0
 37 36  1  0
 38 12  1  0
 38 39  1  0
 38 48  1  0
 39 42  1  0
 40 44  1  0
 40 39  1  0
 41 40  2  0
 44 43  1  0
 46 44  1  0
 46 47  1  0
 46 45  1  0
 48 51  1  1
 48 49  1  0
 50 48  1  0
 53 52  1  0
 53 54  1  0
 55 54  1  0
 55 56  1  0
 56 57  1  0
 57 58  1  0
 59 58  1  0
 59 60  1  0
 61 60  1  0
 62 61  1  0
 62 63  1  0
 64 65  1  0
 64 63  1  0
 66 72  1  0
 66 65  1  0
 67 72  1  0
 68 69  1  0
 68 67  1  0
 70 69  1  0
 70 77  1  0
 70 71  1  0
 72 71  1  0
 73 66  2  0
 74 75  2  0
 75 94  1  0
 76 75  1  0
 76 79  1  0
 77 78  1  0
 77 74  1  0
 78 76  2  0
 79 80  1  0
 80 81  2  0
 82 85  1  0
 82 81  1  0
 83 82  2  0
 84 83  1  0
 84 79  2  0
 85 86  1  0
 86 91  2  0
 86 87  1  0
 87 88  2  0
 88 89  1  0
 89 93  1  0
 90 89  2  0
 91 90  1  0
 92 91  1  0
 94 95  1  0
 95 98  1  0
 95 97  1  0
 96 94  2  0
 99 74  1  0
 99100  1  0
101 99  1  0
M  ISO  4   9 101  11 101  65 100  66 100
M  END
>  <TORSDO>  (66) 
F 35

>  <SCORE>  (66) 
-7.957

>  <name>  (66) 
66

>  <ligand_id>  (66) 
66

>  <original_smiles>  (66) 
[H]c1c([H])c([H])c2c(c1[H])C([H])([H])C([H])([H])C([H])([H])C2([H])N([H])C(=O)C1([H])N(C(=O)C([H])(N([H])C(=O)C([H])(N([H])C([H])([H])[H])C([H])([H])[H])C(C([H])([H])[H])(C([H])([H])[H])C([H])([H])[H])C([H])([H])c2c([H])c(OC(=O)C([H])([H])OC([H])([H])C(=O)N([H])C([H])([H])C([H])([H])OC([H])([H])C([H])([H])OC([H])([H])C([H])([H])OC([H])([H])C([H])([H])OC([H])([H])C([H])([H])OC(=O)N3C([H])([H])C([H])([H])C([H])([H])C([H])(n4nc(-c5c([H])c([H])c(Oc6c([H])c([H])c(F)c([H])c6F)c([H])c5[H])c(C(=O)N([H])[H])c4N([H])[H])C3([H])[H])c([H])c([H])c2C1([H])[H]

>  <smiles>  (66) 
[H]c1c([H])c([H])c2c(c1[H])C([H])([H])C([H])([H])C([H])([H])C2([H])N([H])C(=O)C1([H])N(C(=O)C([H])(N([H])C(=O)C([H])(N([H])C([H])([H])[H])C([H])([H])[H])C(C([H])([H])[H])(C([H])([H])[H])C([H])([H])[H])C([H])([H])c2c([H])c(OC(=O)C([H])([H])OC([H])([H])C(=O)N([H])C([H])([H])C([H])([H])OC([H])([H])C([H])([H])OC([H])([H])C([H])([H])OC([H])([H])C([H])([H])OC([H])([H])C([H])([H])OC(=O)N3C([H])([H])C([H])([H])C([H])([H])C([H])(n4nc(-c5c([H])c([H])c(Oc6c([H])c([H])c(F)c([H])c6F)c([H])c5[H])c(C(=O)N([H])[H])c4N([H])[H])C3([H])[H])c([H])c([H])c2C1([H])[H]

$$$$
67:0:0
     RDKit          3D

 98105  0  0  1  0  0  0  0  0999 V2000
  -32.8590  -23.3970   20.5260 C   0  0  0  0  0  2  0  0  0  0  0  0
  -32.6610  -23.6480   19.1390 O   0  0  0  0  0  0  0  0  0  0  0  0
  -33.6070  -23.0140   18.2740 C   0  0  0  0  0  2  0  0  0  0  0  0
  -33.4370  -21.4830   18.3050 C   0  0  0  0  0  2  0  0  0  0  0  0
  -32.0480  -21.1720   18.2540 O   0  0  0  0  0  0  0  0  0  0  0  0
  -31.7350  -19.9060   18.8050 C   0  0  0  0  0  2  0  0  0  0  0  0
  -31.4670  -19.9870   20.3190 C   0  0  0  0  0  2  0  0  0  0  0  0
  -30.7850  -17.7500   21.0820 C   0  0  0  0  0  0  0  0  0  0  0  0
  -31.7220  -18.6960   20.9480 N   0  0  0  0  0  0  0  0  0  0  0  0
  -29.6240  -17.9160   20.6990 O   0  0  0  0  0  0  0  0  0  0  0  0
  -32.6680  -18.5080   21.2570 H   0  0  0  0  0  0  0  0  0  0  0  0
  -31.1830  -16.4350   21.7510 C   0  0  0  0  0  2  0  0  0  0  0  0
  -30.4450  -14.6290   20.2390 C   0  0  0  0  0  0  0  0  0  0  0  0
  -30.1550  -12.3840   19.2760 C   0  0  0  0  0  2  0  0  0  0  0  0
  -29.1770  -12.3410   18.0900 C   0  0  0  0  0  2  0  0  0  0  0  0
  -27.7430  -12.1140   18.5950 C   0  0  0  0  0  2  0  0  0  0  0  0
  -27.3530  -13.1220   19.7060 C   0  0  0  0  0  3  0  0  0  0  0  0
  -28.4390  -13.1970   20.8090 C   0  0  0  0  0  2  0  0  0  0  0  0
  -29.7520  -13.4640   20.1910 N   0  0  0  0  0  0  0  0  0  0  0  0
  -31.3060  -14.9390   19.4130 O   0  0  0  0  0  0  0  0  0  0  0  0
  -30.2990  -15.3360   21.3630 N   0  0  0  0  0  0  0  0  0  0  0  0
  -29.5660  -15.0780   21.9990 H   0  0  0  0  0  0  0  0  0  0  0  0
  -24.9960  -13.6740   20.5770 C   0  0  0  0  0  0  0  0  0  0  0  0
  -23.9590  -12.8740   20.9870 C   0  0  0  0  0  0  0  0  0  0  0  0
  -24.4340  -11.5310   20.8880 C   0  0  0  0  0  0  0  0  0  0  0  0
  -26.0350  -12.8120   20.2590 N   0  0  0  0  0  0  0  0  0  0  0  0
  -25.7040  -11.5170   20.5020 N   0  0  0  0  0  0  0  0  0  0  0  0
  -23.7380  -10.2530   21.0860 C   0  0  0  0  0  0  0  0  0  0  0  0
  -24.1780   -9.3260   22.0540 C   0  0  0  0  0  3  0  0  0  0  0  0
  -23.4900   -8.1060   22.2460 C   0  0  0  0  0  3  0  0  0  0  0  0
  -22.3450   -7.8140   21.4690 C   0  0  0  0  0  0  0  0  0  0  0  0
  -21.9220   -8.7330   20.4930 C   0  0  0  0  0  3  0  0  0  0  0  0
  -22.6100   -9.9420   20.3010 C   0  0  0  0  0  3  0  0  0  0  0  0
  -21.6230   -6.6490   21.5680 O   0  0  0  0  0  0  0  0  0  0  0  0
  -21.5250   -5.9590   22.7510 C   0  0  0  0  0  0  0  0  0  0  0  0
  -20.9470   -6.5350   23.9050 C   0  0  0  0  0  3  0  0  0  0  0  0
  -20.8030   -5.7680   25.0770 C   0  0  0  0  0  3  0  0  0  0  0  0
  -21.2220   -4.4240   25.0940 C   0  0  0  0  0  0  0  0  0  0  0  0
  -21.7860   -3.8460   23.9460 C   0  0  0  0  0  3  0  0  0  0  0  0
  -21.9330   -4.6100   22.7750 C   0  0  0  0  0  0  0  0  0  0  0  0
  -22.4630   -4.0410   21.6650 F   0  0  0  0  0  0  0  0  0  0  0  0
  -21.0760   -3.6850   26.2180 F   0  0  0  0  0  0  0  0  0  0  0  0
  -22.5740  -13.3230   21.3600 C   0  0  0  0  0  0  0  0  0  0  0  0
  -21.9310  -12.6150   22.2830 N   0  0  0  0  0  0  0  0  0  0  0  0
  -22.0730  -14.3330   20.8700 O   0  0  0  0  0  0  0  0  0  0  0  0
  -22.3510  -11.8020   22.7050 H   0  0  0  0  0  0  0  0  0  0  0  0
  -21.0030  -12.8870   22.5680 H   0  0  0  0  0  0  0  0  0  0  0  0
  -25.1350  -15.0510   20.4310 N   0  0  0  0  0  0  0  0  0  0  0  0
  -24.3960  -15.7120   20.6550 H   0  0  0  0  0  0  0  0  0  0  0  0
  -25.9890  -15.5040   20.1240 H   0  0  0  0  0  0  0  0  0  0  0  0
  -31.5700  -23.6860   21.3180 C   0  0  0  0  0  2  0  0  0  0  0  0
  -30.5630  -22.6830   21.1570 O   0  0  0  0  0  0  0  0  0  0  0  0
  -29.5950  -22.9120   20.1320 C   0  0  0  0  0  2  0  0  0  0  0  0
  -28.6420  -24.0860   20.4540 C   0  0  0  0  0  2  0  0  0  0  0  0
  -27.4780  -24.0990   19.6300 O   0  0  0  0  0  0  0  0  0  0  0  0
  -27.6710  -24.4580   18.2580 C   0  0  0  0  0  2  0  0  0  0  0  0
  -28.1910  -25.9010   18.0240 C   0  0  0  0  0  2  0  0  0  0  0  0
  -28.0330  -26.8130   19.1250 O   0  0  0  0  0  0  0  0  0  0  0  0
  -24.4970  -31.5900   23.0530 C   0  0  0  0  0  0  0  0  0  0  0  0
  -26.8620  -27.5260   19.2790 C   0  0  0  0  0  0  0  0  0  0  0  0
  -23.1820  -30.4480   21.3000 C   0  0  0  0  0  3  0  0  0  0  0  0
  -24.5210  -29.0860   19.6150 C   0  0  0  0  0  0  0  0  0  0  0  0
  -25.7090  -30.7590   21.0420 C   0  0  0  0  0  2  0  0  0  0  0  0
  -25.7170  -29.4860   20.2190 C   0  0  0  0  0  0  0  0  0  0  0  0
  -26.8860  -28.7070   20.0580 C   0  0  0  0  0  3  0  0  0  0  0  0
  -25.6390  -27.1330   18.6900 C   0  0  0  0  0  3  0  0  0  0  0  0
  -24.4740  -27.9050   18.8580 C   0  0  0  0  0  3  0  0  0  0  0  0
  -23.3100  -29.9650   19.8320 C   0  0  0  0  0  2  0  0  0  0  0  0
  -24.4840  -30.9410   21.8550 N   0  0  0  0  0  0  0  0  0  0  0  0
  -23.4500  -31.8150   23.6720 O   0  0  0  0  0  0  0  0  0  0  0  0
  -22.5470  -29.3170   22.1400 C   0  0  0  0  0  0  0  0  0  0  0  0
  -21.2120  -29.1960   22.0660 N   0  0  0  0  0  0  0  0  0  0  0  0
  -23.2500  -28.5640   22.8170 O   0  0  0  0  0  0  0  0  0  0  0  0
  -20.7060  -29.8570   21.4930 H   0  0  0  0  0  0  0  0  0  0  0  0
  -17.8240  -28.0620   22.6060 C   0  0  0  0  0  0  0  0  0  0  0  0
  -20.4020  -28.1880   22.7480 C   0  0  0  0  0  3  0  0  0  0  0  0
  -20.4080  -26.8530   21.9710 C   0  0  0  0  0  2  0  0  0  0  0  0
  -19.2380  -26.7170   20.9930 C   0  0  0  0  0  2  0  0  0  0  0  0
  -17.9020  -26.8170   21.7360 C   0  0  0  0  0  2  0  0  0  0  0  0
  -18.9980  -28.7140   23.0670 C   0  0  0  0  0  0  0  0  0  0  0  0
  -18.8720  -29.8880   23.8410 C   0  0  0  0  0  3  0  0  0  0  0  0
  -17.6030  -30.4110   24.1530 C   0  0  0  0  0  3  0  0  0  0  0  0
  -16.4430  -29.7540   23.7060 C   0  0  0  0  0  3  0  0  0  0  0  0
  -16.5550  -28.5790   22.9400 C   0  0  0  0  0  3  0  0  0  0  0  0
  -25.8270  -32.1060   23.6880 C   0  0  0  0  0  3  0  0  0  0  0  0
  -26.3290  -31.2120   24.8870 C   0  0  1  0  0  0  0  0  0  0  0  0
  -25.2530  -30.9600   25.9680 C   0  0  0  0  0  1  0  0  0  0  0  0
  -26.8150  -29.8340   24.3820 C   0  0  0  0  0  1  0  0  0  0  0  0
  -27.5460  -31.8830   25.5690 C   0  0  0  0  0  1  0  0  0  0  0  0
  -25.6000  -33.4880   24.1290 N   0  0  0  0  0  0  0  0  0  0  0  0
  -25.9580  -34.5760   23.4350 C   0  0  0  0  0  0  0  0  0  0  0  0
  -26.5900  -34.5190   22.3770 O   0  0  0  0  0  0  0  0  0  0  0  0
  -25.0260  -33.6140   24.9510 H   0  0  0  0  0  0  0  0  0  0  0  0
  -24.2910  -36.4530   23.2810 C   0  0  0  0  0  1  0  0  0  0  0  0
  -25.5480  -35.9470   24.0060 C   0  0  0  0  0  3  0  0  0  0  0  0
  -27.7470  -36.6890   24.8050 C   0  0  0  0  0  1  0  0  0  0  0  0
  -26.6180  -36.9650   23.9190 N   0  0  0  0  0  0  0  0  0  0  0  0
  -26.2530  -37.8870   24.1450 H   0  0  0  0  0  0  0  0  0  0  0  0
  1 51  1  0
  2  1  1  0
  3  4  1  0
  3  2  1  0
  5  4  1  0
  5  6  1  0
  6  7  1  0
  7  9  1  0
  8 12  1  0
  9  8  1  0
  9 11  1  0
 10  8  2  0
 13 21  1  0
 14 19  1  0
 15 16  1  0
 15 14  1  0
 17 16  1  0
 17 26  1  0
 17 18  1  0
 19 13  1  0
 19 18  1  0
 20 13  2  0
 21 12  1  0
 21 22  1  0
 23 24  2  0
 24 43  1  0
 25 24  1  0
 25 28  1  0
 26 27  1  0
 26 23  1  0
 27 25  2  0
 28 29  1  0
 29 30  2  0
 31 34  1  0
 31 30  1  0
 32 31  2  0
 33 32  1  0
 33 28  2  0
 34 35  1  0
 35 40  2  0
 35 36  1  0
 36 37  2  0
 37 38  1  0
 38 42  1  0
 39 38  2  0
 40 39  1  0
 41 40  1  0
 43 44  1  0
 44 47  1  0
 44 46  1  0
 45 43  2  0
 48 23  1  0
 48 49  1  0
 50 48  1  0
 52 51  1  0
 53 54  1  0
 53 52  1  0
 55 54  1  0
 56 55  1  0
 57 56  1  0
 57 58  1  0
 58 60  1  0
 59 70  2  0
 60 65  1  0
 61 69  1  0
 61 71  1  0
 62 68  1  0
 62 64  1  0
 63 69  1  0
 64 63  1  0
 65 64  2  0
 66 67  1  0
 66 60  2  0
 67 62  2  0
 68 61  1  0
 69 59  1  0
 71 73  2  0
 72 71  1  0
 74 72  1  0
 75 84  2  0
 75 80  1  0
 76 72  1  0
 76 80  1  0
 77 76  1  0
 78 79  1  0
 78 77  1  0
 79 75  1  0
 80 81  2  0
 81 82  1  0
 83 82  2  0
 84 83  1  0
 85 59  1  0
 85 90  1  0
 85 86  1  0
 86 89  1  1
 86 87  1  0
 88 86  1  0
 90 93  1  0
 91 95  1  0
 91 90  1  0
 92 91  2  0
 95 94  1  0
 97 95  1  0
 97 98  1  0
 97 96  1  0
M  ISO  4  13 100  21 100  57 101  58 101
M  END
>  <TORSDO>  (67) 
F 31

>  <SCORE>  (67) 
-9.368

>  <name>  (67) 
67

>  <ligand_id>  (67) 
67

>  <original_smiles>  (67) 
[H]c1c([H])c([H])c2c(c1[H])C([H])([H])C([H])([H])C([H])([H])C2([H])N([H])C(=O)C1([H])N(C(=O)C([H])(N([H])C(=O)C([H])(N([H])C([H])([H])[H])C([H])([H])[H])C(C([H])([H])[H])(C([H])([H])[H])C([H])([H])[H])C([H])([H])c2c([H])c(OC([H])([H])C([H])([H])OC([H])([H])C([H])([H])OC([H])([H])C([H])([H])OC([H])([H])C([H])([H])OC([H])([H])C([H])([H])N([H])C(=O)C([H])([H])N([H])C(=O)N3C([H])([H])C([H])([H])C([H])([H])C([H])(n4nc(-c5c([H])c([H])c(Oc6c([H])c([H])c(F)c([H])c6F)c([H])c5[H])c(C(=O)N([H])[H])c4N([H])[H])C3([H])[H])c([H])c([H])c2C1([H])[H]

>  <smiles>  (67) 
[H]c1c([H])c([H])c2c(c1[H])C([H])([H])C([H])([H])C([H])([H])C2([H])N([H])C(=O)C1([H])N(C(=O)C([H])(N([H])C(=O)C([H])(N([H])C([H])([H])[H])C([H])([H])[H])C(C([H])([H])[H])(C([H])([H])[H])C([H])([H])[H])C([H])([H])c2c([H])c(OC([H])([H])C([H])([H])OC([H])([H])C([H])([H])OC([H])([H])C([H])([H])OC([H])([H])C([H])([H])OC([H])([H])C([H])([H])N([H])C(=O)C([H])([H])N([H])C(=O)N3C([H])([H])C([H])([H])C([H])([H])C([H])(n4nc(-c5c([H])c([H])c(Oc6c([H])c([H])c(F)c([H])c6F)c([H])c5[H])c(C(=O)N([H])[H])c4N([H])[H])C3([H])[H])c([H])c([H])c2C1([H])[H]

$$$$
68:0:0
     RDKit          3D

 84 91  0  0  1  0  0  0  0  0999 V2000
  -27.8000  -23.7260   20.2500 C   0  0  0  0  0  0  0  0  0  0  0  0
  -28.7890  -22.4430   20.2860 N   0  0  0  0  0  0  0  0  0  0  0  0
  -26.6020  -23.4480   20.2000 O   0  0  0  0  0  0  0  0  0  0  0  0
  -29.7600  -22.7260   20.3220 H   0  0  0  0  0  0  0  0  0  0  0  0
  -28.1230  -25.5390   20.2790 O   0  0  0  0  0  0  0  0  0  0  0  0
  -24.6700  -31.8690   23.2110 C   0  0  0  0  0  0  0  0  0  0  0  0
  -27.1810  -26.7790   20.2310 C   0  0  0  0  0  0  0  0  0  0  0  0
  -23.4770  -30.4720   21.5790 C   0  0  0  0  0  3  0  0  0  0  0  0
  -24.9200  -28.8200   20.1700 C   0  0  0  0  0  0  0  0  0  0  0  0
  -26.0560  -30.6040   21.4600 C   0  0  0  0  0  2  0  0  0  0  0  0
  -26.1150  -29.1700   20.8090 C   0  0  0  0  0  0  0  0  0  0  0  0
  -27.2280  -28.1750   20.8150 C   0  0  0  0  0  3  0  0  0  0  0  0
  -25.9520  -26.6460   19.5330 C   0  0  0  0  0  3  0  0  0  0  0  0
  -24.8760  -27.5820   19.5090 C   0  0  0  0  0  3  0  0  0  0  0  0
  -23.7160  -29.7740   20.2100 C   0  0  0  0  0  2  0  0  0  0  0  0
  -24.7580  -31.0160   22.1350 N   0  0  0  0  0  0  0  0  0  0  0  0
  -23.5780  -32.1750   23.7200 O   0  0  0  0  0  0  0  0  0  0  0  0
  -22.7580  -29.4990   22.5510 C   0  0  0  0  0  0  0  0  0  0  0  0
  -21.4250  -29.3510   22.4280 N   0  0  0  0  0  0  0  0  0  0  0  0
  -23.4110  -28.8730   23.3890 O   0  0  0  0  0  0  0  0  0  0  0  0
  -20.9460  -29.9050   21.7320 H   0  0  0  0  0  0  0  0  0  0  0  0
  -18.0310  -28.1590   22.9510 C   0  0  0  0  0  0  0  0  0  0  0  0
  -20.5940  -28.4210   23.2040 C   0  0  0  0  0  3  0  0  0  0  0  0
  -20.6870  -26.9850   22.6350 C   0  0  0  0  0  2  0  0  0  0  0  0
  -19.5820  -26.6640   21.6240 C   0  0  0  0  0  2  0  0  0  0  0  0
  -18.2020  -26.8110   22.2710 C   0  0  0  0  0  2  0  0  0  0  0  0
  -19.1530  -28.9220   23.3750 C   0  0  0  0  0  0  0  0  0  0  0  0
  -18.9340  -30.1800   23.9750 C   0  0  0  0  0  3  0  0  0  0  0  0
  -17.6290  -30.6770   24.1530 C   0  0  0  0  0  3  0  0  0  0  0  0
  -16.5230  -29.9140   23.7420 C   0  0  0  0  0  3  0  0  0  0  0  0
  -16.7250  -28.6560   23.1480 C   0  0  0  0  0  3  0  0  0  0  0  0
  -25.9350  -32.5180   23.8500 C   0  0  0  0  0  3  0  0  0  0  0  0
  -26.4390  -31.7500   25.1360 C   0  0  1  0  0  0  0  0  0  0  0  0
  -25.3390  -31.5250   26.2000 C   0  0  0  0  0  1  0  0  0  0  0  0
  -27.0170  -30.3660   24.7670 C   0  0  0  0  0  1  0  0  0  0  0  0
  -27.5900  -32.5420   25.7990 C   0  0  0  0  0  1  0  0  0  0  0  0
  -25.6110  -33.9160   24.1980 N   0  0  0  0  0  0  0  0  0  0  0  0
  -25.9180  -34.9880   23.4540 C   0  0  0  0  0  0  0  0  0  0  0  0
  -26.5610  -34.9040   22.4060 O   0  0  0  0  0  0  0  0  0  0  0  0
  -25.0330  -34.0520   25.0140 H   0  0  0  0  0  0  0  0  0  0  0  0
  -24.1630  -36.7780   23.2000 C   0  0  0  0  0  1  0  0  0  0  0  0
  -25.4410  -36.3700   23.9500 C   0  0  0  0  0  3  0  0  0  0  0  0
  -27.5970  -37.2730   24.7040 C   0  0  0  0  0  1  0  0  0  0  0  0
  -26.4580  -37.4350   23.8050 N   0  0  0  0  0  0  0  0  0  0  0  0
  -26.0490  -38.3490   23.9730 H   0  0  0  0  0  0  0  0  0  0  0  0
  -28.5890  -20.6710   20.3110 C   0  0  0  0  0  3  0  0  0  0  0  0
  -29.6090  -19.0170   20.2430 C   0  0  0  0  0  3  0  0  0  0  0  0
  -29.3880  -17.2730   20.3150 O   0  0  0  0  0  0  0  0  0  0  0  0
  -30.3230  -15.6960   20.1130 C   0  0  0  0  0  0  0  0  0  0  0  0
  -30.3460  -13.1350   19.2840 C   0  0  0  0  0  2  0  0  0  0  0  0
  -29.4190  -12.7880   18.0840 C   0  0  0  0  0  2  0  0  0  0  0  0
  -28.0050  -12.4340   18.5710 C   0  0  0  0  0  2  0  0  0  0  0  0
  -27.5240  -13.4150   19.6650 C   0  0  0  0  0  3  0  0  0  0  0  0
  -28.5720  -13.7170   20.7560 C   0  0  0  0  0  2  0  0  0  0  0  0
  -29.7540  -14.2910   20.0880 N   0  0  0  0  0  0  0  0  0  0  0  0
  -31.5380  -15.6670   19.8510 O   0  0  0  0  0  0  0  0  0  0  0  0
  -25.1960  -13.9090   20.5420 C   0  0  0  0  0  0  0  0  0  0  0  0
  -24.1580  -13.1120   20.9300 C   0  0  0  0  0  0  0  0  0  0  0  0
  -24.6370  -11.7680   20.8490 C   0  0  0  0  0  0  0  0  0  0  0  0
  -26.2330  -13.0530   20.2280 N   0  0  0  0  0  0  0  0  0  0  0  0
  -25.9150  -11.7550   20.4830 N   0  0  0  0  0  0  0  0  0  0  0  0
  -23.9250  -10.4950   21.0360 C   0  0  0  0  0  0  0  0  0  0  0  0
  -24.3830   -9.5160   21.9460 C   0  0  0  0  0  3  0  0  0  0  0  0
  -23.6660   -8.3130   22.1240 C   0  0  0  0  0  3  0  0  0  0  0  0
  -22.4770   -8.0800   21.3920 C   0  0  0  0  0  0  0  0  0  0  0  0
  -22.0390   -9.0470   20.4700 C   0  0  0  0  0  3  0  0  0  0  0  0
  -22.7560  -10.2410   20.2910 C   0  0  0  0  0  3  0  0  0  0  0  0
  -21.7300   -6.9300   21.4800 O   0  0  0  0  0  0  0  0  0  0  0  0
  -21.6910   -6.1820   22.6300 C   0  0  0  0  0  0  0  0  0  0  0  0
  -21.2480   -6.7250   23.8560 C   0  0  0  0  0  3  0  0  0  0  0  0
  -21.1570   -5.9040   24.9980 C   0  0  0  0  0  3  0  0  0  0  0  0
  -21.4990   -4.5410   24.9140 C   0  0  0  0  0  0  0  0  0  0  0  0
  -21.9360   -3.9980   23.6930 C   0  0  0  0  0  3  0  0  0  0  0  0
  -22.0270   -4.8160   22.5540 C   0  0  0  0  0  0  0  0  0  0  0  0
  -22.4280   -4.2820   21.3750 F   0  0  0  0  0  0  0  0  0  0  0  0
  -21.4060   -3.7500   26.0100 F   0  0  0  0  0  0  0  0  0  0  0  0
  -22.7690  -13.5720   21.2590 C   0  0  0  0  0  0  0  0  0  0  0  0
  -22.0790  -12.8560   22.1390 N   0  0  0  0  0  0  0  0  0  0  0  0
  -22.3070  -14.6030   20.7720 O   0  0  0  0  0  0  0  0  0  0  0  0
  -22.4690  -12.0220   22.5540 H   0  0  0  0  0  0  0  0  0  0  0  0
  -21.1480  -13.1460   22.4030 H   0  0  0  0  0  0  0  0  0  0  0  0
  -25.3430  -15.2860   20.3960 N   0  0  0  0  0  0  0  0  0  0  0  0
  -24.5840  -15.9350   20.5680 H   0  0  0  0  0  0  0  0  0  0  0  0
  -26.1880  -15.7400   20.0710 H   0  0  0  0  0  0  0  0  0  0  0  0
  1  5  1  0
  1  2  1  0
  2 46  1  0
  2  4  1  0
  3  1  2  0
  6 17  2  0
  7  5  1  0
  7 12  1  0
  8 16  1  0
  8 18  1  0
  9 15  1  0
  9 11  1  0
 10 16  1  0
 11 12  2  0
 11 10  1  0
 13  7  2  0
 14 13  1  0
 14  9  2  0
 15  8  1  0
 16  6  1  0
 18 20  2  0
 19 18  1  0
 21 19  1  0
 22 31  2  0
 22 27  1  0
 23 19  1  0
 23 27  1  0
 24 23  1  0
 25 26  1  0
 25 24  1  0
 26 22  1  0
 27 28  2  0
 28 29  1  0
 30 29  2  0
 31 30  1  0
 32  6  1  0
 32 37  1  0
 32 33  1  0
 33 36  1  1
 33 34  1  0
 35 33  1  0
 37 40  1  0
 38 42  1  0
 38 37  1  0
 39 38  2  0
 42 41  1  0
 44 42  1  0
 44 45  1  0
 44 43  1  0
 47 46  2  0
 47 48  1  0
 49 48  1  0
 50 55  1  0
 51 52  1  0
 51 50  1  0
 53 52  1  0
 53 60  1  0
 53 54  1  0
 55 49  1  0
 55 54  1  0
 56 49  2  0
 57 58  2  0
 58 77  1  0
 59 58  1  0
 59 62  1  0
 60 61  1  0
 60 57  1  0
 61 59  2  0
 62 63  1  0
 63 64  2  0
 65 68  1  0
 65 64  1  0
 66 65  2  0
 67 66  1  0
 67 62  2  0
 68 69  1  0
 69 70  1  0
 70 71  2  0
 72 71  1  0
 72 76  1  0
 73 72  2  0
 74 69  2  0
 74 73  1  0
 75 74  1  0
 77 78  1  0
 78 81  1  0
 78 80  1  0
 79 77  2  0
 82 57  1  0
 82 83  1  0
 84 82  1  0
M  ISO  4   1 101   5 101  48 100  49 100
M  END
>  <TORSDO>  (68) 
F 19

>  <SCORE>  (68) 
-16.390

>  <name>  (68) 
68

>  <ligand_id>  (68) 
68

>  <original_smiles>  (68) 
[H]c1c([H])c([H])c2c(c1[H])C([H])([H])C([H])([H])C([H])([H])C2([H])N([H])C(=O)C1([H])N(C(=O)C([H])(N([H])C(=O)C([H])(N([H])C([H])([H])[H])C([H])([H])[H])C(C([H])([H])[H])(C([H])([H])[H])C([H])([H])[H])C([H])([H])c2c([H])c(OC(=O)N([H])C([H])([H])C([H])([H])OC(=O)N3C([H])([H])C([H])([H])C([H])([H])C([H])(n4nc(-c5c([H])c([H])c(Oc6c([H])c([H])c(F)c([H])c6F)c([H])c5[H])c(C(=O)N([H])[H])c4N([H])[H])C3([H])[H])c([H])c([H])c2C1([H])[H]

>  <smiles>  (68) 
[H]c1c([H])c([H])c2c(c1[H])C([H])([H])C([H])([H])C([H])([H])C2([H])N([H])C(=O)C1([H])N(C(=O)C([H])(N([H])C(=O)C([H])(N([H])C([H])([H])[H])C([H])([H])[H])C(C([H])([H])[H])(C([H])([H])[H])C([H])([H])[H])C([H])([H])c2c([H])c(OC(=O)N([H])C([H])([H])C([H])([H])OC(=O)N3C([H])([H])C([H])([H])C([H])([H])C([H])(n4nc(-c5c([H])c([H])c(Oc6c([H])c([H])c(F)c([H])c6F)c([H])c5[H])c(C(=O)N([H])[H])c4N([H])[H])C3([H])[H])c([H])c([H])c2C1([H])[H]

$$$$
69:0:0
     RDKit          3D

105112  0  0  1  0  0  0  0  0999 V2000
  -28.2940  -21.9680   23.3030 O   0  0  0  0  0  0  0  0  0  0  0  0
  -29.6770  -21.6420   23.3630 C   0  0  0  0  0  2  0  0  0  0  0  0
  -30.1100  -21.1310   21.9890 C   0  0  0  0  0  2  0  0  0  0  0  0
  -29.8010  -22.0760   20.9790 O   0  0  0  0  0  0  0  0  0  0  0  0
  -30.4170  -21.7380   19.7490 C   0  0  0  0  0  2  0  0  0  0  0  0
  -29.8510  -22.6720   18.6890 C   0  0  0  0  0  2  0  0  0  0  0  0
  -30.6350  -22.5390   17.5120 O   0  0  0  0  0  0  0  0  0  0  0  0
  -29.9870  -23.0950   16.3810 C   0  0  0  0  0  2  0  0  0  0  0  0
  -31.0200  -23.4080   15.2790 C   0  0  0  0  0  2  0  0  0  0  0  0
  -31.5700  -22.2490   14.6500 O   0  0  0  0  0  0  0  0  0  0  0  0
  -30.6190  -21.4330   13.9630 C   0  0  0  0  0  2  0  0  0  0  0  0
  -30.7530  -19.9570   14.3730 C   0  0  0  0  0  2  0  0  0  0  0  0
  -30.7440  -19.8090   15.7950 O   0  0  0  0  0  0  0  0  0  0  0  0
  -30.8470  -18.4490   16.2190 C   0  0  0  0  0  2  0  0  0  0  0  0
  -31.4190  -18.2940   17.6390 C   0  0  0  0  0  2  0  0  0  0  0  0
  -33.6430  -19.2680   17.1560 C   0  0  0  0  0  0  0  0  0  0  0  0
  -35.4830  -18.0860   16.0370 C   0  0  0  0  0  2  0  0  0  0  0  0
  -34.9340  -16.9550   15.1580 C   0  0  0  0  0  2  0  0  0  0  0  0
  -34.7710  -15.6580   15.9690 C   0  0  0  0  0  2  0  0  0  0  0  0
  -34.0420  -15.8760   17.3150 C   0  0  0  0  0  3  0  0  0  0  0  0
  -34.5890  -17.1060   18.0740 C   0  0  0  0  0  2  0  0  0  0  0  0
  -34.5520  -18.2590   17.1590 N   0  0  0  0  0  0  0  0  0  0  0  0
  -33.7290  -20.2580   16.4330 O   0  0  0  0  0  0  0  0  0  0  0  0
  -32.5790  -19.1420   17.9550 N   0  0  0  0  0  0  0  0  0  0  0  0
  -32.2530  -20.0550   18.2240 H   0  0  0  0  0  0  0  0  0  0  0  0
  -32.9800  -13.8480   18.4920 C   0  0  0  0  0  0  0  0  0  0  0  0
  -33.5260  -12.8170   19.2130 C   0  0  0  0  0  0  0  0  0  0  0  0
  -34.9300  -13.0760   19.2540 C   0  0  0  0  0  0  0  0  0  0  0  0
  -34.0430  -14.6700   18.1390 N   0  0  0  0  0  0  0  0  0  0  0  0
  -35.2150  -14.2220   18.6490 N   0  0  0  0  0  0  0  0  0  0  0  0
  -36.0280  -12.2560   19.7830 C   0  0  0  0  0  0  0  0  0  0  0  0
  -36.9660  -12.7830   20.6940 C   0  0  0  0  0  3  0  0  0  0  0  0
  -38.0070  -11.9720   21.1990 C   0  0  0  0  0  3  0  0  0  0  0  0
  -38.1150  -10.6190   20.7980 C   0  0  0  0  0  0  0  0  0  0  0  0
  -37.1890  -10.1060   19.8680 C   0  0  0  0  0  3  0  0  0  0  0  0
  -36.1590  -10.9150   19.3640 C   0  0  0  0  0  3  0  0  0  0  0  0
  -39.1180   -9.7710   21.2100 O   0  0  0  0  0  0  0  0  0  0  0  0
  -39.7470   -9.9400   22.4200 C   0  0  0  0  0  0  0  0  0  0  0  0
  -39.0340   -9.9510   23.6350 C   0  0  0  0  0  3  0  0  0  0  0  0
  -39.7280  -10.0500   24.8610 C   0  0  0  0  0  3  0  0  0  0  0  0
  -41.1340  -10.1340   24.8690 C   0  0  0  0  0  0  0  0  0  0  0  0
  -41.8470  -10.1240   23.6580 C   0  0  0  0  0  3  0  0  0  0  0  0
  -41.1570  -10.0200   22.4360 C   0  0  0  0  0  0  0  0  0  0  0  0
  -41.8450   -9.9850   21.2720 F   0  0  0  0  0  0  0  0  0  0  0  0
  -41.8050  -10.2330   26.0420 F   0  0  0  0  0  0  0  0  0  0  0  0
  -32.7990  -11.6170   19.7480 C   0  0  0  0  0  0  0  0  0  0  0  0
  -33.2380  -11.0900   20.8920 N   0  0  0  0  0  0  0  0  0  0  0  0
  -31.8150  -11.1570   19.1770 O   0  0  0  0  0  0  0  0  0  0  0  0
  -34.0400  -11.4710   21.3730 H   0  0  0  0  0  0  0  0  0  0  0  0
  -32.7690  -10.2890   21.2850 H   0  0  0  0  0  0  0  0  0  0  0  0
  -31.6780  -14.1350   18.0990 N   0  0  0  0  0  0  0  0  0  0  0  0
  -30.9110  -13.5010   18.2980 H   0  0  0  0  0  0  0  0  0  0  0  0
  -31.4130  -14.9080   17.5080 H   0  0  0  0  0  0  0  0  0  0  0  0
  -27.9840  -23.1030   24.0920 C   0  0  0  0  0  2  0  0  0  0  0  0
  -26.5640  -23.5970   23.7580 C   0  0  0  0  0  2  0  0  0  0  0  0
  -26.4950  -24.9400   23.2800 O   0  0  0  0  0  0  0  0  0  0  0  0
  -26.9750  -25.1660   21.9500 C   0  0  0  0  0  2  0  0  0  0  0  0
  -28.0130  -26.3130   21.9430 C   0  0  0  0  0  0  0  0  0  0  0  0
  -29.0830  -26.3020   21.1340 N   0  0  0  0  0  0  0  0  0  0  0  0
  -27.8330  -27.2730   22.6930 O   0  0  0  0  0  0  0  0  0  0  0  0
  -29.6370  -27.1490   21.1250 H   0  0  0  0  0  0  0  0  0  0  0  0
  -29.5580  -25.2430   20.2470 C   0  0  0  0  0  2  0  0  0  0  0  0
  -31.0420  -25.4160   19.8650 C   0  0  0  0  0  2  0  0  0  0  0  0
  -31.5770  -26.8580   19.7280 C   0  0  0  0  0  2  0  0  0  0  0  0
  -30.8930  -27.5740   18.7130 O   0  0  0  0  0  0  0  0  0  0  0  0
  -26.3020  -30.4680   23.3410 C   0  0  0  0  0  0  0  0  0  0  0  0
  -29.6090  -27.9450   19.0150 C   0  0  0  0  0  0  0  0  0  0  0  0
  -25.3100  -29.4320   21.3250 C   0  0  0  0  0  3  0  0  0  0  0  0
  -26.9610  -28.7730   19.5010 C   0  0  0  0  0  0  0  0  0  0  0  0
  -27.6850  -30.3790   21.2750 C   0  0  0  0  0  2  0  0  0  0  0  0
  -28.0150  -29.3290   20.2390 C   0  0  0  0  0  0  0  0  0  0  0  0
  -29.3450  -28.9140   20.0040 C   0  0  0  0  0  3  0  0  0  0  0  0
  -28.5460  -27.3990   18.2750 C   0  0  0  0  0  3  0  0  0  0  0  0
  -27.2200  -27.7950   18.5250 C   0  0  0  0  0  3  0  0  0  0  0  0
  -25.5670  -29.2690   19.8040 C   0  0  0  0  0  2  0  0  0  0  0  0
  -26.4510  -30.0900   22.0410 N   0  0  0  0  0  0  0  0  0  0  0  0
  -25.2270  -30.3110   23.9360 O   0  0  0  0  0  0  0  0  0  0  0  0
  -24.9490  -28.0450   21.8970 C   0  0  0  0  0  0  0  0  0  0  0  0
  -23.7580  -27.5410   21.5320 N   0  0  0  0  0  0  0  0  0  0  0  0
  -25.7380  -27.4340   22.6240 O   0  0  0  0  0  0  0  0  0  0  0  0
  -23.1640  -28.1060   20.9400 H   0  0  0  0  0  0  0  0  0  0  0  0
  -20.9680  -25.2980   21.0780 C   0  0  0  0  0  0  0  0  0  0  0  0
  -23.2250  -26.2330   21.9130 C   0  0  0  0  0  3  0  0  0  0  0  0
  -23.8880  -25.1030   21.0890 C   0  0  0  0  0  2  0  0  0  0  0  0
  -23.0950  -24.7300   19.8320 C   0  0  0  0  0  2  0  0  0  0  0  0
  -21.6780  -24.2850   20.1940 C   0  0  0  0  0  2  0  0  0  0  0  0
  -21.6940  -26.2190   21.8760 C   0  0  0  0  0  0  0  0  0  0  0  0
  -20.9880  -27.1600   22.6550 C   0  0  0  0  0  3  0  0  0  0  0  0
  -19.5800  -27.1860   22.6500 C   0  0  0  0  0  3  0  0  0  0  0  0
  -18.8640  -26.2620   21.8700 C   0  0  0  0  0  3  0  0  0  0  0  0
  -19.5580  -25.3190   21.0890 C   0  0  0  0  0  3  0  0  0  0  0  0
  -27.4680  -31.1350   24.1390 C   0  0  0  0  0  3  0  0  0  0  0  0
  -28.0920  -30.1870   25.2350 C   0  0  1  0  0  0  0  0  0  0  0  0
  -27.0400  -29.5450   26.1700 C   0  0  0  0  0  1  0  0  0  0  0  0
  -28.9010  -29.0440   24.5750 C   0  0  0  0  0  1  0  0  0  0  0  0
  -29.0830  -30.9850   26.1160 C   0  0  0  0  0  1  0  0  0  0  0  0
  -26.9400  -32.3610   24.7490 N   0  0  0  0  0  0  0  0  0  0  0  0
  -27.1360  -33.5960   24.2670 C   0  0  0  0  0  0  0  0  0  0  0  0
  -27.8530  -33.8260   23.2880 O   0  0  0  0  0  0  0  0  0  0  0  0
  -26.2990  -32.2430   25.5200 H   0  0  0  0  0  0  0  0  0  0  0  0
  -25.1690  -35.1600   24.2010 C   0  0  0  0  0  1  0  0  0  0  0  0
  -26.4280  -34.7600   24.9850 C   0  0  0  0  0  3  0  0  0  0  0  0
  -28.3740  -35.7200   26.1330 C   0  0  0  0  0  1  0  0  0  0  0  0
  -27.2910  -35.9450   25.1790 N   0  0  0  0  0  0  0  0  0  0  0  0
  -26.7450  -36.7380   25.5040 H   0  0  0  0  0  0  0  0  0  0  0  0
  1  2  1  0
  1 54  1  0
  3  2  1  0
  4  3  1  0
  5  4  1  0
  6  5  1  0
  7  6  1  0
  8  7  1  0
  9  8  1  0
 10  9  1  0
 11 12  1  0
 11 10  1  0
 12 13  1  0
 13 14  1  0
 14 15  1  0
 15 24  1  0
 16 22  1  0
 16 24  1  0
 17 22  1  0
 18 19  1  0
 18 17  1  0
 20 19  1  0
 20 21  1  0
 20 29  1  0
 22 21  1  0
 23 16  2  0
 24 25  1  0
 26 27  2  0
 27 28  1  0
 27 46  1  0
 28 31  1  0
 29 26  1  0
 29 30  1  0
 30 28  2  0
 31 32  1  0
 32 33  2  0
 34 33  1  0
 34 37  1  0
 35 34  2  0
 36 31  2  0
 36 35  1  0
 37 38  1  0
 38 43  2  0
 38 39  1  0
 39 40  2  0
 40 41  1  0
 41 45  1  0
 42 41  2  0
 43 42  1  0
 44 43  1  0
 46 47  1  0
 47 50  1  0
 47 49  1  0
 48 46  2  0
 51 52  1  0
 51 26  1  0
 53 51  1  0
 55 54  1  0
 56 55  1  0
 57 56  1  0
 58 57  1  0
 58 60  2  0
 59 58  1  0
 61 59  1  0
 62 59  1  0
 63 62  1  0
 64 63  1  0
 65 67  1  0
 65 64  1  0
 66 77  2  0
 67 72  1  0
 68 78  1  0
 68 76  1  0
 69 75  1  0
 69 71  1  0
 70 76  1  0
 71 70  1  0
 72 71  2  0
 73 74  1  0
 73 67  2  0
 74 69  2  0
 75 68  1  0
 76 66  1  0
 78 80  2  0
 79 78  1  0
 81 79  1  0
 82 91  2  0
 82 87  1  0
 83 79  1  0
 84 83  1  0
 85 86  1  0
 85 84  1  0
 86 82  1  0
 87 83  1  0
 87 88  2  0
 89 88  1  0
 90 89  2  0
 91 90  1  0
 92 66  1  0
 92 97  1  0
 92 93  1  0
 93 96  1  1
 93 94  1  0
 95 93  1  0
 97100  1  0
 98 97  1  0
 98102  1  0
 99 98  2  0
102101  1  0
102104  1  0
104105  1  0
104103  1  0
M  ISO  4  16 100  24 100  64 101  65 101
M  END
>  <TORSDO>  (69) 
F 38

>  <SCORE>  (69) 
4.579

>  <name>  (69) 
69

>  <ligand_id>  (69) 
69

>  <original_smiles>  (69) 
[H]c1c([H])c([H])c2c(c1[H])C([H])([H])C([H])([H])C([H])([H])C2([H])N([H])C(=O)C1([H])N(C(=O)C([H])(N([H])C(=O)C([H])(N([H])C([H])([H])[H])C([H])([H])[H])C(C([H])([H])[H])(C([H])([H])[H])C([H])([H])[H])C([H])([H])c2c([H])c(OC([H])([H])C([H])([H])C([H])([H])N([H])C(=O)C([H])([H])OC([H])([H])C([H])([H])OC([H])([H])C([H])([H])OC([H])([H])C([H])([H])OC([H])([H])C([H])([H])OC([H])([H])C([H])([H])OC([H])([H])C([H])([H])N([H])C(=O)N3C([H])([H])C([H])([H])C([H])([H])C([H])(n4nc(-c5c([H])c([H])c(Oc6c([H])c([H])c(F)c([H])c6F)c([H])c5[H])c(C(=O)N([H])[H])c4N([H])[H])C3([H])[H])c([H])c([H])c2C1([H])[H]

>  <smiles>  (69) 
[H]c1c([H])c([H])c2c(c1[H])C([H])([H])C([H])([H])C([H])([H])C2([H])N([H])C(=O)C1([H])N(C(=O)C([H])(N([H])C(=O)C([H])(N([H])C([H])([H])[H])C([H])([H])[H])C(C([H])([H])[H])(C([H])([H])[H])C([H])([H])[H])C([H])([H])c2c([H])c(OC([H])([H])C([H])([H])C([H])([H])N([H])C(=O)C([H])([H])OC([H])([H])C([H])([H])OC([H])([H])C([H])([H])OC([H])([H])C([H])([H])OC([H])([H])C([H])([H])OC([H])([H])C([H])([H])OC([H])([H])C([H])([H])N([H])C(=O)N3C([H])([H])C([H])([H])C([H])([H])C([H])(n4nc(-c5c([H])c([H])c(Oc6c([H])c([H])c(F)c([H])c6F)c([H])c5[H])c(C(=O)N([H])[H])c4N([H])[H])C3([H])[H])c([H])c([H])c2C1([H])[H]

$$$$
70:0:0
     RDKit          3D

 90 97  0  0  1  0  0  0  0  0999 V2000
  -27.8060  -22.7890   22.0570 C   0  0  0  0  0  2  0  0  0  0  0  0
  -28.1210  -23.6690   20.9800 O   0  0  0  0  0  0  0  0  0  0  0  0
  -28.3570  -25.0040   21.4180 C   0  0  0  0  0  2  0  0  0  0  0  0
  -29.0330  -25.8100   20.2920 C   0  0  0  0  0  2  0  0  0  0  0  0
  -28.9770  -27.2200   20.5330 O   0  0  0  0  0  0  0  0  0  0  0  0
  -24.8130  -32.1180   23.5430 C   0  0  0  0  0  0  0  0  0  0  0  0
  -27.7520  -27.8490   20.4980 C   0  0  0  0  0  0  0  0  0  0  0  0
  -23.7220  -30.6820   21.8480 C   0  0  0  0  0  3  0  0  0  0  0  0
  -25.2850  -29.2330   20.4560 C   0  0  0  0  0  0  0  0  0  0  0  0
  -26.2290  -31.1650   21.7290 C   0  0  0  0  0  2  0  0  0  0  0  0
  -26.3990  -29.8060   21.0820 C   0  0  0  0  0  0  0  0  0  0  0  0
  -27.6340  -29.1210   21.0980 C   0  0  0  0  0  3  0  0  0  0  0  0
  -26.6140  -27.2830   19.8740 C   0  0  0  0  0  3  0  0  0  0  0  0
  -25.3870  -27.9680   19.8540 C   0  0  0  0  0  3  0  0  0  0  0  0
  -24.0040  -30.0320   20.4680 C   0  0  0  0  0  2  0  0  0  0  0  0
  -24.9370  -31.3350   22.4330 N   0  0  0  0  0  0  0  0  0  0  0  0
  -23.7050  -32.3340   24.0530 O   0  0  0  0  0  0  0  0  0  0  0  0
  -23.0900  -29.6210   22.7760 C   0  0  0  0  0  0  0  0  0  0  0  0
  -21.7860  -29.3620   22.5830 N   0  0  0  0  0  0  0  0  0  0  0  0
  -23.7700  -29.0330   23.6190 O   0  0  0  0  0  0  0  0  0  0  0  0
  -21.2950  -29.8870   21.8700 H   0  0  0  0  0  0  0  0  0  0  0  0
  -18.4720  -27.9650   22.9140 C   0  0  0  0  0  0  0  0  0  0  0  0
  -20.9920  -28.3730   23.3120 C   0  0  0  0  0  3  0  0  0  0  0  0
  -21.2090  -26.9500   22.7440 C   0  0  0  0  0  2  0  0  0  0  0  0
  -20.1790  -26.5620   21.6760 C   0  0  0  0  0  2  0  0  0  0  0  0
  -18.7620  -26.6280   22.2540 C   0  0  0  0  0  2  0  0  0  0  0  0
  -19.5210  -28.7900   23.3990 C   0  0  0  0  0  0  0  0  0  0  0  0
  -19.2030  -30.0400   23.9710 C   0  0  0  0  0  3  0  0  0  0  0  0
  -17.8650  -30.4650   24.0730 C   0  0  0  0  0  3  0  0  0  0  0  0
  -16.8290  -29.6370   23.6090 C   0  0  0  0  0  3  0  0  0  0  0  0
  -17.1330  -28.3910   23.0320 C   0  0  0  0  0  3  0  0  0  0  0  0
  -26.0510  -32.7960   24.2080 C   0  0  0  0  0  3  0  0  0  0  0  0
  -26.4950  -32.0970   25.5500 C   0  0  1  0  0  0  0  0  0  0  0  0
  -25.3360  -31.8630   26.5460 C   0  0  0  0  0  1  0  0  0  0  0  0
  -27.1490  -30.7280   25.2540 C   0  0  0  0  0  1  0  0  0  0  0  0
  -27.5660  -32.9570   26.2590 C   0  0  0  0  0  1  0  0  0  0  0  0
  -25.7090  -34.2050   24.4420 N   0  0  0  0  0  0  0  0  0  0  0  0
  -26.0740  -35.2180   23.6420 C   0  0  0  0  0  0  0  0  0  0  0  0
  -26.8020  -35.0650   22.6570 O   0  0  0  0  0  0  0  0  0  0  0  0
  -25.0670  -34.3930   25.1980 H   0  0  0  0  0  0  0  0  0  0  0  0
  -24.3440  -36.9560   23.0900 C   0  0  0  0  0  1  0  0  0  0  0  0
  -25.5440  -36.6220   23.9910 C   0  0  0  0  0  3  0  0  0  0  0  0
  -27.6240  -37.5810   24.8740 C   0  0  0  0  0  1  0  0  0  0  0  0
  -26.5690  -37.6810   23.8690 N   0  0  0  0  0  0  0  0  0  0  0  0
  -26.1450  -38.6010   23.9460 H   0  0  0  0  0  0  0  0  0  0  0  0
  -27.4930  -21.3830   21.5210 C   0  0  0  0  0  2  0  0  0  0  0  0
  -28.6650  -20.7680   20.9950 O   0  0  0  0  0  0  0  0  0  0  0  0
  -28.3670  -19.5800   20.2660 C   0  0  0  0  0  2  0  0  0  0  0  0
  -29.6620  -18.8370   19.8940 C   0  0  0  0  0  2  0  0  0  0  0  0
  -30.0630  -17.9670   20.9490 O   0  0  0  0  0  0  0  0  0  0  0  0
  -31.4690  -17.8850   21.1710 C   0  0  0  0  0  2  0  0  0  0  0  0
  -32.1640  -16.8510   20.2700 C   0  0  0  0  0  2  0  0  0  0  0  0
  -31.9300  -14.4640   19.7030 C   0  0  0  0  0  0  0  0  0  0  0  0
  -31.3700  -12.1870   18.9420 C   0  0  0  0  0  2  0  0  0  0  0  0
  -30.3890  -12.2580   17.7560 C   0  0  0  0  0  2  0  0  0  0  0  0
  -28.9350  -12.3150   18.2570 C   0  0  0  0  0  2  0  0  0  0  0  0
  -28.7260  -13.3820   19.3650 C   0  0  0  0  0  3  0  0  0  0  0  0
  -29.8210  -13.2870   20.4530 C   0  0  0  0  0  2  0  0  0  0  0  0
  -31.1380  -13.3620   19.7950 N   0  0  0  0  0  0  0  0  0  0  0  0
  -32.9520  -14.5110   19.0150 O   0  0  0  0  0  0  0  0  0  0  0  0
  -31.5220  -15.5410   20.3790 N   0  0  0  0  0  0  0  0  0  0  0  0
  -30.6870  -15.4770   20.9440 H   0  0  0  0  0  0  0  0  0  0  0  0
  -26.5230  -14.3100   20.3180 C   0  0  0  0  0  0  0  0  0  0  0  0
  -25.3730  -13.6950   20.7340 C   0  0  0  0  0  0  0  0  0  0  0  0
  -25.5970  -12.2930   20.5790 C   0  0  0  0  0  0  0  0  0  0  0  0
  -27.3840  -13.2930   19.9390 N   0  0  0  0  0  0  0  0  0  0  0  0
  -26.8320  -12.0680   20.1490 N   0  0  0  0  0  0  0  0  0  0  0  0
  -24.6860  -11.1530   20.7540 C   0  0  0  0  0  0  0  0  0  0  0  0
  -25.0150  -10.0650   21.5910 C   0  0  0  0  0  3  0  0  0  0  0  0
  -24.1140   -8.9910   21.7570 C   0  0  0  0  0  3  0  0  0  0  0  0
  -22.8680   -9.0000   21.0880 C   0  0  0  0  0  0  0  0  0  0  0  0
  -22.5550  -10.0750   20.2360 C   0  0  0  0  0  3  0  0  0  0  0  0
  -23.4560  -11.1380   20.0660 C   0  0  0  0  0  3  0  0  0  0  0  0
  -21.9430   -7.9870   21.1680 O   0  0  0  0  0  0  0  0  0  0  0  0
  -21.8340   -7.1990   22.2860 C   0  0  0  0  0  0  0  0  0  0  0  0
  -21.5870   -7.7470   23.5640 C   0  0  0  0  0  3  0  0  0  0  0  0
  -21.4110   -6.8960   24.6730 C   0  0  0  0  0  3  0  0  0  0  0  0
  -21.4730   -5.4990   24.5060 C   0  0  0  0  0  0  0  0  0  0  0  0
  -21.7140   -4.9520   23.2340 C   0  0  0  0  0  3  0  0  0  0  0  0
  -21.8900   -5.8000   22.1260 C   0  0  0  0  0  0  0  0  0  0  0  0
  -22.1010   -5.2670   20.8980 F   0  0  0  0  0  0  0  0  0  0  0  0
  -21.2960   -4.6800   25.5700 F   0  0  0  0  0  0  0  0  0  0  0  0
  -24.1040  -14.3690   21.1660 C   0  0  0  0  0  0  0  0  0  0  0  0
  -23.3490  -13.7420   22.0620 N   0  0  0  0  0  0  0  0  0  0  0  0
  -23.7960  -15.4850   20.7480 O   0  0  0  0  0  0  0  0  0  0  0  0
  -23.6150  -12.8390   22.4260 H   0  0  0  0  0  0  0  0  0  0  0  0
  -22.4980  -14.1770   22.3890 H   0  0  0  0  0  0  0  0  0  0  0  0
  -26.9010  -15.6450   20.2170 N   0  0  0  0  0  0  0  0  0  0  0  0
  -26.2750  -16.4070   20.4510 H   0  0  0  0  0  0  0  0  0  0  0  0
  -27.7960  -15.9620   19.8690 H   0  0  0  0  0  0  0  0  0  0  0  0
  2  3  1  0
  2  1  1  0
  4  5  1  0
  4  3  1  0
  6 17  2  0
  7  5  1  0
  7 12  1  0
  8 16  1  0
  8 18  1  0
  9 15  1  0
  9 11  1  0
 10 16  1  0
 11 12  2  0
 11 10  1  0
 13  7  2  0
 14 13  1  0
 14  9  2  0
 15  8  1  0
 16  6  1  0
 18 20  2  0
 19 18  1  0
 21 19  1  0
 22 31  2  0
 22 27  1  0
 23 19  1  0
 23 27  1  0
 24 23  1  0
 25 26  1  0
 25 24  1  0
 26 22  1  0
 27 28  2  0
 28 29  1  0
 30 29  2  0
 31 30  1  0
 32  6  1  0
 32 37  1  0
 32 33  1  0
 33 36  1  1
 33 34  1  0
 35 33  1  0
 37 40  1  0
 38 42  1  0
 38 37  1  0
 39 38  2  0
 42 41  1  0
 44 45  1  0
 44 42  1  0
 44 43  1  0
 46  1  1  0
 47 46  1  0
 48 47  1  0
 49 48  1  0
 49 50  1  0
 50 51  1  0
 52 61  1  0
 52 51  1  0
 53 59  1  0
 53 61  1  0
 54 59  1  0
 55 56  1  0
 55 54  1  0
 57 56  1  0
 57 66  1  0
 57 58  1  0
 59 58  1  0
 60 53  2  0
 61 62  1  0
 63 64  2  0
 64 83  1  0
 65 64  1  0
 65 68  1  0
 66 67  1  0
 66 63  1  0
 67 65  2  0
 68 69  1  0
 69 70  2  0
 71 74  1  0
 71 70  1  0
 72 71  2  0
 73 72  1  0
 73 68  2  0
 74 75  1  0
 75 76  1  0
 76 77  2  0
 78 77  1  0
 78 82  1  0
 79 78  2  0
 80 75  2  0
 80 79  1  0
 81 80  1  0
 83 84  1  0
 84 87  1  0
 84 86  1  0
 85 83  2  0
 88 63  1  0
 88 89  1  0
 90 88  1  0
M  ISO  4   4 101   5 101  53 100  61 100
M  END
>  <TORSDO>  (70) 
F 26

>  <SCORE>  (70) 
-9.736

>  <name>  (70) 
70

>  <ligand_id>  (70) 
70

>  <original_smiles>  (70) 
[H]c1c([H])c([H])c2c(c1[H])C([H])([H])C([H])([H])C([H])([H])C2([H])N([H])C(=O)C1([H])N(C(=O)C([H])(N([H])C(=O)C([H])(N([H])C([H])([H])[H])C([H])([H])[H])C(C([H])([H])[H])(C([H])([H])[H])C([H])([H])[H])C([H])([H])c2c([H])c(OC([H])([H])C([H])([H])OC([H])([H])C([H])([H])OC([H])([H])C([H])([H])OC([H])([H])C([H])([H])N([H])C(=O)N3C([H])([H])C([H])([H])C([H])([H])C([H])(n4nc(-c5c([H])c([H])c(Oc6c([H])c([H])c(F)c([H])c6F)c([H])c5[H])c(C(=O)N([H])[H])c4N([H])[H])C3([H])[H])c([H])c([H])c2C1([H])[H]

>  <smiles>  (70) 
[H]c1c([H])c([H])c2c(c1[H])C([H])([H])C([H])([H])C([H])([H])C2([H])N([H])C(=O)C1([H])N(C(=O)C([H])(N([H])C(=O)C([H])(N([H])C([H])([H])[H])C([H])([H])[H])C(C([H])([H])[H])(C([H])([H])[H])C([H])([H])[H])C([H])([H])c2c([H])c(OC([H])([H])C([H])([H])OC([H])([H])C([H])([H])OC([H])([H])C([H])([H])OC([H])([H])C([H])([H])N([H])C(=O)N3C([H])([H])C([H])([H])C([H])([H])C([H])(n4nc(-c5c([H])c([H])c(Oc6c([H])c([H])c(F)c([H])c6F)c([H])c5[H])c(C(=O)N([H])[H])c4N([H])[H])C3([H])[H])c([H])c([H])c2C1([H])[H]

$$$$
71:0:0
     RDKit          3D

101105  0  0  1  0  0  0  0  0999 V2000
  -19.6830  -25.0190   23.9530 O   0  0  0  0  0  0  0  0  0  0  0  0
  -20.3320  -24.6150   22.6170 C   0  0  0  0  0  2  0  0  0  0  0  0
  -19.6600  -24.6830   21.1110 C   0  0  0  0  0  2  0  0  0  0  0  0
  -20.1540  -23.8350   19.9620 O   0  0  0  0  0  0  0  0  0  0  0  0
  -19.7480  -24.1040   18.5300 C   0  0  0  0  0  2  0  0  0  0  0  0
  -20.1770  -23.1340   17.2660 C   0  0  0  0  0  2  0  0  0  0  0  0
  -20.5220  -23.7390   15.9370 O   0  0  0  0  0  0  0  0  0  0  0  0
  -18.8590  -23.0050   12.5250 C   0  0  0  0  0  3  0  0  0  0  0  0
  -21.1040  -22.2320   12.4550 C   0  0  0  0  0  3  0  0  0  0  0  0
  -19.0200  -23.3730   13.9150 C   0  0  0  0  0  3  0  0  0  0  0  0
  -21.2670  -22.6110   13.8350 C   0  0  0  0  0  3  0  0  0  0  0  0
  -19.9060  -22.4520   11.7150 C   0  0  0  0  0  0  0  0  0  0  0  0
  -20.2390  -23.1990   14.6350 C   0  0  0  0  0  0  0  0  0  0  0  0
  -20.2220  -21.9960    9.0700 C   0  0  0  0  0  0  0  0  0  0  0  0
  -20.5420  -23.4390    7.0170 C   0  0  0  0  0  2  0  0  0  0  0  0
  -21.5890  -24.5500    7.2560 C   0  0  0  0  0  2  0  0  0  0  0  0
  -20.9780  -25.7400    8.0240 C   0  0  0  0  0  2  0  0  0  0  0  0
  -20.1160  -25.2770    9.2320 C   0  0  0  0  0  3  0  0  0  0  0  0
  -19.1080  -24.2100    8.7860 C   0  0  0  0  0  2  0  0  0  0  0  0
  -19.9050  -23.0940    8.3140 N   0  0  0  0  0  0  0  0  0  0  0  0
  -20.9140  -21.1070    8.5430 O   0  0  0  0  0  0  0  0  0  0  0  0
  -19.6800  -21.8580   10.3550 N   0  0  0  0  0  0  0  0  0  0  0  0
  -19.5710  -20.8610   10.4770 H   0  0  0  0  0  0  0  0  0  0  0  0
  -19.3170  -26.6620   11.2260 C   0  0  0  0  0  0  0  0  0  0  0  0
  -18.6040  -27.8240   11.3010 C   0  0  0  0  0  0  0  0  0  0  0  0
  -18.3290  -28.2040    9.9510 C   0  0  0  0  0  0  0  0  0  0  0  0
  -19.4310  -26.3770    9.8780 N   0  0  0  0  0  0  0  0  0  0  0  0
  -18.7840  -27.2870    9.1090 N   0  0  0  0  0  0  0  0  0  0  0  0
  -17.7200  -29.4210    9.4110 C   0  0  0  0  0  0  0  0  0  0  0  0
  -16.5010  -29.3820    8.6990 C   0  0  0  0  0  3  0  0  0  0  0  0
  -15.9260  -30.5700    8.2000 C   0  0  0  0  0  3  0  0  0  0  0  0
  -16.5710  -31.8120    8.4160 C   0  0  0  0  0  0  0  0  0  0  0  0
  -17.7950  -31.8410    9.1070 C   0  0  0  0  0  3  0  0  0  0  0  0
  -18.3670  -30.6580    9.5980 C   0  0  0  0  0  3  0  0  0  0  0  0
  -16.1010  -33.0170    7.9480 O   0  0  0  0  0  0  0  0  0  0  0  0
  -14.7580  -33.2590    7.8190 C   0  0  0  0  0  0  0  0  0  0  0  0
  -13.8790  -33.1960    8.9220 C   0  0  0  0  0  3  0  0  0  0  0  0
  -12.5180  -33.5240    8.7570 C   0  0  0  0  0  3  0  0  0  0  0  0
  -12.0370  -33.9250    7.4940 C   0  0  0  0  0  0  0  0  0  0  0  0
  -12.9140  -33.9930    6.3980 C   0  0  0  0  0  3  0  0  0  0  0  0
  -14.2700  -33.6640    6.5610 C   0  0  0  0  0  0  0  0  0  0  0  0
  -15.1150  -33.7520    5.5040 F   0  0  0  0  0  0  0  0  0  0  0  0
  -10.7330  -34.2480    7.3370 F   0  0  0  0  0  0  0  0  0  0  0  0
  -18.2900  -28.5940   12.5500 C   0  0  0  0  0  0  0  0  0  0  0  0
  -17.1700  -29.3080   12.5640 N   0  0  0  0  0  0  0  0  0  0  0  0
  -19.0110  -28.5280   13.5440 O   0  0  0  0  0  0  0  0  0  0  0  0
  -16.5640  -29.3470   11.7580 H   0  0  0  0  0  0  0  0  0  0  0  0
  -16.9210  -29.8260   13.3940 H   0  0  0  0  0  0  0  0  0  0  0  0
  -19.8970  -25.8480   12.1890 N   0  0  0  0  0  0  0  0  0  0  0  0
  -19.8000  -26.0460   13.1770 H   0  0  0  0  0  0  0  0  0  0  0  0
  -20.3720  -24.9740   12.0060 H   0  0  0  0  0  0  0  0  0  0  0  0
  -18.9830  -26.2930   24.5940 C   0  0  0  0  0  1  0  0  0  0  0  0
  -16.3660  -26.9800   24.4660 C   0  0  0  0  0  2  0  0  0  0  0  0
  -15.3400  -26.4040   23.6170 N   0  0  0  0  0  0  0  0  0  0  0  0
  -15.7710  -27.8760   25.0980 O   0  0  0  0  0  1  0  0  0  0  0  0
  -14.4730  -26.8980   23.7700 H   0  0  0  0  0  0  0  0  0  0  0  0
  -15.1030  -25.1420   22.6920 C   0  0  0  0  0  2  0  0  0  0  0  0
  -14.7870  -25.2650   21.1150 C   0  0  0  0  0  2  0  0  0  0  0  0
  -15.6440  -24.9090   19.7660 C   0  0  0  0  0  2  0  0  0  0  0  0
  -15.0450  -24.2780   18.3440 C   0  0  0  0  0  2  0  0  0  0  0  0
  -13.7680  -24.6080   17.5730 O   0  0  0  0  0  0  0  0  0  0  0  0
  -10.4040  -25.0160   23.5980 C   0  0  0  0  0  0  0  0  0  0  0  0
  -12.7040  -24.0360   18.1720 C   0  0  0  0  0  0  0  0  0  0  0  0
  -11.4750  -22.9470   22.8450 C   0  0  0  0  0  3  0  0  0  0  0  0
  -11.7030  -22.6350   20.3160 C   0  0  0  0  0  0  0  0  0  0  0  0
  -10.3840  -24.5290   21.1720 C   0  0  0  0  0  2  0  0  0  0  0  0
  -11.3300  -23.9660   20.1510 C   0  0  0  0  0  0  0  0  0  0  0  0
  -11.8500  -24.7140   19.0670 C   0  0  0  0  0  3  0  0  0  0  0  0
  -12.7210  -22.6460   18.1370 C   0  0  0  0  0  3  0  0  0  0  0  0
  -12.2390  -21.9420   19.2340 C   0  0  0  0  0  3  0  0  0  0  0  0
  -11.4660  -21.9640   21.6460 C   0  0  0  0  0  2  0  0  0  0  0  0
  -10.7290  -24.1990   22.5660 N   0  0  0  0  0  0  0  0  0  0  0  0
  -10.6670  -24.7170   24.7710 O   0  0  0  0  0  0  0  0  0  0  0  0
  -12.9000  -23.2870   23.3090 C   0  0  0  0  0  0  0  0  0  0  0  0
  -13.5140  -22.3750   24.0250 N   0  0  0  0  0  0  0  0  0  0  0  0
  -13.4310  -24.3710   23.0790 O   0  0  0  0  0  0  0  0  0  0  0  0
  -13.0460  -21.5000   24.2270 H   0  0  0  0  0  0  0  0  0  0  0  0
  -16.2560  -19.7220   25.0790 C   0  0  0  0  0  0  0  0  0  0  0  0
  -14.9090  -22.4860   24.4080 C   0  0  0  0  0  2  0  0  0  0  0  0
  -16.1220  -22.9150   22.7890 C   0  0  0  0  0 15  0  0  0  0  0  0
  -17.5430  -21.2370   22.2540 C   0  0  0  0  0 15  0  0  0  0  0  0
  -17.4750  -19.6670   23.6030 C   0  0  0  0  0  1  0  0  0  0  0  0
  -15.1900  -20.9250   25.4060 C   0  0  0  0  0  0  0  0  0  0  0  0
  -14.3830  -20.7870   26.5450 C   0  0  0  0  0  3  0  0  0  0  0  0
  -14.5410  -19.6990   27.4150 C   0  0  0  0  0  3  0  0  0  0  0  0
  -15.5140  -18.7080   27.1880 C   0  0  0  0  0  3  0  0  0  0  0  0
  -16.3480  -18.7150   26.0540 C   0  0  0  0  0  3  0  0  0  0  0  0
   -9.6560  -26.3530   23.3410 C   0  0  0  0  0  3  0  0  0  0  0  0
   -8.6080  -26.4480   24.3600 N   0  0  0  0  0  0  0  0  0  0  0  0
   -7.3340  -26.0810   24.1690 C   0  0  0  0  0  0  0  0  0  0  0  0
   -6.9020  -25.6920   23.0800 O   0  0  0  0  0  0  0  0  0  0  0  0
   -8.9020  -26.6960   25.2920 H   0  0  0  0  0  0  0  0  0  0  0  0
   -6.2180  -24.7700   26.0010 C   0  0  0  0  0  1  0  0  0  0  0  0
   -6.3900  -26.1650   25.3800 C   0  0  0  0  0  3  0  0  0  0  0  0
   -5.1150  -28.1470   24.6930 C   0  0  0  0  0  1  0  0  0  0  0  0
   -5.0660  -26.7310   25.0470 N   0  0  0  0  0  0  0  0  0  0  0  0
   -4.4230  -26.6240   25.8280 H   0  0  0  0  0  0  0  0  0  0  0  0
  -10.6060  -27.6110   23.3800 C   0  0  1  0  0  0  0  0  0  0  0  0
  -11.4950  -27.6730   24.6420 C   0  0  0  0  0  1  0  0  0  0  0  0
  -11.5400  -27.6490   22.1480 C   0  0  0  0  0  1  0  0  0  0  0  0
   -9.7500  -28.8940   23.3210 C   0  0  0  0  0  1  0  0  0  0  0  0
  1 52  1  0
  2  1  1  0
  3  2  1  0
  4  3  1  0
  5  4  1  0
  6  5  1  0
  7  6  1  0
  8 10  1  0
  9 11  2  0
 10 13  2  0
 11 13  1  0
 12  9  1  0
 12  8  2  0
 13  7  1  0
 14 22  1  0
 15 16  1  0
 15 20  1  0
 16 17  1  0
 18 17  1  0
 18 27  1  0
 19 18  1  0
 20 19  1  0
 20 14  1  0
 21 14  2  0
 22 23  1  0
 22 12  1  0
 24 25  2  0
 24 49  1  0
 25 44  1  0
 26 25  1  0
 27 24  1  0
 28 27  1  0
 28 26  2  0
 29 34  1  0
 29 26  1  0
 30 29  2  0
 31 32  2  0
 31 30  1  0
 32 33  1  0
 33 34  2  0
 35 32  1  0
 36 35  1  0
 36 37  1  0
 38 37  2  0
 39 38  1  0
 40 41  1  0
 40 39  2  0
 41 36  2  0
 42 41  1  0
 43 39  1  0
 44 45  1  0
 44 46  2  0
 45 48  1  0
 47 45  1  0
 49 50  1  0
 51 49  1  0
 53 55  1  0
 54 56  1  0
 54 53  1  0
 57 54  1  0
 58 57  1  0
 59 58  1  0
 60 59  1  0
 61 63  1  0
 61 60  1  0
 62 73  2  0
 63 68  1  0
 64 74  1  0
 65 71  1  0
 66 72  1  0
 67 65  1  0
 67 66  1  0
 68 67  2  0
 69 63  2  0
 69 70  1  0
 70 65  2  0
 71 64  1  0
 72 64  1  0
 72 62  1  0
 74 75  1  0
 75 77  1  0
 75 79  1  0
 76 74  2  0
 78 83  2  0
 78 87  1  0
 79 83  1  0
 82 78  1  0
 83 84  1  0
 84 85  2  0
 86 85  1  0
 87 86  2  0
 88 98  1  0
 88 62  1  0
 88 89  1  0
 89 92  1  0
 90 89  1  0
 90 94  1  0
 91 90  2  0
 94 93  1  0
 95 96  1  0
 96 94  1  0
 96 97  1  0
 98 99  1  1
100 98  1  0
101 98  1  0
M  ISO  4  14 100  22 100  60 101  61 101
M  END
>  <TORSDO>  (71) 
F 29

>  <SCORE>  (71) 
36.370

>  <name>  (71) 
71

>  <ligand_id>  (71) 
71

>  <original_smiles>  (71) 
[H]c1c([H])c([H])c2c(c1[H])C([H])([H])C([H])([H])C([H])([H])C2([H])N([H])C(=O)C1([H])N(C(=O)C([H])(N([H])C(=O)C([H])(N([H])C([H])([H])[H])C([H])([H])[H])C(C([H])([H])[H])(C([H])([H])[H])C([H])([H])[H])C([H])([H])c2c([H])c(OC([H])([H])C([H])([H])C([H])([H])C([H])([H])N([H])C(=O)C([H])([H])OC([H])([H])C([H])([H])OC([H])([H])C([H])([H])Oc3c([H])c([H])c(N([H])C(=O)N4C([H])([H])C([H])([H])C([H])([H])C([H])(n5nc(-c6c([H])c([H])c(Oc7c([H])c([H])c(F)c([H])c7F)c([H])c6[H])c(C(=O)N([H])[H])c5N([H])[H])C4([H])[H])c([H])c3[H])c([H])c([H])c2C1([H])[H]

>  <smiles>  (71) 
[H]c1c([H])c([H])c2c(c1[H])C([H])([H])C([H])([H])C([H])([H])C2([H])N([H])C(=O)C1([H])N(C(=O)C([H])(N([H])C(=O)C([H])(N([H])C([H])([H])[H])C([H])([H])[H])C(C([H])([H])[H])(C([H])([H])[H])C([H])([H])[H])C([H])([H])c2c([H])c(OC([H])([H])C([H])([H])C([H])([H])C([H])([H])N([H])C(=O)C([H])([H])OC([H])([H])C([H])([H])OC([H])([H])C([H])([H])Oc3c([H])c([H])c(N([H])C(=O)N4C([H])([H])C([H])([H])C([H])([H])C([H])(n5nc(-c6c([H])c([H])c(Oc7c([H])c([H])c(F)c([H])c7F)c([H])c6[H])c(C(=O)N([H])[H])c5N([H])[H])C4([H])[H])c([H])c3[H])c([H])c([H])c2C1([H])[H]

$$$$
72:0:0
     RDKit          3D

 93100  0  0  1  0  0  0  0  0999 V2000
  -25.1720  -23.3380   22.0120 O   0  0  0  0  0  0  0  0  0  0  0  0
  -26.2330  -22.5500   22.5490 C   0  0  0  0  0  2  0  0  0  0  0  0
  -27.1620  -22.1360   21.4030 C   0  0  0  0  0  2  0  0  0  0  0  0
  -27.8580  -23.2870   20.9350 O   0  0  0  0  0  0  0  0  0  0  0  0
  -28.6680  -23.0240   19.7970 C   0  0  0  0  0  2  0  0  0  0  0  0
  -29.5750  -24.2400   19.5130 C   0  0  0  0  0  2  0  0  0  0  0  0
  -30.8040  -24.2090   20.2400 O   0  0  0  0  0  0  0  0  0  0  0  0
  -31.4300  -22.9330   20.2120 C   0  0  0  0  0  2  0  0  0  0  0  0
  -32.7020  -22.9100   21.0740 C   0  0  0  0  0  2  0  0  0  0  0  0
  -33.9700  -20.7620   21.0540 C   0  0  0  0  0  0  0  0  0  0  0  0
  -34.6360  -18.4370   20.5590 C   0  0  0  0  0  2  0  0  0  0  0  0
  -34.2500  -18.0470   19.1180 C   0  0  0  0  0  2  0  0  0  0  0  0
  -32.7880  -17.5610   19.0440 C   0  0  0  0  0  2  0  0  0  0  0  0
  -31.8040  -18.5330   19.7430 C   0  0  0  0  0  3  0  0  0  0  0  0
  -32.3180  -18.8710   21.1600 C   0  0  0  0  0  2  0  0  0  0  0  0
  -33.6770  -19.4380   21.0480 N   0  0  0  0  0  0  0  0  0  0  0  0
  -35.0520  -21.2340   20.6970 O   0  0  0  0  0  0  0  0  0  0  0  0
  -32.9600  -21.5300   21.4660 N   0  0  0  0  0  0  0  0  0  0  0  0
  -32.1740  -21.0280   21.8550 H   0  0  0  0  0  0  0  0  0  0  0  0
  -29.2290  -18.6350   19.6990 C   0  0  0  0  0  0  0  0  0  0  0  0
  -28.2770  -17.6520   19.7250 C   0  0  0  0  0  0  0  0  0  0  0  0
  -28.9880  -16.4160   19.8140 C   0  0  0  0  0  0  0  0  0  0  0  0
  -30.4510  -17.9850   19.7830 N   0  0  0  0  0  0  0  0  0  0  0  0
  -30.2910  -16.6430   19.9070 N   0  0  0  0  0  0  0  0  0  0  0  0
  -28.5070  -15.0300   19.7650 C   0  0  0  0  0  0  0  0  0  0  0  0
  -28.7270  -14.1350   20.8330 C   0  0  0  0  0  3  0  0  0  0  0  0
  -28.2440  -12.8100   20.7690 C   0  0  0  0  0  3  0  0  0  0  0  0
  -27.5260  -12.3710   19.6300 C   0  0  0  0  0  0  0  0  0  0  0  0
  -27.3310  -13.2600   18.5580 C   0  0  0  0  0  3  0  0  0  0  0  0
  -27.8180  -14.5750   18.6210 C   0  0  0  0  0  3  0  0  0  0  0  0
  -27.0370  -11.0970   19.4710 O   0  0  0  0  0  0  0  0  0  0  0  0
  -26.5820  -10.3630   20.5370 C   0  0  0  0  0  0  0  0  0  0  0  0
  -25.5340  -10.8190   21.3660 C   0  0  0  0  0  3  0  0  0  0  0  0
  -25.0500   -9.9980   22.4040 C   0  0  0  0  0  3  0  0  0  0  0  0
  -25.6010   -8.7200   22.6100 C   0  0  0  0  0  0  0  0  0  0  0  0
  -26.6430   -8.2630   21.7820 C   0  0  0  0  0  3  0  0  0  0  0  0
  -27.1270   -9.0800   20.7470 C   0  0  0  0  0  0  0  0  0  0  0  0
  -28.1140   -8.6240   19.9380 F   0  0  0  0  0  0  0  0  0  0  0  0
  -25.1330   -7.9280   23.6030 F   0  0  0  0  0  0  0  0  0  0  0  0
  -26.7940  -17.8330   19.5780 C   0  0  0  0  0  0  0  0  0  0  0  0
  -26.0020  -16.9500   20.1780 N   0  0  0  0  0  0  0  0  0  0  0  0
  -26.3260  -18.7950   18.9700 O   0  0  0  0  0  0  0  0  0  0  0  0
  -26.3800  -16.1720   20.6990 H   0  0  0  0  0  0  0  0  0  0  0  0
  -24.9990  -17.0520   20.1100 H   0  0  0  0  0  0  0  0  0  0  0  0
  -29.1610  -20.0220   19.5910 N   0  0  0  0  0  0  0  0  0  0  0  0
  -28.2780  -20.4970   19.4340 H   0  0  0  0  0  0  0  0  0  0  0  0
  -29.9640  -20.6210   19.4610 H   0  0  0  0  0  0  0  0  0  0  0  0
  -24.9040  -24.5320   22.7430 C   0  0  0  0  0  2  0  0  0  0  0  0
  -26.0460  -25.5490   22.5820 C   0  0  0  0  0  2  0  0  0  0  0  0
  -26.3250  -25.7290   21.1990 O   0  0  0  0  0  0  0  0  0  0  0  0
  -27.7110  -25.8930   20.9330 C   0  0  0  0  0  2  0  0  0  0  0  0
  -27.9270  -26.4910   19.5320 C   0  0  0  0  0  2  0  0  0  0  0  0
  -27.9490  -27.9210   19.5800 O   0  0  0  0  0  0  0  0  0  0  0  0
  -24.5820  -32.4860   23.8510 C   0  0  0  0  0  0  0  0  0  0  0  0
  -26.7770  -28.6050   19.8200 C   0  0  0  0  0  0  0  0  0  0  0  0
  -23.1840  -31.4170   22.1130 C   0  0  0  0  0  3  0  0  0  0  0  0
  -24.4440  -30.1210   20.3180 C   0  0  0  0  0  0  0  0  0  0  0  0
  -25.6910  -31.7550   21.7440 C   0  0  0  0  0  2  0  0  0  0  0  0
  -25.6680  -30.5160   20.8720 C   0  0  0  0  0  0  0  0  0  0  0  0
  -26.8360  -29.7680   20.6170 C   0  0  0  0  0  3  0  0  0  0  0  0
  -25.5330  -28.2160   19.2720 C   0  0  0  0  0  3  0  0  0  0  0  0
  -24.3700  -28.9690   19.5180 C   0  0  0  0  0  3  0  0  0  0  0  0
  -23.2430  -30.9840   20.6240 C   0  0  0  0  0  2  0  0  0  0  0  0
  -24.5100  -31.8890   22.6270 N   0  0  0  0  0  0  0  0  0  0  0  0
  -23.5650  -32.6820   24.5290 O   0  0  0  0  0  0  0  0  0  0  0  0
  -22.5850  -30.2560   22.9400 C   0  0  0  0  0  0  0  0  0  0  0  0
  -21.2770  -30.0070   22.7620 N   0  0  0  0  0  0  0  0  0  0  0  0
  -23.2940  -29.5870   23.6960 O   0  0  0  0  0  0  0  0  0  0  0  0
  -20.7650  -30.6070   22.1320 H   0  0  0  0  0  0  0  0  0  0  0  0
  -18.0310  -28.4260   22.8830 C   0  0  0  0  0  0  0  0  0  0  0  0
  -20.5100  -28.9410   23.4050 C   0  0  0  0  0  3  0  0  0  0  0  0
  -20.8240  -27.5670   22.7700 C   0  0  0  0  0  2  0  0  0  0  0  0
  -19.8570  -27.1890   21.6430 C   0  0  0  0  0  2  0  0  0  0  0  0
  -18.4170  -27.1460   22.1610 C   0  0  0  0  0  2  0  0  0  0  0  0
  -19.0150  -29.2770   23.4520 C   0  0  0  0  0  0  0  0  0  0  0  0
  -18.6040  -30.4740   24.0810 C   0  0  0  0  0  3  0  0  0  0  0  0
  -17.2410  -30.8200   24.1480 C   0  0  0  0  0  3  0  0  0  0  0  0
  -16.2710  -29.9670   23.5960 C   0  0  0  0  0  3  0  0  0  0  0  0
  -16.6660  -28.7710   22.9690 C   0  0  0  0  0  3  0  0  0  0  0  0
  -25.9420  -32.9700   24.4450 C   0  0  0  0  0  3  0  0  0  0  0  0
  -26.4700  -32.0580   25.6190 C   0  0  1  0  0  0  0  0  0  0  0  0
  -25.4150  -31.7830   26.7150 C   0  0  0  0  0  1  0  0  0  0  0  0
  -26.9540  -30.6940   25.0750 C   0  0  0  0  0  1  0  0  0  0  0  0
  -27.6960  -32.7260   26.2880 C   0  0  0  0  0  1  0  0  0  0  0  0
  -25.7540  -34.3520   24.9040 N   0  0  0  0  0  0  0  0  0  0  0  0
  -26.1440  -35.4400   24.2250 C   0  0  0  0  0  0  0  0  0  0  0  0
  -26.7700  -35.3760   23.1640 O   0  0  0  0  0  0  0  0  0  0  0  0
  -25.2020  -34.4810   25.7390 H   0  0  0  0  0  0  0  0  0  0  0  0
  -24.5540  -37.3820   24.0820 C   0  0  0  0  0  1  0  0  0  0  0  0
  -25.7800  -36.8150   24.8160 C   0  0  0  0  0  3  0  0  0  0  0  0
  -27.9990  -37.4550   25.6470 C   0  0  0  0  0  1  0  0  0  0  0  0
  -26.8890  -37.7920   24.7600 N   0  0  0  0  0  0  0  0  0  0  0  0
  -26.5620  -38.7240   25.0000 H   0  0  0  0  0  0  0  0  0  0  0  0
  1  2  1  0
  1 48  1  0
  3  2  1  0
  4  3  1  0
  5  4  1  0
  6  5  1  0
  6  7  1  0
  8  7  1  0
  8  9  1  0
  9 18  1  0
 10 18  1  0
 11 16  1  0
 12 11  1  0
 13 12  1  0
 14 13  1  0
 14 23  1  0
 14 15  1  0
 16 10  1  0
 16 15  1  0
 17 10  2  0
 18 19  1  0
 20 21  2  0
 20 23  1  0
 21 22  1  0
 22 24  2  0
 23 24  1  0
 25 22  1  0
 25 26  1  0
 27 26  2  0
 28 27  1  0
 29 30  1  0
 29 28  2  0
 30 25  2  0
 31 28  1  0
 31 32  1  0
 32 37  2  0
 32 33  1  0
 33 34  2  0
 34 35  1  0
 35 39  1  0
 36 35  2  0
 37 36  1  0
 38 37  1  0
 40 21  1  0
 40 41  1  0
 41 43  1  0
 42 40  2  0
 44 41  1  0
 45 20  1  0
 46 45  1  0
 47 45  1  0
 49 48  1  0
 50 49  1  0
 51 50  1  0
 52 53  1  0
 52 51  1  0
 53 55  1  0
 54 65  2  0
 55 60  1  0
 56 64  1  0
 56 66  1  0
 57 63  1  0
 57 59  1  0
 58 64  1  0
 59 58  1  0
 60 59  2  0
 61 62  1  0
 61 55  2  0
 62 57  2  0
 63 56  1  0
 64 54  1  0
 66 68  2  0
 67 66  1  0
 69 67  1  0
 70 79  2  0
 70 75  1  0
 71 67  1  0
 71 75  1  0
 72 71  1  0
 73 74  1  0
 73 72  1  0
 74 70  1  0
 75 76  2  0
 76 77  1  0
 78 77  2  0
 79 78  1  0
 80 54  1  0
 80 85  1  0
 80 81  1  0
 81 84  1  1
 81 82  1  0
 83 81  1  0
 85 88  1  0
 86 90  1  0
 86 85  1  0
 87 86  2  0
 90 89  1  0
 92 90  1  0
 92 93  1  0
 92 91  1  0
M  ISO  4  10 100  18 100  52 101  53 101
M  END
>  <TORSDO>  (72) 
F 29

>  <SCORE>  (72) 
-2.990

>  <name>  (72) 
72

>  <ligand_id>  (72) 
72

>  <original_smiles>  (72) 
[H]c1c([H])c([H])c2c(c1[H])C([H])([H])C([H])([H])C([H])([H])C2([H])N([H])C(=O)C1([H])N(C(=O)C([H])(N([H])C(=O)C([H])(N([H])C([H])([H])[H])C([H])([H])[H])C(C([H])([H])[H])(C([H])([H])[H])C([H])([H])[H])C([H])([H])c2c([H])c(OC([H])([H])C([H])([H])OC([H])([H])C([H])([H])OC([H])([H])C([H])([H])OC([H])([H])C([H])([H])OC([H])([H])C([H])([H])N([H])C(=O)N3C([H])([H])C([H])([H])C([H])([H])C([H])(n4nc(-c5c([H])c([H])c(Oc6c([H])c([H])c(F)c([H])c6F)c([H])c5[H])c(C(=O)N([H])[H])c4N([H])[H])C3([H])[H])c([H])c([H])c2C1([H])[H]

>  <smiles>  (72) 
[H]c1c([H])c([H])c2c(c1[H])C([H])([H])C([H])([H])C([H])([H])C2([H])N([H])C(=O)C1([H])N(C(=O)C([H])(N([H])C(=O)C([H])(N([H])C([H])([H])[H])C([H])([H])[H])C(C([H])([H])[H])(C([H])([H])[H])C([H])([H])[H])C([H])([H])c2c([H])c(OC([H])([H])C([H])([H])OC([H])([H])C([H])([H])OC([H])([H])C([H])([H])OC([H])([H])C([H])([H])OC([H])([H])C([H])([H])N([H])C(=O)N3C([H])([H])C([H])([H])C([H])([H])C([H])(n4nc(-c5c([H])c([H])c(Oc6c([H])c([H])c(F)c([H])c6F)c([H])c5[H])c(C(=O)N([H])[H])c4N([H])[H])C3([H])[H])c([H])c([H])c2C1([H])[H]

$$$$
73:0:0
     RDKit          3D

 85 92  0  0  1  0  0  0  0  0999 V2000
  -28.0660  -24.1790   19.9010 C   0  0  0  0  0  0  0  0  0  0  0  0
  -27.2950  -23.8730   18.9890 O   0  0  0  0  0  0  0  0  0  0  0  0
  -28.1750  -25.8240   20.3180 O   0  0  0  0  0  0  0  0  0  0  0  0
  -24.6240  -31.8440   23.1780 C   0  0  0  0  0  0  0  0  0  0  0  0
  -27.1940  -26.9490   20.1740 C   0  0  0  0  0  0  0  0  0  0  0  0
  -23.4370  -30.4420   21.5410 C   0  0  0  0  0  3  0  0  0  0  0  0
  -24.8920  -28.8390   20.1220 C   0  0  0  0  0  0  0  0  0  0  0  0
  -26.0040  -30.6490   21.4060 C   0  0  0  0  0  2  0  0  0  0  0  0
  -26.0770  -29.2380   20.7520 C   0  0  0  0  0  0  0  0  0  0  0  0
  -27.2160  -28.3120   20.7630 C   0  0  0  0  0  3  0  0  0  0  0  0
  -25.9790  -26.7170   19.4850 C   0  0  0  0  0  3  0  0  0  0  0  0
  -24.8690  -27.5980   19.4700 C   0  0  0  0  0  3  0  0  0  0  0  0
  -23.6710  -29.7570   20.1670 C   0  0  0  0  0  2  0  0  0  0  0  0
  -24.7100  -31.0050   22.0950 N   0  0  0  0  0  0  0  0  0  0  0  0
  -23.5330  -32.1360   23.6940 O   0  0  0  0  0  0  0  0  0  0  0  0
  -22.7400  -29.4490   22.5080 C   0  0  0  0  0  0  0  0  0  0  0  0
  -21.4080  -29.2890   22.3870 N   0  0  0  0  0  0  0  0  0  0  0  0
  -23.4040  -28.8230   23.3370 O   0  0  0  0  0  0  0  0  0  0  0  0
  -20.9240  -29.8440   21.6950 H   0  0  0  0  0  0  0  0  0  0  0  0
  -18.0250  -28.0820   22.8970 C   0  0  0  0  0  0  0  0  0  0  0  0
  -20.5850  -28.3550   23.1620 C   0  0  0  0  0  3  0  0  0  0  0  0
  -20.6900  -26.9200   22.5950 C   0  0  0  0  0  2  0  0  0  0  0  0
  -19.5880  -26.5890   21.5810 C   0  0  0  0  0  2  0  0  0  0  0  0
  -18.2060  -26.7310   22.2240 C   0  0  0  0  0  2  0  0  0  0  0  0
  -19.1420  -28.8510   23.3220 C   0  0  0  0  0  0  0  0  0  0  0  0
  -18.9150  -30.1120   23.9160 C   0  0  0  0  0  3  0  0  0  0  0  0
  -17.6090  -30.6060   24.0850 C   0  0  0  0  0  3  0  0  0  0  0  0
  -16.5080  -29.8350   23.6730 C   0  0  0  0  0  3  0  0  0  0  0  0
  -16.7170  -28.5760   23.0840 C   0  0  0  0  0  3  0  0  0  0  0  0
  -25.8930  -32.4920   23.8110 C   0  0  0  0  0  3  0  0  0  0  0  0
  -26.4020  -31.7260   25.0960 C   0  0  1  0  0  0  0  0  0  0  0  0
  -25.3040  -31.4940   26.1600 C   0  0  0  0  0  1  0  0  0  0  0  0
  -26.9890  -30.3460   24.7220 C   0  0  0  0  0  1  0  0  0  0  0  0
  -27.5490  -32.5250   25.7600 C   0  0  0  0  0  1  0  0  0  0  0  0
  -25.5690  -33.8880   24.1500 N   0  0  0  0  0  0  0  0  0  0  0  0
  -25.8950  -34.9550   23.4090 C   0  0  0  0  0  0  0  0  0  0  0  0
  -26.5640  -34.8670   22.3750 O   0  0  0  0  0  0  0  0  0  0  0  0
  -24.9730  -34.0290   24.9530 H   0  0  0  0  0  0  0  0  0  0  0  0
  -24.1560  -36.7500   23.0910 C   0  0  0  0  0  1  0  0  0  0  0  0
  -25.4060  -36.3390   23.8860 C   0  0  0  0  0  3  0  0  0  0  0  0
  -27.5440  -37.2270   24.7070 C   0  0  0  0  0  1  0  0  0  0  0  0
  -26.4330  -37.3980   23.7750 N   0  0  0  0  0  0  0  0  0  0  0  0
  -26.0230  -38.3150   23.9360 H   0  0  0  0  0  0  0  0  0  0  0  0
  -28.8560  -22.7790   20.6040 C   0  0  0  0  0  2  0  0  0  0  0  0
  -28.9700  -21.2570   19.9730 O   0  0  0  0  0  0  0  0  0  0  0  0
  -29.2310  -19.7590   20.6170 C   0  0  0  0  0  2  0  0  0  0  0  0
  -29.8650  -18.1870   19.9780 C   0  0  0  0  0  2  0  0  0  0  0  0
  -30.4380  -15.2960   20.2430 C   0  0  0  0  0  0  0  0  0  0  0  0
  -30.3910  -12.8510   19.3750 C   0  0  0  0  0  2  0  0  0  0  0  0
  -29.4740  -12.6620   18.1400 C   0  0  0  0  0  2  0  0  0  0  0  0
  -28.0220  -12.4000   18.5760 C   0  0  0  0  0  2  0  0  0  0  0  0
  -27.5780  -13.3580   19.7090 C   0  0  0  0  0  3  0  0  0  0  0  0
  -28.6250  -13.4980   20.8360 C   0  0  0  0  0  2  0  0  0  0  0  0
  -29.8630  -13.9930   20.2130 N   0  0  0  0  0  0  0  0  0  0  0  0
  -31.6420  -15.2960   19.9520 O   0  0  0  0  0  0  0  0  0  0  0  0
  -29.6940  -16.5720   20.3960 N   0  0  0  0  0  0  0  0  0  0  0  0
  -28.7480  -16.3770   20.6900 H   0  0  0  0  0  0  0  0  0  0  0  0
  -25.2050  -13.9200   20.4470 C   0  0  0  0  0  0  0  0  0  0  0  0
  -24.1430  -13.1460   20.8200 C   0  0  0  0  0  0  0  0  0  0  0  0
  -24.6110  -11.7960   20.8040 C   0  0  0  0  0  0  0  0  0  0  0  0
  -26.2490  -13.0440   20.2150 N   0  0  0  0  0  0  0  0  0  0  0  0
  -25.9050  -11.7600   20.4990 N   0  0  0  0  0  0  0  0  0  0  0  0
  -23.8840  -10.5350   21.0040 C   0  0  0  0  0  0  0  0  0  0  0  0
  -24.3180   -9.5700   21.9400 C   0  0  0  0  0  3  0  0  0  0  0  0
  -23.5880   -8.3770   22.1280 C   0  0  0  0  0  3  0  0  0  0  0  0
  -22.4110   -8.1390   21.3820 C   0  0  0  0  0  0  0  0  0  0  0  0
  -21.9960   -9.0910   20.4340 C   0  0  0  0  0  3  0  0  0  0  0  0
  -22.7260  -10.2770   20.2430 C   0  0  0  0  0  3  0  0  0  0  0  0
  -21.6520   -6.9960   21.4790 O   0  0  0  0  0  0  0  0  0  0  0  0
  -21.6160   -6.2530   22.6310 C   0  0  0  0  0  0  0  0  0  0  0  0
  -21.2240   -6.8110   23.8660 C   0  0  0  0  0  3  0  0  0  0  0  0
  -21.1340   -5.9940   25.0110 C   0  0  0  0  0  3  0  0  0  0  0  0
  -21.4260   -4.6210   24.9210 C   0  0  0  0  0  0  0  0  0  0  0  0
  -21.8120   -4.0610   23.6900 C   0  0  0  0  0  3  0  0  0  0  0  0
  -21.9030   -4.8750   22.5480 C   0  0  0  0  0  0  0  0  0  0  0  0
  -22.2550   -4.3270   21.3600 F   0  0  0  0  0  0  0  0  0  0  0  0
  -21.3320   -3.8340   26.0200 F   0  0  0  0  0  0  0  0  0  0  0  0
  -22.7430  -13.6240   21.0760 C   0  0  0  0  0  0  0  0  0  0  0  0
  -22.0130  -12.9410   21.9480 N   0  0  0  0  0  0  0  0  0  0  0  0
  -22.3100  -14.6420   20.5360 O   0  0  0  0  0  0  0  0  0  0  0  0
  -22.3780  -12.1190   22.4050 H   0  0  0  0  0  0  0  0  0  0  0  0
  -21.0740  -13.2450   22.1630 H   0  0  0  0  0  0  0  0  0  0  0  0
  -25.3660  -15.2900   20.2550 N   0  0  0  0  0  0  0  0  0  0  0  0
  -24.5950  -15.9420   20.3550 H   0  0  0  0  0  0  0  0  0  0  0  0
  -26.2050  -15.7230   19.8920 H   0  0  0  0  0  0  0  0  0  0  0  0
  1  3  1  0
  1 44  1  0
  2  1  2  0
  4 15  2  0
  5  3  1  0
  5 10  1  0
  6 14  1  0
  6 16  1  0
  7 13  1  0
  7  9  1  0
  8 14  1  0
  9 10  2  0
  9  8  1  0
 11  5  2  0
 12 11  1  0
 12  7  2  0
 13  6  1  0
 14  4  1  0
 16 18  2  0
 17 16  1  0
 19 17  1  0
 20 29  2  0
 20 25  1  0
 21 17  1  0
 21 25  1  0
 22 21  1  0
 23 24  1  0
 23 22  1  0
 24 20  1  0
 25 26  2  0
 26 27  1  0
 28 27  2  0
 29 28  1  0
 30  4  1  0
 30 35  1  0
 30 31  1  0
 31 34  1  1
 31 32  1  0
 33 31  1  0
 35 38  1  0
 36 40  1  0
 36 35  1  0
 37 36  2  0
 40 39  1  0
 42 40  1  0
 42 43  1  0
 42 41  1  0
 45 44  1  0
 45 46  1  0
 47 56  1  0
 47 46  1  0
 48 56  1  0
 49 54  1  0
 50 51  1  0
 50 49  1  0
 52 51  1  0
 52 61  1  0
 52 53  1  0
 54 48  1  0
 54 53  1  0
 55 48  2  0
 56 57  1  0
 58 59  2  0
 59 78  1  0
 60 59  1  0
 60 63  1  0
 61 58  1  0
 61 62  1  0
 62 60  2  0
 63 64  1  0
 64 65  2  0
 66 69  1  0
 66 65  1  0
 67 66  2  0
 68 67  1  0
 68 63  2  0
 69 70  1  0
 70 71  1  0
 71 72  2  0
 73 72  1  0
 73 77  1  0
 74 73  2  0
 75 70  2  0
 75 74  1  0
 76 75  1  0
 78 79  1  0
 79 82  1  0
 79 81  1  0
 80 78  2  0
 83 84  1  0
 83 58  1  0
 85 83  1  0
M  ISO  4   1 101   3 101  48 100  56 100
M  END
>  <TORSDO>  (73) 
F 20

>  <SCORE>  (73) 
-16.362

>  <name>  (73) 
73

>  <ligand_id>  (73) 
73

>  <original_smiles>  (73) 
[H]c1c([H])c([H])c2c(c1[H])C([H])([H])C([H])([H])C([H])([H])C2([H])N([H])C(=O)C1([H])N(C(=O)C([H])(N([H])C(=O)C([H])(N([H])C([H])([H])[H])C([H])([H])[H])C(C([H])([H])[H])(C([H])([H])[H])C([H])([H])[H])C([H])([H])c2c([H])c(OC(=O)C([H])([H])OC([H])([H])C([H])([H])N([H])C(=O)N3C([H])([H])C([H])([H])C([H])([H])C([H])(n4nc(-c5c([H])c([H])c(Oc6c([H])c([H])c(F)c([H])c6F)c([H])c5[H])c(C(=O)N([H])[H])c4N([H])[H])C3([H])[H])c([H])c([H])c2C1([H])[H]

>  <smiles>  (73) 
[H]c1c([H])c([H])c2c(c1[H])C([H])([H])C([H])([H])C([H])([H])C2([H])N([H])C(=O)C1([H])N(C(=O)C([H])(N([H])C(=O)C([H])(N([H])C([H])([H])[H])C([H])([H])[H])C(C([H])([H])[H])(C([H])([H])[H])C([H])([H])[H])C([H])([H])c2c([H])c(OC(=O)C([H])([H])OC([H])([H])C([H])([H])N([H])C(=O)N3C([H])([H])C([H])([H])C([H])([H])C([H])(n4nc(-c5c([H])c([H])c(Oc6c([H])c([H])c(F)c([H])c6F)c([H])c5[H])c(C(=O)N([H])[H])c4N([H])[H])C3([H])[H])c([H])c([H])c2C1([H])[H]

$$$$
74:0:0
     RDKit          3D

 99107  0  0  1  0  0  0  0  0999 V2000
  -25.8190  -22.7400   16.9140 C   0  0  0  0  0  0  0  0  0  0  0  0
  -25.7480  -21.6380   17.6680 N   0  0  0  0  0  0  0  0  0  0  0  0
  -25.0380  -22.9520   15.9850 O   0  0  0  0  0  0  0  0  0  0  0  0
  -26.3750  -21.5520   18.4540 H   0  0  0  0  0  0  0  0  0  0  0  0
  -28.1390  -23.3290   17.7760 C   0  0  0  0  0  3  0  0  0  0  0  0
  -26.6850  -25.1190   17.0290 C   0  0  0  0  0  3  0  0  0  0  0  0
  -29.1480  -24.2690   18.0740 C   0  0  0  0  0  3  0  0  0  0  0  0
  -27.6950  -26.0620   17.3140 C   0  0  0  0  0  3  0  0  0  0  0  0
  -26.8870  -23.7430   17.2730 C   0  0  0  0  0  0  0  0  0  0  0  0
  -28.9280  -25.6460   17.8590 C   0  0  0  0  0  0  0  0  0  0  0  0
  -30.0410  -26.6560   18.1350 C   0  0  0  0  0  2  0  0  0  0  0  0
  -29.6560  -27.8910   18.9810 C   0  0  0  0  0  2  0  0  0  0  0  0
  -28.9630  -27.5450   20.1830 O   0  0  0  0  0  0  0  0  0  0  0  0
  -25.0220  -32.1190   24.0090 C   0  0  0  0  0  0  0  0  0  0  0  0
  -27.7830  -28.2280   20.3450 C   0  0  0  0  0  0  0  0  0  0  0  0
  -23.8570  -30.9430   22.1680 C   0  0  0  0  0  3  0  0  0  0  0  0
  -25.3530  -29.6360   20.5650 C   0  0  0  0  0  0  0  0  0  0  0  0
  -26.3780  -31.3590   22.0670 C   0  0  0  0  0  2  0  0  0  0  0  0
  -26.4930  -30.0960   21.2380 C   0  0  0  0  0  0  0  0  0  0  0  0
  -27.7160  -29.3970   21.1320 C   0  0  0  0  0  3  0  0  0  0  0  0
  -26.6280  -27.7580   19.6950 C   0  0  0  0  0  3  0  0  0  0  0  0
  -25.4130  -28.4600   19.7930 C   0  0  0  0  0  3  0  0  0  0  0  0
  -24.0940  -30.4610   20.7110 C   0  0  0  0  0  2  0  0  0  0  0  0
  -25.1000  -31.4830   22.8060 N   0  0  0  0  0  0  0  0  0  0  0  0
  -23.9310  -32.2940   24.5690 O   0  0  0  0  0  0  0  0  0  0  0  0
  -23.2120  -29.7870   22.9690 C   0  0  0  0  0  0  0  0  0  0  0  0
  -21.9290  -29.5080   22.6840 N   0  0  0  0  0  0  0  0  0  0  0  0
  -23.8670  -29.1500   23.7990 O   0  0  0  0  0  0  0  0  0  0  0  0
  -21.4630  -30.0830   21.9950 H   0  0  0  0  0  0  0  0  0  0  0  0
  -18.7030  -27.8830   22.5840 C   0  0  0  0  0  0  0  0  0  0  0  0
  -21.1280  -28.4380   23.2800 C   0  0  0  0  0  3  0  0  0  0  0  0
  -21.5070  -27.0610   22.6880 C   0  0  0  0  0  2  0  0  0  0  0  0
  -20.6310  -26.6560   21.4970 C   0  0  0  0  0  2  0  0  0  0  0  0
  -19.1560  -26.5990   21.9110 C   0  0  0  0  0  2  0  0  0  0  0  0
  -19.6310  -28.7530   23.2140 C   0  0  0  0  0  0  0  0  0  0  0  0
  -19.1600  -29.9520   23.7950 C   0  0  0  0  0  3  0  0  0  0  0  0
  -17.7940  -30.2820   23.7590 C   0  0  0  0  0  3  0  0  0  0  0  0
  -16.8760  -29.4060   23.1520 C   0  0  0  0  0  3  0  0  0  0  0  0
  -17.3310  -28.2090   22.5700 C   0  0  0  0  0  3  0  0  0  0  0  0
  -26.2940  -32.6730   24.7240 C   0  0  0  0  0  3  0  0  0  0  0  0
  -26.0210  -34.0680   25.0900 N   0  0  0  0  0  0  0  0  0  0  0  0
  -26.4600  -35.1340   24.4090 C   0  0  0  0  0  0  0  0  0  0  0  0
  -27.2120  -35.0390   23.4340 O   0  0  0  0  0  0  0  0  0  0  0  0
  -25.3740  -34.2160   25.8520 H   0  0  0  0  0  0  0  0  0  0  0  0
  -24.8610  -37.0260   23.9790 C   0  0  0  0  0  1  0  0  0  0  0  0
  -25.9960  -36.5240   24.8850 C   0  0  0  0  0  3  0  0  0  0  0  0
  -28.0790  -37.2570   25.9600 C   0  0  0  0  0  1  0  0  0  0  0  0
  -27.0830  -37.5260   24.9250 N   0  0  0  0  0  0  0  0  0  0  0  0
  -26.7090  -38.4570   25.0810 H   0  0  0  0  0  0  0  0  0  0  0  0
  -26.7100  -31.8320   25.9950 C   0  0  1  0  0  0  0  0  0  0  0  0
  -25.5460  -31.5690   26.9780 C   0  0  0  0  0  1  0  0  0  0  0  0
  -27.2940  -30.4600   25.5800 C   0  0  0  0  0  1  0  0  0  0  0  0
  -27.8300  -32.5710   26.7680 C   0  0  0  0  0  1  0  0  0  0  0  0
  -24.8950  -20.4840   17.3770 C   0  0  0  0  0  2  0  0  0  0  0  0
  -25.2860  -19.2870   18.2550 C   0  0  0  0  0  2  0  0  0  0  0  0
  -26.7030  -19.1980   18.2110 O   0  0  0  0  0  0  0  0  0  0  0  0
  -27.3460  -18.8390   19.4230 C   0  0  0  0  0  2  0  0  0  0  0  0
  -28.7960  -19.3250   19.2640 C   0  0  0  0  0  2  0  0  0  0  0  0
  -29.6630  -18.9780   20.3420 O   0  0  0  0  0  0  0  0  0  0  0  0
  -29.6840  -17.5890   20.6040 C   0  0  0  0  0  2  0  0  0  0  0  0
  -30.9210  -17.1910   21.4220 C   0  0  0  0  0  2  0  0  0  0  0  0
  -31.4830  -14.8900   20.8370 C   0  0  0  0  0  0  0  0  0  0  0  0
  -31.1700  -12.8930   19.4350 C   0  0  0  0  0  2  0  0  0  0  0  0
  -30.3300  -13.2810   18.1980 C   0  0  0  0  0  2  0  0  0  0  0  0
  -28.8190  -13.1720   18.5080 C   0  0  0  0  0  2  0  0  0  0  0  0
  -28.4220  -13.8710   19.8410 C   0  0  0  0  0  3  0  0  0  0  0  0
  -29.3930  -13.4840   20.9870 C   0  0  0  0  0  2  0  0  0  0  0  0
  -30.7770  -13.7660   20.5480 N   0  0  0  0  0  0  0  0  0  0  0  0
  -32.5640  -15.1800   20.3170 O   0  0  0  0  0  0  0  0  0  0  0  0
  -30.8590  -15.7500   21.6350 N   0  0  0  0  0  0  0  0  0  0  0  0
  -30.0430  -15.3900   22.1090 H   0  0  0  0  0  0  0  0  0  0  0  0
  -25.9470  -14.4470   20.2790 C   0  0  0  0  0  0  0  0  0  0  0  0
  -24.8650  -13.6650   20.5900 C   0  0  0  0  0  0  0  0  0  0  0  0
  -25.3600  -12.3260   20.6710 C   0  0  0  0  0  0  0  0  0  0  0  0
  -27.0330  -13.5860   20.2020 N   0  0  0  0  0  0  0  0  0  0  0  0
  -26.6750  -12.3080   20.4890 N   0  0  0  0  0  0  0  0  0  0  0  0
  -24.6500  -11.0550   20.8620 C   0  0  0  0  0  0  0  0  0  0  0  0
  -24.9550  -10.1870   21.9360 C   0  0  0  0  0  3  0  0  0  0  0  0
  -24.2430   -8.9790   22.1030 C   0  0  0  0  0  3  0  0  0  0  0  0
  -23.2100   -8.6300   21.1990 C   0  0  0  0  0  0  0  0  0  0  0  0
  -22.9270   -9.4860   20.1200 C   0  0  0  0  0  3  0  0  0  0  0  0
  -23.6430  -10.6840   19.9510 C   0  0  0  0  0  3  0  0  0  0  0  0
  -22.4800   -7.4670   21.2660 O   0  0  0  0  0  0  0  0  0  0  0  0
  -22.1590   -6.8940   22.4700 C   0  0  0  0  0  0  0  0  0  0  0  0
  -21.4140   -7.5860   23.4500 C   0  0  0  0  0  3  0  0  0  0  0  0
  -21.0440   -6.9350   24.6430 C   0  0  0  0  0  3  0  0  0  0  0  0
  -21.4110   -5.5930   24.8590 C   0  0  0  0  0  0  0  0  0  0  0  0
  -22.1560   -4.9020   23.8840 C   0  0  0  0  0  3  0  0  0  0  0  0
  -22.5280   -5.5520   22.6940 C   0  0  0  0  0  0  0  0  0  0  0  0
  -23.2250   -4.8750   21.7490 F   0  0  0  0  0  0  0  0  0  0  0  0
  -21.0510   -4.9620   26.0030 F   0  0  0  0  0  0  0  0  0  0  0  0
  -23.4420  -14.1190   20.7090 C   0  0  0  0  0  0  0  0  0  0  0  0
  -22.6590  -13.4530   21.5520 N   0  0  0  0  0  0  0  0  0  0  0  0
  -23.0250  -15.0970   20.0890 O   0  0  0  0  0  0  0  0  0  0  0  0
  -23.0070  -12.6640   22.0780 H   0  0  0  0  0  0  0  0  0  0  0  0
  -21.6990  -13.7410   21.6740 H   0  0  0  0  0  0  0  0  0  0  0  0
  -26.0850  -15.8090   20.0370 N   0  0  0  0  0  0  0  0  0  0  0  0
  -25.2810  -16.4270   20.0050 H   0  0  0  0  0  0  0  0  0  0  0  0
  -26.9420  -16.2520   19.7380 H   0  0  0  0  0  0  0  0  0  0  0  0
  1  9  1  0
  1  2  1  0
  2  4  1  0
  3  1  2  0
  5  7  1  0
  6  9  1  0
  6  8  2  0
  8 10  1  0
  9  5  2  0
 10  7  2  0
 10 11  1  0
 11 12  1  0
 12 13  1  0
 13 15  1  0
 14 25  2  0
 15 20  1  0
 16 24  1  0
 16 26  1  0
 17 23  1  0
 17 19  1  0
 18 24  1  0
 19 18  1  0
 20 19  2  0
 21 22  1  0
 21 15  2  0
 22 17  2  0
 23 16  1  0
 24 14  1  0
 26 28  2  0
 27 26  1  0
 29 27  1  0
 30 35  1  0
 31 27  1  0
 32 31  1  0
 33 34  1  0
 33 32  1  0
 34 30  1  0
 35 31  1  0
 35 36  2  0
 37 36  1  0
 38 37  2  0
 39 30  2  0
 39 38  1  0
 40 14  1  0
 40 41  1  0
 40 50  1  0
 41 44  1  0
 42 46  1  0
 42 41  1  0
 43 42  2  0
 46 45  1  0
 46 48  1  0
 48 49  1  0
 48 47  1  0
 50 53  1  1
 50 51  1  0
 52 50  1  0
 54  2  1  0
 54 55  1  0
 56 55  1  0
 56 57  1  0
 58 57  1  0
 58 59  1  0
 59 60  1  0
 60 61  1  0
 61 70  1  0
 62 70  1  0
 63 68  1  0
 64 65  1  0
 64 63  1  0
 66 65  1  0
 66 75  1  0
 66 67  1  0
 68 62  1  0
 68 67  1  0
 69 62  2  0
 70 71  1  0
 72 73  2  0
 73 74  1  0
 73 92  1  0
 74 77  1  0
 75 72  1  0
 75 76  1  0
 76 74  2  0
 77 78  1  0
 78 79  2  0
 80 83  1  0
 80 79  1  0
 81 80  2  0
 82 81  1  0
 82 77  2  0
 83 84  1  0
 84 89  2  0
 84 85  1  0
 85 86  2  0
 86 87  1  0
 87 91  1  0
 88 87  2  0
 89 88  1  0
 90 89  1  0
 92 93  1  0
 93 96  1  0
 93 95  1  0
 94 92  2  0
 97 72  1  0
 98 97  1  0
 99 97  1  0
M  ISO  4  12 101  13 101  62 100  70 100
M  END
>  <TORSDO>  (74) 
F 27

>  <SCORE>  (74) 
-7.384

>  <name>  (74) 
74

>  <ligand_id>  (74) 
74

>  <original_smiles>  (74) 
[H]c1c([H])c([H])c2c(c1[H])C([H])([H])C([H])([H])C([H])([H])C2([H])N([H])C(=O)C1([H])N(C(=O)C([H])(N([H])C(=O)C([H])(N([H])C([H])([H])[H])C([H])([H])[H])C(C([H])([H])[H])(C([H])([H])[H])C([H])([H])[H])C([H])([H])c2c([H])c(OC([H])([H])C([H])([H])c3c([H])c([H])c(C(=O)N([H])C([H])([H])C([H])([H])OC([H])([H])C([H])([H])OC([H])([H])C([H])([H])N([H])C(=O)N4C([H])([H])C([H])([H])C([H])([H])C([H])(n5nc(-c6c([H])c([H])c(Oc7c([H])c([H])c(F)c([H])c7F)c([H])c6[H])c(C(=O)N([H])[H])c5N([H])[H])C4([H])[H])c([H])c3[H])c([H])c([H])c2C1([H])[H]

>  <smiles>  (74) 
[H]c1c([H])c([H])c2c(c1[H])C([H])([H])C([H])([H])C([H])([H])C2([H])N([H])C(=O)C1([H])N(C(=O)C([H])(N([H])C(=O)C([H])(N([H])C([H])([H])[H])C([H])([H])[H])C(C([H])([H])[H])(C([H])([H])[H])C([H])([H])[H])C([H])([H])c2c([H])c(OC([H])([H])C([H])([H])c3c([H])c([H])c(C(=O)N([H])C([H])([H])C([H])([H])OC([H])([H])C([H])([H])OC([H])([H])C([H])([H])N([H])C(=O)N4C([H])([H])C([H])([H])C([H])([H])C([H])(n5nc(-c6c([H])c([H])c(Oc7c([H])c([H])c(F)c([H])c7F)c([H])c6[H])c(C(=O)N([H])[H])c5N([H])[H])C4([H])[H])c([H])c3[H])c([H])c([H])c2C1([H])[H]

$$$$
75:0:0
     RDKit          3D

 99106  0  0  1  0  0  0  0  0999 V2000
  -24.3000  -24.7730   22.6250 C   0  0  0  0  0  0  0  0  0  0  0  0
  -23.7660  -23.5440   22.6260 N   0  0  0  0  0  0  0  0  0  0  0  0
  -24.9490  -25.2120   23.5780 O   0  0  0  0  0  0  0  0  0  0  0  0
  -23.2240  -23.2680   21.8170 H   0  0  0  0  0  0  0  0  0  0  0  0
  -23.7800  -22.6010   23.7470 C   0  0  0  0  0  2  0  0  0  0  0  0
  -25.1860  -22.0550   24.0490 C   0  0  0  0  0  2  0  0  0  0  0  0
  -26.1580  -23.0530   23.7580 O   0  0  0  0  0  0  0  0  0  0  0  0
  -26.8750  -22.8500   22.5460 C   0  0  0  0  0  2  0  0  0  0  0  0
  -26.0730  -23.3980   21.3540 C   0  0  0  0  0  2  0  0  0  0  0  0
  -26.8650  -23.4270   20.1770 O   0  0  0  0  0  0  0  0  0  0  0  0
  -26.0510  -23.4240   19.0100 C   0  0  0  0  0  2  0  0  0  0  0  0
  -26.8600  -22.9350   17.8060 C   0  0  0  0  0  2  0  0  0  0  0  0
  -27.6360  -21.7970   18.1710 O   0  0  0  0  0  0  0  0  0  0  0  0
  -28.9940  -21.9170   17.7630 C   0  0  0  0  0  2  0  0  0  0  0  0
  -29.7660  -20.6750   18.2130 C   0  0  0  0  0  2  0  0  0  0  0  0
  -30.1970  -19.9380   20.5190 C   0  0  0  0  0  0  0  0  0  0  0  0
  -31.0060  -17.9130   21.6240 C   0  0  0  0  0  2  0  0  0  0  0  0
  -31.0310  -16.8000   20.5570 C   0  0  0  0  0  2  0  0  0  0  0  0
  -29.6690  -16.0800   20.4960 C   0  0  0  0  0  2  0  0  0  0  0  0
  -28.4730  -17.0650   20.3890 C   0  0  0  0  0  3  0  0  0  0  0  0
  -28.5970  -18.2130   21.4190 C   0  0  0  0  0  2  0  0  0  0  0  0
  -29.9210  -18.8350   21.2610 N   0  0  0  0  0  0  0  0  0  0  0  0
  -31.2880  -20.5090   20.5300 O   0  0  0  0  0  0  0  0  0  0  0  0
  -29.3360  -20.1670   19.5220 N   0  0  0  0  0  0  0  0  0  0  0  0
  -28.4570  -19.6730   19.5540 H   0  0  0  0  0  0  0  0  0  0  0  0
  -25.9060  -16.8680   20.4050 C   0  0  0  0  0  0  0  0  0  0  0  0
  -25.0740  -15.7840   20.5090 C   0  0  0  0  0  0  0  0  0  0  0  0
  -25.9240  -14.6470   20.6620 C   0  0  0  0  0  0  0  0  0  0  0  0
  -27.1950  -16.3660   20.5040 N   0  0  0  0  0  0  0  0  0  0  0  0
  -27.1950  -15.0260   20.7120 N   0  0  0  0  0  0  0  0  0  0  0  0
  -25.6050  -13.2150   20.7060 C   0  0  0  0  0  0  0  0  0  0  0  0
  -25.6560  -12.4830   21.9130 C   0  0  0  0  0  3  0  0  0  0  0  0
  -25.3250  -11.1110   21.9340 C   0  0  0  0  0  3  0  0  0  0  0  0
  -24.9360  -10.4580   20.7400 C   0  0  0  0  0  0  0  0  0  0  0  0
  -24.9080  -11.1860   19.5380 C   0  0  0  0  0  3  0  0  0  0  0  0
  -25.2420  -12.5510   19.5180 C   0  0  0  0  0  3  0  0  0  0  0  0
  -24.6240   -9.1220   20.6590 O   0  0  0  0  0  0  0  0  0  0  0  0
  -23.7670   -8.5270   21.5520 C   0  0  0  0  0  0  0  0  0  0  0  0
  -22.4250   -8.9450   21.6880 C   0  0  0  0  0  3  0  0  0  0  0  0
  -21.5590   -8.2600   22.5640 C   0  0  0  0  0  3  0  0  0  0  0  0
  -22.0310   -7.1580   23.3010 C   0  0  0  0  0  0  0  0  0  0  0  0
  -23.3650   -6.7370   23.1630 C   0  0  0  0  0  3  0  0  0  0  0  0
  -24.2310   -7.4190   22.2900 C   0  0  0  0  0  0  0  0  0  0  0  0
  -25.5110   -6.9960   22.1450 F   0  0  0  0  0  0  0  0  0  0  0  0
  -21.2000   -6.4950   24.1390 F   0  0  0  0  0  0  0  0  0  0  0  0
  -23.5770  -15.7920   20.3770 C   0  0  0  0  0  0  0  0  0  0  0  0
  -22.8990  -14.8630   21.0460 N   0  0  0  0  0  0  0  0  0  0  0  0
  -22.9960  -16.6510   19.7180 O   0  0  0  0  0  0  0  0  0  0  0  0
  -23.3760  -14.1700   21.6000 H   0  0  0  0  0  0  0  0  0  0  0  0
  -21.8910  -14.8500   21.0000 H   0  0  0  0  0  0  0  0  0  0  0  0
  -25.6780  -18.2270   20.2120 N   0  0  0  0  0  0  0  0  0  0  0  0
  -24.7470  -18.6050   20.0770 H   0  0  0  0  0  0  0  0  0  0  0  0
  -26.4070  -18.9210   20.0970 H   0  0  0  0  0  0  0  0  0  0  0  0
  -24.0120  -25.6450   21.3960 C   0  0  0  0  0  2  0  0  0  0  0  0
  -25.2150  -26.4380   20.8380 C   0  0  0  0  0  2  0  0  0  0  0  0
  -26.0420  -25.6480   19.9840 O   0  0  0  0  0  0  0  0  0  0  0  0
  -27.1340  -26.3780   19.4160 C   0  0  0  0  0  2  0  0  0  0  0  0
  -26.9180  -26.6890   17.9150 C   0  0  0  0  0  2  0  0  0  0  0  0
  -26.8020  -28.0910   17.6580 O   0  0  0  0  0  0  0  0  0  0  0  0
  -24.4170  -31.9880   23.0680 C   0  0  0  0  0  0  0  0  0  0  0  0
  -25.7170  -28.7340   18.2010 C   0  0  0  0  0  0  0  0  0  0  0  0
  -22.6850  -31.0860   21.5530 C   0  0  0  0  0  3  0  0  0  0  0  0
  -23.5380  -30.0790   19.3770 C   0  0  0  0  0  0  0  0  0  0  0  0
  -25.0460  -31.5690   20.6960 C   0  0  0  0  0  2  0  0  0  0  0  0
  -24.8490  -30.4480   19.7040 C   0  0  0  0  0  0  0  0  0  0  0  0
  -25.9450  -29.7800   19.1150 C   0  0  0  0  0  3  0  0  0  0  0  0
  -24.3930  -28.3880   17.8550 C   0  0  0  0  0  3  0  0  0  0  0  0
  -23.3030  -29.0460   18.4540 C   0  0  0  0  0  3  0  0  0  0  0  0
  -22.4240  -30.8510   20.0440 C   0  0  0  0  0  2  0  0  0  0  0  0
  -24.0860  -31.5430   21.8230 N   0  0  0  0  0  0  0  0  0  0  0  0
  -23.5710  -32.0590   23.9680 O   0  0  0  0  0  0  0  0  0  0  0  0
  -22.2940  -29.8090   22.3320 C   0  0  0  0  0  0  0  0  0  0  0  0
  -20.9970  -29.4610   22.2950 N   0  0  0  0  0  0  0  0  0  0  0  0
  -23.1450  -29.1440   22.9280 O   0  0  0  0  0  0  0  0  0  0  0  0
  -20.3590  -30.0660   21.7960 H   0  0  0  0  0  0  0  0  0  0  0  0
  -17.9700  -27.5090   22.5610 C   0  0  0  0  0  0  0  0  0  0  0  0
  -20.4100  -28.2790   22.9240 C   0  0  0  0  0  3  0  0  0  0  0  0
  -20.8260  -26.9880   22.1810 C   0  0  0  0  0  2  0  0  0  0  0  0
  -19.8190  -26.5490   21.1140 C   0  0  0  0  0  2  0  0  0  0  0  0
  -18.4350  -26.3230   21.7330 C   0  0  0  0  0  2  0  0  0  0  0  0
  -18.8970  -28.4350   23.1080 C   0  0  0  0  0  0  0  0  0  0  0  0
  -18.4100  -29.5400   23.8400 C   0  0  0  0  0  3  0  0  0  0  0  0
  -17.0290  -29.7220   24.0350 C   0  0  0  0  0  3  0  0  0  0  0  0
  -16.1160  -28.7900   23.5090 C   0  0  0  0  0  3  0  0  0  0  0  0
  -16.5890  -27.6860   22.7760 C   0  0  0  0  0  3  0  0  0  0  0  0
  -25.8690  -32.4480   23.4130 C   0  0  0  0  0  3  0  0  0  0  0  0
  -26.6130  -31.4740   24.4060 C   0  0  1  0  0  0  0  0  0  0  0  0
  -25.7840  -31.1220   25.6640 C   0  0  0  0  0  1  0  0  0  0  0  0
  -26.9840  -30.1490   23.6990 C   0  0  0  0  0  1  0  0  0  0  0  0
  -27.9450  -32.1130   24.8670 C   0  0  0  0  0  1  0  0  0  0  0  0
  -25.7790  -33.8010   23.9720 N   0  0  0  0  0  0  0  0  0  0  0  0
  -26.0590  -34.9250   23.2960 C   0  0  0  0  0  0  0  0  0  0  0  0
  -26.4930  -34.9210   22.1400 O   0  0  0  0  0  0  0  0  0  0  0  0
  -25.3930  -33.8840   24.9020 H   0  0  0  0  0  0  0  0  0  0  0  0
  -24.4980  -36.8770   23.5360 C   0  0  0  0  0  1  0  0  0  0  0  0
  -25.8230  -36.2650   24.0180 C   0  0  0  0  0  3  0  0  0  0  0  0
  -28.1560  -36.8490   24.5000 C   0  0  0  0  0  1  0  0  0  0  0  0
  -26.9200  -37.2390   23.8280 N   0  0  0  0  0  0  0  0  0  0  0  0
  -26.6510  -38.1570   24.1720 H   0  0  0  0  0  0  0  0  0  0  0  0
  1  2  1  0
  1  3  2  0
  2  5  1  0
  4  2  1  0
  5  6  1  0
  7  6  1  0
  8  7  1  0
  9  8  1  0
 10  9  1  0
 11 10  1  0
 12 13  1  0
 12 11  1  0
 14 13  1  0
 14 15  1  0
 15 24  1  0
 16 23  2  0
 16 22  1  0
 18 17  1  0
 19 18  1  0
 20 19  1  0
 20 29  1  0
 20 21  1  0
 22 21  1  0
 22 17  1  0
 24 25  1  0
 24 16  1  0
 26 29  1  0
 26 27  2  0
 27 28  1  0
 28 31  1  0
 28 30  2  0
 29 30  1  0
 31 32  1  0
 32 33  2  0
 34 33  1  0
 35 34  2  0
 36 35  1  0
 36 31  2  0
 37 34  1  0
 37 38  1  0
 38 39  2  0
 38 43  1  0
 39 40  1  0
 40 41  2  0
 41 45  1  0
 42 41  1  0
 43 42  2  0
 44 43  1  0
 46 27  1  0
 46 47  1  0
 47 49  1  0
 48 46  2  0
 50 47  1  0
 51 26  1  0
 52 51  1  0
 53 51  1  0
 54  1  1  0
 55 54  1  0
 56 55  1  0
 57 56  1  0
 58 57  1  0
 59 58  1  0
 59 61  1  0
 60 71  2  0
 61 66  1  0
 62 70  1  0
 62 72  1  0
 63 65  1  0
 63 69  1  0
 64 70  1  0
 65 64  1  0
 66 65  2  0
 67 61  2  0
 67 68  1  0
 68 63  2  0
 69 62  1  0
 70 60  1  0
 72 74  2  0
 73 72  1  0
 75 73  1  0
 76 85  2  0
 76 81  1  0
 77 73  1  0
 77 81  1  0
 78 77  1  0
 79 80  1  0
 79 78  1  0
 80 76  1  0
 81 82  2  0
 82 83  1  0
 84 83  2  0
 85 84  1  0
 86 60  1  0
 86 91  1  0
 86 87  1  0
 87 90  1  1
 87 88  1  0
 89 87  1  0
 91 94  1  0
 92 91  1  0
 92 96  1  0
 93 92  2  0
 96 95  1  0
 98 96  1  0
 98 99  1  0
 98 97  1  0
M  ISO  4  16 100  24 100  58 101  59 101
M  END
>  <TORSDO>  (75) 
F 32

>  <SCORE>  (75) 
9.150

>  <name>  (75) 
75

>  <ligand_id>  (75) 
75

>  <original_smiles>  (75) 
[H]c1c([H])c([H])c2c(c1[H])C([H])([H])C([H])([H])C([H])([H])C2([H])N([H])C(=O)C1([H])N(C(=O)C([H])(N([H])C(=O)C([H])(N([H])C([H])([H])[H])C([H])([H])[H])C(C([H])([H])[H])(C([H])([H])[H])C([H])([H])[H])C([H])([H])c2c([H])c(OC([H])([H])C([H])([H])OC([H])([H])C([H])([H])C(=O)N([H])C([H])([H])C([H])([H])OC([H])([H])C([H])([H])OC([H])([H])C([H])([H])OC([H])([H])C([H])([H])N([H])C(=O)N3C([H])([H])C([H])([H])C([H])([H])C([H])(n4nc(-c5c([H])c([H])c(Oc6c([H])c([H])c(F)c([H])c6F)c([H])c5[H])c(C(=O)N([H])[H])c4N([H])[H])C3([H])[H])c([H])c([H])c2C1([H])[H]

>  <smiles>  (75) 
[H]c1c([H])c([H])c2c(c1[H])C([H])([H])C([H])([H])C([H])([H])C2([H])N([H])C(=O)C1([H])N(C(=O)C([H])(N([H])C(=O)C([H])(N([H])C([H])([H])[H])C([H])([H])[H])C(C([H])([H])[H])(C([H])([H])[H])C([H])([H])[H])C([H])([H])c2c([H])c(OC([H])([H])C([H])([H])OC([H])([H])C([H])([H])C(=O)N([H])C([H])([H])C([H])([H])OC([H])([H])C([H])([H])OC([H])([H])C([H])([H])OC([H])([H])C([H])([H])N([H])C(=O)N3C([H])([H])C([H])([H])C([H])([H])C([H])(n4nc(-c5c([H])c([H])c(Oc6c([H])c([H])c(F)c([H])c6F)c([H])c5[H])c(C(=O)N([H])[H])c4N([H])[H])C3([H])[H])c([H])c([H])c2C1([H])[H]

$$$$
76:0:0
     RDKit          3D

106115  0  0  1  0  0  0  0  0999 V2000
  -20.7980  -29.6600   25.4230 C   0  0  0  0  0  3  0  0  0  0  0  0
  -22.8560  -30.2460   25.0480 C   0  0  0  0  0  3  0  0  0  0  0  0
  -21.2180  -28.4640   26.1280 C   0  0  0  0  0  3  0  0  0  0  0  0
  -23.3630  -29.0690   25.7190 C   0  0  0  0  0  3  0  0  0  0  0  0
  -21.5730  -30.3280   24.3560 C   0  0  0  0  0  0  0  0  0  0  0  0
  -22.5380  -27.9720   25.9850 C   0  0  0  0  0  0  0  0  0  0  0  0
  -21.2050  -30.6660   22.6600 C   0  0  0  0  0  0  0  0  0  0  0  0
  -21.3250  -29.8100   21.3400 N   0  0  0  0  0  0  0  0  0  0  0  0
  -20.7660  -31.8000   22.4680 O   0  0  0  0  0  0  0  0  0  0  0  0
  -20.8260  -30.3380   20.6370 H   0  0  0  0  0  0  0  0  0  0  0  0
  -22.1180  -28.4160   20.4660 C   0  0  0  0  0  2  0  0  0  0  0  0
  -23.5080  -27.1380   20.5830 C   0  0  0  0  0  0  0  0  0  0  0  0
  -23.0700  -26.0300   20.2720 O   0  0  0  0  0  0  0  0  0  0  0  0
  -25.3010  -27.0560   20.9530 O   0  0  0  0  0  0  0  0  0  0  0  0
  -24.8210  -32.0160   23.1500 C   0  0  0  0  0  0  0  0  0  0  0  0
  -26.4920  -27.3020   20.2410 C   0  0  0  0  0  3  0  0  0  0  0  0
  -23.8190  -30.3360   21.6990 C   0  0  0  0  0  3  0  0  0  0  0  0
  -25.1250  -29.4390   19.7350 C   0  0  0  0  0  3  0  0  0  0  0  0
  -26.2430  -30.8010   21.5180 C   0  0  0  0  0  2  0  0  0  0  0  0
  -26.1990  -29.5830   20.6180 C   0  0  0  0  0  3  0  0  0  0  0  0
  -27.0660  -28.4940   20.7470 C   0  0  0  0  0  2  0  0  0  0  0  0
  -26.0270  -27.3300   18.9500 C   0  0  0  0  0  2  0  0  0  0  0  0
  -25.1280  -28.4010   18.7570 C   0  0  0  0  0  2  0  0  0  0  0  0
  -23.9870  -30.3030   20.1130 C   0  0  0  0  0  2  0  0  0  0  0  0
  -24.9710  -31.0490   22.2150 N   0  0  0  0  0  0  0  0  0  0  0  0
  -23.7080  -32.4590   23.4860 O   0  0  0  0  0  0  0  0  0  0  0  0
  -23.4600  -28.9890   22.6940 C   0  0  0  0  0  0  0  0  0  0  0  0
  -22.2510  -28.2250   23.0720 N   0  0  0  0  0  0  0  0  0  0  0  0
  -24.4000  -28.5190   23.2550 O   0  0  0  0  0  0  0  0  0  0  0  0
  -22.6240  -27.5790   23.7520 H   0  0  0  0  0  0  0  0  0  0  0  0
  -17.9770  -28.0000   22.7980 C   0  0  0  0  0  0  0  0  0  0  0  0
  -20.6420  -27.9190   23.0880 C   0  0  0  0  0  3  0  0  0  0  0  0
  -20.5170  -26.5590   22.4440 C   0  0  0  0  0  2  0  0  0  0  0  0
  -19.3990  -26.4740   21.4250 C   0  0  0  0  0  2  0  0  0  0  0  0
  -18.0840  -26.6460   22.1510 C   0  0  0  0  0  2  0  0  0  0  0  0
  -19.1440  -28.7240   23.1830 C   0  0  0  0  0  0  0  0  0  0  0  0
  -18.7170  -30.0350   23.6830 C   0  0  0  0  0  3  0  0  0  0  0  0
  -17.4340  -30.5290   23.8870 C   0  0  0  0  0  3  0  0  0  0  0  0
  -16.3670  -29.7310   23.5340 C   0  0  0  0  0  3  0  0  0  0  0  0
  -16.6520  -28.4790   22.9790 C   0  0  0  0  0  3  0  0  0  0  0  0
  -26.0610  -32.5660   23.8730 C   0  0  0  0  0  3  0  0  0  0  0  0
  -25.7220  -33.9270   24.2770 N   0  0  0  0  0  0  0  0  0  0  0  0
  -25.9350  -34.9930   23.5080 C   0  0  0  0  0  0  0  0  0  0  0  0
  -26.5400  -34.9280   22.4350 O   0  0  0  0  0  0  0  0  0  0  0  0
  -25.1940  -34.0390   25.1290 H   0  0  0  0  0  0  0  0  0  0  0  0
  -24.1540  -36.7460   23.2520 C   0  0  0  0  0  1  0  0  0  0  0  0
  -25.4180  -36.3410   24.0260 C   0  0  0  0  0  3  0  0  0  0  0  0
  -27.5620  -37.2020   24.8450 C   0  0  0  0  0  1  0  0  0  0  0  0
  -26.4310  -37.4110   23.9440 N   0  0  0  0  0  0  0  0  0  0  0  0
  -26.0180  -38.3150   24.1560 H   0  0  0  0  0  0  0  0  0  0  0  0
  -26.5270  -31.7310   25.1290 C   0  0  1  0  0  0  0  0  0  0  0  0
  -25.4830  -31.6130   26.2690 C   0  0  0  0  0  1  0  0  0  0  0  0
  -27.0290  -30.3190   24.7410 C   0  0  0  0  0  1  0  0  0  0  0  0
  -27.7520  -32.4440   25.7410 C   0  0  0  0  0  1  0  0  0  0  0  0
  -22.9480  -26.6090   26.1230 O   0  0  0  0  0  0  0  0  0  0  0  0
  -24.0080  -25.9900   25.2570 C   0  0  0  0  0  3  0  0  0  0  0  0
  -24.2840  -24.3820   25.2970 C   0  0  0  0  0  3  0  0  0  0  0  0
  -25.2300  -23.7210   24.3370 O   0  0  0  0  0  0  0  0  0  0  0  0
  -25.4980  -22.2500   24.4320 C   0  0  0  0  0  3  0  0  0  0  0  0
  -26.5180  -21.4850   23.4060 C   0  0  0  0  0  3  0  0  0  0  0  0
  -26.8970  -20.0450   23.7120 N   0  0  0  0  0  0  0  0  0  0  0  0
  -26.6720  -19.7650   24.6630 H   0  0  0  0  0  0  0  0  0  0  0  0
  -28.7480  -18.1240   20.9000 C   0  0  0  0  0  3  0  0  0  0  0  0
  -28.6510  -16.7230   22.8280 C   0  0  0  0  0  3  0  0  0  0  0  0
  -28.0830  -19.1880   21.6040 C   0  0  0  0  0  3  0  0  0  0  0  0
  -27.9690  -17.7840   23.5260 C   0  0  0  0  0  3  0  0  0  0  0  0
  -29.0570  -16.8490   21.4700 C   0  0  0  0  0  0  0  0  0  0  0  0
  -27.6400  -19.0520   22.9470 C   0  0  0  0  0  0  0  0  0  0  0  0
  -30.4840  -14.7130   20.6490 C   0  0  0  0  0  0  0  0  0  0  0  0
  -30.4380  -12.4730   19.4890 C   0  0  0  0  0  2  0  0  0  0  0  0
  -29.5130  -12.5230   18.2490 C   0  0  0  0  0  2  0  0  0  0  0  0
  -28.0370  -12.3240   18.6490 C   0  0  0  0  0  2  0  0  0  0  0  0
  -27.6330  -13.2020   19.8630 C   0  0  0  0  0  3  0  0  0  0  0  0
  -28.6480  -13.0680   21.0120 C   0  0  0  0  0  2  0  0  0  0  0  0
  -29.9420  -13.4680   20.4690 N   0  0  0  0  0  0  0  0  0  0  0  0
  -31.6700  -14.9060   20.3390 O   0  0  0  0  0  0  0  0  0  0  0  0
  -29.5680  -15.7590   20.5940 N   0  0  0  0  0  0  0  0  0  0  0  0
  -29.4560  -16.0000   19.6210 H   0  0  0  0  0  0  0  0  0  0  0  0
  -25.2500  -13.8130   20.5730 C   0  0  0  0  0  0  0  0  0  0  0  0
  -24.1750  -13.0410   20.9180 C   0  0  0  0  0  0  0  0  0  0  0  0
  -24.6300  -11.6870   20.8710 C   0  0  0  0  0  0  0  0  0  0  0  0
  -26.2830  -12.9250   20.3240 N   0  0  0  0  0  0  0  0  0  0  0  0
  -25.9190  -11.6420   20.5660 N   0  0  0  0  0  0  0  0  0  0  0  0
  -23.8990  -10.4270   21.0390 C   0  0  0  0  0  0  0  0  0  0  0  0
  -24.3570   -9.4200   21.9170 C   0  0  0  0  0  3  0  0  0  0  0  0
  -23.6270   -8.2230   22.0750 C   0  0  0  0  0  3  0  0  0  0  0  0
  -22.4260   -8.0250   21.3540 C   0  0  0  0  0  0  0  0  0  0  0  0
  -21.9870   -9.0210   20.4640 C   0  0  0  0  0  3  0  0  0  0  0  0
  -22.7170  -10.2100   20.3040 C   0  0  0  0  0  3  0  0  0  0  0  0
  -21.6640   -6.8850   21.4240 O   0  0  0  0  0  0  0  0  0  0  0  0
  -21.6850   -6.0720   22.5290 C   0  0  0  0  0  0  0  0  0  0  0  0
  -21.4010   -6.5620   23.8210 C   0  0  0  0  0  3  0  0  0  0  0  0
  -21.3660   -5.6790   24.9180 C   0  0  0  0  0  3  0  0  0  0  0  0
  -21.6050   -4.3050   24.7240 C   0  0  0  0  0  0  0  0  0  0  0  0
  -21.8820   -3.8130   23.4360 C   0  0  0  0  0  3  0  0  0  0  0  0
  -21.9200   -4.6940   22.3410 C   0  0  0  0  0  0  0  0  0  0  0  0
  -22.1670   -4.2130   21.0990 F   0  0  0  0  0  0  0  0  0  0  0  0
  -21.5640   -3.4540   25.7760 F   0  0  0  0  0  0  0  0  0  0  0  0
  -22.7790  -13.5210   21.1850 C   0  0  0  0  0  0  0  0  0  0  0  0
  -22.0440  -12.8200   22.0410 N   0  0  0  0  0  0  0  0  0  0  0  0
  -22.3480  -14.5530   20.6700 O   0  0  0  0  0  0  0  0  0  0  0  0
  -22.4060  -11.9860   22.4780 H   0  0  0  0  0  0  0  0  0  0  0  0
  -21.1080  -13.1260   22.2660 H   0  0  0  0  0  0  0  0  0  0  0  0
  -25.4350  -15.1850   20.4330 N   0  0  0  0  0  0  0  0  0  0  0  0
  -24.6950  -15.8570   20.6010 H   0  0  0  0  0  0  0  0  0  0  0  0
  -26.3270  -15.6180   20.2320 H   0  0  0  0  0  0  0  0  0  0  0  0
  1  3  1  0
  2  4  2  0
  4  6  1  0
  5  2  1  0
  5  1  2  0
  6 55  1  0
  6  3  2  0
  7  5  1  0
  8  7  1  0
  9  7  2  0
 10  8  1  0
 11 12  1  0
 11  8  1  0
 12 14  1  0
 13 12  2  0
 15 26  2  0
 16 21  1  0
 16 14  1  0
 17 25  1  0
 17 27  1  0
 18 23  1  0
 18 24  1  0
 18 20  1  0
 19 25  1  0
 20 21  1  0
 20 19  1  0
 22 16  1  0
 23 22  1  0
 24 17  1  0
 25 15  1  0
 27 28  1  0
 27 29  2  0
 28 30  1  0
 31 40  2  0
 31 36  1  0
 32 28  1  0
 32 36  1  0
 33 32  1  0
 34 35  1  0
 34 33  1  0
 35 31  1  0
 36 37  2  0
 37 38  1  0
 39 38  2  0
 40 39  1  0
 41 15  1  0
 41 42  1  0
 41 51  1  0
 42 45  1  0
 43 47  1  0
 43 42  1  0
 44 43  2  0
 47 46  1  0
 49 47  1  0
 49 50  1  0
 49 48  1  0
 51 54  1  1
 51 52  1  0
 53 51  1  0
 56 57  2  0
 56 55  1  0
 58 59  1  0
 58 57  1  0
 60 61  1  0
 60 59  2  0
 61 62  1  0
 63 67  2  0
 63 65  1  0
 64 66  2  0
 65 68  2  0
 67 64  1  0
 68 66  1  0
 68 61  1  0
 70 75  1  0
 71 72  1  0
 71 70  1  0
 73 72  1  0
 73 82  1  0
 73 74  1  0
 75 69  1  0
 75 74  1  0
 76 69  2  0
 77 69  1  0
 77 67  1  0
 78 77  1  0
 79 80  2  0
 80 99  1  0
 81 80  1  0
 81 84  1  0
 82 83  1  0
 82 79  1  0
 83 81  2  0
 84 85  1  0
 85 86  2  0
 87 90  1  0
 87 86  1  0
 88 87  2  0
 89 88  1  0
 89 84  2  0
 90 91  1  0
 91 92  1  0
 92 93  2  0
 94 93  1  0
 94 98  1  0
 95 94  2  0
 96 91  2  0
 96 95  1  0
 97 96  1  0
 99100  1  0
100103  1  0
100102  1  0
101 99  2  0
104 79  1  0
104105  1  0
106104  1  0
M  ISO  4  12 101  14 101  69 100  77 100
M  END
>  <TORSDO>  (76) 
F 27

>  <SCORE>  (76) 
57.415

>  <name>  (76) 
76

>  <ligand_id>  (76) 
76

>  <original_smiles>  (76) 
[H]c1c([H])c([H])c2c(c1[H])C([H])([H])C([H])([H])C([H])([H])C2([H])N([H])C(=O)C1([H])N(C(=O)C([H])(N([H])C(=O)C([H])(N([H])C([H])([H])[H])C([H])([H])[H])C(C([H])([H])[H])(C([H])([H])[H])C([H])([H])[H])C([H])([H])c2c([H])c(OC(=O)C([H])([H])N([H])C(=O)c3c([H])c([H])c(OC([H])([H])C([H])([H])OC([H])([H])C([H])([H])N([H])c4c([H])c([H])c(N([H])C(=O)N5C([H])([H])C([H])([H])C([H])([H])C([H])(n6nc(-c7c([H])c([H])c(Oc8c([H])c([H])c(F)c([H])c8F)c([H])c7[H])c(C(=O)N([H])[H])c6N([H])[H])C5([H])[H])c([H])c4[H])c([H])c3[H])c([H])c([H])c2C1([H])[H]

>  <smiles>  (76) 
[H]c1c([H])c([H])c2c(c1[H])C([H])([H])C([H])([H])C([H])([H])C2([H])N([H])C(=O)C1([H])N(C(=O)C([H])(N([H])C(=O)C([H])(N([H])C([H])([H])[H])C([H])([H])[H])C(C([H])([H])[H])(C([H])([H])[H])C([H])([H])[H])C([H])([H])c2c([H])c(OC(=O)C([H])([H])N([H])C(=O)c3c([H])c([H])c(OC([H])([H])C([H])([H])OC([H])([H])C([H])([H])N([H])c4c([H])c([H])c(N([H])C(=O)N5C([H])([H])C([H])([H])C([H])([H])C([H])(n6nc(-c7c([H])c([H])c(Oc8c([H])c([H])c(F)c([H])c8F)c([H])c7[H])c(C(=O)N([H])[H])c6N([H])[H])C5([H])[H])c([H])c4[H])c([H])c3[H])c([H])c([H])c2C1([H])[H]

$$$$
77:0:0
     RDKit          3D

 90 97  0  0  1  0  0  0  0  0999 V2000
  -27.8060  -22.7890   22.0570 C   0  0  0  0  0  2  0  0  0  0  0  0
  -28.1210  -23.6690   20.9800 O   0  0  0  0  0  0  0  0  0  0  0  0
  -28.3570  -25.0040   21.4180 C   0  0  0  0  0  2  0  0  0  0  0  0
  -29.0330  -25.8100   20.2920 C   0  0  0  0  0  2  0  0  0  0  0  0
  -28.9770  -27.2200   20.5330 O   0  0  0  0  0  0  0  0  0  0  0  0
  -24.8130  -32.1180   23.5430 C   0  0  0  0  0  0  0  0  0  0  0  0
  -27.7520  -27.8490   20.4980 C   0  0  0  0  0  0  0  0  0  0  0  0
  -23.7220  -30.6820   21.8480 C   0  0  0  0  0  3  0  0  0  0  0  0
  -25.2850  -29.2330   20.4560 C   0  0  0  0  0  0  0  0  0  0  0  0
  -26.2290  -31.1650   21.7290 C   0  0  0  0  0  2  0  0  0  0  0  0
  -26.3990  -29.8060   21.0820 C   0  0  0  0  0  0  0  0  0  0  0  0
  -27.6340  -29.1210   21.0980 C   0  0  0  0  0  3  0  0  0  0  0  0
  -26.6140  -27.2830   19.8740 C   0  0  0  0  0  3  0  0  0  0  0  0
  -25.3870  -27.9680   19.8540 C   0  0  0  0  0  3  0  0  0  0  0  0
  -24.0040  -30.0320   20.4680 C   0  0  0  0  0  2  0  0  0  0  0  0
  -24.9370  -31.3350   22.4330 N   0  0  0  0  0  0  0  0  0  0  0  0
  -23.7050  -32.3340   24.0530 O   0  0  0  0  0  0  0  0  0  0  0  0
  -23.0900  -29.6210   22.7760 C   0  0  0  0  0  0  0  0  0  0  0  0
  -21.7860  -29.3620   22.5830 N   0  0  0  0  0  0  0  0  0  0  0  0
  -23.7700  -29.0330   23.6190 O   0  0  0  0  0  0  0  0  0  0  0  0
  -21.2950  -29.8870   21.8700 H   0  0  0  0  0  0  0  0  0  0  0  0
  -18.4720  -27.9650   22.9140 C   0  0  0  0  0  0  0  0  0  0  0  0
  -20.9920  -28.3730   23.3120 C   0  0  0  0  0  3  0  0  0  0  0  0
  -21.2090  -26.9500   22.7440 C   0  0  0  0  0  2  0  0  0  0  0  0
  -20.1790  -26.5620   21.6760 C   0  0  0  0  0  2  0  0  0  0  0  0
  -18.7620  -26.6280   22.2540 C   0  0  0  0  0  2  0  0  0  0  0  0
  -19.5210  -28.7900   23.3990 C   0  0  0  0  0  0  0  0  0  0  0  0
  -19.2030  -30.0400   23.9710 C   0  0  0  0  0  3  0  0  0  0  0  0
  -17.8650  -30.4650   24.0730 C   0  0  0  0  0  3  0  0  0  0  0  0
  -16.8290  -29.6370   23.6090 C   0  0  0  0  0  3  0  0  0  0  0  0
  -17.1330  -28.3910   23.0320 C   0  0  0  0  0  3  0  0  0  0  0  0
  -26.0510  -32.7960   24.2080 C   0  0  0  0  0  3  0  0  0  0  0  0
  -26.4950  -32.0970   25.5500 C   0  0  1  0  0  0  0  0  0  0  0  0
  -25.3360  -31.8630   26.5460 C   0  0  0  0  0  1  0  0  0  0  0  0
  -27.1490  -30.7280   25.2540 C   0  0  0  0  0  1  0  0  0  0  0  0
  -27.5660  -32.9570   26.2590 C   0  0  0  0  0  1  0  0  0  0  0  0
  -25.7090  -34.2050   24.4420 N   0  0  0  0  0  0  0  0  0  0  0  0
  -26.0740  -35.2180   23.6420 C   0  0  0  0  0  0  0  0  0  0  0  0
  -26.8020  -35.0650   22.6570 O   0  0  0  0  0  0  0  0  0  0  0  0
  -25.0670  -34.3930   25.1980 H   0  0  0  0  0  0  0  0  0  0  0  0
  -24.3440  -36.9560   23.0900 C   0  0  0  0  0  1  0  0  0  0  0  0
  -25.5440  -36.6220   23.9910 C   0  0  0  0  0  3  0  0  0  0  0  0
  -27.6240  -37.5810   24.8740 C   0  0  0  0  0  1  0  0  0  0  0  0
  -26.5690  -37.6810   23.8690 N   0  0  0  0  0  0  0  0  0  0  0  0
  -26.1450  -38.6010   23.9460 H   0  0  0  0  0  0  0  0  0  0  0  0
  -27.4930  -21.3830   21.5210 C   0  0  0  0  0  2  0  0  0  0  0  0
  -28.6650  -20.7680   20.9950 O   0  0  0  0  0  0  0  0  0  0  0  0
  -28.3670  -19.5800   20.2660 C   0  0  0  0  0  2  0  0  0  0  0  0
  -29.6620  -18.8370   19.8940 C   0  0  0  0  0  2  0  0  0  0  0  0
  -30.0630  -17.9670   20.9490 O   0  0  0  0  0  0  0  0  0  0  0  0
  -31.4690  -17.8850   21.1710 C   0  0  0  0  0  2  0  0  0  0  0  0
  -32.1640  -16.8510   20.2700 C   0  0  0  0  0  2  0  0  0  0  0  0
  -31.9300  -14.4640   19.7030 C   0  0  0  0  0  0  0  0  0  0  0  0
  -31.3700  -12.1870   18.9420 C   0  0  0  0  0  2  0  0  0  0  0  0
  -30.3890  -12.2580   17.7560 C   0  0  0  0  0  2  0  0  0  0  0  0
  -28.9350  -12.3150   18.2570 C   0  0  0  0  0  2  0  0  0  0  0  0
  -28.7260  -13.3820   19.3650 C   0  0  0  0  0  3  0  0  0  0  0  0
  -29.8210  -13.2870   20.4530 C   0  0  0  0  0  2  0  0  0  0  0  0
  -31.1380  -13.3620   19.7950 N   0  0  0  0  0  0  0  0  0  0  0  0
  -32.9520  -14.5110   19.0150 O   0  0  0  0  0  0  0  0  0  0  0  0
  -31.5220  -15.5410   20.3790 N   0  0  0  0  0  0  0  0  0  0  0  0
  -30.6870  -15.4770   20.9440 H   0  0  0  0  0  0  0  0  0  0  0  0
  -26.5230  -14.3100   20.3180 C   0  0  0  0  0  0  0  0  0  0  0  0
  -25.3730  -13.6950   20.7340 C   0  0  0  0  0  0  0  0  0  0  0  0
  -25.5970  -12.2930   20.5790 C   0  0  0  0  0  0  0  0  0  0  0  0
  -27.3840  -13.2930   19.9390 N   0  0  0  0  0  0  0  0  0  0  0  0
  -26.8320  -12.0680   20.1490 N   0  0  0  0  0  0  0  0  0  0  0  0
  -24.6860  -11.1530   20.7540 C   0  0  0  0  0  0  0  0  0  0  0  0
  -25.0150  -10.0650   21.5910 C   0  0  0  0  0  3  0  0  0  0  0  0
  -24.1140   -8.9910   21.7570 C   0  0  0  0  0  3  0  0  0  0  0  0
  -22.8680   -9.0000   21.0880 C   0  0  0  0  0  0  0  0  0  0  0  0
  -22.5550  -10.0750   20.2360 C   0  0  0  0  0  3  0  0  0  0  0  0
  -23.4560  -11.1380   20.0660 C   0  0  0  0  0  3  0  0  0  0  0  0
  -21.9430   -7.9870   21.1680 O   0  0  0  0  0  0  0  0  0  0  0  0
  -21.8340   -7.1990   22.2860 C   0  0  0  0  0  0  0  0  0  0  0  0
  -21.5870   -7.7470   23.5640 C   0  0  0  0  0  3  0  0  0  0  0  0
  -21.4110   -6.8960   24.6730 C   0  0  0  0  0  3  0  0  0  0  0  0
  -21.4730   -5.4990   24.5060 C   0  0  0  0  0  0  0  0  0  0  0  0
  -21.7140   -4.9520   23.2340 C   0  0  0  0  0  3  0  0  0  0  0  0
  -21.8900   -5.8000   22.1260 C   0  0  0  0  0  0  0  0  0  0  0  0
  -22.1010   -5.2670   20.8980 F   0  0  0  0  0  0  0  0  0  0  0  0
  -21.2960   -4.6800   25.5700 F   0  0  0  0  0  0  0  0  0  0  0  0
  -24.1040  -14.3690   21.1660 C   0  0  0  0  0  0  0  0  0  0  0  0
  -23.3490  -13.7420   22.0620 N   0  0  0  0  0  0  0  0  0  0  0  0
  -23.7960  -15.4850   20.7480 O   0  0  0  0  0  0  0  0  0  0  0  0
  -23.6150  -12.8390   22.4260 H   0  0  0  0  0  0  0  0  0  0  0  0
  -22.4980  -14.1770   22.3890 H   0  0  0  0  0  0  0  0  0  0  0  0
  -26.9010  -15.6450   20.2170 N   0  0  0  0  0  0  0  0  0  0  0  0
  -26.2750  -16.4070   20.4510 H   0  0  0  0  0  0  0  0  0  0  0  0
  -27.7960  -15.9620   19.8690 H   0  0  0  0  0  0  0  0  0  0  0  0
  2  3  1  0
  2  1  1  0
  4  5  1  0
  4  3  1  0
  6 17  2  0
  7  5  1  0
  7 12  1  0
  8 16  1  0
  8 18  1  0
  9 15  1  0
  9 11  1  0
 10 16  1  0
 11 12  2  0
 11 10  1  0
 13  7  2  0
 14 13  1  0
 14  9  2  0
 15  8  1  0
 16  6  1  0
 18 20  2  0
 19 18  1  0
 21 19  1  0
 22 31  2  0
 22 27  1  0
 23 19  1  0
 23 27  1  0
 24 23  1  0
 25 26  1  0
 25 24  1  0
 26 22  1  0
 27 28  2  0
 28 29  1  0
 30 29  2  0
 31 30  1  0
 32  6  1  0
 32 37  1  0
 32 33  1  0
 33 36  1  1
 33 34  1  0
 35 33  1  0
 37 40  1  0
 38 42  1  0
 38 37  1  0
 39 38  2  0
 42 41  1  0
 44 45  1  0
 44 42  1  0
 44 43  1  0
 46  1  1  0
 47 46  1  0
 48 47  1  0
 49 48  1  0
 49 50  1  0
 50 51  1  0
 52 61  1  0
 52 51  1  0
 53 59  1  0
 53 61  1  0
 54 59  1  0
 55 56  1  0
 55 54  1  0
 57 56  1  0
 57 66  1  0
 57 58  1  0
 59 58  1  0
 60 53  2  0
 61 62  1  0
 63 64  2  0
 64 83  1  0
 65 64  1  0
 65 68  1  0
 66 67  1  0
 66 63  1  0
 67 65  2  0
 68 69  1  0
 69 70  2  0
 71 74  1  0
 71 70  1  0
 72 71  2  0
 73 72  1  0
 73 68  2  0
 74 75  1  0
 75 76  1  0
 76 77  2  0
 78 77  1  0
 78 82  1  0
 79 78  2  0
 80 75  2  0
 80 79  1  0
 81 80  1  0
 83 84  1  0
 84 87  1  0
 84 86  1  0
 85 83  2  0
 88 63  1  0
 88 89  1  0
 90 88  1  0
M  ISO  4   4 101   5 101  53 100  61 100
M  END
>  <TORSDO>  (77) 
F 26

>  <SCORE>  (77) 
-9.736

>  <name>  (77) 
77

>  <ligand_id>  (77) 
77

>  <original_smiles>  (77) 
[H]c1c([H])c([H])c2c(c1[H])C([H])([H])C([H])([H])C([H])([H])C2([H])N([H])C(=O)C1([H])N(C(=O)C([H])(N([H])C(=O)C([H])(N([H])C([H])([H])[H])C([H])([H])[H])C(C([H])([H])[H])(C([H])([H])[H])C([H])([H])[H])C([H])([H])c2c([H])c(OC([H])([H])C([H])([H])OC([H])([H])C([H])([H])OC([H])([H])C([H])([H])OC([H])([H])C([H])([H])N([H])C(=O)N3C([H])([H])C([H])([H])C([H])([H])C([H])(n4nc(-c5c([H])c([H])c(Oc6c([H])c([H])c(F)c([H])c6F)c([H])c5[H])c(C(=O)N([H])[H])c4N([H])[H])C3([H])[H])c([H])c([H])c2C1([H])[H]

>  <smiles>  (77) 
[H]c1c([H])c([H])c2c(c1[H])C([H])([H])C([H])([H])C([H])([H])C2([H])N([H])C(=O)C1([H])N(C(=O)C([H])(N([H])C(=O)C([H])(N([H])C([H])([H])[H])C([H])([H])[H])C(C([H])([H])[H])(C([H])([H])[H])C([H])([H])[H])C([H])([H])c2c([H])c(OC([H])([H])C([H])([H])OC([H])([H])C([H])([H])OC([H])([H])C([H])([H])OC([H])([H])C([H])([H])N([H])C(=O)N3C([H])([H])C([H])([H])C([H])([H])C([H])(n4nc(-c5c([H])c([H])c(Oc6c([H])c([H])c(F)c([H])c6F)c([H])c5[H])c(C(=O)N([H])[H])c4N([H])[H])C3([H])[H])c([H])c([H])c2C1([H])[H]

$$$$
78:0:0
     RDKit          3D

 89 96  0  0  1  0  0  0  0  0999 V2000
  -27.8240  -22.0220   19.1010 C   0  0  0  0  0  2  0  0  0  0  0  0
  -27.8570  -23.0100   20.1240 O   0  0  0  0  0  0  0  0  0  0  0  0
  -28.3620  -24.2650   19.6770 C   0  0  0  0  0  2  0  0  0  0  0  0
  -28.2250  -25.2890   20.8160 C   0  0  0  0  0  2  0  0  0  0  0  0
  -28.4410  -26.6340   20.3810 O   0  0  0  0  0  0  0  0  0  0  0  0
  -24.6330  -31.7690   23.4680 C   0  0  0  0  0  0  0  0  0  0  0  0
  -27.3030  -27.4020   20.3300 C   0  0  0  0  0  0  0  0  0  0  0  0
  -23.4720  -30.4710   21.7090 C   0  0  0  0  0  3  0  0  0  0  0  0
  -24.9520  -28.9580   20.2930 C   0  0  0  0  0  0  0  0  0  0  0  0
  -26.0120  -30.7720   21.6500 C   0  0  0  0  0  2  0  0  0  0  0  0
  -26.0930  -29.4310   20.9530 C   0  0  0  0  0  0  0  0  0  0  0  0
  -27.2760  -28.6610   20.9650 C   0  0  0  0  0  3  0  0  0  0  0  0
  -26.1470  -26.9380   19.6660 C   0  0  0  0  0  3  0  0  0  0  0  0
  -24.9720  -27.7120   19.6440 C   0  0  0  0  0  3  0  0  0  0  0  0
  -23.7320  -29.8490   20.3130 C   0  0  0  0  0  2  0  0  0  0  0  0
  -24.7200  -31.0150   22.3360 N   0  0  0  0  0  0  0  0  0  0  0  0
  -23.5340  -32.0470   23.9690 O   0  0  0  0  0  0  0  0  0  0  0  0
  -22.7500  -29.4280   22.5920 C   0  0  0  0  0  0  0  0  0  0  0  0
  -21.4290  -29.2910   22.3970 N   0  0  0  0  0  0  0  0  0  0  0  0
  -23.3770  -28.7470   23.4080 O   0  0  0  0  0  0  0  0  0  0  0  0
  -20.9860  -29.8910   21.7150 H   0  0  0  0  0  0  0  0  0  0  0  0
  -18.0020  -28.1780   22.6810 C   0  0  0  0  0  0  0  0  0  0  0  0
  -20.5500  -28.3490   23.0880 C   0  0  0  0  0  3  0  0  0  0  0  0
  -20.6410  -26.9380   22.4610 C   0  0  0  0  0  2  0  0  0  0  0  0
  -19.5830  -26.6890   21.3810 C   0  0  0  0  0  2  0  0  0  0  0  0
  -18.1740  -26.8510   21.9610 C   0  0  0  0  0  2  0  0  0  0  0  0
  -19.1190  -28.8880   23.1970 C   0  0  0  0  0  0  0  0  0  0  0  0
  -18.9060  -30.1340   23.8260 C   0  0  0  0  0  3  0  0  0  0  0  0
  -17.6100  -30.6680   23.9460 C   0  0  0  0  0  3  0  0  0  0  0  0
  -16.5060  -29.9540   23.4480 C   0  0  0  0  0  3  0  0  0  0  0  0
  -16.7030  -28.7110   22.8200 C   0  0  0  0  0  3  0  0  0  0  0  0
  -25.9040  -32.3350   24.1740 C   0  0  0  0  0  3  0  0  0  0  0  0
  -26.3350  -31.5030   25.4430 C   0  0  1  0  0  0  0  0  0  0  0  0
  -25.1870  -31.2590   26.4490 C   0  0  0  0  0  1  0  0  0  0  0  0
  -26.8960  -30.1230   25.0260 C   0  0  0  0  0  1  0  0  0  0  0  0
  -27.4750  -32.2360   26.1900 C   0  0  0  0  0  1  0  0  0  0  0  0
  -25.6270  -33.7320   24.5370 N   0  0  0  0  0  0  0  0  0  0  0  0
  -26.0240  -34.7940   23.8230 C   0  0  0  0  0  0  0  0  0  0  0  0
  -26.7380  -34.6990   22.8210 O   0  0  0  0  0  0  0  0  0  0  0  0
  -25.0100  -33.8820   25.3210 H   0  0  0  0  0  0  0  0  0  0  0  0
  -24.3650  -36.6430   23.4420 C   0  0  0  0  0  1  0  0  0  0  0  0
  -25.5550  -36.1830   24.2980 C   0  0  0  0  0  3  0  0  0  0  0  0
  -27.6770  -36.9770   25.2450 C   0  0  0  0  0  1  0  0  0  0  0  0
  -26.6220  -37.2080   24.2620 N   0  0  0  0  0  0  0  0  0  0  0  0
  -26.2360  -38.1350   24.4210 H   0  0  0  0  0  0  0  0  0  0  0  0
  -27.4630  -20.6560   19.7130 C   0  0  0  0  0  2  0  0  0  0  0  0
  -28.6240  -20.0640   20.2770 O   0  0  0  0  0  0  0  0  0  0  0  0
  -28.3750  -18.7800   20.8390 C   0  0  0  0  0  2  0  0  0  0  0  0
  -29.6440  -18.2980   21.5530 C   0  0  0  0  0  2  0  0  0  0  0  0
  -30.4720  -17.6250   20.6110 O   0  0  0  0  0  0  0  0  0  0  0  0
  -31.7240  -17.2350   21.1600 C   0  0  0  0  0  2  0  0  0  0  0  0
  -32.3870  -16.2030   20.2420 C   0  0  0  0  0  2  0  0  0  0  0  0
  -31.7350  -14.9460   20.3550 O   0  0  0  0  0  0  0  0  0  0  0  0
  -32.1930  -13.9050   19.6390 C   0  0  0  0  0  0  0  0  0  0  0  0
  -31.5480  -11.6150   18.9080 C   0  0  0  0  0  2  0  0  0  0  0  0
  -30.5770  -11.6880   17.7180 C   0  0  0  0  0  2  0  0  0  0  0  0
  -29.1250  -11.7910   18.2170 C   0  0  0  0  0  2  0  0  0  0  0  0
  -28.9410  -12.9180   19.2680 C   0  0  0  0  0  3  0  0  0  0  0  0
  -30.0110  -12.8290   20.3760 C   0  0  0  0  0  2  0  0  0  0  0  0
  -31.3310  -12.8060   19.7320 N   0  0  0  0  0  0  0  0  0  0  0  0
  -33.2330  -13.9410   18.9750 O   0  0  0  0  0  0  0  0  0  0  0  0
  -26.7620  -13.9780   20.1280 C   0  0  0  0  0  0  0  0  0  0  0  0
  -25.5870  -13.4230   20.5630 C   0  0  0  0  0  0  0  0  0  0  0  0
  -25.7720  -12.0080   20.5010 C   0  0  0  0  0  0  0  0  0  0  0  0
  -27.5930  -12.9110   19.8280 N   0  0  0  0  0  0  0  0  0  0  0  0
  -27.0060  -11.7220   20.1100 N   0  0  0  0  0  0  0  0  0  0  0  0
  -24.8280  -10.9080   20.7360 C   0  0  0  0  0  0  0  0  0  0  0  0
  -25.1040   -9.8880   21.6730 C   0  0  0  0  0  3  0  0  0  0  0  0
  -24.1730   -8.8490   21.8940 C   0  0  0  0  0  3  0  0  0  0  0  0
  -22.9520   -8.8260   21.1800 C   0  0  0  0  0  0  0  0  0  0  0  0
  -22.6920   -9.8330   20.2340 C   0  0  0  0  0  3  0  0  0  0  0  0
  -23.6230  -10.8610   20.0090 C   0  0  0  0  0  3  0  0  0  0  0  0
  -22.0000   -7.8430   21.3110 O   0  0  0  0  0  0  0  0  0  0  0  0
  -21.8300   -7.1580   22.4870 C   0  0  0  0  0  0  0  0  0  0  0  0
  -21.5300   -7.8190   23.6980 C   0  0  0  0  0  3  0  0  0  0  0  0
  -21.2930   -7.0720   24.8680 C   0  0  0  0  0  3  0  0  0  0  0  0
  -21.3440   -5.6650   24.8300 C   0  0  0  0  0  0  0  0  0  0  0  0
  -21.6360   -5.0050   23.6230 C   0  0  0  0  0  3  0  0  0  0  0  0
  -21.8740   -5.7500   22.4550 C   0  0  0  0  0  0  0  0  0  0  0  0
  -22.1360   -5.1070   21.2920 F   0  0  0  0  0  0  0  0  0  0  0  0
  -21.1090   -4.9450   25.9510 F   0  0  0  0  0  0  0  0  0  0  0  0
  -24.3310  -14.1600   20.9290 C   0  0  0  0  0  0  0  0  0  0  0  0
  -23.5480  -13.6130   21.8540 N   0  0  0  0  0  0  0  0  0  0  0  0
  -24.0590  -15.2500   20.4270 O   0  0  0  0  0  0  0  0  0  0  0  0
  -23.7840  -12.7260   22.2770 H   0  0  0  0  0  0  0  0  0  0  0  0
  -22.7010  -14.0810   22.1430 H   0  0  0  0  0  0  0  0  0  0  0  0
  -27.1860  -15.2890   19.9480 N   0  0  0  0  0  0  0  0  0  0  0  0
  -26.5820  -16.0860   20.1110 H   0  0  0  0  0  0  0  0  0  0  0  0
  -28.0950  -15.5490   19.5880 H   0  0  0  0  0  0  0  0  0  0  0  0
  1 46  1  0
  1  2  1  0
  3  2  1  0
  3  4  1  0
  5  4  1  0
  6 17  2  0
  7  5  1  0
  7 12  1  0
  8 16  1  0
  8 18  1  0
  9 15  1  0
  9 11  1  0
 10 16  1  0
 11 12  2  0
 11 10  1  0
 13  7  2  0
 14 13  1  0
 14  9  2  0
 15  8  1  0
 16  6  1  0
 18 20  2  0
 19 18  1  0
 21 19  1  0
 22 31  2  0
 22 27  1  0
 23 19  1  0
 23 27  1  0
 24 23  1  0
 25 26  1  0
 25 24  1  0
 26 22  1  0
 27 28  2  0
 28 29  1  0
 30 29  2  0
 31 30  1  0
 32  6  1  0
 32 37  1  0
 32 33  1  0
 33 36  1  1
 33 34  1  0
 35 33  1  0
 37 40  1  0
 38 42  1  0
 38 37  1  0
 39 38  2  0
 42 41  1  0
 44 42  1  0
 44 45  1  0
 44 43  1  0
 46 47  1  0
 47 48  1  0
 48 49  1  0
 50 51  1  0
 50 49  1  0
 52 53  1  0
 52 51  1  0
 54 60  1  0
 54 53  1  0
 55 60  1  0
 56 57  1  0
 56 55  1  0
 58 57  1  0
 58 65  1  0
 58 59  1  0
 60 59  1  0
 61 54  2  0
 62 63  2  0
 63 82  1  0
 64 63  1  0
 64 67  1  0
 65 66  1  0
 65 62  1  0
 66 64  2  0
 67 68  1  0
 68 69  2  0
 70 73  1  0
 70 69  1  0
 71 70  2  0
 72 71  1  0
 72 67  2  0
 73 74  1  0
 74 75  1  0
 75 76  2  0
 77 76  1  0
 77 81  1  0
 78 77  2  0
 79 74  2  0
 79 78  1  0
 80 79  1  0
 82 83  1  0
 83 86  1  0
 83 85  1  0
 84 82  2  0
 87 88  1  0
 87 62  1  0
 89 87  1  0
M  ISO  4   4 101   5 101  53 100  54 100
M  END
>  <TORSDO>  (78) 
F 27

>  <SCORE>  (78) 
-9.349

>  <name>  (78) 
78

>  <ligand_id>  (78) 
78

>  <original_smiles>  (78) 
[H]c1c([H])c([H])c2c(c1[H])C([H])([H])C([H])([H])C([H])([H])C2([H])N([H])C(=O)C1([H])N(C(=O)C([H])(N([H])C(=O)C([H])(N([H])C([H])([H])[H])C([H])([H])[H])C(C([H])([H])[H])(C([H])([H])[H])C([H])([H])[H])C([H])([H])c2c([H])c(OC([H])([H])C([H])([H])OC([H])([H])C([H])([H])OC([H])([H])C([H])([H])OC([H])([H])C([H])([H])OC(=O)N3C([H])([H])C([H])([H])C([H])([H])C([H])(n4nc(-c5c([H])c([H])c(Oc6c([H])c([H])c(F)c([H])c6F)c([H])c5[H])c(C(=O)N([H])[H])c4N([H])[H])C3([H])[H])c([H])c([H])c2C1([H])[H]

>  <smiles>  (78) 
[H]c1c([H])c([H])c2c(c1[H])C([H])([H])C([H])([H])C([H])([H])C2([H])N([H])C(=O)C1([H])N(C(=O)C([H])(N([H])C(=O)C([H])(N([H])C([H])([H])[H])C([H])([H])[H])C(C([H])([H])[H])(C([H])([H])[H])C([H])([H])[H])C([H])([H])c2c([H])c(OC([H])([H])C([H])([H])OC([H])([H])C([H])([H])OC([H])([H])C([H])([H])OC([H])([H])C([H])([H])OC(=O)N3C([H])([H])C([H])([H])C([H])([H])C([H])(n4nc(-c5c([H])c([H])c(Oc6c([H])c([H])c(F)c([H])c6F)c([H])c5[H])c(C(=O)N([H])[H])c4N([H])[H])C3([H])[H])c([H])c([H])c2C1([H])[H]

$$$$
79:0:0
     RDKit          3D

 91 98  0  0  1  0  0  0  0  0999 V2000
  -31.4660  -22.2740   20.4310 C   0  0  0  0  0  0  0  0  0  0  0  0
  -30.2450  -21.7710   20.1980 N   0  0  0  0  0  0  0  0  0  0  0  0
  -32.4780  -21.5660   20.4270 O   0  0  0  0  0  0  0  0  0  0  0  0
  -29.4890  -22.4460   20.2070 H   0  0  0  0  0  0  0  0  0  0  0  0
  -31.6100  -23.7870   20.6640 C   0  0  0  0  0  2  0  0  0  0  0  0
  -30.3460  -24.4480   20.8220 O   0  0  0  0  0  0  0  0  0  0  0  0
  -30.5350  -25.8670   20.8490 C   0  0  0  0  0  2  0  0  0  0  0  0
  -29.2690  -26.6740   21.1880 C   0  0  0  0  0  2  0  0  0  0  0  0
  -28.3820  -26.6860   20.0710 O   0  0  0  0  0  0  0  0  0  0  0  0
  -24.5830  -31.8670   23.2510 C   0  0  0  0  0  0  0  0  0  0  0  0
  -27.2410  -27.4530   20.1590 C   0  0  0  0  0  0  0  0  0  0  0  0
  -23.3740  -30.4660   21.6050 C   0  0  0  0  0  3  0  0  0  0  0  0
  -24.8290  -28.9320   20.1790 C   0  0  0  0  0  0  0  0  0  0  0  0
  -25.8920  -30.8380   21.3990 C   0  0  0  0  0  2  0  0  0  0  0  0
  -25.9810  -29.4620   20.7710 C   0  0  0  0  0  0  0  0  0  0  0  0
  -27.1880  -28.7300   20.7710 C   0  0  0  0  0  3  0  0  0  0  0  0
  -26.0750  -26.9380   19.5600 C   0  0  0  0  0  3  0  0  0  0  0  0
  -24.8660  -27.6630   19.5720 C   0  0  0  0  0  3  0  0  0  0  0  0
  -23.5860  -29.7910   20.2220 C   0  0  0  0  0  2  0  0  0  0  0  0
  -24.6340  -31.0700   22.1450 N   0  0  0  0  0  0  0  0  0  0  0  0
  -23.5030  -32.1350   23.7950 O   0  0  0  0  0  0  0  0  0  0  0  0
  -22.7270  -29.4420   22.5640 C   0  0  0  0  0  0  0  0  0  0  0  0
  -21.4030  -29.2590   22.4390 N   0  0  0  0  0  0  0  0  0  0  0  0
  -23.4140  -28.8150   23.3760 O   0  0  0  0  0  0  0  0  0  0  0  0
  -20.9130  -29.8150   21.7520 H   0  0  0  0  0  0  0  0  0  0  0  0
  -18.0300  -28.0690   22.9440 C   0  0  0  0  0  0  0  0  0  0  0  0
  -20.5890  -28.3210   23.2100 C   0  0  0  0  0  3  0  0  0  0  0  0
  -20.6870  -26.8910   22.6310 C   0  0  0  0  0  2  0  0  0  0  0  0
  -19.5820  -26.5730   21.6180 C   0  0  0  0  0  2  0  0  0  0  0  0
  -18.2020  -26.7200   22.2670 C   0  0  0  0  0  2  0  0  0  0  0  0
  -19.1500  -28.8270   23.3750 C   0  0  0  0  0  0  0  0  0  0  0  0
  -18.9370  -30.0890   23.9690 C   0  0  0  0  0  3  0  0  0  0  0  0
  -17.6330  -30.5930   24.1410 C   0  0  0  0  0  3  0  0  0  0  0  0
  -16.5260  -29.8310   23.7260 C   0  0  0  0  0  3  0  0  0  0  0  0
  -16.7260  -28.5710   23.1340 C   0  0  0  0  0  3  0  0  0  0  0  0
  -25.8710  -32.4950   23.8670 C   0  0  0  0  0  3  0  0  0  0  0  0
  -25.5650  -33.8930   24.1980 N   0  0  0  0  0  0  0  0  0  0  0  0
  -25.9010  -34.9440   23.4370 C   0  0  0  0  0  0  0  0  0  0  0  0
  -26.5710  -34.8380   22.4060 O   0  0  0  0  0  0  0  0  0  0  0  0
  -24.9660  -34.0500   24.9950 H   0  0  0  0  0  0  0  0  0  0  0  0
  -24.1780  -36.7390   23.0740 C   0  0  0  0  0  1  0  0  0  0  0  0
  -25.4160  -36.3340   23.8910 C   0  0  0  0  0  3  0  0  0  0  0  0
  -27.5510  -37.2090   24.7290 C   0  0  0  0  0  1  0  0  0  0  0  0
  -26.4530  -37.3840   23.7820 N   0  0  0  0  0  0  0  0  0  0  0  0
  -26.0500  -38.3050   23.9290 H   0  0  0  0  0  0  0  0  0  0  0  0
  -26.3960  -31.7200   25.1370 C   0  0  1  0  0  0  0  0  0  0  0  0
  -25.3100  -31.4770   26.2120 C   0  0  0  0  0  1  0  0  0  0  0  0
  -26.9740  -30.3440   24.7300 C   0  0  0  0  0  1  0  0  0  0  0  0
  -27.5500  -32.5100   25.7950 C   0  0  0  0  0  1  0  0  0  0  0  0
  -29.9460  -20.3950   19.7760 C   0  0  0  0  0  2  0  0  0  0  0  0
  -30.1550  -19.3390   20.8900 C   0  0  0  0  0  2  0  0  0  0  0  0
  -29.8330  -17.8870   20.4460 C   0  0  0  0  0  2  0  0  0  0  0  0
  -30.3400  -16.8250   21.4520 C   0  0  0  0  0  2  0  0  0  0  0  0
  -30.6320  -14.4900   20.5120 C   0  0  0  0  0  0  0  0  0  0  0  0
  -30.3600  -12.3430   19.3180 C   0  0  0  0  0  2  0  0  0  0  0  0
  -29.4140  -12.5610   18.1180 C   0  0  0  0  0  2  0  0  0  0  0  0
  -27.9360  -12.4310   18.5410 C   0  0  0  0  0  2  0  0  0  0  0  0
  -27.6000  -13.2370   19.8250 C   0  0  0  0  0  3  0  0  0  0  0  0
  -28.6570  -12.9800   20.9230 C   0  0  0  0  0  2  0  0  0  0  0  0
  -29.9790  -13.3070   20.3600 N   0  0  0  0  0  0  0  0  0  0  0  0
  -31.7450  -14.7140   20.0280 O   0  0  0  0  0  0  0  0  0  0  0  0
  -29.9230  -15.4510   21.1350 N   0  0  0  0  0  0  0  0  0  0  0  0
  -29.0100  -15.1720   21.4580 H   0  0  0  0  0  0  0  0  0  0  0  0
  -25.1980  -13.8280   20.5400 C   0  0  0  0  0  0  0  0  0  0  0  0
  -24.1360  -13.0480   20.9110 C   0  0  0  0  0  0  0  0  0  0  0  0
  -24.6050  -11.7000   20.8790 C   0  0  0  0  0  0  0  0  0  0  0  0
  -26.2500  -12.9540   20.3050 N   0  0  0  0  0  0  0  0  0  0  0  0
  -25.8960  -11.6690   20.5660 N   0  0  0  0  0  0  0  0  0  0  0  0
  -23.8890  -10.4330   21.0720 C   0  0  0  0  0  0  0  0  0  0  0  0
  -24.3410   -9.4610   21.9920 C   0  0  0  0  0  3  0  0  0  0  0  0
  -23.6250   -8.2580   22.1710 C   0  0  0  0  0  3  0  0  0  0  0  0
  -22.4430   -8.0200   21.4320 C   0  0  0  0  0  0  0  0  0  0  0  0
  -22.0110   -8.9800   20.5000 C   0  0  0  0  0  3  0  0  0  0  0  0
  -22.7280  -10.1720   20.3190 C   0  0  0  0  0  3  0  0  0  0  0  0
  -21.6960   -6.8700   21.5240 O   0  0  0  0  0  0  0  0  0  0  0  0
  -21.6820   -6.1080   22.6650 C   0  0  0  0  0  0  0  0  0  0  0  0
  -21.2910   -6.6420   23.9110 C   0  0  0  0  0  3  0  0  0  0  0  0
  -21.2200   -5.8050   25.0430 C   0  0  0  0  0  3  0  0  0  0  0  0
  -21.5360   -4.4380   24.9300 C   0  0  0  0  0  0  0  0  0  0  0  0
  -21.9220   -3.9050   23.6890 C   0  0  0  0  0  3  0  0  0  0  0  0
  -21.9930   -4.7370   22.5590 C   0  0  0  0  0  0  0  0  0  0  0  0
  -22.3440   -4.2120   21.3600 F   0  0  0  0  0  0  0  0  0  0  0  0
  -21.4620   -3.6360   26.0180 F   0  0  0  0  0  0  0  0  0  0  0  0
  -22.7350  -13.5160   21.1840 C   0  0  0  0  0  0  0  0  0  0  0  0
  -22.0080  -12.8190   22.0510 N   0  0  0  0  0  0  0  0  0  0  0  0
  -22.2900  -14.5380   20.6620 O   0  0  0  0  0  0  0  0  0  0  0  0
  -22.3760  -11.9950   22.5030 H   0  0  0  0  0  0  0  0  0  0  0  0
  -21.0690  -13.1170   22.2660 H   0  0  0  0  0  0  0  0  0  0  0  0
  -25.3510  -15.1990   20.3640 N   0  0  0  0  0  0  0  0  0  0  0  0
  -24.5800  -15.8470   20.4820 H   0  0  0  0  0  0  0  0  0  0  0  0
  -26.1960  -15.6460   20.0290 H   0  0  0  0  0  0  0  0  0  0  0  0
  1  5  1  0
  2  4  1  0
  2  1  1  0
  3  1  2  0
  5  6  1  0
  6  7  1  0
  7  8  1  0
  9 11  1  0
  9  8  1  0
 10 21  2  0
 11 16  1  0
 12 20  1  0
 12 22  1  0
 13 19  1  0
 13 15  1  0
 14 20  1  0
 15 16  2  0
 15 14  1  0
 17 18  1  0
 17 11  2  0
 18 13  2  0
 19 12  1  0
 20 10  1  0
 22 24  2  0
 23 22  1  0
 25 23  1  0
 26 35  2  0
 26 31  1  0
 27 23  1  0
 27 31  1  0
 28 27  1  0
 29 30  1  0
 29 28  1  0
 30 26  1  0
 31 32  2  0
 32 33  1  0
 34 33  2  0
 35 34  1  0
 36 10  1  0
 36 37  1  0
 36 46  1  0
 37 40  1  0
 38 42  1  0
 38 37  1  0
 39 38  2  0
 42 41  1  0
 44 42  1  0
 44 45  1  0
 44 43  1  0
 46 49  1  1
 46 47  1  0
 48 46  1  0
 50  2  1  0
 50 51  1  0
 52 51  1  0
 52 53  1  0
 54 62  1  0
 55 60  1  0
 56 57  1  0
 56 55  1  0
 58 57  1  0
 58 67  1  0
 58 59  1  0
 60 54  1  0
 60 59  1  0
 61 54  2  0
 62 53  1  0
 62 63  1  0
 64 65  2  0
 65 84  1  0
 66 65  1  0
 66 69  1  0
 67 64  1  0
 67 68  1  0
 68 66  2  0
 69 70  1  0
 70 71  2  0
 72 75  1  0
 72 71  1  0
 73 72  2  0
 74 73  1  0
 74 69  2  0
 75 76  1  0
 76 77  1  0
 77 78  2  0
 79 78  1  0
 79 83  1  0
 80 79  2  0
 81 76  2  0
 81 80  1  0
 82 81  1  0
 84 85  1  0
 85 88  1  0
 85 87  1  0
 86 84  2  0
 89 90  1  0
 89 64  1  0
 91 89  1  0
M  ISO  4   8 101   9 101  54 100  62 100
M  END
>  <TORSDO>  (79) 
F 24

>  <SCORE>  (79) 
-12.428

>  <name>  (79) 
79

>  <ligand_id>  (79) 
79

>  <original_smiles>  (79) 
[H]c1c([H])c([H])c2c(c1[H])C([H])([H])C([H])([H])C([H])([H])C2([H])N([H])C(=O)C1([H])N(C(=O)C([H])(N([H])C(=O)C([H])(N([H])C([H])([H])[H])C([H])([H])[H])C(C([H])([H])[H])(C([H])([H])[H])C([H])([H])[H])C([H])([H])c2c([H])c(OC([H])([H])C([H])([H])OC([H])([H])C(=O)N([H])C([H])([H])C([H])([H])C([H])([H])C([H])([H])N([H])C(=O)N3C([H])([H])C([H])([H])C([H])([H])C([H])(n4nc(-c5c([H])c([H])c(Oc6c([H])c([H])c(F)c([H])c6F)c([H])c5[H])c(C(=O)N([H])[H])c4N([H])[H])C3([H])[H])c([H])c([H])c2C1([H])[H]

>  <smiles>  (79) 
[H]c1c([H])c([H])c2c(c1[H])C([H])([H])C([H])([H])C([H])([H])C2([H])N([H])C(=O)C1([H])N(C(=O)C([H])(N([H])C(=O)C([H])(N([H])C([H])([H])[H])C([H])([H])[H])C(C([H])([H])[H])(C([H])([H])[H])C([H])([H])[H])C([H])([H])c2c([H])c(OC([H])([H])C([H])([H])OC([H])([H])C(=O)N([H])C([H])([H])C([H])([H])C([H])([H])C([H])([H])N([H])C(=O)N3C([H])([H])C([H])([H])C([H])([H])C([H])(n4nc(-c5c([H])c([H])c(Oc6c([H])c([H])c(F)c([H])c6F)c([H])c5[H])c(C(=O)N([H])[H])c4N([H])[H])C3([H])[H])c([H])c([H])c2C1([H])[H]

$$$$
80:0:0
     RDKit          3D

 98105  0  0  1  0  0  0  0  0999 V2000
  -30.7370  -21.0220   18.1510 C   0  0  0  0  0  0  0  0  0  0  0  0
  -30.8870  -19.7050   18.3020 N   0  0  0  0  0  0  0  0  0  0  0  0
  -31.6030  -21.8440   18.4650 O   0  0  0  0  0  0  0  0  0  0  0  0
  -30.1830  -19.0750   17.9300 H   0  0  0  0  0  0  0  0  0  0  0  0
  -32.0620  -18.9810   18.7600 C   0  0  0  0  0  3  0  0  0  0  0  0
  -32.2370  -17.7870   17.8090 C   0  0  0  0  0  0  0  0  0  0  0  0
  -31.2160  -17.3560   17.2270 O   0  0  0  0  0  0  0  0  0  0  0  0
  -33.3830  -17.3420   17.5990 O   0  0  0  0  0  1  0  0  0  0  0  0
  -31.9410  -18.6100   20.2560 C   0  0  0  0  0  2  0  0  0  0  0  0
  -30.5690  -18.0190   20.6600 C   0  0  0  0  0  2  0  0  0  0  0  0
  -30.5590  -17.3110   22.0240 C   0  0  0  0  0  2  0  0  0  0  0  0
  -31.2950  -15.9620   22.0190 C   0  0  0  0  0  2  0  0  0  0  0  0
  -30.7160  -14.2560   20.2960 C   0  0  0  0  0  0  0  0  0  0  0  0
  -30.1810  -12.2970   18.9010 C   0  0  0  0  0  2  0  0  0  0  0  0
  -29.1870  -12.6350   17.7780 C   0  0  0  0  0  2  0  0  0  0  0  0
  -27.7390  -12.4890   18.2810 C   0  0  0  0  0  2  0  0  0  0  0  0
  -27.5010  -13.2300   19.6200 C   0  0  0  0  0  3  0  0  0  0  0  0
  -28.6040  -12.9130   20.6550 C   0  0  0  0  0  2  0  0  0  0  0  0
  -29.9180  -13.1900   20.0420 N   0  0  0  0  0  0  0  0  0  0  0  0
  -31.6790  -14.5630   19.5870 O   0  0  0  0  0  0  0  0  0  0  0  0
  -30.4710  -14.8990   21.4430 N   0  0  0  0  0  0  0  0  0  0  0  0
  -29.6870  -14.5750   21.9870 H   0  0  0  0  0  0  0  0  0  0  0  0
  -25.1240  -13.8230   20.4130 C   0  0  0  0  0  0  0  0  0  0  0  0
  -24.0720  -13.0450   20.8190 C   0  0  0  0  0  0  0  0  0  0  0  0
  -24.5420  -11.6960   20.7730 C   0  0  0  0  0  0  0  0  0  0  0  0
  -26.1660  -12.9500   20.1480 N   0  0  0  0  0  0  0  0  0  0  0  0
  -25.8200  -11.6630   20.4170 N   0  0  0  0  0  0  0  0  0  0  0  0
  -23.8290  -10.4290   20.9880 C   0  0  0  0  0  0  0  0  0  0  0  0
  -24.3030   -9.4590   21.9000 C   0  0  0  0  0  3  0  0  0  0  0  0
  -23.5920   -8.2560   22.1010 C   0  0  0  0  0  3  0  0  0  0  0  0
  -22.3920   -8.0160   21.3890 C   0  0  0  0  0  0  0  0  0  0  0  0
  -21.9390   -8.9740   20.4640 C   0  0  0  0  0  3  0  0  0  0  0  0
  -22.6510  -10.1670   20.2630 C   0  0  0  0  0  3  0  0  0  0  0  0
  -21.6450   -6.8680   21.5030 O   0  0  0  0  0  0  0  0  0  0  0  0
  -21.6500   -6.1130   22.6500 C   0  0  0  0  0  0  0  0  0  0  0  0
  -21.2900   -6.6590   23.9010 C   0  0  0  0  0  3  0  0  0  0  0  0
  -21.2460   -5.8340   25.0430 C   0  0  0  0  0  3  0  0  0  0  0  0
  -21.5480   -4.4650   24.9320 C   0  0  0  0  0  0  0  0  0  0  0  0
  -21.9010   -3.9160   23.6870 C   0  0  0  0  0  3  0  0  0  0  0  0
  -21.9500   -4.7400   22.5470 C   0  0  0  0  0  0  0  0  0  0  0  0
  -22.2690   -4.2050   21.3450 F   0  0  0  0  0  0  0  0  0  0  0  0
  -21.4990   -3.6690   26.0260 F   0  0  0  0  0  0  0  0  0  0  0  0
  -22.6840  -13.5120   21.1460 C   0  0  0  0  0  0  0  0  0  0  0  0
  -21.9960  -12.8060   22.0380 N   0  0  0  0  0  0  0  0  0  0  0  0
  -22.2190  -14.5350   20.6490 O   0  0  0  0  0  0  0  0  0  0  0  0
  -22.3900  -11.9810   22.4660 H   0  0  0  0  0  0  0  0  0  0  0  0
  -21.0640  -13.0940   22.2990 H   0  0  0  0  0  0  0  0  0  0  0  0
  -25.2760  -15.1960   20.2360 N   0  0  0  0  0  0  0  0  0  0  0  0
  -24.5160  -15.8530   20.3840 H   0  0  0  0  0  0  0  0  0  0  0  0
  -26.1310  -15.6410   19.9270 H   0  0  0  0  0  0  0  0  0  0  0  0
  -29.3840  -21.4840   17.5960 C   0  0  0  0  0  2  0  0  0  0  0  0
  -28.6160  -22.1550   18.5940 O   0  0  0  0  0  0  0  0  0  0  0  0
  -28.2790  -21.3670   19.7350 C   0  0  0  0  0  2  0  0  0  0  0  0
  -27.3080  -22.1350   20.6350 C   0  0  0  0  0  2  0  0  0  0  0  0
  -27.9580  -23.2770   21.1890 O   0  0  0  0  0  0  0  0  0  0  0  0
  -27.6630  -24.4720   20.4780 C   0  0  0  0  0  2  0  0  0  0  0  0
  -28.4760  -25.6580   21.0270 C   0  0  0  0  0  2  0  0  0  0  0  0
  -28.4770  -26.7870   20.1500 O   0  0  0  0  0  0  0  0  0  0  0  0
  -24.6370  -31.9100   23.2470 C   0  0  0  0  0  0  0  0  0  0  0  0
  -27.3090  -27.5080   20.1590 C   0  0  0  0  0  0  0  0  0  0  0  0
  -23.4410  -30.4980   21.6060 C   0  0  0  0  0  3  0  0  0  0  0  0
  -24.9090  -28.9770   20.1830 C   0  0  0  0  0  0  0  0  0  0  0  0
  -25.9610  -30.8790   21.4120 C   0  0  0  0  0  2  0  0  0  0  0  0
  -26.0580  -29.5070   20.7840 C   0  0  0  0  0  0  0  0  0  0  0  0
  -27.2620  -28.7700   20.7870 C   0  0  0  0  0  3  0  0  0  0  0  0
  -26.1550  -27.0080   19.5200 C   0  0  0  0  0  3  0  0  0  0  0  0
  -24.9470  -27.7230   19.5550 C   0  0  0  0  0  3  0  0  0  0  0  0
  -23.6580  -29.8230   20.2260 C   0  0  0  0  0  2  0  0  0  0  0  0
  -24.6970  -31.1110   22.1460 N   0  0  0  0  0  0  0  0  0  0  0  0
  -23.5520  -32.1750   23.7860 O   0  0  0  0  0  0  0  0  0  0  0  0
  -22.7990  -29.4690   22.5660 C   0  0  0  0  0  0  0  0  0  0  0  0
  -21.4730  -29.2820   22.4410 N   0  0  0  0  0  0  0  0  0  0  0  0
  -23.4870  -28.8410   23.3750 O   0  0  0  0  0  0  0  0  0  0  0  0
  -20.9800  -29.8380   21.7580 H   0  0  0  0  0  0  0  0  0  0  0  0
  -18.1050  -28.0730   22.9350 C   0  0  0  0  0  0  0  0  0  0  0  0
  -20.6600  -28.3420   23.2100 C   0  0  0  0  0  3  0  0  0  0  0  0
  -20.7740  -26.9120   22.6350 C   0  0  0  0  0  2  0  0  0  0  0  0
  -19.6740  -26.5800   21.6210 C   0  0  0  0  0  2  0  0  0  0  0  0
  -18.2890  -26.7230   22.2600 C   0  0  0  0  0  2  0  0  0  0  0  0
  -19.2200  -28.8400   23.3660 C   0  0  0  0  0  0  0  0  0  0  0  0
  -18.9970  -30.1020   23.9560 C   0  0  0  0  0  3  0  0  0  0  0  0
  -17.6910  -30.6030   24.1140 C   0  0  0  0  0  3  0  0  0  0  0  0
  -16.5890  -29.8320   23.7000 C   0  0  0  0  0  3  0  0  0  0  0  0
  -16.7980  -28.5680   23.1190 C   0  0  0  0  0  3  0  0  0  0  0  0
  -25.9180  -32.5490   23.8650 C   0  0  0  0  0  3  0  0  0  0  0  0
  -25.6040  -33.9440   24.1980 N   0  0  0  0  0  0  0  0  0  0  0  0
  -25.9250  -34.9960   23.4310 C   0  0  0  0  0  0  0  0  0  0  0  0
  -26.5890  -34.8910   22.3950 O   0  0  0  0  0  0  0  0  0  0  0  0
  -25.0270  -34.1040   25.0120 H   0  0  0  0  0  0  0  0  0  0  0  0
  -24.1820  -36.7700   23.0740 C   0  0  0  0  0  1  0  0  0  0  0  0
  -25.4290  -36.3810   23.8850 C   0  0  0  0  0  3  0  0  0  0  0  0
  -27.5600  -37.2810   24.7060 C   0  0  0  0  0  1  0  0  0  0  0  0
  -26.4540  -37.4410   23.7670 N   0  0  0  0  0  0  0  0  0  0  0  0
  -26.0400  -38.3570   23.9150 H   0  0  0  0  0  0  0  0  0  0  0  0
  -26.4520  -31.7790   25.1380 C   0  0  1  0  0  0  0  0  0  0  0  0
  -25.3630  -31.5250   26.2080 C   0  0  0  0  0  1  0  0  0  0  0  0
  -27.0440  -30.4080   24.7340 C   0  0  0  0  0  1  0  0  0  0  0  0
  -27.6030  -32.5790   25.7920 C   0  0  0  0  0  1  0  0  0  0  0  0
  1  2  1  0
  1  3  2  0
  2  5  1  0
  4  2  1  0
  5  9  1  0
  6  5  1  0
  7  6  2  0
  8  6  1  0
  9 10  1  0
 10 11  1  0
 12 11  1  0
 13 21  1  0
 14 19  1  0
 15 16  1  0
 15 14  1  0
 17 16  1  0
 17 26  1  0
 17 18  1  0
 19 13  1  0
 19 18  1  0
 20 13  2  0
 21 22  1  0
 21 12  1  0
 23 24  2  0
 24 43  1  0
 25 24  1  0
 25 28  1  0
 26 23  1  0
 26 27  1  0
 27 25  2  0
 28 29  1  0
 29 30  2  0
 31 34  1  0
 31 30  1  0
 32 31  2  0
 33 32  1  0
 33 28  2  0
 34 35  1  0
 35 36  1  0
 36 37  2  0
 38 37  1  0
 38 42  1  0
 39 38  2  0
 40 35  2  0
 40 39  1  0
 41 40  1  0
 43 44  1  0
 44 47  1  0
 44 46  1  0
 45 43  2  0
 48 49  1  0
 48 23  1  0
 50 48  1  0
 51  1  1  0
 51 52  1  0
 52 53  1  0
 53 54  1  0
 54 55  1  0
 56 57  1  0
 56 55  1  0
 58 60  1  0
 58 57  1  0
 59 70  2  0
 60 65  1  0
 61 69  1  0
 61 71  1  0
 62 68  1  0
 62 64  1  0
 63 69  1  0
 64 65  2  0
 64 63  1  0
 66 67  1  0
 66 60  2  0
 67 62  2  0
 68 61  1  0
 69 59  1  0
 71 73  2  0
 72 71  1  0
 74 72  1  0
 75 84  2  0
 75 80  1  0
 76 72  1  0
 76 80  1  0
 77 76  1  0
 78 79  1  0
 78 77  1  0
 79 75  1  0
 80 81  2  0
 81 82  1  0
 83 82  2  0
 84 83  1  0
 85 59  1  0
 85 86  1  0
 85 95  1  0
 86 89  1  0
 87 91  1  0
 87 86  1  0
 88 87  2  0
 91 90  1  0
 93 91  1  0
 93 94  1  0
 93 92  1  0
 95 98  1  1
 95 96  1  0
 97 95  1  0
M  ISO  4  13 100  21 100  57 101  58 101
M  END
>  <TORSDO>  (80) 
F 29

>  <SCORE>  (80) 
-10.945

>  <name>  (80) 
80

>  <ligand_id>  (80) 
80

>  <original_smiles>  (80) 
[H]c1c([H])c([H])c2c(c1[H])C([H])([H])C([H])([H])C([H])([H])C2([H])N([H])C(=O)C1([H])N(C(=O)C([H])(N([H])C(=O)C([H])(N([H])C([H])([H])[H])C([H])([H])[H])C(C([H])([H])[H])(C([H])([H])[H])C([H])([H])[H])C([H])([H])c2c([H])c(OC([H])([H])C([H])([H])OC([H])([H])C([H])([H])OC([H])([H])C(=O)N([H])C([H])(C(=O)[O-])C([H])([H])C([H])([H])C([H])([H])C([H])([H])N([H])C(=O)N3C([H])([H])C([H])([H])C([H])([H])C([H])(n4nc(-c5c([H])c([H])c(Oc6c([H])c([H])c(F)c([H])c6F)c([H])c5[H])c(C(=O)N([H])[H])c4N([H])[H])C3([H])[H])c([H])c([H])c2C1([H])[H]

>  <smiles>  (80) 
[H]c1c([H])c([H])c2c(c1[H])C([H])([H])C([H])([H])C([H])([H])C2([H])N([H])C(=O)C1([H])N(C(=O)C([H])(N([H])C(=O)C([H])(N([H])C([H])([H])[H])C([H])([H])[H])C(C([H])([H])[H])(C([H])([H])[H])C([H])([H])[H])C([H])([H])c2c([H])c(OC([H])([H])C([H])([H])OC([H])([H])C([H])([H])OC([H])([H])C(=O)N([H])C([H])(C(=O)[O-])C([H])([H])C([H])([H])C([H])([H])C([H])([H])N([H])C(=O)N3C([H])([H])C([H])([H])C([H])([H])C([H])(n4nc(-c5c([H])c([H])c(Oc6c([H])c([H])c(F)c([H])c6F)c([H])c5[H])c(C(=O)N([H])[H])c4N([H])[H])C3([H])[H])c([H])c([H])c2C1([H])[H]

$$$$
81:0:0
     RDKit          3D

100109  0  0  1  0  0  0  0  0999 V2000
  -29.9010  -23.8910   17.2130 C   0  0  0  0  0  2  0  0  0  0  0  0
  -28.9050  -22.3150   18.9670 C   0  0  0  0  0  2  0  0  0  0  0  0
  -31.2370  -23.1990   17.5350 C   0  0  0  0  0  2  0  0  0  0  0  0
  -29.6860  -21.2950   18.1170 C   0  0  0  0  0  2  0  0  0  0  0  0
  -28.9370  -23.7590   18.4060 C   0  0  0  0  0  3  0  0  0  0  0  0
  -31.0670  -21.7340   17.7670 N   0  0  2  0  0  4  0  0  0  0  0  0
  -31.1520  -21.3430   16.8370 H   0  0  0  0  0  0  0  0  0  0  0  0
  -32.1690  -21.0240   18.4860 C   0  0  0  0  0  2  0  0  0  0  0  0
  -32.8480  -21.7450   19.6810 C   0  0  0  0  0  2  0  0  0  0  0  0
  -31.9830  -22.0820   20.9150 C   0  0  0  0  0  2  0  0  0  0  0  0
  -31.3490  -20.8750   21.6270 C   0  0  0  0  0  2  0  0  0  0  0  0
  -32.3600  -19.9320   21.9700 O   0  0  0  0  0  0  0  0  0  0  0  0
  -32.3290  -16.4850   20.7200 C   0  0  0  0  0  3  0  0  0  0  0  0
  -30.4150  -16.7760   22.2010 C   0  0  0  0  0  3  0  0  0  0  0  0
  -32.7580  -17.7910   21.0080 C   0  0  0  0  0  3  0  0  0  0  0  0
  -30.8410  -18.0900   22.4770 C   0  0  0  0  0  3  0  0  0  0  0  0
  -31.1190  -15.9870   21.2660 C   0  0  0  0  0  0  0  0  0  0  0  0
  -31.9850  -18.6190   21.8390 C   0  0  0  0  0  0  0  0  0  0  0  0
  -30.7500  -14.0560   19.7590 C   0  0  0  0  0  0  0  0  0  0  0  0
  -30.0840  -12.0910   18.4240 C   0  0  0  0  0  2  0  0  0  0  0  0
  -29.0140  -12.4360   17.3730 C   0  0  0  0  0  2  0  0  0  0  0  0
  -27.6070  -12.3180   17.9850 C   0  0  0  0  0  2  0  0  0  0  0  0
  -27.4790  -13.1130   19.3100 C   0  0  0  0  0  3  0  0  0  0  0  0
  -28.6400  -12.7720   20.2700 C   0  0  0  0  0  2  0  0  0  0  0  0
  -29.9220  -12.9940   19.5760 N   0  0  0  0  0  0  0  0  0  0  0  0
  -31.6470  -14.3400   18.9580 O   0  0  0  0  0  0  0  0  0  0  0  0
  -30.5730  -14.7230   20.9100 N   0  0  0  0  0  0  0  0  0  0  0  0
  -29.8130  -14.3850   21.4770 H   0  0  0  0  0  0  0  0  0  0  0  0
  -25.1930  -13.7900   20.2920 C   0  0  0  0  0  0  0  0  0  0  0  0
  -24.1510  -13.0470   20.7760 C   0  0  0  0  0  0  0  0  0  0  0  0
  -24.5660  -11.6830   20.6840 C   0  0  0  0  0  0  0  0  0  0  0  0
  -26.1800  -12.8820   19.9410 N   0  0  0  0  0  0  0  0  0  0  0  0
  -25.8100  -11.6080   20.2320 N   0  0  0  0  0  0  0  0  0  0  0  0
  -23.8300  -10.4420   20.9490 C   0  0  0  0  0  0  0  0  0  0  0  0
  -24.3190   -9.4670   21.8460 C   0  0  0  0  0  3  0  0  0  0  0  0
  -23.5850   -8.2880   22.0950 C   0  0  0  0  0  3  0  0  0  0  0  0
  -22.3440   -8.0760   21.4470 C   0  0  0  0  0  0  0  0  0  0  0  0
  -21.8730   -9.0370   20.5350 C   0  0  0  0  0  3  0  0  0  0  0  0
  -22.6100  -10.2070   20.2860 C   0  0  0  0  0  3  0  0  0  0  0  0
  -21.5720   -6.9510   21.6100 O   0  0  0  0  0  0  0  0  0  0  0  0
  -21.6070   -6.2140   22.7650 C   0  0  0  0  0  0  0  0  0  0  0  0
  -21.3200   -6.7870   24.0230 C   0  0  0  0  0  3  0  0  0  0  0  0
  -21.3020   -5.9770   25.1770 C   0  0  0  0  0  3  0  0  0  0  0  0
  -21.5610   -4.5980   25.0750 C   0  0  0  0  0  0  0  0  0  0  0  0
  -21.8410   -4.0250   23.8220 C   0  0  0  0  0  3  0  0  0  0  0  0
  -21.8630   -4.8310   22.6710 C   0  0  0  0  0  0  0  0  0  0  0  0
  -22.1140   -4.2700   21.4630 F   0  0  0  0  0  0  0  0  0  0  0  0
  -21.5350   -3.8200   26.1810 F   0  0  0  0  0  0  0  0  0  0  0  0
  -22.8100  -13.5620   21.2120 C   0  0  0  0  0  0  0  0  0  0  0  0
  -22.1820  -12.8900   22.1700 N   0  0  0  0  0  0  0  0  0  0  0  0
  -22.3320  -14.5920   20.7370 O   0  0  0  0  0  0  0  0  0  0  0  0
  -22.5790  -12.0520   22.5680 H   0  0  0  0  0  0  0  0  0  0  0  0
  -21.2890  -13.2170   22.5130 H   0  0  0  0  0  0  0  0  0  0  0  0
  -25.3820  -15.1560   20.1010 N   0  0  0  0  0  0  0  0  0  0  0  0
  -24.6620  -15.8420   20.3020 H   0  0  0  0  0  0  0  0  0  0  0  0
  -26.2130  -15.5690   19.6930 H   0  0  0  0  0  0  0  0  0  0  0  0
  -29.3530  -24.7220   19.3740 O   0  0  0  0  0  0  0  0  0  0  0  0
  -28.4610  -25.2080   20.2440 C   0  0  0  0  0  0  0  0  0  0  0  0
  -27.6530  -24.5420   20.8960 O   0  0  0  0  0  0  0  0  0  0  0  0
  -28.4820  -26.5510   20.1070 O   0  0  0  0  0  0  0  0  0  0  0  0
  -24.5830  -31.6700   23.1640 C   0  0  0  0  0  0  0  0  0  0  0  0
  -27.3030  -27.2620   20.1240 C   0  0  0  0  0  0  0  0  0  0  0  0
  -23.4200  -30.2800   21.4820 C   0  0  0  0  0  3  0  0  0  0  0  0
  -24.9080  -28.7540   20.0930 C   0  0  0  0  0  0  0  0  0  0  0  0
  -25.9510  -30.6370   21.3590 C   0  0  0  0  0  2  0  0  0  0  0  0
  -26.0490  -29.2720   20.7210 C   0  0  0  0  0  0  0  0  0  0  0  0
  -27.2490  -28.5290   20.7430 C   0  0  0  0  0  3  0  0  0  0  0  0
  -26.1400  -26.7590   19.4890 C   0  0  0  0  0  3  0  0  0  0  0  0
  -24.9440  -27.4920   19.4830 C   0  0  0  0  0  3  0  0  0  0  0  0
  -23.6670  -29.6140   20.1050 C   0  0  0  0  0  2  0  0  0  0  0  0
  -24.6670  -30.8790   22.0600 N   0  0  0  0  0  0  0  0  0  0  0  0
  -23.4870  -31.9400   23.6770 O   0  0  0  0  0  0  0  0  0  0  0  0
  -22.7470  -29.2500   22.4150 C   0  0  0  0  0  0  0  0  0  0  0  0
  -21.4210  -29.0930   22.2740 N   0  0  0  0  0  0  0  0  0  0  0  0
  -23.4130  -28.5980   23.2220 O   0  0  0  0  0  0  0  0  0  0  0  0
  -20.9490  -29.6700   21.5930 H   0  0  0  0  0  0  0  0  0  0  0  0
  -18.0150  -27.9780   22.7420 C   0  0  0  0  0  0  0  0  0  0  0  0
  -20.5800  -28.1590   23.0200 C   0  0  0  0  0  3  0  0  0  0  0  0
  -20.6440  -26.7410   22.4070 C   0  0  0  0  0  2  0  0  0  0  0  0
  -19.5360  -26.4730   21.3840 C   0  0  0  0  0  2  0  0  0  0  0  0
  -18.1570  -26.6400   22.0320 C   0  0  0  0  0  2  0  0  0  0  0  0
  -19.1550  -28.6970   23.1910 C   0  0  0  0  0  0  0  0  0  0  0  0
  -18.9720  -29.9500   23.8140 C   0  0  0  0  0  3  0  0  0  0  0  0
  -17.6810  -30.4840   23.9900 C   0  0  0  0  0  3  0  0  0  0  0  0
  -16.5560  -29.7610   23.5570 C   0  0  0  0  0  3  0  0  0  0  0  0
  -16.7240  -28.5100   22.9400 C   0  0  0  0  0  3  0  0  0  0  0  0
  -25.8550  -32.2940   23.8190 C   0  0  0  0  0  3  0  0  0  0  0  0
  -25.5370  -33.6860   24.1600 N   0  0  0  0  0  0  0  0  0  0  0  0
  -25.8710  -34.7460   23.4120 C   0  0  0  0  0  0  0  0  0  0  0  0
  -26.5500  -34.6560   22.3840 O   0  0  0  0  0  0  0  0  0  0  0  0
  -24.9350  -33.8320   24.9580 H   0  0  0  0  0  0  0  0  0  0  0  0
  -24.1250  -36.5230   23.0640 C   0  0  0  0  0  1  0  0  0  0  0  0
  -25.3700  -36.1270   23.8750 C   0  0  0  0  0  3  0  0  0  0  0  0
  -27.4930  -37.0280   24.7150 C   0  0  0  0  0  1  0  0  0  0  0  0
  -26.3930  -37.1890   23.7690 N   0  0  0  0  0  0  0  0  0  0  0  0
  -25.9780  -38.1050   23.9170 H   0  0  0  0  0  0  0  0  0  0  0  0
  -26.3550  -31.5010   25.0890 C   0  0  1  0  0  0  0  0  0  0  0  0
  -25.2440  -31.2410   26.1320 C   0  0  0  0  0  1  0  0  0  0  0  0
  -26.9500  -30.1320   24.6840 C   0  0  0  0  0  1  0  0  0  0  0  0
  -27.4890  -32.2890   25.7870 C   0  0  0  0  0  1  0  0  0  0  0  0
  1  3  1  0
  1  5  1  0
  3  6  1  0
  4  2  1  0
  5  2  1  0
  5 57  1  0
  6  4  1  0
  6  8  1  0
  6  7  1  6
  8  9  1  0
  9 10  1  0
 10 11  1  0
 11 12  1  0
 13 15  2  0
 13 17  1  0
 14 16  1  0
 15 18  1  0
 17 14  2  0
 18 12  1  0
 18 16  2  0
 19 27  1  0
 20 25  1  0
 21 22  1  0
 21 20  1  0
 23 22  1  0
 23 32  1  0
 23 24  1  0
 25 19  1  0
 25 24  1  0
 26 19  2  0
 27 17  1  0
 27 28  1  0
 29 30  2  0
 30 49  1  0
 31 30  1  0
 31 34  1  0
 32 33  1  0
 32 29  1  0
 33 31  2  0
 34 35  1  0
 35 36  2  0
 37 40  1  0
 37 36  1  0
 38 37  2  0
 39 38  1  0
 39 34  2  0
 40 41  1  0
 41 42  1  0
 42 43  2  0
 44 43  1  0
 44 48  1  0
 45 44  2  0
 46 41  2  0
 46 45  1  0
 47 46  1  0
 49 50  1  0
 50 53  1  0
 50 52  1  0
 51 49  2  0
 54 29  1  0
 54 55  1  0
 56 54  1  0
 57 58  1  0
 58 59  2  0
 60 62  1  0
 60 58  1  0
 61 72  2  0
 62 67  1  0
 63 71  1  0
 63 73  1  0
 64 70  1  0
 64 66  1  0
 65 71  1  0
 66 67  2  0
 66 65  1  0
 68 62  2  0
 69 68  1  0
 69 64  2  0
 70 63  1  0
 71 61  1  0
 73 75  2  0
 74 73  1  0
 76 74  1  0
 77 86  2  0
 77 82  1  0
 78 74  1  0
 78 82  1  0
 79 78  1  0
 80 81  1  0
 80 79  1  0
 81 77  1  0
 82 83  2  0
 83 84  1  0
 85 84  2  0
 86 85  1  0
 87 61  1  0
 87 88  1  0
 87 97  1  0
 88 91  1  0
 89 93  1  0
 89 88  1  0
 90 89  2  0
 93 92  1  0
 95 93  1  0
 95 96  1  0
 95 94  1  0
 97100  1  1
 97 98  1  0
 99 97  1  0
M  ISO  4  19 100  27 100  58 101  60 101
M  END
>  <TORSDO>  (81) 
F 24

>  <SCORE>  (81) 
-11.119

>  <name>  (81) 
81

>  <ligand_id>  (81) 
81

>  <original_smiles>  (81) 
[H]c1c([H])c([H])c2c(c1[H])C([H])([H])C([H])([H])C([H])([H])C2([H])N([H])C(=O)C1([H])N(C(=O)C([H])(N([H])C(=O)C([H])(N([H])C([H])([H])[H])C([H])([H])[H])C(C([H])([H])[H])(C([H])([H])[H])C([H])([H])[H])C([H])([H])c2c([H])c(OC(=O)OC3([H])C([H])([H])C([H])([H])[N+]([H])(C([H])([H])C([H])([H])C([H])([H])C([H])([H])Oc4c([H])c([H])c(N([H])C(=O)N5C([H])([H])C([H])([H])C([H])([H])C([H])(n6nc(-c7c([H])c([H])c(Oc8c([H])c([H])c(F)c([H])c8F)c([H])c7[H])c(C(=O)N([H])[H])c6N([H])[H])C5([H])[H])c([H])c4[H])C([H])([H])C3([H])[H])c([H])c([H])c2C1([H])[H]

>  <smiles>  (81) 
[H]c1c([H])c([H])c2c(c1[H])C([H])([H])C([H])([H])C([H])([H])C2([H])N([H])C(=O)C1([H])N(C(=O)C([H])(N([H])C(=O)C([H])(N([H])C([H])([H])[H])C([H])([H])[H])C(C([H])([H])[H])(C([H])([H])[H])C([H])([H])[H])C([H])([H])c2c([H])c(OC(=O)OC3([H])C([H])([H])C([H])([H])[N+]([H])(C([H])([H])C([H])([H])C([H])([H])C([H])([H])Oc4c([H])c([H])c(N([H])C(=O)N5C([H])([H])C([H])([H])C([H])([H])C([H])(n6nc(-c7c([H])c([H])c(Oc8c([H])c([H])c(F)c([H])c8F)c([H])c7[H])c(C(=O)N([H])[H])c6N([H])[H])C5([H])[H])c([H])c4[H])C([H])([H])C3([H])[H])c([H])c([H])c2C1([H])[H]

$$$$
82:0:0
     RDKit          3D

107115  0  0  1  0  0  0  0  0999 V2000
  -25.7670  -33.8760   26.9130 C   0  0  0  0  0  2  0  0  0  0  0  0
  -27.4340  -33.7420   26.4170 C   0  0  0  0  0  0  0  0  0  0  0  0
  -28.9650  -32.9780   24.0730 C   0  0  0  0  0  0  0  0  0  0  0  0
  -28.2220  -33.7180   25.1470 N   0  0  0  0  0  0  0  0  0  0  0  0
  -28.1570  -33.8730   27.4040 O   0  0  0  0  0  0  0  0  0  0  0  0
  -29.5270  -33.7990   23.3610 O   0  0  0  0  0  0  0  0  0  0  0  0
  -28.9560  -34.4030   25.2860 H   0  0  0  0  0  0  0  0  0  0  0  0
  -29.3340  -31.3640   23.3810 C   0  0  0  0  0  2  0  0  0  0  0  0
  -29.5660  -29.8450   23.9470 O   0  0  0  0  0  0  0  0  0  0  0  0
  -30.0030  -28.4560   23.2350 C   0  0  0  0  0  3  0  0  0  0  0  0
  -29.5590  -26.7680   23.4900 C   0  0  0  0  0  3  0  0  0  0  0  0
  -29.8270  -25.4190   22.6310 O   0  0  0  0  0  0  0  0  0  0  0  0
  -29.9940  -23.8640   23.0610 C   0  0  0  0  0  2  0  0  0  0  0  0
  -29.5060  -22.2540   22.4450 C   0  0  0  0  0  2  0  0  0  0  0  0
  -30.2690  -20.9280   21.9550 O   0  0  0  0  0  0  0  0  0  0  0  0
  -29.7160  -19.4160   21.8670 C   0  0  0  0  0  3  0  0  0  0  0  0
  -30.4790  -17.8940   21.3900 C   0  0  0  0  0  3  0  0  0  0  0  0
  -29.9420  -16.3820   21.2570 O   0  0  0  0  0  0  0  0  0  0  0  0
  -30.6540  -15.0560   20.6510 C   0  0  0  0  0  0  0  0  0  0  0  0
  -30.4310  -12.6710   19.5790 C   0  0  0  0  0  2  0  0  0  0  0  0
  -29.5330  -12.5940   18.3100 C   0  0  0  0  0  2  0  0  0  0  0  0
  -28.0810  -12.3260   18.7240 C   0  0  0  0  0  2  0  0  0  0  0  0
  -27.6300  -13.2780   19.8600 C   0  0  0  0  0  3  0  0  0  0  0  0
  -28.6490  -13.3480   21.0390 C   0  0  0  0  0  2  0  0  0  0  0  0
  -29.9510  -13.7700   20.5000 N   0  0  0  0  0  0  0  0  0  0  0  0
  -31.8110  -15.0950   20.2220 O   0  0  0  0  0  0  0  0  0  0  0  0
  -25.2480  -13.8320   20.5680 C   0  0  0  0  0  0  0  0  0  0  0  0
  -24.1680  -13.0330   20.9250 C   0  0  0  0  0  0  0  0  0  0  0  0
  -24.6400  -11.6960   20.8720 C   0  0  0  0  0  0  0  0  0  0  0  0
  -26.2860  -12.9520   20.3290 N   0  0  0  0  0  0  0  0  0  0  0  0
  -25.9410  -11.6660   20.5760 N   0  0  0  0  0  0  0  0  0  0  0  0
  -23.9050  -10.4240   21.0360 C   0  0  0  0  0  0  0  0  0  0  0  0
  -24.3600   -9.4190   21.9160 C   0  0  0  0  0  3  0  0  0  0  0  0
  -23.6270   -8.2200   22.0780 C   0  0  0  0  0  3  0  0  0  0  0  0
  -22.4250   -8.0260   21.3580 C   0  0  0  0  0  0  0  0  0  0  0  0
  -21.9860   -9.0190   20.4680 C   0  0  0  0  0  3  0  0  0  0  0  0
  -22.7190  -10.2100   20.3050 C   0  0  0  0  0  3  0  0  0  0  0  0
  -21.6660   -6.8840   21.4220 O   0  0  0  0  0  0  0  0  0  0  0  0
  -21.6860   -6.0710   22.5250 C   0  0  0  0  0  0  0  0  0  0  0  0
  -21.4020   -6.5620   23.8180 C   0  0  0  0  0  3  0  0  0  0  0  0
  -21.3640   -5.6790   24.9160 C   0  0  0  0  0  3  0  0  0  0  0  0
  -21.6060   -4.3050   24.7220 C   0  0  0  0  0  0  0  0  0  0  0  0
  -21.8800   -3.8130   23.4350 C   0  0  0  0  0  3  0  0  0  0  0  0
  -21.9190   -4.6930   22.3390 C   0  0  0  0  0  0  0  0  0  0  0  0
  -22.1660   -4.2110   21.0980 F   0  0  0  0  0  0  0  0  0  0  0  0
  -21.5620   -3.4560   25.7740 F   0  0  0  0  0  0  0  0  0  0  0  0
  -22.7750  -13.5200   21.1830 C   0  0  0  0  0  0  0  0  0  0  0  0
  -22.0420  -12.8120   22.0510 N   0  0  0  0  0  0  0  0  0  0  0  0
  -22.3450  -14.5380   20.6730 O   0  0  0  0  0  0  0  0  0  0  0  0
  -22.4150  -11.9800   22.4700 H   0  0  0  0  0  0  0  0  0  0  0  0
  -21.1080  -13.1250   22.2730 H   0  0  0  0  0  0  0  0  0  0  0  0
  -25.4050  -15.1930   20.4270 N   0  0  0  0  0  0  0  0  0  0  0  0
  -24.6380  -15.8430   20.5640 H   0  0  0  0  0  0  0  0  0  0  0  0
  -26.2700  -15.6500   20.1510 H   0  0  0  0  0  0  0  0  0  0  0  0
  -23.5440  -32.5670   26.0730 C   0  0  0  0  0  3  0  0  0  0  0  0
  -24.1600  -31.8300   28.1490 C   0  0  0  0  0  3  0  0  0  0  0  0
  -23.0280  -31.2410   25.7310 C   0  0  0  0  0  3  0  0  0  0  0  0
  -23.6070  -30.5170   27.8310 C   0  0  0  0  0  3  0  0  0  0  0  0
  -24.5080  -32.7790   27.0930 C   0  0  0  0  0  0  0  0  0  0  0  0
  -23.3270  -30.0680   26.4880 C   0  0  0  0  0  0  0  0  0  0  0  0
  -23.4510  -28.6980   25.8830 O   0  0  0  0  0  0  0  0  0  0  0  0
  -24.6950  -27.7070   25.5960 C   0  0  0  0  0  2  0  0  0  0  0  0
  -25.4510  -27.2920   24.0480 C   0  0  0  0  0  2  0  0  0  0  0  0
  -25.7940  -25.9770   23.1020 C   0  0  0  0  0  2  0  0  0  0  0  0
  -26.9520  -25.6510   21.9680 C   0  0  0  0  0  0  0  0  0  0  0  0
  -27.1890  -24.4530   21.8740 O   0  0  0  0  0  0  0  0  0  0  0  0
  -27.6890  -26.5250   21.0010 O   0  0  0  0  0  0  0  0  0  0  0  0
  -24.6750  -31.8780   23.1070 C   0  0  0  0  0  0  0  0  0  0  0  0
  -26.9790  -27.4460   20.3130 C   0  0  0  0  0  0  0  0  0  0  0  0
  -23.3530  -30.5330   21.4790 C   0  0  0  0  0  3  0  0  0  0  0  0
  -24.7650  -29.0320   20.0120 C   0  0  0  0  0  0  0  0  0  0  0  0
  -25.8400  -30.9350   21.1550 C   0  0  0  0  0  2  0  0  0  0  0  0
  -25.9080  -29.5510   20.6150 C   0  0  0  0  0  0  0  0  0  0  0  0
  -27.0490  -28.7630   20.7660 C   0  0  0  0  0  3  0  0  0  0  0  0
  -25.9510  -27.0090   19.4570 C   0  0  0  0  0  3  0  0  0  0  0  0
  -24.7930  -27.7850   19.3790 C   0  0  0  0  0  3  0  0  0  0  0  0
  -23.5200  -29.8730   20.0960 C   0  0  0  0  0  2  0  0  0  0  0  0
  -24.6600  -31.0810   22.0190 N   0  0  0  0  0  0  0  0  0  0  0  0
  -23.5990  -32.3990   23.3910 O   0  0  0  0  0  0  0  0  0  0  0  0
  -22.6290  -29.5720   22.4250 C   0  0  0  0  0  0  0  0  0  0  0  0
  -21.3220  -29.3240   22.2970 N   0  0  0  0  0  0  0  0  0  0  0  0
  -23.2510  -29.0820   23.3280 O   0  0  0  0  0  0  0  0  0  0  0  0
  -20.7740  -29.9100   21.6800 H   0  0  0  0  0  0  0  0  0  0  0  0
  -18.0400  -28.1150   22.8850 C   0  0  0  0  0  0  0  0  0  0  0  0
  -20.5910  -28.3550   23.1150 C   0  0  0  0  0  3  0  0  0  0  0  0
  -20.7060  -26.9340   22.5070 C   0  0  0  0  0  2  0  0  0  0  0  0
  -19.5660  -26.5900   21.5340 C   0  0  0  0  0  2  0  0  0  0  0  0
  -18.1900  -26.7710   22.1960 C   0  0  0  0  0  2  0  0  0  0  0  0
  -19.1630  -28.8530   23.3280 C   0  0  0  0  0  0  0  0  0  0  0  0
  -18.9710  -30.1020   23.9560 C   0  0  0  0  0  3  0  0  0  0  0  0
  -17.6780  -30.6500   24.0700 C   0  0  0  0  0  3  0  0  0  0  0  0
  -16.5660  -29.9010   23.6370 C   0  0  0  0  0  3  0  0  0  0  0  0
  -16.7430  -28.6270   23.0690 C   0  0  0  0  0  3  0  0  0  0  0  0
  -25.9980  -32.3260   23.8490 C   0  0  0  0  0  3  0  0  0  0  0  0
  -25.6570  -33.7630   24.1370 N   0  0  0  0  0  0  0  0  0  0  0  0
  -25.9360  -34.8670   23.4040 C   0  0  0  0  0  0  0  0  0  0  0  0
  -26.5620  -34.8100   22.3500 O   0  0  0  0  0  0  0  0  0  0  0  0
  -25.0650  -33.9420   24.9320 H   0  0  0  0  0  0  0  0  0  0  0  0
  -24.1420  -36.6770   23.2090 C   0  0  0  0  0  1  0  0  0  0  0  0
  -25.4280  -36.2480   23.9330 C   0  0  0  0  0  3  0  0  0  0  0  0
  -27.5450  -37.1330   24.7880 C   0  0  0  0  0  1  0  0  0  0  0  0
  -26.3940  -37.3670   23.9170 N   0  0  0  0  0  0  0  0  0  0  0  0
  -25.9300  -38.2040   24.2640 H   0  0  0  0  0  0  0  0  0  0  0  0
  -26.7430  -31.2310   25.0030 C   0  0  1  0  0  0  0  0  0  0  0  0
  -26.0390  -30.6940   26.1920 C   0  0  0  0  0  1  0  0  0  0  0  0
  -26.8820  -29.9700   24.2080 C   0  0  0  0  0  1  0  0  0  0  0  0
  -28.1100  -31.1700   25.9400 C   0  0  0  0  0  1  0  0  0  0  0  0
  1 59  1  0
  2  1  1  0
  2  5  2  0
  3  4  1  0
  4  7  1  0
  4  2  1  0
  6  3  2  0
  8  9  1  0
  8  3  1  0
 10 11  2  0
 10  9  1  0
 12 13  1  0
 12 11  1  0
 14 13  1  0
 15 14  1  0
 16 15  1  0
 17 16  2  0
 18 17  1  0
 19 18  1  0
 20 25  1  0
 21 22  1  0
 21 20  1  0
 23 22  1  0
 23 30  1  0
 23 24  1  0
 25 19  1  0
 25 24  1  0
 26 19  2  0
 27 28  2  0
 28 47  1  0
 29 28  1  0
 29 32  1  0
 30 27  1  0
 30 31  1  0
 31 29  2  0
 32 33  1  0
 33 34  2  0
 35 38  1  0
 35 34  1  0
 36 35  2  0
 37 36  1  0
 37 32  2  0
 38 39  1  0
 39 40  1  0
 40 41  2  0
 42 41  1  0
 42 46  1  0
 43 42  2  0
 44 39  2  0
 44 43  1  0
 45 44  1  0
 47 48  1  0
 48 51  1  0
 48 50  1  0
 49 47  2  0
 52 53  1  0
 52 27  1  0
 54 52  1  0
 55 59  1  0
 57 55  2  0
 57 60  1  0
 58 56  1  0
 59 56  2  0
 60 58  2  0
 61 60  1  0
 62 61  1  0
 63 62  1  0
 64 63  1  0
 65 64  1  0
 66 65  2  0
 67 65  1  0
 68 79  2  0
 69 74  1  0
 69 67  1  0
 70 78  1  0
 70 80  1  0
 71 77  1  0
 71 73  1  0
 72 78  1  0
 73 74  2  0
 73 72  1  0
 75 69  2  0
 76 75  1  0
 76 71  2  0
 77 70  1  0
 78 68  1  0
 80 82  2  0
 81 80  1  0
 83 81  1  0
 84 93  2  0
 84 89  1  0
 85 81  1  0
 85 89  1  0
 86 85  1  0
 87 88  1  0
 87 86  1  0
 88 84  1  0
 89 90  2  0
 90 91  1  0
 92 91  2  0
 93 92  1  0
 94 68  1  0
 94 95  1  0
 94104  1  0
 95 98  1  0
 96100  1  0
 96 95  1  0
 97 96  2  0
100 99  1  0
102100  1  0
102103  1  0
102101  1  0
104107  1  1
104105  1  0
106104  1  0
M  ISO  4  18 100  19 100  65 101  67 101
M  END
>  <TORSDO>  (82) 
F 34

>  <SCORE>  (82) 
2.671

>  <name>  (82) 
82

>  <ligand_id>  (82) 
82

>  <original_smiles>  (82) 
[H]c1c([H])c([H])c2c(c1[H])C([H])([H])C([H])([H])C([H])([H])C2([H])N([H])C(=O)C1([H])N(C(=O)C([H])(N([H])C(=O)C([H])(N([H])C([H])([H])[H])C([H])([H])[H])C(C([H])([H])[H])(C([H])([H])[H])C([H])([H])[H])C([H])([H])c2c([H])c(OC(=O)C([H])([H])C([H])([H])C([H])([H])Oc3c([H])c([H])c(C([H])([H])C(=O)N([H])C(=O)C([H])([H])OC([H])([H])C([H])([H])OC([H])([H])C([H])([H])OC([H])([H])C([H])([H])OC(=O)N4C([H])([H])C([H])([H])C([H])([H])C([H])(n5nc(-c6c([H])c([H])c(Oc7c([H])c([H])c(F)c([H])c7F)c([H])c6[H])c(C(=O)N([H])[H])c5N([H])[H])C4([H])[H])c([H])c3[H])c([H])c([H])c2C1([H])[H]

>  <smiles>  (82) 
[H]c1c([H])c([H])c2c(c1[H])C([H])([H])C([H])([H])C([H])([H])C2([H])N([H])C(=O)C1([H])N(C(=O)C([H])(N([H])C(=O)C([H])(N([H])C([H])([H])[H])C([H])([H])[H])C(C([H])([H])[H])(C([H])([H])[H])C([H])([H])[H])C([H])([H])c2c([H])c(OC(=O)C([H])([H])C([H])([H])C([H])([H])Oc3c([H])c([H])c(C([H])([H])C(=O)N([H])C(=O)C([H])([H])OC([H])([H])C([H])([H])OC([H])([H])C([H])([H])OC([H])([H])C([H])([H])OC(=O)N4C([H])([H])C([H])([H])C([H])([H])C([H])(n5nc(-c6c([H])c([H])c(Oc7c([H])c([H])c(F)c([H])c7F)c([H])c6[H])c(C(=O)N([H])[H])c5N([H])[H])C4([H])[H])c([H])c3[H])c([H])c([H])c2C1([H])[H]

$$$$
83:0:0
     RDKit          3D

102106  0  0  1  0  0  0  0  0999 V2000
  -29.1220   -8.0030   12.8500 C   0  0  0  0  0  2  0  0  0  0  0  0
  -28.7630   -9.0180   13.9400 C   0  0  0  0  0  0  0  0  0  0  0  0
  -28.3780   -8.5290   15.1250 N   0  0  0  0  0  0  0  0  0  0  0  0
  -28.8650  -10.2290   13.7260 O   0  0  0  0  0  0  0  0  0  0  0  0
  -28.3190   -7.5250   15.2210 H   0  0  0  0  0  0  0  0  0  0  0  0
  -28.1900   -9.3520   16.3200 C   0  0  0  0  0  2  0  0  0  0  0  0
  -27.6090   -8.5690   17.5170 C   0  0  0  0  0  2  0  0  0  0  0  0
  -27.7800   -9.2410   18.7720 O   0  0  0  0  0  0  0  0  0  0  0  0
  -29.1030   -9.1470   19.3370 C   0  0  0  0  0  2  0  0  0  0  0  0
  -29.3450   -7.7330   19.8750 C   0  0  0  0  0  2  0  0  0  0  0  0
  -29.5590   -7.5370   21.2910 O   0  0  0  0  0  0  0  0  0  0  0  0
  -35.2440  -11.6650   20.2010 C   0  0  0  0  0  0  0  0  0  0  0  0
  -30.3530   -8.5510   21.7990 C   0  0  0  0  0  0  0  0  0  0  0  0
  -34.5580  -11.3270   22.5530 C   0  0  0  0  0  3  0  0  0  0  0  0
  -32.2340  -10.3480   22.8930 C   0  0  0  0  0  0  0  0  0  0  0  0
  -32.8310  -11.2700   20.6580 C   0  0  0  0  0  2  0  0  0  0  0  0
  -32.0140  -10.3260   21.5110 C   0  0  0  0  0  0  0  0  0  0  0  0
  -31.0770   -9.4220   20.9500 C   0  0  0  0  0  3  0  0  0  0  0  0
  -30.5330   -8.6630   23.1990 C   0  0  0  0  0  3  0  0  0  0  0  0
  -31.4880   -9.5260   23.7430 C   0  0  0  0  0  3  0  0  0  0  0  0
  -33.2810  -11.2910   23.4290 C   0  0  0  0  0  2  0  0  0  0  0  0
  -34.2410  -11.4050   21.0890 N   0  0  0  0  0  0  0  0  0  0  0  0
  -36.4010  -11.8740   20.5890 O   0  0  0  0  0  0  0  0  0  0  0  0
  -35.4550  -10.1230   22.9240 C   0  0  0  0  0  0  0  0  0  0  0  0
  -36.7600  -10.2370   22.6270 N   0  0  0  0  0  0  0  0  0  0  0  0
  -34.9840   -9.1270   23.4810 O   0  0  0  0  0  0  0  0  0  0  0  0
  -37.0680  -11.0780   22.1590 H   0  0  0  0  0  0  0  0  0  0  0  0
  -40.0760   -9.1490   21.6860 C   0  0  0  0  0  0  0  0  0  0  0  0
  -37.8000   -9.2480   22.9100 C   0  0  0  0  0  3  0  0  0  0  0  0
  -38.6090   -9.6340   24.1710 C   0  0  0  0  0  2  0  0  0  0  0  0
  -39.8720  -10.4410   23.8550 C   0  0  0  0  0  2  0  0  0  0  0  0
  -40.7980   -9.6480   22.9280 C   0  0  0  0  0  2  0  0  0  0  0  0
  -38.6670   -8.9760   21.6750 C   0  0  0  0  0  0  0  0  0  0  0  0
  -38.0410   -8.5460   20.4850 C   0  0  0  0  0  3  0  0  0  0  0  0
  -38.7960   -8.2850   19.3260 C   0  0  0  0  0  3  0  0  0  0  0  0
  -40.1930   -8.4360   19.3500 C   0  0  0  0  0  3  0  0  0  0  0  0
  -40.8310   -8.8660   20.5270 C   0  0  0  0  0  3  0  0  0  0  0  0
  -34.9770  -11.7350   18.6660 C   0  0  0  0  0  3  0  0  0  0  0  0
  -35.6120  -12.9590   18.1620 N   0  0  0  0  0  0  0  0  0  0  0  0
  -36.9010  -13.0600   17.8160 C   0  0  0  0  0  0  0  0  0  0  0  0
  -37.7080  -12.1390   17.9610 O   0  0  0  0  0  0  0  0  0  0  0  0
  -35.0020  -13.7430   17.9750 H   0  0  0  0  0  0  0  0  0  0  0  0
  -38.3540  -15.0810   18.1780 C   0  0  0  0  0  1  0  0  0  0  0  0
  -37.3710  -14.4000   17.2140 C   0  0  0  0  0  3  0  0  0  0  0  0
  -36.1180  -15.5920   15.4710 C   0  0  0  0  0  1  0  0  0  0  0  0
  -36.2620  -15.3240   16.8990 N   0  0  0  0  0  0  0  0  0  0  0  0
  -36.3880  -16.2140   17.3740 H   0  0  0  0  0  0  0  0  0  0  0  0
  -35.4980  -10.4670   17.8860 C   0  0  1  0  0  0  0  0  0  0  0  0
  -37.0400  -10.3380   17.8750 C   0  0  0  0  0  1  0  0  0  0  0  0
  -34.9210   -9.1690   18.4980 C   0  0  0  0  0  1  0  0  0  0  0  0
  -35.0140  -10.5170   16.4180 C   0  0  0  0  0  1  0  0  0  0  0  0
  -30.5190   -7.7190   12.8750 O   0  0  0  0  0  0  0  0  0  0  0  0
  -31.1510   -8.1550   11.6830 C   0  0  0  0  0  2  0  0  0  0  0  0
  -31.3240   -6.9890   10.7100 C   0  0  0  0  0  2  0  0  0  0  0  0
  -32.3670   -7.2450    9.7780 O   0  0  0  0  0  0  0  0  0  0  0  0
  -33.5290   -7.7680   10.4160 C   0  0  0  0  0  2  0  0  0  0  0  0
  -33.5830   -9.3140   10.4010 C   0  0  0  0  0  2  0  0  0  0  0  0
  -34.8620   -9.7890   10.8450 O   0  0  0  0  0  0  0  0  0  0  0  0
  -37.4270   -7.7830    9.1680 C   0  0  0  0  0  3  0  0  0  0  0  0
  -38.2400   -7.3420   10.2080 C   0  0  0  0  0  3  0  0  0  0  0  0
  -36.3430   -8.6090    9.4500 C   0  0  0  0  0  3  0  0  0  0  0  0
  -36.6100   -8.3390   11.9410 C   0  0  0  0  0  3  0  0  0  0  0  0
  -38.0060   -7.7080   11.5480 C   0  0  0  0  0  0  0  0  0  0  0  0
  -35.9390   -8.9160   10.7630 C   0  0  0  0  0  0  0  0  0  0  0  0
  -39.8230   -7.3020   14.0620 C   0  0  2  0  0  0  0  0  0  0  0  0
  -40.4610   -8.7450   13.8900 C   0  0  0  0  0  1  0  0  0  0  0  0
  -38.6400   -9.3170   13.9890 C   0  0  0  0  0  1  0  0  0  0  0  0
  -37.3820   -7.9930   14.0440 C   0  0  0  0  0  2  0  0  0  0  0  0
  -37.8070   -6.1730   14.0140 C   0  0  0  0  0  2  0  0  0  0  0  0
  -39.6180   -5.7250   13.9560 C   0  0  0  0  0  1  0  0  0  0  0  0
  -40.7730   -7.0140   13.8650 N   0  0  0  0  0  1  0  0  0  0  0  0
  -39.5850   -7.4180   15.4450 O   0  0  0  0  0  1  0  0  0  0  0  0
  -39.3080   -7.4150   12.4400 N   0  0  0  0  0  2  0  0  0  0  0  0
  -40.0990   -7.2150   11.8520 H   0  0  0  0  0  0  0  0  0  0  0  0
  -35.6470   -5.4590   12.3970 C   0  0  0  0  0  0  0  0  0  0  0  0
  -35.4630   -5.0840   10.7230 C   0  0  0  0  0  3  0  0  0  0  0  0
  -37.1010   -4.8790    9.8860 C   0  0  0  0  0  3  0  0  0  0  0  0
  -37.4230   -5.4510   12.8880 N   0  0  0  0  0  2  0  0  0  0  0  0
  -38.4730   -4.9960   11.1790 N   0  0  0  0  0  1  0  0  0  0  0  0
  -37.2800   -4.7620    8.5090 C   0  0  0  0  0  0  0  0  0  0  0  0
  -38.5720   -4.6180    8.0230 C   0  0  0  0  0  3  0  0  0  0  0  0
  -38.7340   -4.4460    6.6490 C   0  0  0  0  0  3  0  0  0  0  0  0
  -37.6030   -4.4160    5.7970 C   0  0  0  0  0  0  0  0  0  0  0  0
  -36.3100   -4.6000    6.3110 C   0  0  0  0  0  3  0  0  0  0  0  0
  -36.1430   -4.7820    7.6830 C   0  0  0  0  0  3  0  0  0  0  0  0
  -37.7010   -4.2420    4.4480 O   0  0  0  0  0  0  0  0  0  0  0  0
  -38.8840   -3.8370    3.8970 C   0  0  0  0  0  0  0  0  0  0  0  0
  -39.8690   -4.7620    3.4950 C   0  0  0  0  0  3  0  0  0  0  0  0
  -41.0980   -4.2980    2.9880 C   0  0  0  0  0  3  0  0  0  0  0  0
  -41.3430   -2.9150    2.9040 C   0  0  0  0  0  0  0  0  0  0  0  0
  -40.3580   -1.9940    3.3030 C   0  0  0  0  0  3  0  0  0  0  0  0
  -39.1250   -2.4570    3.7940 C   0  0  0  0  0  0  0  0  0  0  0  0
  -38.1750   -1.5710    4.1840 F   0  0  0  0  0  0  0  0  0  0  0  0
  -42.5340   -2.4680    2.4440 F   0  0  0  0  0  0  0  0  0  0  0  0
  -34.3010   -4.2450   10.3220 C   0  0  0  0  0  0  0  0  0  0  0  0
  -34.5480   -3.1010    9.6840 N   0  0  0  0  0  0  0  0  0  0  0  0
  -33.1750   -4.5330   10.6950 O   0  0  0  0  0  0  0  0  0  0  0  0
  -35.4830   -2.8240    9.4310 H   0  0  0  0  0  0  0  0  0  0  0  0
  -33.7740   -2.4960    9.4360 H   0  0  0  0  0  0  0  0  0  0  0  0
  -34.7890   -5.5110   13.4530 N   0  0  0  0  0  4  0  0  0  0  0  0
  -33.7800   -5.5100   13.3270 H   0  0  0  0  0  0  0  0  0  0  0  0
  -35.0640   -5.6380   14.4180 H   0  0  0  0  0  0  0  0  0  0  0  0
  1 52  1  0
  1  2  1  0
  2  3  1  0
  3  5  1  0
  3  6  1  0
  4  2  2  0
  6  7  1  0
  7  8  1  0
  8  9  1  0
  9 10  1  0
 10 11  1  0
 11 13  1  0
 12 23  2  0
 12 22  1  0
 13 19  1  0
 14 24  1  0
 14 21  1  0
 15 21  1  0
 15 20  1  0
 16 22  1  0
 16 17  1  0
 17 15  2  0
 18 17  1  0
 18 13  2  0
 19 20  2  0
 22 14  1  0
 24 26  2  0
 25 24  1  0
 27 25  1  0
 28 32  1  0
 29 25  1  0
 29 30  1  0
 31 30  1  0
 32 31  1  0
 33 28  1  0
 33 29  1  0
 34 33  2  0
 35 36  2  0
 35 34  1  0
 36 37  1  0
 37 28  2  0
 38 12  1  0
 39 38  1  0
 40 41  2  0
 40 39  1  0
 42 39  1  0
 44 40  1  0
 44 43  1  0
 45 46  1  0
 46 44  1  0
 46 47  1  0
 48 50  1  1
 48 38  1  0
 49 48  1  0
 51 48  1  0
 53 52  1  0
 54 53  1  0
 55 56  1  0
 55 54  1  0
 57 56  1  0
 57 58  1  0
 59 61  2  0
 59 60  1  0
 60 63  2  0
 61 64  1  0
 63 62  1  0
 63 73  1  0
 64 58  1  0
 64 62  2  0
 65 72  1  0
 65 66  1  1
 67 68  1  0
 69 68  1  0
 70 65  1  0
 71 65  1  0
 74 73  1  0
 75 78  1  0
 75100  2  0
 76 95  1  0
 76 75  1  0
 77 76  1  0
 77 79  1  0
 78 69  1  0
 80 77  1  0
 81 80  1  0
 82 81  2  0
 83 84  2  0
 83 82  1  0
 84 85  1  0
 85 80  2  0
 86 83  1  0
 87 86  1  0
 88 87  2  0
 89 88  1  0
 90 89  2  0
 90 91  1  0
 91 92  2  0
 92 87  1  0
 92 93  1  0
 94 90  1  0
 95 97  2  0
 96 95  1  0
 98 96  1  0
 99 96  1  0
100102  1  0
101100  1  0
M  ISO  4  10 101  11 101  65 100  73 100
M  END
>  <TORSDO>  (83) 
F 30

>  <SCORE>  (83) 
25.005

>  <name>  (83) 
83

>  <ligand_id>  (83) 
83

>  <original_smiles>  (83) 
[H]c1c([H])c(OC([H])([H])C([H])([H])OC([H])([H])C([H])([H])OC([H])([H])C(=O)N([H])C([H])([H])C([H])([H])OC([H])([H])C([H])([H])Oc2c([H])c([H])c3c(c2[H])C([H])([H])N(C(=O)C([H])(N([H])C(=O)C([H])(N([H])C([H])([H])[H])C([H])([H])[H])C(C([H])([H])[H])(C([H])([H])[H])C([H])([H])[H])C([H])(C(=O)N([H])C2([H])c4c([H])c([H])c([H])c([H])c4C([H])([H])C([H])([H])C2([H])[H])C3([H])[H])c([H])c(N([H])C(=O)N2C([H])([H])C([H])([H])C([H])([H])C([H])(n3nc(-c4c([H])c([H])c(Oc5c([H])c([H])c(F)c([H])c5F)c([H])c4[H])c(C(=O)N([H])[H])c3N([H])[H])C2([H])[H])c1[H]

>  <smiles>  (83) 
[H]c1c([H])c(OC([H])([H])C([H])([H])OC([H])([H])C([H])([H])OC([H])([H])C(=O)N([H])C([H])([H])C([H])([H])OC([H])([H])C([H])([H])Oc2c([H])c([H])c3c(c2[H])C([H])([H])N(C(=O)C([H])(N([H])C(=O)C([H])(N([H])C([H])([H])[H])C([H])([H])[H])C(C([H])([H])[H])(C([H])([H])[H])C([H])([H])[H])C([H])(C(=O)N([H])C2([H])c4c([H])c([H])c([H])c([H])c4C([H])([H])C([H])([H])C2([H])[H])C3([H])[H])c([H])c(N([H])C(=O)N2C([H])([H])C([H])([H])C([H])([H])C([H])(n3nc(-c4c([H])c([H])c(Oc5c([H])c([H])c(F)c([H])c5F)c([H])c4[H])c(C(=O)N([H])[H])c3N([H])[H])C2([H])[H])c1[H]

$$$$
