0:0:0
     RDKit          3D

 94103  0  0  1  0  0  0  0  0999 V2000
  -30.7360  -20.1520   19.0930 C   0  0  0  0  0  3  0  0  0  0  0  0
  -30.9270  -18.7200   19.3010 C   0  0  0  0  0  3  0  0  0  0  0  0
  -28.7220  -18.5990   20.0760 C   0  0  0  0  0  3  0  0  0  0  0  0
  -28.5270  -20.0410   19.9120 C   0  0  0  0  0  0  0  0  0  0  0  0
  -29.5410  -20.9260   19.3680 C   0  0  0  0  0  0  0  0  0  0  0  0
  -29.9120  -17.8390   19.7950 C   0  0  0  0  0  0  0  0  0  0  0  0
  -30.7560  -15.1820   19.6810 C   0  0  0  0  0  0  0  0  0  0  0  0
  -30.5950  -12.7980   18.8290 C   0  0  0  0  0  2  0  0  0  0  0  0
  -29.5780  -12.7350   17.6630 C   0  0  0  0  0  2  0  0  0  0  0  0
  -28.1400  -12.5580   18.1910 C   0  0  0  0  0  2  0  0  0  0  0  0
  -27.8200  -13.5200   19.3630 C   0  0  0  0  0  3  0  0  0  0  0  0
  -28.9460  -13.5300   20.4220 C   0  0  0  0  0  2  0  0  0  0  0  0
  -30.1880  -13.9100   19.7340 N   0  0  0  0  0  0  0  0  0  0  0  0
  -31.9150  -15.2760   19.2630 O   0  0  0  0  0  0  0  0  0  0  0  0
  -29.9370  -16.3090   19.9690 N   0  0  0  0  0  0  0  0  0  0  0  0
  -29.0840  -15.9720   20.3860 H   0  0  0  0  0  0  0  0  0  0  0  0
  -25.5330  -14.1680   20.3220 C   0  0  0  0  0  0  0  0  0  0  0  0
  -24.4640  -13.4230   20.7400 C   0  0  0  0  0  0  0  0  0  0  0  0
  -24.8560  -12.0560   20.6000 C   0  0  0  0  0  0  0  0  0  0  0  0
  -26.5090  -13.2580   19.9500 N   0  0  0  0  0  0  0  0  0  0  0  0
  -26.1150  -11.9790   20.1820 N   0  0  0  0  0  0  0  0  0  0  0  0
  -24.0840  -10.8190   20.7820 C   0  0  0  0  0  0  0  0  0  0  0  0
  -24.5380   -9.7840   21.6280 C   0  0  0  0  0  3  0  0  0  0  0  0
  -23.7680   -8.6130   21.8030 C   0  0  0  0  0  3  0  0  0  0  0  0
  -22.5300   -8.4700   21.1320 C   0  0  0  0  0  0  0  0  0  0  0  0
  -22.0940   -9.4950   20.2740 C   0  0  0  0  0  3  0  0  0  0  0  0
  -22.8630  -10.6570   20.0960 C   0  0  0  0  0  3  0  0  0  0  0  0
  -21.7270   -7.3580   21.2220 O   0  0  0  0  0  0  0  0  0  0  0  0
  -21.7300   -6.5560   22.3350 C   0  0  0  0  0  0  0  0  0  0  0  0
  -21.4320   -7.0620   23.6190 C   0  0  0  0  0  3  0  0  0  0  0  0
  -21.3780   -6.1910   24.7240 C   0  0  0  0  0  3  0  0  0  0  0  0
  -21.6120   -4.8140   24.5490 C   0  0  0  0  0  0  0  0  0  0  0  0
  -21.9020   -4.3050   23.2690 C   0  0  0  0  0  3  0  0  0  0  0  0
  -21.9580   -5.1750   22.1660 C   0  0  0  0  0  0  0  0  0  0  0  0
  -22.2180   -4.6780   20.9330 F   0  0  0  0  0  0  0  0  0  0  0  0
  -21.5530   -3.9740   25.6080 F   0  0  0  0  0  0  0  0  0  0  0  0
  -23.1170  -13.9470   21.1460 C   0  0  0  0  0  0  0  0  0  0  0  0
  -22.4250  -13.2430   22.0350 N   0  0  0  0  0  0  0  0  0  0  0  0
  -22.6890  -15.0160   20.7090 O   0  0  0  0  0  0  0  0  0  0  0  0
  -22.7840  -12.3790   22.4130 H   0  0  0  0  0  0  0  0  0  0  0  0
  -21.5230  -13.5750   22.3450 H   0  0  0  0  0  0  0  0  0  0  0  0
  -25.7490  -15.5380   20.2010 N   0  0  0  0  0  0  0  0  0  0  0  0
  -25.0230  -16.2140   20.4100 H   0  0  0  0  0  0  0  0  0  0  0  0
  -26.5560  -15.9520   19.7540 H   0  0  0  0  0  0  0  0  0  0  0  0
  -30.2900  -24.6200   18.3730 C   0  0  0  0  0  2  0  0  0  0  0  0
  -30.4610  -23.0710   18.2550 C   0  0  0  0  0  2  0  0  0  0  0  0
  -28.5150  -23.5700   19.4720 C   0  0  0  0  0  2  0  0  0  0  0  0
  -28.8080  -24.9520   18.6170 C   0  0  0  0  0  3  0  0  0  0  0  0
  -29.4550  -22.4070   19.0910 N   0  0  0  0  0  0  0  0  0  0  0  0
  -28.6960  -26.4460   19.0440 O   0  0  0  0  0  0  0  0  0  0  0  0
  -24.6400  -31.3450   22.7080 C   0  0  0  0  0  0  0  0  0  0  0  0
  -27.5230  -27.2760   19.0840 C   0  0  0  0  0  0  0  0  0  0  0  0
  -23.5110  -30.0350   20.9510 C   0  0  0  0  0  3  0  0  0  0  0  0
  -25.0400  -28.7710   19.3130 C   0  0  0  0  0  0  0  0  0  0  0  0
  -26.0190  -30.5610   20.7470 C   0  0  0  0  0  2  0  0  0  0  0  0
  -26.1930  -29.2640   19.9370 C   0  0  0  0  0  0  0  0  0  0  0  0
  -27.4290  -28.5320   19.8070 C   0  0  0  0  0  3  0  0  0  0  0  0
  -26.3320  -26.8740   18.4420 C   0  0  0  0  0  3  0  0  0  0  0  0
  -25.1200  -27.5930   18.5530 C   0  0  0  0  0  3  0  0  0  0  0  0
  -23.7380  -29.5370   19.4980 C   0  0  0  0  0  2  0  0  0  0  0  0
  -24.7440  -30.6640   21.5250 N   0  0  0  0  0  0  0  0  0  0  0  0
  -23.5540  -31.4650   23.2940 O   0  0  0  0  0  0  0  0  0  0  0  0
  -22.9640  -28.8670   21.8090 C   0  0  0  0  0  0  0  0  0  0  0  0
  -21.6500  -28.5950   21.7060 N   0  0  0  0  0  0  0  0  0  0  0  0
  -23.7210  -28.2120   22.5290 O   0  0  0  0  0  0  0  0  0  0  0  0
  -21.0910  -29.1810   21.1030 H   0  0  0  0  0  0  0  0  0  0  0  0
  -18.3990  -27.0750   22.2010 C   0  0  0  0  0  0  0  0  0  0  0  0
  -20.9440  -27.5070   22.3890 C   0  0  0  0  0  3  0  0  0  0  0  0
  -21.1190  -26.1690   21.6340 C   0  0  0  0  0  2  0  0  0  0  0  0
  -19.9930  -25.8850   20.6350 C   0  0  0  0  0  2  0  0  0  0  0  0
  -18.6400  -25.8390   21.3520 C   0  0  0  0  0  2  0  0  0  0  0  0
  -19.4800  -27.8680   22.6740 C   0  0  0  0  0  0  0  0  0  0  0  0
  -19.1980  -29.0260   23.4310 C   0  0  0  0  0  3  0  0  0  0  0  0
  -17.8690  -29.3920   23.7190 C   0  0  0  0  0  3  0  0  0  0  0  0
  -16.8050  -28.5970   23.2600 C   0  0  0  0  0  3  0  0  0  0  0  0
  -17.0720  -27.4400   22.5060 C   0  0  0  0  0  3  0  0  0  0  0  0
  -25.8790  -32.0220   23.3700 C   0  0  0  0  0  3  0  0  0  0  0  0
  -26.5330  -31.1430   24.5060 C   0  0  1  0  0  0  0  0  0  0  0  0
  -25.5250  -30.6540   25.5730 C   0  0  0  0  0  1  0  0  0  0  0  0
  -27.2260  -29.8960   23.9090 C   0  0  0  0  0  1  0  0  0  0  0  0
  -27.6330  -31.9540   25.2290 C   0  0  0  0  0  1  0  0  0  0  0  0
  -25.4440  -33.3190   23.9120 N   0  0  0  0  0  0  0  0  0  0  0  0
  -25.6410  -34.5020   23.3160 C   0  0  0  0  0  0  0  0  0  0  0  0
  -26.2740  -34.6220   22.2640 O   0  0  0  0  0  0  0  0  0  0  0  0
  -24.8710  -33.2900   24.7420 H   0  0  0  0  0  0  0  0  0  0  0  0
  -23.7270  -36.1370   23.2920 C   0  0  0  0  0  1  0  0  0  0  0  0
  -25.0410  -35.7510   23.9930 C   0  0  0  0  0  3  0  0  0  0  0  0
  -27.1130  -36.7270   24.8760 C   0  0  0  0  0  1  0  0  0  0  0  0
  -25.9560  -36.9130   24.0050 N   0  0  0  0  0  0  0  0  0  0  0  0
  -25.4670  -37.7530   24.3020 H   0  0  0  0  0  0  0  0  0  0  0  0
  -27.1720  -20.6100   20.3410 C   0  0  1  0  0  0  0  0  0  0  0  0
  -26.3390  -19.6650   20.7820 F   0  0  0  0  0  0  0  0  0  0  0  0
  -27.3190  -21.4840   21.3370 F   0  0  0  0  0  0  0  0  0  0  0  0
  -26.5760  -21.2110   19.3120 F   0  0  0  0  0  0  0  0  0  0  0  0
  1  2  2  0
  1  5  1  0
  2  6  1  0
  4  3  1  0
  4 91  1  0
  5  4  2  0
  6 15  1  0
  6  3  2  0
  7 13  1  0
  7 15  1  0
  8 13  1  0
  9 10  1  0
  9  8  1  0
 11 10  1  0
 11 20  1  0
 11 12  1  0
 13 12  1  0
 14  7  2  0
 15 16  1  0
 17 18  2  0
 18 37  1  0
 19 18  1  0
 19 22  1  0
 20 21  1  0
 20 17  1  0
 21 19  2  0
 22 23  1  0
 23 24  2  0
 25 28  1  0
 25 24  1  0
 26 25  2  0
 27 26  1  0
 27 22  2  0
 28 29  1  0
 29 30  1  0
 30 31  2  0
 32 31  1  0
 32 36  1  0
 33 32  2  0
 34 29  2  0
 34 33  1  0
 35 34  1  0
 37 38  1  0
 38 41  1  0
 38 40  1  0
 39 37  2  0
 42 17  1  0
 42 43  1  0
 44 42  1  0
 45 48  1  0
 46 45  1  0
 46 49  1  0
 48 50  1  0
 48 47  1  0
 49  5  1  0
 49 47  1  0
 50 52  1  0
 51 62  2  0
 52 57  1  0
 53 61  1  0
 53 63  1  0
 54 60  1  0
 54 56  1  0
 55 61  1  0
 56 55  1  0
 57 56  2  0
 58 59  1  0
 58 52  2  0
 59 54  2  0
 60 53  1  0
 61 51  1  0
 63 65  2  0
 64 63  1  0
 66 64  1  0
 67 76  2  0
 67 72  1  0
 68 64  1  0
 68 72  1  0
 69 68  1  0
 70 71  1  0
 70 69  1  0
 71 67  1  0
 72 73  2  0
 73 74  1  0
 75 74  2  0
 76 75  1  0
 77 51  1  0
 77 82  1  0
 77 78  1  0
 78 81  1  1
 78 79  1  0
 80 78  1  0
 82 85  1  0
 83 82  1  0
 83 87  1  0
 84 83  2  0
 87 86  1  0
 87 89  1  0
 89 90  1  0
 89 88  1  0
 91 92  1  1
 91 93  1  0
 94 91  1  0
M  ISO  4   7 100  15 100  48 101  50 101
M  END
>  <TORSDO>  (1) 
F 18

>  <SCORE>  (1) 
-9.780

>  <name>  (1) 
0

>  <ligand_id>  (1) 
0

>  <original_smiles>  (1) 
[H]c1c([H])c([H])c2c(c1[H])C([H])([H])C([H])([H])C([H])([H])C2([H])N([H])C(=O)C1([H])N(C(=O)C([H])(N([H])C(=O)C([H])(N([H])C([H])([H])[H])C([H])([H])[H])C(C([H])([H])[H])(C([H])([H])[H])C([H])([H])[H])C([H])([H])c2c([H])c(OC3([H])C([H])([H])N(c4c([H])c([H])c(N([H])C(=O)N5C([H])([H])C([H])([H])C([H])([H])C([H])(n6nc(-c7c([H])c([H])c(Oc8c([H])c([H])c(F)c([H])c8F)c([H])c7[H])c(C(=O)N([H])[H])c6N([H])[H])C5([H])[H])c([H])c4C(F)(F)F)C([H])([H])C3([H])[H])c([H])c([H])c2C1([H])[H]

>  <smiles>  (1) 
[H]c1c([H])c([H])c2c(c1[H])C([H])([H])C([H])([H])C([H])([H])C2([H])N([H])C(=O)C1([H])N(C(=O)C([H])(N([H])C(=O)C([H])(N([H])C([H])([H])[H])C([H])([H])[H])C(C([H])([H])[H])(C([H])([H])[H])C([H])([H])[H])C([H])([H])c2c([H])c(OC3([H])C([H])([H])N(c4c([H])c([H])c(N([H])C(=O)N5C([H])([H])C([H])([H])C([H])([H])C([H])(n6nc(-c7c([H])c([H])c(Oc8c([H])c([H])c(F)c([H])c8F)c([H])c7[H])c(C(=O)N([H])[H])c6N([H])[H])C5([H])[H])c([H])c4C(F)(F)F)C([H])([H])C3([H])[H])c([H])c([H])c2C1([H])[H]

$$$$
1:0:0
     RDKit          3D

 95104  0  0  1  0  0  0  0  0999 V2000
  -28.0900  -21.8470   20.5620 C   0  0  0  0  0  2  0  0  0  0  0  0
  -29.9890  -18.4650   20.9750 C   0  0  0  0  0  3  0  0  0  0  0  0
  -29.7440  -19.8620   20.9800 C   0  0  0  0  0  3  0  0  0  0  0  0
  -28.9890  -17.5440   20.5670 C   0  0  0  0  0  0  0  0  0  0  0  0
  -28.5060  -20.3730   20.5260 C   0  0  0  0  0  0  0  0  0  0  0  0
  -27.7340  -18.0620   20.1480 C   0  0  0  0  0  0  0  0  0  0  0  0
  -27.5220  -19.4550   20.1050 C   0  0  0  0  0  0  0  0  0  0  0  0
  -26.5540  -17.1760   19.7630 C   0  0  0  0  0  1  0  0  0  0  0  0
  -26.3100  -19.9150   19.6930 F   0  0  0  0  0  0  0  0  0  0  0  0
  -29.2210  -16.0230   20.5780 C   0  0  0  0  0  2  0  0  0  0  0  0
  -30.9490  -14.3800   19.6470 C   0  0  0  0  0  0  0  0  0  0  0  0
  -30.6740  -12.0550   18.8880 C   0  0  0  0  0  2  0  0  0  0  0  0
  -29.6220  -12.0130   17.7590 C   0  0  0  0  0  2  0  0  0  0  0  0
  -28.2070  -11.8460   18.3510 C   0  0  0  0  0  2  0  0  0  0  0  0
  -27.9230  -12.8440   19.5090 C   0  0  0  0  0  3  0  0  0  0  0  0
  -29.0950  -12.8680   20.5230 C   0  0  0  0  0  2  0  0  0  0  0  0
  -30.3170  -13.1780   19.7700 N   0  0  0  0  0  0  0  0  0  0  0  0
  -32.0720  -14.4800   19.1550 O   0  0  0  0  0  0  0  0  0  0  0  0
  -30.2050  -15.5040   19.6310 N   0  0  0  0  0  0  0  0  0  0  0  0
  -30.6950  -16.2530   19.1650 H   0  0  0  0  0  0  0  0  0  0  0  0
  -25.7240  -13.4600   20.6900 C   0  0  0  0  0  0  0  0  0  0  0  0
  -24.6670  -12.6990   21.1100 C   0  0  0  0  0  0  0  0  0  0  0  0
  -25.0090  -11.3480   20.8050 C   0  0  0  0  0  0  0  0  0  0  0  0
  -26.6460  -12.5710   20.1620 N   0  0  0  0  0  0  0  0  0  0  0  0
  -26.2260  -11.2850   20.2830 N   0  0  0  0  0  0  0  0  0  0  0  0
  -24.2200  -10.1130   20.9240 C   0  0  0  0  0  0  0  0  0  0  0  0
  -24.5960   -9.0750   21.8050 C   0  0  0  0  0  3  0  0  0  0  0  0
  -23.8090   -7.9060   21.9070 C   0  0  0  0  0  3  0  0  0  0  0  0
  -22.6320   -7.7710   21.1360 C   0  0  0  0  0  0  0  0  0  0  0  0
  -22.2800   -8.7960   20.2410 C   0  0  0  0  0  3  0  0  0  0  0  0
  -23.0650   -9.9570   20.1330 C   0  0  0  0  0  3  0  0  0  0  0  0
  -21.8180   -6.6660   21.1610 O   0  0  0  0  0  0  0  0  0  0  0  0
  -21.5600   -5.9880   22.3260 C   0  0  0  0  0  0  0  0  0  0  0  0
  -20.9940   -6.6270   23.4510 C   0  0  0  0  0  3  0  0  0  0  0  0
  -20.6850   -5.8810   24.6070 C   0  0  0  0  0  3  0  0  0  0  0  0
  -20.9270   -4.4950   24.6340 C   0  0  0  0  0  0  0  0  0  0  0  0
  -21.4840   -3.8530   23.5160 C   0  0  0  0  0  3  0  0  0  0  0  0
  -21.8010   -4.5980   22.3650 C   0  0  0  0  0  0  0  0  0  0  0  0
  -22.3210   -3.9720   21.2820 F   0  0  0  0  0  0  0  0  0  0  0  0
  -20.6240   -3.7760   25.7410 F   0  0  0  0  0  0  0  0  0  0  0  0
  -23.3750  -13.2100   21.6800 C   0  0  0  0  0  0  0  0  0  0  0  0
  -22.7460  -12.4350   22.5580 N   0  0  0  0  0  0  0  0  0  0  0  0
  -22.9370  -14.3200   21.3830 O   0  0  0  0  0  0  0  0  0  0  0  0
  -23.1070  -11.5290   22.8160 H   0  0  0  0  0  0  0  0  0  0  0  0
  -21.8840  -12.7540   22.9710 H   0  0  0  0  0  0  0  0  0  0  0  0
  -25.9610  -14.8280   20.7070 N   0  0  0  0  0  0  0  0  0  0  0  0
  -25.2690  -15.4820   21.0620 H   0  0  0  0  0  0  0  0  0  0  0  0
  -26.8100  -15.2750   20.3890 H   0  0  0  0  0  0  0  0  0  0  0  0
  -29.6810  -24.2640   18.0550 C   0  0  0  0  0  2  0  0  0  0  0  0
  -29.5160  -22.7870   18.5160 C   0  0  0  0  0  2  0  0  0  0  0  0
  -29.0590  -24.2460   20.3650 C   0  0  0  0  0  2  0  0  0  0  0  0
  -28.8840  -25.0810   19.0980 C   0  0  0  0  0  3  0  0  0  0  0  0
  -28.7520  -22.9230   19.7740 N   0  0  2  0  0  4  0  0  0  0  0  0
  -27.8870  -23.1950   19.3280 H   0  0  0  0  0  0  0  0  0  0  0  0
  -29.0620  -26.5290   19.1350 O   0  0  0  0  0  0  0  0  0  0  0  0
  -24.9860  -31.1580   22.7780 C   0  0  0  0  0  0  0  0  0  0  0  0
  -27.8780  -27.2610   19.1770 C   0  0  0  0  0  0  0  0  0  0  0  0
  -23.8600  -29.8440   21.0200 C   0  0  0  0  0  3  0  0  0  0  0  0
  -25.3910  -28.5990   19.4150 C   0  0  0  0  0  0  0  0  0  0  0  0
  -26.3560  -30.4010   20.8410 C   0  0  0  0  0  2  0  0  0  0  0  0
  -26.5290  -29.1230   20.0450 C   0  0  0  0  0  0  0  0  0  0  0  0
  -27.7760  -28.4530   19.9360 C   0  0  0  0  0  3  0  0  0  0  0  0
  -26.7170  -26.8070   18.5010 C   0  0  0  0  0  3  0  0  0  0  0  0
  -25.4770  -27.4320   18.6550 C   0  0  0  0  0  3  0  0  0  0  0  0
  -24.0940  -29.3570   19.5710 C   0  0  0  0  0  2  0  0  0  0  0  0
  -25.0860  -30.4780   21.6040 N   0  0  0  0  0  0  0  0  0  0  0  0
  -23.8970  -31.2860   23.3540 O   0  0  0  0  0  0  0  0  0  0  0  0
  -23.3140  -28.6710   21.8680 C   0  0  0  0  0  0  0  0  0  0  0  0
  -22.0150  -28.3650   21.7200 N   0  0  0  0  0  0  0  0  0  0  0  0
  -24.0590  -28.0440   22.6220 O   0  0  0  0  0  0  0  0  0  0  0  0
  -21.4580  -28.9440   21.1090 H   0  0  0  0  0  0  0  0  0  0  0  0
  -18.7880  -26.7920   22.0710 C   0  0  0  0  0  0  0  0  0  0  0  0
  -21.2970  -27.2900   22.4040 C   0  0  0  0  0  3  0  0  0  0  0  0
  -21.5490  -25.9150   21.7310 C   0  0  0  0  0  2  0  0  0  0  0  0
  -20.5010  -25.5640   20.6710 C   0  0  0  0  0  2  0  0  0  0  0  0
  -19.1050  -25.5200   21.3030 C   0  0  0  0  0  2  0  0  0  0  0  0
  -19.8160  -27.6300   22.5730 C   0  0  0  0  0  0  0  0  0  0  0  0
  -19.4580  -28.8080   23.2650 C   0  0  0  0  0  3  0  0  0  0  0  0
  -18.1070  -29.1620   23.4340 C   0  0  0  0  0  3  0  0  0  0  0  0
  -17.0940  -28.3150   22.9540 C   0  0  0  0  0  3  0  0  0  0  0  0
  -17.4360  -27.1270   22.2870 C   0  0  0  0  0  3  0  0  0  0  0  0
  -26.2320  -31.8240   23.4440 C   0  0  0  0  0  3  0  0  0  0  0  0
  -26.8860  -30.9350   24.5740 C   0  0  1  0  0  0  0  0  0  0  0  0
  -25.8720  -30.3920   25.6070 C   0  0  0  0  0  1  0  0  0  0  0  0
  -27.6220  -29.7210   23.9600 C   0  0  0  0  0  1  0  0  0  0  0  0
  -27.9490  -31.7580   25.3370 C   0  0  0  0  0  1  0  0  0  0  0  0
  -25.8030  -33.1210   23.9840 N   0  0  0  0  0  0  0  0  0  0  0  0
  -25.9730  -34.2980   23.3620 C   0  0  0  0  0  0  0  0  0  0  0  0
  -26.5880  -34.4100   22.2970 O   0  0  0  0  0  0  0  0  0  0  0  0
  -25.2560  -33.1000   24.8330 H   0  0  0  0  0  0  0  0  0  0  0  0
  -24.0490  -35.9100   23.3500 C   0  0  0  0  0  1  0  0  0  0  0  0
  -25.3740  -35.5460   24.0370 C   0  0  0  0  0  3  0  0  0  0  0  0
  -27.4520  -36.5470   24.8760 C   0  0  0  0  0  1  0  0  0  0  0  0
  -26.2800  -36.7150   24.0220 N   0  0  0  0  0  0  0  0  0  0  0  0
  -25.7880  -37.5550   24.3180 H   0  0  0  0  0  0  0  0  0  0  0  0
  2  3  1  0
  4 10  1  0
  4  2  2  0
  5  1  1  0
  5  3  2  0
  6  4  1  0
  7  6  2  0
  7  5  1  0
  8  6  1  0
  9  7  1  0
 11 17  1  0
 12 17  1  0
 13 14  1  0
 13 12  1  0
 15 14  1  0
 15 24  1  0
 15 16  1  0
 17 16  1  0
 18 11  2  0
 19 11  1  0
 19 10  1  0
 20 19  1  0
 21 46  1  0
 21 22  2  0
 22 41  1  0
 23 26  1  0
 23 22  1  0
 24 25  1  0
 24 21  1  0
 25 23  2  0
 26 27  1  0
 27 28  2  0
 29 32  1  0
 29 28  1  0
 30 29  2  0
 31 30  1  0
 31 26  2  0
 32 33  1  0
 33 38  2  0
 33 34  1  0
 34 35  2  0
 35 36  1  0
 36 40  1  0
 37 36  2  0
 38 37  1  0
 39 38  1  0
 41 42  1  0
 42 44  1  0
 42 45  1  0
 43 41  2  0
 46 47  1  0
 48 46  1  0
 49 50  1  0
 49 52  1  0
 50 53  1  0
 52 55  1  0
 52 51  1  0
 53 51  1  0
 53  1  1  0
 53 54  1  6
 55 57  1  0
 56 67  2  0
 57 62  1  0
 58 66  1  0
 58 68  1  0
 59 65  1  0
 59 61  1  0
 60 66  1  0
 61 60  1  0
 62 61  2  0
 63 64  1  0
 63 57  2  0
 64 59  2  0
 65 58  1  0
 66 56  1  0
 68 70  2  0
 69 68  1  0
 71 69  1  0
 72 81  2  0
 72 77  1  0
 73 69  1  0
 73 77  1  0
 74 73  1  0
 75 76  1  0
 75 74  1  0
 76 72  1  0
 77 78  2  0
 78 79  1  0
 80 79  2  0
 81 80  1  0
 82 56  1  0
 82 87  1  0
 82 83  1  0
 83 86  1  1
 83 84  1  0
 85 83  1  0
 87 90  1  0
 88 87  1  0
 88 92  1  0
 89 88  2  0
 92 91  1  0
 94 92  1  0
 94 95  1  0
 94 93  1  0
M  ISO  4  11 100  19 100  52 101  55 101
M  END
>  <TORSDO>  (2) 
F 19

>  <SCORE>  (2) 
-9.750

>  <name>  (2) 
1

>  <ligand_id>  (2) 
1

>  <original_smiles>  (2) 
[H]c1c([H])c([H])c2c(c1[H])C([H])([H])C([H])([H])C([H])([H])C2([H])N([H])C(=O)C1([H])N(C(=O)C([H])(N([H])C(=O)C([H])(N([H])C([H])([H])[H])C([H])([H])[H])C(C([H])([H])[H])(C([H])([H])[H])C([H])([H])[H])C([H])([H])c2c([H])c(OC3([H])C([H])([H])C([H])([H])[N+]([H])(C([H])([H])c4c([H])c([H])c(C([H])([H])N([H])C(=O)N5C([H])([H])C([H])([H])C([H])([H])C([H])(n6nc(-c7c([H])c([H])c(Oc8c([H])c([H])c(F)c([H])c8F)c([H])c7[H])c(C(=O)N([H])[H])c6N([H])[H])C5([H])[H])c(C([H])([H])[H])c4F)C3([H])[H])c([H])c([H])c2C1([H])[H]

>  <smiles>  (2) 
[H]c1c([H])c([H])c2c(c1[H])C([H])([H])C([H])([H])C([H])([H])C2([H])N([H])C(=O)C1([H])N(C(=O)C([H])(N([H])C(=O)C([H])(N([H])C([H])([H])[H])C([H])([H])[H])C(C([H])([H])[H])(C([H])([H])[H])C([H])([H])[H])C([H])([H])c2c([H])c(OC3([H])C([H])([H])C([H])([H])[N+]([H])(C([H])([H])c4c([H])c([H])c(C([H])([H])N([H])C(=O)N5C([H])([H])C([H])([H])C([H])([H])C([H])(n6nc(-c7c([H])c([H])c(Oc8c([H])c([H])c(F)c([H])c8F)c([H])c7[H])c(C(=O)N([H])[H])c6N([H])[H])C5([H])[H])c(C([H])([H])[H])c4F)C3([H])[H])c([H])c([H])c2C1([H])[H]

$$$$
2:0:0
     RDKit          3D

 94103  0  0  1  0  0  0  0  0999 V2000
  -28.3270  -20.6880   20.6800 C   0  0  0  0  0  2  0  0  0  0  0  0
  -30.5480  -21.5470   20.2420 C   0  0  0  0  0  2  0  0  0  0  0  0
  -27.7100  -22.1050   20.6430 C   0  0  0  0  0  2  0  0  0  0  0  0
  -30.0780  -23.0120   20.1560 C   0  0  0  0  0  2  0  0  0  0  0  0
  -29.4850  -20.5990   19.6950 C   0  0  0  0  0  3  0  0  0  0  0  0
  -28.6370  -23.2850   20.4850 N   0  0  1  0  0  4  0  0  0  0  0  0
  -28.6650  -23.7150   21.4000 H   0  0  0  0  0  0  0  0  0  0  0  0
  -31.4430  -17.9160   17.8540 C   0  0  0  0  0  3  0  0  0  0  0  0
  -30.9180  -19.1400   18.2770 C   0  0  0  0  0  3  0  0  0  0  0  0
  -31.1040  -16.7420   18.5450 C   0  0  0  0  0  3  0  0  0  0  0  0
  -29.6940  -18.0210   20.0740 C   0  0  0  0  0  3  0  0  0  0  0  0
  -30.0320  -19.2090   19.3710 C   0  0  0  0  0  0  0  0  0  0  0  0
  -30.2590  -16.7760   19.6880 C   0  0  0  0  0  0  0  0  0  0  0  0
  -30.7070  -14.4690   20.4410 C   0  0  0  0  0  0  0  0  0  0  0  0
  -30.3730  -12.3090   19.3740 C   0  0  0  0  0  2  0  0  0  0  0  0
  -29.4760  -12.6070   18.1540 C   0  0  0  0  0  2  0  0  0  0  0  0
  -27.9880  -12.4880   18.5410 C   0  0  0  0  0  2  0  0  0  0  0  0
  -27.6370  -13.2890   19.8260 C   0  0  0  0  0  3  0  0  0  0  0  0
  -28.6770  -13.0570   20.9490 C   0  0  0  0  0  2  0  0  0  0  0  0
  -30.0150  -13.3030   20.3910 N   0  0  0  0  0  0  0  0  0  0  0  0
  -31.9160  -14.5410   20.2280 O   0  0  0  0  0  0  0  0  0  0  0  0
  -29.9460  -15.5830   20.4220 N   0  0  0  0  0  0  0  0  0  0  0  0
  -29.0000  -15.4830   20.7530 H   0  0  0  0  0  0  0  0  0  0  0  0
  -25.2280  -13.9020   20.4840 C   0  0  0  0  0  0  0  0  0  0  0  0
  -24.1510  -13.1350   20.8410 C   0  0  0  0  0  0  0  0  0  0  0  0
  -24.6100  -11.7830   20.8360 C   0  0  0  0  0  0  0  0  0  0  0  0
  -26.2750  -13.0170   20.2800 N   0  0  0  0  0  0  0  0  0  0  0  0
  -25.9080  -11.7360   20.5490 N   0  0  0  0  0  0  0  0  0  0  0  0
  -23.8780  -10.5230   21.0290 C   0  0  0  0  0  0  0  0  0  0  0  0
  -24.2920   -9.5600   21.9740 C   0  0  0  0  0  3  0  0  0  0  0  0
  -23.5570   -8.3690   22.1560 C   0  0  0  0  0  3  0  0  0  0  0  0
  -22.3930   -8.1310   21.3850 C   0  0  0  0  0  0  0  0  0  0  0  0
  -21.9950   -9.0820   20.4290 C   0  0  0  0  0  3  0  0  0  0  0  0
  -22.7330  -10.2640   20.2470 C   0  0  0  0  0  3  0  0  0  0  0  0
  -21.6300   -6.9950   21.4720 O   0  0  0  0  0  0  0  0  0  0  0  0
  -21.5660   -6.2540   22.6250 C   0  0  0  0  0  0  0  0  0  0  0  0
  -21.1440   -6.8180   23.8490 C   0  0  0  0  0  3  0  0  0  0  0  0
  -21.0310   -6.0080   24.9970 C   0  0  0  0  0  3  0  0  0  0  0  0
  -21.3280   -4.6340   24.9210 C   0  0  0  0  0  0  0  0  0  0  0  0
  -21.7450   -4.0690   23.7030 C   0  0  0  0  0  3  0  0  0  0  0  0
  -21.8640   -4.8780   22.5590 C   0  0  0  0  0  0  0  0  0  0  0  0
  -22.2450   -4.3250   21.3830 F   0  0  0  0  0  0  0  0  0  0  0  0
  -21.2120   -3.8530   26.0190 F   0  0  0  0  0  0  0  0  0  0  0  0
  -22.7510  -13.6200   21.0770 C   0  0  0  0  0  0  0  0  0  0  0  0
  -22.0010  -12.9370   21.9350 N   0  0  0  0  0  0  0  0  0  0  0  0
  -22.3230  -14.6360   20.5320 O   0  0  0  0  0  0  0  0  0  0  0  0
  -22.3520  -12.1110   22.3950 H   0  0  0  0  0  0  0  0  0  0  0  0
  -21.0620  -13.2510   22.1360 H   0  0  0  0  0  0  0  0  0  0  0  0
  -25.3970  -15.2700   20.2990 N   0  0  0  0  0  0  0  0  0  0  0  0
  -24.6260  -15.9230   20.4020 H   0  0  0  0  0  0  0  0  0  0  0  0
  -26.2370  -15.7080   19.9420 H   0  0  0  0  0  0  0  0  0  0  0  0
  -28.0020  -24.2940   19.5690 C   0  0  0  0  0  2  0  0  0  0  0  0
  -28.7300  -25.6540   19.3170 C   0  0  0  0  0  2  0  0  0  0  0  0
  -28.4570  -26.7290   20.2290 O   0  0  0  0  0  0  0  0  0  0  0  0
  -24.6120  -31.9030   23.2390 C   0  0  0  0  0  0  0  0  0  0  0  0
  -27.2760  -27.4470   20.1580 C   0  0  0  0  0  0  0  0  0  0  0  0
  -23.4150  -30.4920   21.5950 C   0  0  0  0  0  3  0  0  0  0  0  0
  -24.8750  -28.9590   20.1680 C   0  0  0  0  0  0  0  0  0  0  0  0
  -25.9420  -30.8430   21.4170 C   0  0  0  0  0  2  0  0  0  0  0  0
  -26.0260  -29.4700   20.7810 C   0  0  0  0  0  0  0  0  0  0  0  0
  -27.2170  -28.7100   20.7950 C   0  0  0  0  0  3  0  0  0  0  0  0
  -26.1160  -26.9740   19.5040 C   0  0  0  0  0  3  0  0  0  0  0  0
  -24.9160  -27.7110   19.5250 C   0  0  0  0  0  3  0  0  0  0  0  0
  -23.6300  -29.8130   20.2150 C   0  0  0  0  0  2  0  0  0  0  0  0
  -24.6740  -31.0970   22.1410 N   0  0  0  0  0  0  0  0  0  0  0  0
  -23.5270  -32.1720   23.7740 O   0  0  0  0  0  0  0  0  0  0  0  0
  -22.7630  -29.4720   22.5560 C   0  0  0  0  0  0  0  0  0  0  0  0
  -21.4380  -29.2930   22.4320 N   0  0  0  0  0  0  0  0  0  0  0  0
  -23.4470  -28.8460   23.3700 O   0  0  0  0  0  0  0  0  0  0  0  0
  -20.9480  -29.8500   21.7460 H   0  0  0  0  0  0  0  0  0  0  0  0
  -18.0610  -28.1110   22.9500 C   0  0  0  0  0  0  0  0  0  0  0  0
  -20.6220  -28.3580   23.2060 C   0  0  0  0  0  3  0  0  0  0  0  0
  -20.7150  -26.9270   22.6260 C   0  0  0  0  0  2  0  0  0  0  0  0
  -19.6050  -26.6140   21.6180 C   0  0  0  0  0  2  0  0  0  0  0  0
  -18.2260  -26.7640   22.2680 C   0  0  0  0  0  2  0  0  0  0  0  0
  -19.1850  -28.8660   23.3770 C   0  0  0  0  0  0  0  0  0  0  0  0
  -18.9760  -30.1290   23.9720 C   0  0  0  0  0  3  0  0  0  0  0  0
  -17.6750  -30.6380   24.1430 C   0  0  0  0  0  3  0  0  0  0  0  0
  -16.5650  -29.8810   23.7300 C   0  0  0  0  0  3  0  0  0  0  0  0
  -16.7580  -28.6180   23.1430 C   0  0  0  0  0  3  0  0  0  0  0  0
  -25.8950  -32.5370   23.8610 C   0  0  0  0  0  3  0  0  0  0  0  0
  -26.4130  -31.7700   25.1380 C   0  0  1  0  0  0  0  0  0  0  0  0
  -25.3230  -31.5320   26.2080 C   0  0  0  0  0  1  0  0  0  0  0  0
  -27.0020  -30.3950   24.7490 C   0  0  0  0  0  1  0  0  0  0  0  0
  -27.5610  -32.5690   25.7980 C   0  0  0  0  0  1  0  0  0  0  0  0
  -25.5790  -33.9340   24.1880 N   0  0  0  0  0  0  0  0  0  0  0  0
  -25.9120  -34.9870   23.4300 C   0  0  0  0  0  0  0  0  0  0  0  0
  -26.5850  -34.8860   22.4000 O   0  0  0  0  0  0  0  0  0  0  0  0
  -24.9750  -34.0870   24.9820 H   0  0  0  0  0  0  0  0  0  0  0  0
  -24.1790  -36.7770   23.0680 C   0  0  0  0  0  1  0  0  0  0  0  0
  -25.4180  -36.3750   23.8840 C   0  0  0  0  0  3  0  0  0  0  0  0
  -27.5500  -37.2650   24.7180 C   0  0  0  0  0  1  0  0  0  0  0  0
  -26.4490  -37.4310   23.7730 N   0  0  0  0  0  0  0  0  0  0  0  0
  -26.0400  -38.3500   23.9230 H   0  0  0  0  0  0  0  0  0  0  0  0
  3  1  1  0
  4  2  1  0
  4  6  1  0
  5 12  1  0
  5  2  1  0
  5  1  1  0
  6  3  1  0
  6  7  1  1
  8  9  2  0
  8 10  1  0
  9 12  1  0
 10 13  2  0
 12 11  2  0
 13 11  1  0
 13 22  1  0
 15 20  1  0
 16 17  1  0
 16 15  1  0
 18 17  1  0
 18 27  1  0
 18 19  1  0
 20 14  1  0
 20 19  1  0
 21 14  2  0
 22 14  1  0
 22 23  1  0
 24 25  2  0
 25 44  1  0
 26 25  1  0
 26 29  1  0
 27 24  1  0
 27 28  1  0
 28 26  2  0
 29 30  1  0
 30 31  2  0
 32 35  1  0
 32 31  1  0
 33 32  2  0
 34 33  1  0
 34 29  2  0
 35 36  1  0
 36 37  1  0
 37 38  2  0
 39 38  1  0
 39 43  1  0
 40 39  2  0
 41 36  2  0
 41 40  1  0
 42 41  1  0
 44 45  1  0
 45 48  1  0
 45 47  1  0
 46 44  2  0
 49 50  1  0
 49 24  1  0
 51 49  1  0
 52  6  1  0
 53 52  1  0
 53 54  1  0
 55 66  2  0
 56 54  1  0
 56 61  1  0
 57 65  1  0
 57 67  1  0
 58 64  1  0
 58 60  1  0
 59 65  1  0
 60 61  2  0
 60 59  1  0
 62 63  1  0
 62 56  2  0
 63 58  2  0
 64 57  1  0
 65 55  1  0
 67 69  2  0
 68 67  1  0
 70 68  1  0
 71 80  2  0
 71 76  1  0
 72 68  1  0
 72 76  1  0
 73 72  1  0
 74 75  1  0
 74 73  1  0
 75 71  1  0
 76 77  2  0
 77 78  1  0
 79 78  2  0
 80 79  1  0
 81 55  1  0
 81 86  1  0
 81 82  1  0
 82 85  1  1
 82 83  1  0
 84 82  1  0
 86 89  1  0
 87 91  1  0
 87 86  1  0
 88 87  2  0
 91 90  1  0
 93 91  1  0
 93 94  1  0
 93 92  1  0
M  ISO  4  14 100  22 100  53 101  54 101
M  END
>  <TORSDO>  (3) 
F 19

>  <SCORE>  (3) 
-14.381

>  <name>  (3) 
2

>  <ligand_id>  (3) 
2

>  <original_smiles>  (3) 
[H]c1c([H])c([H])c2c(c1[H])C([H])([H])C([H])([H])C([H])([H])C2([H])N([H])C(=O)C1([H])N(C(=O)C([H])(N([H])C(=O)C([H])(N([H])C([H])([H])[H])C([H])([H])[H])C(C([H])([H])[H])(C([H])([H])[H])C([H])([H])[H])C([H])([H])c2c([H])c(OC([H])([H])C([H])([H])[N+]3([H])C([H])([H])C([H])([H])C([H])(c4c([H])c([H])c([H])c(N([H])C(=O)N5C([H])([H])C([H])([H])C([H])([H])C([H])(n6nc(-c7c([H])c([H])c(Oc8c([H])c([H])c(F)c([H])c8F)c([H])c7[H])c(C(=O)N([H])[H])c6N([H])[H])C5([H])[H])c4[H])C([H])([H])C3([H])[H])c([H])c([H])c2C1([H])[H]

>  <smiles>  (3) 
[H]c1c([H])c([H])c2c(c1[H])C([H])([H])C([H])([H])C([H])([H])C2([H])N([H])C(=O)C1([H])N(C(=O)C([H])(N([H])C(=O)C([H])(N([H])C([H])([H])[H])C([H])([H])[H])C(C([H])([H])[H])(C([H])([H])[H])C([H])([H])[H])C([H])([H])c2c([H])c(OC([H])([H])C([H])([H])[N+]3([H])C([H])([H])C([H])([H])C([H])(c4c([H])c([H])c([H])c(N([H])C(=O)N5C([H])([H])C([H])([H])C([H])([H])C([H])(n6nc(-c7c([H])c([H])c(Oc8c([H])c([H])c(F)c([H])c8F)c([H])c7[H])c(C(=O)N([H])[H])c6N([H])[H])C5([H])[H])c4[H])C([H])([H])C3([H])[H])c([H])c([H])c2C1([H])[H]

$$$$
3:0:0
     RDKit          3D

 90 98  0  0  1  0  0  0  0  0999 V2000
  -30.6800  -18.4140   19.3230 C   0  0  0  0  0  3  0  0  0  0  0  0
  -28.4930  -19.8010   20.3620 C   0  0  0  0  0  3  0  0  0  0  0  0
  -29.7340  -17.5720   19.9900 C   0  0  0  0  0  0  0  0  0  0  0  0
  -29.4230  -20.6410   19.6660 C   0  0  0  0  0  0  0  0  0  0  0  0
  -30.5240  -19.8520   19.1650 C   0  0  0  0  0  0  0  0  0  0  0  0
  -28.6370  -18.3550   20.5000 C   0  0  0  0  0  0  0  0  0  0  0  0
  -31.4900  -20.5050   18.4730 F   0  0  0  0  0  0  0  0  0  0  0  0
  -27.6510  -17.6850   21.1440 F   0  0  0  0  0  0  0  0  0  0  0  0
  -30.5120  -14.9320   19.7000 C   0  0  0  0  0  0  0  0  0  0  0  0
  -30.2960  -12.6140   18.7030 C   0  0  0  0  0  2  0  0  0  0  0  0
  -29.2350  -12.6390   17.5770 C   0  0  0  0  0  2  0  0  0  0  0  0
  -27.8200  -12.4310   18.1510 C   0  0  0  0  0  2  0  0  0  0  0  0
  -27.5560  -13.3090   19.4020 C   0  0  0  0  0  3  0  0  0  0  0  0
  -28.7240  -13.2430   20.4110 C   0  0  0  0  0  2  0  0  0  0  0  0
  -29.9380  -13.6640   19.6980 N   0  0  0  0  0  0  0  0  0  0  0  0
  -31.6470  -15.0520   19.2250 O   0  0  0  0  0  0  0  0  0  0  0  0
  -29.7370  -16.0410   20.1180 N   0  0  0  0  0  0  0  0  0  0  0  0
  -28.9170  -15.7190   20.6100 H   0  0  0  0  0  0  0  0  0  0  0  0
  -25.2720  -13.8870   20.4060 C   0  0  0  0  0  0  0  0  0  0  0  0
  -24.2410  -13.1110   20.8560 C   0  0  0  0  0  0  0  0  0  0  0  0
  -24.6790  -11.7570   20.7250 C   0  0  0  0  0  0  0  0  0  0  0  0
  -26.2710  -13.0080   20.0240 N   0  0  0  0  0  0  0  0  0  0  0  0
  -25.9300  -11.7180   20.2790 N   0  0  0  0  0  0  0  0  0  0  0  0
  -23.9570  -10.4960   20.9410 C   0  0  0  0  0  0  0  0  0  0  0  0
  -24.4420   -9.5090   21.8270 C   0  0  0  0  0  3  0  0  0  0  0  0
  -23.7190   -8.3140   22.0340 C   0  0  0  0  0  3  0  0  0  0  0  0
  -22.4960   -8.0990   21.3570 C   0  0  0  0  0  0  0  0  0  0  0  0
  -22.0280   -9.0750   20.4590 C   0  0  0  0  0  3  0  0  0  0  0  0
  -22.7520  -10.2600   20.2490 C   0  0  0  0  0  3  0  0  0  0  0  0
  -21.7380   -6.9580   21.4760 O   0  0  0  0  0  0  0  0  0  0  0  0
  -21.7300   -6.2180   22.6310 C   0  0  0  0  0  0  0  0  0  0  0  0
  -21.3310   -6.7710   23.8670 C   0  0  0  0  0  3  0  0  0  0  0  0
  -21.2710   -5.9560   25.0150 C   0  0  0  0  0  3  0  0  0  0  0  0
  -21.5960   -4.5900   24.9290 C   0  0  0  0  0  0  0  0  0  0  0  0
  -21.9870   -4.0360   23.6970 C   0  0  0  0  0  3  0  0  0  0  0  0
  -22.0500   -4.8480   22.5500 C   0  0  0  0  0  0  0  0  0  0  0  0
  -22.4070   -4.3050   21.3620 F   0  0  0  0  0  0  0  0  0  0  0  0
  -21.5310   -3.8050   26.0300 F   0  0  0  0  0  0  0  0  0  0  0  0
  -22.8870  -13.5920   21.2920 C   0  0  0  0  0  0  0  0  0  0  0  0
  -22.2490  -12.8760   22.2100 N   0  0  0  0  0  0  0  0  0  0  0  0
  -22.4100  -14.6380   20.8530 O   0  0  0  0  0  0  0  0  0  0  0  0
  -22.6500  -12.0290   22.5840 H   0  0  0  0  0  0  0  0  0  0  0  0
  -21.3440  -13.1800   22.5440 H   0  0  0  0  0  0  0  0  0  0  0  0
  -25.4350  -15.2620   20.2640 N   0  0  0  0  0  0  0  0  0  0  0  0
  -24.6950  -15.9170   20.4920 H   0  0  0  0  0  0  0  0  0  0  0  0
  -26.2470  -15.7110   19.8610 H   0  0  0  0  0  0  0  0  0  0  0  0
  -29.3480  -22.0780   19.3640 O   0  0  0  0  0  0  0  0  0  0  0  0
  -28.6350  -23.2610   20.0410 C   0  0  0  0  0  2  0  0  0  0  0  0
  -28.4330  -24.7510   19.2670 C   0  0  0  0  0  2  0  0  0  0  0  0
  -28.3950  -26.2040   19.8330 O   0  0  0  0  0  0  0  0  0  0  0  0
  -24.6650  -31.6640   23.0420 C   0  0  0  0  0  0  0  0  0  0  0  0
  -27.2950  -27.1370   19.7780 C   0  0  0  0  0  0  0  0  0  0  0  0
  -23.4700  -30.3170   21.3580 C   0  0  0  0  0  3  0  0  0  0  0  0
  -24.9290  -28.8330   19.8490 C   0  0  0  0  0  0  0  0  0  0  0  0
  -26.0150  -30.6370   21.1770 C   0  0  0  0  0  2  0  0  0  0  0  0
  -26.1050  -29.2760   20.4650 C   0  0  0  0  0  0  0  0  0  0  0  0
  -27.2840  -28.4430   20.4170 C   0  0  0  0  0  3  0  0  0  0  0  0
  -26.0880  -26.7950   19.1300 C   0  0  0  0  0  3  0  0  0  0  0  0
  -24.9330  -27.6050   19.1690 C   0  0  0  0  0  3  0  0  0  0  0  0
  -23.6860  -29.7030   19.9490 C   0  0  0  0  0  2  0  0  0  0  0  0
  -24.7360  -30.8920   21.9150 N   0  0  0  0  0  0  0  0  0  0  0  0
  -23.5800  -31.9060   23.5940 O   0  0  0  0  0  0  0  0  0  0  0  0
  -22.8210  -29.2580   22.2840 C   0  0  0  0  0  0  0  0  0  0  0  0
  -21.4920  -29.0820   22.1770 N   0  0  0  0  0  0  0  0  0  0  0  0
  -23.5150  -28.5970   23.0610 O   0  0  0  0  0  0  0  0  0  0  0  0
  -20.9880  -29.6680   21.5260 H   0  0  0  0  0  0  0  0  0  0  0  0
  -18.1260  -27.8550   22.7150 C   0  0  0  0  0  0  0  0  0  0  0  0
  -20.6920  -28.1040   22.9190 C   0  0  0  0  0  3  0  0  0  0  0  0
  -20.7760  -26.7060   22.2620 C   0  0  0  0  0  2  0  0  0  0  0  0
  -19.6430  -26.4400   21.2650 C   0  0  0  0  0  2  0  0  0  0  0  0
  -18.2810  -26.5460   21.9580 C   0  0  0  0  0  2  0  0  0  0  0  0
  -19.2580  -28.5940   23.1530 C   0  0  0  0  0  0  0  0  0  0  0  0
  -19.0570  -29.8180   23.8240 C   0  0  0  0  0  3  0  0  0  0  0  0
  -17.7570  -30.3060   24.0600 C   0  0  0  0  0  3  0  0  0  0  0  0
  -16.6410  -29.5650   23.6370 C   0  0  0  0  0  3  0  0  0  0  0  0
  -16.8270  -28.3390   22.9710 C   0  0  0  0  0  3  0  0  0  0  0  0
  -25.9380  -32.2940   23.6820 C   0  0  0  0  0  3  0  0  0  0  0  0
  -26.4710  -31.4850   24.9290 C   0  0  1  0  0  0  0  0  0  0  0  0
  -25.3890  -31.2010   25.9960 C   0  0  0  0  0  1  0  0  0  0  0  0
  -27.0660  -30.1280   24.4900 C   0  0  0  0  0  1  0  0  0  0  0  0
  -27.6200  -32.2690   25.6100 C   0  0  0  0  0  1  0  0  0  0  0  0
  -25.6080  -33.6750   24.0710 N   0  0  0  0  0  0  0  0  0  0  0  0
  -25.9270  -34.7670   23.3630 C   0  0  0  0  0  0  0  0  0  0  0  0
  -26.5980  -34.7180   22.3290 O   0  0  0  0  0  0  0  0  0  0  0  0
  -25.0110  -33.7850   24.8780 H   0  0  0  0  0  0  0  0  0  0  0  0
  -24.1770  -36.5550   23.0950 C   0  0  0  0  0  1  0  0  0  0  0  0
  -25.4250  -36.1280   23.8850 C   0  0  0  0  0  3  0  0  0  0  0  0
  -27.5470  -37.0060   24.7570 C   0  0  0  0  0  1  0  0  0  0  0  0
  -26.4450  -37.1970   23.8160 N   0  0  0  0  0  0  0  0  0  0  0  0
  -26.0260  -38.1060   23.9980 H   0  0  0  0  0  0  0  0  0  0  0  0
  1  3  1  0
  2  6  1  0
  3 17  1  0
  3  6  2  0
  4  2  2  0
  5  1  2  0
  5  4  1  0
  6  8  1  0
  7  5  1  0
  9 17  1  0
 10 15  1  0
 11 12  1  0
 11 10  1  0
 13 12  1  0
 13 22  1  0
 13 14  1  0
 15  9  1  0
 15 14  1  0
 16  9  2  0
 17 18  1  0
 19 20  2  0
 20 39  1  0
 21 20  1  0
 21 24  1  0
 22 23  1  0
 22 19  1  0
 23 21  2  0
 24 25  1  0
 25 26  2  0
 27 30  1  0
 27 26  1  0
 28 27  2  0
 29 28  1  0
 29 24  2  0
 30 31  1  0
 31 32  1  0
 32 33  2  0
 34 33  1  0
 34 38  1  0
 35 34  2  0
 36 31  2  0
 36 35  1  0
 37 36  1  0
 39 40  1  0
 40 43  1  0
 40 42  1  0
 41 39  2  0
 44 19  1  0
 44 45  1  0
 46 44  1  0
 47  4  1  0
 47 48  1  0
 49 50  1  0
 49 48  1  0
 51 62  2  0
 52 50  1  0
 52 57  1  0
 53 61  1  0
 53 63  1  0
 54 60  1  0
 54 56  1  0
 55 61  1  0
 56 55  1  0
 57 56  2  0
 58 59  1  0
 58 52  2  0
 59 54  2  0
 60 53  1  0
 61 51  1  0
 63 65  2  0
 64 63  1  0
 66 64  1  0
 67 76  2  0
 67 72  1  0
 68 64  1  0
 68 72  1  0
 69 68  1  0
 70 71  1  0
 70 69  1  0
 71 67  1  0
 72 73  2  0
 73 74  1  0
 75 74  2  0
 76 75  1  0
 77 51  1  0
 77 82  1  0
 77 78  1  0
 78 81  1  1
 78 79  1  0
 80 78  1  0
 82 85  1  0
 83 87  1  0
 83 82  1  0
 84 83  2  0
 87 86  1  0
 89 87  1  0
 89 90  1  0
 89 88  1  0
M  ISO  4   9 100  17 100  49 101  50 101
M  END
>  <TORSDO>  (4) 
F 19

>  <SCORE>  (4) 
-13.201

>  <name>  (4) 
3

>  <ligand_id>  (4) 
3

>  <original_smiles>  (4) 
[H]c1c([H])c([H])c2c(c1[H])C([H])([H])C([H])([H])C([H])([H])C2([H])N([H])C(=O)C1([H])N(C(=O)C([H])(N([H])C(=O)C([H])(N([H])C([H])([H])[H])C([H])([H])[H])C(C([H])([H])[H])(C([H])([H])[H])C([H])([H])[H])C([H])([H])c2c([H])c(OC([H])([H])C([H])([H])Oc3c([H])c(F)c(N([H])C(=O)N4C([H])([H])C([H])([H])C([H])([H])C([H])(n5nc(-c6c([H])c([H])c(Oc7c([H])c([H])c(F)c([H])c7F)c([H])c6[H])c(C(=O)N([H])[H])c5N([H])[H])C4([H])[H])c([H])c3F)c([H])c([H])c2C1([H])[H]

>  <smiles>  (4) 
[H]c1c([H])c([H])c2c(c1[H])C([H])([H])C([H])([H])C([H])([H])C2([H])N([H])C(=O)C1([H])N(C(=O)C([H])(N([H])C(=O)C([H])(N([H])C([H])([H])[H])C([H])([H])[H])C(C([H])([H])[H])(C([H])([H])[H])C([H])([H])[H])C([H])([H])c2c([H])c(OC([H])([H])C([H])([H])Oc3c([H])c(F)c(N([H])C(=O)N4C([H])([H])C([H])([H])C([H])([H])C([H])(n5nc(-c6c([H])c([H])c(Oc7c([H])c([H])c(F)c([H])c7F)c([H])c6[H])c(C(=O)N([H])[H])c5N([H])[H])C4([H])[H])c([H])c3F)c([H])c([H])c2C1([H])[H]

$$$$
4:0:0
     RDKit          3D

 91 99  0  0  1  0  0  0  0  0999 V2000
  -29.3690  -21.9780   20.4980 C   0  0  0  0  0  2  0  0  0  0  0  0
  -28.7960  -20.0590   18.8260 C   0  0  0  0  0  3  0  0  0  0  0  0
  -28.7900  -18.7450   18.3080 C   0  0  0  0  0  3  0  0  0  0  0  0
  -29.5240  -19.0950   20.9300 C   0  0  0  0  0  3  0  0  0  0  0  0
  -29.1710  -20.3430   20.1530 C   0  0  0  0  0  0  0  0  0  0  0  0
  -29.5390  -17.6740   20.4190 C   0  0  0  0  0  0  0  0  0  0  0  0
  -29.1450  -17.5980   19.0540 C   0  0  0  0  0  0  0  0  0  0  0  0
  -29.0110  -16.0850   18.2320 Cl  0  0  0  0  0  0  0  0  0  0  0  0
  -30.5290  -15.1400   21.0100 C   0  0  0  0  0  0  0  0  0  0  0  0
  -30.6190  -12.6960   20.2940 C   0  0  0  0  0  2  0  0  0  0  0  0
  -29.8480  -12.5000   18.9660 C   0  0  0  0  0  2  0  0  0  0  0  0
  -28.3510  -12.2640   19.2350 C   0  0  0  0  0  2  0  0  0  0  0  0
  -27.7750  -13.2500   20.2840 C   0  0  0  0  0  3  0  0  0  0  0  0
  -28.6870  -13.4020   21.5220 C   0  0  0  0  0  2  0  0  0  0  0  0
  -30.0030  -13.8400   21.0390 N   0  0  0  0  0  0  0  0  0  0  0  0
  -31.7420  -15.2240   20.7760 O   0  0  0  0  0  0  0  0  0  0  0  0
  -29.7170  -16.3170   21.1720 N   0  0  0  0  0  0  0  0  0  0  0  0
  -28.8750  -16.0740   21.6700 H   0  0  0  0  0  0  0  0  0  0  0  0
  -25.3200  -13.7880   20.7530 C   0  0  0  0  0  0  0  0  0  0  0  0
  -24.2380  -12.9980   21.0280 C   0  0  0  0  0  0  0  0  0  0  0  0
  -24.7300  -11.6580   21.0810 C   0  0  0  0  0  0  0  0  0  0  0  0
  -26.3990  -12.9290   20.6450 N   0  0  0  0  0  0  0  0  0  0  0  0
  -26.0480  -11.6440   20.9110 N   0  0  0  0  0  0  0  0  0  0  0  0
  -24.0120  -10.3840   21.2260 C   0  0  0  0  0  0  0  0  0  0  0  0
  -24.3860   -9.4310   22.2000 C   0  0  0  0  0  3  0  0  0  0  0  0
  -23.6650   -8.2240   22.3330 C   0  0  0  0  0  3  0  0  0  0  0  0
  -22.5590   -7.9610   21.4910 C   0  0  0  0  0  0  0  0  0  0  0  0
  -22.2060   -8.9030   20.5090 C   0  0  0  0  0  3  0  0  0  0  0  0
  -22.9260  -10.1000   20.3730 C   0  0  0  0  0  3  0  0  0  0  0  0
  -21.8170   -6.8050   21.5310 O   0  0  0  0  0  0  0  0  0  0  0  0
  -21.7150   -6.0550   22.6750 C   0  0  0  0  0  0  0  0  0  0  0  0
  -21.2170   -6.5970   23.8800 C   0  0  0  0  0  3  0  0  0  0  0  0
  -21.0620   -5.7720   25.0120 C   0  0  0  0  0  3  0  0  0  0  0  0
  -21.3960   -4.4060   24.9400 C   0  0  0  0  0  0  0  0  0  0  0  0
  -21.8880   -3.8640   23.7400 C   0  0  0  0  0  3  0  0  0  0  0  0
  -22.0430   -4.6850   22.6100 C   0  0  0  0  0  0  0  0  0  0  0  0
  -22.4960   -4.1530   21.4500 F   0  0  0  0  0  0  0  0  0  0  0  0
  -21.2420   -3.6130   26.0260 F   0  0  0  0  0  0  0  0  0  0  0  0
  -22.8110  -13.4500   21.1360 C   0  0  0  0  0  0  0  0  0  0  0  0
  -22.0110  -12.7650   21.9450 N   0  0  0  0  0  0  0  0  0  0  0  0
  -22.4110  -14.4480   20.5380 O   0  0  0  0  0  0  0  0  0  0  0  0
  -22.3450  -11.9590   22.4510 H   0  0  0  0  0  0  0  0  0  0  0  0
  -21.0490  -13.0510   22.0600 H   0  0  0  0  0  0  0  0  0  0  0  0
  -25.4740  -15.1580   20.5590 N   0  0  0  0  0  0  0  0  0  0  0  0
  -24.6840  -15.7940   20.5650 H   0  0  0  0  0  0  0  0  0  0  0  0
  -26.3380  -15.6020   20.2770 H   0  0  0  0  0  0  0  0  0  0  0  0
  -28.3230  -23.1960   20.5230 N   0  0  0  0  0  4  0  0  0  0  0  0
  -28.2950  -23.4430   21.4960 H   0  0  0  0  0  0  0  0  0  0  0  0
  -27.4250  -22.7780   20.3520 H   0  0  0  0  0  0  0  0  0  0  0  0
  -28.4040  -24.7500   19.5960 C   0  0  0  0  0  2  0  0  0  0  0  0
  -28.2980  -26.1440   20.2650 O   0  0  0  0  0  0  0  0  0  0  0  0
  -24.6550  -31.8800   23.1390 C   0  0  0  0  0  0  0  0  0  0  0  0
  -27.2360  -27.1280   20.1080 C   0  0  0  0  0  0  0  0  0  0  0  0
  -23.4490  -30.4660   21.5180 C   0  0  0  0  0  3  0  0  0  0  0  0
  -24.8950  -28.8860   20.0810 C   0  0  0  0  0  0  0  0  0  0  0  0
  -26.0010  -30.7340   21.3330 C   0  0  0  0  0  2  0  0  0  0  0  0
  -26.0760  -29.3350   20.6840 C   0  0  0  0  0  0  0  0  0  0  0  0
  -27.2380  -28.4690   20.6860 C   0  0  0  0  0  3  0  0  0  0  0  0
  -26.0280  -26.7910   19.4560 C   0  0  0  0  0  3  0  0  0  0  0  0
  -24.8880  -27.6300   19.4510 C   0  0  0  0  0  3  0  0  0  0  0  0
  -23.6630  -29.7790   20.1410 C   0  0  0  0  0  2  0  0  0  0  0  0
  -24.7230  -31.0510   22.0510 N   0  0  0  0  0  0  0  0  0  0  0  0
  -23.5720  -32.1630   23.6750 O   0  0  0  0  0  0  0  0  0  0  0  0
  -22.7830  -29.4640   22.4950 C   0  0  0  0  0  0  0  0  0  0  0  0
  -21.4530  -29.2970   22.3920 N   0  0  0  0  0  0  0  0  0  0  0  0
  -23.4670  -28.8400   23.3110 O   0  0  0  0  0  0  0  0  0  0  0  0
  -20.9570  -29.8520   21.7090 H   0  0  0  0  0  0  0  0  0  0  0  0
  -18.0790  -28.0980   22.9520 C   0  0  0  0  0  0  0  0  0  0  0  0
  -20.6420  -28.3630   23.1790 C   0  0  0  0  0  3  0  0  0  0  0  0
  -20.7350  -26.9280   22.6060 C   0  0  0  0  0  2  0  0  0  0  0  0
  -19.6170  -26.6040   21.6090 C   0  0  0  0  0  2  0  0  0  0  0  0
  -18.2450  -26.7490   22.2740 C   0  0  0  0  0  2  0  0  0  0  0  0
  -19.2040  -28.8620   23.3620 C   0  0  0  0  0  0  0  0  0  0  0  0
  -18.9920  -30.1240   23.9600 C   0  0  0  0  0  3  0  0  0  0  0  0
  -17.6890  -30.6220   24.1490 C   0  0  0  0  0  3  0  0  0  0  0  0
  -16.5800  -29.8550   23.7530 C   0  0  0  0  0  3  0  0  0  0  0  0
  -16.7750  -28.5950   23.1600 C   0  0  0  0  0  3  0  0  0  0  0  0
  -25.9330  -32.5290   23.7510 C   0  0  0  0  0  3  0  0  0  0  0  0
  -26.4820  -31.7500   25.0100 C   0  0  1  0  0  0  0  0  0  0  0  0
  -25.4120  -31.4880   26.0960 C   0  0  0  0  0  1  0  0  0  0  0  0
  -27.0760  -30.3830   24.5980 C   0  0  0  0  0  1  0  0  0  0  0  0
  -27.6350  -32.5510   25.6620 C   0  0  0  0  0  1  0  0  0  0  0  0
  -25.6030  -33.9170   24.1160 N   0  0  0  0  0  0  0  0  0  0  0  0
  -25.9190  -34.9960   23.3860 C   0  0  0  0  0  0  0  0  0  0  0  0
  -26.5850  -34.9280   22.3490 O   0  0  0  0  0  0  0  0  0  0  0  0
  -25.0100  -34.0420   24.9230 H   0  0  0  0  0  0  0  0  0  0  0  0
  -24.1760  -36.7870   23.0860 C   0  0  0  0  0  1  0  0  0  0  0  0
  -25.4210  -36.3670   23.8850 C   0  0  0  0  0  3  0  0  0  0  0  0
  -27.5470  -37.2490   24.7410 C   0  0  0  0  0  1  0  0  0  0  0  0
  -26.4430  -37.4330   23.8030 N   0  0  0  0  0  0  0  0  0  0  0  0
  -26.0300  -38.3440   23.9760 H   0  0  0  0  0  0  0  0  0  0  0  0
  1 47  1  0
  2  5  1  0
  3  2  2  0
  3  7  1  0
  5  1  1  0
  5  4  2  0
  6  4  1  0
  6 17  1  0
  7  6  2  0
  8  7  1  0
  9 15  1  0
  9 17  1  0
 10 15  1  0
 11 12  1  0
 11 10  1  0
 13 12  1  0
 13 22  1  0
 13 14  1  0
 15 14  1  0
 16  9  2  0
 17 18  1  0
 19 20  2  0
 20 21  1  0
 20 39  1  0
 21 24  1  0
 22 19  1  0
 22 23  1  0
 23 21  2  0
 24 25  1  0
 25 26  2  0
 27 30  1  0
 27 26  1  0
 28 27  2  0
 29 28  1  0
 29 24  2  0
 30 31  1  0
 31 32  1  0
 32 33  2  0
 34 33  1  0
 34 38  1  0
 35 34  2  0
 36 31  2  0
 36 35  1  0
 37 36  1  0
 39 40  1  0
 40 43  1  0
 40 42  1  0
 41 39  2  0
 44 45  1  0
 44 19  1  0
 46 44  1  0
 47 48  1  0
 49 47  1  0
 50 51  1  0
 50 47  1  0
 52 63  2  0
 53 51  1  0
 53 58  1  0
 54 62  1  0
 54 64  1  0
 55 61  1  0
 55 57  1  0
 56 62  1  0
 57 58  2  0
 57 56  1  0
 59 53  2  0
 60 59  1  0
 60 55  2  0
 61 54  1  0
 62 52  1  0
 64 66  2  0
 65 64  1  0
 67 65  1  0
 68 77  2  0
 68 73  1  0
 69 65  1  0
 69 73  1  0
 70 69  1  0
 71 72  1  0
 71 70  1  0
 72 68  1  0
 73 74  2  0
 74 75  1  0
 76 75  2  0
 77 76  1  0
 78 52  1  0
 78 83  1  0
 78 79  1  0
 79 82  1  1
 79 80  1  0
 81 79  1  0
 83 86  1  0
 84 88  1  0
 84 83  1  0
 85 84  2  0
 88 87  1  0
 90 88  1  0
 90 91  1  0
 90 89  1  0
M  ISO  4   9 100  17 100  50 101  51 101
M  END
>  <TORSDO>  (5) 
F 19

>  <SCORE>  (5) 
-13.913

>  <name>  (5) 
4

>  <ligand_id>  (5) 
4

>  <original_smiles>  (5) 
[H]c1c([H])c([H])c2c(c1[H])C([H])([H])C([H])([H])C([H])([H])C2([H])N([H])C(=O)C1([H])N(C(=O)C([H])(N([H])C(=O)C([H])(N([H])C([H])([H])[H])C([H])([H])[H])C(C([H])([H])[H])(C([H])([H])[H])C([H])([H])[H])C([H])([H])c2c([H])c(OC([H])([H])[N+]([H])([H])C([H])([H])c3c([H])c([H])c(Cl)c(N([H])C(=O)N4C([H])([H])C([H])([H])C([H])([H])C([H])(n5nc(-c6c([H])c([H])c(Oc7c([H])c([H])c(F)c([H])c7F)c([H])c6[H])c(C(=O)N([H])[H])c5N([H])[H])C4([H])[H])c3[H])c([H])c([H])c2C1([H])[H]

>  <smiles>  (5) 
[H]c1c([H])c([H])c2c(c1[H])C([H])([H])C([H])([H])C([H])([H])C2([H])N([H])C(=O)C1([H])N(C(=O)C([H])(N([H])C(=O)C([H])(N([H])C([H])([H])[H])C([H])([H])[H])C(C([H])([H])[H])(C([H])([H])[H])C([H])([H])[H])C([H])([H])c2c([H])c(OC([H])([H])[N+]([H])([H])C([H])([H])c3c([H])c([H])c(Cl)c(N([H])C(=O)N4C([H])([H])C([H])([H])C([H])([H])C([H])(n5nc(-c6c([H])c([H])c(Oc7c([H])c([H])c(F)c([H])c7F)c([H])c6[H])c(C(=O)N([H])[H])c5N([H])[H])C4([H])[H])c3[H])c([H])c([H])c2C1([H])[H]

$$$$
5:0:0
     RDKit          3D

 93101  0  0  1  0  0  0  0  0999 V2000
  -27.8300  -22.0110   20.9860 C   0  0  0  0  0  2  0  0  0  0  0  0
  -27.7060  -19.8050   19.7120 C   0  0  0  0  0  3  0  0  0  0  0  0
  -28.2310  -18.5390   19.3710 C   0  0  0  0  0  3  0  0  0  0  0  0
  -29.5330  -20.1350   21.2810 C   0  0  0  0  0  3  0  0  0  0  0  0
  -28.3710  -20.6230   20.6480 C   0  0  0  0  0  0  0  0  0  0  0  0
  -29.4300  -18.0760   19.9640 C   0  0  0  0  0  0  0  0  0  0  0  0
  -30.0620  -18.8710   20.9490 C   0  0  0  0  0  0  0  0  0  0  0  0
  -31.5040  -18.3380   21.7380 Cl  0  0  0  0  0  0  0  0  0  0  0  0
  -30.0950  -16.8060   19.4480 C   0  0  0  0  0  2  0  0  0  0  0  0
  -30.6850  -14.5200   20.0880 C   0  0  0  0  0  0  0  0  0  0  0  0
  -30.3440  -12.3560   19.0050 C   0  0  0  0  0  2  0  0  0  0  0  0
  -29.3520  -12.5920   17.8470 C   0  0  0  0  0  2  0  0  0  0  0  0
  -27.8950  -12.4790   18.3380 C   0  0  0  0  0  2  0  0  0  0  0  0
  -27.6230  -13.2960   19.6310 C   0  0  0  0  0  3  0  0  0  0  0  0
  -28.7310  -13.0550   20.6860 C   0  0  0  0  0  2  0  0  0  0  0  0
  -30.0280  -13.3360   20.0530 N   0  0  0  0  0  0  0  0  0  0  0  0
  -31.8400  -14.6630   19.6800 O   0  0  0  0  0  0  0  0  0  0  0  0
  -29.8810  -15.5870   20.2340 N   0  0  0  0  0  0  0  0  0  0  0  0
  -28.9470  -15.4180   20.5710 H   0  0  0  0  0  0  0  0  0  0  0  0
  -25.2650  -13.9090   20.4600 C   0  0  0  0  0  0  0  0  0  0  0  0
  -24.2090  -13.1380   20.8670 C   0  0  0  0  0  0  0  0  0  0  0  0
  -24.6570  -11.7850   20.7900 C   0  0  0  0  0  0  0  0  0  0  0  0
  -26.2920  -13.0230   20.1700 N   0  0  0  0  0  0  0  0  0  0  0  0
  -25.9330  -11.7410   20.4270 N   0  0  0  0  0  0  0  0  0  0  0  0
  -23.9290  -10.5240   20.9870 C   0  0  0  0  0  0  0  0  0  0  0  0
  -24.3740   -9.5530   21.9110 C   0  0  0  0  0  3  0  0  0  0  0  0
  -23.6510   -8.3550   22.0960 C   0  0  0  0  0  3  0  0  0  0  0  0
  -22.4650   -8.1210   21.3590 C   0  0  0  0  0  0  0  0  0  0  0  0
  -22.0390   -9.0790   20.4220 C   0  0  0  0  0  3  0  0  0  0  0  0
  -22.7640  -10.2690   20.2360 C   0  0  0  0  0  3  0  0  0  0  0  0
  -21.7130   -6.9760   21.4540 O   0  0  0  0  0  0  0  0  0  0  0  0
  -21.6540   -6.2480   22.6160 C   0  0  0  0  0  0  0  0  0  0  0  0
  -21.2050   -6.8160   23.8270 C   0  0  0  0  0  3  0  0  0  0  0  0
  -21.0950   -6.0150   24.9800 C   0  0  0  0  0  3  0  0  0  0  0  0
  -21.4200   -4.6470   24.9240 C   0  0  0  0  0  0  0  0  0  0  0  0
  -21.8620   -4.0780   23.7150 C   0  0  0  0  0  3  0  0  0  0  0  0
  -21.9740   -4.8770   22.5630 C   0  0  0  0  0  0  0  0  0  0  0  0
  -22.3810   -4.3210   21.3970 F   0  0  0  0  0  0  0  0  0  0  0  0
  -21.3050   -3.8750   26.0290 F   0  0  0  0  0  0  0  0  0  0  0  0
  -22.8280  -13.6220   21.2060 C   0  0  0  0  0  0  0  0  0  0  0  0
  -22.1300  -12.9120   22.0860 N   0  0  0  0  0  0  0  0  0  0  0  0
  -22.3780  -14.6610   20.7270 O   0  0  0  0  0  0  0  0  0  0  0  0
  -22.5080  -12.0710   22.4950 H   0  0  0  0  0  0  0  0  0  0  0  0
  -21.2040  -13.2170   22.3550 H   0  0  0  0  0  0  0  0  0  0  0  0
  -25.4310  -15.2800   20.2920 N   0  0  0  0  0  0  0  0  0  0  0  0
  -24.6660  -15.9330   20.4120 H   0  0  0  0  0  0  0  0  0  0  0  0
  -26.2540  -15.7090   19.8910 H   0  0  0  0  0  0  0  0  0  0  0  0
  -28.4640  -23.0750   20.1780 N   0  0  0  0  0  4  0  0  0  0  0  0
  -28.2270  -22.9120   19.2120 H   0  0  0  0  0  0  0  0  0  0  0  0
  -29.4650  -22.9710   20.2570 H   0  0  0  0  0  0  0  0  0  0  0  0
  -28.0740  -24.4570   20.5710 C   0  0  0  0  0  2  0  0  0  0  0  0
  -28.5800  -25.5290   19.5810 C   0  0  0  0  0  2  0  0  0  0  0  0
  -28.4480  -26.8530   20.1070 O   0  0  0  0  0  0  0  0  0  0  0  0
  -24.5600  -31.9070   23.2220 C   0  0  0  0  0  0  0  0  0  0  0  0
  -27.2340  -27.5090   20.0990 C   0  0  0  0  0  0  0  0  0  0  0  0
  -23.3560  -30.4990   21.5800 C   0  0  0  0  0  3  0  0  0  0  0  0
  -24.8140  -28.9820   20.1390 C   0  0  0  0  0  0  0  0  0  0  0  0
  -25.8750  -30.8830   21.3690 C   0  0  0  0  0  2  0  0  0  0  0  0
  -25.9680  -29.5150   20.7250 C   0  0  0  0  0  0  0  0  0  0  0  0
  -27.1740  -28.7830   20.7070 C   0  0  0  0  0  3  0  0  0  0  0  0
  -26.0580  -26.9850   19.5100 C   0  0  0  0  0  3  0  0  0  0  0  0
  -24.8550  -27.7150   19.5290 C   0  0  0  0  0  3  0  0  0  0  0  0
  -23.5640  -29.8310   20.1950 C   0  0  0  0  0  2  0  0  0  0  0  0
  -24.6150  -31.1110   22.1150 N   0  0  0  0  0  0  0  0  0  0  0  0
  -23.4800  -32.1710   23.7680 O   0  0  0  0  0  0  0  0  0  0  0  0
  -22.7220  -29.4680   22.5380 C   0  0  0  0  0  0  0  0  0  0  0  0
  -21.3990  -29.2730   22.4140 N   0  0  0  0  0  0  0  0  0  0  0  0
  -23.4130  -28.8470   23.3470 O   0  0  0  0  0  0  0  0  0  0  0  0
  -20.9060  -29.8170   21.7210 H   0  0  0  0  0  0  0  0  0  0  0  0
  -18.0320  -28.0760   22.9330 C   0  0  0  0  0  0  0  0  0  0  0  0
  -20.5910  -28.3280   23.1810 C   0  0  0  0  0  3  0  0  0  0  0  0
  -20.6890  -26.9020   22.5910 C   0  0  0  0  0  2  0  0  0  0  0  0
  -19.5770  -26.5890   21.5870 C   0  0  0  0  0  2  0  0  0  0  0  0
  -18.2020  -26.7320   22.2450 C   0  0  0  0  0  2  0  0  0  0  0  0
  -19.1550  -28.8340   23.3560 C   0  0  0  0  0  0  0  0  0  0  0  0
  -18.9450  -30.0980   23.9480 C   0  0  0  0  0  3  0  0  0  0  0  0
  -17.6440  -30.6020   24.1320 C   0  0  0  0  0  3  0  0  0  0  0  0
  -16.5340  -29.8350   23.7330 C   0  0  0  0  0  3  0  0  0  0  0  0
  -16.7280  -28.5760   23.1390 C   0  0  0  0  0  3  0  0  0  0  0  0
  -25.8460  -32.5430   23.8360 C   0  0  0  0  0  3  0  0  0  0  0  0
  -25.5350  -33.9410   24.1610 N   0  0  0  0  0  0  0  0  0  0  0  0
  -25.8710  -34.9930   23.4010 C   0  0  0  0  0  0  0  0  0  0  0  0
  -26.5480  -34.8850   22.3740 O   0  0  0  0  0  0  0  0  0  0  0  0
  -24.9380  -34.0970   24.9600 H   0  0  0  0  0  0  0  0  0  0  0  0
  -24.1490  -36.7840   23.0220 C   0  0  0  0  0  1  0  0  0  0  0  0
  -25.3780  -36.3800   23.8510 C   0  0  0  0  0  3  0  0  0  0  0  0
  -27.5010  -37.2630   24.7140 C   0  0  0  0  0  1  0  0  0  0  0  0
  -26.4130  -37.4320   23.7540 N   0  0  0  0  0  0  0  0  0  0  0  0
  -26.0050  -38.3520   23.8950 H   0  0  0  0  0  0  0  0  0  0  0  0
  -26.3720  -31.7740   25.1100 C   0  0  1  0  0  0  0  0  0  0  0  0
  -25.2840  -31.5310   26.1810 C   0  0  0  0  0  1  0  0  0  0  0  0
  -26.9600  -30.4000   24.7120 C   0  0  0  0  0  1  0  0  0  0  0  0
  -27.5200  -32.5750   25.7690 C   0  0  0  0  0  1  0  0  0  0  0  0
  2  5  1  0
  3  2  2  0
  3  6  1  0
  5  1  1  0
  5  4  2  0
  6  7  2  0
  7  4  1  0
  7  8  1  0
  9  6  1  0
  9 18  1  0
 10 18  1  0
 11 16  1  0
 12 13  1  0
 12 11  1  0
 14 13  1  0
 14 23  1  0
 14 15  1  0
 16 10  1  0
 16 15  1  0
 17 10  2  0
 18 19  1  0
 20 21  2  0
 21 40  1  0
 22 21  1  0
 22 25  1  0
 23 24  1  0
 23 20  1  0
 24 22  2  0
 25 26  1  0
 26 27  2  0
 28 31  1  0
 28 27  1  0
 29 28  2  0
 30 29  1  0
 30 25  2  0
 31 32  1  0
 32 33  1  0
 33 34  2  0
 35 34  1  0
 35 39  1  0
 36 35  2  0
 37 32  2  0
 37 36  1  0
 38 37  1  0
 40 41  1  0
 41 44  1  0
 41 43  1  0
 42 40  2  0
 45 46  1  0
 45 20  1  0
 47 45  1  0
 48 50  1  0
 48 51  1  0
 48  1  1  0
 49 48  1  0
 52 53  1  0
 52 51  1  0
 54 65  2  0
 55 53  1  0
 55 60  1  0
 56 64  1  0
 56 66  1  0
 57 63  1  0
 57 59  1  0
 58 64  1  0
 59 58  1  0
 60 59  2  0
 61 62  1  0
 61 55  2  0
 62 57  2  0
 63 56  1  0
 64 54  1  0
 66 68  2  0
 67 66  1  0
 69 67  1  0
 70 79  2  0
 70 75  1  0
 71 67  1  0
 71 75  1  0
 72 71  1  0
 73 74  1  0
 73 72  1  0
 74 70  1  0
 75 76  2  0
 76 77  1  0
 78 77  2  0
 79 78  1  0
 80 54  1  0
 80 81  1  0
 80 90  1  0
 81 84  1  0
 82 86  1  0
 82 81  1  0
 83 82  2  0
 86 85  1  0
 88 86  1  0
 88 89  1  0
 88 87  1  0
 90 93  1  1
 90 91  1  0
 92 90  1  0
M  ISO  4  10 100  18 100  52 101  53 101
M  END
>  <TORSDO>  (6) 
F 21

>  <SCORE>  (6) 
-13.510

>  <name>  (6) 
5

>  <ligand_id>  (6) 
5

>  <original_smiles>  (6) 
[H]c1c([H])c([H])c2c(c1[H])C([H])([H])C([H])([H])C([H])([H])C2([H])N([H])C(=O)C1([H])N(C(=O)C([H])(N([H])C(=O)C([H])(N([H])C([H])([H])[H])C([H])([H])[H])C(C([H])([H])[H])(C([H])([H])[H])C([H])([H])[H])C([H])([H])c2c([H])c(OC([H])([H])C([H])([H])[N+]([H])([H])C([H])([H])c3c([H])c([H])c(C([H])([H])N([H])C(=O)N4C([H])([H])C([H])([H])C([H])([H])C([H])(n5nc(-c6c([H])c([H])c(Oc7c([H])c([H])c(F)c([H])c7F)c([H])c6[H])c(C(=O)N([H])[H])c5N([H])[H])C4([H])[H])c(Cl)c3[H])c([H])c([H])c2C1([H])[H]

>  <smiles>  (6) 
[H]c1c([H])c([H])c2c(c1[H])C([H])([H])C([H])([H])C([H])([H])C2([H])N([H])C(=O)C1([H])N(C(=O)C([H])(N([H])C(=O)C([H])(N([H])C([H])([H])[H])C([H])([H])[H])C(C([H])([H])[H])(C([H])([H])[H])C([H])([H])[H])C([H])([H])c2c([H])c(OC([H])([H])C([H])([H])[N+]([H])([H])C([H])([H])c3c([H])c([H])c(C([H])([H])N([H])C(=O)N4C([H])([H])C([H])([H])C([H])([H])C([H])(n5nc(-c6c([H])c([H])c(Oc7c([H])c([H])c(F)c([H])c7F)c([H])c6[H])c(C(=O)N([H])[H])c5N([H])[H])C4([H])[H])c(Cl)c3[H])c([H])c([H])c2C1([H])[H]

$$$$
6:0:0
     RDKit          3D

 92101  0  0  1  0  0  0  0  0999 V2000
  -30.7120  -14.8610   20.4180 C   0  0  0  0  0  0  0  0  0  0  0  0
  -30.4590  -12.5440   19.4660 C   0  0  0  0  0  2  0  0  0  0  0  0
  -29.5580  -12.5070   18.2150 C   0  0  0  0  0  2  0  0  0  0  0  0
  -28.0840  -12.3180   18.6190 C   0  0  0  0  0  2  0  0  0  0  0  0
  -27.6660  -13.2680   19.7710 C   0  0  0  0  0  3  0  0  0  0  0  0
  -28.7070  -13.2650   20.9220 C   0  0  0  0  0  2  0  0  0  0  0  0
  -29.9910  -13.6690   20.3290 N   0  0  0  0  0  0  0  0  0  0  0  0
  -31.9210  -14.7750   20.1830 O   0  0  0  0  0  0  0  0  0  0  0  0
  -27.7960  -19.0820   20.4770 C   0  0  0  0  0  3  0  0  0  0  0  0
  -28.0060  -20.4950   20.3640 C   0  0  0  0  0  3  0  0  0  0  0  0
  -28.8990  -18.1900   20.4990 C   0  0  0  0  0  0  0  0  0  0  0  0
  -30.1670  -18.6850   20.3880 C   0  0  0  0  0  0  0  0  0  0  0  0
  -29.3090  -21.0720   20.3090 C   0  0  0  0  0  0  0  0  0  0  0  0
  -30.4050  -20.1120   20.3150 C   0  0  0  0  0  0  0  0  0  0  0  0
  -28.9220  -16.6820   20.6570 C   0  0  0  0  0  0  0  0  0  0  0  0
  -31.0720  -17.4230   20.3920 C   0  0  0  0  0  2  0  0  0  0  0  0
  -30.1900  -16.1800   20.5140 N   0  0  0  0  0  0  0  0  0  0  0  0
  -27.8890  -16.0810   20.9190 O   0  0  0  0  0  0  0  0  0  0  0  0
  -31.6800  -20.5670   20.2700 F   0  0  0  0  0  0  0  0  0  0  0  0
  -25.2510  -13.8880   20.3890 C   0  0  0  0  0  0  0  0  0  0  0  0
  -24.1760  -13.1330   20.7570 C   0  0  0  0  0  0  0  0  0  0  0  0
  -24.6400  -11.7840   20.7910 C   0  0  0  0  0  0  0  0  0  0  0  0
  -26.3090  -13.0040   20.2360 N   0  0  0  0  0  0  0  0  0  0  0  0
  -25.9410  -11.7330   20.5360 N   0  0  0  0  0  0  0  0  0  0  0  0
  -23.9010  -10.5330   20.9890 C   0  0  0  0  0  0  0  0  0  0  0  0
  -24.3140   -9.5720   21.9370 C   0  0  0  0  0  3  0  0  0  0  0  0
  -23.5720   -8.3860   22.1220 C   0  0  0  0  0  3  0  0  0  0  0  0
  -22.4020   -8.1560   21.3600 C   0  0  0  0  0  0  0  0  0  0  0  0
  -22.0070   -9.1070   20.4020 C   0  0  0  0  0  3  0  0  0  0  0  0
  -22.7500  -10.2830   20.2150 C   0  0  0  0  0  3  0  0  0  0  0  0
  -21.6310   -7.0230   21.4570 O   0  0  0  0  0  0  0  0  0  0  0  0
  -21.5890   -6.2800   22.6080 C   0  0  0  0  0  0  0  0  0  0  0  0
  -21.2090   -6.8450   23.8460 C   0  0  0  0  0  3  0  0  0  0  0  0
  -21.1110   -6.0290   24.9900 C   0  0  0  0  0  3  0  0  0  0  0  0
  -21.3840   -4.6510   24.9000 C   0  0  0  0  0  0  0  0  0  0  0  0
  -21.7560   -4.0860   23.6680 C   0  0  0  0  0  3  0  0  0  0  0  0
  -21.8550   -4.8980   22.5240 C   0  0  0  0  0  0  0  0  0  0  0  0
  -22.1950   -4.3460   21.3340 F   0  0  0  0  0  0  0  0  0  0  0  0
  -21.2810   -3.8660   25.9980 F   0  0  0  0  0  0  0  0  0  0  0  0
  -22.7760  -13.6290   20.9700 C   0  0  0  0  0  0  0  0  0  0  0  0
  -22.0220  -12.9780   21.8470 N   0  0  0  0  0  0  0  0  0  0  0  0
  -22.3600  -14.6360   20.3960 O   0  0  0  0  0  0  0  0  0  0  0  0
  -22.3720  -12.1640   22.3310 H   0  0  0  0  0  0  0  0  0  0  0  0
  -21.0830  -13.2960   22.0360 H   0  0  0  0  0  0  0  0  0  0  0  0
  -25.3980  -15.2460   20.1500 N   0  0  0  0  0  0  0  0  0  0  0  0
  -24.6530  -15.8940   20.3740 H   0  0  0  0  0  0  0  0  0  0  0  0
  -26.3300  -15.6500   20.2750 H   0  0  0  0  0  0  0  0  0  0  0  0
  -29.5160  -22.5170   20.3360 N   0  0  0  0  0  0  0  0  0  0  0  0
  -30.5040  -22.7530   20.4080 H   0  0  0  0  0  0  0  0  0  0  0  0
  -28.6850  -23.6420   19.7170 C   0  0  0  0  0  2  0  0  0  0  0  0
  -28.4290  -25.0340   20.5400 C   0  0  0  0  0  2  0  0  0  0  0  0
  -28.4370  -26.4150   19.9340 O   0  0  0  0  0  0  0  0  0  0  0  0
  -24.5630  -31.7440   23.0610 C   0  0  0  0  0  0  0  0  0  0  0  0
  -27.2970  -27.2520   19.9650 C   0  0  0  0  0  0  0  0  0  0  0  0
  -23.4080  -30.3610   21.3720 C   0  0  0  0  0  3  0  0  0  0  0  0
  -24.9070  -28.8520   19.9410 C   0  0  0  0  0  0  0  0  0  0  0  0
  -25.9470  -30.7160   21.2340 C   0  0  0  0  0  2  0  0  0  0  0  0
  -26.0600  -29.3460   20.5630 C   0  0  0  0  0  0  0  0  0  0  0  0
  -27.2610  -28.5620   20.5540 C   0  0  0  0  0  3  0  0  0  0  0  0
  -26.1190  -26.8150   19.3290 C   0  0  0  0  0  3  0  0  0  0  0  0
  -24.9410  -27.5940   19.3130 C   0  0  0  0  0  3  0  0  0  0  0  0
  -23.6560  -29.7120   19.9840 C   0  0  0  0  0  2  0  0  0  0  0  0
  -24.6580  -30.9590   21.9470 N   0  0  0  0  0  0  0  0  0  0  0  0
  -23.4670  -31.9930   23.5850 O   0  0  0  0  0  0  0  0  0  0  0  0
  -22.7440  -29.3190   22.3030 C   0  0  0  0  0  0  0  0  0  0  0  0
  -21.4140  -29.1590   22.1860 N   0  0  0  0  0  0  0  0  0  0  0  0
  -23.4230  -28.6570   23.0910 O   0  0  0  0  0  0  0  0  0  0  0  0
  -20.9230  -29.7460   21.5250 H   0  0  0  0  0  0  0  0  0  0  0  0
  -18.0270  -27.9910   22.7030 C   0  0  0  0  0  0  0  0  0  0  0  0
  -20.5950  -28.1980   22.9280 C   0  0  0  0  0  3  0  0  0  0  0  0
  -20.6600  -26.7940   22.2810 C   0  0  0  0  0  2  0  0  0  0  0  0
  -19.5320  -26.5390   21.2780 C   0  0  0  0  0  2  0  0  0  0  0  0
  -18.1660  -26.6750   21.9580 C   0  0  0  0  0  2  0  0  0  0  0  0
  -19.1680  -28.7140   23.1440 C   0  0  0  0  0  0  0  0  0  0  0  0
  -18.9830  -29.9480   23.8040 C   0  0  0  0  0  3  0  0  0  0  0  0
  -17.6910  -30.4610   24.0240 C   0  0  0  0  0  3  0  0  0  0  0  0
  -16.5640  -29.7340   23.5990 C   0  0  0  0  0  3  0  0  0  0  0  0
  -16.7350  -28.5010   22.9440 C   0  0  0  0  0  3  0  0  0  0  0  0
  -25.8250  -32.3850   23.7190 C   0  0  0  0  0  3  0  0  0  0  0  0
  -25.4840  -33.7670   24.0860 N   0  0  0  0  0  0  0  0  0  0  0  0
  -25.8010  -34.8490   23.3600 C   0  0  0  0  0  0  0  0  0  0  0  0
  -26.4770  -34.7870   22.3300 O   0  0  0  0  0  0  0  0  0  0  0  0
  -24.8850  -33.8870   24.8880 H   0  0  0  0  0  0  0  0  0  0  0  0
  -24.0370  -36.6160   23.0500 C   0  0  0  0  0  1  0  0  0  0  0  0
  -25.2840  -36.2140   23.8540 C   0  0  0  0  0  3  0  0  0  0  0  0
  -27.4020  -37.1150   24.7120 C   0  0  0  0  0  1  0  0  0  0  0  0
  -26.2960  -37.2900   23.7750 N   0  0  0  0  0  0  0  0  0  0  0  0
  -25.8720  -38.1970   23.9540 H   0  0  0  0  0  0  0  0  0  0  0  0
  -26.3390  -31.5880   24.9810 C   0  0  1  0  0  0  0  0  0  0  0  0
  -25.2390  -31.3070   26.0310 C   0  0  0  0  0  1  0  0  0  0  0  0
  -26.9460  -30.2290   24.5600 C   0  0  0  0  0  1  0  0  0  0  0  0
  -27.4730  -32.3800   25.6730 C   0  0  0  0  0  1  0  0  0  0  0  0
  1 17  1  0
  2  7  1  0
  3  4  1  0
  3  2  1  0
  5  4  1  0
  5 23  1  0
  5  6  1  0
  7  1  1  0
  7  6  1  0
  8  1  2  0
  9 11  1  0
 10  9  2  0
 11 15  1  0
 12 16  1  0
 12 11  2  0
 13 14  2  0
 13 48  1  0
 13 10  1  0
 14 12  1  0
 15 18  2  0
 16 17  1  0
 17 15  1  0
 19 14  1  0
 20 21  2  0
 21 22  1  0
 21 40  1  0
 22 25  1  0
 23 20  1  0
 23 24  1  0
 24 22  2  0
 25 26  1  0
 26 27  2  0
 28 31  1  0
 28 27  1  0
 29 28  2  0
 30 29  1  0
 30 25  2  0
 31 32  1  0
 32 33  1  0
 33 34  2  0
 35 34  1  0
 35 39  1  0
 36 35  2  0
 37 32  2  0
 37 36  1  0
 38 37  1  0
 40 41  1  0
 41 44  1  0
 41 43  1  0
 42 40  2  0
 45 47  1  0
 45 46  1  0
 45 20  1  0
 48 49  1  0
 50 48  1  0
 50 51  1  0
 52 54  1  0
 52 51  1  0
 53 64  2  0
 54 59  1  0
 55 63  1  0
 55 65  1  0
 56 62  1  0
 56 58  1  0
 57 63  1  0
 58 57  1  0
 59 58  2  0
 60 54  2  0
 61 60  1  0
 61 56  2  0
 62 55  1  0
 63 53  1  0
 65 67  2  0
 66 65  1  0
 68 66  1  0
 69 78  2  0
 69 74  1  0
 70 66  1  0
 70 74  1  0
 71 70  1  0
 72 73  1  0
 72 71  1  0
 73 69  1  0
 74 75  2  0
 75 76  1  0
 77 76  2  0
 78 77  1  0
 79 53  1  0
 79 80  1  0
 79 89  1  0
 80 83  1  0
 81 85  1  0
 81 80  1  0
 82 81  2  0
 85 84  1  0
 87 85  1  0
 87 88  1  0
 87 86  1  0
 89 92  1  1
 89 90  1  0
 91 89  1  0
M  ISO  4   1 100  17 100  51 101  52 101
M  END
>  <TORSDO>  (7) 
F 18

>  <SCORE>  (7) 
-14.225

>  <name>  (7) 
6

>  <ligand_id>  (7) 
6

>  <original_smiles>  (7) 
[H]c1c([H])c([H])c2c(c1[H])C([H])([H])C([H])([H])C([H])([H])C2([H])N([H])C(=O)C1([H])N(C(=O)C([H])(N([H])C(=O)C([H])(N([H])C([H])([H])[H])C([H])([H])[H])C(C([H])([H])[H])(C([H])([H])[H])C([H])([H])[H])C([H])([H])c2c([H])c(OC([H])([H])C([H])([H])N([H])c3c([H])c([H])c4c(c3F)C([H])([H])N(C(=O)N3C([H])([H])C([H])([H])C([H])([H])C([H])(n5nc(-c6c([H])c([H])c(Oc7c([H])c([H])c(F)c([H])c7F)c([H])c6[H])c(C(=O)N([H])[H])c5N([H])[H])C3([H])[H])C4=O)c([H])c([H])c2C1([H])[H]

>  <smiles>  (7) 
[H]c1c([H])c([H])c2c(c1[H])C([H])([H])C([H])([H])C([H])([H])C2([H])N([H])C(=O)C1([H])N(C(=O)C([H])(N([H])C(=O)C([H])(N([H])C([H])([H])[H])C([H])([H])[H])C(C([H])([H])[H])(C([H])([H])[H])C([H])([H])[H])C([H])([H])c2c([H])c(OC([H])([H])C([H])([H])N([H])c3c([H])c([H])c4c(c3F)C([H])([H])N(C(=O)N3C([H])([H])C([H])([H])C([H])([H])C([H])(n5nc(-c6c([H])c([H])c(Oc7c([H])c([H])c(F)c([H])c7F)c([H])c6[H])c(C(=O)N([H])[H])c5N([H])[H])C3([H])[H])C4=O)c([H])c([H])c2C1([H])[H]

$$$$
7:0:0
     RDKit          3D

 90 98  0  0  1  0  0  0  0  0999 V2000
  -28.2040  -20.4280   20.3340 C   0  0  0  0  0  3  0  0  0  0  0  0
  -30.6360  -19.2160   19.8950 C   0  0  0  0  0  3  0  0  0  0  0  0
  -28.3960  -18.9460   20.3520 C   0  0  0  0  0  0  0  0  0  0  0  0
  -29.2040  -21.4550   20.0940 C   0  0  0  0  0  0  0  0  0  0  0  0
  -29.6350  -18.1850   20.1280 C   0  0  0  0  0  0  0  0  0  0  0  0
  -30.4410  -20.6940   19.8820 C   0  0  0  0  0  0  0  0  0  0  0  0
  -27.1430  -18.1390   20.6380 C   0  0  0  0  0  1  0  0  0  0  0  0
  -31.5550  -21.4320   19.6580 F   0  0  0  0  0  0  0  0  0  0  0  0
  -30.5600  -15.3810   19.8440 C   0  0  0  0  0  0  0  0  0  0  0  0
  -30.5330  -12.9690   18.8810 C   0  0  0  0  0  2  0  0  0  0  0  0
  -29.5200  -12.8120   17.7170 C   0  0  0  0  0  2  0  0  0  0  0  0
  -28.1100  -12.5050   18.2520 C   0  0  0  0  0  2  0  0  0  0  0  0
  -27.7380  -13.4130   19.4510 C   0  0  0  0  0  3  0  0  0  0  0  0
  -28.8670  -13.5110   20.4990 C   0  0  0  0  0  2  0  0  0  0  0  0
  -30.0460  -14.0560   19.8050 N   0  0  0  0  0  0  0  0  0  0  0  0
  -31.7440  -15.4600   19.4830 O   0  0  0  0  0  0  0  0  0  0  0  0
  -29.7170  -16.5620   20.1290 N   0  0  0  0  0  0  0  0  0  0  0  0
  -28.8300  -16.1890   20.4270 H   0  0  0  0  0  0  0  0  0  0  0  0
  -25.4260  -13.9090   20.4070 C   0  0  0  0  0  0  0  0  0  0  0  0
  -24.4040  -13.1060   20.8260 C   0  0  0  0  0  0  0  0  0  0  0  0
  -24.8770  -11.7640   20.6930 C   0  0  0  0  0  0  0  0  0  0  0  0
  -26.4540  -13.0590   20.0430 N   0  0  0  0  0  0  0  0  0  0  0  0
  -26.1400  -11.7590   20.2780 N   0  0  0  0  0  0  0  0  0  0  0  0
  -24.1750  -10.4870   20.8750 C   0  0  0  0  0  0  0  0  0  0  0  0
  -24.5830   -9.5510   21.8500 C   0  0  0  0  0  3  0  0  0  0  0  0
  -23.8780   -8.3420   22.0220 C   0  0  0  0  0  3  0  0  0  0  0  0
  -22.7490   -8.0580   21.2170 C   0  0  0  0  0  0  0  0  0  0  0  0
  -22.3590   -8.9830   20.2310 C   0  0  0  0  0  3  0  0  0  0  0  0
  -23.0670  -10.1840   20.0590 C   0  0  0  0  0  3  0  0  0  0  0  0
  -22.0180   -6.8970   21.2940 O   0  0  0  0  0  0  0  0  0  0  0  0
  -21.7840   -6.2730   22.4930 C   0  0  0  0  0  0  0  0  0  0  0  0
  -21.0920   -6.9130   23.5440 C   0  0  0  0  0  3  0  0  0  0  0  0
  -20.8130   -6.2110   24.7350 C   0  0  0  0  0  3  0  0  0  0  0  0
  -21.2160   -4.8700   24.8710 C   0  0  0  0  0  0  0  0  0  0  0  0
  -21.9000   -4.2280   23.8230 C   0  0  0  0  0  3  0  0  0  0  0  0
  -22.1810   -4.9270   22.6370 C   0  0  0  0  0  0  0  0  0  0  0  0
  -22.8220   -4.2990   21.6220 F   0  0  0  0  0  0  0  0  0  0  0  0
  -20.9420   -4.1920   26.0100 F   0  0  0  0  0  0  0  0  0  0  0  0
  -23.0300  -13.5560   21.2240 C   0  0  0  0  0  0  0  0  0  0  0  0
  -22.3820  -12.8250   22.1250 N   0  0  0  0  0  0  0  0  0  0  0  0
  -22.5410  -14.5920   20.7730 O   0  0  0  0  0  0  0  0  0  0  0  0
  -22.7920  -11.9870   22.5090 H   0  0  0  0  0  0  0  0  0  0  0  0
  -21.4640  -13.1090   22.4360 H   0  0  0  0  0  0  0  0  0  0  0  0
  -25.5570  -15.2870   20.2710 N   0  0  0  0  0  0  0  0  0  0  0  0
  -24.7610  -15.9000   20.4120 H   0  0  0  0  0  0  0  0  0  0  0  0
  -26.3110  -15.7270   19.7610 H   0  0  0  0  0  0  0  0  0  0  0  0
  -29.1280  -23.2090   20.1540 C   0  0  0  0  0  2  0  0  0  0  0  0
  -27.9610  -24.3380   20.1140 N   0  0  0  0  0  0  0  0  0  0  0  0
  -27.3670  -24.1990   20.9270 H   0  0  0  0  0  0  0  0  0  0  0  0
  -28.3200  -25.9950   20.1150 O   0  0  0  0  0  0  0  0  0  0  0  0
  -24.6340  -31.8090   23.2260 C   0  0  0  0  0  0  0  0  0  0  0  0
  -27.2690  -27.0470   20.1190 C   0  0  0  0  0  0  0  0  0  0  0  0
  -23.4720  -30.4510   21.5320 C   0  0  0  0  0  3  0  0  0  0  0  0
  -24.9510  -28.8940   20.0880 C   0  0  0  0  0  0  0  0  0  0  0  0
  -26.0360  -30.6860   21.4280 C   0  0  0  0  0  2  0  0  0  0  0  0
  -26.1230  -29.2940   20.7420 C   0  0  0  0  0  0  0  0  0  0  0  0
  -27.2740  -28.3890   20.7390 C   0  0  0  0  0  3  0  0  0  0  0  0
  -26.0690  -26.7950   19.4170 C   0  0  0  0  0  3  0  0  0  0  0  0
  -24.9460  -27.6650   19.4090 C   0  0  0  0  0  3  0  0  0  0  0  0
  -23.7250  -29.8060   20.1410 C   0  0  0  0  0  2  0  0  0  0  0  0
  -24.7350  -31.0090   22.1170 N   0  0  0  0  0  0  0  0  0  0  0  0
  -23.5360  -32.0760   23.7410 O   0  0  0  0  0  0  0  0  0  0  0  0
  -22.7730  -29.4250   22.4610 C   0  0  0  0  0  0  0  0  0  0  0  0
  -21.4470  -29.2510   22.3100 N   0  0  0  0  0  0  0  0  0  0  0  0
  -23.4300  -28.7850   23.2850 O   0  0  0  0  0  0  0  0  0  0  0  0
  -20.9680  -29.8200   21.6250 H   0  0  0  0  0  0  0  0  0  0  0  0
  -18.0580  -28.0430   22.7770 C   0  0  0  0  0  0  0  0  0  0  0  0
  -20.6200  -28.2870   23.0440 C   0  0  0  0  0  3  0  0  0  0  0  0
  -20.7140  -26.8790   22.4120 C   0  0  0  0  0  2  0  0  0  0  0  0
  -19.6080  -26.6030   21.3880 C   0  0  0  0  0  2  0  0  0  0  0  0
  -18.2280  -26.7240   22.0420 C   0  0  0  0  0  2  0  0  0  0  0  0
  -19.1810  -28.7840   23.2350 C   0  0  0  0  0  0  0  0  0  0  0  0
  -18.9660  -30.0160   23.8870 C   0  0  0  0  0  3  0  0  0  0  0  0
  -17.6610  -30.5100   24.0840 C   0  0  0  0  0  3  0  0  0  0  0  0
  -16.5540  -29.7670   23.6390 C   0  0  0  0  0  3  0  0  0  0  0  0
  -16.7540  -28.5340   22.9930 C   0  0  0  0  0  3  0  0  0  0  0  0
  -25.8930  -32.4400   23.8940 C   0  0  0  0  0  3  0  0  0  0  0  0
  -25.5680  -33.8340   24.2450 N   0  0  0  0  0  0  0  0  0  0  0  0
  -25.8680  -34.9050   23.4990 C   0  0  0  0  0  0  0  0  0  0  0  0
  -26.5100  -34.8250   22.4490 O   0  0  0  0  0  0  0  0  0  0  0  0
  -24.9930  -33.9690   25.0640 H   0  0  0  0  0  0  0  0  0  0  0  0
  -24.0900  -36.6720   23.2560 C   0  0  0  0  0  1  0  0  0  0  0  0
  -25.3810  -36.2840   23.9930 C   0  0  0  0  0  3  0  0  0  0  0  0
  -27.5310  -37.2210   24.7260 C   0  0  0  0  0  1  0  0  0  0  0  0
  -26.3870  -37.3570   23.8270 N   0  0  0  0  0  0  0  0  0  0  0  0
  -25.9690  -38.2710   23.9820 H   0  0  0  0  0  0  0  0  0  0  0  0
  -26.3740  -31.6560   25.1770 C   0  0  1  0  0  0  0  0  0  0  0  0
  -25.2500  -31.4000   26.2080 C   0  0  0  0  0  1  0  0  0  0  0  0
  -26.9760  -30.2860   24.7930 C   0  0  0  0  0  1  0  0  0  0  0  0
  -27.4990  -32.4470   25.8830 C   0  0  0  0  0  1  0  0  0  0  0  0
  1  3  1  0
  2  5  1  0
  3  7  1  0
  4 47  1  0
  4  1  2  0
  5 17  1  0
  5  3  2  0
  6  2  2  0
  6  4  1  0
  8  6  1  0
  9 17  1  0
 10 15  1  0
 11 12  1  0
 11 10  1  0
 13 12  1  0
 13 22  1  0
 13 14  1  0
 15  9  1  0
 15 14  1  0
 16  9  2  0
 17 18  1  0
 19 20  2  0
 20 39  1  0
 21 20  1  0
 21 24  1  0
 22 23  1  0
 22 19  1  0
 23 21  2  0
 24 25  1  0
 25 26  2  0
 27 30  1  0
 27 26  1  0
 28 27  2  0
 29 28  1  0
 29 24  2  0
 30 31  1  0
 31 36  2  0
 31 32  1  0
 32 33  2  0
 33 34  1  0
 34 38  1  0
 35 34  2  0
 36 35  1  0
 37 36  1  0
 39 40  1  0
 40 43  1  0
 40 42  1  0
 41 39  2  0
 44 19  1  0
 44 45  1  0
 46 44  1  0
 48 50  1  0
 48 47  1  0
 48 49  1  0
 50 52  1  0
 51 62  2  0
 52 57  1  0
 53 61  1  0
 53 63  1  0
 54 60  1  0
 54 56  1  0
 55 61  1  0
 56 55  1  0
 57 56  2  0
 58 52  2  0
 59 58  1  0
 59 54  2  0
 60 53  1  0
 61 51  1  0
 63 65  2  0
 64 63  1  0
 66 64  1  0
 67 76  2  0
 67 72  1  0
 68 64  1  0
 68 72  1  0
 69 68  1  0
 70 71  1  0
 70 69  1  0
 71 67  1  0
 72 73  2  0
 73 74  1  0
 75 74  2  0
 76 75  1  0
 77 51  1  0
 77 78  1  0
 77 87  1  0
 78 81  1  0
 79 83  1  0
 79 78  1  0
 80 79  2  0
 83 82  1  0
 85 86  1  0
 85 83  1  0
 85 84  1  0
 87 90  1  1
 87 88  1  0
 89 87  1  0
M  ISO  4   9 100  17 100  48 101  50 101
M  END
>  <TORSDO>  (8) 
F 18

>  <SCORE>  (8) 
-15.127

>  <name>  (8) 
7

>  <ligand_id>  (8) 
7

>  <original_smiles>  (8) 
[H]c1c([H])c([H])c2c(c1[H])C([H])([H])C([H])([H])C([H])([H])C2([H])N([H])C(=O)C1([H])N(C(=O)C([H])(N([H])C(=O)C([H])(N([H])C([H])([H])[H])C([H])([H])[H])C(C([H])([H])[H])(C([H])([H])[H])C([H])([H])[H])C([H])([H])c2c([H])c(ON([H])C([H])([H])c3c([H])c(C([H])([H])[H])c(N([H])C(=O)N4C([H])([H])C([H])([H])C([H])([H])C([H])(n5nc(-c6c([H])c([H])c(Oc7c([H])c([H])c(F)c([H])c7F)c([H])c6[H])c(C(=O)N([H])[H])c5N([H])[H])C4([H])[H])c([H])c3F)c([H])c([H])c2C1([H])[H]

>  <smiles>  (8) 
[H]c1c([H])c([H])c2c(c1[H])C([H])([H])C([H])([H])C([H])([H])C2([H])N([H])C(=O)C1([H])N(C(=O)C([H])(N([H])C(=O)C([H])(N([H])C([H])([H])[H])C([H])([H])[H])C(C([H])([H])[H])(C([H])([H])[H])C([H])([H])[H])C([H])([H])c2c([H])c(ON([H])C([H])([H])c3c([H])c(C([H])([H])[H])c(N([H])C(=O)N4C([H])([H])C([H])([H])C([H])([H])C([H])(n5nc(-c6c([H])c([H])c(Oc7c([H])c([H])c(F)c([H])c7F)c([H])c6[H])c(C(=O)N([H])[H])c5N([H])[H])C4([H])[H])c([H])c3F)c([H])c([H])c2C1([H])[H]

$$$$
8:0:0
     RDKit          3D

 93102  0  0  1  0  0  0  0  0999 V2000
  -29.3520  -24.1090   20.0450 C   0  0  0  0  0  0  0  0  0  0  0  0
  -27.2880  -24.2990   21.1330 C   0  0  0  0  0  2  0  0  0  0  0  0
  -27.7420  -22.8110   21.0530 C   0  0  0  0  0  2  0  0  0  0  0  0
  -28.0940  -25.0290   20.0480 C   0  0  0  0  0  3  0  0  0  0  0  0
  -29.0830  -22.8320   20.4670 N   0  0  0  0  0  0  0  0  0  0  0  0
  -30.4630  -24.5210   19.6960 O   0  0  0  0  0  0  0  0  0  0  0  0
  -28.3040  -26.4920   20.2440 O   0  0  0  0  0  0  0  0  0  0  0  0
  -24.6030  -31.8730   23.3050 C   0  0  0  0  0  0  0  0  0  0  0  0
  -27.1880  -27.3460   20.1860 C   0  0  0  0  0  0  0  0  0  0  0  0
  -23.3890  -30.5040   21.6490 C   0  0  0  0  0  3  0  0  0  0  0  0
  -24.8300  -28.9750   20.1900 C   0  0  0  0  0  0  0  0  0  0  0  0
  -25.9290  -30.8150   21.4610 C   0  0  0  0  0  2  0  0  0  0  0  0
  -26.0000  -29.4450   20.7990 C   0  0  0  0  0  0  0  0  0  0  0  0
  -27.1800  -28.6430   20.7890 C   0  0  0  0  0  3  0  0  0  0  0  0
  -25.9940  -26.9370   19.5420 C   0  0  0  0  0  3  0  0  0  0  0  0
  -24.8310  -27.7270   19.5490 C   0  0  0  0  0  3  0  0  0  0  0  0
  -23.5940  -29.8480   20.2580 C   0  0  0  0  0  2  0  0  0  0  0  0
  -24.6610  -31.0790   22.1960 N   0  0  0  0  0  0  0  0  0  0  0  0
  -23.5210  -32.1510   23.8420 O   0  0  0  0  0  0  0  0  0  0  0  0
  -22.7220  -29.4780   22.5940 C   0  0  0  0  0  0  0  0  0  0  0  0
  -21.3980  -29.2990   22.4570 N   0  0  0  0  0  0  0  0  0  0  0  0
  -23.3980  -28.8450   23.4100 O   0  0  0  0  0  0  0  0  0  0  0  0
  -20.9130  -29.8600   21.7710 H   0  0  0  0  0  0  0  0  0  0  0  0
  -18.0170  -28.1010   22.9200 C   0  0  0  0  0  0  0  0  0  0  0  0
  -20.5730  -28.3550   23.2120 C   0  0  0  0  0  3  0  0  0  0  0  0
  -20.6780  -26.9300   22.6220 C   0  0  0  0  0  2  0  0  0  0  0  0
  -19.5840  -26.6190   21.5970 C   0  0  0  0  0  2  0  0  0  0  0  0
  -18.1980  -26.7590   22.2330 C   0  0  0  0  0  2  0  0  0  0  0  0
  -19.1340  -28.8590   23.3650 C   0  0  0  0  0  0  0  0  0  0  0  0
  -18.9120  -30.1180   23.9660 C   0  0  0  0  0  3  0  0  0  0  0  0
  -17.6060  -30.6160   24.1310 C   0  0  0  0  0  3  0  0  0  0  0  0
  -16.5040  -29.8550   23.7030 C   0  0  0  0  0  3  0  0  0  0  0  0
  -16.7110  -28.6000   23.1030 C   0  0  0  0  0  3  0  0  0  0  0  0
  -25.8890  -32.4880   23.9340 C   0  0  0  0  0  3  0  0  0  0  0  0
  -25.5970  -33.8910   24.2620 N   0  0  0  0  0  0  0  0  0  0  0  0
  -25.9130  -34.9370   23.4870 C   0  0  0  0  0  0  0  0  0  0  0  0
  -26.5540  -34.8220   22.4380 O   0  0  0  0  0  0  0  0  0  0  0  0
  -25.0250  -34.0520   25.0780 H   0  0  0  0  0  0  0  0  0  0  0  0
  -24.1700  -36.7290   23.1860 C   0  0  0  0  0  1  0  0  0  0  0  0
  -25.4450  -36.3330   23.9470 C   0  0  0  0  0  3  0  0  0  0  0  0
  -27.6120  -37.2320   24.6740 C   0  0  0  0  0  1  0  0  0  0  0  0
  -26.4710  -37.3840   23.7760 N   0  0  0  0  0  0  0  0  0  0  0  0
  -26.0700  -38.3060   23.9230 H   0  0  0  0  0  0  0  0  0  0  0  0
  -26.3870  -31.7100   25.2130 C   0  0  1  0  0  0  0  0  0  0  0  0
  -25.2840  -31.4850   26.2750 C   0  0  0  0  0  1  0  0  0  0  0  0
  -26.9530  -30.3250   24.8240 C   0  0  0  0  0  1  0  0  0  0  0  0
  -27.5440  -32.4880   25.8820 C   0  0  0  0  0  1  0  0  0  0  0  0
  -30.1170  -21.7490   20.6900 C   0  0  0  0  0  2  0  0  0  0  0  0
  -28.7150  -19.4570   20.4830 C   0  0  0  0  0  3  0  0  0  0  0  0
  -28.6900  -18.0230   20.4780 C   0  0  0  0  0  3  0  0  0  0  0  0
  -31.0840  -17.9430   20.5980 C   0  0  0  0  0  3  0  0  0  0  0  0
  -29.9360  -20.1780   20.5710 C   0  0  0  0  0  0  0  0  0  0  0  0
  -29.8660  -17.2160   20.5390 C   0  0  0  0  0  0  0  0  0  0  0  0
  -31.1130  -19.3700   20.6150 C   0  0  0  0  0  0  0  0  0  0  0  0
  -32.3190  -19.9820   20.7000 F   0  0  0  0  0  0  0  0  0  0  0  0
  -30.5760  -14.7040   20.2410 C   0  0  0  0  0  0  0  0  0  0  0  0
  -30.3820  -12.4670   19.1590 C   0  0  0  0  0  2  0  0  0  0  0  0
  -29.4210  -12.6110   17.9570 C   0  0  0  0  0  2  0  0  0  0  0  0
  -27.9510  -12.4320   18.3980 C   0  0  0  0  0  2  0  0  0  0  0  0
  -27.6030  -13.2750   19.6530 C   0  0  0  0  0  3  0  0  0  0  0  0
  -28.6780  -13.1080   20.7520 C   0  0  0  0  0  2  0  0  0  0  0  0
  -29.9780  -13.4720   20.1620 N   0  0  0  0  0  0  0  0  0  0  0  0
  -31.7400  -14.8730   19.8600 O   0  0  0  0  0  0  0  0  0  0  0  0
  -29.7450  -15.7480   20.5800 N   0  0  0  0  0  0  0  0  0  0  0  0
  -28.8190  -15.4190   20.8070 H   0  0  0  0  0  0  0  0  0  0  0  0
  -25.2150  -13.8640   20.4060 C   0  0  0  0  0  0  0  0  0  0  0  0
  -24.1580  -13.0860   20.7980 C   0  0  0  0  0  0  0  0  0  0  0  0
  -24.6260  -11.7360   20.7580 C   0  0  0  0  0  0  0  0  0  0  0  0
  -26.2610  -12.9880   20.1560 N   0  0  0  0  0  0  0  0  0  0  0  0
  -25.9130  -11.7050   20.4270 N   0  0  0  0  0  0  0  0  0  0  0  0
  -23.9090  -10.4710   20.9610 C   0  0  0  0  0  0  0  0  0  0  0  0
  -24.3450   -9.5170   21.9070 C   0  0  0  0  0  3  0  0  0  0  0  0
  -23.6280   -8.3140   22.0960 C   0  0  0  0  0  3  0  0  0  0  0  0
  -22.4600   -8.0580   21.3390 C   0  0  0  0  0  0  0  0  0  0  0  0
  -22.0410   -9.0030   20.3870 C   0  0  0  0  0  3  0  0  0  0  0  0
  -22.7570  -10.1970   20.1970 C   0  0  0  0  0  3  0  0  0  0  0  0
  -21.7150   -6.9080   21.4350 O   0  0  0  0  0  0  0  0  0  0  0  0
  -21.6530   -6.1870   22.6010 C   0  0  0  0  0  0  0  0  0  0  0  0
  -21.1730   -6.7520   23.8040 C   0  0  0  0  0  3  0  0  0  0  0  0
  -21.0590   -5.9550   24.9600 C   0  0  0  0  0  3  0  0  0  0  0  0
  -21.4170   -4.5950   24.9160 C   0  0  0  0  0  0  0  0  0  0  0  0
  -21.8900   -4.0290   23.7190 C   0  0  0  0  0  3  0  0  0  0  0  0
  -22.0030   -4.8220   22.5640 C   0  0  0  0  0  0  0  0  0  0  0  0
  -22.4410   -4.2680   21.4080 F   0  0  0  0  0  0  0  0  0  0  0  0
  -21.3010   -3.8280   26.0250 F   0  0  0  0  0  0  0  0  0  0  0  0
  -22.7610  -13.5560   21.0900 C   0  0  0  0  0  0  0  0  0  0  0  0
  -22.0500  -12.8630   21.9720 N   0  0  0  0  0  0  0  0  0  0  0  0
  -22.3090  -14.5740   20.5680 O   0  0  0  0  0  0  0  0  0  0  0  0
  -22.4300  -12.0450   22.4260 H   0  0  0  0  0  0  0  0  0  0  0  0
  -21.1110  -13.1600   22.2010 H   0  0  0  0  0  0  0  0  0  0  0  0
  -25.3700  -15.2330   20.2180 N   0  0  0  0  0  0  0  0  0  0  0  0
  -24.5900  -15.8750   20.3000 H   0  0  0  0  0  0  0  0  0  0  0  0
  -26.1880  -15.6500   19.7920 H   0  0  0  0  0  0  0  0  0  0  0  0
  1  4  1  0
  1  5  1  0
  3  2  1  0
  4  7  1  0
  4  2  1  0
  5 48  1  0
  5  3  1  0
  6  1  2  0
  8 19  2  0
  9  7  1  0
  9 14  1  0
 10 18  1  0
 10 20  1  0
 11 17  1  0
 11 13  1  0
 12 18  1  0
 13 12  1  0
 14 13  2  0
 15 16  1  0
 15  9  2  0
 16 11  2  0
 17 10  1  0
 18  8  1  0
 20 22  2  0
 21 20  1  0
 23 21  1  0
 24 33  2  0
 24 29  1  0
 25 21  1  0
 25 29  1  0
 26 25  1  0
 27 28  1  0
 27 26  1  0
 28 24  1  0
 29 30  2  0
 30 31  1  0
 32 31  2  0
 33 32  1  0
 34  8  1  0
 34 35  1  0
 34 44  1  0
 35 38  1  0
 36 40  1  0
 36 35  1  0
 37 36  2  0
 40 39  1  0
 42 43  1  0
 42 40  1  0
 42 41  1  0
 44 47  1  1
 44 45  1  0
 46 44  1  0
 49 52  1  0
 50 49  2  0
 50 53  1  0
 51 54  1  0
 52 54  2  0
 52 48  1  0
 53 64  1  0
 53 51  2  0
 54 55  1  0
 56 64  1  0
 57 62  1  0
 58 59  1  0
 58 57  1  0
 60 59  1  0
 60 69  1  0
 60 61  1  0
 62 56  1  0
 62 61  1  0
 63 56  2  0
 64 65  1  0
 66 67  2  0
 67 86  1  0
 68 67  1  0
 68 71  1  0
 69 66  1  0
 69 70  1  0
 70 68  2  0
 71 72  1  0
 72 73  2  0
 74 77  1  0
 74 73  1  0
 75 74  2  0
 76 75  1  0
 76 71  2  0
 77 78  1  0
 78 79  1  0
 79 80  2  0
 81 80  1  0
 81 85  1  0
 82 81  2  0
 83 78  2  0
 83 82  1  0
 84 83  1  0
 86 87  1  0
 87 90  1  0
 87 89  1  0
 88 86  2  0
 91 92  1  0
 91 66  1  0
 93 91  1  0
M  ISO  4   4 101   7 101  56 100  64 100
M  END
>  <TORSDO>  (9) 
F 18

>  <SCORE>  (9) 
-14.988

>  <name>  (9) 
8

>  <ligand_id>  (9) 
8

>  <original_smiles>  (9) 
[H]c1c([H])c([H])c2c(c1[H])C([H])([H])C([H])([H])C([H])([H])C2([H])N([H])C(=O)C1([H])N(C(=O)C([H])(N([H])C(=O)C([H])(N([H])C([H])([H])[H])C([H])([H])[H])C(C([H])([H])[H])(C([H])([H])[H])C([H])([H])[H])C([H])([H])c2c([H])c(OC3([H])C(=O)N(C([H])([H])c4c([H])c([H])c(N([H])C(=O)N5C([H])([H])C([H])([H])C([H])([H])C([H])(n6nc(-c7c([H])c([H])c(Oc8c([H])c([H])c(F)c([H])c8F)c([H])c7[H])c(C(=O)N([H])[H])c6N([H])[H])C5([H])[H])c([H])c4F)C([H])([H])C3([H])[H])c([H])c([H])c2C1([H])[H]

>  <smiles>  (9) 
[H]c1c([H])c([H])c2c(c1[H])C([H])([H])C([H])([H])C([H])([H])C2([H])N([H])C(=O)C1([H])N(C(=O)C([H])(N([H])C(=O)C([H])(N([H])C([H])([H])[H])C([H])([H])[H])C(C([H])([H])[H])(C([H])([H])[H])C([H])([H])[H])C([H])([H])c2c([H])c(OC3([H])C(=O)N(C([H])([H])c4c([H])c([H])c(N([H])C(=O)N5C([H])([H])C([H])([H])C([H])([H])C([H])(n6nc(-c7c([H])c([H])c(Oc8c([H])c([H])c(F)c([H])c8F)c([H])c7[H])c(C(=O)N([H])[H])c6N([H])[H])C5([H])[H])c([H])c4F)C([H])([H])C3([H])[H])c([H])c([H])c2C1([H])[H]

$$$$
9:0:0
     RDKit          3D

 92101  0  0  1  0  0  0  0  0999 V2000
  -28.9990  -20.7950   20.6020 C   0  0  0  0  0  3  0  0  0  0  0  0
  -31.0170  -19.8950   21.6300 C   0  0  0  0  0  3  0  0  0  0  0  0
  -30.5340  -22.3440   21.6130 C   0  0  0  0  0  3  0  0  0  0  0  0
  -29.8420  -19.5870   20.9170 C   0  0  0  0  0  0  0  0  0  0  0  0
  -29.2970  -22.2210   20.9360 C   0  0  0  0  0  0  0  0  0  0  0  0
  -31.3510  -21.2340   21.9530 C   0  0  0  0  0  0  0  0  0  0  0  0
  -32.5140  -21.4680   22.6100 F   0  0  0  0  0  0  0  0  0  0  0  0
  -30.6290  -15.3350   20.8970 C   0  0  0  0  0  0  0  0  0  0  0  0
  -30.7270  -12.8660   20.2020 C   0  0  0  0  0  2  0  0  0  0  0  0
  -29.9280  -12.5640   18.9080 C   0  0  0  0  0  2  0  0  0  0  0  0
  -28.4220  -12.3720   19.2010 C   0  0  0  0  0  2  0  0  0  0  0  0
  -27.8530  -13.3550   20.2590 C   0  0  0  0  0  3  0  0  0  0  0  0
  -28.8060  -13.5680   21.4560 C   0  0  0  0  0  2  0  0  0  0  0  0
  -30.1000  -14.0230   20.9140 N   0  0  0  0  0  0  0  0  0  0  0  0
  -31.8650  -15.4050   20.9560 O   0  0  0  0  0  0  0  0  0  0  0  0
  -29.9450  -17.0000   18.1020 C   0  0  0  0  0  2  0  0  0  0  0  0
  -30.1700  -18.3110   18.7950 C   0  0  0  0  0  2  0  0  0  0  0  0
  -29.2420  -16.1530   19.1560 C   0  0  0  0  0  2  0  0  0  0  0  0
  -29.6730  -18.0930   20.2210 C   0  0  0  0  0  3  0  0  0  0  0  0
  -29.8010  -16.4740   20.4960 N   0  0  0  0  0  0  0  0  0  0  0  0
  -25.4190  -13.9320   20.7760 C   0  0  0  0  0  0  0  0  0  0  0  0
  -24.3320  -13.1500   21.0500 C   0  0  0  0  0  0  0  0  0  0  0  0
  -24.8130  -11.8050   21.0830 C   0  0  0  0  0  0  0  0  0  0  0  0
  -26.4870  -13.0550   20.6520 N   0  0  0  0  0  0  0  0  0  0  0  0
  -26.1270  -11.7750   20.9040 N   0  0  0  0  0  0  0  0  0  0  0  0
  -24.0910  -10.5370   21.2150 C   0  0  0  0  0  0  0  0  0  0  0  0
  -24.4490   -9.5870   22.1950 C   0  0  0  0  0  3  0  0  0  0  0  0
  -23.7280   -8.3810   22.3170 C   0  0  0  0  0  3  0  0  0  0  0  0
  -22.6350   -8.1180   21.4580 C   0  0  0  0  0  0  0  0  0  0  0  0
  -22.2990   -9.0560   20.4660 C   0  0  0  0  0  3  0  0  0  0  0  0
  -23.0210  -10.2550   20.3430 C   0  0  0  0  0  3  0  0  0  0  0  0
  -21.8910   -6.9650   21.4890 O   0  0  0  0  0  0  0  0  0  0  0  0
  -21.7390   -6.2370   22.6430 C   0  0  0  0  0  0  0  0  0  0  0  0
  -21.1390   -6.7880   23.7960 C   0  0  0  0  0  3  0  0  0  0  0  0
  -20.9430   -5.9850   24.9380 C   0  0  0  0  0  3  0  0  0  0  0  0
  -21.3320   -4.6330   24.9240 C   0  0  0  0  0  0  0  0  0  0  0  0
  -21.9240   -4.0820   23.7730 C   0  0  0  0  0  3  0  0  0  0  0  0
  -22.1250   -4.8830   22.6360 C   0  0  0  0  0  0  0  0  0  0  0  0
  -22.6770   -4.3420   21.5230 F   0  0  0  0  0  0  0  0  0  0  0  0
  -21.1350   -3.8580   26.0160 F   0  0  0  0  0  0  0  0  0  0  0  0
  -22.9110  -13.6150   21.1780 C   0  0  0  0  0  0  0  0  0  0  0  0
  -22.1110  -12.9190   21.9800 N   0  0  0  0  0  0  0  0  0  0  0  0
  -22.5130  -14.6260   20.6020 O   0  0  0  0  0  0  0  0  0  0  0  0
  -22.4470  -12.1040   22.4700 H   0  0  0  0  0  0  0  0  0  0  0  0
  -21.1520  -13.2100   22.1030 H   0  0  0  0  0  0  0  0  0  0  0  0
  -25.5860  -15.3030   20.6000 N   0  0  0  0  0  0  0  0  0  0  0  0
  -24.8110  -15.9550   20.6340 H   0  0  0  0  0  0  0  0  0  0  0  0
  -26.4720  -15.7500   20.4070 H   0  0  0  0  0  0  0  0  0  0  0  0
  -28.3550  -23.6100   20.8670 C   0  0  0  0  0  2  0  0  0  0  0  0
  -28.3590  -24.8100   19.8550 N   0  0  0  0  0  0  0  0  0  0  0  0
  -27.4970  -24.7440   19.3220 H   0  0  0  0  0  0  0  0  0  0  0  0
  -28.3660  -26.3220   20.4200 O   0  0  0  0  0  0  0  0  0  0  0  0
  -24.5380  -31.9280   23.2460 C   0  0  0  0  0  0  0  0  0  0  0  0
  -27.2660  -27.2580   20.2470 C   0  0  0  0  0  0  0  0  0  0  0  0
  -23.3840  -30.5080   21.5900 C   0  0  0  0  0  3  0  0  0  0  0  0
  -24.8840  -28.9570   20.1740 C   0  0  0  0  0  0  0  0  0  0  0  0
  -25.9310  -30.8250   21.4530 C   0  0  0  0  0  2  0  0  0  0  0  0
  -26.0410  -29.4310   20.8010 C   0  0  0  0  0  0  0  0  0  0  0  0
  -27.2220  -28.5950   20.8220 C   0  0  0  0  0  3  0  0  0  0  0  0
  -26.0830  -26.8880   19.5660 C   0  0  0  0  0  3  0  0  0  0  0  0
  -24.9190  -27.7000   19.5420 C   0  0  0  0  0  3  0  0  0  0  0  0
  -23.6340  -29.8280   20.2140 C   0  0  0  0  0  2  0  0  0  0  0  0
  -24.6360  -31.1100   22.1520 N   0  0  0  0  0  0  0  0  0  0  0  0
  -23.4410  -32.1900   23.7650 O   0  0  0  0  0  0  0  0  0  0  0  0
  -22.7150  -29.4910   22.5480 C   0  0  0  0  0  0  0  0  0  0  0  0
  -21.3910  -29.2960   22.4090 N   0  0  0  0  0  0  0  0  0  0  0  0
  -23.3890  -28.8820   23.3820 O   0  0  0  0  0  0  0  0  0  0  0  0
  -20.9010  -29.8390   21.7120 H   0  0  0  0  0  0  0  0  0  0  0  0
  -18.0250  -28.0510   22.9070 C   0  0  0  0  0  0  0  0  0  0  0  0
  -20.5820  -28.3390   23.1700 C   0  0  0  0  0  3  0  0  0  0  0  0
  -20.6980  -26.9160   22.5770 C   0  0  0  0  0  2  0  0  0  0  0  0
  -19.5970  -26.5940   21.5620 C   0  0  0  0  0  2  0  0  0  0  0  0
  -18.2150  -26.7140   22.2110 C   0  0  0  0  0  2  0  0  0  0  0  0
  -19.1370  -28.8210   23.3440 C   0  0  0  0  0  0  0  0  0  0  0  0
  -18.9030  -30.0700   23.9570 C   0  0  0  0  0  3  0  0  0  0  0  0
  -17.5930  -30.5520   24.1370 C   0  0  0  0  0  3  0  0  0  0  0  0
  -16.4970  -29.7800   23.7160 C   0  0  0  0  0  3  0  0  0  0  0  0
  -16.7130  -28.5310   23.1060 C   0  0  0  0  0  3  0  0  0  0  0  0
  -25.7970  -32.5870   23.8880 C   0  0  0  0  0  3  0  0  0  0  0  0
  -25.4670  -33.9920   24.1830 N   0  0  0  0  0  0  0  0  0  0  0  0
  -25.8330  -35.0380   23.4310 C   0  0  0  0  0  0  0  0  0  0  0  0
  -26.5470  -34.9220   22.4320 O   0  0  0  0  0  0  0  0  0  0  0  0
  -24.8350  -34.1550   24.9530 H   0  0  0  0  0  0  0  0  0  0  0  0
  -24.1420  -36.8420   22.9640 C   0  0  0  0  0  1  0  0  0  0  0  0
  -25.3270  -36.4330   23.8510 C   0  0  0  0  0  3  0  0  0  0  0  0
  -27.4060  -37.3170   24.8150 C   0  0  0  0  0  1  0  0  0  0  0  0
  -26.3720  -37.4790   23.7970 N   0  0  0  0  0  0  0  0  0  0  0  0
  -25.9630  -38.4030   23.9020 H   0  0  0  0  0  0  0  0  0  0  0  0
  -26.2820  -31.8510   25.1980 C   0  0  1  0  0  0  0  0  0  0  0  0
  -25.1610  -31.6310   26.2400 C   0  0  0  0  0  1  0  0  0  0  0  0
  -26.8890  -30.4690   24.8640 C   0  0  0  0  0  1  0  0  0  0  0  0
  -27.4060  -32.6720   25.8730 C   0  0  0  0  0  1  0  0  0  0  0  0
  1  4  2  0
  1  5  1  0
  2  6  2  0
  3  6  1  0
  4  2  1  0
  5  3  2  0
  6  7  1  0
  8 14  1  0
  8 15  2  0
  9 14  1  0
 10 11  1  0
 10  9  1  0
 12 11  1  0
 12 24  1  0
 12 13  1  0
 14 13  1  0
 16 17  1  0
 16 18  1  0
 17 19  1  0
 18 20  1  0
 19 20  1  0
 19  4  1  0
 20  8  1  0
 21 22  2  0
 22 23  1  0
 22 41  1  0
 23 26  1  0
 24 21  1  0
 24 25  1  0
 25 23  2  0
 26 27  1  0
 27 28  2  0
 29 32  1  0
 29 28  1  0
 30 29  2  0
 31 30  1  0
 31 26  2  0
 32 33  1  0
 33 34  1  0
 34 35  2  0
 36 35  1  0
 36 40  1  0
 37 36  2  0
 38 33  2  0
 38 37  1  0
 39 38  1  0
 41 42  1  0
 42 45  1  0
 42 44  1  0
 43 41  2  0
 46 47  1  0
 46 21  1  0
 48 46  1  0
 49  5  1  0
 50 52  1  0
 50 49  1  0
 51 50  1  0
 53 64  2  0
 54 52  1  0
 54 59  1  0
 55 63  1  0
 55 65  1  0
 56 62  1  0
 56 58  1  0
 57 63  1  0
 58 59  2  0
 58 57  1  0
 60 54  2  0
 61 60  1  0
 61 56  2  0
 62 55  1  0
 63 53  1  0
 65 67  2  0
 66 65  1  0
 68 66  1  0
 69 78  2  0
 69 74  1  0
 70 66  1  0
 70 74  1  0
 71 70  1  0
 72 73  1  0
 72 71  1  0
 73 69  1  0
 74 75  2  0
 75 76  1  0
 77 76  2  0
 78 77  1  0
 79 53  1  0
 79 80  1  0
 79 89  1  0
 80 83  1  0
 81 85  1  0
 81 80  1  0
 82 81  2  0
 85 84  1  0
 87 85  1  0
 87 88  1  0
 87 86  1  0
 89 92  1  1
 89 90  1  0
 91 89  1  0
M  ISO  4   8 100  20 100  50 101  52 101
M  END
>  <TORSDO>  (10) 
F 18

>  <SCORE>  (10) 
-14.117

>  <name>  (10) 
9

>  <ligand_id>  (10) 
9

>  <original_smiles>  (10) 
[H]c1c([H])c([H])c2c(c1[H])C([H])([H])C([H])([H])C([H])([H])C2([H])N([H])C(=O)C1([H])N(C(=O)C([H])(N([H])C(=O)C([H])(N([H])C([H])([H])[H])C([H])([H])[H])C(C([H])([H])[H])(C([H])([H])[H])C([H])([H])[H])C([H])([H])c2c([H])c(ON([H])C([H])([H])c3c([H])c(F)c([H])c(C4([H])N(C(=O)N5C([H])([H])C([H])([H])C([H])([H])C([H])(n6nc(-c7c([H])c([H])c(Oc8c([H])c([H])c(F)c([H])c8F)c([H])c7[H])c(C(=O)N([H])[H])c6N([H])[H])C5([H])[H])C([H])([H])C([H])([H])C4([H])[H])c3[H])c([H])c([H])c2C1([H])[H]

>  <smiles>  (10) 
[H]c1c([H])c([H])c2c(c1[H])C([H])([H])C([H])([H])C([H])([H])C2([H])N([H])C(=O)C1([H])N(C(=O)C([H])(N([H])C(=O)C([H])(N([H])C([H])([H])[H])C([H])([H])[H])C(C([H])([H])[H])(C([H])([H])[H])C([H])([H])[H])C([H])([H])c2c([H])c(ON([H])C([H])([H])c3c([H])c(F)c([H])c(C4([H])N(C(=O)N5C([H])([H])C([H])([H])C([H])([H])C([H])(n6nc(-c7c([H])c([H])c(Oc8c([H])c([H])c(F)c([H])c8F)c([H])c7[H])c(C(=O)N([H])[H])c6N([H])[H])C5([H])[H])C([H])([H])C([H])([H])C4([H])[H])c3[H])c([H])c([H])c2C1([H])[H]

$$$$
10:0:0
     RDKit          3D

 94103  0  0  1  0  0  0  0  0999 V2000
  -27.1710  -23.4850   20.5960 C   0  0  0  0  0  2  0  0  0  0  0  0
  -27.5020  -21.9740   20.5530 C   0  0  0  0  0  2  0  0  0  0  0  0
  -29.5260  -23.1760   20.8240 C   0  0  0  0  0  2  0  0  0  0  0  0
  -28.4940  -24.2250   20.3420 C   0  0  0  0  0  3  0  0  0  0  0  0
  -28.9750  -21.8500   20.4370 N   0  0  1  0  0  4  0  0  0  0  0  0
  -29.1660  -21.7420   19.4490 H   0  0  0  0  0  0  0  0  0  0  0  0
  -29.6020  -20.6450   21.0810 C   0  0  0  0  0  2  0  0  0  0  0  0
  -29.2790  -16.8150   18.9550 C   0  0  0  0  0  3  0  0  0  0  0  0
  -29.0290  -18.0230   18.2800 C   0  0  0  0  0  3  0  0  0  0  0  0
  -29.7280  -18.0650   21.0000 C   0  0  0  0  0  3  0  0  0  0  0  0
  -29.4700  -19.2990   20.3280 C   0  0  0  0  0  0  0  0  0  0  0  0
  -29.6640  -16.8190   20.3130 C   0  0  0  0  0  0  0  0  0  0  0  0
  -29.1470  -19.2560   18.9510 C   0  0  0  0  0  0  0  0  0  0  0  0
  -28.9500  -20.4000   18.2520 F   0  0  0  0  0  0  0  0  0  0  0  0
  -30.6380  -14.5590   20.4850 C   0  0  0  0  0  0  0  0  0  0  0  0
  -30.4140  -12.3780   19.3670 C   0  0  0  0  0  2  0  0  0  0  0  0
  -29.4940  -12.5690   18.1410 C   0  0  0  0  0  2  0  0  0  0  0  0
  -28.0060  -12.4410   18.5340 C   0  0  0  0  0  2  0  0  0  0  0  0
  -27.6450  -13.2770   19.7910 C   0  0  0  0  0  3  0  0  0  0  0  0
  -28.6740  -13.0400   20.9200 C   0  0  0  0  0  2  0  0  0  0  0  0
  -30.0100  -13.3550   20.3900 N   0  0  0  0  0  0  0  0  0  0  0  0
  -31.7680  -14.7610   20.0280 O   0  0  0  0  0  0  0  0  0  0  0  0
  -29.8880  -15.5700   20.9820 N   0  0  0  0  0  0  0  0  0  0  0  0
  -29.1020  -15.2490   21.5260 H   0  0  0  0  0  0  0  0  0  0  0  0
  -25.2360  -13.9080   20.4460 C   0  0  0  0  0  0  0  0  0  0  0  0
  -24.1580  -13.1470   20.8100 C   0  0  0  0  0  0  0  0  0  0  0  0
  -24.6140  -11.7920   20.8070 C   0  0  0  0  0  0  0  0  0  0  0  0
  -26.2800  -13.0180   20.2440 N   0  0  0  0  0  0  0  0  0  0  0  0
  -25.9090  -11.7410   20.5150 N   0  0  0  0  0  0  0  0  0  0  0  0
  -23.8820  -10.5360   21.0070 C   0  0  0  0  0  0  0  0  0  0  0  0
  -24.3050   -9.5760   21.9530 C   0  0  0  0  0  3  0  0  0  0  0  0
  -23.5740   -8.3820   22.1370 C   0  0  0  0  0  3  0  0  0  0  0  0
  -22.4060   -8.1400   21.3770 C   0  0  0  0  0  0  0  0  0  0  0  0
  -22.0020   -9.0890   20.4200 C   0  0  0  0  0  3  0  0  0  0  0  0
  -22.7330  -10.2750   20.2330 C   0  0  0  0  0  3  0  0  0  0  0  0
  -21.6490   -6.9990   21.4700 O   0  0  0  0  0  0  0  0  0  0  0  0
  -21.5950   -6.2620   22.6260 C   0  0  0  0  0  0  0  0  0  0  0  0
  -21.1710   -6.8260   23.8490 C   0  0  0  0  0  3  0  0  0  0  0  0
  -21.0620   -6.0150   24.9960 C   0  0  0  0  0  3  0  0  0  0  0  0
  -21.3680   -4.6430   24.9220 C   0  0  0  0  0  0  0  0  0  0  0  0
  -21.7840   -4.0800   23.7030 C   0  0  0  0  0  3  0  0  0  0  0  0
  -21.8930   -4.8860   22.5570 C   0  0  0  0  0  0  0  0  0  0  0  0
  -22.2740   -4.3330   21.3810 F   0  0  0  0  0  0  0  0  0  0  0  0
  -21.2570   -3.8630   26.0220 F   0  0  0  0  0  0  0  0  0  0  0  0
  -22.7580  -13.6310   21.0550 C   0  0  0  0  0  0  0  0  0  0  0  0
  -22.0140  -12.9490   21.9180 N   0  0  0  0  0  0  0  0  0  0  0  0
  -22.3300  -14.6500   20.5140 O   0  0  0  0  0  0  0  0  0  0  0  0
  -22.3680  -12.1200   22.3730 H   0  0  0  0  0  0  0  0  0  0  0  0
  -21.0740  -13.2570   22.1250 H   0  0  0  0  0  0  0  0  0  0  0  0
  -25.4160  -15.2760   20.2530 N   0  0  0  0  0  0  0  0  0  0  0  0
  -24.6630  -15.9470   20.3590 H   0  0  0  0  0  0  0  0  0  0  0  0
  -26.2770  -15.6980   19.9260 H   0  0  0  0  0  0  0  0  0  0  0  0
  -28.5940  -25.6420   20.9980 C   0  0  0  0  0  2  0  0  0  0  0  0
  -28.4120  -26.7510   20.0940 O   0  0  0  0  0  0  0  0  0  0  0  0
  -24.5850  -31.9160   23.2440 C   0  0  0  0  0  0  0  0  0  0  0  0
  -27.2340  -27.4650   20.1770 C   0  0  0  0  0  0  0  0  0  0  0  0
  -23.3790  -30.5140   21.6010 C   0  0  0  0  0  3  0  0  0  0  0  0
  -24.8350  -28.9690   20.1850 C   0  0  0  0  0  0  0  0  0  0  0  0
  -25.9040  -30.8740   21.4020 C   0  0  0  0  0  2  0  0  0  0  0  0
  -25.9920  -29.4960   20.7710 C   0  0  0  0  0  0  0  0  0  0  0  0
  -27.1970  -28.7530   20.7630 C   0  0  0  0  0  3  0  0  0  0  0  0
  -26.0620  -26.9490   19.5880 C   0  0  0  0  0  3  0  0  0  0  0  0
  -24.8630  -27.6930   19.5920 C   0  0  0  0  0  3  0  0  0  0  0  0
  -23.5950  -29.8360   20.2200 C   0  0  0  0  0  2  0  0  0  0  0  0
  -24.6410  -31.1180   22.1410 N   0  0  0  0  0  0  0  0  0  0  0  0
  -23.5060  -32.1850   23.7880 O   0  0  0  0  0  0  0  0  0  0  0  0
  -22.7300  -29.4910   22.5630 C   0  0  0  0  0  0  0  0  0  0  0  0
  -21.4050  -29.3030   22.4380 N   0  0  0  0  0  0  0  0  0  0  0  0
  -23.4160  -28.8710   23.3800 O   0  0  0  0  0  0  0  0  0  0  0  0
  -20.9120  -29.8470   21.7450 H   0  0  0  0  0  0  0  0  0  0  0  0
  -18.0410  -28.0940   22.9470 C   0  0  0  0  0  0  0  0  0  0  0  0
  -20.5970  -28.3660   23.2190 C   0  0  0  0  0  3  0  0  0  0  0  0
  -20.7080  -26.9340   22.6500 C   0  0  0  0  0  2  0  0  0  0  0  0
  -19.6120  -26.6060   21.6320 C   0  0  0  0  0  2  0  0  0  0  0  0
  -18.2300  -26.7420   22.2780 C   0  0  0  0  0  2  0  0  0  0  0  0
  -19.1550  -28.8600   23.3820 C   0  0  0  0  0  0  0  0  0  0  0  0
  -18.9280  -30.1220   23.9760 C   0  0  0  0  0  3  0  0  0  0  0  0
  -17.6210  -30.6180   24.1330 C   0  0  0  0  0  3  0  0  0  0  0  0
  -16.5220  -29.8530   23.7070 C   0  0  0  0  0  3  0  0  0  0  0  0
  -16.7320  -28.5900   23.1230 C   0  0  0  0  0  3  0  0  0  0  0  0
  -25.8730  -32.5490   23.8600 C   0  0  0  0  0  3  0  0  0  0  0  0
  -26.3950  -31.7810   25.1360 C   0  0  1  0  0  0  0  0  0  0  0  0
  -25.3040  -31.5490   26.2060 C   0  0  0  0  0  1  0  0  0  0  0  0
  -26.9750  -30.4010   24.7440 C   0  0  0  0  0  1  0  0  0  0  0  0
  -27.5480  -32.5780   25.7900 C   0  0  0  0  0  1  0  0  0  0  0  0
  -25.5640  -33.9480   24.1800 N   0  0  0  0  0  0  0  0  0  0  0  0
  -25.9030  -34.9980   23.4180 C   0  0  0  0  0  0  0  0  0  0  0  0
  -26.5780  -34.8890   22.3910 O   0  0  0  0  0  0  0  0  0  0  0  0
  -24.9590  -34.1060   24.9730 H   0  0  0  0  0  0  0  0  0  0  0  0
  -24.1820  -36.7940   23.0450 C   0  0  0  0  0  1  0  0  0  0  0  0
  -25.4160  -36.3880   23.8660 C   0  0  0  0  0  3  0  0  0  0  0  0
  -27.5470  -37.2700   24.7070 C   0  0  0  0  0  1  0  0  0  0  0  0
  -26.4500  -37.4380   23.7560 N   0  0  0  0  0  0  0  0  0  0  0  0
  -26.0460  -38.3590   23.8980 H   0  0  0  0  0  0  0  0  0  0  0  0
  2  1  1  0
  4  1  1  0
  4  3  1  0
  4 53  1  0
  5  2  1  0
  5  3  1  0
  5  7  1  0
  5  6  1  6
  8 12  1  0
  9 13  1  0
  9  8  2  0
 11 10  1  0
 11  7  1  0
 12 23  1  0
 12 10  2  0
 13 11  2  0
 14 13  1  0
 15 23  1  0
 16 21  1  0
 17 18  1  0
 17 16  1  0
 19 18  1  0
 19 28  1  0
 19 20  1  0
 21 15  1  0
 21 20  1  0
 22 15  2  0
 23 24  1  0
 25 26  2  0
 26 45  1  0
 27 26  1  0
 27 30  1  0
 28 25  1  0
 28 29  1  0
 29 27  2  0
 30 31  1  0
 31 32  2  0
 33 36  1  0
 33 32  1  0
 34 33  2  0
 35 34  1  0
 35 30  2  0
 36 37  1  0
 37 38  1  0
 38 39  2  0
 40 39  1  0
 40 44  1  0
 41 40  2  0
 42 37  2  0
 42 41  1  0
 43 42  1  0
 45 46  1  0
 46 49  1  0
 46 48  1  0
 47 45  2  0
 50 51  1  0
 50 25  1  0
 52 50  1  0
 54 56  1  0
 54 53  1  0
 55 66  2  0
 56 61  1  0
 57 65  1  0
 57 67  1  0
 58 64  1  0
 58 60  1  0
 59 65  1  0
 60 59  1  0
 61 60  2  0
 62 63  1  0
 62 56  2  0
 63 58  2  0
 64 57  1  0
 65 55  1  0
 67 69  2  0
 68 67  1  0
 70 68  1  0
 71 80  2  0
 71 76  1  0
 72 68  1  0
 72 76  1  0
 73 72  1  0
 74 75  1  0
 74 73  1  0
 75 71  1  0
 76 77  2  0
 77 78  1  0
 79 78  2  0
 80 79  1  0
 81 55  1  0
 81 86  1  0
 81 82  1  0
 82 85  1  1
 82 83  1  0
 84 82  1  0
 86 89  1  0
 87 91  1  0
 87 86  1  0
 88 87  2  0
 91 90  1  0
 93 91  1  0
 93 94  1  0
 93 92  1  0
M  ISO  4  15 100  23 100  53 101  54 101
M  END
>  <TORSDO>  (11) 
F 19

>  <SCORE>  (11) 
-14.370

>  <name>  (11) 
10

>  <ligand_id>  (11) 
10

>  <original_smiles>  (11) 
[H]c1c([H])c([H])c2c(c1[H])C([H])([H])C([H])([H])C([H])([H])C2([H])N([H])C(=O)C1([H])N(C(=O)C([H])(N([H])C(=O)C([H])(N([H])C([H])([H])[H])C([H])([H])[H])C(C([H])([H])[H])(C([H])([H])[H])C([H])([H])[H])C([H])([H])c2c([H])c(OC([H])([H])C3([H])C([H])([H])C([H])([H])[N+]([H])(C([H])([H])c4c([H])c(N([H])C(=O)N5C([H])([H])C([H])([H])C([H])([H])C([H])(n6nc(-c7c([H])c([H])c(Oc8c([H])c([H])c(F)c([H])c8F)c([H])c7[H])c(C(=O)N([H])[H])c6N([H])[H])C5([H])[H])c([H])c([H])c4F)C3([H])[H])c([H])c([H])c2C1([H])[H]

>  <smiles>  (11) 
[H]c1c([H])c([H])c2c(c1[H])C([H])([H])C([H])([H])C([H])([H])C2([H])N([H])C(=O)C1([H])N(C(=O)C([H])(N([H])C(=O)C([H])(N([H])C([H])([H])[H])C([H])([H])[H])C(C([H])([H])[H])(C([H])([H])[H])C([H])([H])[H])C([H])([H])c2c([H])c(OC([H])([H])C3([H])C([H])([H])C([H])([H])[N+]([H])(C([H])([H])c4c([H])c(N([H])C(=O)N5C([H])([H])C([H])([H])C([H])([H])C([H])(n6nc(-c7c([H])c([H])c(Oc8c([H])c([H])c(F)c([H])c8F)c([H])c7[H])c(C(=O)N([H])[H])c6N([H])[H])C5([H])[H])c([H])c([H])c4F)C3([H])[H])c([H])c([H])c2C1([H])[H]

$$$$
11:0:0
     RDKit          3D

 89 97  0  0  1  0  0  0  0  0999 V2000
  -30.6180  -18.5840   20.2340 C   0  0  0  0  0  3  0  0  0  0  0  0
  -30.3220  -20.0210   20.1180 C   0  0  0  0  0  3  0  0  0  0  0  0
  -28.3230  -18.1100   19.9970 C   0  0  0  0  0  3  0  0  0  0  0  0
  -29.6220  -17.5390   20.1790 C   0  0  0  0  0  0  0  0  0  0  0  0
  -28.9990  -20.5680   19.9200 C   0  0  0  0  0  0  0  0  0  0  0  0
  -28.0300  -19.5160   19.8660 C   0  0  0  0  0  0  0  0  0  0  0  0
  -26.7350  -19.8670   19.6790 F   0  0  0  0  0  0  0  0  0  0  0  0
  -30.5800  -14.9230   20.0660 C   0  0  0  0  0  0  0  0  0  0  0  0
  -30.4510  -12.5660   19.1460 C   0  0  0  0  0  2  0  0  0  0  0  0
  -29.4680  -12.5400   17.9490 C   0  0  0  0  0  2  0  0  0  0  0  0
  -28.0140  -12.3550   18.4280 C   0  0  0  0  0  2  0  0  0  0  0  0
  -27.6620  -13.2860   19.6170 C   0  0  0  0  0  3  0  0  0  0  0  0
  -28.7540  -13.2570   20.7090 C   0  0  0  0  0  2  0  0  0  0  0  0
  -30.0190  -13.6500   20.0680 N   0  0  0  0  0  0  0  0  0  0  0  0
  -31.7560  -15.0460   19.7010 O   0  0  0  0  0  0  0  0  0  0  0  0
  -29.7160  -16.0150   20.3160 N   0  0  0  0  0  0  0  0  0  0  0  0
  -28.8300  -15.6250   20.5980 H   0  0  0  0  0  0  0  0  0  0  0  0
  -25.3230  -13.9140   20.4530 C   0  0  0  0  0  0  0  0  0  0  0  0
  -24.2550  -13.1600   20.8530 C   0  0  0  0  0  0  0  0  0  0  0  0
  -24.6820  -11.7990   20.7750 C   0  0  0  0  0  0  0  0  0  0  0  0
  -26.3340  -13.0150   20.1560 N   0  0  0  0  0  0  0  0  0  0  0  0
  -25.9580  -11.7360   20.4130 N   0  0  0  0  0  0  0  0  0  0  0  0
  -23.9310  -10.5510   20.9660 C   0  0  0  0  0  0  0  0  0  0  0  0
  -24.3600   -9.5610   21.8760 C   0  0  0  0  0  3  0  0  0  0  0  0
  -23.6090   -8.3800   22.0560 C   0  0  0  0  0  3  0  0  0  0  0  0
  -22.4150   -8.1800   21.3260 C   0  0  0  0  0  0  0  0  0  0  0  0
  -22.0020   -9.1580   20.4040 C   0  0  0  0  0  3  0  0  0  0  0  0
  -22.7540  -10.3310   20.2210 C   0  0  0  0  0  3  0  0  0  0  0  0
  -21.6350   -7.0520   21.4170 O   0  0  0  0  0  0  0  0  0  0  0  0
  -21.5790   -6.3060   22.5670 C   0  0  0  0  0  0  0  0  0  0  0  0
  -21.1440   -6.8560   23.7920 C   0  0  0  0  0  3  0  0  0  0  0  0
  -21.0370   -6.0370   24.9340 C   0  0  0  0  0  3  0  0  0  0  0  0
  -21.3540   -4.6680   24.8510 C   0  0  0  0  0  0  0  0  0  0  0  0
  -21.7830   -4.1170   23.6300 C   0  0  0  0  0  3  0  0  0  0  0  0
  -21.8920   -4.9330   22.4910 C   0  0  0  0  0  0  0  0  0  0  0  0
  -22.2850   -4.3930   21.3120 F   0  0  0  0  0  0  0  0  0  0  0  0
  -21.2440   -3.8790   25.9450 F   0  0  0  0  0  0  0  0  0  0  0  0
  -22.8820  -13.6670   21.1860 C   0  0  0  0  0  0  0  0  0  0  0  0
  -22.1720  -12.9770   22.0720 N   0  0  0  0  0  0  0  0  0  0  0  0
  -22.4480  -14.7080   20.6950 O   0  0  0  0  0  0  0  0  0  0  0  0
  -22.5360  -12.1340   22.4910 H   0  0  0  0  0  0  0  0  0  0  0  0
  -21.2520  -13.2980   22.3390 H   0  0  0  0  0  0  0  0  0  0  0  0
  -25.5110  -15.2840   20.2900 N   0  0  0  0  0  0  0  0  0  0  0  0
  -24.7430  -15.9360   20.4050 H   0  0  0  0  0  0  0  0  0  0  0  0
  -26.3000  -15.6870   19.8030 H   0  0  0  0  0  0  0  0  0  0  0  0
  -28.5040  -21.9350   19.7320 O   0  0  0  0  0  0  0  0  0  0  0  0
  -29.0950  -23.3350   19.9090 C   0  0  0  0  0  3  0  0  0  0  0  0
  -28.1160  -24.6810   19.6400 C   0  0  0  0  0  3  0  0  0  0  0  0
  -28.3620  -26.1910   19.9150 O   0  0  0  0  0  0  0  0  0  0  0  0
  -24.5360  -31.6270   23.0850 C   0  0  0  0  0  0  0  0  0  0  0  0
  -27.2770  -27.1420   19.8750 C   0  0  0  0  0  0  0  0  0  0  0  0
  -23.3960  -30.2890   21.3560 C   0  0  0  0  0  3  0  0  0  0  0  0
  -24.9060  -28.8230   19.8830 C   0  0  0  0  0  0  0  0  0  0  0  0
  -25.9460  -30.6220   21.2520 C   0  0  0  0  0  2  0  0  0  0  0  0
  -26.0640  -29.2680   20.5340 C   0  0  0  0  0  0  0  0  0  0  0  0
  -27.2500  -28.4450   20.5130 C   0  0  0  0  0  3  0  0  0  0  0  0
  -26.0890  -26.7970   19.1910 C   0  0  0  0  0  3  0  0  0  0  0  0
  -24.9310  -27.6010   19.1980 C   0  0  0  0  0  3  0  0  0  0  0  0
  -23.6570  -29.6880   19.9500 C   0  0  0  0  0  2  0  0  0  0  0  0
  -24.6450  -30.8640   21.9540 N   0  0  0  0  0  0  0  0  0  0  0  0
  -23.4340  -31.8620   23.6050 O   0  0  0  0  0  0  0  0  0  0  0  0
  -22.7240  -29.2200   22.2530 C   0  0  0  0  0  0  0  0  0  0  0  0
  -21.3950  -29.0550   22.1190 N   0  0  0  0  0  0  0  0  0  0  0  0
  -23.3990  -28.5440   23.0340 O   0  0  0  0  0  0  0  0  0  0  0  0
  -20.9070  -29.6540   21.4680 H   0  0  0  0  0  0  0  0  0  0  0  0
  -18.0080  -27.8640   22.6020 C   0  0  0  0  0  0  0  0  0  0  0  0
  -20.5770  -28.0710   22.8320 C   0  0  0  0  0  3  0  0  0  0  0  0
  -20.6440  -26.6870   22.1430 C   0  0  0  0  0  2  0  0  0  0  0  0
  -19.5160  -26.4610   21.1320 C   0  0  0  0  0  2  0  0  0  0  0  0
  -18.1500  -26.5720   21.8170 C   0  0  0  0  0  2  0  0  0  0  0  0
  -19.1480  -28.5760   23.0650 C   0  0  0  0  0  0  0  0  0  0  0  0
  -18.9590  -29.7890   23.7640 C   0  0  0  0  0  3  0  0  0  0  0  0
  -17.6650  -30.2900   24.0000 C   0  0  0  0  0  3  0  0  0  0  0  0
  -16.5420  -29.5740   23.5510 C   0  0  0  0  0  3  0  0  0  0  0  0
  -16.7140  -28.3630   22.8590 C   0  0  0  0  0  3  0  0  0  0  0  0
  -25.7880  -32.2560   23.7670 C   0  0  0  0  0  3  0  0  0  0  0  0
  -26.2640  -31.4600   25.0450 C   0  0  1  0  0  0  0  0  0  0  0  0
  -25.1360  -31.1940   26.0690 C   0  0  0  0  0  1  0  0  0  0  0  0
  -26.8680  -30.0930   24.6470 C   0  0  0  0  0  1  0  0  0  0  0  0
  -27.3860  -32.2460   25.7630 C   0  0  0  0  0  1  0  0  0  0  0  0
  -25.4530  -33.6440   24.1230 N   0  0  0  0  0  0  0  0  0  0  0  0
  -25.7720  -34.7190   23.3900 C   0  0  0  0  0  0  0  0  0  0  0  0
  -26.4450  -34.6480   22.3590 O   0  0  0  0  0  0  0  0  0  0  0  0
  -24.8550  -33.7720   24.9260 H   0  0  0  0  0  0  0  0  0  0  0  0
  -24.0050  -36.4870   23.0910 C   0  0  0  0  0  1  0  0  0  0  0  0
  -25.2650  -36.0920   23.8780 C   0  0  0  0  0  3  0  0  0  0  0  0
  -27.3890  -37.0120   24.7010 C   0  0  0  0  0  1  0  0  0  0  0  0
  -26.2770  -37.1660   23.7680 N   0  0  0  0  0  0  0  0  0  0  0  0
  -25.8530  -38.0770   23.9260 H   0  0  0  0  0  0  0  0  0  0  0  0
  2  1  2  0
  3  4  2  0
  4  1  1  0
  4 16  1  0
  5  2  1  0
  6  5  2  0
  6  3  1  0
  7  6  1  0
  8 14  1  0
  8 16  1  0
  9 14  1  0
 10 11  1  0
 10  9  1  0
 12 11  1  0
 12 21  1  0
 12 13  1  0
 14 13  1  0
 15  8  2  0
 16 17  1  0
 18 19  2  0
 19 38  1  0
 20 19  1  0
 20 23  1  0
 21 22  1  0
 21 18  1  0
 22 20  2  0
 23 24  1  0
 24 25  2  0
 26 29  1  0
 26 25  1  0
 27 26  2  0
 28 27  1  0
 28 23  2  0
 29 30  1  0
 30 31  1  0
 31 32  2  0
 33 32  1  0
 33 37  1  0
 34 33  2  0
 35 30  2  0
 35 34  1  0
 36 35  1  0
 38 39  1  0
 39 42  1  0
 39 41  1  0
 40 38  2  0
 43 44  1  0
 43 18  1  0
 45 43  1  0
 46 47  1  0
 46  5  1  0
 48 47  2  0
 48 49  1  0
 50 61  2  0
 51 49  1  0
 51 56  1  0
 52 60  1  0
 52 62  1  0
 53 59  1  0
 53 55  1  0
 54 60  1  0
 55 54  1  0
 56 55  2  0
 57 58  1  0
 57 51  2  0
 58 53  2  0
 59 52  1  0
 60 50  1  0
 62 64  2  0
 63 62  1  0
 65 63  1  0
 66 75  2  0
 66 71  1  0
 67 63  1  0
 67 71  1  0
 68 67  1  0
 69 70  1  0
 69 68  1  0
 70 66  1  0
 71 72  2  0
 72 73  1  0
 74 73  2  0
 75 74  1  0
 76 50  1  0
 76 81  1  0
 76 77  1  0
 77 80  1  1
 77 78  1  0
 79 77  1  0
 81 84  1  0
 82 86  1  0
 82 81  1  0
 83 82  2  0
 86 85  1  0
 88 86  1  0
 88 89  1  0
 88 87  1  0
M  ISO  4   8 100  16 100  48 101  49 101
M  END
>  <TORSDO>  (12) 
F 19

>  <SCORE>  (12) 
-13.742

>  <name>  (12) 
11

>  <ligand_id>  (12) 
11

>  <original_smiles>  (12) 
[H]c1c([H])c([H])c2c(c1[H])C([H])([H])C([H])([H])C([H])([H])C2([H])N([H])C(=O)C1([H])N(C(=O)C([H])(N([H])C(=O)C([H])(N([H])C([H])([H])[H])C([H])([H])[H])C(C([H])([H])[H])(C([H])([H])[H])C([H])([H])[H])C([H])([H])c2c([H])c(OC([H])([H])C([H])([H])Oc3c([H])c([H])c(N([H])C(=O)N4C([H])([H])C([H])([H])C([H])([H])C([H])(n5nc(-c6c([H])c([H])c(Oc7c([H])c([H])c(F)c([H])c7F)c([H])c6[H])c(C(=O)N([H])[H])c5N([H])[H])C4([H])[H])c([H])c3F)c([H])c([H])c2C1([H])[H]

>  <smiles>  (12) 
[H]c1c([H])c([H])c2c(c1[H])C([H])([H])C([H])([H])C([H])([H])C2([H])N([H])C(=O)C1([H])N(C(=O)C([H])(N([H])C(=O)C([H])(N([H])C([H])([H])[H])C([H])([H])[H])C(C([H])([H])[H])(C([H])([H])[H])C([H])([H])[H])C([H])([H])c2c([H])c(OC([H])([H])C([H])([H])Oc3c([H])c([H])c(N([H])C(=O)N4C([H])([H])C([H])([H])C([H])([H])C([H])(n5nc(-c6c([H])c([H])c(Oc7c([H])c([H])c(F)c([H])c7F)c([H])c6[H])c(C(=O)N([H])[H])c5N([H])[H])C4([H])[H])c([H])c3F)c([H])c([H])c2C1([H])[H]

$$$$
12:0:0
     RDKit          3D

 90 98  0  0  1  0  0  0  0  0999 V2000
  -28.0810  -20.3900   20.4170 C   0  0  0  0  0  3  0  0  0  0  0  0
  -30.5250  -19.1830   20.0120 C   0  0  0  0  0  3  0  0  0  0  0  0
  -29.0910  -21.4220   20.2270 C   0  0  0  0  0  0  0  0  0  0  0  0
  -29.5140  -18.1550   20.2040 C   0  0  0  0  0  0  0  0  0  0  0  0
  -28.2740  -18.9100   20.4040 C   0  0  0  0  0  0  0  0  0  0  0  0
  -30.3310  -20.6620   20.0250 C   0  0  0  0  0  0  0  0  0  0  0  0
  -27.1650  -18.1610   20.6040 F   0  0  0  0  0  0  0  0  0  0  0  0
  -31.4480  -21.4020   19.8320 F   0  0  0  0  0  0  0  0  0  0  0  0
  -30.4120  -15.3440   19.9920 C   0  0  0  0  0  0  0  0  0  0  0  0
  -30.3810  -12.9270   19.0450 C   0  0  0  0  0  2  0  0  0  0  0  0
  -29.3860  -12.7650   17.8650 C   0  0  0  0  0  2  0  0  0  0  0  0
  -27.9650  -12.4770   18.3800 C   0  0  0  0  0  2  0  0  0  0  0  0
  -27.5790  -13.3960   19.5650 C   0  0  0  0  0  3  0  0  0  0  0  0
  -28.6920  -13.4940   20.6300 C   0  0  0  0  0  2  0  0  0  0  0  0
  -29.8850  -14.0240   19.9500 N   0  0  0  0  0  0  0  0  0  0  0  0
  -31.6080  -15.4070   19.6660 O   0  0  0  0  0  0  0  0  0  0  0  0
  -29.5710  -16.5350   20.2200 N   0  0  0  0  0  0  0  0  0  0  0  0
  -28.6540  -16.1900   20.4590 H   0  0  0  0  0  0  0  0  0  0  0  0
  -25.2520  -13.9180   20.4740 C   0  0  0  0  0  0  0  0  0  0  0  0
  -24.2180  -13.1220   20.8770 C   0  0  0  0  0  0  0  0  0  0  0  0
  -24.6880  -11.7770   20.7730 C   0  0  0  0  0  0  0  0  0  0  0  0
  -26.2840  -13.0570   20.1390 N   0  0  0  0  0  0  0  0  0  0  0  0
  -25.9590  -11.7610   20.3860 N   0  0  0  0  0  0  0  0  0  0  0  0
  -23.9770  -10.5040   20.9610 C   0  0  0  0  0  0  0  0  0  0  0  0
  -24.4220   -9.5400   21.8930 C   0  0  0  0  0  3  0  0  0  0  0  0
  -23.7070   -8.3350   22.0700 C   0  0  0  0  0  3  0  0  0  0  0  0
  -22.5360   -8.0850   21.3160 C   0  0  0  0  0  0  0  0  0  0  0  0
  -22.1120   -9.0390   20.3750 C   0  0  0  0  0  3  0  0  0  0  0  0
  -22.8260  -10.2350   20.1950 C   0  0  0  0  0  3  0  0  0  0  0  0
  -21.7930   -6.9320   21.4040 O   0  0  0  0  0  0  0  0  0  0  0  0
  -21.6910   -6.2300   22.5780 C   0  0  0  0  0  0  0  0  0  0  0  0
  -21.1570   -6.8100   23.7490 C   0  0  0  0  0  3  0  0  0  0  0  0
  -21.0040   -6.0310   24.9130 C   0  0  0  0  0  3  0  0  0  0  0  0
  -21.3750   -4.6740   24.9070 C   0  0  0  0  0  0  0  0  0  0  0  0
  -21.9020   -4.0930   23.7400 C   0  0  0  0  0  3  0  0  0  0  0  0
  -22.0560   -4.8690   22.5780 C   0  0  0  0  0  0  0  0  0  0  0  0
  -22.5440   -4.2980   21.4500 F   0  0  0  0  0  0  0  0  0  0  0  0
  -21.2220   -3.9240   26.0240 F   0  0  0  0  0  0  0  0  0  0  0  0
  -22.8370  -13.5820   21.2430 C   0  0  0  0  0  0  0  0  0  0  0  0
  -22.1650  -12.8590   22.1320 N   0  0  0  0  0  0  0  0  0  0  0  0
  -22.3640  -14.6180   20.7750 O   0  0  0  0  0  0  0  0  0  0  0  0
  -22.5620  -12.0200   22.5300 H   0  0  0  0  0  0  0  0  0  0  0  0
  -21.2410  -13.1490   22.4190 H   0  0  0  0  0  0  0  0  0  0  0  0
  -25.3940  -15.2950   20.3340 N   0  0  0  0  0  0  0  0  0  0  0  0
  -24.6300  -15.9320   20.5300 H   0  0  0  0  0  0  0  0  0  0  0  0
  -26.2090  -15.7660   19.9660 H   0  0  0  0  0  0  0  0  0  0  0  0
  -29.0290  -23.1780   20.2730 C   0  0  0  0  0  2  0  0  0  0  0  0
  -27.8750  -24.3230   20.3000 N   0  0  0  0  0  0  0  0  0  0  0  0
  -27.3350  -24.1980   21.1520 H   0  0  0  0  0  0  0  0  0  0  0  0
  -28.2540  -25.9750   20.2640 O   0  0  0  0  0  0  0  0  0  0  0  0
  -24.6690  -31.9130   23.2650 C   0  0  0  0  0  0  0  0  0  0  0  0
  -27.2150  -27.0410   20.2520 C   0  0  0  0  0  0  0  0  0  0  0  0
  -23.4720  -30.5220   21.6230 C   0  0  0  0  0  3  0  0  0  0  0  0
  -24.9160  -28.9130   20.2030 C   0  0  0  0  0  0  0  0  0  0  0  0
  -26.0360  -30.7270   21.4810 C   0  0  0  0  0  2  0  0  0  0  0  0
  -26.1010  -29.3160   20.8310 C   0  0  0  0  0  0  0  0  0  0  0  0
  -27.2430  -28.3990   20.8370 C   0  0  0  0  0  3  0  0  0  0  0  0
  -26.0050  -26.7850   19.5720 C   0  0  0  0  0  3  0  0  0  0  0  0
  -24.8900  -27.6650   19.5560 C   0  0  0  0  0  3  0  0  0  0  0  0
  -23.7000  -29.8370   20.2470 C   0  0  0  0  0  2  0  0  0  0  0  0
  -24.7460  -31.0810   22.1770 N   0  0  0  0  0  0  0  0  0  0  0  0
  -23.5810  -32.2070   23.7850 O   0  0  0  0  0  0  0  0  0  0  0  0
  -22.7730  -29.5280   22.5870 C   0  0  0  0  0  0  0  0  0  0  0  0
  -21.4450  -29.3620   22.4530 N   0  0  0  0  0  0  0  0  0  0  0  0
  -23.4340  -28.9070   23.4220 O   0  0  0  0  0  0  0  0  0  0  0  0
  -20.9650  -29.9140   21.7560 H   0  0  0  0  0  0  0  0  0  0  0  0
  -18.0590  -28.1570   22.9500 C   0  0  0  0  0  0  0  0  0  0  0  0
  -20.6170  -28.4260   23.2220 C   0  0  0  0  0  3  0  0  0  0  0  0
  -20.7220  -26.9920   22.6500 C   0  0  0  0  0  2  0  0  0  0  0  0
  -19.6240  -26.6690   21.6310 C   0  0  0  0  0  2  0  0  0  0  0  0
  -18.2400  -26.8100   22.2710 C   0  0  0  0  0  2  0  0  0  0  0  0
  -19.1750  -28.9230   23.3820 C   0  0  0  0  0  0  0  0  0  0  0  0
  -18.9490  -30.1810   23.9800 C   0  0  0  0  0  3  0  0  0  0  0  0
  -17.6430  -30.6760   24.1480 C   0  0  0  0  0  3  0  0  0  0  0  0
  -16.5420  -29.9090   23.7290 C   0  0  0  0  0  3  0  0  0  0  0  0
  -16.7500  -28.6510   23.1360 C   0  0  0  0  0  3  0  0  0  0  0  0
  -25.9420  -32.5490   23.8990 C   0  0  0  0  0  3  0  0  0  0  0  0
  -25.6310  -33.9510   24.2320 N   0  0  0  0  0  0  0  0  0  0  0  0
  -25.9390  -35.0070   23.4680 C   0  0  0  0  0  0  0  0  0  0  0  0
  -26.5780  -34.9060   22.4170 O   0  0  0  0  0  0  0  0  0  0  0  0
  -25.0600  -34.1030   25.0500 H   0  0  0  0  0  0  0  0  0  0  0  0
  -24.1840  -36.7940   23.1920 C   0  0  0  0  0  1  0  0  0  0  0  0
  -25.4680  -36.3980   23.9420 C   0  0  0  0  0  3  0  0  0  0  0  0
  -27.6280  -37.3110   24.6700 C   0  0  0  0  0  1  0  0  0  0  0  0
  -26.4870  -37.4570   23.7700 N   0  0  0  0  0  0  0  0  0  0  0  0
  -26.0800  -38.3770   23.9200 H   0  0  0  0  0  0  0  0  0  0  0  0
  -26.4400  -31.7850   25.1890 C   0  0  1  0  0  0  0  0  0  0  0  0
  -25.3340  -31.5590   26.2470 C   0  0  0  0  0  1  0  0  0  0  0  0
  -27.0220  -30.4010   24.8210 C   0  0  0  0  0  1  0  0  0  0  0  0
  -27.5870  -32.5790   25.8590 C   0  0  0  0  0  1  0  0  0  0  0  0
  2  6  2  0
  2  4  1  0
  3 47  1  0
  3  1  2  0
  4 17  1  0
  4  5  2  0
  5  1  1  0
  5  7  1  0
  6  3  1  0
  8  6  1  0
  9 17  1  0
 10 15  1  0
 11 12  1  0
 11 10  1  0
 13 12  1  0
 13 22  1  0
 13 14  1  0
 15  9  1  0
 15 14  1  0
 16  9  2  0
 17 18  1  0
 19 20  2  0
 20 39  1  0
 21 20  1  0
 21 24  1  0
 22 23  1  0
 22 19  1  0
 23 21  2  0
 24 25  1  0
 25 26  2  0
 27 30  1  0
 27 26  1  0
 28 27  2  0
 29 28  1  0
 29 24  2  0
 30 31  1  0
 31 36  2  0
 31 32  1  0
 32 33  2  0
 34 33  1  0
 34 38  1  0
 35 34  2  0
 36 35  1  0
 37 36  1  0
 39 40  1  0
 40 43  1  0
 40 42  1  0
 41 39  2  0
 44 19  1  0
 44 45  1  0
 46 44  1  0
 47 48  1  0
 48 49  1  0
 50 48  1  0
 51 62  2  0
 52 50  1  0
 52 57  1  0
 53 61  1  0
 53 63  1  0
 54 60  1  0
 54 56  1  0
 55 61  1  0
 56 57  2  0
 56 55  1  0
 58 52  2  0
 59 58  1  0
 59 54  2  0
 60 53  1  0
 61 51  1  0
 63 65  2  0
 64 63  1  0
 66 64  1  0
 67 76  2  0
 67 72  1  0
 68 64  1  0
 68 72  1  0
 69 68  1  0
 70 71  1  0
 70 69  1  0
 71 67  1  0
 72 73  2  0
 73 74  1  0
 75 74  2  0
 76 75  1  0
 77 51  1  0
 77 78  1  0
 77 87  1  0
 78 81  1  0
 79 83  1  0
 79 78  1  0
 80 79  2  0
 83 82  1  0
 85 86  1  0
 85 83  1  0
 85 84  1  0
 87 90  1  1
 87 88  1  0
 89 87  1  0
M  ISO  4   9 100  17 100  48 101  50 101
M  END
>  <TORSDO>  (13) 
F 18

>  <SCORE>  (13) 
-16.270

>  <name>  (13) 
12

>  <ligand_id>  (13) 
12

>  <original_smiles>  (13) 
[H]c1c([H])c([H])c2c(c1[H])C([H])([H])C([H])([H])C([H])([H])C2([H])N([H])C(=O)C1([H])N(C(=O)C([H])(N([H])C(=O)C([H])(N([H])C([H])([H])[H])C([H])([H])[H])C(C([H])([H])[H])(C([H])([H])[H])C([H])([H])[H])C([H])([H])c2c([H])c(ON([H])C([H])([H])c3c([H])c(F)c(N([H])C(=O)N4C([H])([H])C([H])([H])C([H])([H])C([H])(n5nc(-c6c([H])c([H])c(Oc7c([H])c([H])c(F)c([H])c7F)c([H])c6[H])c(C(=O)N([H])[H])c5N([H])[H])C4([H])[H])c([H])c3F)c([H])c([H])c2C1([H])[H]

>  <smiles>  (13) 
[H]c1c([H])c([H])c2c(c1[H])C([H])([H])C([H])([H])C([H])([H])C2([H])N([H])C(=O)C1([H])N(C(=O)C([H])(N([H])C(=O)C([H])(N([H])C([H])([H])[H])C([H])([H])[H])C(C([H])([H])[H])(C([H])([H])[H])C([H])([H])[H])C([H])([H])c2c([H])c(ON([H])C([H])([H])c3c([H])c(F)c(N([H])C(=O)N4C([H])([H])C([H])([H])C([H])([H])C([H])(n5nc(-c6c([H])c([H])c(Oc7c([H])c([H])c(F)c([H])c7F)c([H])c6[H])c(C(=O)N([H])[H])c5N([H])[H])C4([H])[H])c([H])c3F)c([H])c([H])c2C1([H])[H]

$$$$
13:0:0
     RDKit          3D

 91100  0  0  1  0  0  0  0  0999 V2000
  -28.9960  -18.5750   20.7030 C   0  0  0  0  0  3  0  0  0  0  0  0
  -30.8320  -18.7600   19.2130 C   0  0  0  0  0  3  0  0  0  0  0  0
  -28.7230  -19.9760   20.5140 C   0  0  0  0  0  0  0  0  0  0  0  0
  -29.4350  -20.8520   19.6710 C   0  0  0  0  0  0  0  0  0  0  0  0
  -30.0560  -17.8670   20.0460 C   0  0  0  0  0  0  0  0  0  0  0  0
  -30.5440  -20.1900   19.0290 C   0  0  0  0  0  0  0  0  0  0  0  0
  -27.6200  -20.7330   21.1880 C   0  0  0  0  0  3  0  0  0  0  0  0
  -27.7890  -22.1750   20.6580 C   0  0  0  0  0  3  0  0  0  0  0  0
  -28.8530  -22.2190   19.6410 N   0  0  0  0  0  0  0  0  0  0  0  0
  -31.3480  -20.9160   18.2110 F   0  0  0  0  0  0  0  0  0  0  0  0
  -31.0070  -15.2580   20.0100 C   0  0  0  0  0  0  0  0  0  0  0  0
  -30.9720  -12.8400   19.2540 C   0  0  0  0  0  2  0  0  0  0  0  0
  -30.0100  -12.6690   18.0520 C   0  0  0  0  0  2  0  0  0  0  0  0
  -28.5610  -12.4520   18.5300 C   0  0  0  0  0  2  0  0  0  0  0  0
  -28.1470  -13.4670   19.6270 C   0  0  0  0  0  3  0  0  0  0  0  0
  -29.2190  -13.5810   20.7370 C   0  0  0  0  0  2  0  0  0  0  0  0
  -30.4820  -13.9720   20.0870 N   0  0  0  0  0  0  0  0  0  0  0  0
  -32.1740  -15.3910   19.6210 O   0  0  0  0  0  0  0  0  0  0  0  0
  -30.1490  -16.3520   20.2570 N   0  0  0  0  0  0  0  0  0  0  0  0
  -29.3070  -15.9920   20.6820 H   0  0  0  0  0  0  0  0  0  0  0  0
  -25.8140  -14.0780   20.4960 C   0  0  0  0  0  0  0  0  0  0  0  0
  -24.7420  -13.3120   20.8730 C   0  0  0  0  0  0  0  0  0  0  0  0
  -25.1670  -11.9540   20.7530 C   0  0  0  0  0  0  0  0  0  0  0  0
  -26.8200  -13.1850   20.1660 N   0  0  0  0  0  0  0  0  0  0  0  0
  -26.4430  -11.8980   20.3850 N   0  0  0  0  0  0  0  0  0  0  0  0
  -24.4130  -10.7020   20.9090 C   0  0  0  0  0  0  0  0  0  0  0  0
  -24.8220   -9.7010   21.8180 C   0  0  0  0  0  3  0  0  0  0  0  0
  -24.0680   -8.5160   21.9660 C   0  0  0  0  0  3  0  0  0  0  0  0
  -22.8900   -8.3250   21.2050 C   0  0  0  0  0  0  0  0  0  0  0  0
  -22.4990   -9.3140   20.2840 C   0  0  0  0  0  3  0  0  0  0  0  0
  -23.2540  -10.4900   20.1340 C   0  0  0  0  0  3  0  0  0  0  0  0
  -22.1090   -7.1950   21.2640 O   0  0  0  0  0  0  0  0  0  0  0  0
  -21.9790   -6.4690   22.4220 C   0  0  0  0  0  0  0  0  0  0  0  0
  -21.4440   -7.0340   23.5990 C   0  0  0  0  0  3  0  0  0  0  0  0
  -21.2610   -6.2330   24.7440 C   0  0  0  0  0  3  0  0  0  0  0  0
  -21.6080   -4.8700   24.7130 C   0  0  0  0  0  0  0  0  0  0  0  0
  -22.1350   -4.3040   23.5390 C   0  0  0  0  0  3  0  0  0  0  0  0
  -22.3190   -5.1020   22.3950 C   0  0  0  0  0  0  0  0  0  0  0  0
  -22.8080   -4.5460   21.2610 F   0  0  0  0  0  0  0  0  0  0  0  0
  -21.4270   -4.0980   25.8090 F   0  0  0  0  0  0  0  0  0  0  0  0
  -23.3720  -13.8120   21.2290 C   0  0  0  0  0  0  0  0  0  0  0  0
  -22.6620  -13.0930   22.0930 N   0  0  0  0  0  0  0  0  0  0  0  0
  -22.9390  -14.8690   20.7760 O   0  0  0  0  0  0  0  0  0  0  0  0
  -23.0230  -12.2340   22.4810 H   0  0  0  0  0  0  0  0  0  0  0  0
  -21.7440  -13.4060   22.3710 H   0  0  0  0  0  0  0  0  0  0  0  0
  -26.0080  -15.4500   20.3830 N   0  0  0  0  0  0  0  0  0  0  0  0
  -25.2630  -16.1150   20.5630 H   0  0  0  0  0  0  0  0  0  0  0  0
  -26.8440  -15.8870   20.0160 H   0  0  0  0  0  0  0  0  0  0  0  0
  -29.3240  -23.6290   19.2010 C   0  0  0  0  0  3  0  0  0  0  0  0
  -28.2500  -24.9280   19.2180 C   0  0  0  0  0  3  0  0  0  0  0  0
  -28.5590  -26.4500   19.2340 O   0  0  0  0  0  0  0  0  0  0  0  0
  -25.0110  -31.4890   23.2560 C   0  0  0  0  0  0  0  0  0  0  0  0
  -27.5070  -27.4210   19.3800 C   0  0  0  0  0  0  0  0  0  0  0  0
  -23.7790  -30.4540   21.3890 C   0  0  0  0  0  3  0  0  0  0  0  0
  -25.1980  -29.1600   19.6850 C   0  0  0  0  0  0  0  0  0  0  0  0
  -26.3320  -30.7230   21.2500 C   0  0  0  0  0  2  0  0  0  0  0  0
  -26.3850  -29.4680   20.3630 C   0  0  0  0  0  0  0  0  0  0  0  0
  -27.5400  -28.6200   20.1980 C   0  0  0  0  0  3  0  0  0  0  0  0
  -26.2950  -27.2190   18.6790 C   0  0  0  0  0  3  0  0  0  0  0  0
  -25.1680  -28.0550   18.8290 C   0  0  0  0  0  3  0  0  0  0  0  0
  -23.9850  -30.0490   19.9030 C   0  0  0  0  0  2  0  0  0  0  0  0
  -25.0620  -30.8970   22.0240 N   0  0  0  0  0  0  0  0  0  0  0  0
  -23.9340  -31.6800   23.8390 O   0  0  0  0  0  0  0  0  0  0  0  0
  -23.0960  -29.2850   22.1420 C   0  0  0  0  0  0  0  0  0  0  0  0
  -21.7620  -29.1680   22.0140 N   0  0  0  0  0  0  0  0  0  0  0  0
  -23.7670  -28.4970   22.8130 O   0  0  0  0  0  0  0  0  0  0  0  0
  -21.2780  -29.8740   21.4750 H   0  0  0  0  0  0  0  0  0  0  0  0
  -18.3550  -27.9900   22.3750 C   0  0  0  0  0  0  0  0  0  0  0  0
  -20.9290  -28.1110   22.5960 C   0  0  0  0  0  3  0  0  0  0  0  0
  -20.9580  -26.8280   21.7350 C   0  0  0  0  0  2  0  0  0  0  0  0
  -19.8160  -26.7580   20.7150 C   0  0  0  0  0  2  0  0  0  0  0  0
  -18.4610  -26.8070   21.4260 C   0  0  0  0  0  2  0  0  0  0  0  0
  -19.5140  -28.6090   22.9130 C   0  0  0  0  0  0  0  0  0  0  0  0
  -19.3640  -29.7210   23.7680 C   0  0  0  0  0  3  0  0  0  0  0  0
  -18.0850  -30.2170   24.0830 C   0  0  0  0  0  3  0  0  0  0  0  0
  -16.9400  -29.5930   23.5600 C   0  0  0  0  0  3  0  0  0  0  0  0
  -17.0750  -28.4800   22.7100 C   0  0  0  0  0  3  0  0  0  0  0  0
  -26.3030  -31.9730   23.9830 C   0  0  0  0  0  3  0  0  0  0  0  0
  -26.0460  -33.3310   24.4890 N   0  0  0  0  0  0  0  0  0  0  0  0
  -26.4150  -34.4610   23.8700 C   0  0  0  0  0  0  0  0  0  0  0  0
  -27.0750  -34.4630   22.8280 O   0  0  0  0  0  0  0  0  0  0  0  0
  -25.4500  -33.4040   25.3030 H   0  0  0  0  0  0  0  0  0  0  0  0
  -24.7470  -36.3420   23.7820 C   0  0  0  0  0  1  0  0  0  0  0  0
  -25.9880  -35.7970   24.5060 C   0  0  0  0  0  3  0  0  0  0  0  0
  -28.1680  -36.5110   25.3900 C   0  0  0  0  0  1  0  0  0  0  0  0
  -27.0560  -36.8220   24.4950 N   0  0  0  0  0  0  0  0  0  0  0  0
  -26.6860  -37.7350   24.7530 H   0  0  0  0  0  0  0  0  0  0  0  0
  -26.7480  -31.0200   25.1600 C   0  0  1  0  0  0  0  0  0  0  0  0
  -25.6180  -30.7150   26.1730 C   0  0  0  0  0  1  0  0  0  0  0  0
  -27.2650  -29.6740   24.6040 C   0  0  0  0  0  1  0  0  0  0  0  0
  -27.9210  -31.6570   25.9370 C   0  0  0  0  0  1  0  0  0  0  0  0
  2  5  1  0
  3  1  1  0
  3  7  1  0
  4  3  2  0
  5 19  1  0
  5  1  2  0
  6  2  2  0
  6  4  1  0
  8  7  2  0
  9  4  1  0
  9  8  1  0
 10  6  1  0
 11 17  1  0
 11 19  1  0
 12 17  1  0
 13 14  1  0
 13 12  1  0
 15 14  1  0
 15 24  1  0
 15 16  1  0
 17 16  1  0
 18 11  2  0
 19 20  1  0
 21 22  2  0
 22 41  1  0
 23 22  1  0
 23 26  1  0
 24 25  1  0
 24 21  1  0
 25 23  2  0
 26 27  1  0
 27 28  2  0
 29 32  1  0
 29 28  1  0
 30 29  2  0
 31 30  1  0
 31 26  2  0
 32 33  1  0
 33 34  1  0
 34 35  2  0
 36 35  1  0
 36 40  1  0
 37 36  2  0
 38 33  2  0
 38 37  1  0
 39 38  1  0
 41 42  1  0
 42 45  1  0
 42 44  1  0
 43 41  2  0
 46 21  1  0
 46 47  1  0
 48 46  1  0
 49 50  2  0
 49  9  1  0
 50 51  1  0
 51 53  1  0
 52 63  2  0
 53 58  1  0
 54 62  1  0
 54 64  1  0
 55 61  1  0
 55 57  1  0
 56 62  1  0
 57 56  1  0
 58 57  2  0
 59 60  1  0
 59 53  2  0
 60 55  2  0
 61 54  1  0
 62 52  1  0
 64 66  2  0
 65 64  1  0
 67 65  1  0
 68 77  2  0
 68 73  1  0
 69 65  1  0
 69 73  1  0
 70 69  1  0
 71 72  1  0
 71 70  1  0
 72 68  1  0
 73 74  2  0
 74 75  1  0
 76 75  2  0
 77 76  1  0
 78 52  1  0
 78 79  1  0
 78 88  1  0
 79 82  1  0
 80 79  1  0
 80 84  1  0
 81 80  2  0
 84 83  1  0
 86 84  1  0
 86 87  1  0
 86 85  1  0
 88 91  1  1
 88 89  1  0
 90 88  1  0
M  ISO  4  11 100  19 100  50 101  51 101
M  END
>  <TORSDO>  (14) 
F 18

>  <SCORE>  (14) 
-11.812

>  <name>  (14) 
13

>  <ligand_id>  (14) 
13

>  <original_smiles>  (14) 
[H]c1c([H])c([H])c2c(c1[H])C([H])([H])C([H])([H])C([H])([H])C2([H])N([H])C(=O)C1([H])N(C(=O)C([H])(N([H])C(=O)C([H])(N([H])C([H])([H])[H])C([H])([H])[H])C(C([H])([H])[H])(C([H])([H])[H])C([H])([H])[H])C([H])([H])c2c([H])c(OC([H])([H])C([H])([H])N3c4c(F)c([H])c(N([H])C(=O)N5C([H])([H])C([H])([H])C([H])([H])C([H])(n6nc(-c7c([H])c([H])c(Oc8c([H])c([H])c(F)c([H])c8F)c([H])c7[H])c(C(=O)N([H])[H])c6N([H])[H])C5([H])[H])c([H])c4C([H])([H])C3([H])[H])c([H])c([H])c2C1([H])[H]

>  <smiles>  (14) 
[H]c1c([H])c([H])c2c(c1[H])C([H])([H])C([H])([H])C([H])([H])C2([H])N([H])C(=O)C1([H])N(C(=O)C([H])(N([H])C(=O)C([H])(N([H])C([H])([H])[H])C([H])([H])[H])C(C([H])([H])[H])(C([H])([H])[H])C([H])([H])[H])C([H])([H])c2c([H])c(OC([H])([H])C([H])([H])N3c4c(F)c([H])c(N([H])C(=O)N5C([H])([H])C([H])([H])C([H])([H])C([H])(n6nc(-c7c([H])c([H])c(Oc8c([H])c([H])c(F)c([H])c8F)c([H])c7[H])c(C(=O)N([H])[H])c6N([H])[H])C5([H])[H])c([H])c4C([H])([H])C3([H])[H])c([H])c([H])c2C1([H])[H]

$$$$
14:0:0
     RDKit          3D

 89 97  0  0  1  0  0  0  0  0999 V2000
  -30.2880  -20.5730   19.6450 C   0  0  0  0  0  3  0  0  0  0  0  0
  -30.4880  -19.0980   19.7280 C   0  0  0  0  0  3  0  0  0  0  0  0
  -28.0470  -20.3390   20.0420 C   0  0  0  0  0  3  0  0  0  0  0  0
  -29.0570  -21.3550   19.7860 C   0  0  0  0  0  0  0  0  0  0  0  0
  -28.2320  -18.8590   20.1290 C   0  0  0  0  0  0  0  0  0  0  0  0
  -29.4740  -18.0840   19.9790 C   0  0  0  0  0  0  0  0  0  0  0  0
  -26.9710  -18.0650   20.4130 C   0  0  0  0  0  1  0  0  0  0  0  0
  -30.3820  -15.2670   19.8090 C   0  0  0  0  0  0  0  0  0  0  0  0
  -30.3460  -12.8200   18.9430 C   0  0  0  0  0  2  0  0  0  0  0  0
  -29.3430  -12.6230   17.7770 C   0  0  0  0  0  2  0  0  0  0  0  0
  -27.9260  -12.3480   18.3110 C   0  0  0  0  0  2  0  0  0  0  0  0
  -27.5490  -13.3030   19.4700 C   0  0  0  0  0  3  0  0  0  0  0  0
  -28.6700  -13.4360   20.5240 C   0  0  0  0  0  2  0  0  0  0  0  0
  -29.8580  -13.9450   19.8190 N   0  0  0  0  0  0  0  0  0  0  0  0
  -31.5680  -15.3240   19.4530 O   0  0  0  0  0  0  0  0  0  0  0  0
  -29.5460  -16.4640   20.0460 N   0  0  0  0  0  0  0  0  0  0  0  0
  -28.6570  -16.1100   20.3620 H   0  0  0  0  0  0  0  0  0  0  0  0
  -25.2450  -13.8540   20.4140 C   0  0  0  0  0  0  0  0  0  0  0  0
  -24.2080  -13.0750   20.8420 C   0  0  0  0  0  0  0  0  0  0  0  0
  -24.6560  -11.7230   20.7270 C   0  0  0  0  0  0  0  0  0  0  0  0
  -26.2590  -12.9810   20.0630 N   0  0  0  0  0  0  0  0  0  0  0  0
  -25.9200  -11.6900   20.3160 N   0  0  0  0  0  0  0  0  0  0  0  0
  -23.9310  -10.4620   20.9250 C   0  0  0  0  0  0  0  0  0  0  0  0
  -24.3780   -9.4880   21.8460 C   0  0  0  0  0  3  0  0  0  0  0  0
  -23.6500   -8.2940   22.0350 C   0  0  0  0  0  3  0  0  0  0  0  0
  -22.4610   -8.0640   21.3030 C   0  0  0  0  0  0  0  0  0  0  0  0
  -22.0320   -9.0260   20.3710 C   0  0  0  0  0  3  0  0  0  0  0  0
  -22.7610  -10.2120   20.1800 C   0  0  0  0  0  3  0  0  0  0  0  0
  -21.7030   -6.9220   21.4010 O   0  0  0  0  0  0  0  0  0  0  0  0
  -21.6160   -6.2160   22.5740 C   0  0  0  0  0  0  0  0  0  0  0  0
  -21.1400   -6.8050   23.7650 C   0  0  0  0  0  3  0  0  0  0  0  0
  -21.0010   -6.0240   24.9300 C   0  0  0  0  0  3  0  0  0  0  0  0
  -21.3280   -4.6560   24.9040 C   0  0  0  0  0  0  0  0  0  0  0  0
  -21.7970   -4.0650   23.7180 C   0  0  0  0  0  3  0  0  0  0  0  0
  -21.9380   -4.8430   22.5550 C   0  0  0  0  0  0  0  0  0  0  0  0
  -22.3700   -4.2650   21.4090 F   0  0  0  0  0  0  0  0  0  0  0  0
  -21.1870   -3.9040   26.0220 F   0  0  0  0  0  0  0  0  0  0  0  0
  -22.8410  -13.5550   21.2310 C   0  0  0  0  0  0  0  0  0  0  0  0
  -22.1780  -12.8470   22.1390 N   0  0  0  0  0  0  0  0  0  0  0  0
  -22.3730  -14.5940   20.7660 O   0  0  0  0  0  0  0  0  0  0  0  0
  -22.5710  -12.0070   22.5350 H   0  0  0  0  0  0  0  0  0  0  0  0
  -21.2640  -13.1520   22.4430 H   0  0  0  0  0  0  0  0  0  0  0  0
  -25.4010  -15.2270   20.2610 N   0  0  0  0  0  0  0  0  0  0  0  0
  -24.6200  -15.8590   20.3980 H   0  0  0  0  0  0  0  0  0  0  0  0
  -26.1670  -15.6490   19.7540 H   0  0  0  0  0  0  0  0  0  0  0  0
  -28.9880  -23.1100   19.7900 C   0  0  0  0  0  2  0  0  0  0  0  0
  -27.8290  -24.2400   19.6530 N   0  0  0  0  0  0  0  0  0  0  0  0
  -27.1700  -24.0980   20.4140 H   0  0  0  0  0  0  0  0  0  0  0  0
  -28.1860  -25.8950   19.6880 O   0  0  0  0  0  0  0  0  0  0  0  0
  -24.5860  -31.6480   23.0050 C   0  0  0  0  0  0  0  0  0  0  0  0
  -27.1340  -26.9460   19.7390 C   0  0  0  0  0  0  0  0  0  0  0  0
  -23.3750  -30.3160   21.3250 C   0  0  0  0  0  3  0  0  0  0  0  0
  -24.8130  -28.7880   19.8120 C   0  0  0  0  0  0  0  0  0  0  0  0
  -25.9340  -30.5600   21.1460 C   0  0  0  0  0  2  0  0  0  0  0  0
  -26.0030  -29.1800   20.4350 C   0  0  0  0  0  0  0  0  0  0  0  0
  -27.1550  -28.2770   20.3810 C   0  0  0  0  0  3  0  0  0  0  0  0
  -25.9140  -26.7030   19.0710 C   0  0  0  0  0  3  0  0  0  0  0  0
  -24.7890  -27.5680   19.1120 C   0  0  0  0  0  3  0  0  0  0  0  0
  -23.5870  -29.6940   19.9160 C   0  0  0  0  0  2  0  0  0  0  0  0
  -24.6530  -30.8670   21.8790 N   0  0  0  0  0  0  0  0  0  0  0  0
  -23.5030  -31.9060   23.5570 O   0  0  0  0  0  0  0  0  0  0  0  0
  -22.7060  -29.2730   22.2570 C   0  0  0  0  0  0  0  0  0  0  0  0
  -21.3730  -29.1160   22.1610 N   0  0  0  0  0  0  0  0  0  0  0  0
  -23.3930  -28.6060   23.0350 O   0  0  0  0  0  0  0  0  0  0  0  0
  -20.8720  -29.7050   21.5110 H   0  0  0  0  0  0  0  0  0  0  0  0
  -17.9960  -27.9230   22.7410 C   0  0  0  0  0  0  0  0  0  0  0  0
  -20.5700  -28.1410   22.9070 C   0  0  0  0  0  3  0  0  0  0  0  0
  -20.6240  -26.7480   22.2370 C   0  0  0  0  0  2  0  0  0  0  0  0
  -19.4740  -26.5050   21.2540 C   0  0  0  0  0  2  0  0  0  0  0  0
  -18.1240  -26.6210   21.9680 C   0  0  0  0  0  2  0  0  0  0  0  0
  -19.1440  -28.6440   23.1680 C   0  0  0  0  0  0  0  0  0  0  0  0
  -18.9670  -29.8630   23.8570 C   0  0  0  0  0  3  0  0  0  0  0  0
  -17.6770  -30.3620   24.1200 C   0  0  0  0  0  3  0  0  0  0  0  0
  -16.5450  -29.6380   23.7050 C   0  0  0  0  0  3  0  0  0  0  0  0
  -16.7070  -28.4190   23.0220 C   0  0  0  0  0  3  0  0  0  0  0  0
  -25.8630  -32.2720   23.6440 C   0  0  0  0  0  3  0  0  0  0  0  0
  -25.5410  -33.6540   24.0440 N   0  0  0  0  0  0  0  0  0  0  0  0
  -25.8380  -34.7490   23.3330 C   0  0  0  0  0  0  0  0  0  0  0  0
  -26.4740  -34.7050   22.2780 O   0  0  0  0  0  0  0  0  0  0  0  0
  -24.9700  -33.7610   24.8700 H   0  0  0  0  0  0  0  0  0  0  0  0
  -24.0730  -36.5360   23.1430 C   0  0  0  0  0  1  0  0  0  0  0  0
  -25.3550  -36.1100   23.8760 C   0  0  0  0  0  3  0  0  0  0  0  0
  -27.5090  -36.9970   24.6560 C   0  0  0  0  0  1  0  0  0  0  0  0
  -26.3690  -37.1830   23.7630 N   0  0  0  0  0  0  0  0  0  0  0  0
  -25.9560  -38.0910   23.9600 H   0  0  0  0  0  0  0  0  0  0  0  0
  -26.3950  -31.4580   24.8870 C   0  0  1  0  0  0  0  0  0  0  0  0
  -25.3140  -31.1780   25.9580 C   0  0  0  0  0  1  0  0  0  0  0  0
  -26.9790  -30.0950   24.4470 C   0  0  0  0  0  1  0  0  0  0  0  0
  -27.5510  -32.2310   25.5660 C   0  0  0  0  0  1  0  0  0  0  0  0
  1  2  2  0
  1  4  1  0
  2  6  1  0
  3  5  1  0
  4 46  1  0
  4  3  2  0
  5  7  1  0
  6 16  1  0
  6  5  2  0
  8 14  1  0
  8 16  1  0
  9 14  1  0
 10 11  1  0
 10  9  1  0
 12 11  1  0
 12 21  1  0
 12 13  1  0
 14 13  1  0
 15  8  2  0
 16 17  1  0
 18 19  2  0
 19 38  1  0
 20 19  1  0
 20 23  1  0
 21 22  1  0
 21 18  1  0
 22 20  2  0
 23 24  1  0
 24 25  2  0
 26 29  1  0
 26 25  1  0
 27 26  2  0
 28 27  1  0
 28 23  2  0
 29 30  1  0
 30 31  1  0
 31 32  2  0
 33 32  1  0
 33 37  1  0
 34 33  2  0
 35 30  2  0
 35 34  1  0
 36 35  1  0
 38 39  1  0
 39 42  1  0
 39 41  1  0
 40 38  2  0
 43 44  1  0
 43 18  1  0
 45 43  1  0
 47 49  1  0
 47 46  1  0
 47 48  1  0
 49 51  1  0
 50 61  2  0
 51 56  1  0
 52 60  1  0
 52 62  1  0
 53 59  1  0
 53 55  1  0
 54 60  1  0
 55 54  1  0
 56 55  2  0
 57 58  1  0
 57 51  2  0
 58 53  2  0
 59 52  1  0
 60 50  1  0
 62 64  2  0
 63 62  1  0
 65 63  1  0
 66 75  2  0
 66 71  1  0
 67 63  1  0
 67 71  1  0
 68 67  1  0
 69 70  1  0
 69 68  1  0
 70 66  1  0
 71 72  2  0
 72 73  1  0
 74 73  2  0
 75 74  1  0
 76 50  1  0
 76 77  1  0
 76 86  1  0
 77 80  1  0
 78 82  1  0
 78 77  1  0
 79 78  2  0
 82 81  1  0
 84 82  1  0
 84 85  1  0
 84 83  1  0
 86 89  1  1
 86 87  1  0
 88 86  1  0
M  ISO  4   8 100  16 100  47 101  49 101
M  END
>  <TORSDO>  (15) 
F 18

>  <SCORE>  (15) 
-15.484

>  <name>  (15) 
14

>  <ligand_id>  (15) 
14

>  <original_smiles>  (15) 
[H]c1c([H])c([H])c2c(c1[H])C([H])([H])C([H])([H])C([H])([H])C2([H])N([H])C(=O)C1([H])N(C(=O)C([H])(N([H])C(=O)C([H])(N([H])C([H])([H])[H])C([H])([H])[H])C(C([H])([H])[H])(C([H])([H])[H])C([H])([H])[H])C([H])([H])c2c([H])c(ON([H])C([H])([H])c3c([H])c([H])c(N([H])C(=O)N4C([H])([H])C([H])([H])C([H])([H])C([H])(n5nc(-c6c([H])c([H])c(Oc7c([H])c([H])c(F)c([H])c7F)c([H])c6[H])c(C(=O)N([H])[H])c5N([H])[H])C4([H])[H])c(C([H])([H])[H])c3[H])c([H])c([H])c2C1([H])[H]

>  <smiles>  (15) 
[H]c1c([H])c([H])c2c(c1[H])C([H])([H])C([H])([H])C([H])([H])C2([H])N([H])C(=O)C1([H])N(C(=O)C([H])(N([H])C(=O)C([H])(N([H])C([H])([H])[H])C([H])([H])[H])C(C([H])([H])[H])(C([H])([H])[H])C([H])([H])[H])C([H])([H])c2c([H])c(ON([H])C([H])([H])c3c([H])c([H])c(N([H])C(=O)N4C([H])([H])C([H])([H])C([H])([H])C([H])(n5nc(-c6c([H])c([H])c(Oc7c([H])c([H])c(F)c([H])c7F)c([H])c6[H])c(C(=O)N([H])[H])c5N([H])[H])C4([H])[H])c(C([H])([H])[H])c3[H])c([H])c([H])c2C1([H])[H]

$$$$
15:0:0
     RDKit          3D

 90 98  0  0  1  0  0  0  0  0999 V2000
  -28.2880  -21.6460   21.0870 C   0  0  0  0  0  3  0  0  0  0  0  0
  -27.9530  -20.2990   21.3800 C   0  0  0  0  0  3  0  0  0  0  0  0
  -30.0560  -20.7930   19.6820 C   0  0  0  0  0  3  0  0  0  0  0  0
  -29.3130  -22.0100   20.1890 C   0  0  0  0  0  0  0  0  0  0  0  0
  -29.7530  -19.3430   20.0030 C   0  0  0  0  0  0  0  0  0  0  0  0
  -28.6360  -19.1820   20.8470 C   0  0  0  0  0  0  0  0  0  0  0  0
  -28.1860  -17.9390   21.1450 F   0  0  0  0  0  0  0  0  0  0  0  0
  -29.5010  -23.6780   19.9460 C   0  0  0  0  0  2  0  0  0  0  0  0
  -28.4910  -24.7790   20.4750 N   0  0  0  0  0  0  0  0  0  0  0  0
  -27.5550  -24.5490   20.1680 H   0  0  0  0  0  0  0  0  0  0  0  0
  -28.7180  -26.3320   20.0870 O   0  0  0  0  0  0  0  0  0  0  0  0
  -24.9930  -31.8890   23.3590 C   0  0  0  0  0  0  0  0  0  0  0  0
  -27.6080  -27.2730   20.1580 C   0  0  0  0  0  0  0  0  0  0  0  0
  -23.7970  -30.5680   21.6510 C   0  0  0  0  0  3  0  0  0  0  0  0
  -25.2590  -29.0220   20.1860 C   0  0  0  0  0  0  0  0  0  0  0  0
  -26.3520  -30.8130   21.5220 C   0  0  0  0  0  2  0  0  0  0  0  0
  -26.4300  -29.4380   20.8320 C   0  0  0  0  0  0  0  0  0  0  0  0
  -27.5990  -28.5780   20.8060 C   0  0  0  0  0  3  0  0  0  0  0  0
  -26.4150  -26.9740   19.4560 C   0  0  0  0  0  3  0  0  0  0  0  0
  -25.2660  -27.8040   19.4830 C   0  0  0  0  0  3  0  0  0  0  0  0
  -24.0300  -29.9230   20.2520 C   0  0  0  0  0  2  0  0  0  0  0  0
  -25.0690  -31.1110   22.2350 N   0  0  0  0  0  0  0  0  0  0  0  0
  -23.9030  -32.1590   23.8870 O   0  0  0  0  0  0  0  0  0  0  0  0
  -23.1030  -29.5400   22.5790 C   0  0  0  0  0  0  0  0  0  0  0  0
  -21.7760  -29.3890   22.4390 N   0  0  0  0  0  0  0  0  0  0  0  0
  -23.7630  -28.8720   23.3810 O   0  0  0  0  0  0  0  0  0  0  0  0
  -21.2910  -30.0070   21.7940 H   0  0  0  0  0  0  0  0  0  0  0  0
  -18.3860  -28.1780   22.8500 C   0  0  0  0  0  0  0  0  0  0  0  0
  -20.9460  -28.4090   23.1490 C   0  0  0  0  0  3  0  0  0  0  0  0
  -21.0510  -27.0110   22.4960 C   0  0  0  0  0  2  0  0  0  0  0  0
  -19.9470  -26.7200   21.4780 C   0  0  0  0  0  2  0  0  0  0  0  0
  -18.5510  -26.8680   22.0960 C   0  0  0  0  0  2  0  0  0  0  0  0
  -19.5090  -28.9130   23.3150 C   0  0  0  0  0  0  0  0  0  0  0  0
  -19.2940  -30.1480   23.9690 C   0  0  0  0  0  3  0  0  0  0  0  0
  -17.9910  -30.6500   24.1440 C   0  0  0  0  0  3  0  0  0  0  0  0
  -16.8810  -29.9060   23.7020 C   0  0  0  0  0  3  0  0  0  0  0  0
  -17.0780  -28.6680   23.0590 C   0  0  0  0  0  3  0  0  0  0  0  0
  -26.2710  -32.4910   24.0170 C   0  0  0  0  0  3  0  0  0  0  0  0
  -26.7810  -31.6520   25.2560 C   0  0  1  0  0  0  0  0  0  0  0  0
  -25.6790  -31.3480   26.3000 C   0  0  0  0  0  1  0  0  0  0  0  0
  -27.3750  -30.3010   24.7960 C   0  0  0  0  0  1  0  0  0  0  0  0
  -27.9170  -32.4140   25.9780 C   0  0  0  0  0  1  0  0  0  0  0  0
  -25.9500  -33.8680   24.4250 N   0  0  0  0  0  0  0  0  0  0  0  0
  -26.2790  -34.9670   23.7400 C   0  0  0  0  0  0  0  0  0  0  0  0
  -26.9460  -34.9320   22.7030 O   0  0  0  0  0  0  0  0  0  0  0  0
  -25.3550  -33.9630   25.2330 H   0  0  0  0  0  0  0  0  0  0  0  0
  -24.5430  -36.7770   23.5250 C   0  0  0  0  0  1  0  0  0  0  0  0
  -25.7970  -36.3270   24.2890 C   0  0  0  0  0  3  0  0  0  0  0  0
  -27.9410  -37.1720   25.1400 C   0  0  0  0  0  1  0  0  0  0  0  0
  -26.8240  -37.3880   24.2240 N   0  0  0  0  0  0  0  0  0  0  0  0
  -26.4190  -38.2990   24.4270 H   0  0  0  0  0  0  0  0  0  0  0  0
  -30.5140  -17.9250   19.5180 C   0  0  0  0  0  2  0  0  0  0  0  0
  -30.8630  -15.1610   19.7590 C   0  0  0  0  0  0  0  0  0  0  0  0
  -30.6510  -12.7860   18.8690 C   0  0  0  0  0  2  0  0  0  0  0  0
  -29.6410  -12.7330   17.6980 C   0  0  0  0  0  2  0  0  0  0  0  0
  -28.2020  -12.5390   18.2180 C   0  0  0  0  0  2  0  0  0  0  0  0
  -27.8770  -13.4210   19.4560 C   0  0  0  0  0  3  0  0  0  0  0  0
  -29.0230  -13.4730   20.4880 C   0  0  0  0  0  2  0  0  0  0  0  0
  -30.2350  -13.9040   19.7690 N   0  0  0  0  0  0  0  0  0  0  0  0
  -32.0540  -15.1760   19.4400 O   0  0  0  0  0  0  0  0  0  0  0  0
  -30.1480  -16.4000   19.8680 N   0  0  0  0  0  0  0  0  0  0  0  0
  -29.1770  -16.2850   20.0900 H   0  0  0  0  0  0  0  0  0  0  0  0
  -25.5730  -13.9350   20.4400 C   0  0  0  0  0  0  0  0  0  0  0  0
  -24.5310  -13.1330   20.8350 C   0  0  0  0  0  0  0  0  0  0  0  0
  -24.9830  -11.7910   20.6680 C   0  0  0  0  0  0  0  0  0  0  0  0
  -26.5840  -13.0770   20.0510 N   0  0  0  0  0  0  0  0  0  0  0  0
  -26.2450  -11.7740   20.2500 N   0  0  0  0  0  0  0  0  0  0  0  0
  -24.2590  -10.5180   20.8360 C   0  0  0  0  0  0  0  0  0  0  0  0
  -24.7070   -9.5260   21.7360 C   0  0  0  0  0  3  0  0  0  0  0  0
  -23.9820   -8.3250   21.8970 C   0  0  0  0  0  3  0  0  0  0  0  0
  -22.7960   -8.1050   21.1560 C   0  0  0  0  0  0  0  0  0  0  0  0
  -22.3720   -9.0830   20.2400 C   0  0  0  0  0  3  0  0  0  0  0  0
  -23.0980  -10.2760   20.0750 C   0  0  0  0  0  3  0  0  0  0  0  0
  -22.0430   -6.9580   21.2240 O   0  0  0  0  0  0  0  0  0  0  0  0
  -21.9360   -6.2340   22.3860 C   0  0  0  0  0  0  0  0  0  0  0  0
  -21.4380   -6.8070   23.5750 C   0  0  0  0  0  3  0  0  0  0  0  0
  -21.2760   -6.0130   24.7280 C   0  0  0  0  0  3  0  0  0  0  0  0
  -21.6040   -4.6440   24.6930 C   0  0  0  0  0  0  0  0  0  0  0  0
  -22.0940   -4.0690   23.5060 C   0  0  0  0  0  3  0  0  0  0  0  0
  -22.2570   -4.8620   22.3570 C   0  0  0  0  0  0  0  0  0  0  0  0
  -22.7090   -4.2980   21.2110 F   0  0  0  0  0  0  0  0  0  0  0  0
  -21.4430   -3.8770   25.7970 F   0  0  0  0  0  0  0  0  0  0  0  0
  -23.1670  -13.5940   21.2520 C   0  0  0  0  0  0  0  0  0  0  0  0
  -22.5170  -12.8460   22.1400 N   0  0  0  0  0  0  0  0  0  0  0  0
  -22.6920  -14.6480   20.8340 O   0  0  0  0  0  0  0  0  0  0  0  0
  -22.9180  -11.9930   22.4980 H   0  0  0  0  0  0  0  0  0  0  0  0
  -21.6030  -13.1360   22.4630 H   0  0  0  0  0  0  0  0  0  0  0  0
  -25.7320  -15.3140   20.3620 N   0  0  0  0  0  0  0  0  0  0  0  0
  -25.0040  -15.9680   20.6290 H   0  0  0  0  0  0  0  0  0  0  0  0
  -26.6000  -15.7800   20.1270 H   0  0  0  0  0  0  0  0  0  0  0  0
  1  2  1  0
  3  5  2  0
  3  4  1  0
  4  1  2  0
  5  6  1  0
  6  7  1  0
  6  2  2  0
  8  4  1  0
  8  9  1  0
 10  9  1  0
 11 13  1  0
 11  9  1  0
 12 23  2  0
 13 18  1  0
 14 22  1  0
 14 24  1  0
 15 21  1  0
 15 17  1  0
 16 22  1  0
 17 16  1  0
 18 17  2  0
 19 20  1  0
 19 13  2  0
 20 15  2  0
 21 14  1  0
 22 12  1  0
 24 26  2  0
 25 24  1  0
 27 25  1  0
 28 37  2  0
 28 33  1  0
 29 25  1  0
 29 33  1  0
 30 29  1  0
 31 32  1  0
 31 30  1  0
 32 28  1  0
 33 34  2  0
 34 35  1  0
 36 35  2  0
 37 36  1  0
 38 12  1  0
 38 43  1  0
 38 39  1  0
 39 42  1  1
 39 40  1  0
 41 39  1  0
 43 46  1  0
 44 48  1  0
 44 43  1  0
 45 44  2  0
 48 47  1  0
 50 48  1  0
 50 51  1  0
 50 49  1  0
 52 61  1  0
 52  5  1  0
 53 59  1  0
 53 61  1  0
 54 59  1  0
 55 56  1  0
 55 54  1  0
 57 56  1  0
 57 66  1  0
 57 58  1  0
 59 58  1  0
 60 53  2  0
 61 62  1  0
 63 64  2  0
 64 83  1  0
 65 64  1  0
 65 68  1  0
 66 67  1  0
 66 63  1  0
 67 65  2  0
 68 69  1  0
 69 70  2  0
 71 74  1  0
 71 70  1  0
 72 71  2  0
 73 72  1  0
 73 68  2  0
 74 75  1  0
 75 76  1  0
 76 77  2  0
 78 77  1  0
 78 82  1  0
 79 78  2  0
 80 75  2  0
 80 79  1  0
 81 80  1  0
 83 84  1  0
 84 87  1  0
 84 86  1  0
 85 83  2  0
 88 63  1  0
 88 89  1  0
 90 88  1  0
M  ISO  4   9 101  11 101  53 100  61 100
M  END
>  <TORSDO>  (16) 
F 19

>  <SCORE>  (16) 
-12.423

>  <name>  (16) 
15

>  <ligand_id>  (16) 
15

>  <original_smiles>  (16) 
[H]c1c([H])c([H])c2c(c1[H])C([H])([H])C([H])([H])C([H])([H])C2([H])N([H])C(=O)C1([H])N(C(=O)C([H])(N([H])C(=O)C([H])(N([H])C([H])([H])[H])C([H])([H])[H])C(C([H])([H])[H])(C([H])([H])[H])C([H])([H])[H])C([H])([H])c2c([H])c(ON([H])C([H])([H])c3c([H])c([H])c(F)c(C([H])([H])N([H])C(=O)N4C([H])([H])C([H])([H])C([H])([H])C([H])(n5nc(-c6c([H])c([H])c(Oc7c([H])c([H])c(F)c([H])c7F)c([H])c6[H])c(C(=O)N([H])[H])c5N([H])[H])C4([H])[H])c3[H])c([H])c([H])c2C1([H])[H]

>  <smiles>  (16) 
[H]c1c([H])c([H])c2c(c1[H])C([H])([H])C([H])([H])C([H])([H])C2([H])N([H])C(=O)C1([H])N(C(=O)C([H])(N([H])C(=O)C([H])(N([H])C([H])([H])[H])C([H])([H])[H])C(C([H])([H])[H])(C([H])([H])[H])C([H])([H])[H])C([H])([H])c2c([H])c(ON([H])C([H])([H])c3c([H])c([H])c(F)c(C([H])([H])N([H])C(=O)N4C([H])([H])C([H])([H])C([H])([H])C([H])(n5nc(-c6c([H])c([H])c(Oc7c([H])c([H])c(F)c([H])c7F)c([H])c6[H])c(C(=O)N([H])[H])c5N([H])[H])C4([H])[H])c3[H])c([H])c([H])c2C1([H])[H]

$$$$
16:0:0
     RDKit          3D

 88 97  0  0  1  0  0  0  0  0999 V2000
  -30.8490  -15.5710   19.4040 C   0  0  0  0  0  0  0  0  0  0  0  0
  -31.1070  -12.8930   19.3530 C   0  0  0  0  0  2  0  0  0  0  0  0
  -30.2880  -12.1010   18.2880 C   0  0  0  0  0  2  0  0  0  0  0  0
  -28.8610  -11.8130   18.7750 C   0  0  0  0  0  2  0  0  0  0  0  0
  -28.2680  -13.0440   19.4960 C   0  0  0  0  0  3  0  0  0  0  0  0
  -29.2450  -13.6790   20.5150 C   0  0  0  0  0  2  0  0  0  0  0  0
  -30.4010  -14.2060   19.7450 N   0  0  0  0  0  0  0  0  0  0  0  0
  -32.0630  -15.4830   19.1300 O   0  0  0  0  0  0  0  0  0  0  0  0
  -27.5450  -18.7830   19.5910 C   0  0  0  0  0  2  0  0  0  0  0  0
  -28.3510  -16.9180   21.1870 C   0  0  0  0  0  2  0  0  0  0  0  0
  -28.0380  -20.0960   18.9790 C   0  0  0  0  0  2  0  0  0  0  0  0
  -30.1340  -18.5110   18.3680 C   0  0  0  0  0  2  0  0  0  0  0  0
  -28.4490  -18.3290   20.7130 C   0  0  0  0  0  3  0  0  0  0  0  0
  -29.6340  -17.3910   20.5290 C   0  0  0  0  0  3  0  0  0  0  0  0
  -30.0590  -16.9280   19.2280 N   0  0  0  0  0  0  0  0  0  0  0  0
  -29.1210  -19.9390   17.9850 N   0  0  2  0  0  4  0  0  0  0  0  0
  -28.6210  -19.5480   17.1990 H   0  0  0  0  0  0  0  0  0  0  0  0
  -25.9660  -13.7370   20.3220 C   0  0  0  0  0  0  0  0  0  0  0  0
  -24.8670  -13.0350   20.7220 C   0  0  0  0  0  0  0  0  0  0  0  0
  -25.2370  -11.6560   20.6580 C   0  0  0  0  0  0  0  0  0  0  0  0
  -26.9420  -12.7980   20.0440 N   0  0  0  0  0  0  0  0  0  0  0  0
  -26.5150  -11.5340   20.3090 N   0  0  0  0  0  0  0  0  0  0  0  0
  -24.4200  -10.4490   20.8510 C   0  0  0  0  0  0  0  0  0  0  0  0
  -24.8040   -9.4310   21.7520 C   0  0  0  0  0  3  0  0  0  0  0  0
  -23.9900   -8.2930   21.9370 C   0  0  0  0  0  3  0  0  0  0  0  0
  -22.7750   -8.1660   21.2220 C   0  0  0  0  0  0  0  0  0  0  0  0
  -22.4070   -9.1700   20.3100 C   0  0  0  0  0  3  0  0  0  0  0  0
  -23.2220  -10.3000   20.1230 C   0  0  0  0  0  3  0  0  0  0  0  0
  -21.9330   -7.0850   21.3190 O   0  0  0  0  0  0  0  0  0  0  0  0
  -21.8160   -6.3650   22.4810 C   0  0  0  0  0  0  0  0  0  0  0  0
  -21.4020   -6.9650   23.6910 C   0  0  0  0  0  3  0  0  0  0  0  0
  -21.2290   -6.1750   24.8450 C   0  0  0  0  0  3  0  0  0  0  0  0
  -21.4590   -4.7870   24.7890 C   0  0  0  0  0  0  0  0  0  0  0  0
  -21.8670   -4.1870   23.5850 C   0  0  0  0  0  3  0  0  0  0  0  0
  -22.0410   -4.9740   22.4330 C   0  0  0  0  0  0  0  0  0  0  0  0
  -22.4130   -4.3890   21.2700 F   0  0  0  0  0  0  0  0  0  0  0  0
  -21.2860   -4.0260   25.8960 F   0  0  0  0  0  0  0  0  0  0  0  0
  -23.5200  -13.6120   21.0370 C   0  0  0  0  0  0  0  0  0  0  0  0
  -22.7860  -12.9890   21.9510 N   0  0  0  0  0  0  0  0  0  0  0  0
  -23.1330  -14.6530   20.5100 O   0  0  0  0  0  0  0  0  0  0  0  0
  -23.1140  -12.1460   22.3970 H   0  0  0  0  0  0  0  0  0  0  0  0
  -21.8820  -13.3600   22.2080 H   0  0  0  0  0  0  0  0  0  0  0  0
  -26.2040  -15.0940   20.1340 N   0  0  0  0  0  0  0  0  0  0  0  0
  -25.4880  -15.7940   20.2940 H   0  0  0  0  0  0  0  0  0  0  0  0
  -27.0760  -15.4820   19.7980 H   0  0  0  0  0  0  0  0  0  0  0  0
  -29.3910  -21.5840   17.3700 C   0  0  0  0  0  2  0  0  0  0  0  0
  -28.5550  -23.3440   17.5410 C   0  0  0  0  0  2  0  0  0  0  0  0
  -28.9170  -25.0670   17.7580 O   0  0  0  0  0  0  0  0  0  0  0  0
  -26.3180  -29.8260   23.3480 C   0  0  0  0  0  0  0  0  0  0  0  0
  -28.1420  -26.3060   18.3020 C   0  0  0  0  0  0  0  0  0  0  0  0
  -25.0040  -29.5380   21.2920 C   0  0  0  0  0  3  0  0  0  0  0  0
  -26.2320  -28.4890   19.2440 C   0  0  0  0  0  0  0  0  0  0  0  0
  -27.5750  -29.2910   21.1700 C   0  0  0  0  0  2  0  0  0  0  0  0
  -27.4390  -28.3200   19.9330 C   0  0  0  0  0  0  0  0  0  0  0  0
  -28.3850  -27.2740   19.4430 C   0  0  0  0  0  3  0  0  0  0  0  0
  -26.9340  -26.6890   17.6650 C   0  0  0  0  0  3  0  0  0  0  0  0
  -26.0230  -27.7010   18.0990 C   0  0  0  0  0  3  0  0  0  0  0  0
  -25.1940  -29.5050   19.7480 C   0  0  0  0  0  2  0  0  0  0  0  0
  -26.3250  -29.5530   21.9980 N   0  0  0  0  0  0  0  0  0  0  0  0
  -25.2640  -30.0380   23.9720 O   0  0  0  0  0  0  0  0  0  0  0  0
  -24.0900  -28.3620   21.7360 C   0  0  0  0  0  0  0  0  0  0  0  0
  -22.7580  -28.5050   21.5930 N   0  0  0  0  0  0  0  0  0  0  0  0
  -24.5940  -27.3300   22.1820 O   0  0  0  0  0  0  0  0  0  0  0  0
  -22.4090  -29.3830   21.2360 H   0  0  0  0  0  0  0  0  0  0  0  0
  -19.1960  -27.7770   21.6110 C   0  0  0  0  0  0  0  0  0  0  0  0
  -21.7530  -27.4730   21.8790 C   0  0  0  0  0  3  0  0  0  0  0  0
  -21.6450  -26.4630   20.7140 C   0  0  0  0  0  2  0  0  0  0  0  0
  -20.5530  -26.8240   19.7010 C   0  0  0  0  0  2  0  0  0  0  0  0
  -19.1850  -26.8810   20.3850 C   0  0  0  0  0  2  0  0  0  0  0  0
  -20.4020  -28.0690   22.3030 C   0  0  0  0  0  0  0  0  0  0  0  0
  -20.3570  -28.9300   23.4200 C   0  0  0  0  0  3  0  0  0  0  0  0
  -19.1390  -29.4960   23.8450 C   0  0  0  0  0  3  0  0  0  0  0  0
  -17.9480  -29.1960   23.1630 C   0  0  0  0  0  3  0  0  0  0  0  0
  -17.9780  -28.3350   22.0520 C   0  0  0  0  0  3  0  0  0  0  0  0
  -27.6350  -29.8960   24.1780 C   0  0  0  0  0  3  0  0  0  0  0  0
  -27.4340  -30.8550   25.2830 N   0  0  0  0  0  0  0  0  0  0  0  0
  -27.9080  -32.1080   25.3150 C   0  0  0  0  0  0  0  0  0  0  0  0
  -28.6150  -32.5720   24.4170 O   0  0  0  0  0  0  0  0  0  0  0  0
  -26.8140  -30.5610   26.0240 H   0  0  0  0  0  0  0  0  0  0  0  0
  -26.4000  -33.9460   26.1550 C   0  0  0  0  0  1  0  0  0  0  0  0
  -27.5430  -32.9880   26.5300 C   0  0  0  0  0  3  0  0  0  0  0  0
  -29.7010  -32.9410   27.7040 C   0  0  0  0  0  1  0  0  0  0  0  0
  -28.6850  -33.7670   27.0590 N   0  0  0  0  0  0  0  0  0  0  0  0
  -28.3660  -34.4600   27.7320 H   0  0  0  0  0  0  0  0  0  0  0  0
  -28.0730  -28.4940   24.7610 C   0  0  1  0  0  0  0  0  0  0  0  0
  -26.9600  -27.7750   25.5590 C   0  0  0  0  0  1  0  0  0  0  0  0
  -28.5280  -27.5420   23.6340 C   0  0  0  0  0  1  0  0  0  0  0  0
  -29.2910  -28.6750   25.6970 C   0  0  0  0  0  1  0  0  0  0  0  0
  1  7  1  0
  2  7  1  0
  3  4  1  0
  3  2  1  0
  5  4  1  0
  5 21  1  0
  5  6  1  0
  7  6  1  0
  8  1  2  0
 11  9  1  0
 12 15  1  0
 13  9  1  0
 13 10  1  0
 14 13  1  0
 14 10  1  0
 15  1  1  0
 15 14  1  0
 16 12  1  0
 16 11  1  0
 16 17  1  6
 18 19  2  0
 19 38  1  0
 20 19  1  0
 20 23  1  0
 21 22  1  0
 21 18  1  0
 22 20  2  0
 23 24  1  0
 24 25  2  0
 26 29  1  0
 26 25  1  0
 27 26  2  0
 28 27  1  0
 28 23  2  0
 29 30  1  0
 30 31  1  0
 31 32  2  0
 33 32  1  0
 33 37  1  0
 34 33  2  0
 35 30  2  0
 35 34  1  0
 36 35  1  0
 38 39  1  0
 39 42  1  0
 39 41  1  0
 40 38  2  0
 43 44  1  0
 43 18  1  0
 45 43  1  0
 46 47  1  0
 46 16  1  0
 47 48  1  0
 48 50  1  0
 49 60  2  0
 50 55  1  0
 51 61  1  0
 51 59  1  0
 52 58  1  0
 52 54  1  0
 53 59  1  0
 54 53  1  0
 55 54  2  0
 56 57  1  0
 56 50  2  0
 57 52  2  0
 58 51  1  0
 59 49  1  0
 61 63  2  0
 62 61  1  0
 64 62  1  0
 65 74  2  0
 65 70  1  0
 66 62  1  0
 66 70  1  0
 67 66  1  0
 68 69  1  0
 68 67  1  0
 69 65  1  0
 70 71  2  0
 71 72  1  0
 73 72  2  0
 74 73  1  0
 75 49  1  0
 75 85  1  0
 75 76  1  0
 76 77  1  0
 76 79  1  0
 77 81  1  0
 78 77  2  0
 81 80  1  0
 81 83  1  0
 83 82  1  0
 83 84  1  0
 85 86  1  1
 85 88  1  0
 87 85  1  0
M  ISO  4   1 100  15 100  47 101  48 101
M  END
>  <TORSDO>  (17) 
F 17

>  <SCORE>  (17) 
-11.419

>  <name>  (17) 
16

>  <ligand_id>  (17) 
16

>  <original_smiles>  (17) 
[H]c1c([H])c([H])c2c(c1[H])C([H])([H])C([H])([H])C([H])([H])C2([H])N([H])C(=O)C1([H])N(C(=O)C([H])(N([H])C(=O)C([H])(N([H])C([H])([H])[H])C([H])([H])[H])C(C([H])([H])[H])(C([H])([H])[H])C([H])([H])[H])C([H])([H])c2c([H])c(OC([H])([H])C([H])([H])[N+]3([H])C([H])([H])N(C(=O)N4C([H])([H])C([H])([H])C([H])([H])C([H])(n5nc(-c6c([H])c([H])c(Oc7c([H])c([H])c(F)c([H])c7F)c([H])c6[H])c(C(=O)N([H])[H])c5N([H])[H])C4([H])[H])C4([H])C([H])([H])C4([H])C([H])([H])C3([H])[H])c([H])c([H])c2C1([H])[H]

>  <smiles>  (17) 
[H]c1c([H])c([H])c2c(c1[H])C([H])([H])C([H])([H])C([H])([H])C2([H])N([H])C(=O)C1([H])N(C(=O)C([H])(N([H])C(=O)C([H])(N([H])C([H])([H])[H])C([H])([H])[H])C(C([H])([H])[H])(C([H])([H])[H])C([H])([H])[H])C([H])([H])c2c([H])c(OC([H])([H])C([H])([H])[N+]3([H])C([H])([H])N(C(=O)N4C([H])([H])C([H])([H])C([H])([H])C([H])(n5nc(-c6c([H])c([H])c(Oc7c([H])c([H])c(F)c([H])c7F)c([H])c6[H])c(C(=O)N([H])[H])c5N([H])[H])C4([H])[H])C4([H])C([H])([H])C4([H])C([H])([H])C3([H])[H])c([H])c([H])c2C1([H])[H]

$$$$
17:0:0
     RDKit          3D

 91100  0  0  1  0  0  0  0  0999 V2000
  -28.9940  -24.4010   21.8230 C   0  0  0  0  0  2  0  0  0  0  0  0
  -29.0310  -22.8450   21.9740 C   0  0  0  0  0  2  0  0  0  0  0  0
  -28.5380  -23.3920   19.7420 C   0  0  0  0  0  2  0  0  0  0  0  0
  -28.1310  -24.7520   20.5950 C   0  0  0  0  0  3  0  0  0  0  0  0
  -29.0080  -22.2350   20.6400 N   0  0  0  0  0  0  0  0  0  0  0  0
  -28.4440  -19.8660   19.6780 C   0  0  0  0  0  3  0  0  0  0  0  0
  -28.6090  -18.4190   19.6300 C   0  0  0  0  0  3  0  0  0  0  0  0
  -30.4440  -18.5480   21.0880 C   0  0  0  0  0  3  0  0  0  0  0  0
  -29.2350  -20.7580   20.4760 C   0  0  0  0  0  0  0  0  0  0  0  0
  -29.6160  -17.6570   20.3270 C   0  0  0  0  0  0  0  0  0  0  0  0
  -30.2600  -19.9960   21.1690 C   0  0  0  0  0  0  0  0  0  0  0  0
  -31.1260  -20.6660   21.9660 F   0  0  0  0  0  0  0  0  0  0  0  0
  -30.4720  -15.0070   20.2490 C   0  0  0  0  0  0  0  0  0  0  0  0
  -30.3890  -12.6630   19.2790 C   0  0  0  0  0  2  0  0  0  0  0  0
  -29.4280  -12.6210   18.0670 C   0  0  0  0  0  2  0  0  0  0  0  0
  -27.9730  -12.3990   18.5220 C   0  0  0  0  0  2  0  0  0  0  0  0
  -27.5800  -13.3090   19.7140 C   0  0  0  0  0  3  0  0  0  0  0  0
  -28.6550  -13.3020   20.8230 C   0  0  0  0  0  2  0  0  0  0  0  0
  -29.9150  -13.7320   20.2000 N   0  0  0  0  0  0  0  0  0  0  0  0
  -31.6730  -15.1230   19.9750 O   0  0  0  0  0  0  0  0  0  0  0  0
  -29.5930  -16.1180   20.3670 N   0  0  0  0  0  0  0  0  0  0  0  0
  -28.6510  -15.7650   20.4120 H   0  0  0  0  0  0  0  0  0  0  0  0
  -25.2060  -13.8760   20.4900 C   0  0  0  0  0  0  0  0  0  0  0  0
  -24.1500  -13.0940   20.8710 C   0  0  0  0  0  0  0  0  0  0  0  0
  -24.6200  -11.7450   20.8220 C   0  0  0  0  0  0  0  0  0  0  0  0
  -26.2490  -13.0040   20.2290 N   0  0  0  0  0  0  0  0  0  0  0  0
  -25.9060  -11.7160   20.4930 N   0  0  0  0  0  0  0  0  0  0  0  0
  -23.9000  -10.4790   21.0090 C   0  0  0  0  0  0  0  0  0  0  0  0
  -24.3270   -9.5190   21.9510 C   0  0  0  0  0  3  0  0  0  0  0  0
  -23.6070   -8.3180   22.1270 C   0  0  0  0  0  3  0  0  0  0  0  0
  -22.4430   -8.0700   21.3590 C   0  0  0  0  0  0  0  0  0  0  0  0
  -22.0360   -9.0180   20.4050 C   0  0  0  0  0  3  0  0  0  0  0  0
  -22.7580  -10.2100   20.2280 C   0  0  0  0  0  3  0  0  0  0  0  0
  -21.6950   -6.9210   21.4440 O   0  0  0  0  0  0  0  0  0  0  0  0
  -21.6110   -6.2000   22.6080 C   0  0  0  0  0  0  0  0  0  0  0  0
  -21.1240   -6.7720   23.8050 C   0  0  0  0  0  3  0  0  0  0  0  0
  -20.9900   -5.9770   24.9610 C   0  0  0  0  0  3  0  0  0  0  0  0
  -21.3300   -4.6120   24.9200 C   0  0  0  0  0  0  0  0  0  0  0  0
  -21.8100   -4.0390   23.7290 C   0  0  0  0  0  3  0  0  0  0  0  0
  -21.9460   -4.8310   22.5750 C   0  0  0  0  0  0  0  0  0  0  0  0
  -22.3880   -4.2710   21.4240 F   0  0  0  0  0  0  0  0  0  0  0  0
  -21.1940   -3.8450   26.0280 F   0  0  0  0  0  0  0  0  0  0  0  0
  -22.7560  -13.5640   21.1650 C   0  0  0  0  0  0  0  0  0  0  0  0
  -22.0400  -12.8580   22.0330 N   0  0  0  0  0  0  0  0  0  0  0  0
  -22.3090  -14.5930   20.6600 O   0  0  0  0  0  0  0  0  0  0  0  0
  -22.4140  -12.0240   22.4610 H   0  0  0  0  0  0  0  0  0  0  0  0
  -21.1050  -13.1550   22.2720 H   0  0  0  0  0  0  0  0  0  0  0  0
  -25.3570  -15.2500   20.3210 N   0  0  0  0  0  0  0  0  0  0  0  0
  -24.5740  -15.8850   20.4340 H   0  0  0  0  0  0  0  0  0  0  0  0
  -26.1740  -15.6990   19.9330 H   0  0  0  0  0  0  0  0  0  0  0  0
  -28.2890  -26.2580   20.2250 O   0  0  0  0  0  0  0  0  0  0  0  0
  -24.6070  -31.9040   23.2340 C   0  0  0  0  0  0  0  0  0  0  0  0
  -27.2020  -27.2020   20.2210 C   0  0  0  0  0  0  0  0  0  0  0  0
  -23.4090  -30.5060   21.5930 C   0  0  0  0  0  3  0  0  0  0  0  0
  -24.8610  -28.9250   20.1790 C   0  0  0  0  0  0  0  0  0  0  0  0
  -25.9610  -30.7800   21.4250 C   0  0  0  0  0  2  0  0  0  0  0  0
  -26.0390  -29.3860   20.7820 C   0  0  0  0  0  0  0  0  0  0  0  0
  -27.2120  -28.5430   20.7780 C   0  0  0  0  0  3  0  0  0  0  0  0
  -25.9970  -26.8310   19.5900 C   0  0  0  0  0  3  0  0  0  0  0  0
  -24.8520  -27.6600   19.5680 C   0  0  0  0  0  3  0  0  0  0  0  0
  -23.6340  -29.8210   20.2170 C   0  0  0  0  0  2  0  0  0  0  0  0
  -24.6790  -31.0860   22.1390 N   0  0  0  0  0  0  0  0  0  0  0  0
  -23.5210  -32.1870   23.7630 O   0  0  0  0  0  0  0  0  0  0  0  0
  -22.7290  -29.5030   22.5570 C   0  0  0  0  0  0  0  0  0  0  0  0
  -21.4030  -29.3230   22.4220 N   0  0  0  0  0  0  0  0  0  0  0  0
  -23.3980  -28.8850   23.3900 O   0  0  0  0  0  0  0  0  0  0  0  0
  -20.9180  -29.8740   21.7290 H   0  0  0  0  0  0  0  0  0  0  0  0
  -18.0270  -28.1000   22.9030 C   0  0  0  0  0  0  0  0  0  0  0  0
  -20.5820  -28.3850   23.1920 C   0  0  0  0  0  3  0  0  0  0  0  0
  -20.7000  -26.9490   22.6300 C   0  0  0  0  0  2  0  0  0  0  0  0
  -19.6100  -26.6100   21.6080 C   0  0  0  0  0  2  0  0  0  0  0  0
  -18.2210  -26.7480   22.2370 C   0  0  0  0  0  2  0  0  0  0  0  0
  -19.1360  -28.8750   23.3380 C   0  0  0  0  0  0  0  0  0  0  0  0
  -18.8990  -30.1390   23.9220 C   0  0  0  0  0  3  0  0  0  0  0  0
  -17.5880  -30.6280   24.0750 C   0  0  0  0  0  3  0  0  0  0  0  0
  -16.4950  -29.8510   23.6540 C   0  0  0  0  0  3  0  0  0  0  0  0
  -16.7150  -28.5890   23.0760 C   0  0  0  0  0  3  0  0  0  0  0  0
  -25.8850  -32.5410   23.8630 C   0  0  0  0  0  3  0  0  0  0  0  0
  -25.5750  -33.9410   24.1930 N   0  0  0  0  0  0  0  0  0  0  0  0
  -25.9000  -34.9950   23.4330 C   0  0  0  0  0  0  0  0  0  0  0  0
  -26.5620  -34.8920   22.3960 O   0  0  0  0  0  0  0  0  0  0  0  0
  -24.9890  -34.0960   25.0010 H   0  0  0  0  0  0  0  0  0  0  0  0
  -24.1660  -36.7880   23.1000 C   0  0  0  0  0  1  0  0  0  0  0  0
  -25.4190  -36.3850   23.8950 C   0  0  0  0  0  3  0  0  0  0  0  0
  -27.5650  -37.2740   24.6950 C   0  0  0  0  0  1  0  0  0  0  0  0
  -26.4480  -37.4410   23.7680 N   0  0  0  0  0  0  0  0  0  0  0  0
  -26.0430  -38.3590   23.9250 H   0  0  0  0  0  0  0  0  0  0  0  0
  -26.3910  -31.7760   25.1470 C   0  0  1  0  0  0  0  0  0  0  0  0
  -25.2920  -31.5500   26.2120 C   0  0  0  0  0  1  0  0  0  0  0  0
  -26.9710  -30.3940   24.7670 C   0  0  0  0  0  1  0  0  0  0  0  0
  -27.5410  -32.5680   25.8110 C   0  0  0  0  0  1  0  0  0  0  0  0
  1  2  1  0
  3  4  1  0
  3  5  1  0
  4 51  1  0
  4  1  1  0
  5  2  1  0
  6  9  1  0
  7  6  2  0
  7 10  1  0
  8 11  1  0
  9  5  1  0
  9 11  2  0
 10 21  1  0
 10  8  2  0
 11 12  1  0
 13 21  1  0
 14 19  1  0
 15 16  1  0
 15 14  1  0
 17 16  1  0
 17 26  1  0
 17 18  1  0
 19 13  1  0
 19 18  1  0
 20 13  2  0
 21 22  1  0
 23 24  2  0
 24 43  1  0
 25 24  1  0
 25 28  1  0
 26 23  1  0
 26 27  1  0
 27 25  2  0
 28 29  1  0
 29 30  2  0
 31 34  1  0
 31 30  1  0
 32 31  2  0
 33 32  1  0
 33 28  2  0
 34 35  1  0
 35 36  1  0
 36 37  2  0
 38 37  1  0
 38 42  1  0
 39 38  2  0
 40 35  2  0
 40 39  1  0
 41 40  1  0
 43 44  1  0
 44 47  1  0
 44 46  1  0
 45 43  2  0
 48 49  1  0
 48 23  1  0
 50 48  1  0
 52 63  2  0
 53 51  1  0
 53 58  1  0
 54 62  1  0
 54 64  1  0
 55 61  1  0
 55 57  1  0
 56 62  1  0
 57 56  1  0
 58 57  2  0
 59 53  2  0
 60 59  1  0
 60 55  2  0
 61 54  1  0
 62 52  1  0
 64 66  2  0
 65 64  1  0
 67 65  1  0
 68 77  2  0
 68 73  1  0
 69 65  1  0
 69 73  1  0
 70 69  1  0
 71 72  1  0
 71 70  1  0
 72 68  1  0
 73 74  2  0
 74 75  1  0
 76 75  2  0
 77 76  1  0
 78 52  1  0
 78 79  1  0
 78 88  1  0
 79 82  1  0
 80 84  1  0
 80 79  1  0
 81 80  2  0
 84 83  1  0
 86 84  1  0
 86 87  1  0
 86 85  1  0
 88 91  1  1
 88 89  1  0
 90 88  1  0
M  ISO  4   4 101  13 100  21 100  51 101
M  END
>  <TORSDO>  (18) 
F 17

>  <SCORE>  (18) 
-15.402

>  <name>  (18) 
17

>  <ligand_id>  (18) 
17

>  <original_smiles>  (18) 
[H]c1c([H])c([H])c2c(c1[H])C([H])([H])C([H])([H])C([H])([H])C2([H])N([H])C(=O)C1([H])N(C(=O)C([H])(N([H])C(=O)C([H])(N([H])C([H])([H])[H])C([H])([H])[H])C(C([H])([H])[H])(C([H])([H])[H])C([H])([H])[H])C([H])([H])c2c([H])c(OC3([H])C([H])([H])N(c4c([H])c([H])c(N([H])C(=O)N5C([H])([H])C([H])([H])C([H])([H])C([H])(n6nc(-c7c([H])c([H])c(Oc8c([H])c([H])c(F)c([H])c8F)c([H])c7[H])c(C(=O)N([H])[H])c6N([H])[H])C5([H])[H])c([H])c4F)C([H])([H])C3([H])[H])c([H])c([H])c2C1([H])[H]

>  <smiles>  (18) 
[H]c1c([H])c([H])c2c(c1[H])C([H])([H])C([H])([H])C([H])([H])C2([H])N([H])C(=O)C1([H])N(C(=O)C([H])(N([H])C(=O)C([H])(N([H])C([H])([H])[H])C([H])([H])[H])C(C([H])([H])[H])(C([H])([H])[H])C([H])([H])[H])C([H])([H])c2c([H])c(OC3([H])C([H])([H])N(c4c([H])c([H])c(N([H])C(=O)N5C([H])([H])C([H])([H])C([H])([H])C([H])(n6nc(-c7c([H])c([H])c(Oc8c([H])c([H])c(F)c([H])c8F)c([H])c7[H])c(C(=O)N([H])[H])c6N([H])[H])C5([H])[H])c([H])c4F)C([H])([H])C3([H])[H])c([H])c([H])c2C1([H])[H]

$$$$
18:0:0
     RDKit          3D

 99109  0  0  1  0  0  0  0  0999 V2000
  -31.4090  -21.5630   21.2570 C   0  0  0  0  0  0  0  0  0  0  0  0
  -29.1710  -22.7260   22.7260 C   0  0  0  0  0  2  0  0  0  0  0  0
  -32.0020  -23.9440   20.4070 C   0  0  0  0  0  2  0  0  0  0  0  0
  -29.1680  -21.2410   22.3190 C   0  0  0  0  0  2  0  0  0  0  0  0
  -31.2010  -23.9650   19.0870 C   0  0  0  0  0  2  0  0  0  0  0  0
  -29.0990  -23.6460   20.3330 C   0  0  0  0  0  2  0  0  0  0  0  0
  -31.3130  -23.0910   21.4990 C   0  0  0  0  0  3  0  0  0  0  0  0
  -29.8690  -23.5950   21.6770 C   0  0  0  0  0  3  0  0  0  0  0  0
  -30.4300  -20.7430   21.7310 N   0  0  0  0  0  0  0  0  0  0  0  0
  -29.8130  -24.4520   19.3070 N   0  0  2  0  0  4  0  0  0  0  0  0
  -32.3940  -21.1350   20.6450 O   0  0  0  0  0  0  0  0  0  0  0  0
  -29.8840  -25.3880   19.6880 H   0  0  0  0  0  0  0  0  0  0  0  0
  -31.4400  -18.5550   22.2950 C   0  0  0  0  0  3  0  0  0  0  0  0
  -29.6490  -18.6760   20.6440 C   0  0  0  0  0  3  0  0  0  0  0  0
  -31.4890  -17.1530   22.1420 C   0  0  0  0  0  3  0  0  0  0  0  0
  -29.6970  -17.2780   20.4910 C   0  0  0  0  0  3  0  0  0  0  0  0
  -30.5170  -19.3270   21.5490 C   0  0  0  0  0  0  0  0  0  0  0  0
  -30.6160  -16.5130   21.2370 C   0  0  0  0  0  0  0  0  0  0  0  0
  -30.9040  -14.3890   20.0680 C   0  0  0  0  0  0  0  0  0  0  0  0
  -30.4770  -12.2730   18.8600 C   0  0  0  0  0  2  0  0  0  0  0  0
  -29.4480  -12.4740   17.7310 C   0  0  0  0  0  2  0  0  0  0  0  0
  -28.0110  -12.3300   18.2680 C   0  0  0  0  0  2  0  0  0  0  0  0
  -27.7670  -13.1860   19.5370 C   0  0  0  0  0  3  0  0  0  0  0  0
  -28.8910  -12.9600   20.5720 C   0  0  0  0  0  2  0  0  0  0  0  0
  -30.1910  -13.2400   19.9290 N   0  0  0  0  0  0  0  0  0  0  0  0
  -31.8400  -14.7080   19.3270 O   0  0  0  0  0  0  0  0  0  0  0  0
  -30.5750  -15.1050   21.1510 N   0  0  0  0  0  0  0  0  0  0  0  0
  -29.8820  -14.6550   21.7310 H   0  0  0  0  0  0  0  0  0  0  0  0
  -25.4670  -13.8220   20.5080 C   0  0  0  0  0  0  0  0  0  0  0  0
  -24.4030  -13.0600   20.9110 C   0  0  0  0  0  0  0  0  0  0  0  0
  -24.7980  -11.6990   20.7210 C   0  0  0  0  0  0  0  0  0  0  0  0
  -26.4470  -12.9250   20.1090 N   0  0  0  0  0  0  0  0  0  0  0  0
  -26.0510  -11.6390   20.2890 N   0  0  0  0  0  0  0  0  0  0  0  0
  -24.0370  -10.4520   20.8700 C   0  0  0  0  0  0  0  0  0  0  0  0
  -24.3960   -9.4770   21.8260 C   0  0  0  0  0  3  0  0  0  0  0  0
  -23.6350   -8.2960   21.9650 C   0  0  0  0  0  3  0  0  0  0  0  0
  -22.5030   -8.0810   21.1440 C   0  0  0  0  0  0  0  0  0  0  0  0
  -22.1620   -9.0440   20.1790 C   0  0  0  0  0  3  0  0  0  0  0  0
  -22.9230  -10.2180   20.0390 C   0  0  0  0  0  3  0  0  0  0  0  0
  -21.7210   -6.9520   21.1890 O   0  0  0  0  0  0  0  0  0  0  0  0
  -21.4670   -6.3000   22.3680 C   0  0  0  0  0  0  0  0  0  0  0  0
  -20.7890   -6.9270   23.4370 C   0  0  0  0  0  3  0  0  0  0  0  0
  -20.4870   -6.1980   24.6040 C   0  0  0  0  0  3  0  0  0  0  0  0
  -20.8540   -4.8420   24.7030 C   0  0  0  0  0  0  0  0  0  0  0  0
  -21.5250   -4.2160   23.6380 C   0  0  0  0  0  3  0  0  0  0  0  0
  -21.8290   -4.9420   22.4740 C   0  0  0  0  0  0  0  0  0  0  0  0
  -22.4550   -4.3280   21.4420 F   0  0  0  0  0  0  0  0  0  0  0  0
  -20.5590   -4.1390   25.8210 F   0  0  0  0  0  0  0  0  0  0  0  0
  -23.0590  -13.5620   21.3550 C   0  0  0  0  0  0  0  0  0  0  0  0
  -22.3880  -12.8200   22.2290 N   0  0  0  0  0  0  0  0  0  0  0  0
  -22.6180  -14.6430   20.9670 O   0  0  0  0  0  0  0  0  0  0  0  0
  -22.7570  -11.9420   22.5600 H   0  0  0  0  0  0  0  0  0  0  0  0
  -21.4900  -13.1330   22.5720 H   0  0  0  0  0  0  0  0  0  0  0  0
  -25.6770  -15.1950   20.4310 N   0  0  0  0  0  0  0  0  0  0  0  0
  -24.9550  -15.8660   20.6730 H   0  0  0  0  0  0  0  0  0  0  0  0
  -26.5180  -15.6280   20.0700 H   0  0  0  0  0  0  0  0  0  0  0  0
  -29.0180  -24.6030   18.0550 C   0  0  0  0  0  2  0  0  0  0  0  0
  -28.5750  -26.0620   17.8440 C   0  0  0  0  0  2  0  0  0  0  0  0
  -28.2220  -26.6330   19.1030 O   0  0  0  0  0  0  0  0  0  0  0  0
  -24.6420  -31.4570   22.8480 C   0  0  0  0  0  0  0  0  0  0  0  0
  -27.0430  -27.3330   19.1980 C   0  0  0  0  0  0  0  0  0  0  0  0
  -23.3140  -30.2340   21.1520 C   0  0  0  0  0  3  0  0  0  0  0  0
  -24.6590  -28.8180   19.5070 C   0  0  0  0  0  0  0  0  0  0  0  0
  -25.8260  -30.5840   20.8420 C   0  0  0  0  0  2  0  0  0  0  0  0
  -25.8510  -29.2800   20.0750 C   0  0  0  0  0  0  0  0  0  0  0  0
  -27.0400  -28.5390   19.9340 C   0  0  0  0  0  3  0  0  0  0  0  0
  -25.8320  -26.8650   18.6400 C   0  0  0  0  0  3  0  0  0  0  0  0
  -24.6400  -27.6040   18.7940 C   0  0  0  0  0  3  0  0  0  0  0  0
  -23.4320  -29.6800   19.7070 C   0  0  0  0  0  2  0  0  0  0  0  0
  -24.6140  -30.7670   21.6730 N   0  0  0  0  0  0  0  0  0  0  0  0
  -23.6020  -31.6920   23.4770 O   0  0  0  0  0  0  0  0  0  0  0  0
  -22.7020  -29.1360   22.0520 C   0  0  0  0  0  0  0  0  0  0  0  0
  -21.3670  -28.9970   21.9980 N   0  0  0  0  0  0  0  0  0  0  0  0
  -23.4180  -28.4160   22.7510 O   0  0  0  0  0  0  0  0  0  0  0  0
  -20.8490  -29.6320   21.4060 H   0  0  0  0  0  0  0  0  0  0  0  0
  -17.9970  -27.8560   22.6280 C   0  0  0  0  0  0  0  0  0  0  0  0
  -20.5760  -28.0060   22.7250 C   0  0  0  0  0  3  0  0  0  0  0  0
  -20.5800  -26.6440   21.9940 C   0  0  0  0  0  2  0  0  0  0  0  0
  -19.3960  -26.4690   21.0390 C   0  0  0  0  0  2  0  0  0  0  0  0
  -18.0710  -26.5840   21.8000 C   0  0  0  0  0  2  0  0  0  0  0  0
  -19.1730  -28.5330   23.0480 C   0  0  0  0  0  0  0  0  0  0  0  0
  -19.0470  -29.7300   23.7850 C   0  0  0  0  0  3  0  0  0  0  0  0
  -17.7780  -30.2520   24.1000 C   0  0  0  0  0  3  0  0  0  0  0  0
  -16.6180  -29.5710   23.6920 C   0  0  0  0  0  3  0  0  0  0  0  0
  -16.7290  -28.3730   22.9640 C   0  0  0  0  0  3  0  0  0  0  0  0
  -25.9770  -32.0060   23.4470 C   0  0  0  0  0  3  0  0  0  0  0  0
  -26.5630  -31.1010   24.5990 C   0  0  1  0  0  0  0  0  0  0  0  0
  -25.5380  -30.7650   25.7090 C   0  0  0  0  0  1  0  0  0  0  0  0
  -27.0900  -29.7630   24.0280 C   0  0  0  0  0  1  0  0  0  0  0  0
  -27.7700  -31.8090   25.2600 C   0  0  0  0  0  1  0  0  0  0  0  0
  -25.7110  -33.3650   23.9340 N   0  0  0  0  0  0  0  0  0  0  0  0
  -26.0450  -34.4860   23.2800 C   0  0  0  0  0  0  0  0  0  0  0  0
  -26.6790  -34.4810   22.2200 O   0  0  0  0  0  0  0  0  0  0  0  0
  -25.1420  -33.4480   24.7650 H   0  0  0  0  0  0  0  0  0  0  0  0
  -24.3530  -36.3430   23.1720 C   0  0  0  0  0  1  0  0  0  0  0  0
  -25.6060  -35.8270   23.8970 C   0  0  0  0  0  3  0  0  0  0  0  0
  -27.7760  -36.5770   24.7690 C   0  0  0  0  0  1  0  0  0  0  0  0
  -26.6620  -36.8630   23.8690 N   0  0  0  0  0  0  0  0  0  0  0  0
  -26.2800  -37.7720   24.1160 H   0  0  0  0  0  0  0  0  0  0  0  0
  1  7  1  0
  1  9  1  0
  4  2  1  0
  5 10  1  0
  5  3  1  0
  7  3  1  0
  7  8  1  0
  8  6  1  0
  8  2  1  0
  9  4  1  0
 10 12  1  1
 10  6  1  0
 11  1  2  0
 14 17  1  0
 15 13  1  0
 16 14  2  0
 16 18  1  0
 17  9  1  0
 17 13  2  0
 18 15  2  0
 19 27  1  0
 20 25  1  0
 21 22  1  0
 21 20  1  0
 23 22  1  0
 23 32  1  0
 23 24  1  0
 25 19  1  0
 25 24  1  0
 26 19  2  0
 27 18  1  0
 27 28  1  0
 29 30  2  0
 30 49  1  0
 31 34  1  0
 31 30  1  0
 32 33  1  0
 32 29  1  0
 33 31  2  0
 34 35  1  0
 35 36  2  0
 37 40  1  0
 37 36  1  0
 38 37  2  0
 39 38  1  0
 39 34  2  0
 40 41  1  0
 41 46  2  0
 41 42  1  0
 42 43  2  0
 43 44  1  0
 44 48  1  0
 45 44  2  0
 46 45  1  0
 47 46  1  0
 49 50  1  0
 50 52  1  0
 50 53  1  0
 51 49  2  0
 54 29  1  0
 54 55  1  0
 56 54  1  0
 57 10  1  0
 58 57  1  0
 58 59  1  0
 59 61  1  0
 60 71  2  0
 61 66  1  0
 62 70  1  0
 62 72  1  0
 63 69  1  0
 63 65  1  0
 64 70  1  0
 65 64  1  0
 66 65  2  0
 67 68  1  0
 67 61  2  0
 68 63  2  0
 69 62  1  0
 70 60  1  0
 72 74  2  0
 73 72  1  0
 75 73  1  0
 76 85  2  0
 76 81  1  0
 77 73  1  0
 77 81  1  0
 78 77  1  0
 79 80  1  0
 79 78  1  0
 80 76  1  0
 81 82  2  0
 82 83  1  0
 84 83  2  0
 85 84  1  0
 86 60  1  0
 86 91  1  0
 86 87  1  0
 87 90  1  1
 87 88  1  0
 89 87  1  0
 91 94  1  0
 92 96  1  0
 92 91  1  0
 93 92  2  0
 96 95  1  0
 98 96  1  0
 98 99  1  0
 98 97  1  0
M  ISO  4  19 100  27 100  58 101  59 101
M  END
>  <TORSDO>  (19) 
F 19

>  <SCORE>  (19) 
-11.820

>  <name>  (19) 
18

>  <ligand_id>  (19) 
18

>  <original_smiles>  (19) 
[H]c1c([H])c([H])c2c(c1[H])C([H])([H])C([H])([H])C([H])([H])C2([H])N([H])C(=O)C1([H])N(C(=O)C([H])(N([H])C(=O)C([H])(N([H])C([H])([H])[H])C([H])([H])[H])C(C([H])([H])[H])(C([H])([H])[H])C([H])([H])[H])C([H])([H])c2c([H])c(OC([H])([H])C([H])([H])[N+]3([H])C([H])([H])C([H])([H])C4([H])C(=O)N(c5c([H])c([H])c(N([H])C(=O)N6C([H])([H])C([H])([H])C([H])([H])C([H])(n7nc(-c8c([H])c([H])c(Oc9c([H])c([H])c(F)c([H])c9F)c([H])c8[H])c(C(=O)N([H])[H])c7N([H])[H])C6([H])[H])c([H])c5[H])C([H])([H])C([H])([H])C4([H])C3([H])[H])c([H])c([H])c2C1([H])[H]

>  <smiles>  (19) 
[H]c1c([H])c([H])c2c(c1[H])C([H])([H])C([H])([H])C([H])([H])C2([H])N([H])C(=O)C1([H])N(C(=O)C([H])(N([H])C(=O)C([H])(N([H])C([H])([H])[H])C([H])([H])[H])C(C([H])([H])[H])(C([H])([H])[H])C([H])([H])[H])C([H])([H])c2c([H])c(OC([H])([H])C([H])([H])[N+]3([H])C([H])([H])C([H])([H])C4([H])C(=O)N(c5c([H])c([H])c(N([H])C(=O)N6C([H])([H])C([H])([H])C([H])([H])C([H])(n7nc(-c8c([H])c([H])c(Oc9c([H])c([H])c(F)c([H])c9F)c([H])c8[H])c(C(=O)N([H])[H])c7N([H])[H])C6([H])[H])c([H])c5[H])C([H])([H])C([H])([H])C4([H])C3([H])[H])c([H])c([H])c2C1([H])[H]

$$$$
19:0:0
     RDKit          3D

 93101  0  0  1  0  0  0  0  0999 V2000
  -30.1390  -21.6780   20.5770 C   0  0  0  0  0  2  0  0  0  0  0  0
  -28.8320  -19.3700   20.5730 C   0  0  0  0  0  3  0  0  0  0  0  0
  -31.2240  -19.3430   20.3590 C   0  0  0  0  0  3  0  0  0  0  0  0
  -30.0330  -20.1140   20.4450 C   0  0  0  0  0  0  0  0  0  0  0  0
  -30.0330  -17.1730   20.5400 C   0  0  0  0  0  0  0  0  0  0  0  0
  -28.8390  -17.9420   20.6140 C   0  0  0  0  0  0  0  0  0  0  0  0
  -31.2410  -17.9210   20.4180 C   0  0  0  0  0  0  0  0  0  0  0  0
  -27.6590  -17.2870   20.7500 F   0  0  0  0  0  0  0  0  0  0  0  0
  -32.4490  -17.3140   20.4010 F   0  0  0  0  0  0  0  0  0  0  0  0
  -30.6230  -14.6660   20.1370 C   0  0  0  0  0  0  0  0  0  0  0  0
  -30.2920  -12.4810   19.0020 C   0  0  0  0  0  2  0  0  0  0  0  0
  -29.2940  -12.6860   17.8410 C   0  0  0  0  0  2  0  0  0  0  0  0
  -27.8430  -12.5330   18.3330 C   0  0  0  0  0  2  0  0  0  0  0  0
  -27.5650  -13.3490   19.6230 C   0  0  0  0  0  3  0  0  0  0  0  0
  -28.6720  -13.1360   20.6800 C   0  0  0  0  0  2  0  0  0  0  0  0
  -29.9620  -13.4680   20.0510 N   0  0  0  0  0  0  0  0  0  0  0  0
  -31.7560  -14.7880   19.6660 O   0  0  0  0  0  0  0  0  0  0  0  0
  -29.9010  -15.7170   20.6280 N   0  0  0  0  0  0  0  0  0  0  0  0
  -29.0090  -15.4330   21.0070 H   0  0  0  0  0  0  0  0  0  0  0  0
  -25.2120  -13.9590   20.4600 C   0  0  0  0  0  0  0  0  0  0  0  0
  -24.1530  -13.1900   20.8590 C   0  0  0  0  0  0  0  0  0  0  0  0
  -24.5970  -11.8350   20.7790 C   0  0  0  0  0  0  0  0  0  0  0  0
  -26.2350  -13.0730   20.1610 N   0  0  0  0  0  0  0  0  0  0  0  0
  -25.8710  -11.7880   20.4110 N   0  0  0  0  0  0  0  0  0  0  0  0
  -23.8650  -10.5770   20.9790 C   0  0  0  0  0  0  0  0  0  0  0  0
  -24.3130   -9.5980   21.8930 C   0  0  0  0  0  3  0  0  0  0  0  0
  -23.5800   -8.4070   22.0810 C   0  0  0  0  0  3  0  0  0  0  0  0
  -22.3880   -8.1830   21.3520 C   0  0  0  0  0  0  0  0  0  0  0  0
  -21.9580   -9.1510   20.4270 C   0  0  0  0  0  3  0  0  0  0  0  0
  -22.6910  -10.3360   20.2380 C   0  0  0  0  0  3  0  0  0  0  0  0
  -21.6260   -7.0430   21.4480 O   0  0  0  0  0  0  0  0  0  0  0  0
  -21.5760   -6.3080   22.6050 C   0  0  0  0  0  0  0  0  0  0  0  0
  -21.1490   -6.8720   23.8260 C   0  0  0  0  0  3  0  0  0  0  0  0
  -21.0430   -6.0640   24.9760 C   0  0  0  0  0  3  0  0  0  0  0  0
  -21.3530   -4.6920   24.9040 C   0  0  0  0  0  0  0  0  0  0  0  0
  -21.7730   -4.1290   23.6860 C   0  0  0  0  0  3  0  0  0  0  0  0
  -21.8810   -4.9330   22.5400 C   0  0  0  0  0  0  0  0  0  0  0  0
  -22.2660   -4.3820   21.3630 F   0  0  0  0  0  0  0  0  0  0  0  0
  -21.2450   -3.9130   26.0050 F   0  0  0  0  0  0  0  0  0  0  0  0
  -22.7770  -13.6790   21.2100 C   0  0  0  0  0  0  0  0  0  0  0  0
  -22.0860  -12.9720   22.0970 N   0  0  0  0  0  0  0  0  0  0  0  0
  -22.3240  -14.7200   20.7330 O   0  0  0  0  0  0  0  0  0  0  0  0
  -22.4670  -12.1310   22.5020 H   0  0  0  0  0  0  0  0  0  0  0  0
  -21.1630  -13.2750   22.3760 H   0  0  0  0  0  0  0  0  0  0  0  0
  -25.3840  -15.3320   20.3130 N   0  0  0  0  0  0  0  0  0  0  0  0
  -24.6410  -15.9920   20.5160 H   0  0  0  0  0  0  0  0  0  0  0  0
  -26.2550  -15.7910   20.0770 H   0  0  0  0  0  0  0  0  0  0  0  0
  -29.1000  -22.6150   20.0150 N   0  0  0  0  0  4  0  0  0  0  0  0
  -28.2010  -22.3240   20.3580 H   0  0  0  0  0  0  0  0  0  0  0  0
  -29.0840  -22.4990   19.0130 H   0  0  0  0  0  0  0  0  0  0  0  0
  -29.3130  -24.0890   20.3460 C   0  0  0  0  0  3  0  0  0  0  0  0
  -28.1960  -25.0970   19.8590 C   0  0  0  0  0  3  0  0  0  0  0  0
  -28.3670  -26.5360   20.1430 O   0  0  0  0  0  0  0  0  0  0  0  0
  -24.5240  -31.8120   23.1880 C   0  0  0  0  0  0  0  0  0  0  0  0
  -27.2270  -27.3530   20.0860 C   0  0  0  0  0  0  0  0  0  0  0  0
  -23.3530  -30.4210   21.5200 C   0  0  0  0  0  3  0  0  0  0  0  0
  -24.8370  -28.9160   20.0840 C   0  0  0  0  0  0  0  0  0  0  0  0
  -25.8870  -30.7810   21.3620 C   0  0  0  0  0  2  0  0  0  0  0  0
  -25.9920  -29.4150   20.6980 C   0  0  0  0  0  0  0  0  0  0  0  0
  -27.1900  -28.6440   20.6940 C   0  0  0  0  0  3  0  0  0  0  0  0
  -26.0490  -26.9100   19.4380 C   0  0  0  0  0  3  0  0  0  0  0  0
  -24.8650  -27.6690   19.4470 C   0  0  0  0  0  3  0  0  0  0  0  0
  -23.5870  -29.7680   20.1330 C   0  0  0  0  0  2  0  0  0  0  0  0
  -24.6060  -31.0210   22.0800 N   0  0  0  0  0  0  0  0  0  0  0  0
  -23.4340  -32.0670   23.7180 O   0  0  0  0  0  0  0  0  0  0  0  0
  -22.6990  -29.3800   22.4590 C   0  0  0  0  0  0  0  0  0  0  0  0
  -21.3740  -29.1940   22.3260 N   0  0  0  0  0  0  0  0  0  0  0  0
  -23.3810  -28.7450   23.2670 O   0  0  0  0  0  0  0  0  0  0  0  0
  -20.8820  -29.7600   21.6490 H   0  0  0  0  0  0  0  0  0  0  0  0
  -18.0020  -27.9810   22.8080 C   0  0  0  0  0  0  0  0  0  0  0  0
  -20.5600  -28.2390   23.0800 C   0  0  0  0  0  3  0  0  0  0  0  0
  -20.6640  -26.8200   22.4730 C   0  0  0  0  0  2  0  0  0  0  0  0
  -19.5600  -26.5160   21.4550 C   0  0  0  0  0  2  0  0  0  0  0  0
  -18.1790  -26.6460   22.1030 C   0  0  0  0  0  2  0  0  0  0  0  0
  -19.1200  -28.7360   23.2510 C   0  0  0  0  0  0  0  0  0  0  0  0
  -18.8980  -29.9870   23.8670 C   0  0  0  0  0  3  0  0  0  0  0  0
  -17.5930  -30.4820   24.0460 C   0  0  0  0  0  3  0  0  0  0  0  0
  -16.4890  -29.7230   23.6180 C   0  0  0  0  0  3  0  0  0  0  0  0
  -16.6960  -28.4740   23.0040 C   0  0  0  0  0  3  0  0  0  0  0  0
  -25.7960  -32.4510   23.8280 C   0  0  0  0  0  3  0  0  0  0  0  0
  -26.3090  -31.6720   25.1000 C   0  0  1  0  0  0  0  0  0  0  0  0
  -25.2060  -31.4110   26.1540 C   0  0  0  0  0  1  0  0  0  0  0  0
  -26.9130  -30.3050   24.7010 C   0  0  0  0  0  1  0  0  0  0  0  0
  -27.4430  -32.4730   25.7830 C   0  0  0  0  0  1  0  0  0  0  0  0
  -25.4690  -33.8420   24.1690 N   0  0  0  0  0  0  0  0  0  0  0  0
  -25.7800  -34.9050   23.4150 C   0  0  0  0  0  0  0  0  0  0  0  0
  -26.4430  -34.8170   22.3780 O   0  0  0  0  0  0  0  0  0  0  0  0
  -24.8810  -33.9820   24.9780 H   0  0  0  0  0  0  0  0  0  0  0  0
  -24.0140  -36.6680   23.0950 C   0  0  0  0  0  1  0  0  0  0  0  0
  -25.2750  -36.2820   23.8860 C   0  0  0  0  0  3  0  0  0  0  0  0
  -27.4070  -37.2040   24.6890 C   0  0  0  0  0  1  0  0  0  0  0  0
  -26.2870  -37.3550   23.7640 N   0  0  0  0  0  0  0  0  0  0  0  0
  -25.8650  -38.2670   23.9220 H   0  0  0  0  0  0  0  0  0  0  0  0
  2  6  1  0
  3  7  2  0
  3  4  1  0
  4  2  2  0
  4  1  1  0
  5  6  2  0
  5 18  1  0
  6  8  1  0
  7  5  1  0
  9  7  1  0
 10 18  1  0
 11 16  1  0
 12 13  1  0
 12 11  1  0
 14 13  1  0
 14 23  1  0
 14 15  1  0
 16 10  1  0
 16 15  1  0
 17 10  2  0
 18 19  1  0
 20 21  2  0
 21 40  1  0
 22 21  1  0
 22 25  1  0
 23 24  1  0
 23 20  1  0
 24 22  2  0
 25 26  1  0
 26 27  2  0
 28 31  1  0
 28 27  1  0
 29 28  2  0
 30 29  1  0
 30 25  2  0
 31 32  1  0
 32 33  1  0
 33 34  2  0
 35 34  1  0
 35 39  1  0
 36 35  2  0
 37 32  2  0
 37 36  1  0
 38 37  1  0
 40 41  1  0
 41 44  1  0
 41 43  1  0
 42 40  2  0
 45 20  1  0
 45 46  1  0
 47 45  1  0
 48 51  1  0
 48 49  1  0
 48  1  1  0
 50 48  1  0
 52 53  1  0
 52 51  2  0
 54 65  2  0
 55 53  1  0
 55 60  1  0
 56 64  1  0
 56 66  1  0
 57 63  1  0
 57 59  1  0
 58 64  1  0
 59 58  1  0
 60 59  2  0
 61 62  1  0
 61 55  2  0
 62 57  2  0
 63 56  1  0
 64 54  1  0
 66 68  2  0
 67 66  1  0
 69 67  1  0
 70 79  2  0
 70 75  1  0
 71 67  1  0
 71 75  1  0
 72 71  1  0
 73 74  1  0
 73 72  1  0
 74 70  1  0
 75 76  2  0
 76 77  1  0
 78 77  2  0
 79 78  1  0
 80 54  1  0
 80 85  1  0
 80 81  1  0
 81 84  1  1
 81 82  1  0
 83 81  1  0
 85 88  1  0
 86 90  1  0
 86 85  1  0
 87 86  2  0
 90 89  1  0
 92 90  1  0
 92 93  1  0
 92 91  1  0
M  ISO  4  10 100  18 100  52 101  53 101
M  END
>  <TORSDO>  (20) 
F 20

>  <SCORE>  (20) 
-13.935

>  <name>  (20) 
19

>  <ligand_id>  (20) 
19

>  <original_smiles>  (20) 
[H]c1c([H])c([H])c2c(c1[H])C([H])([H])C([H])([H])C([H])([H])C2([H])N([H])C(=O)C1([H])N(C(=O)C([H])(N([H])C(=O)C([H])(N([H])C([H])([H])[H])C([H])([H])[H])C(C([H])([H])[H])(C([H])([H])[H])C([H])([H])[H])C([H])([H])c2c([H])c(OC([H])([H])C([H])([H])[N+]([H])([H])C([H])([H])c3c([H])c(F)c(N([H])C(=O)N4C([H])([H])C([H])([H])C([H])([H])C([H])(n5nc(-c6c([H])c([H])c(Oc7c([H])c([H])c(F)c([H])c7F)c([H])c6[H])c(C(=O)N([H])[H])c5N([H])[H])C4([H])[H])c(F)c3[H])c([H])c([H])c2C1([H])[H]

>  <smiles>  (20) 
[H]c1c([H])c([H])c2c(c1[H])C([H])([H])C([H])([H])C([H])([H])C2([H])N([H])C(=O)C1([H])N(C(=O)C([H])(N([H])C(=O)C([H])(N([H])C([H])([H])[H])C([H])([H])[H])C(C([H])([H])[H])(C([H])([H])[H])C([H])([H])[H])C([H])([H])c2c([H])c(OC([H])([H])C([H])([H])[N+]([H])([H])C([H])([H])c3c([H])c(F)c(N([H])C(=O)N4C([H])([H])C([H])([H])C([H])([H])C([H])(n5nc(-c6c([H])c([H])c(Oc7c([H])c([H])c(F)c([H])c7F)c([H])c6[H])c(C(=O)N([H])[H])c5N([H])[H])C4([H])[H])c(F)c3[H])c([H])c([H])c2C1([H])[H]

$$$$
20:0:0
     RDKit          3D

 97106  0  0  1  0  0  0  0  0999 V2000
  -29.3630  -23.5630   20.7000 C   0  0  0  0  0  3  0  0  0  0  0  0
  -26.7260  -22.9040   21.3660 C   0  0  0  0  0  3  0  0  0  0  0  0
  -28.4330  -24.6190   20.9640 C   0  0  0  0  0  0  0  0  0  0  0  0
  -27.6510  -21.8720   21.1240 C   0  0  0  0  0  0  0  0  0  0  0  0
  -28.9910  -22.1890   20.8110 C   0  0  0  0  0  0  0  0  0  0  0  0
  -27.1100  -24.2610   21.3240 C   0  0  0  0  0  0  0  0  0  0  0  0
  -27.2330  -20.5870   21.2520 F   0  0  0  0  0  0  0  0  0  0  0  0
  -25.9400  -25.4360   21.8040 Cl  0  0  0  0  0  0  0  0  0  0  0  0
  -30.9190  -21.0060   19.3490 O   0  0  0  0  0  0  0  0  0  0  0  0
  -31.0930  -20.8590   21.8610 O   0  0  0  0  0  0  0  0  0  0  0  0
  -30.2530  -20.8560   20.6520 S   0  0  1  0  0  0  0  0  0  0  0  0
  -29.4150  -19.3160   20.6350 N   0  0  0  0  0  0  0  0  0  0  0  0
  -28.5700  -19.4490   21.2020 H   0  0  0  0  0  0  0  0  0  0  0  0
  -30.0110  -17.9680   20.9410 C   0  0  0  0  0  2  0  0  0  0  0  0
  -31.5160  -14.9340   20.5360 C   0  0  0  0  0  0  0  0  0  0  0  0
  -31.2290  -12.6210   19.7420 C   0  0  0  0  0  2  0  0  0  0  0  0
  -30.3630  -12.5800   18.4650 C   0  0  0  0  0  2  0  0  0  0  0  0
  -28.8720  -12.5440   18.8100 C   0  0  0  0  0  2  0  0  0  0  0  0
  -28.4540  -13.5720   19.8950 C   0  0  0  0  0  3  0  0  0  0  0  0
  -29.4400  -13.5670   21.0830 C   0  0  0  0  0  2  0  0  0  0  0  0
  -30.7880  -13.7750   20.5380 N   0  0  0  0  0  0  0  0  0  0  0  0
  -32.7280  -14.9280   20.7380 O   0  0  0  0  0  0  0  0  0  0  0  0
  -31.0390  -16.8620   17.4570 C   0  0  0  0  0  2  0  0  0  0  0  0
  -30.5550  -17.9120   18.4330 C   0  0  0  0  0  2  0  0  0  0  0  0
  -31.7590  -15.8820   18.3670 C   0  0  0  0  0  2  0  0  0  0  0  0
  -30.9420  -17.3870   19.8350 C   0  0  0  0  0  3  0  0  0  0  0  0
  -31.0470  -15.8920   19.6690 N   0  0  0  0  0  0  0  0  0  0  0  0
  -26.0370  -14.2720   20.4260 C   0  0  0  0  0  0  0  0  0  0  0  0
  -24.9160  -13.5450   20.7220 C   0  0  0  0  0  0  0  0  0  0  0  0
  -25.3350  -12.1780   20.7620 C   0  0  0  0  0  0  0  0  0  0  0  0
  -27.0690  -13.3550   20.3060 N   0  0  0  0  0  0  0  0  0  0  0  0
  -26.6450  -12.0940   20.5780 N   0  0  0  0  0  0  0  0  0  0  0  0
  -24.5530  -10.9430   20.9030 C   0  0  0  0  0  0  0  0  0  0  0  0
  -24.8980   -9.9600   21.8590 C   0  0  0  0  0  3  0  0  0  0  0  0
  -24.1210   -8.7910   21.9970 C   0  0  0  0  0  3  0  0  0  0  0  0
  -22.9870   -8.5900   21.1720 C   0  0  0  0  0  0  0  0  0  0  0  0
  -22.6660   -9.5570   20.2030 C   0  0  0  0  0  3  0  0  0  0  0  0
  -23.4440  -10.7190   20.0650 C   0  0  0  0  0  3  0  0  0  0  0  0
  -22.1890   -7.4710   21.2170 O   0  0  0  0  0  0  0  0  0  0  0  0
  -22.0460   -6.7340   22.3660 C   0  0  0  0  0  0  0  0  0  0  0  0
  -21.5680   -7.3080   23.5640 C   0  0  0  0  0  3  0  0  0  0  0  0
  -21.3700   -6.5030   24.7020 C   0  0  0  0  0  3  0  0  0  0  0  0
  -21.6390   -5.1210   24.6420 C   0  0  0  0  0  0  0  0  0  0  0  0
  -22.1080   -4.5460   23.4490 C   0  0  0  0  0  3  0  0  0  0  0  0
  -22.3070   -5.3510   22.3110 C   0  0  0  0  0  0  0  0  0  0  0  0
  -22.7370   -4.7880   21.1570 F   0  0  0  0  0  0  0  0  0  0  0  0
  -21.4430   -4.3430   25.7320 F   0  0  0  0  0  0  0  0  0  0  0  0
  -23.5180  -14.0730   20.8520 C   0  0  0  0  0  0  0  0  0  0  0  0
  -22.6980  -13.4310   21.6740 N   0  0  0  0  0  0  0  0  0  0  0  0
  -23.1590  -15.0910   20.2590 O   0  0  0  0  0  0  0  0  0  0  0  0
  -23.0080  -12.6140   22.1800 H   0  0  0  0  0  0  0  0  0  0  0  0
  -21.7550  -13.7630   21.8070 H   0  0  0  0  0  0  0  0  0  0  0  0
  -26.2620  -15.6270   20.2160 N   0  0  0  0  0  0  0  0  0  0  0  0
  -25.5230  -16.3170   20.2850 H   0  0  0  0  0  0  0  0  0  0  0  0
  -27.1320  -16.0010   19.8610 H   0  0  0  0  0  0  0  0  0  0  0  0
  -28.8960  -26.1010   21.0240 C   0  0  0  0  0  2  0  0  0  0  0  0
  -28.5090  -26.9760   19.9420 O   0  0  0  0  0  0  0  0  0  0  0  0
  -24.6210  -31.9890   23.3540 C   0  0  0  0  0  0  0  0  0  0  0  0
  -27.3530  -27.7250   20.0620 C   0  0  0  0  0  0  0  0  0  0  0  0
  -23.4510  -30.6760   21.6110 C   0  0  0  0  0  3  0  0  0  0  0  0
  -24.9460  -29.2300   20.1210 C   0  0  0  0  0  0  0  0  0  0  0  0
  -25.9770  -31.0500   21.4840 C   0  0  0  0  0  2  0  0  0  0  0  0
  -26.0920  -29.7180   20.7670 C   0  0  0  0  0  0  0  0  0  0  0  0
  -27.2990  -28.9740   20.7390 C   0  0  0  0  0  3  0  0  0  0  0  0
  -26.2010  -27.2710   19.3930 C   0  0  0  0  0  3  0  0  0  0  0  0
  -25.0000  -28.0060   19.4310 C   0  0  0  0  0  3  0  0  0  0  0  0
  -23.6920  -30.0810   20.1990 C   0  0  0  0  0  2  0  0  0  0  0  0
  -24.6990  -31.2510   22.2080 N   0  0  0  0  0  0  0  0  0  0  0  0
  -23.5290  -32.2290   23.8890 O   0  0  0  0  0  0  0  0  0  0  0  0
  -22.7960  -29.5940   22.4990 C   0  0  0  0  0  0  0  0  0  0  0  0
  -21.4750  -29.4110   22.3370 N   0  0  0  0  0  0  0  0  0  0  0  0
  -23.4690  -28.9270   23.2880 O   0  0  0  0  0  0  0  0  0  0  0  0
  -20.9990  -29.9950   21.6650 H   0  0  0  0  0  0  0  0  0  0  0  0
  -18.0980  -28.1770   22.7440 C   0  0  0  0  0  0  0  0  0  0  0  0
  -20.6540  -28.4250   23.0390 C   0  0  0  0  0  3  0  0  0  0  0  0
  -20.7630  -27.0360   22.3710 C   0  0  0  0  0  2  0  0  0  0  0  0
  -19.6650  -26.7810   21.3310 C   0  0  0  0  0  2  0  0  0  0  0  0
  -18.2800  -26.8790   21.9770 C   0  0  0  0  0  2  0  0  0  0  0  0
  -19.2140  -28.9110   23.2270 C   0  0  0  0  0  0  0  0  0  0  0  0
  -18.9910  -30.1320   23.9000 C   0  0  0  0  0  3  0  0  0  0  0  0
  -17.6840  -30.6200   24.0960 C   0  0  0  0  0  3  0  0  0  0  0  0
  -16.5840  -29.8820   23.6250 C   0  0  0  0  0  3  0  0  0  0  0  0
  -16.7900  -28.6620   22.9560 C   0  0  0  0  0  3  0  0  0  0  0  0
  -25.8940  -32.5920   24.0280 C   0  0  0  0  0  3  0  0  0  0  0  0
  -26.3700  -31.7810   25.2980 C   0  0  1  0  0  0  0  0  0  0  0  0
  -25.2420  -31.5210   26.3240 C   0  0  0  0  0  1  0  0  0  0  0  0
  -26.9530  -30.4080   24.8840 C   0  0  0  0  0  1  0  0  0  0  0  0
  -27.5070  -32.5450   26.0200 C   0  0  0  0  0  1  0  0  0  0  0  0
  -25.5910  -33.9850   24.3890 N   0  0  0  0  0  0  0  0  0  0  0  0
  -25.9580  -35.0540   23.6690 C   0  0  0  0  0  0  0  0  0  0  0  0
  -26.6670  -34.9720   22.6630 O   0  0  0  0  0  0  0  0  0  0  0  0
  -24.9930  -34.1260   25.1900 H   0  0  0  0  0  0  0  0  0  0  0  0
  -24.2570  -36.8620   23.2860 C   0  0  0  0  0  1  0  0  0  0  0  0
  -25.4610  -36.4320   24.1410 C   0  0  0  0  0  3  0  0  0  0  0  0
  -27.5620  -37.2680   25.0960 C   0  0  0  0  0  1  0  0  0  0  0  0
  -26.5070  -37.4790   24.1070 N   0  0  0  0  0  0  0  0  0  0  0  0
  -26.1020  -38.3940   24.2790 H   0  0  0  0  0  0  0  0  0  0  0  0
  1  5  2  0
  1  3  1  0
  3 56  1  0
  3  6  2  0
  4  7  1  0
  4  2  2  0
  5  4  1  0
  6  2  1  0
  6  8  1  0
  9 11  2  0
 11  5  1  0
 11 10  2  0
 11 12  1  6
 12 14  1  0
 12 13  1  0
 15 21  1  0
 15 22  2  0
 16 21  1  0
 17 18  1  0
 17 16  1  0
 19 18  1  0
 19 31  1  0
 19 20  1  0
 21 20  1  0
 23 25  1  0
 23 24  1  0
 24 26  1  0
 25 27  1  0
 26 14  1  0
 27 26  1  0
 27 15  1  0
 28 29  2  0
 29 30  1  0
 29 48  1  0
 30 33  1  0
 31 28  1  0
 31 32  1  0
 32 30  2  0
 33 34  1  0
 34 35  2  0
 36 39  1  0
 36 35  1  0
 37 36  2  0
 38 37  1  0
 38 33  2  0
 39 40  1  0
 40 41  1  0
 41 42  2  0
 43 42  1  0
 43 47  1  0
 44 43  2  0
 45 40  2  0
 45 44  1  0
 46 45  1  0
 48 49  1  0
 49 52  1  0
 49 51  1  0
 50 48  2  0
 53 54  1  0
 53 28  1  0
 55 53  1  0
 57 59  1  0
 57 56  1  0
 58 69  2  0
 59 64  1  0
 60 68  1  0
 60 70  1  0
 61 67  1  0
 61 63  1  0
 62 68  1  0
 63 62  1  0
 64 63  2  0
 65 66  1  0
 65 59  2  0
 66 61  2  0
 67 60  1  0
 68 58  1  0
 70 72  2  0
 71 70  1  0
 73 71  1  0
 74 83  2  0
 74 79  1  0
 75 71  1  0
 75 79  1  0
 76 75  1  0
 77 78  1  0
 77 76  1  0
 78 74  1  0
 79 80  2  0
 80 81  1  0
 82 81  2  0
 83 82  1  0
 84 58  1  0
 84 89  1  0
 84 85  1  0
 85 88  1  1
 85 86  1  0
 87 85  1  0
 89 92  1  0
 90 94  1  0
 90 89  1  0
 91 90  2  0
 94 93  1  0
 96 94  1  0
 96 97  1  0
 96 95  1  0
M  ISO  4  15 100  27 100  56 101  57 101
M  END
>  <TORSDO>  (21) 
F 20

>  <SCORE>  (21) 
-12.372

>  <name>  (21) 
20

>  <ligand_id>  (21) 
20

>  <original_smiles>  (21) 
[H]c1c([H])c([H])c2c(c1[H])C([H])([H])C([H])([H])C([H])([H])C2([H])N([H])C(=O)C1([H])N(C(=O)C([H])(N([H])C(=O)C([H])(N([H])C([H])([H])[H])C([H])([H])[H])C(C([H])([H])[H])(C([H])([H])[H])C([H])([H])[H])C([H])([H])c2c([H])c(OC([H])([H])c3c([H])c(S(=O)(=O)N([H])C([H])([H])C4([H])N(C(=O)N5C([H])([H])C([H])([H])C([H])([H])C([H])(n6nc(-c7c([H])c([H])c(Oc8c([H])c([H])c(F)c([H])c8F)c([H])c7[H])c(C(=O)N([H])[H])c6N([H])[H])C5([H])[H])C([H])([H])C([H])([H])C4([H])[H])c(F)c([H])c3Cl)c([H])c([H])c2C1([H])[H]

>  <smiles>  (21) 
[H]c1c([H])c([H])c2c(c1[H])C([H])([H])C([H])([H])C([H])([H])C2([H])N([H])C(=O)C1([H])N(C(=O)C([H])(N([H])C(=O)C([H])(N([H])C([H])([H])[H])C([H])([H])[H])C(C([H])([H])[H])(C([H])([H])[H])C([H])([H])[H])C([H])([H])c2c([H])c(OC([H])([H])c3c([H])c(S(=O)(=O)N([H])C([H])([H])C4([H])N(C(=O)N5C([H])([H])C([H])([H])C([H])([H])C([H])(n6nc(-c7c([H])c([H])c(Oc8c([H])c([H])c(F)c([H])c8F)c([H])c7[H])c(C(=O)N([H])[H])c6N([H])[H])C5([H])[H])C([H])([H])C([H])([H])C4([H])[H])c(F)c([H])c3Cl)c([H])c([H])c2C1([H])[H]

$$$$
21:0:0
     RDKit          3D

 89 97  0  0  1  0  0  0  0  0999 V2000
  -29.6680  -21.0390   18.7710 C   0  0  0  0  0  3  0  0  0  0  0  0
  -30.1900  -19.8430   18.2000 C   0  0  0  0  0  3  0  0  0  0  0  0
  -29.0790  -19.6540   20.6520 C   0  0  0  0  0  3  0  0  0  0  0  0
  -29.0700  -21.1040   20.0480 C   0  0  0  0  0  0  0  0  0  0  0  0
  -29.6320  -18.2970   20.0830 C   0  0  0  0  0  0  0  0  0  0  0  0
  -30.1840  -18.5530   18.8040 C   0  0  0  0  0  0  0  0  0  0  0  0
  -30.6930  -17.5220   18.0890 F   0  0  0  0  0  0  0  0  0  0  0  0
  -30.3750  -15.4180   20.3240 C   0  0  0  0  0  0  0  0  0  0  0  0
  -30.4200  -12.9210   19.5290 C   0  0  0  0  0  2  0  0  0  0  0  0
  -29.5320  -12.6480   18.2860 C   0  0  0  0  0  2  0  0  0  0  0  0
  -28.0840  -12.3490   18.7080 C   0  0  0  0  0  2  0  0  0  0  0  0
  -27.5940  -13.3300   19.8010 C   0  0  0  0  0  3  0  0  0  0  0  0
  -28.6170  -13.5430   20.9400 C   0  0  0  0  0  2  0  0  0  0  0  0
  -29.8430  -14.0810   20.3230 N   0  0  0  0  0  0  0  0  0  0  0  0
  -31.5880  -15.4040   20.0600 O   0  0  0  0  0  0  0  0  0  0  0  0
  -29.6140  -16.7050   20.5370 N   0  0  0  0  0  0  0  0  0  0  0  0
  -28.7490  -16.4860   21.0070 H   0  0  0  0  0  0  0  0  0  0  0  0
  -25.2140  -13.8690   20.5220 C   0  0  0  0  0  0  0  0  0  0  0  0
  -24.1530  -13.0860   20.8820 C   0  0  0  0  0  0  0  0  0  0  0  0
  -24.6300  -11.7390   20.8640 C   0  0  0  0  0  0  0  0  0  0  0  0
  -26.2650  -13.0000   20.2960 N   0  0  0  0  0  0  0  0  0  0  0  0
  -25.9260  -11.7120   20.5700 N   0  0  0  0  0  0  0  0  0  0  0  0
  -23.9080  -10.4740   21.0520 C   0  0  0  0  0  0  0  0  0  0  0  0
  -24.3370   -9.5070   21.9880 C   0  0  0  0  0  3  0  0  0  0  0  0
  -23.6110   -8.3090   22.1660 C   0  0  0  0  0  3  0  0  0  0  0  0
  -22.4410   -8.0690   21.4070 C   0  0  0  0  0  0  0  0  0  0  0  0
  -22.0300   -9.0240   20.4600 C   0  0  0  0  0  3  0  0  0  0  0  0
  -22.7570  -10.2120   20.2810 C   0  0  0  0  0  3  0  0  0  0  0  0
  -21.6870   -6.9230   21.4930 O   0  0  0  0  0  0  0  0  0  0  0  0
  -21.6420   -6.1760   22.6430 C   0  0  0  0  0  0  0  0  0  0  0  0
  -21.2260   -6.7270   23.8740 C   0  0  0  0  0  3  0  0  0  0  0  0
  -21.1280   -5.9060   25.0150 C   0  0  0  0  0  3  0  0  0  0  0  0
  -21.4360   -4.5360   24.9270 C   0  0  0  0  0  0  0  0  0  0  0  0
  -21.8460   -3.9840   23.7000 C   0  0  0  0  0  3  0  0  0  0  0  0
  -21.9450   -4.8020   22.5610 C   0  0  0  0  0  0  0  0  0  0  0  0
  -22.3200   -4.2600   21.3770 F   0  0  0  0  0  0  0  0  0  0  0  0
  -21.3360   -3.7450   26.0220 F   0  0  0  0  0  0  0  0  0  0  0  0
  -22.7500  -13.5560   21.1260 C   0  0  0  0  0  0  0  0  0  0  0  0
  -22.0120  -12.8630   21.9850 N   0  0  0  0  0  0  0  0  0  0  0  0
  -22.3160  -14.5760   20.5910 O   0  0  0  0  0  0  0  0  0  0  0  0
  -22.3760  -12.0380   22.4400 H   0  0  0  0  0  0  0  0  0  0  0  0
  -21.0690  -13.1610   22.1910 H   0  0  0  0  0  0  0  0  0  0  0  0
  -25.3690  -15.2400   20.3380 N   0  0  0  0  0  0  0  0  0  0  0  0
  -24.5920  -15.8860   20.4300 H   0  0  0  0  0  0  0  0  0  0  0  0
  -26.2080  -15.6800   19.9860 H   0  0  0  0  0  0  0  0  0  0  0  0
  -28.6580  -22.7580   20.6040 C   0  0  0  0  0  2  0  0  0  0  0  0
  -27.9630  -24.0910   19.8830 N   0  0  0  0  0  0  0  0  0  0  0  0
  -26.9600  -23.9630   19.9860 H   0  0  0  0  0  0  0  0  0  0  0  0
  -28.2110  -25.7630   20.3090 O   0  0  0  0  0  0  0  0  0  0  0  0
  -24.6440  -31.8340   23.1940 C   0  0  0  0  0  0  0  0  0  0  0  0
  -27.1960  -26.8800   20.2070 C   0  0  0  0  0  0  0  0  0  0  0  0
  -23.4520  -30.4270   21.5630 C   0  0  0  0  0  3  0  0  0  0  0  0
  -24.9010  -28.8040   20.1450 C   0  0  0  0  0  0  0  0  0  0  0  0
  -26.0200  -30.6180   21.4240 C   0  0  0  0  0  2  0  0  0  0  0  0
  -26.0880  -29.1970   20.7750 C   0  0  0  0  0  0  0  0  0  0  0  0
  -27.2200  -28.2540   20.7860 C   0  0  0  0  0  3  0  0  0  0  0  0
  -25.9840  -26.6600   19.5110 C   0  0  0  0  0  3  0  0  0  0  0  0
  -24.8790  -27.5580   19.4930 C   0  0  0  0  0  3  0  0  0  0  0  0
  -23.6840  -29.7320   20.1900 C   0  0  0  0  0  2  0  0  0  0  0  0
  -24.7270  -30.9890   22.1130 N   0  0  0  0  0  0  0  0  0  0  0  0
  -23.5540  -32.1280   23.7120 O   0  0  0  0  0  0  0  0  0  0  0  0
  -22.7530  -29.4420   22.5360 C   0  0  0  0  0  0  0  0  0  0  0  0
  -21.4210  -29.2850   22.4200 N   0  0  0  0  0  0  0  0  0  0  0  0
  -23.4180  -28.8190   23.3670 O   0  0  0  0  0  0  0  0  0  0  0  0
  -20.9360  -29.8380   21.7270 H   0  0  0  0  0  0  0  0  0  0  0  0
  -18.0370  -28.0830   22.9490 C   0  0  0  0  0  0  0  0  0  0  0  0
  -20.5980  -28.3510   23.1970 C   0  0  0  0  0  3  0  0  0  0  0  0
  -20.6960  -26.9160   22.6290 C   0  0  0  0  0  2  0  0  0  0  0  0
  -19.5890  -26.5910   21.6190 C   0  0  0  0  0  2  0  0  0  0  0  0
  -18.2110  -26.7340   22.2710 C   0  0  0  0  0  2  0  0  0  0  0  0
  -19.1570  -28.8490   23.3690 C   0  0  0  0  0  0  0  0  0  0  0  0
  -18.9370  -30.1090   23.9680 C   0  0  0  0  0  3  0  0  0  0  0  0
  -17.6310  -30.6040   24.1470 C   0  0  0  0  0  3  0  0  0  0  0  0
  -16.5260  -29.8370   23.7390 C   0  0  0  0  0  3  0  0  0  0  0  0
  -16.7300  -28.5780   23.1460 C   0  0  0  0  0  3  0  0  0  0  0  0
  -25.9130  -32.4830   23.8250 C   0  0  0  0  0  3  0  0  0  0  0  0
  -25.5880  -33.8810   24.1650 N   0  0  0  0  0  0  0  0  0  0  0  0
  -25.9170  -34.9490   23.4260 C   0  0  0  0  0  0  0  0  0  0  0  0
  -26.5850  -34.8630   22.3930 O   0  0  0  0  0  0  0  0  0  0  0  0
  -24.9920  -34.0220   24.9680 H   0  0  0  0  0  0  0  0  0  0  0  0
  -24.1830  -36.7510   23.1100 C   0  0  0  0  0  1  0  0  0  0  0  0
  -25.4300  -36.3330   23.9060 C   0  0  0  0  0  3  0  0  0  0  0  0
  -27.5680  -37.2160   24.7340 C   0  0  0  0  0  1  0  0  0  0  0  0
  -26.4600  -37.3920   23.8000 N   0  0  0  0  0  0  0  0  0  0  0  0
  -26.0520  -38.3090   23.9600 H   0  0  0  0  0  0  0  0  0  0  0  0
  -26.4240  -31.7210   25.1110 C   0  0  1  0  0  0  0  0  0  0  0  0
  -25.3260  -31.4920   26.1770 C   0  0  0  0  0  1  0  0  0  0  0  0
  -27.0090  -30.3400   24.7410 C   0  0  0  0  0  1  0  0  0  0  0  0
  -27.5720  -32.5210   25.7720 C   0  0  0  0  0  1  0  0  0  0  0  0
  1  4  1  0
  2  1  2  0
  2  6  1  0
  4 46  1  0
  4  3  2  0
  5 16  1  0
  5  3  1  0
  6  5  2  0
  7  6  1  0
  8 16  1  0
  9 14  1  0
 10 11  1  0
 10  9  1  0
 12 11  1  0
 12 21  1  0
 12 13  1  0
 14  8  1  0
 14 13  1  0
 15  8  2  0
 16 17  1  0
 18 19  2  0
 19 38  1  0
 20 19  1  0
 20 23  1  0
 21 18  1  0
 21 22  1  0
 22 20  2  0
 23 24  1  0
 24 25  2  0
 26 29  1  0
 26 25  1  0
 27 26  2  0
 28 27  1  0
 28 23  2  0
 29 30  1  0
 30 31  1  0
 31 32  2  0
 33 32  1  0
 33 37  1  0
 34 33  2  0
 35 30  2  0
 35 34  1  0
 36 35  1  0
 38 39  1  0
 39 42  1  0
 39 41  1  0
 40 38  2  0
 43 44  1  0
 43 18  1  0
 45 43  1  0
 47 48  1  0
 47 49  1  0
 47 46  1  0
 50 61  2  0
 51 49  1  0
 51 56  1  0
 52 60  1  0
 52 62  1  0
 53 59  1  0
 53 55  1  0
 54 60  1  0
 55 56  2  0
 55 54  1  0
 57 51  2  0
 58 57  1  0
 58 53  2  0
 59 52  1  0
 60 50  1  0
 62 64  2  0
 63 62  1  0
 65 63  1  0
 66 75  2  0
 66 71  1  0
 67 63  1  0
 67 71  1  0
 68 67  1  0
 69 70  1  0
 69 68  1  0
 70 66  1  0
 71 72  2  0
 72 73  1  0
 74 73  2  0
 75 74  1  0
 76 50  1  0
 76 77  1  0
 76 86  1  0
 77 80  1  0
 78 82  1  0
 78 77  1  0
 79 78  2  0
 82 81  1  0
 84 82  1  0
 84 85  1  0
 84 83  1  0
 86 89  1  1
 86 87  1  0
 88 86  1  0
M  ISO  4   8 100  16 100  47 101  49 101
M  END
>  <TORSDO>  (22) 
F 18

>  <SCORE>  (22) 
-16.059

>  <name>  (22) 
21

>  <ligand_id>  (22) 
21

>  <original_smiles>  (22) 
[H]c1c([H])c([H])c2c(c1[H])C([H])([H])C([H])([H])C([H])([H])C2([H])N([H])C(=O)C1([H])N(C(=O)C([H])(N([H])C(=O)C([H])(N([H])C([H])([H])[H])C([H])([H])[H])C(C([H])([H])[H])(C([H])([H])[H])C([H])([H])[H])C([H])([H])c2c([H])c(ON([H])C([H])([H])c3c([H])c([H])c(F)c(N([H])C(=O)N4C([H])([H])C([H])([H])C([H])([H])C([H])(n5nc(-c6c([H])c([H])c(Oc7c([H])c([H])c(F)c([H])c7F)c([H])c6[H])c(C(=O)N([H])[H])c5N([H])[H])C4([H])[H])c3[H])c([H])c([H])c2C1([H])[H]

>  <smiles>  (22) 
[H]c1c([H])c([H])c2c(c1[H])C([H])([H])C([H])([H])C([H])([H])C2([H])N([H])C(=O)C1([H])N(C(=O)C([H])(N([H])C(=O)C([H])(N([H])C([H])([H])[H])C([H])([H])[H])C(C([H])([H])[H])(C([H])([H])[H])C([H])([H])[H])C([H])([H])c2c([H])c(ON([H])C([H])([H])c3c([H])c([H])c(F)c(N([H])C(=O)N4C([H])([H])C([H])([H])C([H])([H])C([H])(n5nc(-c6c([H])c([H])c(Oc7c([H])c([H])c(F)c([H])c7F)c([H])c6[H])c(C(=O)N([H])[H])c5N([H])[H])C4([H])[H])c3[H])c([H])c([H])c2C1([H])[H]

$$$$
22:0:0
     RDKit          3D

 86 93  0  0  1  0  0  0  0  0999 V2000
  -28.8140  -22.7330   20.5280 C   0  0  0  0  0  2  0  0  0  0  0  0
  -29.2620  -19.8160   20.4830 C   0  0  0  0  0  0  0  0  0  0  0  0
  -29.3630  -21.2580   18.4750 C   0  0  0  0  0  1  0  0  0  0  0  0
  -29.0920  -21.1880   19.9070 N   0  0  0  0  0  0  0  0  0  0  0  0
  -28.9700  -19.7060   21.6750 O   0  0  0  0  0  0  0  0  0  0  0  0
  -29.8710  -18.3060   19.8020 C   0  0  0  0  0  2  0  0  0  0  0  0
  -30.4800  -15.3960   19.9570 C   0  0  0  0  0  0  0  0  0  0  0  0
  -30.3950  -12.9610   19.0450 C   0  0  0  0  0  2  0  0  0  0  0  0
  -29.4060  -12.7860   17.8630 C   0  0  0  0  0  2  0  0  0  0  0  0
  -27.9840  -12.5100   18.3800 C   0  0  0  0  0  2  0  0  0  0  0  0
  -27.6050  -13.4460   19.5540 C   0  0  0  0  0  3  0  0  0  0  0  0
  -28.7180  -13.5680   20.6190 C   0  0  0  0  0  2  0  0  0  0  0  0
  -29.9120  -14.0860   19.9330 N   0  0  0  0  0  0  0  0  0  0  0  0
  -31.6680  -15.3990   19.6020 O   0  0  0  0  0  0  0  0  0  0  0  0
  -29.7340  -16.6680   20.1670 N   0  0  0  0  0  0  0  0  0  0  0  0
  -28.8090  -16.4680   20.5160 H   0  0  0  0  0  0  0  0  0  0  0  0
  -25.2900  -13.9920   20.4670 C   0  0  0  0  0  0  0  0  0  0  0  0
  -24.2470  -13.2100   20.8760 C   0  0  0  0  0  0  0  0  0  0  0  0
  -24.7010  -11.8590   20.7730 C   0  0  0  0  0  0  0  0  0  0  0  0
  -26.3100  -13.1200   20.1320 N   0  0  0  0  0  0  0  0  0  0  0  0
  -25.9720  -11.8280   20.3840 N   0  0  0  0  0  0  0  0  0  0  0  0
  -23.9750  -10.5950   20.9670 C   0  0  0  0  0  0  0  0  0  0  0  0
  -24.4330   -9.6100   21.8690 C   0  0  0  0  0  3  0  0  0  0  0  0
  -23.7040   -8.4140   22.0530 C   0  0  0  0  0  3  0  0  0  0  0  0
  -22.5050   -8.1950   21.3350 C   0  0  0  0  0  0  0  0  0  0  0  0
  -22.0680   -9.1690   20.4200 C   0  0  0  0  0  3  0  0  0  0  0  0
  -22.7960  -10.3550   20.2330 C   0  0  0  0  0  3  0  0  0  0  0  0
  -21.7460   -7.0530   21.4290 O   0  0  0  0  0  0  0  0  0  0  0  0
  -21.7070   -6.3100   22.5810 C   0  0  0  0  0  0  0  0  0  0  0  0
  -21.2760   -6.8590   23.8090 C   0  0  0  0  0  3  0  0  0  0  0  0
  -21.1840   -6.0410   24.9520 C   0  0  0  0  0  3  0  0  0  0  0  0
  -21.5120   -4.6750   24.8700 C   0  0  0  0  0  0  0  0  0  0  0  0
  -21.9360   -4.1250   23.6470 C   0  0  0  0  0  3  0  0  0  0  0  0
  -22.0290   -4.9400   22.5060 C   0  0  0  0  0  0  0  0  0  0  0  0
  -22.4170   -4.4000   21.3250 F   0  0  0  0  0  0  0  0  0  0  0  0
  -21.4170   -3.8870   25.9670 F   0  0  0  0  0  0  0  0  0  0  0  0
  -22.8720  -13.6860   21.2410 C   0  0  0  0  0  0  0  0  0  0  0  0
  -22.1910  -12.9720   22.1280 N   0  0  0  0  0  0  0  0  0  0  0  0
  -22.4140  -14.7300   20.7760 O   0  0  0  0  0  0  0  0  0  0  0  0
  -22.5770  -12.1270   22.5260 H   0  0  0  0  0  0  0  0  0  0  0  0
  -21.2710  -13.2720   22.4160 H   0  0  0  0  0  0  0  0  0  0  0  0
  -25.4490  -15.3670   20.3210 N   0  0  0  0  0  0  0  0  0  0  0  0
  -24.6870  -16.0160   20.4900 H   0  0  0  0  0  0  0  0  0  0  0  0
  -26.2610  -15.8110   19.9140 H   0  0  0  0  0  0  0  0  0  0  0  0
  -28.1170  -24.2870   19.8860 C   0  0  0  0  0  2  0  0  0  0  0  0
  -28.1980  -25.8980   20.2970 O   0  0  0  0  0  0  0  0  0  0  0  0
  -24.6270  -31.8760   23.2260 C   0  0  0  0  0  0  0  0  0  0  0  0
  -27.1820  -26.9940   20.1960 C   0  0  0  0  0  0  0  0  0  0  0  0
  -23.4280  -30.4750   21.5950 C   0  0  0  0  0  3  0  0  0  0  0  0
  -24.8750  -28.8740   20.1610 C   0  0  0  0  0  0  0  0  0  0  0  0
  -25.9930  -30.6910   21.4350 C   0  0  0  0  0  2  0  0  0  0  0  0
  -26.0630  -29.2800   20.7780 C   0  0  0  0  0  0  0  0  0  0  0  0
  -27.2060  -28.3600   20.7740 C   0  0  0  0  0  3  0  0  0  0  0  0
  -25.9660  -26.7460   19.5190 C   0  0  0  0  0  3  0  0  0  0  0  0
  -24.8520  -27.6290   19.5100 C   0  0  0  0  0  3  0  0  0  0  0  0
  -23.6520  -29.7910   20.2180 C   0  0  0  0  0  2  0  0  0  0  0  0
  -24.7040  -31.0420   22.1390 N   0  0  0  0  0  0  0  0  0  0  0  0
  -23.5390  -32.1630   23.7550 O   0  0  0  0  0  0  0  0  0  0  0  0
  -22.7430  -29.4780   22.5670 C   0  0  0  0  0  0  0  0  0  0  0  0
  -21.4130  -29.3040   22.4470 N   0  0  0  0  0  0  0  0  0  0  0  0
  -23.4140  -28.8620   23.3980 O   0  0  0  0  0  0  0  0  0  0  0  0
  -20.9240  -29.8520   21.7530 H   0  0  0  0  0  0  0  0  0  0  0  0
  -18.0430  -28.0620   22.9620 C   0  0  0  0  0  0  0  0  0  0  0  0
  -20.6000  -28.3620   23.2240 C   0  0  0  0  0  3  0  0  0  0  0  0
  -20.7190  -26.9270   22.6580 C   0  0  0  0  0  2  0  0  0  0  0  0
  -19.6210  -26.5850   21.6460 C   0  0  0  0  0  2  0  0  0  0  0  0
  -18.2370  -26.7130   22.2890 C   0  0  0  0  0  2  0  0  0  0  0  0
  -19.1510  -28.8430   23.3860 C   0  0  0  0  0  0  0  0  0  0  0  0
  -18.9140  -30.1020   23.9780 C   0  0  0  0  0  3  0  0  0  0  0  0
  -17.6010  -30.5820   24.1480 C   0  0  0  0  0  3  0  0  0  0  0  0
  -16.5080  -29.8000   23.7370 C   0  0  0  0  0  3  0  0  0  0  0  0
  -16.7290  -28.5410   23.1510 C   0  0  0  0  0  3  0  0  0  0  0  0
  -25.8980  -32.5250   23.8520 C   0  0  0  0  0  3  0  0  0  0  0  0
  -26.4080  -31.7700   25.1430 C   0  0  1  0  0  0  0  0  0  0  0  0
  -25.3090  -31.5460   26.2090 C   0  0  0  0  0  1  0  0  0  0  0  0
  -26.9940  -30.3870   24.7800 C   0  0  0  0  0  1  0  0  0  0  0  0
  -27.5550  -32.5730   25.8000 C   0  0  0  0  0  1  0  0  0  0  0  0
  -25.5800  -33.9260   24.1800 N   0  0  0  0  0  0  0  0  0  0  0  0
  -25.9050  -34.9850   23.4250 C   0  0  0  0  0  0  0  0  0  0  0  0
  -26.5660  -34.8850   22.3890 O   0  0  0  0  0  0  0  0  0  0  0  0
  -24.9900  -34.0770   24.9840 H   0  0  0  0  0  0  0  0  0  0  0  0
  -24.1700  -36.7830   23.1010 C   0  0  0  0  0  1  0  0  0  0  0  0
  -25.4230  -36.3750   23.8930 C   0  0  0  0  0  3  0  0  0  0  0  0
  -27.5640  -37.2690   24.7000 C   0  0  0  0  0  1  0  0  0  0  0  0
  -26.4530  -37.4300   23.7660 N   0  0  0  0  0  0  0  0  0  0  0  0
  -26.0460  -38.3500   23.9130 H   0  0  0  0  0  0  0  0  0  0  0  0
  2  5  2  0
  3  4  1  0
  4  2  1  0
  4  1  1  0
  6 15  1  0
  6  2  1  0
  7 15  1  0
  8 13  1  0
  9 10  1  0
  9  8  1  0
 11 10  1  0
 11 20  1  0
 11 12  1  0
 13  7  1  0
 13 12  1  0
 14  7  2  0
 15 16  1  0
 17 18  2  0
 18 37  1  0
 19 18  1  0
 19 22  1  0
 20 21  1  0
 20 17  1  0
 21 19  2  0
 22 23  1  0
 23 24  2  0
 25 28  1  0
 25 24  1  0
 26 25  2  0
 27 26  1  0
 27 22  2  0
 28 29  1  0
 29 30  1  0
 30 31  2  0
 32 31  1  0
 32 36  1  0
 33 32  2  0
 34 29  2  0
 34 33  1  0
 35 34  1  0
 37 38  1  0
 38 41  1  0
 38 40  1  0
 39 37  2  0
 42 17  1  0
 42 43  1  0
 44 42  1  0
 45 46  1  0
 45  1  1  0
 47 58  2  0
 48 46  1  0
 48 53  1  0
 49 57  1  0
 49 59  1  0
 50 56  1  0
 50 52  1  0
 51 57  1  0
 52 51  1  0
 53 52  2  0
 54 48  2  0
 55 54  1  0
 55 50  2  0
 56 49  1  0
 57 47  1  0
 59 61  2  0
 60 59  1  0
 62 60  1  0
 63 72  2  0
 63 68  1  0
 64 60  1  0
 64 68  1  0
 65 64  1  0
 66 67  1  0
 66 65  1  0
 67 63  1  0
 68 69  2  0
 69 70  1  0
 71 70  2  0
 72 71  1  0
 73 47  1  0
 73 78  1  0
 73 74  1  0
 74 77  1  1
 74 75  1  0
 76 74  1  0
 78 81  1  0
 79 83  1  0
 79 78  1  0
 80 79  2  0
 83 82  1  0
 85 83  1  0
 85 86  1  0
 85 84  1  0
M  ISO  4   7 100  15 100  45 101  46 101
M  END
>  <TORSDO>  (23) 
F 19

>  <SCORE>  (23) 
-15.675

>  <name>  (23) 
22

>  <ligand_id>  (23) 
22

>  <original_smiles>  (23) 
[H]c1c([H])c([H])c2c(c1[H])C([H])([H])C([H])([H])C([H])([H])C2([H])N([H])C(=O)C1([H])N(C(=O)C([H])(N([H])C(=O)C([H])(N([H])C([H])([H])[H])C([H])([H])[H])C(C([H])([H])[H])(C([H])([H])[H])C([H])([H])[H])C([H])([H])c2c([H])c(OC([H])([H])C([H])([H])N(C(=O)C([H])([H])N([H])C(=O)N3C([H])([H])C([H])([H])C([H])([H])C([H])(n4nc(-c5c([H])c([H])c(Oc6c([H])c([H])c(F)c([H])c6F)c([H])c5[H])c(C(=O)N([H])[H])c4N([H])[H])C3([H])[H])C([H])([H])[H])c([H])c([H])c2C1([H])[H]

>  <smiles>  (23) 
[H]c1c([H])c([H])c2c(c1[H])C([H])([H])C([H])([H])C([H])([H])C2([H])N([H])C(=O)C1([H])N(C(=O)C([H])(N([H])C(=O)C([H])(N([H])C([H])([H])[H])C([H])([H])[H])C(C([H])([H])[H])(C([H])([H])[H])C([H])([H])[H])C([H])([H])c2c([H])c(OC([H])([H])C([H])([H])N(C(=O)C([H])([H])N([H])C(=O)N3C([H])([H])C([H])([H])C([H])([H])C([H])(n4nc(-c5c([H])c([H])c(Oc6c([H])c([H])c(F)c([H])c6F)c([H])c5[H])c(C(=O)N([H])[H])c4N([H])[H])C3([H])[H])C([H])([H])[H])c([H])c([H])c2C1([H])[H]

$$$$
23:0:0
     RDKit          3D

 94103  0  0  1  0  0  0  0  0999 V2000
  -30.7360  -20.1520   19.0930 C   0  0  0  0  0  3  0  0  0  0  0  0
  -30.9270  -18.7200   19.3010 C   0  0  0  0  0  3  0  0  0  0  0  0
  -28.7220  -18.5990   20.0760 C   0  0  0  0  0  3  0  0  0  0  0  0
  -28.5270  -20.0410   19.9120 C   0  0  0  0  0  0  0  0  0  0  0  0
  -29.5410  -20.9260   19.3680 C   0  0  0  0  0  0  0  0  0  0  0  0
  -29.9120  -17.8390   19.7950 C   0  0  0  0  0  0  0  0  0  0  0  0
  -30.7560  -15.1820   19.6810 C   0  0  0  0  0  0  0  0  0  0  0  0
  -30.5950  -12.7980   18.8290 C   0  0  0  0  0  2  0  0  0  0  0  0
  -29.5780  -12.7350   17.6630 C   0  0  0  0  0  2  0  0  0  0  0  0
  -28.1400  -12.5580   18.1910 C   0  0  0  0  0  2  0  0  0  0  0  0
  -27.8200  -13.5200   19.3630 C   0  0  0  0  0  3  0  0  0  0  0  0
  -28.9460  -13.5300   20.4220 C   0  0  0  0  0  2  0  0  0  0  0  0
  -30.1880  -13.9100   19.7340 N   0  0  0  0  0  0  0  0  0  0  0  0
  -31.9150  -15.2760   19.2630 O   0  0  0  0  0  0  0  0  0  0  0  0
  -29.9370  -16.3090   19.9690 N   0  0  0  0  0  0  0  0  0  0  0  0
  -29.0840  -15.9720   20.3860 H   0  0  0  0  0  0  0  0  0  0  0  0
  -25.5330  -14.1680   20.3220 C   0  0  0  0  0  0  0  0  0  0  0  0
  -24.4640  -13.4230   20.7400 C   0  0  0  0  0  0  0  0  0  0  0  0
  -24.8560  -12.0560   20.6000 C   0  0  0  0  0  0  0  0  0  0  0  0
  -26.5090  -13.2580   19.9500 N   0  0  0  0  0  0  0  0  0  0  0  0
  -26.1150  -11.9790   20.1820 N   0  0  0  0  0  0  0  0  0  0  0  0
  -24.0840  -10.8190   20.7820 C   0  0  0  0  0  0  0  0  0  0  0  0
  -24.5380   -9.7840   21.6280 C   0  0  0  0  0  3  0  0  0  0  0  0
  -23.7680   -8.6130   21.8030 C   0  0  0  0  0  3  0  0  0  0  0  0
  -22.5300   -8.4700   21.1320 C   0  0  0  0  0  0  0  0  0  0  0  0
  -22.0940   -9.4950   20.2740 C   0  0  0  0  0  3  0  0  0  0  0  0
  -22.8630  -10.6570   20.0960 C   0  0  0  0  0  3  0  0  0  0  0  0
  -21.7270   -7.3580   21.2220 O   0  0  0  0  0  0  0  0  0  0  0  0
  -21.7300   -6.5560   22.3350 C   0  0  0  0  0  0  0  0  0  0  0  0
  -21.4320   -7.0620   23.6190 C   0  0  0  0  0  3  0  0  0  0  0  0
  -21.3780   -6.1910   24.7240 C   0  0  0  0  0  3  0  0  0  0  0  0
  -21.6120   -4.8140   24.5490 C   0  0  0  0  0  0  0  0  0  0  0  0
  -21.9020   -4.3050   23.2690 C   0  0  0  0  0  3  0  0  0  0  0  0
  -21.9580   -5.1750   22.1660 C   0  0  0  0  0  0  0  0  0  0  0  0
  -22.2180   -4.6780   20.9330 F   0  0  0  0  0  0  0  0  0  0  0  0
  -21.5530   -3.9740   25.6080 F   0  0  0  0  0  0  0  0  0  0  0  0
  -23.1170  -13.9470   21.1460 C   0  0  0  0  0  0  0  0  0  0  0  0
  -22.4250  -13.2430   22.0350 N   0  0  0  0  0  0  0  0  0  0  0  0
  -22.6890  -15.0160   20.7090 O   0  0  0  0  0  0  0  0  0  0  0  0
  -22.7840  -12.3790   22.4130 H   0  0  0  0  0  0  0  0  0  0  0  0
  -21.5230  -13.5750   22.3450 H   0  0  0  0  0  0  0  0  0  0  0  0
  -25.7490  -15.5380   20.2010 N   0  0  0  0  0  0  0  0  0  0  0  0
  -25.0230  -16.2140   20.4100 H   0  0  0  0  0  0  0  0  0  0  0  0
  -26.5560  -15.9520   19.7540 H   0  0  0  0  0  0  0  0  0  0  0  0
  -30.2900  -24.6200   18.3730 C   0  0  0  0  0  2  0  0  0  0  0  0
  -30.4610  -23.0710   18.2550 C   0  0  0  0  0  2  0  0  0  0  0  0
  -28.5150  -23.5700   19.4720 C   0  0  0  0  0  2  0  0  0  0  0  0
  -28.8080  -24.9520   18.6170 C   0  0  0  0  0  3  0  0  0  0  0  0
  -29.4550  -22.4070   19.0910 N   0  0  0  0  0  0  0  0  0  0  0  0
  -28.6960  -26.4460   19.0440 O   0  0  0  0  0  0  0  0  0  0  0  0
  -24.6400  -31.3450   22.7080 C   0  0  0  0  0  0  0  0  0  0  0  0
  -27.5230  -27.2760   19.0840 C   0  0  0  0  0  0  0  0  0  0  0  0
  -23.5110  -30.0350   20.9510 C   0  0  0  0  0  3  0  0  0  0  0  0
  -25.0400  -28.7710   19.3130 C   0  0  0  0  0  0  0  0  0  0  0  0
  -26.0190  -30.5610   20.7470 C   0  0  0  0  0  2  0  0  0  0  0  0
  -26.1930  -29.2640   19.9370 C   0  0  0  0  0  0  0  0  0  0  0  0
  -27.4290  -28.5320   19.8070 C   0  0  0  0  0  3  0  0  0  0  0  0
  -26.3320  -26.8740   18.4420 C   0  0  0  0  0  3  0  0  0  0  0  0
  -25.1200  -27.5930   18.5530 C   0  0  0  0  0  3  0  0  0  0  0  0
  -23.7380  -29.5370   19.4980 C   0  0  0  0  0  2  0  0  0  0  0  0
  -24.7440  -30.6640   21.5250 N   0  0  0  0  0  0  0  0  0  0  0  0
  -23.5540  -31.4650   23.2940 O   0  0  0  0  0  0  0  0  0  0  0  0
  -22.9640  -28.8670   21.8090 C   0  0  0  0  0  0  0  0  0  0  0  0
  -21.6500  -28.5950   21.7060 N   0  0  0  0  0  0  0  0  0  0  0  0
  -23.7210  -28.2120   22.5290 O   0  0  0  0  0  0  0  0  0  0  0  0
  -21.0910  -29.1810   21.1030 H   0  0  0  0  0  0  0  0  0  0  0  0
  -18.3990  -27.0750   22.2010 C   0  0  0  0  0  0  0  0  0  0  0  0
  -20.9440  -27.5070   22.3890 C   0  0  0  0  0  3  0  0  0  0  0  0
  -21.1190  -26.1690   21.6340 C   0  0  0  0  0  2  0  0  0  0  0  0
  -19.9930  -25.8850   20.6350 C   0  0  0  0  0  2  0  0  0  0  0  0
  -18.6400  -25.8390   21.3520 C   0  0  0  0  0  2  0  0  0  0  0  0
  -19.4800  -27.8680   22.6740 C   0  0  0  0  0  0  0  0  0  0  0  0
  -19.1980  -29.0260   23.4310 C   0  0  0  0  0  3  0  0  0  0  0  0
  -17.8690  -29.3920   23.7190 C   0  0  0  0  0  3  0  0  0  0  0  0
  -16.8050  -28.5970   23.2600 C   0  0  0  0  0  3  0  0  0  0  0  0
  -17.0720  -27.4400   22.5060 C   0  0  0  0  0  3  0  0  0  0  0  0
  -25.8790  -32.0220   23.3700 C   0  0  0  0  0  3  0  0  0  0  0  0
  -26.5330  -31.1430   24.5060 C   0  0  1  0  0  0  0  0  0  0  0  0
  -25.5250  -30.6540   25.5730 C   0  0  0  0  0  1  0  0  0  0  0  0
  -27.2260  -29.8960   23.9090 C   0  0  0  0  0  1  0  0  0  0  0  0
  -27.6330  -31.9540   25.2290 C   0  0  0  0  0  1  0  0  0  0  0  0
  -25.4440  -33.3190   23.9120 N   0  0  0  0  0  0  0  0  0  0  0  0
  -25.6410  -34.5020   23.3160 C   0  0  0  0  0  0  0  0  0  0  0  0
  -26.2740  -34.6220   22.2640 O   0  0  0  0  0  0  0  0  0  0  0  0
  -24.8710  -33.2900   24.7420 H   0  0  0  0  0  0  0  0  0  0  0  0
  -23.7270  -36.1370   23.2920 C   0  0  0  0  0  1  0  0  0  0  0  0
  -25.0410  -35.7510   23.9930 C   0  0  0  0  0  3  0  0  0  0  0  0
  -27.1130  -36.7270   24.8760 C   0  0  0  0  0  1  0  0  0  0  0  0
  -25.9560  -36.9130   24.0050 N   0  0  0  0  0  0  0  0  0  0  0  0
  -25.4670  -37.7530   24.3020 H   0  0  0  0  0  0  0  0  0  0  0  0
  -27.1720  -20.6100   20.3410 C   0  0  1  0  0  0  0  0  0  0  0  0
  -26.3390  -19.6650   20.7820 F   0  0  0  0  0  0  0  0  0  0  0  0
  -27.3190  -21.4840   21.3370 F   0  0  0  0  0  0  0  0  0  0  0  0
  -26.5760  -21.2110   19.3120 F   0  0  0  0  0  0  0  0  0  0  0  0
  1  2  2  0
  1  5  1  0
  2  6  1  0
  4  3  1  0
  4 91  1  0
  5  4  2  0
  6 15  1  0
  6  3  2  0
  7 13  1  0
  7 15  1  0
  8 13  1  0
  9 10  1  0
  9  8  1  0
 11 10  1  0
 11 20  1  0
 11 12  1  0
 13 12  1  0
 14  7  2  0
 15 16  1  0
 17 18  2  0
 18 37  1  0
 19 18  1  0
 19 22  1  0
 20 21  1  0
 20 17  1  0
 21 19  2  0
 22 23  1  0
 23 24  2  0
 25 28  1  0
 25 24  1  0
 26 25  2  0
 27 26  1  0
 27 22  2  0
 28 29  1  0
 29 30  1  0
 30 31  2  0
 32 31  1  0
 32 36  1  0
 33 32  2  0
 34 29  2  0
 34 33  1  0
 35 34  1  0
 37 38  1  0
 38 41  1  0
 38 40  1  0
 39 37  2  0
 42 17  1  0
 42 43  1  0
 44 42  1  0
 45 48  1  0
 46 45  1  0
 46 49  1  0
 48 50  1  0
 48 47  1  0
 49  5  1  0
 49 47  1  0
 50 52  1  0
 51 62  2  0
 52 57  1  0
 53 61  1  0
 53 63  1  0
 54 60  1  0
 54 56  1  0
 55 61  1  0
 56 55  1  0
 57 56  2  0
 58 59  1  0
 58 52  2  0
 59 54  2  0
 60 53  1  0
 61 51  1  0
 63 65  2  0
 64 63  1  0
 66 64  1  0
 67 76  2  0
 67 72  1  0
 68 64  1  0
 68 72  1  0
 69 68  1  0
 70 71  1  0
 70 69  1  0
 71 67  1  0
 72 73  2  0
 73 74  1  0
 75 74  2  0
 76 75  1  0
 77 51  1  0
 77 82  1  0
 77 78  1  0
 78 81  1  1
 78 79  1  0
 80 78  1  0
 82 85  1  0
 83 82  1  0
 83 87  1  0
 84 83  2  0
 87 86  1  0
 87 89  1  0
 89 90  1  0
 89 88  1  0
 91 92  1  1
 91 93  1  0
 94 91  1  0
M  ISO  4   7 100  15 100  48 101  50 101
M  END
>  <TORSDO>  (24) 
F 18

>  <SCORE>  (24) 
-9.780

>  <name>  (24) 
23

>  <ligand_id>  (24) 
23

>  <original_smiles>  (24) 
[H]c1c([H])c([H])c2c(c1[H])C([H])([H])C([H])([H])C([H])([H])C2([H])N([H])C(=O)C1([H])N(C(=O)C([H])(N([H])C(=O)C([H])(N([H])C([H])([H])[H])C([H])([H])[H])C(C([H])([H])[H])(C([H])([H])[H])C([H])([H])[H])C([H])([H])c2c([H])c(OC3([H])C([H])([H])N(c4c([H])c([H])c(N([H])C(=O)N5C([H])([H])C([H])([H])C([H])([H])C([H])(n6nc(-c7c([H])c([H])c(Oc8c([H])c([H])c(F)c([H])c8F)c([H])c7[H])c(C(=O)N([H])[H])c6N([H])[H])C5([H])[H])c([H])c4C(F)(F)F)C([H])([H])C3([H])[H])c([H])c([H])c2C1([H])[H]

>  <smiles>  (24) 
[H]c1c([H])c([H])c2c(c1[H])C([H])([H])C([H])([H])C([H])([H])C2([H])N([H])C(=O)C1([H])N(C(=O)C([H])(N([H])C(=O)C([H])(N([H])C([H])([H])[H])C([H])([H])[H])C(C([H])([H])[H])(C([H])([H])[H])C([H])([H])[H])C([H])([H])c2c([H])c(OC3([H])C([H])([H])N(c4c([H])c([H])c(N([H])C(=O)N5C([H])([H])C([H])([H])C([H])([H])C([H])(n6nc(-c7c([H])c([H])c(Oc8c([H])c([H])c(F)c([H])c8F)c([H])c7[H])c(C(=O)N([H])[H])c6N([H])[H])C5([H])[H])c([H])c4C(F)(F)F)C([H])([H])C3([H])[H])c([H])c([H])c2C1([H])[H]

$$$$
24:0:0
     RDKit          3D

 87 95  0  0  1  0  0  0  0  0999 V2000
  -28.6710  -21.0470   19.8780 N   0  0  0  0  0  4  0  0  0  0  0  0
  -27.6710  -20.9150   19.8860 H   0  0  0  0  0  0  0  0  0  0  0  0
  -28.9060  -21.1140   18.9000 H   0  0  0  0  0  0  0  0  0  0  0  0
  -30.4410  -15.3740   19.7820 C   0  0  0  0  0  0  0  0  0  0  0  0
  -30.3740  -12.9270   18.8570 C   0  0  0  0  0  2  0  0  0  0  0  0
  -29.3570  -12.7160   17.7050 C   0  0  0  0  0  2  0  0  0  0  0  0
  -27.9560  -12.4260   18.2670 C   0  0  0  0  0  2  0  0  0  0  0  0
  -27.6050  -13.3640   19.4510 C   0  0  0  0  0  3  0  0  0  0  0  0
  -28.7440  -13.4900   20.4850 C   0  0  0  0  0  2  0  0  0  0  0  0
  -29.8930  -14.0520   19.7580 N   0  0  0  0  0  0  0  0  0  0  0  0
  -31.6030  -15.3780   19.3340 O   0  0  0  0  0  0  0  0  0  0  0  0
  -28.2690  -18.5660   21.0860 C   0  0  0  0  0  2  0  0  0  0  0  0
  -28.8290  -17.0520   21.1440 C   0  0  0  0  0  2  0  0  0  0  0  0
  -29.8200  -18.1980   19.4350 C   0  0  0  0  0  2  0  0  0  0  0  0
  -29.2580  -19.5410   20.3700 C   0  0  0  0  0  3  0  0  0  0  0  0
  -29.7150  -16.6810   20.0000 N   0  0  0  0  0  0  0  0  0  0  0  0
  -25.3280  -13.9050   20.4490 C   0  0  0  0  0  0  0  0  0  0  0  0
  -24.2990  -13.1210   20.8850 C   0  0  0  0  0  0  0  0  0  0  0  0
  -24.7420  -11.7700   20.7430 C   0  0  0  0  0  0  0  0  0  0  0  0
  -26.3310  -13.0340   20.0650 N   0  0  0  0  0  0  0  0  0  0  0  0
  -25.9960  -11.7390   20.3040 N   0  0  0  0  0  0  0  0  0  0  0  0
  -24.0210  -10.5080   20.9430 C   0  0  0  0  0  0  0  0  0  0  0  0
  -24.4890   -9.5200   21.8380 C   0  0  0  0  0  3  0  0  0  0  0  0
  -23.7620   -8.3260   22.0280 C   0  0  0  0  0  3  0  0  0  0  0  0
  -22.5530   -8.1090   21.3240 C   0  0  0  0  0  0  0  0  0  0  0  0
  -22.1030   -9.0880   20.4200 C   0  0  0  0  0  3  0  0  0  0  0  0
  -22.8290  -10.2730   20.2270 C   0  0  0  0  0  3  0  0  0  0  0  0
  -21.7930   -6.9700   21.4280 O   0  0  0  0  0  0  0  0  0  0  0  0
  -21.7360   -6.2480   22.5930 C   0  0  0  0  0  0  0  0  0  0  0  0
  -21.2950   -6.8220   23.8060 C   0  0  0  0  0  3  0  0  0  0  0  0
  -21.1810   -6.0250   24.9610 C   0  0  0  0  0  3  0  0  0  0  0  0
  -21.5010   -4.6540   24.9040 C   0  0  0  0  0  0  0  0  0  0  0  0
  -21.9380   -4.0810   23.6980 C   0  0  0  0  0  3  0  0  0  0  0  0
  -22.0520   -4.8740   22.5440 C   0  0  0  0  0  0  0  0  0  0  0  0
  -22.4490   -4.3130   21.3770 F   0  0  0  0  0  0  0  0  0  0  0  0
  -21.3870   -3.8880   26.0140 F   0  0  0  0  0  0  0  0  0  0  0  0
  -22.9430  -13.6000   21.3070 C   0  0  0  0  0  0  0  0  0  0  0  0
  -22.2960  -12.8820   22.2160 N   0  0  0  0  0  0  0  0  0  0  0  0
  -22.4710  -14.6500   20.8710 O   0  0  0  0  0  0  0  0  0  0  0  0
  -22.6980  -12.0400   22.6020 H   0  0  0  0  0  0  0  0  0  0  0  0
  -21.3920  -13.1910   22.5470 H   0  0  0  0  0  0  0  0  0  0  0  0
  -25.4770  -15.2790   20.3100 N   0  0  0  0  0  0  0  0  0  0  0  0
  -24.7020  -15.9030   20.4950 H   0  0  0  0  0  0  0  0  0  0  0  0
  -26.2400  -15.7310   19.8220 H   0  0  0  0  0  0  0  0  0  0  0  0
  -28.8430  -22.6160   20.4690 C   0  0  0  0  0  3  0  0  0  0  0  0
  -27.9680  -24.1680   20.0560 C   0  0  0  0  0  3  0  0  0  0  0  0
  -28.1700  -25.8030   20.3440 O   0  0  0  0  0  0  0  0  0  0  0  0
  -24.6210  -31.8290   23.1980 C   0  0  0  0  0  0  0  0  0  0  0  0
  -27.1840  -26.9270   20.2240 C   0  0  0  0  0  0  0  0  0  0  0  0
  -23.4430  -30.4390   21.5400 C   0  0  0  0  0  3  0  0  0  0  0  0
  -24.9060  -28.8400   20.1230 C   0  0  0  0  0  0  0  0  0  0  0  0
  -26.0090  -30.6460   21.4260 C   0  0  0  0  0  2  0  0  0  0  0  0
  -26.0850  -29.2330   20.7720 C   0  0  0  0  0  0  0  0  0  0  0  0
  -27.2170  -28.2970   20.7970 C   0  0  0  0  0  3  0  0  0  0  0  0
  -25.9840  -26.6980   19.5170 C   0  0  0  0  0  3  0  0  0  0  0  0
  -24.8860  -27.5970   19.4720 C   0  0  0  0  0  3  0  0  0  0  0  0
  -23.6890  -29.7680   20.1600 C   0  0  0  0  0  2  0  0  0  0  0  0
  -24.7110  -31.0000   22.1090 N   0  0  0  0  0  0  0  0  0  0  0  0
  -23.5280  -32.1150   23.7140 O   0  0  0  0  0  0  0  0  0  0  0  0
  -22.7400  -29.4370   22.4950 C   0  0  0  0  0  0  0  0  0  0  0  0
  -21.4120  -29.2680   22.3560 N   0  0  0  0  0  0  0  0  0  0  0  0
  -23.4000  -28.8130   23.3300 O   0  0  0  0  0  0  0  0  0  0  0  0
  -20.9290  -29.8250   21.6640 H   0  0  0  0  0  0  0  0  0  0  0  0
  -18.0330  -28.0390   22.8250 C   0  0  0  0  0  0  0  0  0  0  0  0
  -20.5870  -28.3280   23.1210 C   0  0  0  0  0  3  0  0  0  0  0  0
  -20.7080  -26.8950   22.5520 C   0  0  0  0  0  2  0  0  0  0  0  0
  -19.6220  -26.5600   21.5240 C   0  0  0  0  0  2  0  0  0  0  0  0
  -18.2320  -26.6920   22.1500 C   0  0  0  0  0  2  0  0  0  0  0  0
  -19.1390  -28.8150   23.2670 C   0  0  0  0  0  0  0  0  0  0  0  0
  -18.8980  -30.0720   23.8630 C   0  0  0  0  0  3  0  0  0  0  0  0
  -17.5850  -30.5560   24.0160 C   0  0  0  0  0  3  0  0  0  0  0  0
  -16.4940  -29.7790   23.5880 C   0  0  0  0  0  3  0  0  0  0  0  0
  -16.7200  -28.5220   22.9990 C   0  0  0  0  0  3  0  0  0  0  0  0
  -25.8870  -32.4720   23.8400 C   0  0  0  0  0  3  0  0  0  0  0  0
  -25.5770  -33.8800   24.1460 N   0  0  0  0  0  0  0  0  0  0  0  0
  -25.9040  -34.9240   23.3740 C   0  0  0  0  0  0  0  0  0  0  0  0
  -26.5600  -34.8050   22.3360 O   0  0  0  0  0  0  0  0  0  0  0  0
  -24.9930  -34.0450   24.9520 H   0  0  0  0  0  0  0  0  0  0  0  0
  -24.1650  -36.7200   23.0450 C   0  0  0  0  0  1  0  0  0  0  0  0
  -25.4300  -36.3220   23.8230 C   0  0  0  0  0  3  0  0  0  0  0  0
  -27.5810  -37.2370   24.5800 C   0  0  0  0  0  1  0  0  0  0  0  0
  -26.4560  -37.3750   23.6600 N   0  0  0  0  0  0  0  0  0  0  0  0
  -26.0490  -38.2960   23.7930 H   0  0  0  0  0  0  0  0  0  0  0  0
  -26.3670  -31.7260   25.1470 C   0  0  1  0  0  0  0  0  0  0  0  0
  -25.2470  -31.5240   26.1940 C   0  0  0  0  0  1  0  0  0  0  0  0
  -26.9460  -30.3330   24.8110 C   0  0  0  0  0  1  0  0  0  0  0  0
  -27.5050  -32.5290   25.8250 C   0  0  0  0  0  1  0  0  0  0  0  0
  1  2  1  0
  1 45  1  0
  3  1  1  0
  4 16  1  0
  5 10  1  0
  6  7  1  0
  6  5  1  0
  8  7  1  0
  8 20  1  0
  8  9  1  0
 10  4  1  0
 10  9  1  0
 11  4  2  0
 12 13  1  0
 14 16  1  0
 14 15  1  0
 15  1  1  0
 15 12  1  0
 16 13  1  0
 17 18  2  0
 18 37  1  0
 19 18  1  0
 19 22  1  0
 20 21  1  0
 20 17  1  0
 21 19  2  0
 22 23  1  0
 23 24  2  0
 25 28  1  0
 25 24  1  0
 26 25  2  0
 27 26  1  0
 27 22  2  0
 28 29  1  0
 29 30  1  0
 30 31  2  0
 32 31  1  0
 32 36  1  0
 33 32  2  0
 34 29  2  0
 34 33  1  0
 35 34  1  0
 37 38  1  0
 38 41  1  0
 38 40  1  0
 39 37  2  0
 42 17  1  0
 42 43  1  0
 44 42  1  0
 46 47  1  0
 46 45  2  0
 48 59  2  0
 49 47  1  0
 49 54  1  0
 50 58  1  0
 50 60  1  0
 51 57  1  0
 51 53  1  0
 52 58  1  0
 53 54  2  0
 53 52  1  0
 55 49  2  0
 56 55  1  0
 56 51  2  0
 57 50  1  0
 58 48  1  0
 60 62  2  0
 61 60  1  0
 63 61  1  0
 64 73  2  0
 64 69  1  0
 65 61  1  0
 65 69  1  0
 66 65  1  0
 67 68  1  0
 67 66  1  0
 68 64  1  0
 69 70  2  0
 70 71  1  0
 72 71  2  0
 73 72  1  0
 74 48  1  0
 74 75  1  0
 74 84  1  0
 75 78  1  0
 76 80  1  0
 76 75  1  0
 77 76  2  0
 80 79  1  0
 82 83  1  0
 82 80  1  0
 82 81  1  0
 84 87  1  1
 84 85  1  0
 86 84  1  0
M  ISO  4   4 100  16 100  46 101  47 101
M  END
>  <TORSDO>  (25) 
F 18

>  <SCORE>  (25) 
-15.235

>  <name>  (25) 
24

>  <ligand_id>  (25) 
24

>  <original_smiles>  (25) 
[H]c1c([H])c([H])c2c(c1[H])C([H])([H])C([H])([H])C([H])([H])C2([H])N([H])C(=O)C1([H])N(C(=O)C([H])(N([H])C(=O)C([H])(N([H])C([H])([H])[H])C([H])([H])[H])C(C([H])([H])[H])(C([H])([H])[H])C([H])([H])[H])C([H])([H])c2c([H])c(OC([H])([H])C([H])([H])[N+]([H])([H])C3([H])C([H])([H])N(C(=O)N4C([H])([H])C([H])([H])C([H])([H])C([H])(n5nc(-c6c([H])c([H])c(Oc7c([H])c([H])c(F)c([H])c7F)c([H])c6[H])c(C(=O)N([H])[H])c5N([H])[H])C4([H])[H])C([H])([H])C3([H])[H])c([H])c([H])c2C1([H])[H]

>  <smiles>  (25) 
[H]c1c([H])c([H])c2c(c1[H])C([H])([H])C([H])([H])C([H])([H])C2([H])N([H])C(=O)C1([H])N(C(=O)C([H])(N([H])C(=O)C([H])(N([H])C([H])([H])[H])C([H])([H])[H])C(C([H])([H])[H])(C([H])([H])[H])C([H])([H])[H])C([H])([H])c2c([H])c(OC([H])([H])C([H])([H])[N+]([H])([H])C3([H])C([H])([H])N(C(=O)N4C([H])([H])C([H])([H])C([H])([H])C([H])(n5nc(-c6c([H])c([H])c(Oc7c([H])c([H])c(F)c([H])c7F)c([H])c6[H])c(C(=O)N([H])[H])c5N([H])[H])C4([H])[H])C([H])([H])C3([H])[H])c([H])c([H])c2C1([H])[H]

$$$$
25:0:0
     RDKit          3D

 91 99  0  0  1  0  0  0  0  0999 V2000
  -29.1330  -21.5120   21.4630 C   0  0  0  0  0  3  0  0  0  0  0  0
  -29.4110  -20.0900   21.5400 C   0  0  0  0  0  3  0  0  0  0  0  0
  -29.1950  -22.2760   20.2550 C   0  0  0  0  0  0  0  0  0  0  0  0
  -29.7810  -19.2540   20.4310 C   0  0  0  0  0  0  0  0  0  0  0  0
  -29.5280  -21.4440   19.1330 C   0  0  0  0  0  0  0  0  0  0  0  0
  -29.8060  -20.0190   19.2110 C   0  0  0  0  0  0  0  0  0  0  0  0
  -29.6530  -22.0390   17.9220 F   0  0  0  0  0  0  0  0  0  0  0  0
  -30.1740  -19.4030   18.0630 F   0  0  0  0  0  0  0  0  0  0  0  0
  -29.1810  -23.9160   20.1750 C   0  0  0  0  0  2  0  0  0  0  0  0
  -27.9890  -24.8550   20.4100 N   0  0  0  0  0  0  0  0  0  0  0  0
  -27.7260  -24.7870   21.3890 H   0  0  0  0  0  0  0  0  0  0  0  0
  -28.3310  -26.3740   20.1920 O   0  0  0  0  0  0  0  0  0  0  0  0
  -24.6010  -31.9340   23.2160 C   0  0  0  0  0  0  0  0  0  0  0  0
  -27.2290  -27.2860   20.1880 C   0  0  0  0  0  0  0  0  0  0  0  0
  -23.4110  -30.5300   21.5720 C   0  0  0  0  0  3  0  0  0  0  0  0
  -24.8730  -28.9670   20.1540 C   0  0  0  0  0  0  0  0  0  0  0  0
  -25.9580  -30.8260   21.4110 C   0  0  0  0  0  2  0  0  0  0  0  0
  -26.0430  -29.4360   20.7670 C   0  0  0  0  0  0  0  0  0  0  0  0
  -27.2190  -28.6060   20.7760 C   0  0  0  0  0  3  0  0  0  0  0  0
  -26.0380  -26.9030   19.5360 C   0  0  0  0  0  3  0  0  0  0  0  0
  -24.8790  -27.7100   19.5270 C   0  0  0  0  0  3  0  0  0  0  0  0
  -23.6380  -29.8520   20.1950 C   0  0  0  0  0  2  0  0  0  0  0  0
  -24.6760  -31.1190   22.1220 N   0  0  0  0  0  0  0  0  0  0  0  0
  -23.5140  -32.2110   23.7440 O   0  0  0  0  0  0  0  0  0  0  0  0
  -22.7410  -29.5180   22.5340 C   0  0  0  0  0  0  0  0  0  0  0  0
  -21.4160  -29.3300   22.3970 N   0  0  0  0  0  0  0  0  0  0  0  0
  -23.4130  -28.9030   23.3650 O   0  0  0  0  0  0  0  0  0  0  0  0
  -20.9300  -29.8780   21.7000 H   0  0  0  0  0  0  0  0  0  0  0  0
  -18.0440  -28.1030   22.8780 C   0  0  0  0  0  0  0  0  0  0  0  0
  -20.5990  -28.3890   23.1640 C   0  0  0  0  0  3  0  0  0  0  0  0
  -20.7170  -26.9560   22.5950 C   0  0  0  0  0  2  0  0  0  0  0  0
  -19.6260  -26.6200   21.5740 C   0  0  0  0  0  2  0  0  0  0  0  0
  -18.2380  -26.7540   22.2080 C   0  0  0  0  0  2  0  0  0  0  0  0
  -19.1520  -28.8780   23.3140 C   0  0  0  0  0  0  0  0  0  0  0  0
  -18.9160  -30.1390   23.9020 C   0  0  0  0  0  3  0  0  0  0  0  0
  -17.6050  -30.6270   24.0590 C   0  0  0  0  0  3  0  0  0  0  0  0
  -16.5120  -29.8510   23.6400 C   0  0  0  0  0  3  0  0  0  0  0  0
  -16.7310  -28.5910   23.0540 C   0  0  0  0  0  3  0  0  0  0  0  0
  -25.8770  -32.5750   23.8440 C   0  0  0  0  0  3  0  0  0  0  0  0
  -26.3850  -31.8130   25.1300 C   0  0  1  0  0  0  0  0  0  0  0  0
  -25.2840  -31.5760   26.1900 C   0  0  0  0  0  1  0  0  0  0  0  0
  -26.9790  -30.4350   24.7540 C   0  0  0  0  0  1  0  0  0  0  0  0
  -27.5270  -32.6160   25.7980 C   0  0  0  0  0  1  0  0  0  0  0  0
  -25.5600  -33.9740   24.1700 N   0  0  0  0  0  0  0  0  0  0  0  0
  -25.9010  -35.0290   23.4180 C   0  0  0  0  0  0  0  0  0  0  0  0
  -26.5830  -34.9270   22.3950 O   0  0  0  0  0  0  0  0  0  0  0  0
  -24.9570  -34.1280   24.9640 H   0  0  0  0  0  0  0  0  0  0  0  0
  -24.1870  -36.8320   23.0390 C   0  0  0  0  0  1  0  0  0  0  0  0
  -25.4100  -36.4180   23.8720 C   0  0  0  0  0  3  0  0  0  0  0  0
  -27.5290  -37.2970   24.7510 C   0  0  0  0  0  1  0  0  0  0  0  0
  -26.4500  -37.4680   23.7830 N   0  0  0  0  0  0  0  0  0  0  0  0
  -26.0430  -38.3900   23.9200 H   0  0  0  0  0  0  0  0  0  0  0  0
  -30.2680  -17.6850   20.6550 C   0  0  0  0  0  2  0  0  0  0  0  0
  -30.6380  -15.0430   20.1670 C   0  0  0  0  0  0  0  0  0  0  0  0
  -30.4830  -12.6960   19.2420 C   0  0  0  0  0  2  0  0  0  0  0  0
  -29.5220  -12.6170   18.0350 C   0  0  0  0  0  2  0  0  0  0  0  0
  -28.0690  -12.4000   18.5050 C   0  0  0  0  0  2  0  0  0  0  0  0
  -27.6700  -13.3260   19.6810 C   0  0  0  0  0  3  0  0  0  0  0  0
  -28.7580  -13.4000   20.7740 C   0  0  0  0  0  2  0  0  0  0  0  0
  -30.0100  -13.8000   20.1160 N   0  0  0  0  0  0  0  0  0  0  0  0
  -31.8680  -15.0610   20.0540 O   0  0  0  0  0  0  0  0  0  0  0  0
  -28.9480  -16.3810   18.9680 C   0  0  0  0  0  1  0  0  0  0  0  0
  -29.8930  -16.2600   20.0950 N   0  0  0  0  0  0  0  0  0  0  0  0
  -25.3080  -13.9090   20.4730 C   0  0  0  0  0  0  0  0  0  0  0  0
  -24.2520  -13.1280   20.8530 C   0  0  0  0  0  0  0  0  0  0  0  0
  -24.7240  -11.7810   20.8110 C   0  0  0  0  0  0  0  0  0  0  0  0
  -26.3500  -13.0320   20.2150 N   0  0  0  0  0  0  0  0  0  0  0  0
  -26.0090  -11.7490   20.4860 N   0  0  0  0  0  0  0  0  0  0  0  0
  -24.0100  -10.5150   21.0040 C   0  0  0  0  0  0  0  0  0  0  0  0
  -24.4470   -9.5590   21.9490 C   0  0  0  0  0  3  0  0  0  0  0  0
  -23.7330   -8.3560   22.1290 C   0  0  0  0  0  3  0  0  0  0  0  0
  -22.5700   -8.1000   21.3640 C   0  0  0  0  0  0  0  0  0  0  0  0
  -22.1540   -9.0440   20.4090 C   0  0  0  0  0  3  0  0  0  0  0  0
  -22.8690  -10.2390   20.2260 C   0  0  0  0  0  3  0  0  0  0  0  0
  -21.8270   -6.9480   21.4560 O   0  0  0  0  0  0  0  0  0  0  0  0
  -21.7550   -6.2300   22.6220 C   0  0  0  0  0  0  0  0  0  0  0  0
  -21.2660   -6.7990   23.8180 C   0  0  0  0  0  3  0  0  0  0  0  0
  -21.1440   -6.0050   24.9760 C   0  0  0  0  0  3  0  0  0  0  0  0
  -21.5010   -4.6440   24.9380 C   0  0  0  0  0  0  0  0  0  0  0  0
  -21.9830   -4.0750   23.7460 C   0  0  0  0  0  3  0  0  0  0  0  0
  -22.1080   -4.8660   22.5900 C   0  0  0  0  0  0  0  0  0  0  0  0
  -22.5540   -4.3070   21.4390 F   0  0  0  0  0  0  0  0  0  0  0  0
  -21.3750   -3.8790   26.0470 F   0  0  0  0  0  0  0  0  0  0  0  0
  -22.8550  -13.5980   21.1390 C   0  0  0  0  0  0  0  0  0  0  0  0
  -22.1390  -12.8890   22.0060 N   0  0  0  0  0  0  0  0  0  0  0  0
  -22.4080  -14.6250   20.6320 O   0  0  0  0  0  0  0  0  0  0  0  0
  -22.5140  -12.0580   22.4380 H   0  0  0  0  0  0  0  0  0  0  0  0
  -21.2020  -13.1850   22.2420 H   0  0  0  0  0  0  0  0  0  0  0  0
  -25.4630  -15.2820   20.3020 N   0  0  0  0  0  0  0  0  0  0  0  0
  -24.7000  -15.9350   20.4410 H   0  0  0  0  0  0  0  0  0  0  0  0
  -26.3180  -15.7290   20.0030 H   0  0  0  0  0  0  0  0  0  0  0  0
  1  2  1  0
  3  1  2  0
  4 53  1  0
  4  2  2  0
  5  6  2  0
  5  3  1  0
  6  4  1  0
  7  5  1  0
  8  6  1  0
  9  3  1  0
  9 10  1  0
 10 11  1  0
 12 10  1  0
 13 24  2  0
 14 12  1  0
 14 19  1  0
 15 23  1  0
 15 25  1  0
 16 22  1  0
 16 18  1  0
 17 23  1  0
 18 19  2  0
 18 17  1  0
 20 14  2  0
 21 20  1  0
 21 16  2  0
 22 15  1  0
 23 13  1  0
 25 27  2  0
 26 25  1  0
 28 26  1  0
 29 38  2  0
 29 34  1  0
 30 26  1  0
 30 34  1  0
 31 30  1  0
 32 33  1  0
 32 31  1  0
 33 29  1  0
 34 35  2  0
 35 36  1  0
 37 36  2  0
 38 37  1  0
 39 13  1  0
 39 44  1  0
 39 40  1  0
 40 43  1  1
 40 41  1  0
 42 40  1  0
 44 47  1  0
 45 49  1  0
 45 44  1  0
 46 45  2  0
 49 48  1  0
 51 49  1  0
 51 52  1  0
 51 50  1  0
 55 60  1  0
 56 57  1  0
 56 55  1  0
 58 57  1  0
 58 67  1  0
 58 59  1  0
 60 54  1  0
 60 59  1  0
 61 54  2  0
 62 63  1  0
 63 54  1  0
 63 53  1  0
 64 65  2  0
 65 84  1  0
 66 65  1  0
 66 69  1  0
 67 64  1  0
 67 68  1  0
 68 66  2  0
 69 70  1  0
 70 71  2  0
 72 75  1  0
 72 71  1  0
 73 72  2  0
 74 73  1  0
 74 69  2  0
 75 76  1  0
 76 77  1  0
 77 78  2  0
 79 78  1  0
 79 83  1  0
 80 79  2  0
 81 76  2  0
 81 80  1  0
 82 81  1  0
 84 85  1  0
 85 88  1  0
 85 87  1  0
 86 84  2  0
 89 90  1  0
 89 64  1  0
 91 89  1  0
M  ISO  4  10 101  12 101  54 100  63 100
M  END
>  <TORSDO>  (26) 
F 19

>  <SCORE>  (26) 
-13.984

>  <name>  (26) 
25

>  <ligand_id>  (26) 
25

>  <original_smiles>  (26) 
[H]c1c([H])c([H])c2c(c1[H])C([H])([H])C([H])([H])C([H])([H])C2([H])N([H])C(=O)C1([H])N(C(=O)C([H])(N([H])C(=O)C([H])(N([H])C([H])([H])[H])C([H])([H])[H])C(C([H])([H])[H])(C([H])([H])[H])C([H])([H])[H])C([H])([H])c2c([H])c(ON([H])C([H])([H])c3c([H])c([H])c(C([H])([H])N(C(=O)N4C([H])([H])C([H])([H])C([H])([H])C([H])(n5nc(-c6c([H])c([H])c(Oc7c([H])c([H])c(F)c([H])c7F)c([H])c6[H])c(C(=O)N([H])[H])c5N([H])[H])C4([H])[H])C([H])([H])[H])c(F)c3F)c([H])c([H])c2C1([H])[H]

>  <smiles>  (26) 
[H]c1c([H])c([H])c2c(c1[H])C([H])([H])C([H])([H])C([H])([H])C2([H])N([H])C(=O)C1([H])N(C(=O)C([H])(N([H])C(=O)C([H])(N([H])C([H])([H])[H])C([H])([H])[H])C(C([H])([H])[H])(C([H])([H])[H])C([H])([H])[H])C([H])([H])c2c([H])c(ON([H])C([H])([H])c3c([H])c([H])c(C([H])([H])N(C(=O)N4C([H])([H])C([H])([H])C([H])([H])C([H])(n5nc(-c6c([H])c([H])c(Oc7c([H])c([H])c(F)c([H])c7F)c([H])c6[H])c(C(=O)N([H])[H])c5N([H])[H])C4([H])[H])C([H])([H])[H])c(F)c3F)c([H])c([H])c2C1([H])[H]

$$$$
26:0:0
     RDKit          3D

 91 99  0  0  1  0  0  0  0  0999 V2000
  -28.9510  -19.7500   19.3930 C   0  0  0  0  0  3  0  0  0  0  0  0
  -28.6550  -21.1740   19.3510 C   0  0  0  0  0  3  0  0  0  0  0  0
  -29.7460  -19.1180   20.4060 C   0  0  0  0  0  0  0  0  0  0  0  0
  -29.1160  -22.1420   20.3110 C   0  0  0  0  0  0  0  0  0  0  0  0
  -30.1420  -20.0740   21.4070 C   0  0  0  0  0  0  0  0  0  0  0  0
  -29.8470  -21.4980   21.3630 C   0  0  0  0  0  0  0  0  0  0  0  0
  -30.9180  -19.6330   22.4260 F   0  0  0  0  0  0  0  0  0  0  0  0
  -30.3700  -22.2790   22.3380 F   0  0  0  0  0  0  0  0  0  0  0  0
  -30.4470  -17.6270   20.2900 C   0  0  0  0  0  2  0  0  0  0  0  0
  -30.5800  -14.9620   20.1460 C   0  0  0  0  0  0  0  0  0  0  0  0
  -30.3570  -12.6590   19.1390 C   0  0  0  0  0  2  0  0  0  0  0  0
  -29.3870  -12.6830   17.9360 C   0  0  0  0  0  2  0  0  0  0  0  0
  -27.9350  -12.4880   18.4110 C   0  0  0  0  0  2  0  0  0  0  0  0
  -27.5840  -13.3810   19.6300 C   0  0  0  0  0  3  0  0  0  0  0  0
  -28.6750  -13.3430   20.7200 C   0  0  0  0  0  2  0  0  0  0  0  0
  -29.9350  -13.7330   20.0800 N   0  0  0  0  0  0  0  0  0  0  0  0
  -31.7720  -14.9960   19.8260 O   0  0  0  0  0  0  0  0  0  0  0  0
  -29.8750  -16.1720   20.3590 N   0  0  0  0  0  0  0  0  0  0  0  0
  -28.8910  -16.0860   20.5630 H   0  0  0  0  0  0  0  0  0  0  0  0
  -25.2270  -13.9630   20.4430 C   0  0  0  0  0  0  0  0  0  0  0  0
  -24.1720  -13.1870   20.8360 C   0  0  0  0  0  0  0  0  0  0  0  0
  -24.6310  -11.8350   20.7800 C   0  0  0  0  0  0  0  0  0  0  0  0
  -26.2600  -13.0840   20.1650 N   0  0  0  0  0  0  0  0  0  0  0  0
  -25.9130  -11.7980   20.4330 N   0  0  0  0  0  0  0  0  0  0  0  0
  -23.9050  -10.5730   20.9770 C   0  0  0  0  0  0  0  0  0  0  0  0
  -24.3450   -9.6050   21.9060 C   0  0  0  0  0  3  0  0  0  0  0  0
  -23.6190   -8.4090   22.0920 C   0  0  0  0  0  3  0  0  0  0  0  0
  -22.4370   -8.1740   21.3500 C   0  0  0  0  0  0  0  0  0  0  0  0
  -22.0150   -9.1320   20.4110 C   0  0  0  0  0  3  0  0  0  0  0  0
  -22.7430  -10.3180   20.2220 C   0  0  0  0  0  3  0  0  0  0  0  0
  -21.6800   -7.0310   21.4460 O   0  0  0  0  0  0  0  0  0  0  0  0
  -21.6230   -6.3020   22.6060 C   0  0  0  0  0  0  0  0  0  0  0  0
  -21.1540   -6.8610   23.8150 C   0  0  0  0  0  3  0  0  0  0  0  0
  -21.0450   -6.0560   24.9680 C   0  0  0  0  0  3  0  0  0  0  0  0
  -21.3950   -4.6950   24.9120 C   0  0  0  0  0  0  0  0  0  0  0  0
  -21.8570   -4.1350   23.7070 C   0  0  0  0  0  3  0  0  0  0  0  0
  -21.9670   -4.9360   22.5570 C   0  0  0  0  0  0  0  0  0  0  0  0
  -22.3920   -4.3870   21.3940 F   0  0  0  0  0  0  0  0  0  0  0  0
  -21.2840   -3.9190   26.0160 F   0  0  0  0  0  0  0  0  0  0  0  0
  -22.7840  -13.6670   21.1480 C   0  0  0  0  0  0  0  0  0  0  0  0
  -22.0790  -12.9700   22.0310 N   0  0  0  0  0  0  0  0  0  0  0  0
  -22.3370  -14.6950   20.6430 O   0  0  0  0  0  0  0  0  0  0  0  0
  -22.4550  -12.1380   22.4620 H   0  0  0  0  0  0  0  0  0  0  0  0
  -21.1490  -13.2740   22.2830 H   0  0  0  0  0  0  0  0  0  0  0  0
  -25.3880  -15.3350   20.2730 N   0  0  0  0  0  0  0  0  0  0  0  0
  -24.6210  -15.9840   20.4090 H   0  0  0  0  0  0  0  0  0  0  0  0
  -26.2170  -15.7770   19.8950 H   0  0  0  0  0  0  0  0  0  0  0  0
  -29.0840  -23.7740   20.0690 C   0  0  0  0  0  2  0  0  0  0  0  0
  -28.0630  -24.8020   20.5950 N   0  0  0  0  0  0  0  0  0  0  0  0
  -27.1780  -24.6230   20.1320 H   0  0  0  0  0  0  0  0  0  0  0  0
  -28.4050  -26.3080   20.2440 O   0  0  0  0  0  0  0  0  0  0  0  0
  -24.6600  -31.9000   23.2380 C   0  0  0  0  0  0  0  0  0  0  0  0
  -27.3150  -27.2380   20.2340 C   0  0  0  0  0  0  0  0  0  0  0  0
  -23.4880  -30.4910   21.5870 C   0  0  0  0  0  3  0  0  0  0  0  0
  -24.9650  -28.9320   20.1770 C   0  0  0  0  0  0  0  0  0  0  0  0
  -26.0370  -30.7890   21.4460 C   0  0  0  0  0  2  0  0  0  0  0  0
  -26.1290  -29.3980   20.8030 C   0  0  0  0  0  0  0  0  0  0  0  0
  -27.3050  -28.5630   20.8220 C   0  0  0  0  0  3  0  0  0  0  0  0
  -26.1320  -26.8670   19.5630 C   0  0  0  0  0  3  0  0  0  0  0  0
  -24.9760  -27.6780   19.5460 C   0  0  0  0  0  3  0  0  0  0  0  0
  -23.7280  -29.8160   20.2100 C   0  0  0  0  0  2  0  0  0  0  0  0
  -24.7470  -31.0820   22.1460 N   0  0  0  0  0  0  0  0  0  0  0  0
  -23.5670  -32.1730   23.7570 O   0  0  0  0  0  0  0  0  0  0  0  0
  -22.8130  -29.4770   22.5420 C   0  0  0  0  0  0  0  0  0  0  0  0
  -21.4870  -29.2970   22.4070 N   0  0  0  0  0  0  0  0  0  0  0  0
  -23.4850  -28.8540   23.3690 O   0  0  0  0  0  0  0  0  0  0  0  0
  -21.0030  -29.8500   21.7150 H   0  0  0  0  0  0  0  0  0  0  0  0
  -18.1090  -28.0880   22.8970 C   0  0  0  0  0  0  0  0  0  0  0  0
  -20.6670  -28.3540   23.1710 C   0  0  0  0  0  3  0  0  0  0  0  0
  -20.7730  -26.9250   22.5870 C   0  0  0  0  0  2  0  0  0  0  0  0
  -19.6730  -26.6060   21.5700 C   0  0  0  0  0  2  0  0  0  0  0  0
  -18.2900  -26.7440   22.2120 C   0  0  0  0  0  2  0  0  0  0  0  0
  -19.2250  -28.8500   23.3330 C   0  0  0  0  0  0  0  0  0  0  0  0
  -19.0020  -30.1080   23.9360 C   0  0  0  0  0  3  0  0  0  0  0  0
  -17.6960  -30.6030   24.1050 C   0  0  0  0  0  3  0  0  0  0  0  0
  -16.5940  -29.8380   23.6850 C   0  0  0  0  0  3  0  0  0  0  0  0
  -16.8020  -28.5820   23.0870 C   0  0  0  0  0  3  0  0  0  0  0  0
  -25.9290  -32.5460   23.8750 C   0  0  0  0  0  3  0  0  0  0  0  0
  -26.4380  -31.7780   25.1570 C   0  0  1  0  0  0  0  0  0  0  0  0
  -25.3370  -31.5260   26.2130 C   0  0  0  0  0  1  0  0  0  0  0  0
  -27.0420  -30.4070   24.7730 C   0  0  0  0  0  1  0  0  0  0  0  0
  -27.5730  -32.5840   25.8330 C   0  0  0  0  0  1  0  0  0  0  0  0
  -25.5990  -33.9410   24.2110 N   0  0  0  0  0  0  0  0  0  0  0  0
  -25.9080  -35.0010   23.4560 C   0  0  0  0  0  0  0  0  0  0  0  0
  -26.5690  -34.9120   22.4170 O   0  0  0  0  0  0  0  0  0  0  0  0
  -25.0090  -34.0830   25.0190 H   0  0  0  0  0  0  0  0  0  0  0  0
  -24.1500  -36.7730   23.1300 C   0  0  0  0  0  1  0  0  0  0  0  0
  -25.4070  -36.3820   23.9250 C   0  0  0  0  0  3  0  0  0  0  0  0
  -27.5350  -37.3010   24.7390 C   0  0  0  0  0  1  0  0  0  0  0  0
  -26.4240  -37.4510   23.8030 N   0  0  0  0  0  0  0  0  0  0  0  0
  -26.0050  -38.3650   23.9520 H   0  0  0  0  0  0  0  0  0  0  0  0
  1  3  1  0
  2  1  2  0
  2  4  1  0
  3  5  2  0
  4  6  2  0
  5  7  1  0
  6  5  1  0
  6  8  1  0
  9 18  1  0
  9  3  1  0
 10 18  1  0
 11 16  1  0
 12 13  1  0
 12 11  1  0
 14 13  1  0
 14 23  1  0
 14 15  1  0
 16 10  1  0
 16 15  1  0
 17 10  2  0
 18 19  1  0
 20 21  2  0
 21 40  1  0
 22 21  1  0
 22 25  1  0
 23 24  1  0
 23 20  1  0
 24 22  2  0
 25 26  1  0
 26 27  2  0
 28 31  1  0
 28 27  1  0
 29 28  2  0
 30 29  1  0
 30 25  2  0
 31 32  1  0
 32 33  1  0
 33 34  2  0
 35 34  1  0
 35 39  1  0
 36 35  2  0
 37 32  2  0
 37 36  1  0
 38 37  1  0
 40 41  1  0
 41 44  1  0
 41 43  1  0
 42 40  2  0
 45 46  1  0
 45 20  1  0
 47 45  1  0
 48  4  1  0
 48 49  1  0
 50 49  1  0
 51 49  1  0
 52 63  2  0
 53 51  1  0
 53 58  1  0
 54 62  1  0
 54 64  1  0
 55 61  1  0
 55 57  1  0
 56 62  1  0
 57 58  2  0
 57 56  1  0
 59 53  2  0
 60 59  1  0
 60 55  2  0
 61 54  1  0
 62 52  1  0
 64 66  2  0
 65 64  1  0
 67 65  1  0
 68 77  2  0
 68 73  1  0
 69 65  1  0
 69 73  1  0
 70 69  1  0
 71 72  1  0
 71 70  1  0
 72 68  1  0
 73 74  2  0
 74 75  1  0
 76 75  2  0
 77 76  1  0
 78 52  1  0
 78 83  1  0
 78 79  1  0
 79 82  1  1
 79 80  1  0
 81 79  1  0
 83 86  1  0
 84 88  1  0
 84 83  1  0
 85 84  2  0
 88 87  1  0
 90 88  1  0
 90 91  1  0
 90 89  1  0
M  ISO  4  10 100  18 100  49 101  51 101
M  END
>  <TORSDO>  (27) 
F 19

>  <SCORE>  (27) 
-14.403

>  <name>  (27) 
26

>  <ligand_id>  (27) 
26

>  <original_smiles>  (27) 
[H]c1c([H])c([H])c2c(c1[H])C([H])([H])C([H])([H])C([H])([H])C2([H])N([H])C(=O)C1([H])N(C(=O)C([H])(N([H])C(=O)C([H])(N([H])C([H])([H])[H])C([H])([H])[H])C(C([H])([H])[H])(C([H])([H])[H])C([H])([H])[H])C([H])([H])c2c([H])c(ON([H])C([H])([H])c3c([H])c([H])c(C([H])([H])N([H])C(=O)N4C([H])([H])C([H])([H])C([H])([H])C([H])(n5nc(-c6c([H])c([H])c(Oc7c([H])c([H])c(F)c([H])c7F)c([H])c6[H])c(C(=O)N([H])[H])c5N([H])[H])C4([H])[H])c(F)c3F)c([H])c([H])c2C1([H])[H]

>  <smiles>  (27) 
[H]c1c([H])c([H])c2c(c1[H])C([H])([H])C([H])([H])C([H])([H])C2([H])N([H])C(=O)C1([H])N(C(=O)C([H])(N([H])C(=O)C([H])(N([H])C([H])([H])[H])C([H])([H])[H])C(C([H])([H])[H])(C([H])([H])[H])C([H])([H])[H])C([H])([H])c2c([H])c(ON([H])C([H])([H])c3c([H])c([H])c(C([H])([H])N([H])C(=O)N4C([H])([H])C([H])([H])C([H])([H])C([H])(n5nc(-c6c([H])c([H])c(Oc7c([H])c([H])c(F)c([H])c7F)c([H])c6[H])c(C(=O)N([H])[H])c5N([H])[H])C4([H])[H])c(F)c3F)c([H])c([H])c2C1([H])[H]

$$$$
27:0:0
     RDKit          3D

 93102  0  0  1  0  0  0  0  0999 V2000
  -29.0150  -23.0710   22.6880 C   0  0  0  0  0  2  0  0  0  0  0  0
  -29.8250  -23.8420   21.6450 C   0  0  0  0  0  2  0  0  0  0  0  0
  -28.3460  -21.9100   21.9300 C   0  0  0  0  0  2  0  0  0  0  0  0
  -29.0770  -23.5860   20.3330 C   0  0  0  0  0  3  0  0  0  0  0  0
  -28.6380  -22.0830   20.4850 N   0  0  1  0  0  4  0  0  0  0  0  0
  -27.7740  -21.9500   19.9790 H   0  0  0  0  0  0  0  0  0  0  0  0
  -29.5850  -20.9580   19.9550 C   0  0  0  0  0  2  0  0  0  0  0  0
  -29.1410  -16.9700   19.3490 C   0  0  0  0  0  3  0  0  0  0  0  0
  -30.2830  -18.6820   21.2060 C   0  0  0  0  0  3  0  0  0  0  0  0
  -29.9880  -16.3260   20.3080 C   0  0  0  0  0  0  0  0  0  0  0  0
  -29.5020  -19.3420   20.2060 C   0  0  0  0  0  0  0  0  0  0  0  0
  -30.5260  -17.2590   21.2530 C   0  0  0  0  0  0  0  0  0  0  0  0
  -28.9100  -18.4020   19.2940 C   0  0  0  0  0  0  0  0  0  0  0  0
  -31.3680  -16.8050   22.2140 F   0  0  0  0  0  0  0  0  0  0  0  0
  -27.9510  -19.0000   17.9900 Cl  0  0  0  0  0  0  0  0  0  0  0  0
  -30.5870  -14.8680   20.1270 C   0  0  0  0  0  0  0  0  0  0  0  0
  -30.3100  -12.5670   19.1650 C   0  0  0  0  0  2  0  0  0  0  0  0
  -29.3520  -12.5930   17.9550 C   0  0  0  0  0  2  0  0  0  0  0  0
  -27.9000  -12.4010   18.4250 C   0  0  0  0  0  2  0  0  0  0  0  0
  -27.5390  -13.3160   19.6250 C   0  0  0  0  0  3  0  0  0  0  0  0
  -28.6250  -13.3210   20.7190 C   0  0  0  0  0  2  0  0  0  0  0  0
  -29.9000  -13.6650   20.0830 N   0  0  0  0  0  0  0  0  0  0  0  0
  -31.7770  -14.8420   19.8050 O   0  0  0  0  0  0  0  0  0  0  0  0
  -25.1870  -13.8880   20.4510 C   0  0  0  0  0  0  0  0  0  0  0  0
  -24.1320  -13.1090   20.8390 C   0  0  0  0  0  0  0  0  0  0  0  0
  -24.5910  -11.7580   20.7720 C   0  0  0  0  0  0  0  0  0  0  0  0
  -26.2180  -13.0130   20.1630 N   0  0  0  0  0  0  0  0  0  0  0  0
  -25.8730  -11.7240   20.4240 N   0  0  0  0  0  0  0  0  0  0  0  0
  -23.8680  -10.4940   20.9620 C   0  0  0  0  0  0  0  0  0  0  0  0
  -24.2970   -9.5290   21.9000 C   0  0  0  0  0  3  0  0  0  0  0  0
  -23.5710   -8.3310   22.0770 C   0  0  0  0  0  3  0  0  0  0  0  0
  -22.4000   -8.0900   21.3180 C   0  0  0  0  0  0  0  0  0  0  0  0
  -21.9910   -9.0440   20.3710 C   0  0  0  0  0  3  0  0  0  0  0  0
  -22.7170  -10.2330   20.1920 C   0  0  0  0  0  3  0  0  0  0  0  0
  -21.6460   -6.9450   21.4060 O   0  0  0  0  0  0  0  0  0  0  0  0
  -21.5680   -6.2220   22.5700 C   0  0  0  0  0  0  0  0  0  0  0  0
  -21.1010   -6.7960   23.7730 C   0  0  0  0  0  3  0  0  0  0  0  0
  -20.9710   -5.9990   24.9280 C   0  0  0  0  0  3  0  0  0  0  0  0
  -21.2950   -4.6300   24.8810 C   0  0  0  0  0  0  0  0  0  0  0  0
  -21.7560   -4.0560   23.6810 C   0  0  0  0  0  3  0  0  0  0  0  0
  -21.8890   -4.8510   22.5290 C   0  0  0  0  0  0  0  0  0  0  0  0
  -22.3120   -4.2890   21.3720 F   0  0  0  0  0  0  0  0  0  0  0  0
  -21.1650   -3.8620   25.9880 F   0  0  0  0  0  0  0  0  0  0  0  0
  -22.7450  -13.5860   21.1570 C   0  0  0  0  0  0  0  0  0  0  0  0
  -22.0350  -12.8760   22.0260 N   0  0  0  0  0  0  0  0  0  0  0  0
  -22.2990  -14.6230   20.6680 O   0  0  0  0  0  0  0  0  0  0  0  0
  -22.4070  -12.0370   22.4480 H   0  0  0  0  0  0  0  0  0  0  0  0
  -21.1040  -13.1790   22.2760 H   0  0  0  0  0  0  0  0  0  0  0  0
  -25.3520  -15.2610   20.2940 N   0  0  0  0  0  0  0  0  0  0  0  0
  -24.5960  -15.9190   20.4560 H   0  0  0  0  0  0  0  0  0  0  0  0
  -26.2010  -15.7080   19.9730 H   0  0  0  0  0  0  0  0  0  0  0  0
  -27.9650  -24.7920   20.1100 C   0  0  0  0  0  2  0  0  0  0  0  0
  -28.2570  -26.2990   20.1990 O   0  0  0  0  0  0  0  0  0  0  0  0
  -24.6300  -31.8830   23.2390 C   0  0  0  0  0  0  0  0  0  0  0  0
  -27.1840  -27.2430   20.1520 C   0  0  0  0  0  0  0  0  0  0  0  0
  -23.4120  -30.4970   21.6050 C   0  0  0  0  0  3  0  0  0  0  0  0
  -24.8460  -28.9430   20.1560 C   0  0  0  0  0  0  0  0  0  0  0  0
  -25.9610  -30.7850   21.4080 C   0  0  0  0  0  2  0  0  0  0  0  0
  -26.0300  -29.4030   20.7480 C   0  0  0  0  0  0  0  0  0  0  0  0
  -27.2030  -28.5680   20.7280 C   0  0  0  0  0  3  0  0  0  0  0  0
  -25.9720  -26.8710   19.5260 C   0  0  0  0  0  3  0  0  0  0  0  0
  -24.8270  -27.6890   19.5310 C   0  0  0  0  0  3  0  0  0  0  0  0
  -23.6140  -29.8280   20.2200 C   0  0  0  0  0  2  0  0  0  0  0  0
  -24.6880  -31.0750   22.1390 N   0  0  0  0  0  0  0  0  0  0  0  0
  -23.5490  -32.1630   23.7810 O   0  0  0  0  0  0  0  0  0  0  0  0
  -22.7490  -29.4810   22.5670 C   0  0  0  0  0  0  0  0  0  0  0  0
  -21.4220  -29.3010   22.4440 N   0  0  0  0  0  0  0  0  0  0  0  0
  -23.4290  -28.8570   23.3850 O   0  0  0  0  0  0  0  0  0  0  0  0
  -20.9310  -29.8570   21.7580 H   0  0  0  0  0  0  0  0  0  0  0  0
  -18.0490  -28.0860   22.9510 C   0  0  0  0  0  0  0  0  0  0  0  0
  -20.6070  -28.3600   23.2160 C   0  0  0  0  0  3  0  0  0  0  0  0
  -20.7150  -26.9280   22.6410 C   0  0  0  0  0  2  0  0  0  0  0  0
  -19.6130  -26.6000   21.6280 C   0  0  0  0  0  2  0  0  0  0  0  0
  -18.2320  -26.7380   22.2750 C   0  0  0  0  0  2  0  0  0  0  0  0
  -19.1640  -28.8540   23.3780 C   0  0  0  0  0  0  0  0  0  0  0  0
  -18.9390  -30.1160   23.9710 C   0  0  0  0  0  3  0  0  0  0  0  0
  -17.6310  -30.6080   24.1420 C   0  0  0  0  0  3  0  0  0  0  0  0
  -16.5300  -29.8360   23.7320 C   0  0  0  0  0  3  0  0  0  0  0  0
  -16.7400  -28.5770   23.1420 C   0  0  0  0  0  3  0  0  0  0  0  0
  -25.9160  -32.5140   23.8570 C   0  0  0  0  0  3  0  0  0  0  0  0
  -26.4380  -31.7370   25.1270 C   0  0  1  0  0  0  0  0  0  0  0  0
  -25.3510  -31.4960   26.2010 C   0  0  0  0  0  1  0  0  0  0  0  0
  -27.0170  -30.3600   24.7280 C   0  0  0  0  0  1  0  0  0  0  0  0
  -27.5940  -32.5270   25.7840 C   0  0  0  0  0  1  0  0  0  0  0  0
  -25.6060  -33.9100   24.1990 N   0  0  0  0  0  0  0  0  0  0  0  0
  -25.9130  -34.9700   23.4390 C   0  0  0  0  0  0  0  0  0  0  0  0
  -26.5540  -34.8750   22.3890 O   0  0  0  0  0  0  0  0  0  0  0  0
  -25.0310  -34.0580   25.0160 H   0  0  0  0  0  0  0  0  0  0  0  0
  -24.1600  -36.7530   23.1600 C   0  0  0  0  0  1  0  0  0  0  0  0
  -25.4350  -36.3550   23.9200 C   0  0  0  0  0  3  0  0  0  0  0  0
  -27.5940  -37.2560   24.6670 C   0  0  0  0  0  1  0  0  0  0  0  0
  -26.4550  -37.4160   23.7660 N   0  0  0  0  0  0  0  0  0  0  0  0
  -26.0480  -38.3330   23.9290 H   0  0  0  0  0  0  0  0  0  0  0  0
  2  1  1  0
  3  1  1  0
  4 52  1  0
  4  5  1  0
  4  2  1  0
  5  3  1  0
  5  6  1  6
  7 11  1  0
  7  5  1  0
  8 10  1  0
  9 12  1  0
 10 12  2  0
 11  9  2  0
 12 14  1  0
 13  8  2  0
 13 11  1  0
 15 13  1  0
 16 10  1  0
 17 22  1  0
 18 19  1  0
 18 17  1  0
 20 19  1  0
 20 27  1  0
 20 21  1  0
 22 16  1  0
 22 21  1  0
 23 16  2  0
 24 25  2  0
 25 44  1  0
 26 25  1  0
 26 29  1  0
 27 28  1  0
 27 24  1  0
 28 26  2  0
 29 30  1  0
 30 31  2  0
 32 35  1  0
 32 31  1  0
 33 32  2  0
 34 33  1  0
 34 29  2  0
 35 36  1  0
 36 37  1  0
 37 38  2  0
 39 38  1  0
 39 43  1  0
 40 39  2  0
 41 36  2  0
 41 40  1  0
 42 41  1  0
 44 45  1  0
 45 48  1  0
 45 47  1  0
 46 44  2  0
 49 24  1  0
 49 50  1  0
 51 49  1  0
 52 53  1  0
 54 65  2  0
 55 53  1  0
 55 60  1  0
 56 64  1  0
 56 66  1  0
 57 63  1  0
 57 59  1  0
 58 64  1  0
 59 58  1  0
 60 59  2  0
 61 62  1  0
 61 55  2  0
 62 57  2  0
 63 56  1  0
 64 54  1  0
 66 68  2  0
 67 66  1  0
 69 67  1  0
 70 79  2  0
 70 75  1  0
 71 67  1  0
 71 75  1  0
 72 71  1  0
 73 74  1  0
 73 72  1  0
 74 70  1  0
 75 76  2  0
 76 77  1  0
 78 77  2  0
 79 78  1  0
 80 54  1  0
 80 85  1  0
 80 81  1  0
 81 84  1  1
 81 82  1  0
 83 81  1  0
 85 88  1  0
 86 90  1  0
 86 85  1  0
 87 86  2  0
 90 89  1  0
 92 90  1  0
 92 93  1  0
 92 91  1  0
M  ISO  4  10 100  16 100  52 101  53 101
M  END
>  <TORSDO>  (28) 
F 19

>  <SCORE>  (28) 
-14.377

>  <name>  (28) 
27

>  <ligand_id>  (28) 
27

>  <original_smiles>  (28) 
[H]c1c([H])c([H])c2c(c1[H])C([H])([H])C([H])([H])C([H])([H])C2([H])N([H])C(=O)C1([H])N(C(=O)C([H])(N([H])C(=O)C([H])(N([H])C([H])([H])[H])C([H])([H])[H])C(C([H])([H])[H])(C([H])([H])[H])C([H])([H])[H])C([H])([H])c2c([H])c(OC([H])([H])C3([H])C([H])([H])C([H])([H])C([H])([H])[N+]3([H])C([H])([H])c3c([H])c(F)c(C(=O)N4C([H])([H])C([H])([H])C([H])([H])C([H])(n5nc(-c6c([H])c([H])c(Oc7c([H])c([H])c(F)c([H])c7F)c([H])c6[H])c(C(=O)N([H])[H])c5N([H])[H])C4([H])[H])c([H])c3Cl)c([H])c([H])c2C1([H])[H]

>  <smiles>  (28) 
[H]c1c([H])c([H])c2c(c1[H])C([H])([H])C([H])([H])C([H])([H])C2([H])N([H])C(=O)C1([H])N(C(=O)C([H])(N([H])C(=O)C([H])(N([H])C([H])([H])[H])C([H])([H])[H])C(C([H])([H])[H])(C([H])([H])[H])C([H])([H])[H])C([H])([H])c2c([H])c(OC([H])([H])C3([H])C([H])([H])C([H])([H])C([H])([H])[N+]3([H])C([H])([H])c3c([H])c(F)c(C(=O)N4C([H])([H])C([H])([H])C([H])([H])C([H])(n5nc(-c6c([H])c([H])c(Oc7c([H])c([H])c(F)c([H])c7F)c([H])c6[H])c(C(=O)N([H])[H])c5N([H])[H])C4([H])[H])c([H])c3Cl)c([H])c([H])c2C1([H])[H]

$$$$
28:0:0
     RDKit          3D

 90 98  0  0  1  0  0  0  0  0999 V2000
  -30.6620  -18.5820   20.4600 C   0  0  0  0  0  3  0  0  0  0  0  0
  -30.3710  -20.0190   20.4070 C   0  0  0  0  0  3  0  0  0  0  0  0
  -28.4640  -18.1370   19.7410 C   0  0  0  0  0  3  0  0  0  0  0  0
  -29.7020  -17.5530   20.1530 C   0  0  0  0  0  0  0  0  0  0  0  0
  -29.0980  -20.5920   20.0360 C   0  0  0  0  0  0  0  0  0  0  0  0
  -28.1730  -19.5490   19.6740 C   0  0  0  0  0  0  0  0  0  0  0  0
  -26.5780  -19.9780   19.1490 Cl  0  0  0  0  0  0  0  0  0  0  0  0
  -30.6530  -14.9440   20.0550 C   0  0  0  0  0  0  0  0  0  0  0  0
  -30.5320  -12.5890   19.1330 C   0  0  0  0  0  2  0  0  0  0  0  0
  -29.5460  -12.5570   17.9400 C   0  0  0  0  0  2  0  0  0  0  0  0
  -28.0940  -12.3650   18.4230 C   0  0  0  0  0  2  0  0  0  0  0  0
  -27.7390  -13.2950   19.6120 C   0  0  0  0  0  3  0  0  0  0  0  0
  -28.8350  -13.2720   20.7000 C   0  0  0  0  0  2  0  0  0  0  0  0
  -30.0960  -13.6700   20.0560 N   0  0  0  0  0  0  0  0  0  0  0  0
  -31.8300  -15.0740   19.7000 O   0  0  0  0  0  0  0  0  0  0  0  0
  -29.7760  -16.0290   20.2730 N   0  0  0  0  0  0  0  0  0  0  0  0
  -28.8760  -15.6420   20.5080 H   0  0  0  0  0  0  0  0  0  0  0  0
  -25.3960  -13.9070   20.4520 C   0  0  0  0  0  0  0  0  0  0  0  0
  -24.3350  -13.1450   20.8570 C   0  0  0  0  0  0  0  0  0  0  0  0
  -24.7740  -11.7880   20.7840 C   0  0  0  0  0  0  0  0  0  0  0  0
  -26.4140  -13.0150   20.1550 N   0  0  0  0  0  0  0  0  0  0  0  0
  -26.0500  -11.7340   20.4200 N   0  0  0  0  0  0  0  0  0  0  0  0
  -24.0330  -10.5340   20.9820 C   0  0  0  0  0  0  0  0  0  0  0  0
  -24.4760   -9.5520   21.8960 C   0  0  0  0  0  3  0  0  0  0  0  0
  -23.7360   -8.3650   22.0840 C   0  0  0  0  0  3  0  0  0  0  0  0
  -22.5390   -8.1510   21.3570 C   0  0  0  0  0  0  0  0  0  0  0  0
  -22.1160   -9.1220   20.4330 C   0  0  0  0  0  3  0  0  0  0  0  0
  -22.8570  -10.3010   20.2430 C   0  0  0  0  0  3  0  0  0  0  0  0
  -21.7710   -7.0180   21.4560 O   0  0  0  0  0  0  0  0  0  0  0  0
  -21.7230   -6.2780   22.6100 C   0  0  0  0  0  0  0  0  0  0  0  0
  -21.2860   -6.8320   23.8330 C   0  0  0  0  0  3  0  0  0  0  0  0
  -21.1870   -6.0180   24.9800 C   0  0  0  0  0  3  0  0  0  0  0  0
  -21.5130   -4.6510   24.9040 C   0  0  0  0  0  0  0  0  0  0  0  0
  -21.9440   -4.0970   23.6860 C   0  0  0  0  0  3  0  0  0  0  0  0
  -22.0450   -4.9070   22.5410 C   0  0  0  0  0  0  0  0  0  0  0  0
  -22.4390   -4.3630   21.3650 F   0  0  0  0  0  0  0  0  0  0  0  0
  -21.4110   -3.8670   26.0020 F   0  0  0  0  0  0  0  0  0  0  0  0
  -22.9580  -13.6410   21.1900 C   0  0  0  0  0  0  0  0  0  0  0  0
  -22.2560  -12.9490   22.0800 N   0  0  0  0  0  0  0  0  0  0  0  0
  -22.5150  -14.6770   20.6960 O   0  0  0  0  0  0  0  0  0  0  0  0
  -22.6280  -12.1110   22.5010 H   0  0  0  0  0  0  0  0  0  0  0  0
  -21.3330  -13.2620   22.3450 H   0  0  0  0  0  0  0  0  0  0  0  0
  -25.5720  -15.2770   20.2830 N   0  0  0  0  0  0  0  0  0  0  0  0
  -24.8000  -15.9240   20.4000 H   0  0  0  0  0  0  0  0  0  0  0  0
  -26.3580  -15.6850   19.7950 H   0  0  0  0  0  0  0  0  0  0  0  0
  -27.9830  -22.1440   21.4900 C   0  0  0  0  0  1  0  0  0  0  0  0
  -28.6410  -22.0050   20.1890 N   0  0  0  0  0  0  0  0  0  0  0  0
  -29.0560  -23.3870   19.6090 C   0  0  0  0  0  3  0  0  0  0  0  0
  -27.9810  -24.6820   19.6450 C   0  0  0  0  0  3  0  0  0  0  0  0
  -28.2570  -26.2030   19.5000 O   0  0  0  0  0  0  0  0  0  0  0  0
  -24.6880  -31.6110   23.0030 C   0  0  0  0  0  0  0  0  0  0  0  0
  -27.1830  -27.1600   19.5610 C   0  0  0  0  0  0  0  0  0  0  0  0
  -23.4380  -30.3330   21.3070 C   0  0  0  0  0  3  0  0  0  0  0  0
  -24.8440  -28.8750   19.7300 C   0  0  0  0  0  0  0  0  0  0  0  0
  -25.9840  -30.6280   21.0790 C   0  0  0  0  0  2  0  0  0  0  0  0
  -26.0400  -29.2880   20.3290 C   0  0  0  0  0  0  0  0  0  0  0  0
  -27.2120  -28.4480   20.2280 C   0  0  0  0  0  3  0  0  0  0  0  0
  -25.9570  -26.8510   18.9280 C   0  0  0  0  0  3  0  0  0  0  0  0
  -24.8130  -27.6710   19.0140 C   0  0  0  0  0  3  0  0  0  0  0  0
  -23.6160  -29.7580   19.8770 C   0  0  0  0  0  2  0  0  0  0  0  0
  -24.7250  -30.8740   21.8520 N   0  0  0  0  0  0  0  0  0  0  0  0
  -23.6190  -31.8520   23.5850 O   0  0  0  0  0  0  0  0  0  0  0  0
  -22.7940  -29.2540   22.2130 C   0  0  0  0  0  0  0  0  0  0  0  0
  -21.4630  -29.0830   22.1120 N   0  0  0  0  0  0  0  0  0  0  0  0
  -23.4920  -28.5760   22.9720 O   0  0  0  0  0  0  0  0  0  0  0  0
  -20.9560  -29.6830   21.4760 H   0  0  0  0  0  0  0  0  0  0  0  0
  -18.1000  -27.8470   22.6400 C   0  0  0  0  0  0  0  0  0  0  0  0
  -20.6680  -28.0910   22.8380 C   0  0  0  0  0  3  0  0  0  0  0  0
  -20.7470  -26.7060   22.1550 C   0  0  0  0  0  2  0  0  0  0  0  0
  -19.6100  -26.4570   21.1580 C   0  0  0  0  0  2  0  0  0  0  0  0
  -18.2510  -26.5520   21.8590 C   0  0  0  0  0  2  0  0  0  0  0  0
  -19.2340  -28.5770   23.0860 C   0  0  0  0  0  0  0  0  0  0  0  0
  -19.0370  -29.7900   23.7800 C   0  0  0  0  0  3  0  0  0  0  0  0
  -17.7380  -30.2730   24.0300 C   0  0  0  0  0  3  0  0  0  0  0  0
  -16.6190  -29.5400   23.5980 C   0  0  0  0  0  3  0  0  0  0  0  0
  -16.8020  -28.3280   22.9090 C   0  0  0  0  0  3  0  0  0  0  0  0
  -25.9850  -32.2040   23.6330 C   0  0  0  0  0  3  0  0  0  0  0  0
  -26.5420  -31.3420   24.8320 C   0  0  1  0  0  0  0  0  0  0  0  0
  -25.4830  -31.0250   25.9160 C   0  0  0  0  0  1  0  0  0  0  0  0
  -27.1100  -29.9970   24.3260 C   0  0  0  0  0  1  0  0  0  0  0  0
  -27.7140  -32.0870   25.5130 C   0  0  0  0  0  1  0  0  0  0  0  0
  -25.6790  -33.5710   24.0830 N   0  0  0  0  0  0  0  0  0  0  0  0
  -25.9560  -34.6840   23.3890 C   0  0  0  0  0  0  0  0  0  0  0  0
  -26.5630  -34.6670   22.3160 O   0  0  0  0  0  0  0  0  0  0  0  0
  -25.1310  -33.6570   24.9260 H   0  0  0  0  0  0  0  0  0  0  0  0
  -24.1830  -36.4680   23.2920 C   0  0  0  0  0  1  0  0  0  0  0  0
  -25.4860  -36.0280   23.9800 C   0  0  0  0  0  3  0  0  0  0  0  0
  -27.6600  -36.8970   24.7220 C   0  0  0  0  0  1  0  0  0  0  0  0
  -26.4940  -37.1050   23.8670 N   0  0  0  0  0  0  0  0  0  0  0  0
  -26.0860  -38.0060   24.1020 H   0  0  0  0  0  0  0  0  0  0  0  0
  2  1  1  0
  3  4  1  0
  4 16  1  0
  4  1  2  0
  5 47  1  0
  5  2  2  0
  6  3  2  0
  6  5  1  0
  7  6  1  0
  8 14  1  0
  8 16  1  0
  9 14  1  0
 10 11  1  0
 10  9  1  0
 12 11  1  0
 12 21  1  0
 12 13  1  0
 14 13  1  0
 15  8  2  0
 16 17  1  0
 18 19  2  0
 19 38  1  0
 20 19  1  0
 20 23  1  0
 21 22  1  0
 21 18  1  0
 22 20  2  0
 23 24  1  0
 24 25  2  0
 26 29  1  0
 26 25  1  0
 27 26  2  0
 28 27  1  0
 28 23  2  0
 29 30  1  0
 30 31  1  0
 31 32  2  0
 33 32  1  0
 33 37  1  0
 34 33  2  0
 35 30  2  0
 35 34  1  0
 36 35  1  0
 38 39  1  0
 39 42  1  0
 39 41  1  0
 40 38  2  0
 43 44  1  0
 43 18  1  0
 45 43  1  0
 47 46  1  0
 48 49  2  0
 48 47  1  0
 50 52  1  0
 50 49  1  0
 51 62  2  0
 52 57  1  0
 53 61  1  0
 53 63  1  0
 54 60  1  0
 54 56  1  0
 55 61  1  0
 56 55  1  0
 57 56  2  0
 58 59  1  0
 58 52  2  0
 59 54  2  0
 60 53  1  0
 61 51  1  0
 63 65  2  0
 64 63  1  0
 66 64  1  0
 67 76  2  0
 67 72  1  0
 68 64  1  0
 68 72  1  0
 69 68  1  0
 70 71  1  0
 70 69  1  0
 71 67  1  0
 72 73  2  0
 73 74  1  0
 75 74  2  0
 76 75  1  0
 77 51  1  0
 77 82  1  0
 77 78  1  0
 78 81  1  1
 78 79  1  0
 80 78  1  0
 82 85  1  0
 83 87  1  0
 83 82  1  0
 84 83  2  0
 87 86  1  0
 89 87  1  0
 89 90  1  0
 89 88  1  0
M  ISO  4   8 100  16 100  49 101  50 101
M  END
>  <TORSDO>  (29) 
F 19

>  <SCORE>  (29) 
-13.568

>  <name>  (29) 
28

>  <ligand_id>  (29) 
28

>  <original_smiles>  (29) 
[H]c1c([H])c([H])c2c(c1[H])C([H])([H])C([H])([H])C([H])([H])C2([H])N([H])C(=O)C1([H])N(C(=O)C([H])(N([H])C(=O)C([H])(N([H])C([H])([H])[H])C([H])([H])[H])C(C([H])([H])[H])(C([H])([H])[H])C([H])([H])[H])C([H])([H])c2c([H])c(OC([H])([H])C([H])([H])N(c3c([H])c([H])c(N([H])C(=O)N4C([H])([H])C([H])([H])C([H])([H])C([H])(n5nc(-c6c([H])c([H])c(Oc7c([H])c([H])c(F)c([H])c7F)c([H])c6[H])c(C(=O)N([H])[H])c5N([H])[H])C4([H])[H])c([H])c3Cl)C([H])([H])[H])c([H])c([H])c2C1([H])[H]

>  <smiles>  (29) 
[H]c1c([H])c([H])c2c(c1[H])C([H])([H])C([H])([H])C([H])([H])C2([H])N([H])C(=O)C1([H])N(C(=O)C([H])(N([H])C(=O)C([H])(N([H])C([H])([H])[H])C([H])([H])[H])C(C([H])([H])[H])(C([H])([H])[H])C([H])([H])[H])C([H])([H])c2c([H])c(OC([H])([H])C([H])([H])N(c3c([H])c([H])c(N([H])C(=O)N4C([H])([H])C([H])([H])C([H])([H])C([H])(n5nc(-c6c([H])c([H])c(Oc7c([H])c([H])c(F)c([H])c7F)c([H])c6[H])c(C(=O)N([H])[H])c5N([H])[H])C4([H])[H])c([H])c3Cl)C([H])([H])[H])c([H])c([H])c2C1([H])[H]

$$$$
29:0:0
     RDKit          3D

 88 96  0  0  1  0  0  0  0  0999 V2000
  -30.5810  -19.2010   20.7390 C   0  0  0  0  0  2  0  0  0  0  0  0
  -28.5630  -18.9160   19.4600 C   0  0  0  0  0  2  0  0  0  0  0  0
  -30.0840  -20.7350   21.1300 C   0  0  0  0  0  2  0  0  0  0  0  0
  -28.1050  -20.4830   19.7770 C   0  0  0  0  0  2  0  0  0  0  0  0
  -29.4620  -18.0610   20.5000 C   0  0  0  0  0  3  0  0  0  0  0  0
  -29.1430  -21.5440   20.2000 N   0  0  1  0  0  4  0  0  0  0  0  0
  -29.7000  -21.7290   19.3740 H   0  0  0  0  0  0  0  0  0  0  0  0
  -30.4360  -15.2140   20.2770 C   0  0  0  0  0  0  0  0  0  0  0  0
  -30.4010  -12.7930   19.3720 C   0  0  0  0  0  2  0  0  0  0  0  0
  -29.4660  -12.6360   18.1460 C   0  0  0  0  0  2  0  0  0  0  0  0
  -28.0210  -12.3660   18.6090 C   0  0  0  0  0  2  0  0  0  0  0  0
  -27.5830  -13.3360   19.7360 C   0  0  0  0  0  3  0  0  0  0  0  0
  -28.6410  -13.4250   20.8590 C   0  0  0  0  0  2  0  0  0  0  0  0
  -29.8800  -13.9150   20.2280 N   0  0  0  0  0  0  0  0  0  0  0  0
  -31.6460  -15.2680   20.0270 O   0  0  0  0  0  0  0  0  0  0  0  0
  -29.6000  -16.4080   20.4150 N   0  0  0  0  0  0  0  0  0  0  0  0
  -28.6760  -16.0330   20.5670 H   0  0  0  0  0  0  0  0  0  0  0  0
  -25.1970  -13.9060   20.4680 C   0  0  0  0  0  0  0  0  0  0  0  0
  -24.1370  -13.1320   20.8400 C   0  0  0  0  0  0  0  0  0  0  0  0
  -24.6030  -11.7780   20.8170 C   0  0  0  0  0  0  0  0  0  0  0  0
  -26.2470  -13.0310   20.2370 N   0  0  0  0  0  0  0  0  0  0  0  0
  -25.8990  -11.7460   20.5160 N   0  0  0  0  0  0  0  0  0  0  0  0
  -23.8790  -10.5160   21.0110 C   0  0  0  0  0  0  0  0  0  0  0  0
  -24.3130   -9.5540   21.9510 C   0  0  0  0  0  3  0  0  0  0  0  0
  -23.5890   -8.3560   22.1340 C   0  0  0  0  0  3  0  0  0  0  0  0
  -22.4200   -8.1100   21.3790 C   0  0  0  0  0  0  0  0  0  0  0  0
  -22.0020   -9.0600   20.4300 C   0  0  0  0  0  3  0  0  0  0  0  0
  -22.7250  -10.2500   20.2450 C   0  0  0  0  0  3  0  0  0  0  0  0
  -21.6710   -6.9600   21.4690 O   0  0  0  0  0  0  0  0  0  0  0  0
  -21.6260   -6.2210   22.6240 C   0  0  0  0  0  0  0  0  0  0  0  0
  -21.1950   -6.7780   23.8480 C   0  0  0  0  0  3  0  0  0  0  0  0
  -21.0980   -5.9660   24.9950 C   0  0  0  0  0  3  0  0  0  0  0  0
  -21.4210   -4.5970   24.9200 C   0  0  0  0  0  0  0  0  0  0  0  0
  -21.8440   -4.0390   23.6990 C   0  0  0  0  0  3  0  0  0  0  0  0
  -21.9420   -4.8490   22.5550 C   0  0  0  0  0  0  0  0  0  0  0  0
  -22.3310   -4.3030   21.3780 F   0  0  0  0  0  0  0  0  0  0  0  0
  -21.3200   -3.8150   26.0190 F   0  0  0  0  0  0  0  0  0  0  0  0
  -22.7350  -13.6010   21.1050 C   0  0  0  0  0  0  0  0  0  0  0  0
  -22.0090  -12.9080   21.9680 N   0  0  0  0  0  0  0  0  0  0  0  0
  -22.2960  -14.6240   20.5750 O   0  0  0  0  0  0  0  0  0  0  0  0
  -22.3780  -12.0790   22.4140 H   0  0  0  0  0  0  0  0  0  0  0  0
  -21.0720  -13.2090   22.1940 H   0  0  0  0  0  0  0  0  0  0  0  0
  -25.3590  -15.2770   20.2760 N   0  0  0  0  0  0  0  0  0  0  0  0
  -24.5800  -15.9260   20.3700 H   0  0  0  0  0  0  0  0  0  0  0  0
  -26.1730  -15.6910   19.8440 H   0  0  0  0  0  0  0  0  0  0  0  0
  -28.6640  -23.0240   20.7570 C   0  0  0  0  0  2  0  0  0  0  0  0
  -28.2830  -24.5010   19.9140 C   0  0  0  0  0  2  0  0  0  0  0  0
  -28.2590  -26.0460   20.3910 O   0  0  0  0  0  0  0  0  0  0  0  0
  -24.6190  -31.8780   23.2640 C   0  0  0  0  0  0  0  0  0  0  0  0
  -27.2130  -27.0730   20.2620 C   0  0  0  0  0  0  0  0  0  0  0  0
  -23.4290  -30.4760   21.6160 C   0  0  0  0  0  3  0  0  0  0  0  0
  -24.8930  -28.8870   20.2020 C   0  0  0  0  0  0  0  0  0  0  0  0
  -26.0050  -30.7060   21.4950 C   0  0  0  0  0  2  0  0  0  0  0  0
  -26.0740  -29.3200   20.8150 C   0  0  0  0  0  0  0  0  0  0  0  0
  -27.2340  -28.4380   20.8090 C   0  0  0  0  0  3  0  0  0  0  0  0
  -25.9950  -26.7590   19.6240 C   0  0  0  0  0  3  0  0  0  0  0  0
  -24.8750  -27.6260   19.5830 C   0  0  0  0  0  3  0  0  0  0  0  0
  -23.6620  -29.7830   20.2450 C   0  0  0  0  0  2  0  0  0  0  0  0
  -24.7020  -31.0520   22.1710 N   0  0  0  0  0  0  0  0  0  0  0  0
  -23.5300  -32.1690   23.7820 O   0  0  0  0  0  0  0  0  0  0  0  0
  -22.7430  -29.4810   22.5840 C   0  0  0  0  0  0  0  0  0  0  0  0
  -21.4160  -29.3080   22.4490 N   0  0  0  0  0  0  0  0  0  0  0  0
  -23.4070  -28.8660   23.4220 O   0  0  0  0  0  0  0  0  0  0  0  0
  -20.9500  -29.8460   21.7320 H   0  0  0  0  0  0  0  0  0  0  0  0
  -18.0170  -28.1240   22.9470 C   0  0  0  0  0  0  0  0  0  0  0  0
  -20.5780  -28.3780   23.2130 C   0  0  0  0  0  3  0  0  0  0  0  0
  -20.6650  -26.9440   22.6390 C   0  0  0  0  0  2  0  0  0  0  0  0
  -19.5670  -26.6350   21.6170 C   0  0  0  0  0  2  0  0  0  0  0  0
  -18.1860  -26.7770   22.2640 C   0  0  0  0  0  2  0  0  0  0  0  0
  -19.1390  -28.8880   23.3720 C   0  0  0  0  0  0  0  0  0  0  0  0
  -18.9210  -30.1480   23.9660 C   0  0  0  0  0  3  0  0  0  0  0  0
  -17.6150  -30.6500   24.1330 C   0  0  0  0  0  3  0  0  0  0  0  0
  -16.5100  -29.8830   23.7240 C   0  0  0  0  0  3  0  0  0  0  0  0
  -16.7120  -28.6190   23.1420 C   0  0  0  0  0  3  0  0  0  0  0  0
  -25.8920  -32.5100   23.9040 C   0  0  0  0  0  3  0  0  0  0  0  0
  -25.5790  -33.9160   24.2150 N   0  0  0  0  0  0  0  0  0  0  0  0
  -25.9130  -34.9660   23.4500 C   0  0  0  0  0  0  0  0  0  0  0  0
  -26.5890  -34.8540   22.4240 O   0  0  0  0  0  0  0  0  0  0  0  0
  -24.9700  -34.0740   25.0030 H   0  0  0  0  0  0  0  0  0  0  0  0
  -24.1830  -36.7540   23.0740 C   0  0  0  0  0  1  0  0  0  0  0  0
  -25.4220  -36.3590   23.8930 C   0  0  0  0  0  3  0  0  0  0  0  0
  -27.5550  -37.2570   24.7170 C   0  0  0  0  0  1  0  0  0  0  0  0
  -26.4530  -37.4150   23.7710 N   0  0  0  0  0  0  0  0  0  0  0  0
  -26.0420  -38.3350   23.9120 H   0  0  0  0  0  0  0  0  0  0  0  0
  -26.3880  -31.7550   25.2050 C   0  0  1  0  0  0  0  0  0  0  0  0
  -25.2980  -31.5220   26.2760 C   0  0  0  0  0  1  0  0  0  0  0  0
  -26.9740  -30.3620   24.8700 C   0  0  0  0  0  1  0  0  0  0  0  0
  -27.5340  -32.5600   25.8620 C   0  0  0  0  0  1  0  0  0  0  0  0
  1  3  1  0
  2  4  1  0
  2  5  1  0
  4  6  1  0
  5 16  1  0
  5  1  1  0
  6 46  1  0
  6  3  1  0
  6  7  1  6
  8 16  1  0
  9 14  1  0
 10 11  1  0
 10  9  1  0
 12 11  1  0
 12 21  1  0
 12 13  1  0
 14  8  1  0
 14 13  1  0
 15  8  2  0
 16 17  1  0
 18 19  2  0
 19 38  1  0
 20 19  1  0
 20 23  1  0
 21 18  1  0
 21 22  1  0
 22 20  2  0
 23 24  1  0
 24 25  2  0
 26 29  1  0
 26 25  1  0
 27 26  2  0
 28 27  1  0
 28 23  2  0
 29 30  1  0
 30 31  1  0
 31 32  2  0
 33 32  1  0
 33 37  1  0
 34 33  2  0
 35 30  2  0
 35 34  1  0
 36 35  1  0
 38 39  1  0
 39 42  1  0
 39 41  1  0
 40 38  2  0
 43 44  1  0
 43 18  1  0
 45 43  1  0
 47 48  1  0
 47 46  1  0
 49 60  2  0
 50 48  1  0
 50 55  1  0
 51 59  1  0
 51 61  1  0
 52 58  1  0
 52 54  1  0
 53 59  1  0
 54 53  1  0
 55 54  2  0
 56 50  2  0
 57 56  1  0
 57 52  2  0
 58 51  1  0
 59 49  1  0
 61 63  2  0
 62 61  1  0
 64 62  1  0
 65 74  2  0
 65 70  1  0
 66 62  1  0
 66 70  1  0
 67 66  1  0
 68 69  1  0
 68 67  1  0
 69 65  1  0
 70 71  2  0
 71 72  1  0
 73 72  2  0
 74 73  1  0
 75 49  1  0
 75 76  1  0
 75 85  1  0
 76 79  1  0
 77 81  1  0
 77 76  1  0
 78 77  2  0
 81 80  1  0
 83 81  1  0
 83 84  1  0
 83 82  1  0
 85 88  1  1
 85 86  1  0
 87 85  1  0
M  ISO  4   8 100  16 100  47 101  48 101
M  END
>  <TORSDO>  (30) 
F 18

>  <SCORE>  (30) 
-15.423

>  <name>  (30) 
29

>  <ligand_id>  (30) 
29

>  <original_smiles>  (30) 
[H]c1c([H])c([H])c2c(c1[H])C([H])([H])C([H])([H])C([H])([H])C2([H])N([H])C(=O)C1([H])N(C(=O)C([H])(N([H])C(=O)C([H])(N([H])C([H])([H])[H])C([H])([H])[H])C(C([H])([H])[H])(C([H])([H])[H])C([H])([H])[H])C([H])([H])c2c([H])c(OC([H])([H])C([H])([H])[N+]3([H])C([H])([H])C([H])([H])C([H])(N([H])C(=O)N4C([H])([H])C([H])([H])C([H])([H])C([H])(n5nc(-c6c([H])c([H])c(Oc7c([H])c([H])c(F)c([H])c7F)c([H])c6[H])c(C(=O)N([H])[H])c5N([H])[H])C4([H])[H])C([H])([H])C3([H])[H])c([H])c([H])c2C1([H])[H]

>  <smiles>  (30) 
[H]c1c([H])c([H])c2c(c1[H])C([H])([H])C([H])([H])C([H])([H])C2([H])N([H])C(=O)C1([H])N(C(=O)C([H])(N([H])C(=O)C([H])(N([H])C([H])([H])[H])C([H])([H])[H])C(C([H])([H])[H])(C([H])([H])[H])C([H])([H])[H])C([H])([H])c2c([H])c(OC([H])([H])C([H])([H])[N+]3([H])C([H])([H])C([H])([H])C([H])(N([H])C(=O)N4C([H])([H])C([H])([H])C([H])([H])C([H])(n5nc(-c6c([H])c([H])c(Oc7c([H])c([H])c(F)c([H])c7F)c([H])c6[H])c(C(=O)N([H])[H])c5N([H])[H])C4([H])[H])C([H])([H])C3([H])[H])c([H])c([H])c2C1([H])[H]

$$$$
30:0:0
     RDKit          3D

 88 96  0  0  1  0  0  0  0  0999 V2000
  -28.0130  -20.9950   20.4990 C   0  0  0  0  0  3  0  0  0  0  0  0
  -30.2600  -19.9130   19.4870 C   0  0  0  0  0  3  0  0  0  0  0  0
  -28.7380  -22.1760   19.9790 C   0  0  0  0  0  0  0  0  0  0  0  0
  -29.5210  -18.7330   20.0430 C   0  0  0  0  0  0  0  0  0  0  0  0
  -28.3350  -19.5100   20.5280 C   0  0  0  0  0  0  0  0  0  0  0  0
  -29.9200  -21.4190   19.4440 C   0  0  0  0  0  0  0  0  0  0  0  0
  -27.3320  -18.7740   21.0650 F   0  0  0  0  0  0  0  0  0  0  0  0
  -30.8260  -22.1820   18.7890 F   0  0  0  0  0  0  0  0  0  0  0  0
  -30.5040  -15.7180   19.7770 C   0  0  0  0  0  0  0  0  0  0  0  0
  -30.5640  -13.1990   18.8670 C   0  0  0  0  0  2  0  0  0  0  0  0
  -29.5540  -12.8390   17.7350 C   0  0  0  0  0  2  0  0  0  0  0  0
  -28.1790  -12.4630   18.3090 C   0  0  0  0  0  2  0  0  0  0  0  0
  -27.7800  -13.4150   19.4580 C   0  0  0  0  0  3  0  0  0  0  0  0
  -28.9190  -13.6310   20.4760 C   0  0  0  0  0  2  0  0  0  0  0  0
  -30.0220  -14.3280   19.7560 N   0  0  0  0  0  0  0  0  0  0  0  0
  -31.6630  -15.7210   19.3160 O   0  0  0  0  0  0  0  0  0  0  0  0
  -29.2000  -16.6750   21.5470 C   0  0  0  0  0  1  0  0  0  0  0  0
  -29.7650  -17.0210   20.2340 N   0  0  0  0  0  0  0  0  0  0  0  0
  -25.5360  -13.9170   20.5410 C   0  0  0  0  0  0  0  0  0  0  0  0
  -24.5050  -13.1230   20.9540 C   0  0  0  0  0  0  0  0  0  0  0  0
  -24.9280  -11.7760   20.7360 C   0  0  0  0  0  0  0  0  0  0  0  0
  -26.5180  -13.0550   20.0880 N   0  0  0  0  0  0  0  0  0  0  0  0
  -26.1740  -11.7530   20.2700 N   0  0  0  0  0  0  0  0  0  0  0  0
  -24.1920  -10.5140   20.8860 C   0  0  0  0  0  0  0  0  0  0  0  0
  -24.6420   -9.4910   21.7500 C   0  0  0  0  0  3  0  0  0  0  0  0
  -23.9020   -8.2980   21.8940 C   0  0  0  0  0  3  0  0  0  0  0  0
  -22.6980   -8.1170   21.1740 C   0  0  0  0  0  0  0  0  0  0  0  0
  -22.2640   -9.1290   20.3000 C   0  0  0  0  0  3  0  0  0  0  0  0
  -23.0040  -10.3140   20.1540 C   0  0  0  0  0  3  0  0  0  0  0  0
  -21.9270   -6.9800   21.2310 O   0  0  0  0  0  0  0  0  0  0  0  0
  -21.8310   -6.2320   22.3770 C   0  0  0  0  0  0  0  0  0  0  0  0
  -21.3600   -6.7830   23.5890 C   0  0  0  0  0  3  0  0  0  0  0  0
  -21.2110   -5.9620   24.7250 C   0  0  0  0  0  3  0  0  0  0  0  0
  -21.5250   -4.5910   24.6490 C   0  0  0  0  0  0  0  0  0  0  0  0
  -21.9880   -4.0400   23.4430 C   0  0  0  0  0  3  0  0  0  0  0  0
  -22.1390   -4.8580   22.3090 C   0  0  0  0  0  0  0  0  0  0  0  0
  -22.5670   -4.3170   21.1420 F   0  0  0  0  0  0  0  0  0  0  0  0
  -21.3740   -3.8010   25.7380 F   0  0  0  0  0  0  0  0  0  0  0  0
  -23.1630  -13.5950   21.4300 C   0  0  0  0  0  0  0  0  0  0  0  0
  -22.5290  -12.8400   22.3190 N   0  0  0  0  0  0  0  0  0  0  0  0
  -22.6930  -14.6670   21.0520 O   0  0  0  0  0  0  0  0  0  0  0  0
  -22.9260  -11.9720   22.6460 H   0  0  0  0  0  0  0  0  0  0  0  0
  -21.6320  -13.1350   22.6790 H   0  0  0  0  0  0  0  0  0  0  0  0
  -25.7130  -15.2950   20.4810 N   0  0  0  0  0  0  0  0  0  0  0  0
  -24.9830  -15.9430   20.7550 H   0  0  0  0  0  0  0  0  0  0  0  0
  -26.5350  -15.7570   20.1140 H   0  0  0  0  0  0  0  0  0  0  0  0
  -28.0430  -23.8940   19.7460 C   0  0  0  0  0  2  0  0  0  0  0  0
  -28.2340  -25.5790   20.1680 O   0  0  0  0  0  0  0  0  0  0  0  0
  -24.6440  -31.8030   23.0680 C   0  0  0  0  0  0  0  0  0  0  0  0
  -27.2630  -26.7850   20.0770 C   0  0  0  0  0  0  0  0  0  0  0  0
  -23.4860  -30.3950   21.4190 C   0  0  0  0  0  3  0  0  0  0  0  0
  -24.9660  -28.7750   20.0090 C   0  0  0  0  0  0  0  0  0  0  0  0
  -26.0620  -30.5770   21.3160 C   0  0  0  0  0  2  0  0  0  0  0  0
  -26.1500  -29.1490   20.6560 C   0  0  0  0  0  0  0  0  0  0  0  0
  -27.2810  -28.1790   20.6640 C   0  0  0  0  0  3  0  0  0  0  0  0
  -26.0470  -26.6220   19.3680 C   0  0  0  0  0  3  0  0  0  0  0  0
  -24.9520  -27.5380   19.3410 C   0  0  0  0  0  3  0  0  0  0  0  0
  -23.7440  -29.7070   20.0470 C   0  0  0  0  0  2  0  0  0  0  0  0
  -24.7540  -30.9570   21.9870 N   0  0  0  0  0  0  0  0  0  0  0  0
  -23.5440  -32.0850   23.5730 O   0  0  0  0  0  0  0  0  0  0  0  0
  -22.7770  -29.4040   22.3810 C   0  0  0  0  0  0  0  0  0  0  0  0
  -21.4500  -29.2230   22.2400 N   0  0  0  0  0  0  0  0  0  0  0  0
  -23.4350  -28.7950   23.2280 O   0  0  0  0  0  0  0  0  0  0  0  0
  -20.9680  -29.7680   21.5390 H   0  0  0  0  0  0  0  0  0  0  0  0
  -18.0760  -27.9560   22.7200 C   0  0  0  0  0  0  0  0  0  0  0  0
  -20.6300  -28.2740   23.0040 C   0  0  0  0  0  3  0  0  0  0  0  0
  -20.7630  -26.8430   22.4350 C   0  0  0  0  0  2  0  0  0  0  0  0
  -19.6780  -26.4980   21.4100 C   0  0  0  0  0  2  0  0  0  0  0  0
  -18.2860  -26.6140   22.0390 C   0  0  0  0  0  2  0  0  0  0  0  0
  -19.1760  -28.7420   23.1570 C   0  0  0  0  0  0  0  0  0  0  0  0
  -18.9240  -29.9940   23.7580 C   0  0  0  0  0  3  0  0  0  0  0  0
  -17.6060  -30.4640   23.9210 C   0  0  0  0  0  3  0  0  0  0  0  0
  -16.5210  -29.6760   23.4950 C   0  0  0  0  0  3  0  0  0  0  0  0
  -16.7580  -28.4240   22.9010 C   0  0  0  0  0  3  0  0  0  0  0  0
  -25.8950  -32.4690   23.7200 C   0  0  0  0  0  3  0  0  0  0  0  0
  -25.5550  -33.8670   24.0490 N   0  0  0  0  0  0  0  0  0  0  0  0
  -25.8660  -34.9330   23.2990 C   0  0  0  0  0  0  0  0  0  0  0  0
  -26.5270  -34.8460   22.2630 O   0  0  0  0  0  0  0  0  0  0  0  0
  -24.9700  -34.0080   24.8600 H   0  0  0  0  0  0  0  0  0  0  0  0
  -24.1060  -36.7100   22.9880 C   0  0  0  0  0  1  0  0  0  0  0  0
  -25.3680  -36.3170   23.7730 C   0  0  0  0  0  3  0  0  0  0  0  0
  -27.5040  -37.2360   24.5670 C   0  0  0  0  0  1  0  0  0  0  0  0
  -26.3810  -37.3890   23.6450 N   0  0  0  0  0  0  0  0  0  0  0  0
  -25.9610  -38.3000   23.8070 H   0  0  0  0  0  0  0  0  0  0  0  0
  -26.3840  -31.7190   25.0210 C   0  0  1  0  0  0  0  0  0  0  0  0
  -25.2660  -31.4860   26.0650 C   0  0  0  0  0  1  0  0  0  0  0  0
  -26.9930  -30.3430   24.6730 C   0  0  0  0  0  1  0  0  0  0  0  0
  -27.5100  -32.5340   25.7020 C   0  0  0  0  0  1  0  0  0  0  0  0
  1  5  1  0
  2  4  1  0
  3  1  2  0
  4 18  1  0
  4  5  2  0
  5  7  1  0
  6  2  2  0
  6  3  1  0
  8  6  1  0
  9 18  1  0
 10 15  1  0
 11 12  1  0
 11 10  1  0
 13 12  1  0
 13 22  1  0
 13 14  1  0
 15  9  1  0
 15 14  1  0
 16  9  2  0
 18 17  1  0
 19 20  2  0
 20 39  1  0
 21 24  1  0
 21 20  1  0
 22 23  1  0
 22 19  1  0
 23 21  2  0
 24 25  1  0
 25 26  2  0
 27 30  1  0
 27 26  1  0
 28 27  2  0
 29 28  1  0
 29 24  2  0
 30 31  1  0
 31 32  1  0
 32 33  2  0
 34 33  1  0
 34 38  1  0
 35 34  2  0
 36 31  2  0
 36 35  1  0
 37 36  1  0
 39 40  1  0
 40 42  1  0
 40 43  1  0
 41 39  2  0
 44 19  1  0
 44 45  1  0
 46 44  1  0
 47  3  1  0
 47 48  1  0
 49 60  2  0
 50 48  1  0
 50 55  1  0
 51 59  1  0
 51 61  1  0
 52 58  1  0
 52 54  1  0
 53 59  1  0
 54 55  2  0
 54 53  1  0
 56 50  2  0
 57 56  1  0
 57 52  2  0
 58 51  1  0
 59 49  1  0
 61 63  2  0
 62 61  1  0
 64 62  1  0
 65 74  2  0
 65 70  1  0
 66 62  1  0
 66 70  1  0
 67 66  1  0
 68 69  1  0
 68 67  1  0
 69 65  1  0
 70 71  2  0
 71 72  1  0
 73 72  2  0
 74 73  1  0
 75 49  1  0
 75 76  1  0
 75 85  1  0
 76 79  1  0
 77 81  1  0
 77 76  1  0
 78 77  2  0
 81 80  1  0
 83 81  1  0
 83 84  1  0
 83 82  1  0
 85 88  1  1
 85 86  1  0
 87 85  1  0
M  ISO  4   9 100  18 100  47 101  48 101
M  END
>  <TORSDO>  (31) 
F 17

>  <SCORE>  (31) 
-15.134

>  <name>  (31) 
30

>  <ligand_id>  (31) 
30

>  <original_smiles>  (31) 
[H]c1c([H])c([H])c2c(c1[H])C([H])([H])C([H])([H])C([H])([H])C2([H])N([H])C(=O)C1([H])N(C(=O)C([H])(N([H])C(=O)C([H])(N([H])C([H])([H])[H])C([H])([H])[H])C(C([H])([H])[H])(C([H])([H])[H])C([H])([H])[H])C([H])([H])c2c([H])c(OC([H])([H])c3c([H])c(F)c(N(C(=O)N4C([H])([H])C([H])([H])C([H])([H])C([H])(n5nc(-c6c([H])c([H])c(Oc7c([H])c([H])c(F)c([H])c7F)c([H])c6[H])c(C(=O)N([H])[H])c5N([H])[H])C4([H])[H])C([H])([H])[H])c([H])c3F)c([H])c([H])c2C1([H])[H]

>  <smiles>  (31) 
[H]c1c([H])c([H])c2c(c1[H])C([H])([H])C([H])([H])C([H])([H])C2([H])N([H])C(=O)C1([H])N(C(=O)C([H])(N([H])C(=O)C([H])(N([H])C([H])([H])[H])C([H])([H])[H])C(C([H])([H])[H])(C([H])([H])[H])C([H])([H])[H])C([H])([H])c2c([H])c(OC([H])([H])c3c([H])c(F)c(N(C(=O)N4C([H])([H])C([H])([H])C([H])([H])C([H])(n5nc(-c6c([H])c([H])c(Oc7c([H])c([H])c(F)c([H])c7F)c([H])c6[H])c(C(=O)N([H])[H])c5N([H])[H])C4([H])[H])C([H])([H])[H])c([H])c3F)c([H])c([H])c2C1([H])[H]

$$$$
31:0:0
     RDKit          3D

 83 89  0  0  1  0  0  0  0  0999 V2000
  -29.9070  -16.8850   20.1690 C   0  0  0  0  0  0  0  0  0  0  0  0
  -30.2860  -14.0420   19.4820 C   0  0  0  0  0  2  0  0  0  0  0  0
  -29.5980  -13.0950   18.3990 C   0  0  0  0  0  2  0  0  0  0  0  0
  -28.2950  -12.4770   18.8970 C   0  0  0  0  0  2  0  0  0  0  0  0
  -27.5900  -13.5270   19.7630 C   0  0  0  0  0  3  0  0  0  0  0  0
  -28.4900  -14.3420   20.7890 C   0  0  0  0  0  2  0  0  0  0  0  0
  -29.4600  -15.3200   20.0760 N   0  0  0  0  0  0  0  0  0  0  0  0
  -31.1390  -16.5410   20.1130 O   0  0  0  0  0  0  0  0  0  0  0  0
  -28.4630  -20.0990   20.3390 C   0  0  0  0  0  2  0  0  0  0  0  0
  -29.9810  -21.4680   19.4260 C   0  0  0  0  0  2  0  0  0  0  0  0
  -30.4230  -19.8360   19.7920 C   0  0  0  0  0  2  0  0  0  0  0  0
  -28.6770  -22.2010   20.0770 C   0  0  0  0  0  1  0  0  0  0  0  0
  -29.4330  -18.6840   20.1490 N   0  0  0  0  0  0  0  0  0  0  0  0
  -27.3230  -19.8330   20.7360 O   0  0  0  0  0  1  0  0  0  0  0  0
  -25.2120  -13.9100   20.4730 C   0  0  0  0  0  0  0  0  0  0  0  0
  -24.1690  -13.1020   20.8170 C   0  0  0  0  0  0  0  0  0  0  0  0
  -24.6770  -11.7650   20.8080 C   0  0  0  0  0  0  0  0  0  0  0  0
  -26.2970  -13.0840   20.2820 N   0  0  0  0  0  0  0  0  0  0  0  0
  -25.9850  -11.7740   20.5290 N   0  0  0  0  0  0  0  0  0  0  0  0
  -23.9580  -10.4890   20.9960 C   0  0  0  0  0  0  0  0  0  0  0  0
  -24.3650   -9.5370   21.9560 C   0  0  0  0  0  3  0  0  0  0  0  0
  -23.6340   -8.3420   22.1420 C   0  0  0  0  0  3  0  0  0  0  0  0
  -22.4780   -8.0860   21.3660 C   0  0  0  0  0  0  0  0  0  0  0  0
  -22.0860   -9.0270   20.3970 C   0  0  0  0  0  3  0  0  0  0  0  0
  -22.8170  -10.2130   20.2110 C   0  0  0  0  0  3  0  0  0  0  0  0
  -21.7230   -6.9410   21.4560 O   0  0  0  0  0  0  0  0  0  0  0  0
  -21.6490   -6.2150   22.6190 C   0  0  0  0  0  0  0  0  0  0  0  0
  -21.1870   -6.7850   23.8240 C   0  0  0  0  0  3  0  0  0  0  0  0
  -21.0600   -5.9880   24.9790 C   0  0  0  0  0  3  0  0  0  0  0  0
  -21.3830   -4.6180   24.9290 C   0  0  0  0  0  0  0  0  0  0  0  0
  -21.8370   -4.0460   23.7280 C   0  0  0  0  0  3  0  0  0  0  0  0
  -21.9650   -4.8410   22.5750 C   0  0  0  0  0  0  0  0  0  0  0  0
  -22.3830   -4.2790   21.4150 F   0  0  0  0  0  0  0  0  0  0  0  0
  -21.2550   -3.8500   26.0360 F   0  0  0  0  0  0  0  0  0  0  0  0
  -22.7560  -13.5530   21.0330 C   0  0  0  0  0  0  0  0  0  0  0  0
  -22.0200  -12.8710   21.9010 N   0  0  0  0  0  0  0  0  0  0  0  0
  -22.3170  -14.5580   20.4730 O   0  0  0  0  0  0  0  0  0  0  0  0
  -22.3920  -12.0620   22.3780 H   0  0  0  0  0  0  0  0  0  0  0  0
  -21.0710  -13.1600   22.0930 H   0  0  0  0  0  0  0  0  0  0  0  0
  -25.3270  -15.2820   20.2690 N   0  0  0  0  0  0  0  0  0  0  0  0
  -24.5310  -15.9070   20.3400 H   0  0  0  0  0  0  0  0  0  0  0  0
  -26.1730  -15.7470   19.9660 H   0  0  0  0  0  0  0  0  0  0  0  0
  -28.1920  -24.3580   20.2730 O   0  0  0  0  0  1  0  0  0  0  0  0
  -24.7740  -31.7180   23.0090 C   0  0  0  0  0  0  0  0  0  0  0  0
  -27.2970  -25.9210   20.1550 C   0  0  0  0  0  0  0  0  0  0  0  0
  -23.6270  -30.2730   21.3950 C   0  0  0  0  0  3  0  0  0  0  0  0
  -25.0890  -28.4470   20.0540 C   0  0  0  0  0  0  0  0  0  0  0  0
  -26.2290  -30.1850   21.3810 C   0  0  0  0  0  2  0  0  0  0  0  0
  -26.2890  -28.6600   20.7380 C   0  0  0  0  0  0  0  0  0  0  0  0
  -27.3260  -27.4540   20.7400 C   0  0  0  0  0  3  0  0  0  0  0  0
  -26.0620  -26.1290   19.3980 C   0  0  0  0  0  3  0  0  0  0  0  0
  -25.0620  -27.2120   19.3590 C   0  0  0  0  0  3  0  0  0  0  0  0
  -23.9130  -29.4900   20.0630 C   0  0  0  0  0  2  0  0  0  0  0  0
  -24.9120  -30.7800   21.9790 N   0  0  0  0  0  0  0  0  0  0  0  0
  -23.6620  -32.0550   23.4660 O   0  0  0  0  0  0  0  0  0  0  0  0
  -22.8320  -29.3850   22.3970 C   0  0  0  0  0  0  0  0  0  0  0  0
  -21.4890  -29.2920   22.2860 N   0  0  0  0  0  0  0  0  0  0  0  0
  -23.4510  -28.7640   23.2620 O   0  0  0  0  0  0  0  0  0  0  0  0
  -21.0270  -29.8400   21.5740 H   0  0  0  0  0  0  0  0  0  0  0  0
  -18.0680  -28.1590   22.8830 C   0  0  0  0  0  0  0  0  0  0  0  0
  -20.6410  -28.3770   23.0730 C   0  0  0  0  0  3  0  0  0  0  0  0
  -20.6910  -26.9450   22.4900 C   0  0  0  0  0  2  0  0  0  0  0  0
  -19.5610  -26.6600   21.4970 C   0  0  0  0  0  2  0  0  0  0  0  0
  -18.1990  -26.8200   22.1750 C   0  0  0  0  0  2  0  0  0  0  0  0
  -19.2120  -28.8990   23.2880 C   0  0  0  0  0  0  0  0  0  0  0  0
  -19.0270  -30.1460   23.9220 C   0  0  0  0  0  3  0  0  0  0  0  0
  -17.7340  -30.6560   24.1460 C   0  0  0  0  0  3  0  0  0  0  0  0
  -16.6060  -29.9170   23.7500 C   0  0  0  0  0  3  0  0  0  0  0  0
  -16.7740  -28.6690   23.1240 C   0  0  0  0  0  3  0  0  0  0  0  0
  -25.9940  -32.4270   23.6810 C   0  0  0  0  0  3  0  0  0  0  0  0
  -25.6110  -33.8110   24.0650 N   0  0  0  0  0  0  0  0  0  0  0  0
  -25.9230  -34.9330   23.3960 C   0  0  0  0  0  0  0  0  0  0  0  0
  -26.5940  -34.9120   22.3630 O   0  0  0  0  0  0  0  0  0  0  0  0
  -25.0050  -33.8960   24.8680 H   0  0  0  0  0  0  0  0  0  0  0  0
  -24.1550  -36.7290   23.1860 C   0  0  0  0  0  1  0  0  0  0  0  0
  -25.4170  -36.2880   23.9480 C   0  0  0  0  0  3  0  0  0  0  0  0
  -27.5400  -37.1870   24.8060 C   0  0  0  0  0  1  0  0  0  0  0  0
  -26.4240  -37.3720   23.8830 N   0  0  0  0  0  0  0  0  0  0  0  0
  -25.9970  -38.2730   24.0800 H   0  0  0  0  0  0  0  0  0  0  0  0
  -26.5080  -31.6700   24.9710 C   0  0  1  0  0  0  0  0  0  0  0  0
  -25.4070  -31.4090   26.0270 C   0  0  0  0  0  1  0  0  0  0  0  0
  -27.1270  -30.3050   24.6110 C   0  0  0  0  0  1  0  0  0  0  0  0
  -27.6340  -32.4880   25.6460 C   0  0  0  0  0  1  0  0  0  0  0  0
  2  7  1  0
  3  4  1  0
  3  2  1  0
  5  4  1  0
  5 18  1  0
  5  6  1  0
  7  1  1  0
  7  6  1  0
  8  1  2  0
  9 14  1  0
 10 11  1  0
 10 12  1  0
 11 13  1  0
 13  1  1  0
 13  9  1  0
 15 16  2  0
 16 35  1  0
 17 16  1  0
 17 20  1  0
 18 15  1  0
 18 19  1  0
 19 17  2  0
 20 21  1  0
 21 22  2  0
 23 26  1  0
 23 22  1  0
 24 23  2  0
 25 24  1  0
 25 20  2  0
 26 27  1  0
 27 28  1  0
 28 29  2  0
 30 29  1  0
 30 34  1  0
 31 30  2  0
 32 27  2  0
 32 31  1  0
 33 32  1  0
 35 36  1  0
 36 39  1  0
 36 38  1  0
 37 35  2  0
 40 41  1  0
 40 15  1  0
 42 40  1  0
 44 55  2  0
 45 43  1  0
 45 50  1  0
 46 54  1  0
 46 56  1  0
 47 53  1  0
 47 49  1  0
 48 54  1  0
 49 50  2  0
 49 48  1  0
 51 45  2  0
 52 51  1  0
 52 47  2  0
 53 46  1  0
 54 44  1  0
 56 58  2  0
 57 56  1  0
 59 57  1  0
 60 69  2  0
 60 65  1  0
 61 57  1  0
 61 65  1  0
 62 61  1  0
 63 64  1  0
 63 62  1  0
 64 60  1  0
 65 66  2  0
 66 67  1  0
 68 67  2  0
 69 68  1  0
 70 44  1  0
 70 71  1  0
 70 80  1  0
 71 74  1  0
 72 76  1  0
 72 71  1  0
 73 72  2  0
 76 75  1  0
 78 76  1  0
 78 79  1  0
 78 77  1  0
 80 83  1  1
 80 81  1  0
 82 80  1  0
M  ISO  4   1 100  12 101  13 100  43 101
M  END
>  <TORSDO>  (32) 
F 15

>  <SCORE>  (32) 
-15.613

>  <name>  (32) 
31

>  <ligand_id>  (32) 
31

>  <original_smiles>  (32) 
[H]c1c([H])c([H])c2c(c1[H])C([H])([H])C([H])([H])C([H])([H])C2([H])N([H])C(=O)C1([H])N(C(=O)C([H])(N([H])C(=O)C([H])(N([H])C([H])([H])[H])C([H])([H])[H])C(C([H])([H])[H])(C([H])([H])[H])C([H])([H])[H])C([H])([H])c2c([H])c(OC3([H])C(=O)N(C(=O)N4C([H])([H])C([H])([H])C([H])([H])C([H])(n5nc(-c6c([H])c([H])c(Oc7c([H])c([H])c(F)c([H])c7F)c([H])c6[H])c(C(=O)N([H])[H])c5N([H])[H])C4([H])[H])C([H])([H])C3([H])[H])c([H])c([H])c2C1([H])[H]

>  <smiles>  (32) 
[H]c1c([H])c([H])c2c(c1[H])C([H])([H])C([H])([H])C([H])([H])C2([H])N([H])C(=O)C1([H])N(C(=O)C([H])(N([H])C(=O)C([H])(N([H])C([H])([H])[H])C([H])([H])[H])C(C([H])([H])[H])(C([H])([H])[H])C([H])([H])[H])C([H])([H])c2c([H])c(OC3([H])C(=O)N(C(=O)N4C([H])([H])C([H])([H])C([H])([H])C([H])(n5nc(-c6c([H])c([H])c(Oc7c([H])c([H])c(F)c([H])c7F)c([H])c6[H])c(C(=O)N([H])[H])c5N([H])[H])C4([H])[H])C([H])([H])C3([H])[H])c([H])c([H])c2C1([H])[H]

$$$$
32:0:0
     RDKit          3D

 91 99  0  0  1  0  0  0  0  0999 V2000
  -30.7810  -18.7880   19.6800 C   0  0  0  0  0  3  0  0  0  0  0  0
  -28.4390  -19.7730   20.6770 C   0  0  0  0  0  3  0  0  0  0  0  0
  -30.5660  -20.2340   19.7760 C   0  0  0  0  0  0  0  0  0  0  0  0
  -28.6520  -18.3440   20.5700 C   0  0  0  0  0  0  0  0  0  0  0  0
  -29.8470  -17.7490   20.0540 C   0  0  0  0  0  0  0  0  0  0  0  0
  -29.3340  -20.8260   20.2610 C   0  0  0  0  0  0  0  0  0  0  0  0
  -31.7320  -21.1030   19.3180 C   0  0  0  0  0  1  0  0  0  0  0  0
  -27.4950  -17.4380   20.9370 C   0  0  0  0  0  1  0  0  0  0  0  0
  -30.6640  -15.1190   20.0010 C   0  0  0  0  0  0  0  0  0  0  0  0
  -30.5680  -12.7300   19.1360 C   0  0  0  0  0  2  0  0  0  0  0  0
  -29.6230  -12.5620   17.9230 C   0  0  0  0  0  2  0  0  0  0  0  0
  -28.1680  -12.3370   18.3750 C   0  0  0  0  0  2  0  0  0  0  0  0
  -27.7330  -13.3050   19.5070 C   0  0  0  0  0  3  0  0  0  0  0  0
  -28.8030  -13.4510   20.6100 C   0  0  0  0  0  2  0  0  0  0  0  0
  -30.0530  -13.8620   19.9570 N   0  0  0  0  0  0  0  0  0  0  0  0
  -31.8960  -15.1360   19.8940 O   0  0  0  0  0  0  0  0  0  0  0  0
  -29.6830  -16.2420   18.1360 C   0  0  0  0  0  1  0  0  0  0  0  0
  -29.9300  -16.2820   19.5900 N   0  0  0  0  0  0  0  0  0  0  0  0
  -25.3520  -13.8360   20.2940 C   0  0  0  0  0  0  0  0  0  0  0  0
  -24.3080  -13.0460   20.6860 C   0  0  0  0  0  0  0  0  0  0  0  0
  -24.7920  -11.7070   20.6330 C   0  0  0  0  0  0  0  0  0  0  0  0
  -26.4110  -12.9790   20.0390 N   0  0  0  0  0  0  0  0  0  0  0  0
  -26.0810  -11.6900   20.3070 N   0  0  0  0  0  0  0  0  0  0  0  0
  -24.0830  -10.4330   20.8220 C   0  0  0  0  0  0  0  0  0  0  0  0
  -24.4970   -9.4950   21.7920 C   0  0  0  0  0  3  0  0  0  0  0  0
  -23.7860   -8.2900   21.9690 C   0  0  0  0  0  3  0  0  0  0  0  0
  -22.6480   -8.0120   21.1780 C   0  0  0  0  0  0  0  0  0  0  0  0
  -22.2530   -8.9380   20.2000 C   0  0  0  0  0  3  0  0  0  0  0  0
  -22.9630  -10.1380   20.0190 C   0  0  0  0  0  3  0  0  0  0  0  0
  -21.9110   -6.8540   21.2600 O   0  0  0  0  0  0  0  0  0  0  0  0
  -21.7570   -6.1820   22.4450 C   0  0  0  0  0  0  0  0  0  0  0  0
  -21.1870   -6.7990   23.5790 C   0  0  0  0  0  3  0  0  0  0  0  0
  -20.9800   -6.0540   24.7560 C   0  0  0  0  0  3  0  0  0  0  0  0
  -21.3360   -4.6930   24.8030 C   0  0  0  0  0  0  0  0  0  0  0  0
  -21.8960   -4.0750   23.6700 C   0  0  0  0  0  3  0  0  0  0  0  0
  -22.1050   -4.8180   22.4960 C   0  0  0  0  0  0  0  0  0  0  0  0
  -22.6280   -4.2110   21.4020 F   0  0  0  0  0  0  0  0  0  0  0  0
  -21.1300   -3.9760   25.9330 F   0  0  0  0  0  0  0  0  0  0  0  0
  -22.9080  -13.5060   20.9750 C   0  0  0  0  0  0  0  0  0  0  0  0
  -22.2080  -12.8120   21.8660 N   0  0  0  0  0  0  0  0  0  0  0  0
  -22.4460  -14.5140   20.4430 O   0  0  0  0  0  0  0  0  0  0  0  0
  -22.5990  -11.9950   22.3120 H   0  0  0  0  0  0  0  0  0  0  0  0
  -21.2640  -13.0930   22.0900 H   0  0  0  0  0  0  0  0  0  0  0  0
  -25.4630  -15.2060   20.1040 N   0  0  0  0  0  0  0  0  0  0  0  0
  -24.6620  -15.8170   20.2040 H   0  0  0  0  0  0  0  0  0  0  0  0
  -26.2720  -15.6730   19.7200 H   0  0  0  0  0  0  0  0  0  0  0  0
  -28.2550  -22.5480   21.6660 C   0  0  0  0  0  1  0  0  0  0  0  0
  -28.9220  -22.2630   20.3860 N   0  0  0  0  0  0  0  0  0  0  0  0
  -29.2840  -23.5890   19.6560 C   0  0  0  0  0  2  0  0  0  0  0  0
  -28.1640  -24.8280   19.4690 C   0  0  0  0  0  2  0  0  0  0  0  0
  -28.4330  -26.3490   19.4190 O   0  0  0  0  0  0  0  0  0  0  0  0
  -24.8730  -31.5640   23.1460 C   0  0  0  0  0  0  0  0  0  0  0  0
  -27.3580  -27.3000   19.4950 C   0  0  0  0  0  0  0  0  0  0  0  0
  -23.6240  -30.4010   21.3650 C   0  0  0  0  0  3  0  0  0  0  0  0
  -25.0310  -29.0180   19.7200 C   0  0  0  0  0  0  0  0  0  0  0  0
  -26.1720  -30.6840   21.1760 C   0  0  0  0  0  2  0  0  0  0  0  0
  -26.2230  -29.3880   20.3540 C   0  0  0  0  0  0  0  0  0  0  0  0
  -27.3880  -28.5520   20.2210 C   0  0  0  0  0  3  0  0  0  0  0  0
  -26.1410  -27.0230   18.8330 C   0  0  0  0  0  3  0  0  0  0  0  0
  -25.0010  -27.8500   18.9410 C   0  0  0  0  0  3  0  0  0  0  0  0
  -23.8090  -29.9040   19.9070 C   0  0  0  0  0  2  0  0  0  0  0  0
  -24.9110  -30.8950   21.9550 N   0  0  0  0  0  0  0  0  0  0  0  0
  -23.8020  -31.7830   23.7300 O   0  0  0  0  0  0  0  0  0  0  0  0
  -22.9540  -29.2840   22.2030 C   0  0  0  0  0  0  0  0  0  0  0  0
  -21.6200  -29.1540   22.0970 N   0  0  0  0  0  0  0  0  0  0  0  0
  -23.6340  -28.5400   22.9140 O   0  0  0  0  0  0  0  0  0  0  0  0
  -21.1260  -29.8060   21.5040 H   0  0  0  0  0  0  0  0  0  0  0  0
  -18.2220  -27.9900   22.5780 C   0  0  0  0  0  0  0  0  0  0  0  0
  -20.7980  -28.1350   22.7590 C   0  0  0  0  0  3  0  0  0  0  0  0
  -20.8250  -26.8020   21.9760 C   0  0  0  0  0  2  0  0  0  0  0  0
  -19.6690  -26.6650   20.9790 C   0  0  0  0  0  2  0  0  0  0  0  0
  -18.3220  -26.7520   21.7030 C   0  0  0  0  0  2  0  0  0  0  0  0
  -19.3850  -28.6470   23.0620 C   0  0  0  0  0  0  0  0  0  0  0  0
  -19.2340  -29.8120   23.8470 C   0  0  0  0  0  3  0  0  0  0  0  0
  -17.9550  -30.3180   24.1460 C   0  0  0  0  0  3  0  0  0  0  0  0
  -16.8070  -29.6540   23.6760 C   0  0  0  0  0  3  0  0  0  0  0  0
  -16.9430  -28.4900   22.8990 C   0  0  0  0  0  3  0  0  0  0  0  0
  -26.1730  -32.1010   23.8220 C   0  0  0  0  0  3  0  0  0  0  0  0
  -26.6830  -31.1760   24.9950 C   0  0  1  0  0  0  0  0  0  0  0  0
  -25.5990  -30.8460   26.0460 C   0  0  0  0  0  1  0  0  0  0  0  0
  -27.2220  -29.8370   24.4400 C   0  0  0  0  0  1  0  0  0  0  0  0
  -27.8630  -31.8610   25.7230 C   0  0  0  0  0  1  0  0  0  0  0  0
  -25.8920  -33.4550   24.3200 N   0  0  0  0  0  0  0  0  0  0  0  0
  -26.2160  -34.5860   23.6790 C   0  0  0  0  0  0  0  0  0  0  0  0
  -26.8500  -34.5950   22.6210 O   0  0  0  0  0  0  0  0  0  0  0  0
  -25.3250  -33.5210   25.1520 H   0  0  0  0  0  0  0  0  0  0  0  0
  -24.5030  -36.4270   23.6020 C   0  0  0  0  0  1  0  0  0  0  0  0
  -25.7690  -35.9190   24.3120 C   0  0  0  0  0  3  0  0  0  0  0  0
  -27.9460  -36.6850   25.1550 C   0  0  0  0  0  1  0  0  0  0  0  0
  -26.8130  -36.9690   24.2760 N   0  0  0  0  0  0  0  0  0  0  0  0
  -26.4270  -37.8720   24.5360 H   0  0  0  0  0  0  0  0  0  0  0  0
  1  3  2  0
  1  5  1  0
  3  6  1  0
  4  2  1  0
  4  8  1  0
  5  4  2  0
  6 48  1  0
  6  2  2  0
  7  3  1  0
 10 15  1  0
 11 12  1  0
 11 10  1  0
 13 12  1  0
 13 22  1  0
 13 14  1  0
 15  9  1  0
 15 14  1  0
 16  9  2  0
 17 18  1  0
 18  9  1  0
 18  5  1  0
 19 20  2  0
 20 39  1  0
 21 20  1  0
 21 24  1  0
 22 19  1  0
 22 23  1  0
 23 21  2  0
 24 25  1  0
 25 26  2  0
 27 30  1  0
 27 26  1  0
 28 27  2  0
 29 28  1  0
 29 24  2  0
 30 31  1  0
 31 36  2  0
 31 32  1  0
 32 33  2  0
 33 34  1  0
 34 38  1  0
 35 34  2  0
 36 35  1  0
 37 36  1  0
 39 40  1  0
 40 43  1  0
 40 42  1  0
 41 39  2  0
 44 45  1  0
 44 19  1  0
 46 44  1  0
 48 47  1  0
 49 48  1  0
 50 49  1  0
 51 50  1  0
 51 53  1  0
 52 63  2  0
 53 58  1  0
 54 62  1  0
 54 64  1  0
 55 61  1  0
 55 57  1  0
 56 62  1  0
 57 56  1  0
 58 57  2  0
 59 60  1  0
 59 53  2  0
 60 55  2  0
 61 54  1  0
 62 52  1  0
 64 66  2  0
 65 64  1  0
 67 65  1  0
 68 77  2  0
 68 73  1  0
 69 65  1  0
 69 73  1  0
 70 69  1  0
 71 72  1  0
 71 70  1  0
 72 68  1  0
 73 74  2  0
 74 75  1  0
 76 75  2  0
 77 76  1  0
 78 52  1  0
 78 83  1  0
 78 79  1  0
 79 82  1  1
 79 80  1  0
 81 79  1  0
 83 86  1  0
 84 88  1  0
 84 83  1  0
 85 84  2  0
 88 87  1  0
 90 88  1  0
 90 91  1  0
 90 89  1  0
M  ISO  4   9 100  18 100  50 101  51 101
M  END
>  <TORSDO>  (33) 
F 19

>  <SCORE>  (33) 
-11.531

>  <name>  (33) 
32

>  <ligand_id>  (33) 
32

>  <original_smiles>  (33) 
[H]c1c([H])c([H])c2c(c1[H])C([H])([H])C([H])([H])C([H])([H])C2([H])N([H])C(=O)C1([H])N(C(=O)C([H])(N([H])C(=O)C([H])(N([H])C([H])([H])[H])C([H])([H])[H])C(C([H])([H])[H])(C([H])([H])[H])C([H])([H])[H])C([H])([H])c2c([H])c(OC([H])([H])C([H])([H])N(c3c([H])c(C([H])([H])[H])c(N(C(=O)N4C([H])([H])C([H])([H])C([H])([H])C([H])(n5nc(-c6c([H])c([H])c(Oc7c([H])c([H])c(F)c([H])c7F)c([H])c6[H])c(C(=O)N([H])[H])c5N([H])[H])C4([H])[H])C([H])([H])[H])c([H])c3C([H])([H])[H])C([H])([H])[H])c([H])c([H])c2C1([H])[H]

>  <smiles>  (33) 
[H]c1c([H])c([H])c2c(c1[H])C([H])([H])C([H])([H])C([H])([H])C2([H])N([H])C(=O)C1([H])N(C(=O)C([H])(N([H])C(=O)C([H])(N([H])C([H])([H])[H])C([H])([H])[H])C(C([H])([H])[H])(C([H])([H])[H])C([H])([H])[H])C([H])([H])c2c([H])c(OC([H])([H])C([H])([H])N(c3c([H])c(C([H])([H])[H])c(N(C(=O)N4C([H])([H])C([H])([H])C([H])([H])C([H])(n5nc(-c6c([H])c([H])c(Oc7c([H])c([H])c(F)c([H])c7F)c([H])c6[H])c(C(=O)N([H])[H])c5N([H])[H])C4([H])[H])C([H])([H])[H])c([H])c3C([H])([H])[H])C([H])([H])[H])c([H])c([H])c2C1([H])[H]

$$$$
33:0:0
     RDKit          3D

 87 92  0  0  1  0  0  0  0  0999 V2000
  -30.5960  -16.2180   19.6900 C   0  0  0  0  0  0  0  0  0  0  0  0
  -30.7200  -13.4990   19.1520 C   0  0  0  0  0  2  0  0  0  0  0  0
  -29.8540  -12.8090   18.0440 C   0  0  0  0  0  2  0  0  0  0  0  0
  -28.4630  -12.4410   18.5660 C   0  0  0  0  0  2  0  0  0  0  0  0
  -27.9260  -13.5680   19.4690 C   0  0  0  0  0  3  0  0  0  0  0  0
  -28.9490  -14.1280   20.5020 C   0  0  0  0  0  2  0  0  0  0  0  0
  -30.0630  -14.7950   19.7470 N   0  0  0  0  0  0  0  0  0  0  0  0
  -31.8210  -16.0080   19.5000 O   0  0  0  0  0  0  0  0  0  0  0  0
  -28.5860  -18.0260   20.2060 C   0  0  0  0  0  2  0  0  0  0  0  0
  -30.1510  -19.5230   19.1040 C   0  0  0  0  0  1  0  0  0  0  0  0
  -28.3070  -19.4350   20.9610 C   0  0  0  0  0  3  0  0  0  0  0  0
  -29.3520  -21.3520   19.5180 C   0  0  0  0  0  1  0  0  0  0  0  0
  -29.2460  -19.6300   22.1670 C   0  0  0  0  0  1  0  0  0  0  0  0
  -29.9370  -17.7530   19.6290 N   0  0  0  0  0  0  0  0  0  0  0  0
  -28.1400  -20.7340   20.1570 N   0  0  0  0  0  4  0  0  0  0  0  0
  -27.7310  -21.4250   20.7670 H   0  0  0  0  0  0  0  0  0  0  0  0
  -27.4560  -20.5660   19.4340 H   0  0  0  0  0  0  0  0  0  0  0  0
  -25.6420  -14.2080   20.3410 C   0  0  0  0  0  0  0  0  0  0  0  0
  -24.5460  -13.4910   20.7260 C   0  0  0  0  0  0  0  0  0  0  0  0
  -24.9230  -12.1140   20.6410 C   0  0  0  0  0  0  0  0  0  0  0  0
  -26.6170  -13.2800   20.0380 N   0  0  0  0  0  0  0  0  0  0  0  0
  -26.2020  -12.0070   20.2800 N   0  0  0  0  0  0  0  0  0  0  0  0
  -24.1120  -10.9010   20.8250 C   0  0  0  0  0  0  0  0  0  0  0  0
  -24.5040   -9.8740   21.7120 C   0  0  0  0  0  3  0  0  0  0  0  0
  -23.6930   -8.7330   21.8920 C   0  0  0  0  0  3  0  0  0  0  0  0
  -22.4730   -8.6090   21.1850 C   0  0  0  0  0  0  0  0  0  0  0  0
  -22.0970   -9.6220   20.2860 C   0  0  0  0  0  3  0  0  0  0  0  0
  -22.9090  -10.7560   20.1040 C   0  0  0  0  0  3  0  0  0  0  0  0
  -21.6350   -7.5240   21.2760 O   0  0  0  0  0  0  0  0  0  0  0  0
  -21.5910   -6.7380   22.3990 C   0  0  0  0  0  0  0  0  0  0  0  0
  -21.2510   -7.2670   23.6640 C   0  0  0  0  0  3  0  0  0  0  0  0
  -21.1480   -6.4130   24.7800 C   0  0  0  0  0  3  0  0  0  0  0  0
  -21.3760   -5.0320   24.6350 C   0  0  0  0  0  0  0  0  0  0  0  0
  -21.7100   -4.5020   23.3750 C   0  0  0  0  0  3  0  0  0  0  0  0
  -21.8130   -5.3530   22.2620 C   0  0  0  0  0  0  0  0  0  0  0  0
  -22.1130   -4.8340   21.0460 F   0  0  0  0  0  0  0  0  0  0  0  0
  -21.2720   -4.2110   25.7050 F   0  0  0  0  0  0  0  0  0  0  0  0
  -23.1960  -14.0570   21.0490 C   0  0  0  0  0  0  0  0  0  0  0  0
  -22.4470  -13.3960   21.9240 N   0  0  0  0  0  0  0  0  0  0  0  0
  -22.8200  -15.1220   20.5630 O   0  0  0  0  0  0  0  0  0  0  0  0
  -22.7670  -12.5340   22.3400 H   0  0  0  0  0  0  0  0  0  0  0  0
  -21.5410  -13.7600   22.1820 H   0  0  0  0  0  0  0  0  0  0  0  0
  -25.8870  -15.5700   20.1850 N   0  0  0  0  0  0  0  0  0  0  0  0
  -25.1550  -16.2610   20.3110 H   0  0  0  0  0  0  0  0  0  0  0  0
  -26.7270  -15.9480   19.7680 H   0  0  0  0  0  0  0  0  0  0  0  0
  -28.9210  -23.3390   18.8480 C   0  0  0  0  0 15  0  0  0  0  0  0
  -28.7470  -25.2320   19.1210 O   0  0  0  0  0  1  0  0  0  0  0  0
  -24.7770  -31.2730   22.6280 C   0  0  0  0  0  0  0  0  0  0  0  0
  -27.6930  -26.4900   19.1540 C   0  0  0  0  0  0  0  0  0  0  0  0
  -23.6900  -29.9070   20.9010 C   0  0  0  0  0  3  0  0  0  0  0  0
  -25.2530  -28.4760   19.3280 C   0  0  0  0  0  0  0  0  0  0  0  0
  -26.2600  -30.2210   20.7670 C   0  0  0  0  0  2  0  0  0  0  0  0
  -26.4360  -28.8330   19.9830 C   0  0  0  0  0  0  0  0  0  0  0  0
  -27.6170  -27.8740   19.8650 C   0  0  0  0  0  3  0  0  0  0  0  0
  -26.4470  -26.4240   18.4540 C   0  0  0  0  0  3  0  0  0  0  0  0
  -25.3110  -27.3100   18.5400 C   0  0  0  0  0  3  0  0  0  0  0  0
  -23.9720  -29.3340   19.4770 C   0  0  0  0  0  2  0  0  0  0  0  0
  -24.9340  -30.5050   21.4870 N   0  0  0  0  0  0  0  0  0  0  0  0
  -23.6690  -31.4360   23.1710 O   0  0  0  0  0  0  0  0  0  0  0  0
  -23.0670  -28.8100   21.8090 C   0  0  0  0  0  0  0  0  0  0  0  0
  -21.7440  -28.5670   21.7130 N   0  0  0  0  0  0  0  0  0  0  0  0
  -23.7920  -28.1710   22.5750 O   0  0  0  0  0  0  0  0  0  0  0  0
  -21.2000  -29.1360   21.0800 H   0  0  0  0  0  0  0  0  0  0  0  0
  -18.4780  -27.0520   22.2570 C   0  0  0  0  0  0  0  0  0  0  0  0
  -21.0230  -27.4990   22.4210 C   0  0  0  0  0  3  0  0  0  0  0  0
  -21.1950  -26.1410   21.6980 C   0  0  0  0  0  2  0  0  0  0  0  0
  -20.0670  -25.8390   20.7080 C   0  0  0  0  0  2  0  0  0  0  0  0
  -18.7170  -25.8030   21.4260 C   0  0  0  0  0  2  0  0  0  0  0  0
  -19.5580  -27.8580   22.7100 C   0  0  0  0  0  0  0  0  0  0  0  0
  -19.2740  -29.0210   23.4570 C   0  0  0  0  0  3  0  0  0  0  0  0
  -17.9460  -29.3850   23.7490 C   0  0  0  0  0  3  0  0  0  0  0  0
  -16.8820  -28.5790   23.3070 C   0  0  0  0  0  3  0  0  0  0  0  0
  -17.1490  -27.4140   22.5660 C   0  0  0  0  0  3  0  0  0  0  0  0
  -25.9790  -31.9960   23.3100 C   0  0  0  0  0  3  0  0  0  0  0  0
  -25.5020  -33.2840   23.8620 N   0  0  0  0  0  0  0  0  0  0  0  0
  -25.6960  -34.4890   23.3060 C   0  0  0  0  0  0  0  0  0  0  0  0
  -26.3420  -34.6390   22.2670 O   0  0  0  0  0  0  0  0  0  0  0  0
  -24.9140  -33.2290   24.6810 H   0  0  0  0  0  0  0  0  0  0  0  0
  -23.7660  -36.1150   23.3120 C   0  0  0  0  0  1  0  0  0  0  0  0
  -25.0800  -35.7210   24.0070 C   0  0  0  0  0  3  0  0  0  0  0  0
  -27.1330  -36.7140   24.9270 C   0  0  0  0  0  1  0  0  0  0  0  0
  -25.9830  -36.8940   24.0450 N   0  0  0  0  0  0  0  0  0  0  0  0
  -25.4810  -37.7260   24.3450 H   0  0  0  0  0  0  0  0  0  0  0  0
  -26.6350  -31.1430   24.4680 C   0  0  1  0  0  0  0  0  0  0  0  0
  -25.6240  -30.6500   25.5320 C   0  0  0  0  0  1  0  0  0  0  0  0
  -27.3540  -29.8970   23.9050 C   0  0  0  0  0  1  0  0  0  0  0  0
  -27.7170  -31.9810   25.1890 C   0  0  0  0  0  1  0  0  0  0  0  0
  1  7  1  0
  2  7  1  0
  3  4  1  0
  3  2  1  0
  5  4  1  0
  5 21  1  0
  5  6  1  0
  7  6  1  0
  8  1  2  0
  9 11  1  0
 10 14  1  0
 11 13  1  0
 12 15  1  0
 14  1  1  0
 14  9  1  0
 15 16  1  0
 15 11  1  0
 17 15  1  0
 18 19  2  0
 19 38  1  0
 20 19  1  0
 20 23  1  0
 21 22  1  0
 21 18  1  0
 22 20  2  0
 23 24  1  0
 24 25  2  0
 26 29  1  0
 26 25  1  0
 27 26  2  0
 28 27  1  0
 28 23  2  0
 29 30  1  0
 30 31  1  0
 31 32  2  0
 33 32  1  0
 33 37  1  0
 34 33  2  0
 35 30  2  0
 35 34  1  0
 36 35  1  0
 38 39  1  0
 39 42  1  0
 39 41  1  0
 40 38  2  0
 43 44  1  0
 43 18  1  0
 45 43  1  0
 47 49  1  0
 48 59  2  0
 49 54  1  0
 50 58  1  0
 50 60  1  0
 51 57  1  0
 51 53  1  0
 52 58  1  0
 53 52  1  0
 54 53  2  0
 55 56  1  0
 55 49  2  0
 56 51  2  0
 57 50  1  0
 58 48  1  0
 60 62  2  0
 61 60  1  0
 63 61  1  0
 64 73  2  0
 64 69  1  0
 65 61  1  0
 65 69  1  0
 66 65  1  0
 67 68  1  0
 67 66  1  0
 68 64  1  0
 69 70  2  0
 70 71  1  0
 72 71  2  0
 73 72  1  0
 74 48  1  0
 74 75  1  0
 74 84  1  0
 75 78  1  0
 76 75  1  0
 76 80  1  0
 77 76  2  0
 80 79  1  0
 80 82  1  0
 82 83  1  0
 82 81  1  0
 84 87  1  1
 84 85  1  0
 86 84  1  0
M  ISO  4   1 100  14 100  46 101  47 101
M  END
>  <TORSDO>  (34) 
F 16

>  <SCORE>  (34) 
-11.874

>  <name>  (34) 
33

>  <ligand_id>  (34) 
33

>  <original_smiles>  (34) 
[H]c1c([H])c([H])c2c(c1[H])C([H])([H])C([H])([H])C([H])([H])C2([H])N([H])C(=O)C1([H])N(C(=O)C([H])(N([H])C(=O)C([H])(N([H])C([H])([H])[H])C([H])([H])[H])C(C([H])([H])[H])(C([H])([H])[H])C([H])([H])[H])C([H])([H])c2c([H])c(OC([H])([H])C3([H])C([H])([H])N(C(=O)N4C([H])([H])C([H])([H])C([H])([H])C([H])(n5nc(-c6c([H])c([H])c(Oc7c([H])c([H])c(F)c([H])c7F)c([H])c6[H])c(C(=O)N([H])[H])c5N([H])[H])C4([H])[H])C([H])([H])C([H])(C([H])([H])[H])[N+]3([H])[H])c([H])c([H])c2C1([H])[H]

>  <smiles>  (34) 
[H]c1c([H])c([H])c2c(c1[H])C([H])([H])C([H])([H])C([H])([H])C2([H])N([H])C(=O)C1([H])N(C(=O)C([H])(N([H])C(=O)C([H])(N([H])C([H])([H])[H])C([H])([H])[H])C(C([H])([H])[H])(C([H])([H])[H])C([H])([H])[H])C([H])([H])c2c([H])c(OC([H])([H])C3([H])C([H])([H])N(C(=O)N4C([H])([H])C([H])([H])C([H])([H])C([H])(n5nc(-c6c([H])c([H])c(Oc7c([H])c([H])c(F)c([H])c7F)c([H])c6[H])c(C(=O)N([H])[H])c5N([H])[H])C4([H])[H])C([H])([H])C([H])(C([H])([H])[H])[N+]3([H])[H])c([H])c([H])c2C1([H])[H]

$$$$
34:0:0
     RDKit          3D

 82 87  0  0  1  0  0  0  0  0999 V2000
  -28.1930  -24.4930   20.2350 O   0  0  0  0  0  1  0  0  0  0  0  0
  -29.9270  -16.8380   20.0730 C   0  0  0  0  0  0  0  0  0  0  0  0
  -30.3100  -14.0380   19.2850 C   0  0  0  0  0  2  0  0  0  0  0  0
  -29.5570  -13.1340   18.2110 C   0  0  0  0  0  2  0  0  0  0  0  0
  -28.2660  -12.5240   18.7530 C   0  0  0  0  0  2  0  0  0  0  0  0
  -27.6070  -13.5550   19.6770 C   0  0  0  0  0  3  0  0  0  0  0  0
  -28.5680  -14.3130   20.6800 C   0  0  0  0  0  2  0  0  0  0  0  0
  -29.5070  -15.2870   19.9360 N   0  0  0  0  0  0  0  0  0  0  0  0
  -31.1730  -16.5560   20.0100 O   0  0  0  0  0  0  0  0  0  0  0  0
  -27.5340  -21.0000   19.7070 C   0  0  0  0  0  2  0  0  0  0  0  0
  -27.8640  -19.2740   20.0150 C   0  0  0  0  0  3  0  0  0  0  0  0
  -29.5080  -20.4900   20.2470 C   0  0  0  0  0 15  0  0  0  0  0  0
  -28.3710  -22.3280   20.3220 C   0  0  0  0  0  1  0  0  0  0  0  0
  -29.2760  -18.5540   20.1200 N   0  0  0  0  0  0  0  0  0  0  0  0
  -25.2730  -13.9330   20.5360 C   0  0  0  0  0  0  0  0  0  0  0  0
  -24.2420  -13.1190   20.9040 C   0  0  0  0  0  0  0  0  0  0  0  0
  -24.7400  -11.7790   20.8180 C   0  0  0  0  0  0  0  0  0  0  0  0
  -26.3380  -13.1070   20.2490 N   0  0  0  0  0  0  0  0  0  0  0  0
  -26.0300  -11.7920   20.4660 N   0  0  0  0  0  0  0  0  0  0  0  0
  -24.0250  -10.5010   20.9960 C   0  0  0  0  0  0  0  0  0  0  0  0
  -24.4550   -9.5310   21.9290 C   0  0  0  0  0  3  0  0  0  0  0  0
  -23.7310   -8.3300   22.1050 C   0  0  0  0  0  3  0  0  0  0  0  0
  -22.5580   -8.0880   21.3500 C   0  0  0  0  0  0  0  0  0  0  0  0
  -22.1450   -9.0470   20.4080 C   0  0  0  0  0  3  0  0  0  0  0  0
  -22.8710  -10.2380   20.2290 C   0  0  0  0  0  3  0  0  0  0  0  0
  -21.8070   -6.9400   21.4340 O   0  0  0  0  0  0  0  0  0  0  0  0
  -21.7220   -6.2160   22.5970 C   0  0  0  0  0  0  0  0  0  0  0  0
  -21.2220   -6.7830   23.7900 C   0  0  0  0  0  3  0  0  0  0  0  0
  -21.0850   -5.9860   24.9460 C   0  0  0  0  0  3  0  0  0  0  0  0
  -21.4370   -4.6250   24.9090 C   0  0  0  0  0  0  0  0  0  0  0  0
  -21.9270   -4.0570   23.7210 C   0  0  0  0  0  3  0  0  0  0  0  0
  -22.0660   -4.8490   22.5680 C   0  0  0  0  0  0  0  0  0  0  0  0
  -22.5200   -4.2900   21.4200 F   0  0  0  0  0  0  0  0  0  0  0  0
  -21.3000   -3.8580   26.0160 F   0  0  0  0  0  0  0  0  0  0  0  0
  -22.8450  -13.5660   21.2130 C   0  0  0  0  0  0  0  0  0  0  0  0
  -22.1500  -12.8530   22.0910 N   0  0  0  0  0  0  0  0  0  0  0  0
  -22.3810  -14.5920   20.7140 O   0  0  0  0  0  0  0  0  0  0  0  0
  -22.5370  -12.0250   22.5180 H   0  0  0  0  0  0  0  0  0  0  0  0
  -21.2140  -13.1390   22.3440 H   0  0  0  0  0  0  0  0  0  0  0  0
  -25.3930  -15.3130   20.3850 N   0  0  0  0  0  0  0  0  0  0  0  0
  -24.6220  -15.9490   20.5580 H   0  0  0  0  0  0  0  0  0  0  0  0
  -26.2340  -15.7810   20.0760 H   0  0  0  0  0  0  0  0  0  0  0  0
  -24.7500  -31.7680   23.0990 C   0  0  0  0  0  0  0  0  0  0  0  0
  -27.2720  -26.0230   20.2540 C   0  0  0  0  0  0  0  0  0  0  0  0
  -23.6050  -30.3310   21.4770 C   0  0  0  0  0  3  0  0  0  0  0  0
  -25.0660  -28.5170   20.1430 C   0  0  0  0  0  0  0  0  0  0  0  0
  -26.2080  -30.2590   21.4610 C   0  0  0  0  0  2  0  0  0  0  0  0
  -26.2690  -28.7400   20.8220 C   0  0  0  0  0  0  0  0  0  0  0  0
  -27.3180  -27.5540   20.8160 C   0  0  0  0  0  3  0  0  0  0  0  0
  -26.0280  -26.2040   19.5150 C   0  0  0  0  0  3  0  0  0  0  0  0
  -25.0300  -27.2790   19.4620 C   0  0  0  0  0  3  0  0  0  0  0  0
  -23.8920  -29.5580   20.1430 C   0  0  0  0  0  2  0  0  0  0  0  0
  -24.8890  -30.8380   22.0650 N   0  0  0  0  0  0  0  0  0  0  0  0
  -23.6360  -32.1040   23.5540 O   0  0  0  0  0  0  0  0  0  0  0  0
  -22.8090  -29.4350   22.4720 C   0  0  0  0  0  0  0  0  0  0  0  0
  -21.4710  -29.3260   22.3430 N   0  0  0  0  0  0  0  0  0  0  0  0
  -23.4260  -28.8230   23.3450 O   0  0  0  0  0  0  0  0  0  0  0  0
  -21.0110  -29.8700   21.6250 H   0  0  0  0  0  0  0  0  0  0  0  0
  -18.0540  -28.1530   22.8920 C   0  0  0  0  0  0  0  0  0  0  0  0
  -20.6230  -28.4050   23.1200 C   0  0  0  0  0  3  0  0  0  0  0  0
  -20.7020  -26.9710   22.5450 C   0  0  0  0  0  2  0  0  0  0  0  0
  -19.5860  -26.6620   21.5400 C   0  0  0  0  0  2  0  0  0  0  0  0
  -18.2140  -26.8090   22.2030 C   0  0  0  0  0  2  0  0  0  0  0  0
  -19.1840  -28.9110   23.3070 C   0  0  0  0  0  0  0  0  0  0  0  0
  -18.9730  -30.1620   23.9250 C   0  0  0  0  0  3  0  0  0  0  0  0
  -17.6710  -30.6600   24.1230 C   0  0  0  0  0  3  0  0  0  0  0  0
  -16.5580  -29.9040   23.7140 C   0  0  0  0  0  3  0  0  0  0  0  0
  -16.7520  -28.6520   23.1050 C   0  0  0  0  0  3  0  0  0  0  0  0
  -25.9700  -32.4670   23.7800 C   0  0  0  0  0  3  0  0  0  0  0  0
  -25.6140  -33.8710   24.1070 N   0  0  0  0  0  0  0  0  0  0  0  0
  -25.9400  -34.9560   23.3870 C   0  0  0  0  0  0  0  0  0  0  0  0
  -26.6090  -34.8820   22.3550 O   0  0  0  0  0  0  0  0  0  0  0  0
  -25.0140  -34.0020   24.9070 H   0  0  0  0  0  0  0  0  0  0  0  0
  -24.1860  -36.7550   23.1120 C   0  0  0  0  0  1  0  0  0  0  0  0
  -25.4510  -36.3390   23.8810 C   0  0  0  0  0  3  0  0  0  0  0  0
  -27.6020  -37.2450   24.6620 C   0  0  0  0  0  1  0  0  0  0  0  0
  -26.4610  -37.4170   23.7670 N   0  0  0  0  0  0  0  0  0  0  0  0
  -26.0420  -38.3200   23.9670 H   0  0  0  0  0  0  0  0  0  0  0  0
  -26.4350  -31.7400   25.1050 C   0  0  1  0  0  0  0  0  0  0  0  0
  -25.3030  -31.5230   26.1410 C   0  0  0  0  0  1  0  0  0  0  0  0
  -27.0440  -30.3560   24.7990 C   0  0  0  0  0  1  0  0  0  0  0  0
  -27.5530  -32.5630   25.7870 C   0  0  0  0  0  1  0  0  0  0  0  0
  1 44  1  0
  2 14  1  0
  3  8  1  0
  4  5  1  0
  4  3  1  0
  6  5  1  0
  6 18  1  0
  6  7  1  0
  8  2  1  0
  8  7  1  0
  9  2  2  0
 10 11  1  0
 10 13  1  0
 11 14  2  0
 15 16  2  0
 16 35  1  0
 17 16  1  0
 17 20  1  0
 18 19  1  0
 18 15  1  0
 19 17  2  0
 20 21  1  0
 21 22  2  0
 23 26  1  0
 23 22  1  0
 24 23  2  0
 25 24  1  0
 25 20  2  0
 26 27  1  0
 27 28  1  0
 28 29  2  0
 30 29  1  0
 30 34  1  0
 31 30  2  0
 32 27  2  0
 32 31  1  0
 33 32  1  0
 35 36  1  0
 36 39  1  0
 36 38  1  0
 37 35  2  0
 40 15  1  0
 40 41  1  0
 42 40  1  0
 43 54  2  0
 44 49  1  0
 45 53  1  0
 45 55  1  0
 46 48  1  0
 47 53  1  0
 48 47  1  0
 49 48  2  0
 50 44  2  0
 51 50  1  0
 51 46  2  0
 52 46  1  0
 52 45  1  0
 53 43  1  0
 55 57  2  0
 56 55  1  0
 58 56  1  0
 59 68  2  0
 59 64  1  0
 60 56  1  0
 60 64  1  0
 61 60  1  0
 62 63  1  0
 62 61  1  0
 63 59  1  0
 64 65  2  0
 65 66  1  0
 67 66  2  0
 68 67  1  0
 69 43  1  0
 69 70  1  0
 69 79  1  0
 70 73  1  0
 71 75  1  0
 71 70  1  0
 72 71  2  0
 75 74  1  0
 77 75  1  0
 77 78  1  0
 77 76  1  0
 79 82  1  1
 79 80  1  0
 81 79  1  0
M  ISO  4   1 101   2 100  13 101  14 100
M  END
>  <TORSDO>  (35) 
F 15

>  <SCORE>  (35) 
-16.149

>  <name>  (35) 
34

>  <ligand_id>  (35) 
34

>  <original_smiles>  (35) 
[H]c1c([H])c([H])c2c(c1[H])C([H])([H])C([H])([H])C([H])([H])C2([H])N([H])C(=O)C1([H])N(C(=O)C([H])(N([H])C(=O)C([H])(N([H])C([H])([H])[H])C([H])([H])[H])C(C([H])([H])[H])(C([H])([H])[H])C([H])([H])[H])C([H])([H])c2c([H])c(OC3([H])C([H])([H])N(C(=O)N4C([H])([H])C([H])([H])C([H])([H])C([H])(n5nc(-c6c([H])c([H])c(Oc7c([H])c([H])c(F)c([H])c7F)c([H])c6[H])c(C(=O)N([H])[H])c5N([H])[H])C4([H])[H])C([H])([H])C3([H])[H])c([H])c([H])c2C1([H])[H]

>  <smiles>  (35) 
[H]c1c([H])c([H])c2c(c1[H])C([H])([H])C([H])([H])C([H])([H])C2([H])N([H])C(=O)C1([H])N(C(=O)C([H])(N([H])C(=O)C([H])(N([H])C([H])([H])[H])C([H])([H])[H])C(C([H])([H])[H])(C([H])([H])[H])C([H])([H])[H])C([H])([H])c2c([H])c(OC3([H])C([H])([H])N(C(=O)N4C([H])([H])C([H])([H])C([H])([H])C([H])(n5nc(-c6c([H])c([H])c(Oc7c([H])c([H])c(F)c([H])c7F)c([H])c6[H])c(C(=O)N([H])[H])c5N([H])[H])C4([H])[H])C([H])([H])C3([H])[H])c([H])c([H])c2C1([H])[H]

$$$$
35:0:0
     RDKit          3D

 89 97  0  0  1  0  0  0  0  0999 V2000
  -30.3160  -20.6260   20.0310 C   0  0  0  0  0  3  0  0  0  0  0  0
  -30.5230  -19.1490   20.0520 C   0  0  0  0  0  3  0  0  0  0  0  0
  -28.0510  -20.3620   20.2470 C   0  0  0  0  0  3  0  0  0  0  0  0
  -29.0710  -21.3950   20.1240 C   0  0  0  0  0  0  0  0  0  0  0  0
  -29.4990  -18.1250   20.1760 C   0  0  0  0  0  0  0  0  0  0  0  0
  -28.2460  -18.8820   20.2660 C   0  0  0  0  0  0  0  0  0  0  0  0
  -27.1240  -18.1320   20.3860 F   0  0  0  0  0  0  0  0  0  0  0  0
  -30.3990  -15.3120   20.0130 C   0  0  0  0  0  0  0  0  0  0  0  0
  -30.3770  -12.8810   19.1020 C   0  0  0  0  0  2  0  0  0  0  0  0
  -29.3920  -12.7030   17.9160 C   0  0  0  0  0  2  0  0  0  0  0  0
  -27.9650  -12.4220   18.4210 C   0  0  0  0  0  2  0  0  0  0  0  0
  -27.5700  -13.3590   19.5900 C   0  0  0  0  0  3  0  0  0  0  0  0
  -28.6730  -13.4730   20.6630 C   0  0  0  0  0  2  0  0  0  0  0  0
  -29.8720  -13.9920   19.9870 N   0  0  0  0  0  0  0  0  0  0  0  0
  -31.5980  -15.3700   19.6980 O   0  0  0  0  0  0  0  0  0  0  0  0
  -29.5560  -16.5060   20.2160 N   0  0  0  0  0  0  0  0  0  0  0  0
  -28.6360  -16.1660   20.4510 H   0  0  0  0  0  0  0  0  0  0  0  0
  -25.2390  -13.8960   20.4780 C   0  0  0  0  0  0  0  0  0  0  0  0
  -24.1990  -13.1070   20.8800 C   0  0  0  0  0  0  0  0  0  0  0  0
  -24.6630  -11.7590   20.7860 C   0  0  0  0  0  0  0  0  0  0  0  0
  -26.2690  -13.0300   20.1560 N   0  0  0  0  0  0  0  0  0  0  0  0
  -25.9370  -11.7350   20.4070 N   0  0  0  0  0  0  0  0  0  0  0  0
  -23.9460  -10.4900   20.9760 C   0  0  0  0  0  0  0  0  0  0  0  0
  -24.3910   -9.5200   21.9020 C   0  0  0  0  0  3  0  0  0  0  0  0
  -23.6700   -8.3200   22.0810 C   0  0  0  0  0  3  0  0  0  0  0  0
  -22.4920   -8.0790   21.3360 C   0  0  0  0  0  0  0  0  0  0  0  0
  -22.0680   -9.0380   20.3990 C   0  0  0  0  0  3  0  0  0  0  0  0
  -22.7880  -10.2300   20.2170 C   0  0  0  0  0  3  0  0  0  0  0  0
  -21.7430   -6.9310   21.4250 O   0  0  0  0  0  0  0  0  0  0  0  0
  -21.6640   -6.2130   22.5910 C   0  0  0  0  0  0  0  0  0  0  0  0
  -21.1730   -6.7840   23.7850 C   0  0  0  0  0  3  0  0  0  0  0  0
  -21.0420   -5.9900   24.9430 C   0  0  0  0  0  3  0  0  0  0  0  0
  -21.3910   -4.6280   24.9060 C   0  0  0  0  0  0  0  0  0  0  0  0
  -21.8750   -4.0560   23.7160 C   0  0  0  0  0  3  0  0  0  0  0  0
  -22.0070   -4.8470   22.5610 C   0  0  0  0  0  0  0  0  0  0  0  0
  -22.4540   -4.2860   21.4110 F   0  0  0  0  0  0  0  0  0  0  0  0
  -21.2600   -3.8630   26.0160 F   0  0  0  0  0  0  0  0  0  0  0  0
  -22.8170  -13.5740   21.2340 C   0  0  0  0  0  0  0  0  0  0  0  0
  -22.1350  -12.8570   22.1180 N   0  0  0  0  0  0  0  0  0  0  0  0
  -22.3530  -14.6110   20.7590 O   0  0  0  0  0  0  0  0  0  0  0  0
  -22.5250  -12.0180   22.5230 H   0  0  0  0  0  0  0  0  0  0  0  0
  -21.2100  -13.1520   22.3990 H   0  0  0  0  0  0  0  0  0  0  0  0
  -25.3880  -15.2710   20.3340 N   0  0  0  0  0  0  0  0  0  0  0  0
  -24.6250  -15.9130   20.5210 H   0  0  0  0  0  0  0  0  0  0  0  0
  -26.2070  -15.7370   19.9700 H   0  0  0  0  0  0  0  0  0  0  0  0
  -29.0070  -23.1520   20.1520 C   0  0  0  0  0  2  0  0  0  0  0  0
  -27.8500  -24.2920   20.1100 N   0  0  0  0  0  0  0  0  0  0  0  0
  -27.2610  -24.1620   20.9270 H   0  0  0  0  0  0  0  0  0  0  0  0
  -28.2260  -25.9450   20.1050 O   0  0  0  0  0  0  0  0  0  0  0  0
  -24.6640  -31.8450   23.2050 C   0  0  0  0  0  0  0  0  0  0  0  0
  -27.1860  -27.0100   20.1140 C   0  0  0  0  0  0  0  0  0  0  0  0
  -23.4510  -30.4700   21.5610 C   0  0  0  0  0  3  0  0  0  0  0  0
  -24.8830  -28.8770   20.1090 C   0  0  0  0  0  0  0  0  0  0  0  0
  -26.0140  -30.6810   21.3940 C   0  0  0  0  0  2  0  0  0  0  0  0
  -26.0740  -29.2780   20.7280 C   0  0  0  0  0  0  0  0  0  0  0  0
  -27.2170  -28.3610   20.7130 C   0  0  0  0  0  3  0  0  0  0  0  0
  -25.9680  -26.7580   19.4440 C   0  0  0  0  0  3  0  0  0  0  0  0
  -24.8530  -27.6370   19.4490 C   0  0  0  0  0  3  0  0  0  0  0  0
  -23.6670  -29.8000   20.1750 C   0  0  0  0  0  2  0  0  0  0  0  0
  -24.7310  -31.0250   22.1060 N   0  0  0  0  0  0  0  0  0  0  0  0
  -23.5810  -32.1310   23.7400 O   0  0  0  0  0  0  0  0  0  0  0  0
  -22.7650  -29.4650   22.5220 C   0  0  0  0  0  0  0  0  0  0  0  0
  -21.4360  -29.2940   22.3980 N   0  0  0  0  0  0  0  0  0  0  0  0
  -23.4360  -28.8390   23.3470 O   0  0  0  0  0  0  0  0  0  0  0  0
  -20.9480  -29.8500   21.7100 H   0  0  0  0  0  0  0  0  0  0  0  0
  -18.0580  -28.0750   22.9160 C   0  0  0  0  0  0  0  0  0  0  0  0
  -20.6190  -28.3480   23.1650 C   0  0  0  0  0  3  0  0  0  0  0  0
  -20.7220  -26.9210   22.5780 C   0  0  0  0  0  2  0  0  0  0  0  0
  -19.6140  -26.6040   21.5670 C   0  0  0  0  0  2  0  0  0  0  0  0
  -18.2360  -26.7350   22.2210 C   0  0  0  0  0  2  0  0  0  0  0  0
  -19.1760  -28.8390   23.3450 C   0  0  0  0  0  0  0  0  0  0  0  0
  -18.9530  -30.0910   23.9570 C   0  0  0  0  0  3  0  0  0  0  0  0
  -17.6470  -30.5810   24.1430 C   0  0  0  0  0  3  0  0  0  0  0  0
  -16.5440  -29.8150   23.7270 C   0  0  0  0  0  3  0  0  0  0  0  0
  -16.7500  -28.5630   23.1190 C   0  0  0  0  0  3  0  0  0  0  0  0
  -25.9430  -32.4770   23.8320 C   0  0  0  0  0  3  0  0  0  0  0  0
  -25.6320  -33.8730   24.1880 N   0  0  0  0  0  0  0  0  0  0  0  0
  -25.9290  -34.9410   23.4370 C   0  0  0  0  0  0  0  0  0  0  0  0
  -26.5570  -34.8560   22.3790 O   0  0  0  0  0  0  0  0  0  0  0  0
  -25.0680  -34.0110   25.0140 H   0  0  0  0  0  0  0  0  0  0  0  0
  -24.1650  -36.7250   23.2080 C   0  0  0  0  0  1  0  0  0  0  0  0
  -25.4580  -36.3230   23.9360 C   0  0  0  0  0  3  0  0  0  0  0  0
  -27.6240  -37.2350   24.6510 C   0  0  0  0  0  1  0  0  0  0  0  0
  -26.4720  -37.3880   23.7670 N   0  0  0  0  0  0  0  0  0  0  0  0
  -26.0640  -38.3040   23.9340 H   0  0  0  0  0  0  0  0  0  0  0  0
  -26.4590  -31.6960   25.1050 C   0  0  1  0  0  0  0  0  0  0  0  0
  -25.3680  -31.4540   26.1740 C   0  0  0  0  0  1  0  0  0  0  0  0
  -27.0390  -30.3190   24.7100 C   0  0  0  0  0  1  0  0  0  0  0  0
  -27.6140  -32.4830   25.7700 C   0  0  0  0  0  1  0  0  0  0  0  0
  1  2  2  0
  1  4  1  0
  2  5  1  0
  3  6  1  0
  4 46  1  0
  4  3  2  0
  5 16  1  0
  5  6  2  0
  6  7  1  0
  8 16  1  0
  9 14  1  0
 10 11  1  0
 10  9  1  0
 12 11  1  0
 12 21  1  0
 12 13  1  0
 14  8  1  0
 14 13  1  0
 15  8  2  0
 16 17  1  0
 18 19  2  0
 19 38  1  0
 20 19  1  0
 20 23  1  0
 21 22  1  0
 21 18  1  0
 22 20  2  0
 23 24  1  0
 24 25  2  0
 26 29  1  0
 26 25  1  0
 27 26  2  0
 28 27  1  0
 28 23  2  0
 29 30  1  0
 30 31  1  0
 31 32  2  0
 33 32  1  0
 33 37  1  0
 34 33  2  0
 35 30  2  0
 35 34  1  0
 36 35  1  0
 38 39  1  0
 39 42  1  0
 39 41  1  0
 40 38  2  0
 43 18  1  0
 43 44  1  0
 45 43  1  0
 47 46  1  0
 47 48  1  0
 49 47  1  0
 49 51  1  0
 50 61  2  0
 51 56  1  0
 52 60  1  0
 52 62  1  0
 53 59  1  0
 53 55  1  0
 54 60  1  0
 55 54  1  0
 56 55  2  0
 57 58  1  0
 57 51  2  0
 58 53  2  0
 59 52  1  0
 60 50  1  0
 62 64  2  0
 63 62  1  0
 65 63  1  0
 66 75  2  0
 66 71  1  0
 67 63  1  0
 67 71  1  0
 68 67  1  0
 69 70  1  0
 69 68  1  0
 70 66  1  0
 71 72  2  0
 72 73  1  0
 74 73  2  0
 75 74  1  0
 76 50  1  0
 76 77  1  0
 76 86  1  0
 77 80  1  0
 78 82  1  0
 78 77  1  0
 79 78  2  0
 82 81  1  0
 84 85  1  0
 84 82  1  0
 84 83  1  0
 86 89  1  1
 86 87  1  0
 88 86  1  0
M  ISO  4   8 100  16 100  47 101  49 101
M  END
>  <TORSDO>  (36) 
F 18

>  <SCORE>  (36) 
-16.299

>  <name>  (36) 
35

>  <ligand_id>  (36) 
35

>  <original_smiles>  (36) 
[H]c1c([H])c([H])c2c(c1[H])C([H])([H])C([H])([H])C([H])([H])C2([H])N([H])C(=O)C1([H])N(C(=O)C([H])(N([H])C(=O)C([H])(N([H])C([H])([H])[H])C([H])([H])[H])C(C([H])([H])[H])(C([H])([H])[H])C([H])([H])[H])C([H])([H])c2c([H])c(ON([H])C([H])([H])c3c([H])c([H])c(N([H])C(=O)N4C([H])([H])C([H])([H])C([H])([H])C([H])(n5nc(-c6c([H])c([H])c(Oc7c([H])c([H])c(F)c([H])c7F)c([H])c6[H])c(C(=O)N([H])[H])c5N([H])[H])C4([H])[H])c(F)c3[H])c([H])c([H])c2C1([H])[H]

>  <smiles>  (36) 
[H]c1c([H])c([H])c2c(c1[H])C([H])([H])C([H])([H])C([H])([H])C2([H])N([H])C(=O)C1([H])N(C(=O)C([H])(N([H])C(=O)C([H])(N([H])C([H])([H])[H])C([H])([H])[H])C(C([H])([H])[H])(C([H])([H])[H])C([H])([H])[H])C([H])([H])c2c([H])c(ON([H])C([H])([H])c3c([H])c([H])c(N([H])C(=O)N4C([H])([H])C([H])([H])C([H])([H])C([H])(n5nc(-c6c([H])c([H])c(Oc7c([H])c([H])c(F)c([H])c7F)c([H])c6[H])c(C(=O)N([H])[H])c5N([H])[H])C4([H])[H])c(F)c3[H])c([H])c([H])c2C1([H])[H]

$$$$
36:0:0
     RDKit          3D

 90 98  0  0  1  0  0  0  0  0999 V2000
  -30.2080  -21.1840   21.4970 C   0  0  0  0  0  3  0  0  0  0  0  0
  -30.8570  -20.0090   21.9660 C   0  0  0  0  0  3  0  0  0  0  0  0
  -29.2420  -21.2010   20.4690 C   0  0  0  0  0  0  0  0  0  0  0  0
  -29.7300  -18.3890   20.4440 C   0  0  0  0  0  0  0  0  0  0  0  0
  -30.6520  -18.6910   21.4720 C   0  0  0  0  0  0  0  0  0  0  0  0
  -29.0340  -19.7220   19.9810 C   0  0  0  0  0  0  0  0  0  0  0  0
  -31.3460  -17.6870   22.0550 F   0  0  0  0  0  0  0  0  0  0  0  0
  -28.1120  -19.5690   19.0000 F   0  0  0  0  0  0  0  0  0  0  0  0
  -30.3320  -15.4760   20.1200 C   0  0  0  0  0  0  0  0  0  0  0  0
  -30.3240  -13.0230   19.1800 C   0  0  0  0  0  2  0  0  0  0  0  0
  -29.3520  -12.7030   18.0130 C   0  0  0  0  0  2  0  0  0  0  0  0
  -27.9360  -12.4020   18.5320 C   0  0  0  0  0  2  0  0  0  0  0  0
  -27.5020  -13.3960   19.6350 C   0  0  0  0  0  3  0  0  0  0  0  0
  -28.5920  -13.6010   20.7080 C   0  0  0  0  0  2  0  0  0  0  0  0
  -29.7640  -14.1630   20.0090 N   0  0  0  0  0  0  0  0  0  0  0  0
  -31.5620  -15.4380   19.9570 O   0  0  0  0  0  0  0  0  0  0  0  0
  -29.5640  -16.7790   20.0990 N   0  0  0  0  0  0  0  0  0  0  0  0
  -28.6070  -16.5780   19.8470 H   0  0  0  0  0  0  0  0  0  0  0  0
  -25.1550  -13.9300   20.4700 C   0  0  0  0  0  0  0  0  0  0  0  0
  -24.1080  -13.1450   20.8550 C   0  0  0  0  0  0  0  0  0  0  0  0
  -24.5830  -11.7970   20.8090 C   0  0  0  0  0  0  0  0  0  0  0  0
  -26.1980  -13.0650   20.1950 N   0  0  0  0  0  0  0  0  0  0  0  0
  -25.8680  -11.7740   20.4680 N   0  0  0  0  0  0  0  0  0  0  0  0
  -23.8700  -10.5290   21.0060 C   0  0  0  0  0  0  0  0  0  0  0  0
  -24.3230   -9.5580   21.9280 C   0  0  0  0  0  3  0  0  0  0  0  0
  -23.6050   -8.3580   22.1120 C   0  0  0  0  0  3  0  0  0  0  0  0
  -22.4180   -8.1190   21.3780 C   0  0  0  0  0  0  0  0  0  0  0  0
  -21.9850   -9.0790   20.4450 C   0  0  0  0  0  3  0  0  0  0  0  0
  -22.7060  -10.2690   20.2570 C   0  0  0  0  0  3  0  0  0  0  0  0
  -21.6660   -6.9720   21.4770 O   0  0  0  0  0  0  0  0  0  0  0  0
  -21.6400   -6.2250   22.6280 C   0  0  0  0  0  0  0  0  0  0  0  0
  -21.2300   -6.7740   23.8630 C   0  0  0  0  0  3  0  0  0  0  0  0
  -21.1490   -5.9540   25.0070 C   0  0  0  0  0  3  0  0  0  0  0  0
  -21.4720   -4.5870   24.9180 C   0  0  0  0  0  0  0  0  0  0  0  0
  -21.8790   -4.0370   23.6890 C   0  0  0  0  0  3  0  0  0  0  0  0
  -21.9590   -4.8540   22.5480 C   0  0  0  0  0  0  0  0  0  0  0  0
  -22.3280   -4.3160   21.3600 F   0  0  0  0  0  0  0  0  0  0  0  0
  -21.3900   -3.7970   26.0130 F   0  0  0  0  0  0  0  0  0  0  0  0
  -22.7120  -13.6100   21.1560 C   0  0  0  0  0  0  0  0  0  0  0  0
  -22.0050  -12.9060   22.0290 N   0  0  0  0  0  0  0  0  0  0  0  0
  -22.2600  -14.6380   20.6500 O   0  0  0  0  0  0  0  0  0  0  0  0
  -22.3780  -12.0740   22.4630 H   0  0  0  0  0  0  0  0  0  0  0  0
  -21.0720  -13.2040   22.2750 H   0  0  0  0  0  0  0  0  0  0  0  0
  -25.3000  -15.3040   20.2910 N   0  0  0  0  0  0  0  0  0  0  0  0
  -24.5320  -15.9500   20.4360 H   0  0  0  0  0  0  0  0  0  0  0  0
  -26.1310  -15.7580   19.9350 H   0  0  0  0  0  0  0  0  0  0  0  0
  -28.7670  -22.8550   19.9560 C   0  0  0  0  0  2  0  0  0  0  0  0
  -28.1360  -24.2020   20.7090 N   0  0  0  0  0  0  0  0  0  0  0  0
  -28.4460  -24.1910   21.6760 H   0  0  0  0  0  0  0  0  0  0  0  0
  -28.3050  -25.8550   20.2020 O   0  0  0  0  0  0  0  0  0  0  0  0
  -24.6740  -31.9070   23.2190 C   0  0  0  0  0  0  0  0  0  0  0  0
  -27.2540  -26.9380   20.2840 C   0  0  0  0  0  0  0  0  0  0  0  0
  -23.4860  -30.4840   21.6000 C   0  0  0  0  0  3  0  0  0  0  0  0
  -24.9400  -28.8440   20.2140 C   0  0  0  0  0  0  0  0  0  0  0  0
  -26.0530  -30.6790   21.4610 C   0  0  0  0  0  2  0  0  0  0  0  0
  -26.1290  -29.2460   20.8390 C   0  0  0  0  0  0  0  0  0  0  0  0
  -27.2730  -28.3130   20.8570 C   0  0  0  0  0  3  0  0  0  0  0  0
  -26.0300  -26.7010   19.6130 C   0  0  0  0  0  3  0  0  0  0  0  0
  -24.9160  -27.5860   19.5860 C   0  0  0  0  0  3  0  0  0  0  0  0
  -23.7240  -29.7770   20.2350 C   0  0  0  0  0  2  0  0  0  0  0  0
  -24.7600  -31.0530   22.1470 N   0  0  0  0  0  0  0  0  0  0  0  0
  -23.5820  -32.2020   23.7330 O   0  0  0  0  0  0  0  0  0  0  0  0
  -22.7950  -29.5020   22.5820 C   0  0  0  0  0  0  0  0  0  0  0  0
  -21.4650  -29.3280   22.4570 N   0  0  0  0  0  0  0  0  0  0  0  0
  -23.4610  -28.8940   23.4240 O   0  0  0  0  0  0  0  0  0  0  0  0
  -20.9800  -29.8660   21.7520 H   0  0  0  0  0  0  0  0  0  0  0  0
  -18.0930  -28.0960   22.9770 C   0  0  0  0  0  0  0  0  0  0  0  0
  -20.6500  -28.3950   23.2400 C   0  0  0  0  0  3  0  0  0  0  0  0
  -20.7690  -26.9550   22.6900 C   0  0  0  0  0  2  0  0  0  0  0  0
  -19.6740  -26.6030   21.6780 C   0  0  0  0  0  2  0  0  0  0  0  0
  -18.2870  -26.7410   22.3160 C   0  0  0  0  0  2  0  0  0  0  0  0
  -19.2020  -28.8790   23.3950 C   0  0  0  0  0  0  0  0  0  0  0  0
  -18.9660  -30.1440   23.9750 C   0  0  0  0  0  3  0  0  0  0  0  0
  -17.6540  -30.6280   24.1410 C   0  0  0  0  0  3  0  0  0  0  0  0
  -16.5590  -29.8430   23.7360 C   0  0  0  0  0  3  0  0  0  0  0  0
  -16.7790  -28.5780   23.1590 C   0  0  0  0  0  3  0  0  0  0  0  0
  -25.9420  -32.5660   23.8430 C   0  0  0  0  0  3  0  0  0  0  0  0
  -25.6120  -33.9660   24.1650 N   0  0  0  0  0  0  0  0  0  0  0  0
  -25.9370  -35.0240   23.4140 C   0  0  0  0  0  0  0  0  0  0  0  0
  -26.6120  -34.9300   22.3860 O   0  0  0  0  0  0  0  0  0  0  0  0
  -25.0140  -34.1120   24.9650 H   0  0  0  0  0  0  0  0  0  0  0  0
  -24.2030  -36.8200   23.0670 C   0  0  0  0  0  1  0  0  0  0  0  0
  -25.4460  -36.4130   23.8770 C   0  0  0  0  0  3  0  0  0  0  0  0
  -27.5730  -37.3120   24.7150 C   0  0  0  0  0  1  0  0  0  0  0  0
  -26.4760  -37.4710   23.7640 N   0  0  0  0  0  0  0  0  0  0  0  0
  -26.0660  -38.3910   23.9030 H   0  0  0  0  0  0  0  0  0  0  0  0
  -26.4520  -31.8220   25.1410 C   0  0  1  0  0  0  0  0  0  0  0  0
  -25.3490  -31.6020   26.2050 C   0  0  0  0  0  1  0  0  0  0  0  0
  -27.0460  -30.4390   24.7880 C   0  0  0  0  0  1  0  0  0  0  0  0
  -27.5900  -32.6370   25.7980 C   0  0  0  0  0  1  0  0  0  0  0  0
  1  2  1  0
  3  1  2  0
  4  5  1  0
  5  2  2  0
  5  7  1  0
  6  4  2  0
  6  3  1  0
  8  6  1  0
 10 15  1  0
 11 12  1  0
 11 10  1  0
 13 12  1  0
 13 22  1  0
 13 14  1  0
 15  9  1  0
 15 14  1  0
 16  9  2  0
 17  9  1  0
 17  4  1  0
 18 17  1  0
 19 20  2  0
 20 39  1  0
 21 20  1  0
 21 24  1  0
 22 23  1  0
 22 19  1  0
 23 21  2  0
 24 25  1  0
 25 26  2  0
 27 30  1  0
 27 26  1  0
 28 27  2  0
 29 28  1  0
 29 24  2  0
 30 31  1  0
 31 32  1  0
 32 33  2  0
 34 33  1  0
 34 38  1  0
 35 34  2  0
 36 31  2  0
 36 35  1  0
 37 36  1  0
 39 40  1  0
 40 43  1  0
 40 42  1  0
 41 39  2  0
 44 45  1  0
 44 19  1  0
 46 44  1  0
 47  3  1  0
 47 48  1  0
 48 49  1  0
 50 52  1  0
 50 48  1  0
 51 62  2  0
 52 57  1  0
 53 61  1  0
 53 63  1  0
 54 60  1  0
 54 56  1  0
 55 61  1  0
 56 57  2  0
 56 55  1  0
 58 52  2  0
 59 58  1  0
 59 54  2  0
 60 53  1  0
 61 51  1  0
 63 65  2  0
 64 63  1  0
 66 64  1  0
 67 76  2  0
 67 72  1  0
 68 64  1  0
 68 72  1  0
 69 68  1  0
 70 71  1  0
 70 69  1  0
 71 67  1  0
 72 73  2  0
 73 74  1  0
 75 74  2  0
 76 75  1  0
 77 51  1  0
 77 78  1  0
 77 87  1  0
 78 81  1  0
 79 83  1  0
 79 78  1  0
 80 79  2  0
 83 82  1  0
 85 83  1  0
 85 86  1  0
 85 84  1  0
 87 90  1  1
 87 88  1  0
 89 87  1  0
M  ISO  4   9 100  17 100  48 101  50 101
M  END
>  <TORSDO>  (37) 
F 18

>  <SCORE>  (37) 
-16.413

>  <name>  (37) 
36

>  <ligand_id>  (37) 
36

>  <original_smiles>  (37) 
[H]c1c([H])c([H])c2c(c1[H])C([H])([H])C([H])([H])C([H])([H])C2([H])N([H])C(=O)C1([H])N(C(=O)C([H])(N([H])C(=O)C([H])(N([H])C([H])([H])[H])C([H])([H])[H])C(C([H])([H])[H])(C([H])([H])[H])C([H])([H])[H])C([H])([H])c2c([H])c(ON([H])C([H])([H])c3c([H])c([H])c(F)c(N([H])C(=O)N4C([H])([H])C([H])([H])C([H])([H])C([H])(n5nc(-c6c([H])c([H])c(Oc7c([H])c([H])c(F)c([H])c7F)c([H])c6[H])c(C(=O)N([H])[H])c5N([H])[H])C4([H])[H])c3F)c([H])c([H])c2C1([H])[H]

>  <smiles>  (37) 
[H]c1c([H])c([H])c2c(c1[H])C([H])([H])C([H])([H])C([H])([H])C2([H])N([H])C(=O)C1([H])N(C(=O)C([H])(N([H])C(=O)C([H])(N([H])C([H])([H])[H])C([H])([H])[H])C(C([H])([H])[H])(C([H])([H])[H])C([H])([H])[H])C([H])([H])c2c([H])c(ON([H])C([H])([H])c3c([H])c([H])c(F)c(N([H])C(=O)N4C([H])([H])C([H])([H])C([H])([H])C([H])(n5nc(-c6c([H])c([H])c(Oc7c([H])c([H])c(F)c([H])c7F)c([H])c6[H])c(C(=O)N([H])[H])c5N([H])[H])C4([H])[H])c3F)c([H])c([H])c2C1([H])[H]

$$$$
37:0:0
     RDKit          3D

 91100  0  0  1  0  0  0  0  0999 V2000
  -28.5660  -24.2560   18.4970 C   0  0  0  0  0  2  0  0  0  0  0  0
  -28.6490  -22.6860   18.4460 C   0  0  0  0  0  2  0  0  0  0  0  0
  -28.9140  -23.4090   20.6720 C   0  0  0  0  0  2  0  0  0  0  0  0
  -28.1800  -24.6880   19.9240 C   0  0  0  0  0  3  0  0  0  0  0  0
  -29.0030  -22.1640   19.7730 N   0  0  0  0  0  0  0  0  0  0  0  0
  -29.5630  -20.0730   21.2400 C   0  0  0  0  0  3  0  0  0  0  0  0
  -29.8430  -18.6550   21.4150 C   0  0  0  0  0  3  0  0  0  0  0  0
  -29.4340  -19.7160   18.9330 C   0  0  0  0  0  3  0  0  0  0  0  0
  -29.3270  -20.7120   19.9820 C   0  0  0  0  0  0  0  0  0  0  0  0
  -29.9550  -17.6530   20.3710 C   0  0  0  0  0  0  0  0  0  0  0  0
  -29.7320  -18.2900   19.1010 C   0  0  0  0  0  0  0  0  0  0  0  0
  -29.7710  -17.5120   17.9920 F   0  0  0  0  0  0  0  0  0  0  0  0
  -30.7430  -15.0480   19.9240 C   0  0  0  0  0  0  0  0  0  0  0  0
  -30.5260  -12.7220   18.8960 C   0  0  0  0  0  2  0  0  0  0  0  0
  -29.5010  -12.7250   17.7370 C   0  0  0  0  0  2  0  0  0  0  0  0
  -28.0760  -12.4890   18.2750 C   0  0  0  0  0  2  0  0  0  0  0  0
  -27.7710  -13.3590   19.5210 C   0  0  0  0  0  3  0  0  0  0  0  0
  -28.9140  -13.3210   20.5550 C   0  0  0  0  0  2  0  0  0  0  0  0
  -30.1390  -13.7810   19.8790 N   0  0  0  0  0  0  0  0  0  0  0  0
  -31.8190  -15.1670   19.3250 O   0  0  0  0  0  0  0  0  0  0  0  0
  -30.2790  -15.8570   22.1150 C   0  0  0  0  0  1  0  0  0  0  0  0
  -30.1950  -16.1420   20.6690 N   0  0  0  0  0  0  0  0  0  0  0  0
  -25.4870  -13.8990   20.5380 C   0  0  0  0  0  0  0  0  0  0  0  0
  -24.4560  -13.1090   20.9660 C   0  0  0  0  0  0  0  0  0  0  0  0
  -24.8950  -11.7610   20.7950 C   0  0  0  0  0  0  0  0  0  0  0  0
  -26.4840  -13.0340   20.1260 N   0  0  0  0  0  0  0  0  0  0  0  0
  -26.1450  -11.7350   20.3430 N   0  0  0  0  0  0  0  0  0  0  0  0
  -24.1730  -10.4930   20.9780 C   0  0  0  0  0  0  0  0  0  0  0  0
  -24.6150   -9.5150   21.8950 C   0  0  0  0  0  3  0  0  0  0  0  0
  -23.8910   -8.3140   22.0650 C   0  0  0  0  0  3  0  0  0  0  0  0
  -22.7110   -8.0860   21.3180 C   0  0  0  0  0  0  0  0  0  0  0  0
  -22.2860   -9.0550   20.3930 C   0  0  0  0  0  3  0  0  0  0  0  0
  -23.0110  -10.2450   20.2200 C   0  0  0  0  0  3  0  0  0  0  0  0
  -21.9590   -6.9370   21.3990 O   0  0  0  0  0  0  0  0  0  0  0  0
  -21.8240   -6.2460   22.5760 C   0  0  0  0  0  0  0  0  0  0  0  0
  -21.2810   -6.8450   23.7340 C   0  0  0  0  0  3  0  0  0  0  0  0
  -21.0960   -6.0800   24.9010 C   0  0  0  0  0  3  0  0  0  0  0  0
  -21.4420   -4.7150   24.9110 C   0  0  0  0  0  0  0  0  0  0  0  0
  -21.9770   -4.1150   23.7580 C   0  0  0  0  0  3  0  0  0  0  0  0
  -22.1650   -4.8790   22.5920 C   0  0  0  0  0  0  0  0  0  0  0  0
  -22.6610   -4.2910   21.4770 F   0  0  0  0  0  0  0  0  0  0  0  0
  -21.2570   -3.9770   26.0310 F   0  0  0  0  0  0  0  0  0  0  0  0
  -23.1020  -13.5800   21.4150 C   0  0  0  0  0  0  0  0  0  0  0  0
  -22.4750  -12.8540   22.3330 N   0  0  0  0  0  0  0  0  0  0  0  0
  -22.6160  -14.6250   20.9860 O   0  0  0  0  0  0  0  0  0  0  0  0
  -22.8860  -12.0100   22.7060 H   0  0  0  0  0  0  0  0  0  0  0  0
  -21.5690  -13.1480   22.6700 H   0  0  0  0  0  0  0  0  0  0  0  0
  -25.6520  -15.2780   20.4420 N   0  0  0  0  0  0  0  0  0  0  0  0
  -24.9180  -15.9300   20.6970 H   0  0  0  0  0  0  0  0  0  0  0  0
  -26.4780  -15.7350   20.0750 H   0  0  0  0  0  0  0  0  0  0  0  0
  -28.3570  -26.2230   20.1930 O   0  0  0  0  0  0  0  0  0  0  0  0
  -24.7170  -31.8330   23.2870 C   0  0  0  0  0  0  0  0  0  0  0  0
  -27.2900  -27.1960   20.1300 C   0  0  0  0  0  0  0  0  0  0  0  0
  -23.5090  -30.4710   21.6230 C   0  0  0  0  0  3  0  0  0  0  0  0
  -24.9520  -28.9340   20.1510 C   0  0  0  0  0  0  0  0  0  0  0  0
  -26.0610  -30.7460   21.4480 C   0  0  0  0  0  2  0  0  0  0  0  0
  -26.1330  -29.3700   20.7650 C   0  0  0  0  0  0  0  0  0  0  0  0
  -27.2990  -28.5160   20.7410 C   0  0  0  0  0  3  0  0  0  0  0  0
  -26.0870  -26.8690   19.4660 C   0  0  0  0  0  3  0  0  0  0  0  0
  -24.9430  -27.6980   19.4840 C   0  0  0  0  0  3  0  0  0  0  0  0
  -23.7230  -29.8250   20.2280 C   0  0  0  0  0  2  0  0  0  0  0  0
  -24.7820  -31.0370   22.1750 N   0  0  0  0  0  0  0  0  0  0  0  0
  -23.6350  -32.1030   23.8290 O   0  0  0  0  0  0  0  0  0  0  0  0
  -22.8400  -29.4420   22.5690 C   0  0  0  0  0  0  0  0  0  0  0  0
  -21.5140  -29.2590   22.4400 N   0  0  0  0  0  0  0  0  0  0  0  0
  -23.5180  -28.8100   23.3830 O   0  0  0  0  0  0  0  0  0  0  0  0
  -21.0220  -29.8230   21.7610 H   0  0  0  0  0  0  0  0  0  0  0  0
  -18.1460  -28.0130   22.9240 C   0  0  0  0  0  0  0  0  0  0  0  0
  -20.7030  -28.3010   23.1960 C   0  0  0  0  0  3  0  0  0  0  0  0
  -20.8190  -26.8790   22.5990 C   0  0  0  0  0  2  0  0  0  0  0  0
  -19.7210  -26.5600   21.5780 C   0  0  0  0  0  2  0  0  0  0  0  0
  -18.3380  -26.6790   22.2250 C   0  0  0  0  0  2  0  0  0  0  0  0
  -19.2560  -28.7820   23.3660 C   0  0  0  0  0  0  0  0  0  0  0  0
  -19.0210  -30.0300   23.9830 C   0  0  0  0  0  3  0  0  0  0  0  0
  -17.7110  -30.5110   24.1620 C   0  0  0  0  0  3  0  0  0  0  0  0
  -16.6150  -29.7410   23.7340 C   0  0  0  0  0  3  0  0  0  0  0  0
  -16.8350  -28.4940   23.1200 C   0  0  0  0  0  3  0  0  0  0  0  0
  -25.9980  -32.4590   23.9180 C   0  0  0  0  0  3  0  0  0  0  0  0
  -25.6980  -33.8610   24.2470 N   0  0  0  0  0  0  0  0  0  0  0  0
  -26.0150  -34.9130   23.4790 C   0  0  0  0  0  0  0  0  0  0  0  0
  -26.6580  -34.8030   22.4320 O   0  0  0  0  0  0  0  0  0  0  0  0
  -25.1270  -34.0210   25.0640 H   0  0  0  0  0  0  0  0  0  0  0  0
  -24.2740  -36.7060   23.1780 C   0  0  0  0  0  1  0  0  0  0  0  0
  -25.5460  -36.3060   23.9440 C   0  0  0  0  0  3  0  0  0  0  0  0
  -27.7070  -37.2050   24.6870 C   0  0  0  0  0  1  0  0  0  0  0  0
  -26.5730  -37.3590   23.7790 N   0  0  0  0  0  0  0  0  0  0  0  0
  -26.1700  -38.2810   23.9270 H   0  0  0  0  0  0  0  0  0  0  0  0
  -26.4950  -31.6880   25.2040 C   0  0  1  0  0  0  0  0  0  0  0  0
  -25.3920  -31.4670   26.2640 C   0  0  0  0  0  1  0  0  0  0  0  0
  -27.0670  -30.3020   24.8300 C   0  0  0  0  0  1  0  0  0  0  0  0
  -27.6490  -32.4730   25.8710 C   0  0  0  0  0  1  0  0  0  0  0  0
  1  4  1  0
  2  1  1  0
  2  5  1  0
  4 51  1  0
  4  3  1  0
  5  9  1  0
  5  3  1  0
  6  7  1  0
  8 11  2  0
  8  9  1  0
  9  6  2  0
 10 22  1  0
 10  7  2  0
 11 10  1  0
 12 11  1  0
 13 22  1  0
 14 19  1  0
 15 16  1  0
 15 14  1  0
 17 16  1  0
 17 26  1  0
 17 18  1  0
 19 13  1  0
 19 18  1  0
 20 13  2  0
 22 21  1  0
 23 24  2  0
 24 43  1  0
 25 24  1  0
 25 28  1  0
 26 27  1  0
 26 23  1  0
 27 25  2  0
 28 29  1  0
 29 30  2  0
 31 34  1  0
 31 30  1  0
 32 31  2  0
 33 32  1  0
 33 28  2  0
 34 35  1  0
 35 40  2  0
 35 36  1  0
 36 37  2  0
 37 38  1  0
 38 42  1  0
 39 38  2  0
 40 39  1  0
 41 40  1  0
 43 44  1  0
 44 47  1  0
 44 46  1  0
 45 43  2  0
 48 23  1  0
 48 49  1  0
 50 48  1  0
 52 63  2  0
 53 51  1  0
 53 58  1  0
 54 62  1  0
 54 64  1  0
 55 61  1  0
 55 57  1  0
 56 62  1  0
 57 56  1  0
 58 57  2  0
 59 60  1  0
 59 53  2  0
 60 55  2  0
 61 54  1  0
 62 52  1  0
 64 66  2  0
 65 64  1  0
 67 65  1  0
 68 77  2  0
 68 73  1  0
 69 65  1  0
 69 73  1  0
 70 69  1  0
 71 72  1  0
 71 70  1  0
 72 68  1  0
 73 74  2  0
 74 75  1  0
 76 75  2  0
 77 76  1  0
 78 52  1  0
 78 79  1  0
 78 88  1  0
 79 82  1  0
 80 84  1  0
 80 79  1  0
 81 80  2  0
 84 83  1  0
 86 87  1  0
 86 84  1  0
 86 85  1  0
 88 91  1  1
 88 89  1  0
 90 88  1  0
M  ISO  4   4 101  13 100  22 100  51 101
M  END
>  <TORSDO>  (38) 
F 17

>  <SCORE>  (38) 
-13.924

>  <name>  (38) 
37

>  <ligand_id>  (38) 
37

>  <original_smiles>  (38) 
[H]c1c([H])c([H])c2c(c1[H])C([H])([H])C([H])([H])C([H])([H])C2([H])N([H])C(=O)C1([H])N(C(=O)C([H])(N([H])C(=O)C([H])(N([H])C([H])([H])[H])C([H])([H])[H])C(C([H])([H])[H])(C([H])([H])[H])C([H])([H])[H])C([H])([H])c2c([H])c(OC3([H])C([H])([H])N(c4c([H])c([H])c(N(C(=O)N5C([H])([H])C([H])([H])C([H])([H])C([H])(n6nc(-c7c([H])c([H])c(Oc8c([H])c([H])c(F)c([H])c8F)c([H])c7[H])c(C(=O)N([H])[H])c6N([H])[H])C5([H])[H])C([H])([H])[H])c(F)c4[H])C([H])([H])C3([H])[H])c([H])c([H])c2C1([H])[H]

>  <smiles>  (38) 
[H]c1c([H])c([H])c2c(c1[H])C([H])([H])C([H])([H])C([H])([H])C2([H])N([H])C(=O)C1([H])N(C(=O)C([H])(N([H])C(=O)C([H])(N([H])C([H])([H])[H])C([H])([H])[H])C(C([H])([H])[H])(C([H])([H])[H])C([H])([H])[H])C([H])([H])c2c([H])c(OC3([H])C([H])([H])N(c4c([H])c([H])c(N(C(=O)N5C([H])([H])C([H])([H])C([H])([H])C([H])(n6nc(-c7c([H])c([H])c(Oc8c([H])c([H])c(F)c([H])c8F)c([H])c7[H])c(C(=O)N([H])[H])c6N([H])[H])C5([H])[H])C([H])([H])[H])c(F)c4[H])C([H])([H])C3([H])[H])c([H])c([H])c2C1([H])[H]

$$$$
38:0:0
     RDKit          3D

 94102  0  0  1  0  0  0  0  0999 V2000
  -29.8090  -21.6000   21.6600 C   0  0  0  0  0  0  0  0  0  0  0  0
  -30.2930  -21.5430   22.9000 N   0  0  0  0  0  4  0  0  0  0  0  0
  -29.4100  -22.8890   21.3530 N   0  0  0  0  0  0  0  0  0  0  0  0
  -30.4620  -22.3400   23.4920 H   0  0  0  0  0  0  0  0  0  0  0  0
  -30.5540  -20.6390   23.2640 H   0  0  0  0  0  0  0  0  0  0  0  0
  -29.5090  -23.4860   22.1590 H   0  0  0  0  0  0  0  0  0  0  0  0
  -28.6600  -19.5220   20.5960 C   0  0  0  0  0  3  0  0  0  0  0  0
  -28.6810  -18.1010   20.3920 C   0  0  0  0  0  3  0  0  0  0  0  0
  -31.0130  -19.4420   21.0480 C   0  0  0  0  0  3  0  0  0  0  0  0
  -29.8250  -20.2330   20.9820 C   0  0  0  0  0  0  0  0  0  0  0  0
  -29.8530  -17.2940   20.5450 C   0  0  0  0  0  0  0  0  0  0  0  0
  -31.0370  -18.0240   20.8500 C   0  0  0  0  0  0  0  0  0  0  0  0
  -32.2060  -17.3710   21.0490 F   0  0  0  0  0  0  0  0  0  0  0  0
  -30.5490  -14.7710   20.1640 C   0  0  0  0  0  0  0  0  0  0  0  0
  -30.3170  -12.5410   19.0640 C   0  0  0  0  0  2  0  0  0  0  0  0
  -29.3180  -12.6680   17.8920 C   0  0  0  0  0  2  0  0  0  0  0  0
  -27.8700  -12.4780   18.3830 C   0  0  0  0  0  2  0  0  0  0  0  0
  -27.5540  -13.3220   19.6460 C   0  0  0  0  0  3  0  0  0  0  0  0
  -28.6620  -13.1700   20.7150 C   0  0  0  0  0  2  0  0  0  0  0  0
  -29.9390  -13.5410   20.0860 N   0  0  0  0  0  0  0  0  0  0  0  0
  -31.7030  -14.9220   19.7530 O   0  0  0  0  0  0  0  0  0  0  0  0
  -29.7230  -15.8230   20.4970 N   0  0  0  0  0  0  0  0  0  0  0  0
  -28.7920  -15.5000   20.7030 H   0  0  0  0  0  0  0  0  0  0  0  0
  -25.1940  -13.9040   20.4740 C   0  0  0  0  0  0  0  0  0  0  0  0
  -24.1440  -13.1230   20.8740 C   0  0  0  0  0  0  0  0  0  0  0  0
  -24.6070  -11.7750   20.8040 C   0  0  0  0  0  0  0  0  0  0  0  0
  -26.2290  -13.0300   20.1810 N   0  0  0  0  0  0  0  0  0  0  0  0
  -25.8830  -11.7430   20.4420 N   0  0  0  0  0  0  0  0  0  0  0  0
  -23.8910  -10.5070   21.0020 C   0  0  0  0  0  0  0  0  0  0  0  0
  -24.3550   -9.5310   21.9090 C   0  0  0  0  0  3  0  0  0  0  0  0
  -23.6410   -8.3280   22.0960 C   0  0  0  0  0  3  0  0  0  0  0  0
  -22.4440   -8.0950   21.3760 C   0  0  0  0  0  0  0  0  0  0  0  0
  -21.9980   -9.0620   20.4570 C   0  0  0  0  0  3  0  0  0  0  0  0
  -22.7160  -10.2550   20.2690 C   0  0  0  0  0  3  0  0  0  0  0  0
  -21.6970   -6.9470   21.4740 O   0  0  0  0  0  0  0  0  0  0  0  0
  -21.6850   -6.1920   22.6200 C   0  0  0  0  0  0  0  0  0  0  0  0
  -21.2900   -6.7300   23.8640 C   0  0  0  0  0  3  0  0  0  0  0  0
  -21.2270   -5.9010   25.0010 C   0  0  0  0  0  3  0  0  0  0  0  0
  -21.5480   -4.5350   24.8940 C   0  0  0  0  0  0  0  0  0  0  0  0
  -21.9350   -3.9960   23.6550 C   0  0  0  0  0  3  0  0  0  0  0  0
  -22.0010   -4.8220   22.5200 C   0  0  0  0  0  0  0  0  0  0  0  0
  -22.3550   -4.2940   21.3240 F   0  0  0  0  0  0  0  0  0  0  0  0
  -21.4790   -3.7350   25.9850 F   0  0  0  0  0  0  0  0  0  0  0  0
  -22.7580  -13.5950   21.2070 C   0  0  0  0  0  0  0  0  0  0  0  0
  -22.0630  -12.8800   22.0840 N   0  0  0  0  0  0  0  0  0  0  0  0
  -22.3020  -14.6320   20.7250 O   0  0  0  0  0  0  0  0  0  0  0  0
  -22.4460  -12.0410   22.4920 H   0  0  0  0  0  0  0  0  0  0  0  0
  -21.1340  -13.1770   22.3500 H   0  0  0  0  0  0  0  0  0  0  0  0
  -25.3480  -15.2770   20.3080 N   0  0  0  0  0  0  0  0  0  0  0  0
  -24.5760  -15.9190   20.4440 H   0  0  0  0  0  0  0  0  0  0  0  0
  -26.1460  -15.7120   19.8660 H   0  0  0  0  0  0  0  0  0  0  0  0
  -28.9520  -23.8010   20.2280 C   0  0  0  0  0  2  0  0  0  0  0  0
  -28.1350  -25.1010   20.7340 C   0  0  0  0  0  2  0  0  0  0  0  0
  -28.3590  -26.4920   20.2300 O   0  0  0  0  0  0  0  0  0  0  0  0
  -24.5930  -31.9110   23.2370 C   0  0  0  0  0  0  0  0  0  0  0  0
  -27.2480  -27.3570   20.2030 C   0  0  0  0  0  0  0  0  0  0  0  0
  -23.4060  -30.5070   21.5910 C   0  0  0  0  0  3  0  0  0  0  0  0
  -24.8760  -28.9650   20.1730 C   0  0  0  0  0  0  0  0  0  0  0  0
  -25.9460  -30.8380   21.4210 C   0  0  0  0  0  2  0  0  0  0  0  0
  -26.0390  -29.4590   20.7760 C   0  0  0  0  0  0  0  0  0  0  0  0
  -27.2310  -28.6690   20.7780 C   0  0  0  0  0  3  0  0  0  0  0  0
  -26.0660  -26.9250   19.5630 C   0  0  0  0  0  3  0  0  0  0  0  0
  -24.8920  -27.7040   19.5560 C   0  0  0  0  0  3  0  0  0  0  0  0
  -23.6330  -29.8320   20.2120 C   0  0  0  0  0  2  0  0  0  0  0  0
  -24.6670  -31.1040   22.1390 N   0  0  0  0  0  0  0  0  0  0  0  0
  -23.5060  -32.1830   23.7670 O   0  0  0  0  0  0  0  0  0  0  0  0
  -22.7440  -29.4870   22.5480 C   0  0  0  0  0  0  0  0  0  0  0  0
  -21.4190  -29.3010   22.4130 N   0  0  0  0  0  0  0  0  0  0  0  0
  -23.4210  -28.8660   23.3720 O   0  0  0  0  0  0  0  0  0  0  0  0
  -20.9300  -29.8520   21.7210 H   0  0  0  0  0  0  0  0  0  0  0  0
  -18.0460  -28.0850   22.8940 C   0  0  0  0  0  0  0  0  0  0  0  0
  -20.6010  -28.3590   23.1810 C   0  0  0  0  0  3  0  0  0  0  0  0
  -20.7160  -26.9280   22.6070 C   0  0  0  0  0  2  0  0  0  0  0  0
  -19.6230  -26.5980   21.5860 C   0  0  0  0  0  2  0  0  0  0  0  0
  -18.2360  -26.7360   22.2200 C   0  0  0  0  0  2  0  0  0  0  0  0
  -19.1580  -28.8540   23.3300 C   0  0  0  0  0  0  0  0  0  0  0  0
  -18.9260  -30.1160   23.9180 C   0  0  0  0  0  3  0  0  0  0  0  0
  -17.6180  -30.6090   24.0770 C   0  0  0  0  0  3  0  0  0  0  0  0
  -16.5210  -29.8370   23.6560 C   0  0  0  0  0  3  0  0  0  0  0  0
  -16.7360  -28.5770   23.0700 C   0  0  0  0  0  3  0  0  0  0  0  0
  -25.8680  -32.5520   23.8660 C   0  0  0  0  0  3  0  0  0  0  0  0
  -26.3750  -31.7910   25.1530 C   0  0  1  0  0  0  0  0  0  0  0  0
  -25.2730  -31.5600   26.2130 C   0  0  0  0  0  1  0  0  0  0  0  0
  -26.9650  -30.4110   24.7790 C   0  0  0  0  0  1  0  0  0  0  0  0
  -27.5170  -32.5940   25.8210 C   0  0  0  0  0  1  0  0  0  0  0  0
  -25.5530  -33.9520   24.1840 N   0  0  0  0  0  0  0  0  0  0  0  0
  -25.8940  -35.0010   23.4240 C   0  0  0  0  0  0  0  0  0  0  0  0
  -26.5760  -34.8930   22.4010 O   0  0  0  0  0  0  0  0  0  0  0  0
  -24.9530  -34.1110   24.9800 H   0  0  0  0  0  0  0  0  0  0  0  0
  -24.1720  -36.7930   23.0390 C   0  0  0  0  0  1  0  0  0  0  0  0
  -25.4010  -36.3920   23.8690 C   0  0  0  0  0  3  0  0  0  0  0  0
  -27.5230  -37.2810   24.7280 C   0  0  0  0  0  1  0  0  0  0  0  0
  -26.4360  -37.4440   23.7660 N   0  0  0  0  0  0  0  0  0  0  0  0
  -26.0280  -38.3650   23.9030 H   0  0  0  0  0  0  0  0  0  0  0  0
  1  2  2  0
  2  5  1  0
  2  4  1  0
  3  1  1  0
  3  6  1  0
  7 10  1  0
  8 11  1  0
  8  7  2  0
 10  9  2  0
 10  1  1  0
 11 12  2  0
 12  9  1  0
 12 13  1  0
 14 22  1  0
 15 20  1  0
 16 17  1  0
 16 15  1  0
 18 17  1  0
 18 27  1  0
 18 19  1  0
 20 14  1  0
 20 19  1  0
 21 14  2  0
 22 11  1  0
 22 23  1  0
 24 25  2  0
 25 44  1  0
 26 25  1  0
 26 29  1  0
 27 28  1  0
 27 24  1  0
 28 26  2  0
 29 30  1  0
 30 31  2  0
 32 35  1  0
 32 31  1  0
 33 32  2  0
 34 33  1  0
 34 29  2  0
 35 36  1  0
 36 37  1  0
 37 38  2  0
 39 38  1  0
 39 43  1  0
 40 39  2  0
 41 36  2  0
 41 40  1  0
 42 41  1  0
 44 45  1  0
 45 48  1  0
 45 47  1  0
 46 44  2  0
 49 50  1  0
 49 24  1  0
 51 49  1  0
 52 53  1  0
 52  3  1  0
 54 53  1  0
 55 66  2  0
 56 54  1  0
 56 61  1  0
 57 65  1  0
 57 67  1  0
 58 64  1  0
 58 60  1  0
 59 65  1  0
 60 61  2  0
 60 59  1  0
 62 56  2  0
 63 62  1  0
 63 58  2  0
 64 57  1  0
 65 55  1  0
 67 69  2  0
 68 67  1  0
 70 68  1  0
 71 80  2  0
 71 76  1  0
 72 68  1  0
 72 76  1  0
 73 72  1  0
 74 75  1  0
 74 73  1  0
 75 71  1  0
 76 77  2  0
 77 78  1  0
 79 78  2  0
 80 79  1  0
 81 55  1  0
 81 86  1  0
 81 82  1  0
 82 85  1  1
 82 83  1  0
 84 82  1  0
 86 89  1  0
 87 91  1  0
 87 86  1  0
 88 87  2  0
 91 90  1  0
 93 91  1  0
 93 94  1  0
 93 92  1  0
M  ISO  4  14 100  22 100  53 101  54 101
M  END
>  <TORSDO>  (39) 
F 19

>  <SCORE>  (39) 
-14.647

>  <name>  (39) 
38

>  <ligand_id>  (39) 
38

>  <original_smiles>  (39) 
[H]c1c([H])c([H])c2c(c1[H])C([H])([H])C([H])([H])C([H])([H])C2([H])N([H])C(=O)C1([H])N(C(=O)C([H])(N([H])C(=O)C([H])(N([H])C([H])([H])[H])C([H])([H])[H])C(C([H])([H])[H])(C([H])([H])[H])C([H])([H])[H])C([H])([H])c2c([H])c(OC([H])([H])C([H])([H])[N+]([H])=C(c3c([H])c([H])c(N([H])C(=O)N4C([H])([H])C([H])([H])C([H])([H])C([H])(n5nc(-c6c([H])c([H])c(Oc7c([H])c([H])c(F)c([H])c7F)c([H])c6[H])c(C(=O)N([H])[H])c5N([H])[H])C4([H])[H])c(F)c3[H])N([H])[H])c([H])c([H])c2C1([H])[H]

>  <smiles>  (39) 
[H]c1c([H])c([H])c2c(c1[H])C([H])([H])C([H])([H])C([H])([H])C2([H])N([H])C(=O)C1([H])N(C(=O)C([H])(N([H])C(=O)C([H])(N([H])C([H])([H])[H])C([H])([H])[H])C(C([H])([H])[H])(C([H])([H])[H])C([H])([H])[H])C([H])([H])c2c([H])c(OC([H])([H])C([H])([H])[N+]([H])=C(c3c([H])c([H])c(N([H])C(=O)N4C([H])([H])C([H])([H])C([H])([H])C([H])(n5nc(-c6c([H])c([H])c(Oc7c([H])c([H])c(F)c([H])c7F)c([H])c6[H])c(C(=O)N([H])[H])c5N([H])[H])C4([H])[H])c(F)c3[H])N([H])[H])c([H])c([H])c2C1([H])[H]

$$$$
39:0:0
     RDKit          3D

 92101  0  0  1  0  0  0  0  0999 V2000
  -29.1390  -24.1020   19.0900 C   0  0  0  0  0  2  0  0  0  0  0  0
  -28.5400  -23.8440   21.3690 C   0  0  0  0  0  2  0  0  0  0  0  0
  -29.0500  -22.5200   18.8980 C   0  0  0  0  0  2  0  0  0  0  0  0
  -28.4840  -22.2180   21.2120 C   0  0  0  0  0  2  0  0  0  0  0  0
  -28.1780  -24.7730   20.1210 C   0  0  0  0  0  3  0  0  0  0  0  0
  -29.2340  -21.5960   20.0740 N   0  0  0  0  0  0  0  0  0  0  0  0
  -29.7350  -19.7780   18.4690 C   0  0  0  0  0  3  0  0  0  0  0  0
  -30.0500  -18.4820   18.0290 C   0  0  0  0  0  3  0  0  0  0  0  0
  -29.5280  -18.9320   20.7130 C   0  0  0  0  0  3  0  0  0  0  0  0
  -29.4770  -20.1310   19.8220 C   0  0  0  0  0  0  0  0  0  0  0  0
  -29.8680  -17.5360   20.2820 C   0  0  0  0  0  0  0  0  0  0  0  0
  -30.1140  -17.3900   18.8980 C   0  0  0  0  0  0  0  0  0  0  0  0
  -30.3520  -16.1730   18.3520 F   0  0  0  0  0  0  0  0  0  0  0  0
  -30.6440  -15.0560   20.9240 C   0  0  0  0  0  0  0  0  0  0  0  0
  -30.6200  -12.6800   20.0850 C   0  0  0  0  0  2  0  0  0  0  0  0
  -29.8110  -12.6170   18.7690 C   0  0  0  0  0  2  0  0  0  0  0  0
  -28.3090  -12.4220   19.0590 C   0  0  0  0  0  2  0  0  0  0  0  0
  -27.7930  -13.3640   20.1780 C   0  0  0  0  0  3  0  0  0  0  0  0
  -28.7380  -13.4010   21.3990 C   0  0  0  0  0  2  0  0  0  0  0  0
  -30.0660  -13.7910   20.9100 N   0  0  0  0  0  0  0  0  0  0  0  0
  -31.8560  -15.1360   20.6950 O   0  0  0  0  0  0  0  0  0  0  0  0
  -29.8590  -16.2280   21.0650 N   0  0  0  0  0  0  0  0  0  0  0  0
  -28.9910  -16.0610   21.5490 H   0  0  0  0  0  0  0  0  0  0  0  0
  -25.3470  -13.9230   20.6810 C   0  0  0  0  0  0  0  0  0  0  0  0
  -24.2600  -13.1440   20.9720 C   0  0  0  0  0  0  0  0  0  0  0  0
  -24.7400  -11.7970   21.0110 C   0  0  0  0  0  0  0  0  0  0  0  0
  -26.4170  -13.0560   20.5540 N   0  0  0  0  0  0  0  0  0  0  0  0
  -26.0550  -11.7730   20.8190 N   0  0  0  0  0  0  0  0  0  0  0  0
  -24.0130  -10.5290   21.1640 C   0  0  0  0  0  0  0  0  0  0  0  0
  -24.3930   -9.5720   22.1310 C   0  0  0  0  0  3  0  0  0  0  0  0
  -23.6660   -8.3700   22.2740 C   0  0  0  0  0  3  0  0  0  0  0  0
  -22.5450   -8.1170   21.4490 C   0  0  0  0  0  0  0  0  0  0  0  0
  -22.1810   -9.0650   20.4760 C   0  0  0  0  0  3  0  0  0  0  0  0
  -22.9100  -10.2580   20.3310 C   0  0  0  0  0  3  0  0  0  0  0  0
  -21.7950   -6.9650   21.4960 O   0  0  0  0  0  0  0  0  0  0  0  0
  -21.7010   -6.2160   22.6410 C   0  0  0  0  0  0  0  0  0  0  0  0
  -21.2130   -6.7580   23.8510 C   0  0  0  0  0  3  0  0  0  0  0  0
  -21.0680   -5.9350   24.9830 C   0  0  0  0  0  3  0  0  0  0  0  0
  -21.4010   -4.5690   24.9090 C   0  0  0  0  0  0  0  0  0  0  0  0
  -21.8820   -4.0250   23.7050 C   0  0  0  0  0  3  0  0  0  0  0  0
  -22.0300   -4.8470   22.5740 C   0  0  0  0  0  0  0  0  0  0  0  0
  -22.4750   -4.3140   21.4110 F   0  0  0  0  0  0  0  0  0  0  0  0
  -21.2540   -3.7760   25.9960 F   0  0  0  0  0  0  0  0  0  0  0  0
  -22.8390  -13.6090   21.1040 C   0  0  0  0  0  0  0  0  0  0  0  0
  -22.0410  -12.9240   21.9140 N   0  0  0  0  0  0  0  0  0  0  0  0
  -22.4430  -14.6210   20.5250 O   0  0  0  0  0  0  0  0  0  0  0  0
  -22.3730  -12.1070   22.4050 H   0  0  0  0  0  0  0  0  0  0  0  0
  -21.0840  -13.2200   22.0460 H   0  0  0  0  0  0  0  0  0  0  0  0
  -25.5110  -15.2920   20.4890 N   0  0  0  0  0  0  0  0  0  0  0  0
  -24.7340  -15.9410   20.5270 H   0  0  0  0  0  0  0  0  0  0  0  0
  -26.3740  -15.7240   20.1830 H   0  0  0  0  0  0  0  0  0  0  0  0
  -28.2920  -26.3260   20.2040 O   0  0  0  0  0  0  0  0  0  0  0  0
  -24.5300  -31.9160   23.1320 C   0  0  0  0  0  0  0  0  0  0  0  0
  -27.1930  -27.2520   20.1210 C   0  0  0  0  0  0  0  0  0  0  0  0
  -23.3550  -30.4930   21.4980 C   0  0  0  0  0  3  0  0  0  0  0  0
  -24.8300  -28.9410   20.0770 C   0  0  0  0  0  0  0  0  0  0  0  0
  -25.9000  -30.8070   21.3310 C   0  0  0  0  0  2  0  0  0  0  0  0
  -25.9980  -29.4150   20.6860 C   0  0  0  0  0  0  0  0  0  0  0  0
  -27.1770  -28.5850   20.6930 C   0  0  0  0  0  3  0  0  0  0  0  0
  -26.0020  -26.8800   19.4580 C   0  0  0  0  0  3  0  0  0  0  0  0
  -24.8440  -27.6870   19.4480 C   0  0  0  0  0  3  0  0  0  0  0  0
  -23.5850  -29.8140   20.1210 C   0  0  0  0  0  2  0  0  0  0  0  0
  -24.6150  -31.0930   22.0420 N   0  0  0  0  0  0  0  0  0  0  0  0
  -23.4390  -32.1830   23.6590 O   0  0  0  0  0  0  0  0  0  0  0  0
  -22.6960  -29.4760   22.4640 C   0  0  0  0  0  0  0  0  0  0  0  0
  -21.3670  -29.3030   22.3580 N   0  0  0  0  0  0  0  0  0  0  0  0
  -23.3830  -28.8480   23.2740 O   0  0  0  0  0  0  0  0  0  0  0  0
  -20.8700  -29.8620   21.6790 H   0  0  0  0  0  0  0  0  0  0  0  0
  -17.9930  -28.1130   22.9200 C   0  0  0  0  0  0  0  0  0  0  0  0
  -20.5580  -28.3600   23.1350 C   0  0  0  0  0  3  0  0  0  0  0  0
  -20.6400  -26.9360   22.5390 C   0  0  0  0  0  2  0  0  0  0  0  0
  -19.5140  -26.6300   21.5470 C   0  0  0  0  0  2  0  0  0  0  0  0
  -18.1480  -26.7730   22.2230 C   0  0  0  0  0  2  0  0  0  0  0  0
  -19.1240  -28.8660   23.3340 C   0  0  0  0  0  0  0  0  0  0  0  0
  -18.9230  -30.1210   23.9490 C   0  0  0  0  0  3  0  0  0  0  0  0
  -17.6220  -30.6220   24.1540 C   0  0  0  0  0  3  0  0  0  0  0  0
  -16.5070  -29.8660   23.7550 C   0  0  0  0  0  3  0  0  0  0  0  0
  -16.6920  -28.6140   23.1440 C   0  0  0  0  0  3  0  0  0  0  0  0
  -25.7980  -32.5750   23.7570 C   0  0  0  0  0  3  0  0  0  0  0  0
  -25.4560  -33.9630   24.1020 N   0  0  0  0  0  0  0  0  0  0  0  0
  -25.7900  -35.0360   23.3710 C   0  0  0  0  0  0  0  0  0  0  0  0
  -26.4840  -34.9610   22.3540 O   0  0  0  0  0  0  0  0  0  0  0  0
  -24.8400  -34.0950   24.8910 H   0  0  0  0  0  0  0  0  0  0  0  0
  -24.0660  -36.8300   22.9880 C   0  0  0  0  0  1  0  0  0  0  0  0
  -25.2730  -36.4110   23.8430 C   0  0  0  0  0  3  0  0  0  0  0  0
  -27.3630  -37.2880   24.7890 C   0  0  0  0  0  1  0  0  0  0  0  0
  -26.3030  -37.4730   23.8030 N   0  0  0  0  0  0  0  0  0  0  0  0
  -25.8830  -38.3860   23.9530 H   0  0  0  0  0  0  0  0  0  0  0  0
  -26.3320  -31.8080   25.0290 C   0  0  1  0  0  0  0  0  0  0  0  0
  -25.2460  -31.5450   26.1000 C   0  0  0  0  0  1  0  0  0  0  0  0
  -26.9420  -30.4430   24.6360 C   0  0  0  0  0  1  0  0  0  0  0  0
  -27.4670  -32.6240   25.6930 C   0  0  0  0  0  1  0  0  0  0  0  0
  1  5  1  0
  3  1  1  0
  3  6  1  0
  4  2  1  0
  5 52  1  0
  5  2  1  0
  6  4  1  0
  7 10  1  0
  8  7  2  0
  8 12  1  0
 10  6  1  0
 10  9  2  0
 11  9  1  0
 11 22  1  0
 12 11  2  0
 13 12  1  0
 14 22  1  0
 15 20  1  0
 16 17  1  0
 16 15  1  0
 18 17  1  0
 18 27  1  0
 18 19  1  0
 20 14  1  0
 20 19  1  0
 21 14  2  0
 22 23  1  0
 24 25  2  0
 25 26  1  0
 25 44  1  0
 26 29  1  0
 27 24  1  0
 27 28  1  0
 28 26  2  0
 29 30  1  0
 30 31  2  0
 32 35  1  0
 32 31  1  0
 33 32  2  0
 34 33  1  0
 34 29  2  0
 35 36  1  0
 36 37  1  0
 37 38  2  0
 39 38  1  0
 39 43  1  0
 40 39  2  0
 41 36  2  0
 41 40  1  0
 42 41  1  0
 44 45  1  0
 45 48  1  0
 45 47  1  0
 46 44  2  0
 49 50  1  0
 49 24  1  0
 51 49  1  0
 53 64  2  0
 54 52  1  0
 54 59  1  0
 55 63  1  0
 55 65  1  0
 56 62  1  0
 56 58  1  0
 57 63  1  0
 58 59  2  0
 58 57  1  0
 60 54  2  0
 61 60  1  0
 61 56  2  0
 62 55  1  0
 63 53  1  0
 65 67  2  0
 66 65  1  0
 68 66  1  0
 69 78  2  0
 69 74  1  0
 70 66  1  0
 70 74  1  0
 71 70  1  0
 72 73  1  0
 72 71  1  0
 73 69  1  0
 74 75  2  0
 75 76  1  0
 77 76  2  0
 78 77  1  0
 79 53  1  0
 79 80  1  0
 79 89  1  0
 80 83  1  0
 81 85  1  0
 81 80  1  0
 82 81  2  0
 85 84  1  0
 87 85  1  0
 87 88  1  0
 87 86  1  0
 89 92  1  1
 89 90  1  0
 91 89  1  0
M  ISO  4   5 101  14 100  22 100  52 101
M  END
>  <TORSDO>  (40) 
F 17

>  <SCORE>  (40) 
-14.958

>  <name>  (40) 
39

>  <ligand_id>  (40) 
39

>  <original_smiles>  (40) 
[H]c1c([H])c([H])c2c(c1[H])C([H])([H])C([H])([H])C([H])([H])C2([H])N([H])C(=O)C1([H])N(C(=O)C([H])(N([H])C(=O)C([H])(N([H])C([H])([H])[H])C([H])([H])[H])C(C([H])([H])[H])(C([H])([H])[H])C([H])([H])[H])C([H])([H])c2c([H])c(OC3([H])C([H])([H])C([H])([H])N(c4c([H])c([H])c(F)c(N([H])C(=O)N5C([H])([H])C([H])([H])C([H])([H])C([H])(n6nc(-c7c([H])c([H])c(Oc8c([H])c([H])c(F)c([H])c8F)c([H])c7[H])c(C(=O)N([H])[H])c6N([H])[H])C5([H])[H])c4[H])C([H])([H])C3([H])[H])c([H])c([H])c2C1([H])[H]

>  <smiles>  (40) 
[H]c1c([H])c([H])c2c(c1[H])C([H])([H])C([H])([H])C([H])([H])C2([H])N([H])C(=O)C1([H])N(C(=O)C([H])(N([H])C(=O)C([H])(N([H])C([H])([H])[H])C([H])([H])[H])C(C([H])([H])[H])(C([H])([H])[H])C([H])([H])[H])C([H])([H])c2c([H])c(OC3([H])C([H])([H])C([H])([H])N(c4c([H])c([H])c(F)c(N([H])C(=O)N5C([H])([H])C([H])([H])C([H])([H])C([H])(n6nc(-c7c([H])c([H])c(Oc8c([H])c([H])c(F)c([H])c8F)c([H])c7[H])c(C(=O)N([H])[H])c6N([H])[H])C5([H])[H])c4[H])C([H])([H])C3([H])[H])c([H])c([H])c2C1([H])[H]

$$$$
40:0:0
     RDKit          3D

 93102  0  0  1  0  0  0  0  0999 V2000
  -29.3520  -24.1090   20.0450 C   0  0  0  0  0  0  0  0  0  0  0  0
  -27.2880  -24.2990   21.1330 C   0  0  0  0  0  2  0  0  0  0  0  0
  -27.7420  -22.8110   21.0530 C   0  0  0  0  0  2  0  0  0  0  0  0
  -28.0940  -25.0290   20.0480 C   0  0  0  0  0  3  0  0  0  0  0  0
  -29.0830  -22.8320   20.4670 N   0  0  0  0  0  0  0  0  0  0  0  0
  -30.4630  -24.5210   19.6960 O   0  0  0  0  0  0  0  0  0  0  0  0
  -28.3040  -26.4920   20.2440 O   0  0  0  0  0  0  0  0  0  0  0  0
  -24.6030  -31.8730   23.3050 C   0  0  0  0  0  0  0  0  0  0  0  0
  -27.1880  -27.3460   20.1860 C   0  0  0  0  0  0  0  0  0  0  0  0
  -23.3890  -30.5040   21.6490 C   0  0  0  0  0  3  0  0  0  0  0  0
  -24.8300  -28.9750   20.1900 C   0  0  0  0  0  0  0  0  0  0  0  0
  -25.9290  -30.8150   21.4610 C   0  0  0  0  0  2  0  0  0  0  0  0
  -26.0000  -29.4450   20.7990 C   0  0  0  0  0  0  0  0  0  0  0  0
  -27.1800  -28.6430   20.7890 C   0  0  0  0  0  3  0  0  0  0  0  0
  -25.9940  -26.9370   19.5420 C   0  0  0  0  0  3  0  0  0  0  0  0
  -24.8310  -27.7270   19.5490 C   0  0  0  0  0  3  0  0  0  0  0  0
  -23.5940  -29.8480   20.2580 C   0  0  0  0  0  2  0  0  0  0  0  0
  -24.6610  -31.0790   22.1960 N   0  0  0  0  0  0  0  0  0  0  0  0
  -23.5210  -32.1510   23.8420 O   0  0  0  0  0  0  0  0  0  0  0  0
  -22.7220  -29.4780   22.5940 C   0  0  0  0  0  0  0  0  0  0  0  0
  -21.3980  -29.2990   22.4570 N   0  0  0  0  0  0  0  0  0  0  0  0
  -23.3980  -28.8450   23.4100 O   0  0  0  0  0  0  0  0  0  0  0  0
  -20.9130  -29.8600   21.7710 H   0  0  0  0  0  0  0  0  0  0  0  0
  -18.0170  -28.1010   22.9200 C   0  0  0  0  0  0  0  0  0  0  0  0
  -20.5730  -28.3550   23.2120 C   0  0  0  0  0  3  0  0  0  0  0  0
  -20.6780  -26.9300   22.6220 C   0  0  0  0  0  2  0  0  0  0  0  0
  -19.5840  -26.6190   21.5970 C   0  0  0  0  0  2  0  0  0  0  0  0
  -18.1980  -26.7590   22.2330 C   0  0  0  0  0  2  0  0  0  0  0  0
  -19.1340  -28.8590   23.3650 C   0  0  0  0  0  0  0  0  0  0  0  0
  -18.9120  -30.1180   23.9660 C   0  0  0  0  0  3  0  0  0  0  0  0
  -17.6060  -30.6160   24.1310 C   0  0  0  0  0  3  0  0  0  0  0  0
  -16.5040  -29.8550   23.7030 C   0  0  0  0  0  3  0  0  0  0  0  0
  -16.7110  -28.6000   23.1030 C   0  0  0  0  0  3  0  0  0  0  0  0
  -25.8890  -32.4880   23.9340 C   0  0  0  0  0  3  0  0  0  0  0  0
  -25.5970  -33.8910   24.2620 N   0  0  0  0  0  0  0  0  0  0  0  0
  -25.9130  -34.9370   23.4870 C   0  0  0  0  0  0  0  0  0  0  0  0
  -26.5540  -34.8220   22.4380 O   0  0  0  0  0  0  0  0  0  0  0  0
  -25.0250  -34.0520   25.0780 H   0  0  0  0  0  0  0  0  0  0  0  0
  -24.1700  -36.7290   23.1860 C   0  0  0  0  0  1  0  0  0  0  0  0
  -25.4450  -36.3330   23.9470 C   0  0  0  0  0  3  0  0  0  0  0  0
  -27.6120  -37.2320   24.6740 C   0  0  0  0  0  1  0  0  0  0  0  0
  -26.4710  -37.3840   23.7760 N   0  0  0  0  0  0  0  0  0  0  0  0
  -26.0700  -38.3060   23.9230 H   0  0  0  0  0  0  0  0  0  0  0  0
  -26.3870  -31.7100   25.2130 C   0  0  1  0  0  0  0  0  0  0  0  0
  -25.2840  -31.4850   26.2750 C   0  0  0  0  0  1  0  0  0  0  0  0
  -26.9530  -30.3250   24.8240 C   0  0  0  0  0  1  0  0  0  0  0  0
  -27.5440  -32.4880   25.8820 C   0  0  0  0  0  1  0  0  0  0  0  0
  -30.1170  -21.7490   20.6900 C   0  0  0  0  0  2  0  0  0  0  0  0
  -28.7150  -19.4570   20.4830 C   0  0  0  0  0  3  0  0  0  0  0  0
  -28.6900  -18.0230   20.4780 C   0  0  0  0  0  3  0  0  0  0  0  0
  -31.0840  -17.9430   20.5980 C   0  0  0  0  0  3  0  0  0  0  0  0
  -29.9360  -20.1780   20.5710 C   0  0  0  0  0  0  0  0  0  0  0  0
  -29.8660  -17.2160   20.5390 C   0  0  0  0  0  0  0  0  0  0  0  0
  -31.1130  -19.3700   20.6150 C   0  0  0  0  0  0  0  0  0  0  0  0
  -32.3190  -19.9820   20.7000 F   0  0  0  0  0  0  0  0  0  0  0  0
  -30.5760  -14.7040   20.2410 C   0  0  0  0  0  0  0  0  0  0  0  0
  -30.3820  -12.4670   19.1590 C   0  0  0  0  0  2  0  0  0  0  0  0
  -29.4210  -12.6110   17.9570 C   0  0  0  0  0  2  0  0  0  0  0  0
  -27.9510  -12.4320   18.3980 C   0  0  0  0  0  2  0  0  0  0  0  0
  -27.6030  -13.2750   19.6530 C   0  0  0  0  0  3  0  0  0  0  0  0
  -28.6780  -13.1080   20.7520 C   0  0  0  0  0  2  0  0  0  0  0  0
  -29.9780  -13.4720   20.1620 N   0  0  0  0  0  0  0  0  0  0  0  0
  -31.7400  -14.8730   19.8600 O   0  0  0  0  0  0  0  0  0  0  0  0
  -29.7450  -15.7480   20.5800 N   0  0  0  0  0  0  0  0  0  0  0  0
  -28.8190  -15.4190   20.8070 H   0  0  0  0  0  0  0  0  0  0  0  0
  -25.2150  -13.8640   20.4060 C   0  0  0  0  0  0  0  0  0  0  0  0
  -24.1580  -13.0860   20.7980 C   0  0  0  0  0  0  0  0  0  0  0  0
  -24.6260  -11.7360   20.7580 C   0  0  0  0  0  0  0  0  0  0  0  0
  -26.2610  -12.9880   20.1560 N   0  0  0  0  0  0  0  0  0  0  0  0
  -25.9130  -11.7050   20.4270 N   0  0  0  0  0  0  0  0  0  0  0  0
  -23.9090  -10.4710   20.9610 C   0  0  0  0  0  0  0  0  0  0  0  0
  -24.3450   -9.5170   21.9070 C   0  0  0  0  0  3  0  0  0  0  0  0
  -23.6280   -8.3140   22.0960 C   0  0  0  0  0  3  0  0  0  0  0  0
  -22.4600   -8.0580   21.3390 C   0  0  0  0  0  0  0  0  0  0  0  0
  -22.0410   -9.0030   20.3870 C   0  0  0  0  0  3  0  0  0  0  0  0
  -22.7570  -10.1970   20.1970 C   0  0  0  0  0  3  0  0  0  0  0  0
  -21.7150   -6.9080   21.4350 O   0  0  0  0  0  0  0  0  0  0  0  0
  -21.6530   -6.1870   22.6010 C   0  0  0  0  0  0  0  0  0  0  0  0
  -21.1730   -6.7520   23.8040 C   0  0  0  0  0  3  0  0  0  0  0  0
  -21.0590   -5.9550   24.9600 C   0  0  0  0  0  3  0  0  0  0  0  0
  -21.4170   -4.5950   24.9160 C   0  0  0  0  0  0  0  0  0  0  0  0
  -21.8900   -4.0290   23.7190 C   0  0  0  0  0  3  0  0  0  0  0  0
  -22.0030   -4.8220   22.5640 C   0  0  0  0  0  0  0  0  0  0  0  0
  -22.4410   -4.2680   21.4080 F   0  0  0  0  0  0  0  0  0  0  0  0
  -21.3010   -3.8280   26.0250 F   0  0  0  0  0  0  0  0  0  0  0  0
  -22.7610  -13.5560   21.0900 C   0  0  0  0  0  0  0  0  0  0  0  0
  -22.0500  -12.8630   21.9720 N   0  0  0  0  0  0  0  0  0  0  0  0
  -22.3090  -14.5740   20.5680 O   0  0  0  0  0  0  0  0  0  0  0  0
  -22.4300  -12.0450   22.4260 H   0  0  0  0  0  0  0  0  0  0  0  0
  -21.1110  -13.1600   22.2010 H   0  0  0  0  0  0  0  0  0  0  0  0
  -25.3700  -15.2330   20.2180 N   0  0  0  0  0  0  0  0  0  0  0  0
  -24.5900  -15.8750   20.3000 H   0  0  0  0  0  0  0  0  0  0  0  0
  -26.1880  -15.6500   19.7920 H   0  0  0  0  0  0  0  0  0  0  0  0
  1  4  1  0
  1  5  1  0
  3  2  1  0
  4  7  1  0
  4  2  1  0
  5 48  1  0
  5  3  1  0
  6  1  2  0
  8 19  2  0
  9  7  1  0
  9 14  1  0
 10 18  1  0
 10 20  1  0
 11 17  1  0
 11 13  1  0
 12 18  1  0
 13 12  1  0
 14 13  2  0
 15 16  1  0
 15  9  2  0
 16 11  2  0
 17 10  1  0
 18  8  1  0
 20 22  2  0
 21 20  1  0
 23 21  1  0
 24 33  2  0
 24 29  1  0
 25 21  1  0
 25 29  1  0
 26 25  1  0
 27 28  1  0
 27 26  1  0
 28 24  1  0
 29 30  2  0
 30 31  1  0
 32 31  2  0
 33 32  1  0
 34  8  1  0
 34 35  1  0
 34 44  1  0
 35 38  1  0
 36 40  1  0
 36 35  1  0
 37 36  2  0
 40 39  1  0
 42 43  1  0
 42 40  1  0
 42 41  1  0
 44 47  1  1
 44 45  1  0
 46 44  1  0
 49 52  1  0
 50 49  2  0
 50 53  1  0
 51 54  1  0
 52 54  2  0
 52 48  1  0
 53 64  1  0
 53 51  2  0
 54 55  1  0
 56 64  1  0
 57 62  1  0
 58 59  1  0
 58 57  1  0
 60 59  1  0
 60 69  1  0
 60 61  1  0
 62 56  1  0
 62 61  1  0
 63 56  2  0
 64 65  1  0
 66 67  2  0
 67 86  1  0
 68 67  1  0
 68 71  1  0
 69 66  1  0
 69 70  1  0
 70 68  2  0
 71 72  1  0
 72 73  2  0
 74 77  1  0
 74 73  1  0
 75 74  2  0
 76 75  1  0
 76 71  2  0
 77 78  1  0
 78 79  1  0
 79 80  2  0
 81 80  1  0
 81 85  1  0
 82 81  2  0
 83 78  2  0
 83 82  1  0
 84 83  1  0
 86 87  1  0
 87 90  1  0
 87 89  1  0
 88 86  2  0
 91 92  1  0
 91 66  1  0
 93 91  1  0
M  ISO  4   4 101   7 101  56 100  64 100
M  END
>  <TORSDO>  (41) 
F 18

>  <SCORE>  (41) 
-14.988

>  <name>  (41) 
40

>  <ligand_id>  (41) 
40

>  <original_smiles>  (41) 
[H]c1c([H])c([H])c2c(c1[H])C([H])([H])C([H])([H])C([H])([H])C2([H])N([H])C(=O)C1([H])N(C(=O)C([H])(N([H])C(=O)C([H])(N([H])C([H])([H])[H])C([H])([H])[H])C(C([H])([H])[H])(C([H])([H])[H])C([H])([H])[H])C([H])([H])c2c([H])c(OC3([H])C(=O)N(C([H])([H])c4c([H])c([H])c(N([H])C(=O)N5C([H])([H])C([H])([H])C([H])([H])C([H])(n6nc(-c7c([H])c([H])c(Oc8c([H])c([H])c(F)c([H])c8F)c([H])c7[H])c(C(=O)N([H])[H])c6N([H])[H])C5([H])[H])c([H])c4F)C([H])([H])C3([H])[H])c([H])c([H])c2C1([H])[H]

>  <smiles>  (41) 
[H]c1c([H])c([H])c2c(c1[H])C([H])([H])C([H])([H])C([H])([H])C2([H])N([H])C(=O)C1([H])N(C(=O)C([H])(N([H])C(=O)C([H])(N([H])C([H])([H])[H])C([H])([H])[H])C(C([H])([H])[H])(C([H])([H])[H])C([H])([H])[H])C([H])([H])c2c([H])c(OC3([H])C(=O)N(C([H])([H])c4c([H])c([H])c(N([H])C(=O)N5C([H])([H])C([H])([H])C([H])([H])C([H])(n6nc(-c7c([H])c([H])c(Oc8c([H])c([H])c(F)c([H])c8F)c([H])c7[H])c(C(=O)N([H])[H])c6N([H])[H])C5([H])[H])c([H])c4F)C([H])([H])C3([H])[H])c([H])c([H])c2C1([H])[H]

$$$$
41:0:0
     RDKit          3D

 88 96  0  0  1  0  0  0  0  0999 V2000
  -28.3880  -21.1110   19.1100 C   0  0  0  0  0  3  0  0  0  0  0  0
  -29.6200  -19.8450   21.1290 C   0  0  0  0  0  3  0  0  0  0  0  0
  -28.6010  -22.1980   20.1070 C   0  0  0  0  0  0  0  0  0  0  0  0
  -28.7210  -19.6180   19.1000 C   0  0  0  0  0  0  0  0  0  0  0  0
  -29.2750  -21.3490   21.1390 C   0  0  0  0  0  0  0  0  0  0  0  0
  -29.3960  -18.7650   20.1160 C   0  0  0  0  0  0  0  0  0  0  0  0
  -28.2530  -18.8630   17.8690 C   0  0  0  0  0  1  0  0  0  0  0  0
  -29.6220  -22.0910   22.4160 C   0  0  0  0  0  1  0  0  0  0  0  0
  -30.3250  -15.7390   20.0820 C   0  0  0  0  0  0  0  0  0  0  0  0
  -30.4340  -13.2030   19.2530 C   0  0  0  0  0  2  0  0  0  0  0  0
  -29.5010  -12.8070   18.0730 C   0  0  0  0  0  2  0  0  0  0  0  0
  -28.0930  -12.4480   18.5740 C   0  0  0  0  0  2  0  0  0  0  0  0
  -27.6150  -13.4350   19.6630 C   0  0  0  0  0  3  0  0  0  0  0  0
  -28.6840  -13.7360   20.7390 C   0  0  0  0  0  2  0  0  0  0  0  0
  -29.8300  -14.3650   20.0420 N   0  0  0  0  0  0  0  0  0  0  0  0
  -31.5510  -15.7190   19.8620 O   0  0  0  0  0  0  0  0  0  0  0  0
  -29.4910  -17.0460   20.1780 N   0  0  0  0  0  0  0  0  0  0  0  0
  -28.5460  -16.7010   20.2550 H   0  0  0  0  0  0  0  0  0  0  0  0
  -25.2830  -13.9360   20.5400 C   0  0  0  0  0  0  0  0  0  0  0  0
  -24.2440  -13.1400   20.9300 C   0  0  0  0  0  0  0  0  0  0  0  0
  -24.7180  -11.7940   20.8380 C   0  0  0  0  0  0  0  0  0  0  0  0
  -26.3210  -13.0770   20.2260 N   0  0  0  0  0  0  0  0  0  0  0  0
  -25.9970  -11.7800   20.4720 N   0  0  0  0  0  0  0  0  0  0  0  0
  -24.0040  -10.5230   21.0180 C   0  0  0  0  0  0  0  0  0  0  0  0
  -24.4420   -9.5520   21.9450 C   0  0  0  0  0  3  0  0  0  0  0  0
  -23.7220   -8.3500   22.1170 C   0  0  0  0  0  3  0  0  0  0  0  0
  -22.5500   -8.1090   21.3620 C   0  0  0  0  0  0  0  0  0  0  0  0
  -22.1300   -9.0700   20.4250 C   0  0  0  0  0  3  0  0  0  0  0  0
  -22.8500  -10.2640   20.2510 C   0  0  0  0  0  3  0  0  0  0  0  0
  -21.8020   -6.9590   21.4430 O   0  0  0  0  0  0  0  0  0  0  0  0
  -21.7140   -6.2380   22.6070 C   0  0  0  0  0  0  0  0  0  0  0  0
  -21.1720   -6.7920   23.7880 C   0  0  0  0  0  3  0  0  0  0  0  0
  -21.0350   -5.9950   24.9410 C   0  0  0  0  0  3  0  0  0  0  0  0
  -21.4320   -4.6440   24.9150 C   0  0  0  0  0  0  0  0  0  0  0  0
  -21.9670   -4.0890   23.7390 C   0  0  0  0  0  3  0  0  0  0  0  0
  -22.1040   -4.8840   22.5880 C   0  0  0  0  0  0  0  0  0  0  0  0
  -22.6010   -4.3380   21.4510 F   0  0  0  0  0  0  0  0  0  0  0  0
  -21.2940   -3.8760   26.0220 F   0  0  0  0  0  0  0  0  0  0  0  0
  -22.8560  -13.6020   21.2630 C   0  0  0  0  0  0  0  0  0  0  0  0
  -22.1670  -12.8850   22.1440 N   0  0  0  0  0  0  0  0  0  0  0  0
  -22.3930  -14.6350   20.7790 O   0  0  0  0  0  0  0  0  0  0  0  0
  -22.5560  -12.0510   22.5570 H   0  0  0  0  0  0  0  0  0  0  0  0
  -21.2370  -13.1770   22.4110 H   0  0  0  0  0  0  0  0  0  0  0  0
  -25.4260  -15.3130   20.3950 N   0  0  0  0  0  0  0  0  0  0  0  0
  -24.6500  -15.9480   20.5480 H   0  0  0  0  0  0  0  0  0  0  0  0
  -26.2350  -15.7670   19.9960 H   0  0  0  0  0  0  0  0  0  0  0  0
  -27.8310  -23.9050   20.0910 C   0  0  0  0  0  2  0  0  0  0  0  0
  -28.1420  -25.6190   20.2540 O   0  0  0  0  0  0  0  0  0  0  0  0
  -24.6640  -31.8850   23.2460 C   0  0  0  0  0  0  0  0  0  0  0  0
  -27.1800  -26.8370   20.2120 C   0  0  0  0  0  0  0  0  0  0  0  0
  -23.4670  -30.4980   21.6080 C   0  0  0  0  0  3  0  0  0  0  0  0
  -24.9080  -28.8610   20.1790 C   0  0  0  0  0  0  0  0  0  0  0  0
  -26.0460  -30.6440   21.4730 C   0  0  0  0  0  2  0  0  0  0  0  0
  -26.1070  -29.2160   20.8080 C   0  0  0  0  0  0  0  0  0  0  0  0
  -27.2280  -28.2330   20.7930 C   0  0  0  0  0  3  0  0  0  0  0  0
  -25.9450  -26.6900   19.5290 C   0  0  0  0  0  3  0  0  0  0  0  0
  -24.8650  -27.6230   19.5150 C   0  0  0  0  0  3  0  0  0  0  0  0
  -23.7000  -29.8090   20.2320 C   0  0  0  0  0  2  0  0  0  0  0  0
  -24.7500  -31.0420   22.1620 N   0  0  0  0  0  0  0  0  0  0  0  0
  -23.5740  -32.1830   23.7630 O   0  0  0  0  0  0  0  0  0  0  0  0
  -22.7570  -29.5140   22.5770 C   0  0  0  0  0  0  0  0  0  0  0  0
  -21.4270  -29.3450   22.4450 N   0  0  0  0  0  0  0  0  0  0  0  0
  -23.4130  -28.9010   23.4210 O   0  0  0  0  0  0  0  0  0  0  0  0
  -20.9450  -29.8910   21.7430 H   0  0  0  0  0  0  0  0  0  0  0  0
  -18.0490  -28.0980   22.9410 C   0  0  0  0  0  0  0  0  0  0  0  0
  -20.6040  -28.4030   23.2160 C   0  0  0  0  0  3  0  0  0  0  0  0
  -20.7260  -26.9680   22.6500 C   0  0  0  0  0  2  0  0  0  0  0  0
  -19.6360  -26.6270   21.6300 C   0  0  0  0  0  2  0  0  0  0  0  0
  -18.2480  -26.7520   22.2660 C   0  0  0  0  0  2  0  0  0  0  0  0
  -19.1530  -28.8810   23.3720 C   0  0  0  0  0  0  0  0  0  0  0  0
  -18.9100  -30.1370   23.9690 C   0  0  0  0  0  3  0  0  0  0  0  0
  -17.5950  -30.6130   24.1350 C   0  0  0  0  0  3  0  0  0  0  0  0
  -16.5060  -29.8300   23.7160 C   0  0  0  0  0  3  0  0  0  0  0  0
  -16.7330  -28.5740   23.1250 C   0  0  0  0  0  3  0  0  0  0  0  0
  -25.9310  -32.5330   23.8830 C   0  0  0  0  0  3  0  0  0  0  0  0
  -25.6130  -33.9370   24.2140 N   0  0  0  0  0  0  0  0  0  0  0  0
  -25.9200  -34.9970   23.4530 C   0  0  0  0  0  0  0  0  0  0  0  0
  -26.5550  -34.8960   22.4010 O   0  0  0  0  0  0  0  0  0  0  0  0
  -25.0420  -34.0860   25.0320 H   0  0  0  0  0  0  0  0  0  0  0  0
  -24.1700  -36.7910   23.1850 C   0  0  0  0  0  1  0  0  0  0  0  0
  -25.4520  -36.3880   23.9320 C   0  0  0  0  0  3  0  0  0  0  0  0
  -27.6120  -37.3000   24.6650 C   0  0  0  0  0  1  0  0  0  0  0  0
  -26.4730  -37.4460   23.7640 N   0  0  0  0  0  0  0  0  0  0  0  0
  -26.0670  -38.3660   23.9120 H   0  0  0  0  0  0  0  0  0  0  0  0
  -26.4230  -31.7780   25.1810 C   0  0  1  0  0  0  0  0  0  0  0  0
  -25.3150  -31.5650   26.2390 C   0  0  0  0  0  1  0  0  0  0  0  0
  -27.0000  -30.3880   24.8280 C   0  0  0  0  0  1  0  0  0  0  0  0
  -27.5720  -32.5730   25.8450 C   0  0  0  0  0  1  0  0  0  0  0  0
  1  3  1  0
  2  5  1  0
  3  5  2  0
  4  1  2  0
  4  6  1  0
  5  8  1  0
  6 17  1  0
  6  2  2  0
  7  4  1  0
  9 17  1  0
 10 15  1  0
 11 12  1  0
 11 10  1  0
 13 12  1  0
 13 22  1  0
 13 14  1  0
 15  9  1  0
 15 14  1  0
 16  9  2  0
 17 18  1  0
 19 20  2  0
 20 39  1  0
 21 20  1  0
 21 24  1  0
 22 23  1  0
 22 19  1  0
 23 21  2  0
 24 25  1  0
 25 26  2  0
 27 30  1  0
 27 26  1  0
 28 27  2  0
 29 28  1  0
 29 24  2  0
 30 31  1  0
 31 32  1  0
 32 33  2  0
 34 33  1  0
 34 38  1  0
 35 34  2  0
 36 31  2  0
 36 35  1  0
 37 36  1  0
 39 40  1  0
 40 43  1  0
 40 42  1  0
 41 39  2  0
 44 19  1  0
 44 45  1  0
 46 44  1  0
 47  3  1  0
 47 48  1  0
 49 60  2  0
 50 48  1  0
 50 55  1  0
 51 59  1  0
 51 61  1  0
 52 58  1  0
 52 54  1  0
 53 59  1  0
 54 53  1  0
 55 54  2  0
 56 50  2  0
 57 56  1  0
 57 52  2  0
 58 51  1  0
 59 49  1  0
 61 63  2  0
 62 61  1  0
 64 62  1  0
 65 74  2  0
 65 70  1  0
 66 62  1  0
 66 70  1  0
 67 66  1  0
 68 69  1  0
 68 67  1  0
 69 65  1  0
 70 71  2  0
 71 72  1  0
 73 72  2  0
 74 73  1  0
 75 49  1  0
 75 76  1  0
 75 85  1  0
 76 79  1  0
 77 81  1  0
 77 76  1  0
 78 77  2  0
 81 80  1  0
 83 84  1  0
 83 81  1  0
 83 82  1  0
 85 88  1  1
 85 86  1  0
 87 85  1  0
M  ISO  4   9 100  17 100  47 101  48 101
M  END
>  <TORSDO>  (42) 
F 17

>  <SCORE>  (42) 
-16.876

>  <name>  (42) 
41

>  <ligand_id>  (42) 
41

>  <original_smiles>  (42) 
[H]c1c([H])c([H])c2c(c1[H])C([H])([H])C([H])([H])C([H])([H])C2([H])N([H])C(=O)C1([H])N(C(=O)C([H])(N([H])C(=O)C([H])(N([H])C([H])([H])[H])C([H])([H])[H])C(C([H])([H])[H])(C([H])([H])[H])C([H])([H])[H])C([H])([H])c2c([H])c(OC([H])([H])c3c([H])c(C([H])([H])[H])c(N([H])C(=O)N4C([H])([H])C([H])([H])C([H])([H])C([H])(n5nc(-c6c([H])c([H])c(Oc7c([H])c([H])c(F)c([H])c7F)c([H])c6[H])c(C(=O)N([H])[H])c5N([H])[H])C4([H])[H])c([H])c3C([H])([H])[H])c([H])c([H])c2C1([H])[H]

>  <smiles>  (42) 
[H]c1c([H])c([H])c2c(c1[H])C([H])([H])C([H])([H])C([H])([H])C2([H])N([H])C(=O)C1([H])N(C(=O)C([H])(N([H])C(=O)C([H])(N([H])C([H])([H])[H])C([H])([H])[H])C(C([H])([H])[H])(C([H])([H])[H])C([H])([H])[H])C([H])([H])c2c([H])c(OC([H])([H])c3c([H])c(C([H])([H])[H])c(N([H])C(=O)N4C([H])([H])C([H])([H])C([H])([H])C([H])(n5nc(-c6c([H])c([H])c(Oc7c([H])c([H])c(F)c([H])c7F)c([H])c6[H])c(C(=O)N([H])[H])c5N([H])[H])C4([H])[H])c([H])c3C([H])([H])[H])c([H])c([H])c2C1([H])[H]

$$$$
42:0:0
     RDKit          3D

 91 99  0  0  1  0  0  0  0  0999 V2000
  -27.5910  -20.8450   20.0510 C   0  0  0  0  0  3  0  0  0  0  0  0
  -26.4930  -20.0680   19.6600 C   0  0  0  0  0  3  0  0  0  0  0  0
  -27.9550  -18.1580   19.4590 C   0  0  0  0  0  3  0  0  0  0  0  0
  -29.1400  -18.8580   19.8310 C   0  0  0  0  0  0  0  0  0  0  0  0
  -28.9240  -20.3580   20.1830 C   0  0  0  0  0  0  0  0  0  0  0  0
  -26.6780  -18.7210   19.3790 C   0  0  0  0  0  0  0  0  0  0  0  0
  -25.6120  -17.9540   19.0380 F   0  0  0  0  0  0  0  0  0  0  0  0
  -31.0080  -21.0410   21.2290 C   0  0  0  0  0  1  0  0  0  0  0  0
  -29.7250  -21.5070   20.7090 N   0  0  0  0  0  0  0  0  0  0  0  0
  -29.6420  -23.0830   20.3930 C   0  0  0  0  0  3  0  0  0  0  0  0
  -28.8600  -24.3760   21.2160 C   0  0  0  0  0  3  0  0  0  0  0  0
  -29.0160  -25.9460   21.0410 O   0  0  0  0  0  0  0  0  0  0  0  0
  -24.9240  -31.6610   23.4520 C   0  0  0  0  0  0  0  0  0  0  0  0
  -27.9310  -26.9010   20.8950 C   0  0  0  0  0  0  0  0  0  0  0  0
  -23.9470  -30.1850   21.7370 C   0  0  0  0  0  3  0  0  0  0  0  0
  -25.5810  -28.6000   20.5340 C   0  0  0  0  0  0  0  0  0  0  0  0
  -26.4990  -30.5160   21.8370 C   0  0  0  0  0  2  0  0  0  0  0  0
  -26.6790  -29.1000   21.2480 C   0  0  0  0  0  0  0  0  0  0  0  0
  -27.8590  -28.2720   21.3960 C   0  0  0  0  0  3  0  0  0  0  0  0
  -26.8060  -26.5050   20.1460 C   0  0  0  0  0  3  0  0  0  0  0  0
  -25.6620  -27.3180   19.9650 C   0  0  0  0  0  3  0  0  0  0  0  0
  -24.3360  -29.4710   20.4140 C   0  0  0  0  0  2  0  0  0  0  0  0
  -25.1380  -30.8160   22.3960 N   0  0  0  0  0  0  0  0  0  0  0  0
  -23.7800  -31.9220   23.8540 O   0  0  0  0  0  0  0  0  0  0  0  0
  -23.1920  -29.1910   22.6550 C   0  0  0  0  0  0  0  0  0  0  0  0
  -21.8880  -28.9800   22.3990 N   0  0  0  0  0  0  0  0  0  0  0  0
  -23.7860  -28.6070   23.5640 O   0  0  0  0  0  0  0  0  0  0  0  0
  -21.4600  -29.5000   21.6460 H   0  0  0  0  0  0  0  0  0  0  0  0
  -18.4850  -27.7520   22.6410 C   0  0  0  0  0  0  0  0  0  0  0  0
  -21.0150  -28.0420   23.1090 C   0  0  0  0  0  3  0  0  0  0  0  0
  -21.1740  -26.6040   22.5580 C   0  0  0  0  0  2  0  0  0  0  0  0
  -20.1610  -26.2620   21.4620 C   0  0  0  0  0  2  0  0  0  0  0  0
  -18.7290  -26.4020   21.9880 C   0  0  0  0  0  2  0  0  0  0  0  0
  -19.5610  -28.5270   23.1520 C   0  0  0  0  0  0  0  0  0  0  0  0
  -19.2830  -29.7900   23.7190 C   0  0  0  0  0  3  0  0  0  0  0  0
  -17.9650  -30.2800   23.7800 C   0  0  0  0  0  3  0  0  0  0  0  0
  -16.9030  -29.5040   23.2810 C   0  0  0  0  0  3  0  0  0  0  0  0
  -17.1640  -28.2410   22.7190 C   0  0  0  0  0  3  0  0  0  0  0  0
  -26.1070  -32.3540   24.1960 C   0  0  0  0  0  3  0  0  0  0  0  0
  -26.4480  -31.6820   25.5850 C   0  0  1  0  0  0  0  0  0  0  0  0
  -25.2180  -31.4940   26.5020 C   0  0  0  0  0  1  0  0  0  0  0  0
  -27.0990  -30.2970   25.3800 C   0  0  0  0  0  1  0  0  0  0  0  0
  -27.4800  -32.5490   26.3440 C   0  0  0  0  0  1  0  0  0  0  0  0
  -25.7500  -33.7690   24.3890 N   0  0  0  0  0  0  0  0  0  0  0  0
  -26.1650  -34.7760   23.6080 C   0  0  0  0  0  0  0  0  0  0  0  0
  -26.9530  -34.6130   22.6730 O   0  0  0  0  0  0  0  0  0  0  0  0
  -25.0660  -33.9720   25.1020 H   0  0  0  0  0  0  0  0  0  0  0  0
  -24.4750  -36.5190   22.9510 C   0  0  0  0  0  1  0  0  0  0  0  0
  -25.6270  -36.1890   23.9140 C   0  0  0  0  0  3  0  0  0  0  0  0
  -27.6550  -37.1580   24.9030 C   0  0  0  0  0  1  0  0  0  0  0  0
  -26.6600  -37.2460   23.8380 N   0  0  0  0  0  0  0  0  0  0  0  0
  -26.2310  -38.1670   23.8750 H   0  0  0  0  0  0  0  0  0  0  0  0
  -30.3820  -17.7290   19.7770 C   0  0  0  0  0  2  0  0  0  0  0  0
  -30.9410  -14.9180   19.7590 C   0  0  0  0  0  0  0  0  0  0  0  0
  -30.7710  -12.4970   18.9430 C   0  0  0  0  0  2  0  0  0  0  0  0
  -29.7710  -12.3720   17.7680 C   0  0  0  0  0  2  0  0  0  0  0  0
  -28.3370  -12.1930   18.2980 C   0  0  0  0  0  2  0  0  0  0  0  0
  -28.0010  -13.1970   19.4280 C   0  0  0  0  0  3  0  0  0  0  0  0
  -29.1140  -13.2660   20.4970 C   0  0  0  0  0  2  0  0  0  0  0  0
  -30.3450  -13.6520   19.7990 N   0  0  0  0  0  0  0  0  0  0  0  0
  -32.1270  -14.9470   19.4050 O   0  0  0  0  0  0  0  0  0  0  0  0
  -30.1710  -16.1250   19.9230 N   0  0  0  0  0  0  0  0  0  0  0  0
  -29.2180  -15.8980   20.1560 H   0  0  0  0  0  0  0  0  0  0  0  0
  -25.7190  -13.8810   20.3560 C   0  0  0  0  0  0  0  0  0  0  0  0
  -24.6380  -13.1550   20.7710 C   0  0  0  0  0  0  0  0  0  0  0  0
  -25.0140  -11.7820   20.6550 C   0  0  0  0  0  0  0  0  0  0  0  0
  -26.6860  -12.9530   20.0090 N   0  0  0  0  0  0  0  0  0  0  0  0
  -26.2770  -11.6820   20.2540 N   0  0  0  0  0  0  0  0  0  0  0  0
  -24.2250  -10.5580   20.8450 C   0  0  0  0  0  0  0  0  0  0  0  0
  -24.6020   -9.5770   21.7880 C   0  0  0  0  0  3  0  0  0  0  0  0
  -23.8190   -8.4160   21.9680 C   0  0  0  0  0  3  0  0  0  0  0  0
  -22.6410   -8.2300   21.2040 C   0  0  0  0  0  0  0  0  0  0  0  0
  -22.2810   -9.2000   20.2510 C   0  0  0  0  0  3  0  0  0  0  0  0
  -23.0650  -10.3510   20.0700 C   0  0  0  0  0  3  0  0  0  0  0  0
  -21.8320   -7.1240   21.2920 O   0  0  0  0  0  0  0  0  0  0  0  0
  -21.6490   -6.4610   22.4780 C   0  0  0  0  0  0  0  0  0  0  0  0
  -21.1340   -7.1080   23.6230 C   0  0  0  0  0  3  0  0  0  0  0  0
  -20.8970   -6.3710   24.8020 C   0  0  0  0  0  3  0  0  0  0  0  0
  -21.1620   -4.9890   24.8350 C   0  0  0  0  0  0  0  0  0  0  0  0
  -21.6710   -4.3430   23.6940 C   0  0  0  0  0  3  0  0  0  0  0  0
  -21.9110   -5.0770   22.5190 C   0  0  0  0  0  0  0  0  0  0  0  0
  -22.3790   -4.4440   21.4160 F   0  0  0  0  0  0  0  0  0  0  0  0
  -20.9270   -4.2800   25.9620 F   0  0  0  0  0  0  0  0  0  0  0  0
  -23.2930  -13.7020   21.1520 C   0  0  0  0  0  0  0  0  0  0  0  0
  -22.5930  -13.0230   22.0520 N   0  0  0  0  0  0  0  0  0  0  0  0
  -22.8820  -14.7650   20.6930 O   0  0  0  0  0  0  0  0  0  0  0  0
  -22.9400  -12.1590   22.4390 H   0  0  0  0  0  0  0  0  0  0  0  0
  -21.6960  -13.3750   22.3570 H   0  0  0  0  0  0  0  0  0  0  0  0
  -25.9540  -15.2440   20.2130 N   0  0  0  0  0  0  0  0  0  0  0  0
  -25.2520  -15.9360   20.4490 H   0  0  0  0  0  0  0  0  0  0  0  0
  -26.7610  -15.6470   19.7570 H   0  0  0  0  0  0  0  0  0  0  0  0
  1  5  1  0
  2  1  2  0
  3  4  1  0
  4  5  2  0
  5  9  1  0
  6  3  2  0
  6  2  1  0
  7  6  1  0
  9  8  1  0
 10  9  1  0
 10 11  2  0
 12 11  1  0
 13 24  2  0
 14 12  1  0
 14 19  1  0
 15 23  1  0
 15 25  1  0
 16 18  1  0
 17 23  1  0
 18 19  2  0
 18 17  1  0
 20 14  2  0
 21 20  1  0
 21 16  2  0
 22 16  1  0
 22 15  1  0
 23 13  1  0
 25 27  2  0
 26 25  1  0
 28 26  1  0
 29 38  2  0
 29 34  1  0
 30 26  1  0
 30 34  1  0
 31 30  1  0
 32 33  1  0
 32 31  1  0
 33 29  1  0
 34 35  2  0
 35 36  1  0
 37 36  2  0
 38 37  1  0
 39 13  1  0
 39 44  1  0
 39 40  1  0
 40 43  1  1
 40 41  1  0
 42 40  1  0
 44 47  1  0
 45 49  1  0
 45 44  1  0
 46 45  2  0
 49 48  1  0
 51 52  1  0
 51 49  1  0
 51 50  1  0
 53  4  1  0
 53 62  1  0
 54 60  1  0
 54 62  1  0
 55 60  1  0
 56 57  1  0
 56 55  1  0
 58 57  1  0
 58 67  1  0
 58 59  1  0
 60 59  1  0
 61 54  2  0
 62 63  1  0
 64 65  2  0
 65 84  1  0
 66 65  1  0
 66 69  1  0
 67 68  1  0
 67 64  1  0
 68 66  2  0
 69 70  1  0
 70 71  2  0
 72 75  1  0
 72 71  1  0
 73 72  2  0
 74 73  1  0
 74 69  2  0
 75 76  1  0
 76 81  2  0
 76 77  1  0
 77 78  2  0
 78 79  1  0
 79 83  1  0
 80 79  2  0
 81 80  1  0
 82 81  1  0
 84 85  1  0
 85 88  1  0
 85 87  1  0
 86 84  2  0
 89 64  1  0
 89 90  1  0
 91 89  1  0
M  ISO  4  11 101  12 101  54 100  62 100
M  END
>  <TORSDO>  (43) 
F 20

>  <SCORE>  (43) 
-12.103

>  <name>  (43) 
42

>  <ligand_id>  (43) 
42

>  <original_smiles>  (43) 
[H]c1c([H])c([H])c2c(c1[H])C([H])([H])C([H])([H])C([H])([H])C2([H])N([H])C(=O)C1([H])N(C(=O)C([H])(N([H])C(=O)C([H])(N([H])C([H])([H])[H])C([H])([H])[H])C(C([H])([H])[H])(C([H])([H])[H])C([H])([H])[H])C([H])([H])c2c([H])c(OC([H])([H])C([H])([H])N(c3c([H])c([H])c(F)c([H])c3C([H])([H])N([H])C(=O)N3C([H])([H])C([H])([H])C([H])([H])C([H])(n4nc(-c5c([H])c([H])c(Oc6c([H])c([H])c(F)c([H])c6F)c([H])c5[H])c(C(=O)N([H])[H])c4N([H])[H])C3([H])[H])C([H])([H])[H])c([H])c([H])c2C1([H])[H]

>  <smiles>  (43) 
[H]c1c([H])c([H])c2c(c1[H])C([H])([H])C([H])([H])C([H])([H])C2([H])N([H])C(=O)C1([H])N(C(=O)C([H])(N([H])C(=O)C([H])(N([H])C([H])([H])[H])C([H])([H])[H])C(C([H])([H])[H])(C([H])([H])[H])C([H])([H])[H])C([H])([H])c2c([H])c(OC([H])([H])C([H])([H])N(c3c([H])c([H])c(F)c([H])c3C([H])([H])N([H])C(=O)N3C([H])([H])C([H])([H])C([H])([H])C([H])(n4nc(-c5c([H])c([H])c(Oc6c([H])c([H])c(F)c([H])c6F)c([H])c5[H])c(C(=O)N([H])[H])c4N([H])[H])C3([H])[H])C([H])([H])[H])c([H])c([H])c2C1([H])[H]

$$$$
43:0:0
     RDKit          3D

 87 95  0  0  1  0  0  0  0  0999 V2000
  -30.2710  -22.1190   20.3380 C   0  0  0  0  0  3  0  0  0  0  0  0
  -31.1810  -21.0120   20.3600 C   0  0  0  0  0  3  0  0  0  0  0  0
  -28.6230  -20.3760   20.2360 C   0  0  0  0  0  3  0  0  0  0  0  0
  -28.8670  -22.0010   20.2750 C   0  0  0  0  0  0  0  0  0  0  0  0
  -29.5770  -19.0390   20.2560 C   0  0  0  0  0  0  0  0  0  0  0  0
  -30.8900  -19.6050   20.3250 C   0  0  0  0  0  0  0  0  0  0  0  0
  -32.2810  -18.5870   20.3880 Cl  0  0  0  0  0  0  0  0  0  0  0  0
  -30.1990  -15.8650   20.1440 C   0  0  0  0  0  0  0  0  0  0  0  0
  -30.3130  -13.2970   19.2980 C   0  0  0  0  0  2  0  0  0  0  0  0
  -29.4080  -12.8370   18.1150 C   0  0  0  0  0  2  0  0  0  0  0  0
  -28.0070  -12.4480   18.6070 C   0  0  0  0  0  2  0  0  0  0  0  0
  -27.5010  -13.4380   19.6800 C   0  0  0  0  0  3  0  0  0  0  0  0
  -28.5530  -13.8010   20.7580 C   0  0  0  0  0  2  0  0  0  0  0  0
  -29.6810  -14.4800   20.0640 N   0  0  0  0  0  0  0  0  0  0  0  0
  -31.4280  -15.7510   19.9590 O   0  0  0  0  0  0  0  0  0  0  0  0
  -29.4440  -17.2700   20.2300 N   0  0  0  0  0  0  0  0  0  0  0  0
  -28.4650  -17.0310   20.2910 H   0  0  0  0  0  0  0  0  0  0  0  0
  -25.1620  -13.9270   20.5280 C   0  0  0  0  0  0  0  0  0  0  0  0
  -24.1200  -13.1310   20.9110 C   0  0  0  0  0  0  0  0  0  0  0  0
  -24.6010  -11.7870   20.8410 C   0  0  0  0  0  0  0  0  0  0  0  0
  -26.2070  -13.0710   20.2380 N   0  0  0  0  0  0  0  0  0  0  0  0
  -25.8870  -11.7750   20.4920 N   0  0  0  0  0  0  0  0  0  0  0  0
  -23.8870  -10.5150   21.0270 C   0  0  0  0  0  0  0  0  0  0  0  0
  -24.3270   -9.5480   21.9570 C   0  0  0  0  0  3  0  0  0  0  0  0
  -23.6070   -8.3460   22.1360 C   0  0  0  0  0  3  0  0  0  0  0  0
  -22.4320   -8.1030   21.3840 C   0  0  0  0  0  0  0  0  0  0  0  0
  -22.0110   -9.0600   20.4440 C   0  0  0  0  0  3  0  0  0  0  0  0
  -22.7310  -10.2520   20.2650 C   0  0  0  0  0  3  0  0  0  0  0  0
  -21.6850   -6.9530   21.4710 O   0  0  0  0  0  0  0  0  0  0  0  0
  -21.6210   -6.2210   22.6300 C   0  0  0  0  0  0  0  0  0  0  0  0
  -21.1270   -6.7730   23.8330 C   0  0  0  0  0  3  0  0  0  0  0  0
  -21.0140   -5.9660   24.9820 C   0  0  0  0  0  3  0  0  0  0  0  0
  -21.3830   -4.6080   24.9310 C   0  0  0  0  0  0  0  0  0  0  0  0
  -21.8700   -4.0570   23.7330 C   0  0  0  0  0  3  0  0  0  0  0  0
  -21.9850   -4.8600   22.5840 C   0  0  0  0  0  0  0  0  0  0  0  0
  -22.4340   -4.3180   21.4270 F   0  0  0  0  0  0  0  0  0  0  0  0
  -21.2680   -3.8310   26.0320 F   0  0  0  0  0  0  0  0  0  0  0  0
  -22.7260  -13.5930   21.2180 C   0  0  0  0  0  0  0  0  0  0  0  0
  -22.0240  -12.8840   22.0940 N   0  0  0  0  0  0  0  0  0  0  0  0
  -22.2700  -14.6200   20.7180 O   0  0  0  0  0  0  0  0  0  0  0  0
  -22.4080  -12.0560   22.5250 H   0  0  0  0  0  0  0  0  0  0  0  0
  -21.0890  -13.1760   22.3390 H   0  0  0  0  0  0  0  0  0  0  0  0
  -25.3020  -15.3030   20.3700 N   0  0  0  0  0  0  0  0  0  0  0  0
  -24.5260  -15.9400   20.5130 H   0  0  0  0  0  0  0  0  0  0  0  0
  -26.1230  -15.7580   19.9920 H   0  0  0  0  0  0  0  0  0  0  0  0
  -27.9000  -23.6520   20.2300 C   0  0  0  0  0  2  0  0  0  0  0  0
  -28.1360  -25.4410   20.3460 O   0  0  0  0  0  0  0  0  0  0  0  0
  -24.7130  -31.8940   23.2630 C   0  0  0  0  0  0  0  0  0  0  0  0
  -27.1910  -26.7090   20.2970 C   0  0  0  0  0  0  0  0  0  0  0  0
  -23.5180  -30.5020   21.6280 C   0  0  0  0  0  3  0  0  0  0  0  0
  -24.9530  -28.8220   20.2250 C   0  0  0  0  0  0  0  0  0  0  0  0
  -26.1020  -30.5940   21.5220 C   0  0  0  0  0  2  0  0  0  0  0  0
  -26.1530  -29.1500   20.8670 C   0  0  0  0  0  0  0  0  0  0  0  0
  -27.2520  -28.1260   20.8660 C   0  0  0  0  0  3  0  0  0  0  0  0
  -25.9560  -26.6140   19.5980 C   0  0  0  0  0  3  0  0  0  0  0  0
  -24.8990  -27.5800   19.5670 C   0  0  0  0  0  3  0  0  0  0  0  0
  -23.7580  -29.7940   20.2620 C   0  0  0  0  0  2  0  0  0  0  0  0
  -24.8030  -31.0320   22.1900 N   0  0  0  0  0  0  0  0  0  0  0  0
  -23.6200  -32.2100   23.7660 O   0  0  0  0  0  0  0  0  0  0  0  0
  -22.7830  -29.5410   22.6020 C   0  0  0  0  0  0  0  0  0  0  0  0
  -21.4500  -29.3950   22.4700 N   0  0  0  0  0  0  0  0  0  0  0  0
  -23.4260  -28.9210   23.4530 O   0  0  0  0  0  0  0  0  0  0  0  0
  -20.9790  -29.9440   21.7630 H   0  0  0  0  0  0  0  0  0  0  0  0
  -18.0530  -28.1960   22.9660 C   0  0  0  0  0  0  0  0  0  0  0  0
  -20.6120  -28.4690   23.2430 C   0  0  0  0  0  3  0  0  0  0  0  0
  -20.7160  -27.0300   22.6850 C   0  0  0  0  0  2  0  0  0  0  0  0
  -19.6230  -26.6990   21.6650 C   0  0  0  0  0  2  0  0  0  0  0  0
  -18.2360  -26.8450   22.2970 C   0  0  0  0  0  2  0  0  0  0  0  0
  -19.1680  -28.9670   23.3960 C   0  0  0  0  0  0  0  0  0  0  0  0
  -18.9400  -30.2260   23.9890 C   0  0  0  0  0  3  0  0  0  0  0  0
  -17.6320  -30.7200   24.1530 C   0  0  0  0  0  3  0  0  0  0  0  0
  -16.5320  -29.9490   23.7360 C   0  0  0  0  0  3  0  0  0  0  0  0
  -16.7430  -28.6900   23.1480 C   0  0  0  0  0  3  0  0  0  0  0  0
  -25.9770  -32.5390   23.9080 C   0  0  0  0  0  3  0  0  0  0  0  0
  -25.6670  -33.9470   24.2280 N   0  0  0  0  0  0  0  0  0  0  0  0
  -25.9860  -35.0030   23.4670 C   0  0  0  0  0  0  0  0  0  0  0  0
  -26.6260  -34.8950   22.4190 O   0  0  0  0  0  0  0  0  0  0  0  0
  -25.0910  -34.1040   25.0420 H   0  0  0  0  0  0  0  0  0  0  0  0
  -24.2460  -36.8080   23.1910 C   0  0  0  0  0  1  0  0  0  0  0  0
  -25.5250  -36.4000   23.9390 C   0  0  0  0  0  3  0  0  0  0  0  0
  -27.6940  -37.3030   24.6600 C   0  0  0  0  0  1  0  0  0  0  0  0
  -26.5520  -37.4520   23.7630 N   0  0  0  0  0  0  0  0  0  0  0  0
  -26.1520  -38.3760   23.9120 H   0  0  0  0  0  0  0  0  0  0  0  0
  -26.4530  -31.7900   25.2160 C   0  0  1  0  0  0  0  0  0  0  0  0
  -25.3330  -31.5930   26.2660 C   0  0  0  0  0  1  0  0  0  0  0  0
  -27.0250  -30.3950   24.8820 C   0  0  0  0  0  1  0  0  0  0  0  0
  -27.6000  -32.5830   25.8860 C   0  0  0  0  0  1  0  0  0  0  0  0
  1  2  1  0
  3  5  2  0
  3  4  1  0
  4  1  2  0
  5  6  1  0
  6  2  2  0
  6  7  1  0
  8 16  1  0
  9 14  1  0
 10 11  1  0
 10  9  1  0
 12 11  1  0
 12 21  1  0
 12 13  1  0
 14  8  1  0
 14 13  1  0
 15  8  2  0
 16  5  1  0
 16 17  1  0
 18 19  2  0
 19 38  1  0
 20 19  1  0
 20 23  1  0
 21 22  1  0
 21 18  1  0
 22 20  2  0
 23 24  1  0
 24 25  2  0
 26 29  1  0
 26 25  1  0
 27 26  2  0
 28 27  1  0
 28 23  2  0
 29 30  1  0
 30 31  1  0
 31 32  2  0
 33 32  1  0
 33 37  1  0
 34 33  2  0
 35 30  2  0
 35 34  1  0
 36 35  1  0
 38 39  1  0
 39 42  1  0
 39 41  1  0
 40 38  2  0
 43 44  1  0
 43 18  1  0
 45 43  1  0
 46  4  1  0
 46 47  1  0
 48 59  2  0
 49 47  1  0
 49 54  1  0
 50 58  1  0
 50 60  1  0
 51 57  1  0
 51 53  1  0
 52 58  1  0
 53 52  1  0
 54 53  2  0
 55 49  2  0
 56 55  1  0
 56 51  2  0
 57 50  1  0
 58 48  1  0
 60 62  2  0
 61 60  1  0
 63 61  1  0
 64 73  2  0
 64 69  1  0
 65 61  1  0
 65 69  1  0
 66 65  1  0
 67 68  1  0
 67 66  1  0
 68 64  1  0
 69 70  2  0
 70 71  1  0
 72 71  2  0
 73 72  1  0
 74 48  1  0
 74 75  1  0
 74 84  1  0
 75 78  1  0
 76 80  1  0
 76 75  1  0
 77 76  2  0
 80 79  1  0
 82 83  1  0
 82 80  1  0
 82 81  1  0
 84 87  1  1
 84 85  1  0
 86 84  1  0
M  ISO  4   8 100  16 100  46 101  47 101
M  END
>  <TORSDO>  (44) 
F 17

>  <SCORE>  (44) 
-16.615

>  <name>  (44) 
43

>  <ligand_id>  (44) 
43

>  <original_smiles>  (44) 
[H]c1c([H])c([H])c2c(c1[H])C([H])([H])C([H])([H])C([H])([H])C2([H])N([H])C(=O)C1([H])N(C(=O)C([H])(N([H])C(=O)C([H])(N([H])C([H])([H])[H])C([H])([H])[H])C(C([H])([H])[H])(C([H])([H])[H])C([H])([H])[H])C([H])([H])c2c([H])c(OC([H])([H])c3c([H])c([H])c(Cl)c(N([H])C(=O)N4C([H])([H])C([H])([H])C([H])([H])C([H])(n5nc(-c6c([H])c([H])c(Oc7c([H])c([H])c(F)c([H])c7F)c([H])c6[H])c(C(=O)N([H])[H])c5N([H])[H])C4([H])[H])c3[H])c([H])c([H])c2C1([H])[H]

>  <smiles>  (44) 
[H]c1c([H])c([H])c2c(c1[H])C([H])([H])C([H])([H])C([H])([H])C2([H])N([H])C(=O)C1([H])N(C(=O)C([H])(N([H])C(=O)C([H])(N([H])C([H])([H])[H])C([H])([H])[H])C(C([H])([H])[H])(C([H])([H])[H])C([H])([H])[H])C([H])([H])c2c([H])c(OC([H])([H])c3c([H])c([H])c(Cl)c(N([H])C(=O)N4C([H])([H])C([H])([H])C([H])([H])C([H])(n5nc(-c6c([H])c([H])c(Oc7c([H])c([H])c(F)c([H])c7F)c([H])c6[H])c(C(=O)N([H])[H])c5N([H])[H])C4([H])[H])c3[H])c([H])c([H])c2C1([H])[H]

$$$$
44:0:0
     RDKit          3D

 83 90  0  0  1  0  0  0  0  0999 V2000
  -28.1560  -22.8940   20.0430 C   0  0  0  0  0 15  0  0  0  0  0  0
  -30.0750  -16.3850   20.1360 C   0  0  0  0  0  0  0  0  0  0  0  0
  -30.3140  -13.6820   19.3640 C   0  0  0  0  0  2  0  0  0  0  0  0
  -29.5090  -12.9480   18.2300 C   0  0  0  0  0  2  0  0  0  0  0  0
  -28.1610  -12.4340   18.7360 C   0  0  0  0  0  2  0  0  0  0  0  0
  -27.5520  -13.4680   19.6980 C   0  0  0  0  0  3  0  0  0  0  0  0
  -28.5360  -14.0830   20.7500 C   0  0  0  0  0  2  0  0  0  0  0  0
  -29.5740  -14.9200   20.0310 N   0  0  0  0  0  0  0  0  0  0  0  0
  -31.3100  -16.1340   20.0320 O   0  0  0  0  0  0  0  0  0  0  0  0
  -28.3920  -19.0220   20.2290 C   0  0  2  0  0  0  0  0  0  0  0  0
  -30.1410  -19.5830   19.9770 C   0  0  0  0  0  3  0  0  0  0  0  0
  -28.8750  -20.7820   20.3960 C   0  0  0  0  0  2  0  0  0  0  0  0
  -29.5320  -18.0270   20.1800 N   0  0  0  0  0  0  0  0  0  0  0  0
  -27.2040  -18.6890   20.2050 O   0  0  0  0  0  1  0  0  0  0  0  0
  -25.2060  -13.9070   20.5080 C   0  0  0  0  0  0  0  0  0  0  0  0
  -24.1640  -13.1050   20.8680 C   0  0  0  0  0  0  0  0  0  0  0  0
  -24.6550  -11.7630   20.8120 C   0  0  0  0  0  0  0  0  0  0  0  0
  -26.2650  -13.0630   20.2460 N   0  0  0  0  0  0  0  0  0  0  0  0
  -25.9490  -11.7590   20.4870 N   0  0  0  0  0  0  0  0  0  0  0  0
  -23.9390  -10.4890   20.9910 C   0  0  0  0  0  0  0  0  0  0  0  0
  -24.3600   -9.5250   21.9330 C   0  0  0  0  0  3  0  0  0  0  0  0
  -23.6350   -8.3250   22.1070 C   0  0  0  0  0  3  0  0  0  0  0  0
  -22.4720   -8.0790   21.3380 C   0  0  0  0  0  0  0  0  0  0  0  0
  -22.0670   -9.0320   20.3870 C   0  0  0  0  0  3  0  0  0  0  0  0
  -22.7940  -10.2230   20.2120 C   0  0  0  0  0  3  0  0  0  0  0  0
  -21.7200   -6.9320   21.4200 O   0  0  0  0  0  0  0  0  0  0  0  0
  -21.6340   -6.2070   22.5820 C   0  0  0  0  0  0  0  0  0  0  0  0
  -21.1200   -6.7670   23.7720 C   0  0  0  0  0  3  0  0  0  0  0  0
  -20.9840   -5.9670   24.9250 C   0  0  0  0  0  3  0  0  0  0  0  0
  -21.3520   -4.6090   24.8890 C   0  0  0  0  0  0  0  0  0  0  0  0
  -21.8590   -4.0480   23.7030 C   0  0  0  0  0  3  0  0  0  0  0  0
  -21.9960   -4.8450   22.5530 C   0  0  0  0  0  0  0  0  0  0  0  0
  -22.4640   -4.2940   21.4070 F   0  0  0  0  0  0  0  0  0  0  0  0
  -21.2150   -3.8390   25.9930 F   0  0  0  0  0  0  0  0  0  0  0  0
  -22.7640  -13.5610   21.1480 C   0  0  0  0  0  0  0  0  0  0  0  0
  -22.0490  -12.8530   22.0130 N   0  0  0  0  0  0  0  0  0  0  0  0
  -22.3150  -14.5870   20.6360 O   0  0  0  0  0  0  0  0  0  0  0  0
  -22.4280  -12.0250   22.4480 H   0  0  0  0  0  0  0  0  0  0  0  0
  -21.1090  -13.1430   22.2440 H   0  0  0  0  0  0  0  0  0  0  0  0
  -25.3400  -15.2830   20.3440 N   0  0  0  0  0  0  0  0  0  0  0  0
  -24.5620  -15.9200   20.4770 H   0  0  0  0  0  0  0  0  0  0  0  0
  -26.1840  -15.7510   20.0370 H   0  0  0  0  0  0  0  0  0  0  0  0
  -28.1130  -24.8780   20.3490 O   0  0  0  0  0  1  0  0  0  0  0  0
  -24.6660  -31.7730   23.1840 C   0  0  0  0  0  0  0  0  0  0  0  0
  -27.2000  -26.3010   20.2680 C   0  0  0  0  0  0  0  0  0  0  0  0
  -23.5120  -30.3600   21.5440 C   0  0  0  0  0  3  0  0  0  0  0  0
  -24.9760  -28.6190   20.1740 C   0  0  0  0  0  0  0  0  0  0  0  0
  -26.1080  -30.3710   21.5000 C   0  0  0  0  0  2  0  0  0  0  0  0
  -26.1720  -28.8880   20.8470 C   0  0  0  0  0  0  0  0  0  0  0  0
  -27.2410  -27.7730   20.8500 C   0  0  0  0  0  3  0  0  0  0  0  0
  -25.9670  -26.3620   19.5250 C   0  0  0  0  0  3  0  0  0  0  0  0
  -24.9400  -27.3870   19.4870 C   0  0  0  0  0  3  0  0  0  0  0  0
  -23.7880  -29.6240   20.1930 C   0  0  0  0  0  2  0  0  0  0  0  0
  -24.7920  -30.8790   22.1270 N   0  0  0  0  0  0  0  0  0  0  0  0
  -23.5590  -32.0930   23.6580 O   0  0  0  0  0  0  0  0  0  0  0  0
  -22.7430  -29.4250   22.5220 C   0  0  0  0  0  0  0  0  0  0  0  0
  -21.4070  -29.3010   22.3920 N   0  0  0  0  0  0  0  0  0  0  0  0
  -23.3730  -28.8030   23.3810 O   0  0  0  0  0  0  0  0  0  0  0  0
  -20.9420  -29.8530   21.6840 H   0  0  0  0  0  0  0  0  0  0  0  0
  -17.9980  -28.1200   22.9130 C   0  0  0  0  0  0  0  0  0  0  0  0
  -20.5630  -28.3740   23.1630 C   0  0  0  0  0  3  0  0  0  0  0  0
  -20.6490  -26.9410   22.5860 C   0  0  0  0  0  2  0  0  0  0  0  0
  -19.5430  -26.6330   21.5710 C   0  0  0  0  0  2  0  0  0  0  0  0
  -18.1640  -26.7790   22.2190 C   0  0  0  0  0  2  0  0  0  0  0  0
  -19.1220  -28.8770   23.3410 C   0  0  0  0  0  0  0  0  0  0  0  0
  -18.9070  -30.1270   23.9600 C   0  0  0  0  0  3  0  0  0  0  0  0
  -17.6030  -30.6240   24.1480 C   0  0  0  0  0  3  0  0  0  0  0  0
  -16.4940  -29.8670   23.7300 C   0  0  0  0  0  3  0  0  0  0  0  0
  -16.6930  -28.6160   23.1190 C   0  0  0  0  0  3  0  0  0  0  0  0
  -25.9030  -32.4500   23.8530 C   0  0  0  0  0  3  0  0  0  0  0  0
  -25.5660  -33.8600   24.1620 N   0  0  0  0  0  0  0  0  0  0  0  0
  -25.9090  -34.9260   23.4250 C   0  0  0  0  0  0  0  0  0  0  0  0
  -26.5860  -34.8270   22.4000 O   0  0  0  0  0  0  0  0  0  0  0  0
  -24.9620  -34.0080   24.9560 H   0  0  0  0  0  0  0  0  0  0  0  0
  -24.1840  -36.7400   23.1000 C   0  0  0  0  0  1  0  0  0  0  0  0
  -25.4330  -36.3220   23.8920 C   0  0  0  0  0  3  0  0  0  0  0  0
  -27.5720  -37.2220   24.7060 C   0  0  0  0  0  1  0  0  0  0  0  0
  -26.4660  -37.3760   23.7650 N   0  0  0  0  0  0  0  0  0  0  0  0
  -26.0600  -38.2970   23.9020 H   0  0  0  0  0  0  0  0  0  0  0  0
  -26.3560  -31.7230   25.1810 C   0  0  1  0  0  0  0  0  0  0  0  0
  -25.2170  -31.5280   26.2110 C   0  0  0  0  0  1  0  0  0  0  0  0
  -26.9480  -30.3300   24.8830 C   0  0  0  0  0  1  0  0  0  0  0  0
  -27.4830  -32.5350   25.8650 C   0  0  0  0  0  1  0  0  0  0  0  0
  2 13  1  0
  3  8  1  0
  4  5  1  0
  4  3  1  0
  6  5  1  0
  6 18  1  0
  6  7  1  0
  8  2  1  0
  8  7  1  0
  9  2  2  0
 10 14  1  6
 10 12  1  0
 11 13  1  0
 11 10  1  0
 11 12  1  0
 13 10  1  0
 15 16  2  0
 16 35  1  0
 17 16  1  0
 17 20  1  0
 18 19  1  0
 18 15  1  0
 19 17  2  0
 20 21  1  0
 21 22  2  0
 23 26  1  0
 23 22  1  0
 24 23  2  0
 25 24  1  0
 25 20  2  0
 26 27  1  0
 27 28  1  0
 28 29  2  0
 30 29  1  0
 30 34  1  0
 31 30  2  0
 32 27  2  0
 32 31  1  0
 33 32  1  0
 35 36  1  0
 36 39  1  0
 36 38  1  0
 37 35  2  0
 40 41  1  0
 40 15  1  0
 42 40  1  0
 44 55  2  0
 45 43  1  0
 45 50  1  0
 46 54  1  0
 46 56  1  0
 47 53  1  0
 47 49  1  0
 48 54  1  0
 49 50  2  0
 49 48  1  0
 51 45  2  0
 52 51  1  0
 52 47  2  0
 53 46  1  0
 54 44  1  0
 56 58  2  0
 57 56  1  0
 59 57  1  0
 60 69  2  0
 60 65  1  0
 61 57  1  0
 61 65  1  0
 62 61  1  0
 63 64  1  0
 63 62  1  0
 64 60  1  0
 65 66  2  0
 66 67  1  0
 68 67  2  0
 69 68  1  0
 70 44  1  0
 70 71  1  0
 70 80  1  0
 71 74  1  0
 72 76  1  0
 72 71  1  0
 73 72  2  0
 76 75  1  0
 78 76  1  0
 78 79  1  0
 78 77  1  0
 80 83  1  1
 80 81  1  0
 82 80  1  0
M  ISO  4   1 101   2 100  13 100  43 101
M  END
>  <TORSDO>  (45) 
F 16

>  <SCORE>  (45) 
-16.502

>  <name>  (45) 
44

>  <ligand_id>  (45) 
44

>  <original_smiles>  (45) 
[H]c1c([H])c([H])c2c(c1[H])C([H])([H])C([H])([H])C([H])([H])C2([H])N([H])C(=O)C1([H])N(C(=O)C([H])(N([H])C(=O)C([H])(N([H])C([H])([H])[H])C([H])([H])[H])C(C([H])([H])[H])(C([H])([H])[H])C([H])([H])[H])C([H])([H])c2c([H])c(OC([H])([H])C3([H])C(=O)N(C(=O)N4C([H])([H])C([H])([H])C([H])([H])C([H])(n5nc(-c6c([H])c([H])c(Oc7c([H])c([H])c(F)c([H])c7F)c([H])c6[H])c(C(=O)N([H])[H])c5N([H])[H])C4([H])[H])C3([H])[H])c([H])c([H])c2C1([H])[H]

>  <smiles>  (45) 
[H]c1c([H])c([H])c2c(c1[H])C([H])([H])C([H])([H])C([H])([H])C2([H])N([H])C(=O)C1([H])N(C(=O)C([H])(N([H])C(=O)C([H])(N([H])C([H])([H])[H])C([H])([H])[H])C(C([H])([H])[H])(C([H])([H])[H])C([H])([H])[H])C([H])([H])c2c([H])c(OC([H])([H])C3([H])C(=O)N(C(=O)N4C([H])([H])C([H])([H])C([H])([H])C([H])(n5nc(-c6c([H])c([H])c(Oc7c([H])c([H])c(F)c([H])c7F)c([H])c6[H])c(C(=O)N([H])[H])c5N([H])[H])C4([H])[H])C3([H])[H])c([H])c([H])c2C1([H])[H]

$$$$
45:0:0
     RDKit          3D

 89 97  0  0  1  0  0  0  0  0999 V2000
  -28.0730  -20.4120   20.5020 C   0  0  0  0  0  3  0  0  0  0  0  0
  -28.2650  -18.9330   20.5000 C   0  0  0  0  0  3  0  0  0  0  0  0
  -30.4850  -19.1760   19.9870 C   0  0  0  0  0  3  0  0  0  0  0  0
  -29.0790  -21.4330   20.2410 C   0  0  0  0  0  0  0  0  0  0  0  0
  -29.4810  -18.1540   20.2460 C   0  0  0  0  0  0  0  0  0  0  0  0
  -30.3020  -20.6570   19.9860 C   0  0  0  0  0  0  0  0  0  0  0  0
  -31.7280  -21.5730   19.6510 Cl  0  0  0  0  0  0  0  0  0  0  0  0
  -30.3900  -15.3420   20.0620 C   0  0  0  0  0  0  0  0  0  0  0  0
  -30.3690  -12.9170   19.1350 C   0  0  0  0  0  2  0  0  0  0  0  0
  -29.3880  -12.7470   17.9460 C   0  0  0  0  0  2  0  0  0  0  0  0
  -27.9600  -12.4650   18.4450 C   0  0  0  0  0  2  0  0  0  0  0  0
  -27.5620  -13.3940   19.6190 C   0  0  0  0  0  3  0  0  0  0  0  0
  -28.6630  -13.4970   20.6970 C   0  0  0  0  0  2  0  0  0  0  0  0
  -29.8640  -14.0210   20.0270 N   0  0  0  0  0  0  0  0  0  0  0  0
  -31.5870  -15.4040   19.7480 O   0  0  0  0  0  0  0  0  0  0  0  0
  -29.5420  -16.5340   20.2760 N   0  0  0  0  0  0  0  0  0  0  0  0
  -28.6300  -16.1730   20.5120 H   0  0  0  0  0  0  0  0  0  0  0  0
  -25.2280  -13.9260   20.5000 C   0  0  0  0  0  0  0  0  0  0  0  0
  -24.1880  -13.1360   20.9000 C   0  0  0  0  0  0  0  0  0  0  0  0
  -24.6540  -11.7890   20.8060 C   0  0  0  0  0  0  0  0  0  0  0  0
  -26.2600  -13.0620   20.1800 N   0  0  0  0  0  0  0  0  0  0  0  0
  -25.9300  -11.7680   20.4310 N   0  0  0  0  0  0  0  0  0  0  0  0
  -23.9390  -10.5200   20.9930 C   0  0  0  0  0  0  0  0  0  0  0  0
  -24.3880   -9.5460   21.9110 C   0  0  0  0  0  3  0  0  0  0  0  0
  -23.6700   -8.3430   22.0890 C   0  0  0  0  0  3  0  0  0  0  0  0
  -22.4880   -8.1060   21.3470 C   0  0  0  0  0  0  0  0  0  0  0  0
  -22.0580   -9.0700   20.4180 C   0  0  0  0  0  3  0  0  0  0  0  0
  -22.7760  -10.2630   20.2390 C   0  0  0  0  0  3  0  0  0  0  0  0
  -21.7400   -6.9570   21.4340 O   0  0  0  0  0  0  0  0  0  0  0  0
  -21.6690   -6.2310   22.5960 C   0  0  0  0  0  0  0  0  0  0  0  0
  -21.1740   -6.7890   23.7940 C   0  0  0  0  0  3  0  0  0  0  0  0
  -21.0530   -5.9870   24.9470 C   0  0  0  0  0  3  0  0  0  0  0  0
  -21.4170   -4.6290   24.9020 C   0  0  0  0  0  0  0  0  0  0  0  0
  -21.9050   -4.0700   23.7080 C   0  0  0  0  0  3  0  0  0  0  0  0
  -22.0280   -4.8690   22.5570 C   0  0  0  0  0  0  0  0  0  0  0  0
  -22.4790   -4.3190   21.4040 F   0  0  0  0  0  0  0  0  0  0  0  0
  -21.2940   -3.8560   26.0070 F   0  0  0  0  0  0  0  0  0  0  0  0
  -22.8030  -13.6010   21.2480 C   0  0  0  0  0  0  0  0  0  0  0  0
  -22.1210  -12.8850   22.1330 N   0  0  0  0  0  0  0  0  0  0  0  0
  -22.3400  -14.6370   20.7710 O   0  0  0  0  0  0  0  0  0  0  0  0
  -22.5110  -12.0470   22.5380 H   0  0  0  0  0  0  0  0  0  0  0  0
  -21.1940  -13.1770   22.4080 H   0  0  0  0  0  0  0  0  0  0  0  0
  -25.3760  -15.3030   20.3510 N   0  0  0  0  0  0  0  0  0  0  0  0
  -24.6000  -15.9390   20.5000 H   0  0  0  0  0  0  0  0  0  0  0  0
  -26.1710  -15.7480   19.9120 H   0  0  0  0  0  0  0  0  0  0  0  0
  -29.0200  -23.1920   20.2630 C   0  0  0  0  0  2  0  0  0  0  0  0
  -27.8670  -24.3360   20.3260 N   0  0  0  0  0  0  0  0  0  0  0  0
  -27.3620  -24.2180   21.2000 H   0  0  0  0  0  0  0  0  0  0  0  0
  -28.2460  -25.9850   20.2620 O   0  0  0  0  0  0  0  0  0  0  0  0
  -24.6620  -31.9240   23.2570 C   0  0  0  0  0  0  0  0  0  0  0  0
  -27.2090  -27.0510   20.2490 C   0  0  0  0  0  0  0  0  0  0  0  0
  -23.4650  -30.5340   21.6130 C   0  0  0  0  0  3  0  0  0  0  0  0
  -24.9100  -28.9230   20.1960 C   0  0  0  0  0  0  0  0  0  0  0  0
  -26.0310  -30.7370   21.4750 C   0  0  0  0  0  2  0  0  0  0  0  0
  -26.0950  -29.3270   20.8250 C   0  0  0  0  0  0  0  0  0  0  0  0
  -27.2350  -28.4090   20.8330 C   0  0  0  0  0  3  0  0  0  0  0  0
  -25.9990  -26.7950   19.5680 C   0  0  0  0  0  3  0  0  0  0  0  0
  -24.8850  -27.6750   19.5500 C   0  0  0  0  0  3  0  0  0  0  0  0
  -23.6950  -29.8480   20.2370 C   0  0  0  0  0  2  0  0  0  0  0  0
  -24.7410  -31.0930   22.1680 N   0  0  0  0  0  0  0  0  0  0  0  0
  -23.5730  -32.2190   23.7750 O   0  0  0  0  0  0  0  0  0  0  0  0
  -22.7650  -29.5410   22.5760 C   0  0  0  0  0  0  0  0  0  0  0  0
  -21.4370  -29.3720   22.4380 N   0  0  0  0  0  0  0  0  0  0  0  0
  -23.4240  -28.9230   23.4160 O   0  0  0  0  0  0  0  0  0  0  0  0
  -20.9580  -29.9210   21.7380 H   0  0  0  0  0  0  0  0  0  0  0  0
  -18.0500  -28.1730   22.9340 C   0  0  0  0  0  0  0  0  0  0  0  0
  -20.6090  -28.4360   23.2060 C   0  0  0  0  0  3  0  0  0  0  0  0
  -20.7110  -27.0030   22.6310 C   0  0  0  0  0  2  0  0  0  0  0  0
  -19.6110  -26.6840   21.6120 C   0  0  0  0  0  2  0  0  0  0  0  0
  -18.2270  -26.8260   22.2530 C   0  0  0  0  0  2  0  0  0  0  0  0
  -19.1670  -28.9350   23.3670 C   0  0  0  0  0  0  0  0  0  0  0  0
  -18.9450  -30.1940   23.9670 C   0  0  0  0  0  3  0  0  0  0  0  0
  -17.6390  -30.6910   24.1360 C   0  0  0  0  0  3  0  0  0  0  0  0
  -16.5360  -29.9270   23.7160 C   0  0  0  0  0  3  0  0  0  0  0  0
  -16.7420  -28.6690   23.1220 C   0  0  0  0  0  3  0  0  0  0  0  0
  -25.9350  -32.5590   23.8930 C   0  0  0  0  0  3  0  0  0  0  0  0
  -25.6230  -33.9600   24.2290 N   0  0  0  0  0  0  0  0  0  0  0  0
  -25.9310  -35.0190   23.4690 C   0  0  0  0  0  0  0  0  0  0  0  0
  -26.5690  -34.9210   22.4180 O   0  0  0  0  0  0  0  0  0  0  0  0
  -25.0510  -34.1090   25.0480 H   0  0  0  0  0  0  0  0  0  0  0  0
  -24.1770  -36.8070   23.1950 C   0  0  0  0  0  1  0  0  0  0  0  0
  -25.4580  -36.4070   23.9480 C   0  0  0  0  0  3  0  0  0  0  0  0
  -27.6160  -37.3170   24.6870 C   0  0  0  0  0  1  0  0  0  0  0  0
  -26.4780  -37.4670   23.7850 N   0  0  0  0  0  0  0  0  0  0  0  0
  -26.0710  -38.3860   23.9370 H   0  0  0  0  0  0  0  0  0  0  0  0
  -26.4340  -31.7910   25.1790 C   0  0  1  0  0  0  0  0  0  0  0  0
  -25.3290  -31.5620   26.2370 C   0  0  0  0  0  1  0  0  0  0  0  0
  -27.0170  -30.4090   24.8060 C   0  0  0  0  0  1  0  0  0  0  0  0
  -27.5810  -32.5840   25.8510 C   0  0  0  0  0  1  0  0  0  0  0  0
  2  1  1  0
  3  5  1  0
  4 46  1  0
  4  1  2  0
  5 16  1  0
  5  2  2  0
  6  3  2  0
  6  4  1  0
  7  6  1  0
  8 16  1  0
  9 14  1  0
 10 11  1  0
 10  9  1  0
 12 11  1  0
 12 21  1  0
 12 13  1  0
 14  8  1  0
 14 13  1  0
 15  8  2  0
 16 17  1  0
 18 19  2  0
 19 38  1  0
 20 19  1  0
 20 23  1  0
 21 22  1  0
 21 18  1  0
 22 20  2  0
 23 24  1  0
 24 25  2  0
 26 29  1  0
 26 25  1  0
 27 26  2  0
 28 27  1  0
 28 23  2  0
 29 30  1  0
 30 31  1  0
 31 32  2  0
 33 32  1  0
 33 37  1  0
 34 33  2  0
 35 30  2  0
 35 34  1  0
 36 35  1  0
 38 39  1  0
 39 42  1  0
 39 41  1  0
 40 38  2  0
 43 44  1  0
 43 18  1  0
 45 43  1  0
 46 47  1  0
 47 48  1  0
 49 47  1  0
 50 61  2  0
 51 49  1  0
 51 56  1  0
 52 60  1  0
 52 62  1  0
 53 59  1  0
 53 55  1  0
 54 60  1  0
 55 56  2  0
 55 54  1  0
 57 51  2  0
 58 57  1  0
 58 53  2  0
 59 52  1  0
 60 50  1  0
 62 64  2  0
 63 62  1  0
 65 63  1  0
 66 75  2  0
 66 71  1  0
 67 63  1  0
 67 71  1  0
 68 67  1  0
 69 70  1  0
 69 68  1  0
 70 66  1  0
 71 72  2  0
 72 73  1  0
 74 73  2  0
 75 74  1  0
 76 50  1  0
 76 77  1  0
 76 86  1  0
 77 80  1  0
 78 82  1  0
 78 77  1  0
 79 78  2  0
 82 81  1  0
 84 85  1  0
 84 82  1  0
 84 83  1  0
 86 89  1  1
 86 87  1  0
 88 86  1  0
M  ISO  4   8 100  16 100  47 101  49 101
M  END
>  <TORSDO>  (46) 
F 18

>  <SCORE>  (46) 
-16.145

>  <name>  (46) 
45

>  <ligand_id>  (46) 
45

>  <original_smiles>  (46) 
[H]c1c([H])c([H])c2c(c1[H])C([H])([H])C([H])([H])C([H])([H])C2([H])N([H])C(=O)C1([H])N(C(=O)C([H])(N([H])C(=O)C([H])(N([H])C([H])([H])[H])C([H])([H])[H])C(C([H])([H])[H])(C([H])([H])[H])C([H])([H])[H])C([H])([H])c2c([H])c(ON([H])C([H])([H])c3c([H])c([H])c(N([H])C(=O)N4C([H])([H])C([H])([H])C([H])([H])C([H])(n5nc(-c6c([H])c([H])c(Oc7c([H])c([H])c(F)c([H])c7F)c([H])c6[H])c(C(=O)N([H])[H])c5N([H])[H])C4([H])[H])c([H])c3Cl)c([H])c([H])c2C1([H])[H]

>  <smiles>  (46) 
[H]c1c([H])c([H])c2c(c1[H])C([H])([H])C([H])([H])C([H])([H])C2([H])N([H])C(=O)C1([H])N(C(=O)C([H])(N([H])C(=O)C([H])(N([H])C([H])([H])[H])C([H])([H])[H])C(C([H])([H])[H])(C([H])([H])[H])C([H])([H])[H])C([H])([H])c2c([H])c(ON([H])C([H])([H])c3c([H])c([H])c(N([H])C(=O)N4C([H])([H])C([H])([H])C([H])([H])C([H])(n5nc(-c6c([H])c([H])c(Oc7c([H])c([H])c(F)c([H])c7F)c([H])c6[H])c(C(=O)N([H])[H])c5N([H])[H])C4([H])[H])c([H])c3Cl)c([H])c([H])c2C1([H])[H]

$$$$
46:0:0
     RDKit          3D

 90 99  0  0  1  0  0  0  0  0999 V2000
  -30.3390  -15.5200   20.3310 C   0  0  0  0  0  0  0  0  0  0  0  0
  -30.4220  -13.0120   19.5470 C   0  0  0  0  0  2  0  0  0  0  0  0
  -29.5260  -12.6760   18.3240 C   0  0  0  0  0  2  0  0  0  0  0  0
  -28.0720  -12.3980   18.7520 C   0  0  0  0  0  2  0  0  0  0  0  0
  -27.5760  -13.3790   19.8410 C   0  0  0  0  0  3  0  0  0  0  0  0
  -28.6130  -13.6260   20.9590 C   0  0  0  0  0  2  0  0  0  0  0  0
  -29.8240  -14.1720   20.3140 N   0  0  0  0  0  0  0  0  0  0  0  0
  -31.5830  -15.5180   20.2780 O   0  0  0  0  0  0  0  0  0  0  0  0
  -29.2810  -19.7920   20.6600 C   0  0  0  0  0  3  0  0  0  0  0  0
  -28.9660  -21.1650   18.6660 C   0  0  0  0  0  3  0  0  0  0  0  0
  -29.3190  -18.7000   18.5390 C   0  0  0  0  0  0  0  0  0  0  0  0
  -28.9970  -21.2300   20.0730 C   0  0  0  0  0  0  0  0  0  0  0  0
  -29.4830  -18.4320   19.9100 C   0  0  0  0  0  0  0  0  0  0  0  0
  -29.1090  -19.9650   17.9340 C   0  0  0  0  0  0  0  0  0  0  0  0
  -29.2040  -17.4450   17.7460 C   0  0  0  0  0  2  0  0  0  0  0  0
  -28.7940  -16.4230   18.8000 C   0  0  0  0  0  2  0  0  0  0  0  0
  -29.5020  -16.7650   20.0560 N   0  0  0  0  0  0  0  0  0  0  0  0
  -28.9910  -20.0270   16.5850 F   0  0  0  0  0  0  0  0  0  0  0  0
  -25.2040  -13.9400   20.5700 C   0  0  0  0  0  0  0  0  0  0  0  0
  -24.1360  -13.1620   20.9180 C   0  0  0  0  0  0  0  0  0  0  0  0
  -24.6090  -11.8140   20.8990 C   0  0  0  0  0  0  0  0  0  0  0  0
  -26.2510  -13.0640   20.3460 N   0  0  0  0  0  0  0  0  0  0  0  0
  -25.9050  -11.7790   20.6110 N   0  0  0  0  0  0  0  0  0  0  0  0
  -23.8860  -10.5500   21.0770 C   0  0  0  0  0  0  0  0  0  0  0  0
  -24.3130   -9.5800   22.0090 C   0  0  0  0  0  3  0  0  0  0  0  0
  -23.5880   -8.3810   22.1780 C   0  0  0  0  0  3  0  0  0  0  0  0
  -22.4200   -8.1460   21.4140 C   0  0  0  0  0  0  0  0  0  0  0  0
  -22.0120   -9.1040   20.4700 C   0  0  0  0  0  3  0  0  0  0  0  0
  -22.7380  -10.2950   20.2990 C   0  0  0  0  0  3  0  0  0  0  0  0
  -21.6660   -7.0000   21.4920 O   0  0  0  0  0  0  0  0  0  0  0  0
  -21.6160   -6.2500   22.6400 C   0  0  0  0  0  0  0  0  0  0  0  0
  -21.1890   -6.7960   23.8690 C   0  0  0  0  0  3  0  0  0  0  0  0
  -21.0860   -5.9730   25.0080 C   0  0  0  0  0  3  0  0  0  0  0  0
  -21.4000   -4.6040   24.9180 C   0  0  0  0  0  0  0  0  0  0  0  0
  -21.8220   -4.0570   23.6930 C   0  0  0  0  0  3  0  0  0  0  0  0
  -21.9270   -4.8770   22.5560 C   0  0  0  0  0  0  0  0  0  0  0  0
  -22.3130   -4.3410   21.3730 F   0  0  0  0  0  0  0  0  0  0  0  0
  -21.2950   -3.8100   26.0090 F   0  0  0  0  0  0  0  0  0  0  0  0
  -22.7330  -13.6360   21.1580 C   0  0  0  0  0  0  0  0  0  0  0  0
  -21.9920  -12.9430   22.0150 N   0  0  0  0  0  0  0  0  0  0  0  0
  -22.3030  -14.6560   20.6220 O   0  0  0  0  0  0  0  0  0  0  0  0
  -22.3530  -12.1190   22.4720 H   0  0  0  0  0  0  0  0  0  0  0  0
  -21.0490  -13.2430   22.2200 H   0  0  0  0  0  0  0  0  0  0  0  0
  -25.3640  -15.3130   20.3960 N   0  0  0  0  0  0  0  0  0  0  0  0
  -24.5950  -15.9650   20.5110 H   0  0  0  0  0  0  0  0  0  0  0  0
  -26.2300  -15.7640   20.1380 H   0  0  0  0  0  0  0  0  0  0  0  0
  -28.7960  -22.8920   20.6810 C   0  0  0  0  0  2  0  0  0  0  0  0
  -27.9560  -24.2030   20.0940 N   0  0  0  0  0  0  0  0  0  0  0  0
  -27.9110  -24.1530   19.0800 H   0  0  0  0  0  0  0  0  0  0  0  0
  -28.2240  -25.8710   20.4800 O   0  0  0  0  0  0  0  0  0  0  0  0
  -24.6390  -31.9650   23.2680 C   0  0  0  0  0  0  0  0  0  0  0  0
  -27.2030  -26.9770   20.3690 C   0  0  0  0  0  0  0  0  0  0  0  0
  -23.4540  -30.5440   21.6430 C   0  0  0  0  0  3  0  0  0  0  0  0
  -24.9110  -28.8960   20.2630 C   0  0  0  0  0  0  0  0  0  0  0  0
  -26.0250  -30.7250   21.5250 C   0  0  0  0  0  2  0  0  0  0  0  0
  -26.0920  -29.2970   20.8970 C   0  0  0  0  0  0  0  0  0  0  0  0
  -27.2250  -28.3570   20.9280 C   0  0  0  0  0  3  0  0  0  0  0  0
  -25.9940  -26.7420   19.6730 C   0  0  0  0  0  3  0  0  0  0  0  0
  -24.8890  -27.6400   19.6320 C   0  0  0  0  0  3  0  0  0  0  0  0
  -23.6960  -29.8290   20.2830 C   0  0  0  0  0  2  0  0  0  0  0  0
  -24.7270  -31.1090   22.1980 N   0  0  0  0  0  0  0  0  0  0  0  0
  -23.5450  -32.2710   23.7730 O   0  0  0  0  0  0  0  0  0  0  0  0
  -22.7420  -29.5750   22.6240 C   0  0  0  0  0  0  0  0  0  0  0  0
  -21.4130  -29.4110   22.4850 N   0  0  0  0  0  0  0  0  0  0  0  0
  -23.3940  -28.9690   23.4770 O   0  0  0  0  0  0  0  0  0  0  0  0
  -20.9390  -29.9500   21.7750 H   0  0  0  0  0  0  0  0  0  0  0  0
  -18.0250  -28.2030   22.9710 C   0  0  0  0  0  0  0  0  0  0  0  0
  -20.5790  -28.4890   23.2670 C   0  0  0  0  0  3  0  0  0  0  0  0
  -20.6960  -27.0440   22.7280 C   0  0  0  0  0  2  0  0  0  0  0  0
  -19.6110  -26.6910   21.7050 C   0  0  0  0  0  2  0  0  0  0  0  0
  -18.2190  -26.8410   22.3250 C   0  0  0  0  0  2  0  0  0  0  0  0
  -19.1330  -28.9840   23.3990 C   0  0  0  0  0  0  0  0  0  0  0  0
  -18.8950  -30.2540   23.9660 C   0  0  0  0  0  3  0  0  0  0  0  0
  -17.5840  -30.7460   24.1080 C   0  0  0  0  0  3  0  0  0  0  0  0
  -16.4910  -29.9650   23.6940 C   0  0  0  0  0  3  0  0  0  0  0  0
  -16.7120  -28.6950   23.1320 C   0  0  0  0  0  3  0  0  0  0  0  0
  -25.9050  -32.6160   23.9030 C   0  0  0  0  0  3  0  0  0  0  0  0
  -25.5860  -34.0200   24.2200 N   0  0  0  0  0  0  0  0  0  0  0  0
  -25.9090  -35.0750   23.4590 C   0  0  0  0  0  0  0  0  0  0  0  0
  -26.5690  -34.9680   22.4220 O   0  0  0  0  0  0  0  0  0  0  0  0
  -24.9970  -34.1760   25.0250 H   0  0  0  0  0  0  0  0  0  0  0  0
  -24.1640  -36.8630   23.1380 C   0  0  0  0  0  1  0  0  0  0  0  0
  -25.4290  -36.4670   23.9170 C   0  0  0  0  0  3  0  0  0  0  0  0
  -27.5790  -37.3770   24.6850 C   0  0  0  0  0  1  0  0  0  0  0  0
  -26.4530  -37.5260   23.7660 N   0  0  0  0  0  0  0  0  0  0  0  0
  -26.0450  -38.4450   23.9100 H   0  0  0  0  0  0  0  0  0  0  0  0
  -26.4000  -31.8680   25.2040 C   0  0  1  0  0  0  0  0  0  0  0  0
  -25.2880  -31.6490   26.2590 C   0  0  0  0  0  1  0  0  0  0  0  0
  -26.9910  -30.4840   24.8570 C   0  0  0  0  0  1  0  0  0  0  0  0
  -27.5370  -32.6760   25.8720 C   0  0  0  0  0  1  0  0  0  0  0  0
  2  7  1  0
  3  4  1  0
  3  2  1  0
  5  4  1  0
  5 22  1  0
  5  6  1  0
  7  1  1  0
  7  6  1  0
  8  1  2  0
 10 12  2  0
 11 13  1  0
 12  9  1  0
 12 47  1  0
 13 17  1  0
 13  9  2  0
 14 11  2  0
 14 10  1  0
 15 11  1  0
 15 16  1  0
 16 17  1  0
 17  1  1  0
 18 14  1  0
 19 20  2  0
 20 39  1  0
 21 20  1  0
 21 24  1  0
 22 19  1  0
 22 23  1  0
 23 21  2  0
 24 25  1  0
 25 26  2  0
 27 30  1  0
 27 26  1  0
 28 27  2  0
 29 28  1  0
 29 24  2  0
 30 31  1  0
 31 32  1  0
 32 33  2  0
 34 33  1  0
 34 38  1  0
 35 34  2  0
 36 31  2  0
 36 35  1  0
 37 36  1  0
 39 40  1  0
 40 43  1  0
 40 42  1  0
 41 39  2  0
 44 45  1  0
 44 19  1  0
 46 44  1  0
 48 50  1  0
 48 47  1  0
 49 48  1  0
 51 62  2  0
 52 50  1  0
 52 57  1  0
 53 61  1  0
 53 63  1  0
 54 60  1  0
 54 56  1  0
 55 61  1  0
 56 57  2  0
 56 55  1  0
 58 52  2  0
 59 58  1  0
 59 54  2  0
 60 53  1  0
 61 51  1  0
 63 65  2  0
 64 63  1  0
 66 64  1  0
 67 76  2  0
 67 72  1  0
 68 64  1  0
 68 72  1  0
 69 68  1  0
 70 71  1  0
 70 69  1  0
 71 67  1  0
 72 73  2  0
 73 74  1  0
 75 74  2  0
 76 75  1  0
 77 51  1  0
 77 78  1  0
 77 87  1  0
 78 81  1  0
 79 83  1  0
 79 78  1  0
 80 79  2  0
 83 82  1  0
 85 86  1  0
 85 83  1  0
 85 84  1  0
 87 90  1  1
 87 88  1  0
 89 87  1  0
M  ISO  4   1 100  17 100  48 101  50 101
M  END
>  <TORSDO>  (47) 
F 17

>  <SCORE>  (47) 
-16.093

>  <name>  (47) 
46

>  <ligand_id>  (47) 
46

>  <original_smiles>  (47) 
[H]c1c([H])c([H])c2c(c1[H])C([H])([H])C([H])([H])C([H])([H])C2([H])N([H])C(=O)C1([H])N(C(=O)C([H])(N([H])C(=O)C([H])(N([H])C([H])([H])[H])C([H])([H])[H])C(C([H])([H])[H])(C([H])([H])[H])C([H])([H])[H])C([H])([H])c2c([H])c(ON([H])C([H])([H])c3c([H])c(F)c4c(c3[H])N(C(=O)N3C([H])([H])C([H])([H])C([H])([H])C([H])(n5nc(-c6c([H])c([H])c(Oc7c([H])c([H])c(F)c([H])c7F)c([H])c6[H])c(C(=O)N([H])[H])c5N([H])[H])C3([H])[H])C([H])([H])C4([H])[H])c([H])c([H])c2C1([H])[H]

>  <smiles>  (47) 
[H]c1c([H])c([H])c2c(c1[H])C([H])([H])C([H])([H])C([H])([H])C2([H])N([H])C(=O)C1([H])N(C(=O)C([H])(N([H])C(=O)C([H])(N([H])C([H])([H])[H])C([H])([H])[H])C(C([H])([H])[H])(C([H])([H])[H])C([H])([H])[H])C([H])([H])c2c([H])c(ON([H])C([H])([H])c3c([H])c(F)c4c(c3[H])N(C(=O)N3C([H])([H])C([H])([H])C([H])([H])C([H])(n5nc(-c6c([H])c([H])c(Oc7c([H])c([H])c(F)c([H])c7F)c([H])c6[H])c(C(=O)N([H])[H])c5N([H])[H])C3([H])[H])C([H])([H])C4([H])[H])c([H])c([H])c2C1([H])[H]

$$$$
47:0:0
     RDKit          3D

 89 97  0  0  1  0  0  0  0  0999 V2000
  -28.0740  -20.4070   20.5260 C   0  0  0  0  0  3  0  0  0  0  0  0
  -28.2730  -18.9300   20.5300 C   0  0  0  0  0  3  0  0  0  0  0  0
  -30.4800  -19.1800   19.9680 C   0  0  0  0  0  3  0  0  0  0  0  0
  -29.0690  -21.4300   20.2370 C   0  0  0  0  0  0  0  0  0  0  0  0
  -29.4870  -18.1550   20.2580 C   0  0  0  0  0  0  0  0  0  0  0  0
  -30.2900  -20.6600   19.9610 C   0  0  0  0  0  0  0  0  0  0  0  0
  -31.3920  -21.3920   19.6700 F   0  0  0  0  0  0  0  0  0  0  0  0
  -30.4050  -15.3430   20.0910 C   0  0  0  0  0  0  0  0  0  0  0  0
  -30.3950  -12.9140   19.1770 C   0  0  0  0  0  2  0  0  0  0  0  0
  -29.4220  -12.7350   17.9830 C   0  0  0  0  0  2  0  0  0  0  0  0
  -27.9910  -12.4520   18.4750 C   0  0  0  0  0  2  0  0  0  0  0  0
  -27.5840  -13.3860   19.6420 C   0  0  0  0  0  3  0  0  0  0  0  0
  -28.6780  -13.4980   20.7260 C   0  0  0  0  0  2  0  0  0  0  0  0
  -29.8820  -14.0220   20.0600 N   0  0  0  0  0  0  0  0  0  0  0  0
  -31.6040  -15.4070   19.7830 O   0  0  0  0  0  0  0  0  0  0  0  0
  -29.5530  -16.5350   20.2960 N   0  0  0  0  0  0  0  0  0  0  0  0
  -28.6430  -16.1720   20.5340 H   0  0  0  0  0  0  0  0  0  0  0  0
  -25.2460  -13.9180   20.5100 C   0  0  0  0  0  0  0  0  0  0  0  0
  -24.2030  -13.1280   20.9060 C   0  0  0  0  0  0  0  0  0  0  0  0
  -24.6710  -11.7810   20.8160 C   0  0  0  0  0  0  0  0  0  0  0  0
  -26.2790  -13.0540   20.1970 N   0  0  0  0  0  0  0  0  0  0  0  0
  -25.9490  -11.7600   20.4480 N   0  0  0  0  0  0  0  0  0  0  0  0
  -23.9560  -10.5110   21.0010 C   0  0  0  0  0  0  0  0  0  0  0  0
  -24.4000   -9.5400   21.9250 C   0  0  0  0  0  3  0  0  0  0  0  0
  -23.6820   -8.3360   22.1000 C   0  0  0  0  0  3  0  0  0  0  0  0
  -22.5050   -8.0970   21.3510 C   0  0  0  0  0  0  0  0  0  0  0  0
  -22.0800   -9.0580   20.4170 C   0  0  0  0  0  3  0  0  0  0  0  0
  -22.7990  -10.2520   20.2400 C   0  0  0  0  0  3  0  0  0  0  0  0
  -21.7570   -6.9470   21.4360 O   0  0  0  0  0  0  0  0  0  0  0  0
  -21.6790   -6.2250   22.5990 C   0  0  0  0  0  0  0  0  0  0  0  0
  -21.1750   -6.7860   23.7920 C   0  0  0  0  0  3  0  0  0  0  0  0
  -21.0450   -5.9880   24.9460 C   0  0  0  0  0  3  0  0  0  0  0  0
  -21.4100   -4.6300   24.9080 C   0  0  0  0  0  0  0  0  0  0  0  0
  -21.9070   -4.0670   23.7190 C   0  0  0  0  0  3  0  0  0  0  0  0
  -22.0380   -4.8630   22.5670 C   0  0  0  0  0  0  0  0  0  0  0  0
  -22.4970   -4.3100   21.4190 F   0  0  0  0  0  0  0  0  0  0  0  0
  -21.2790   -3.8600   26.0150 F   0  0  0  0  0  0  0  0  0  0  0  0
  -22.8170  -13.5920   21.2450 C   0  0  0  0  0  0  0  0  0  0  0  0
  -22.1290  -12.8750   22.1260 N   0  0  0  0  0  0  0  0  0  0  0  0
  -22.3560  -14.6280   20.7660 O   0  0  0  0  0  0  0  0  0  0  0  0
  -22.5170  -12.0370   22.5330 H   0  0  0  0  0  0  0  0  0  0  0  0
  -21.2010  -13.1670   22.3960 H   0  0  0  0  0  0  0  0  0  0  0  0
  -25.3930  -15.2950   20.3590 N   0  0  0  0  0  0  0  0  0  0  0  0
  -24.6160  -15.9300   20.5010 H   0  0  0  0  0  0  0  0  0  0  0  0
  -26.1890  -15.7400   19.9230 H   0  0  0  0  0  0  0  0  0  0  0  0
  -29.0130  -23.1860   20.2590 C   0  0  0  0  0  2  0  0  0  0  0  0
  -27.8600  -24.3300   20.2980 N   0  0  0  0  0  0  0  0  0  0  0  0
  -27.3380  -24.2150   21.1630 H   0  0  0  0  0  0  0  0  0  0  0  0
  -28.2380  -25.9820   20.2400 O   0  0  0  0  0  0  0  0  0  0  0  0
  -24.6700  -31.9190   23.2550 C   0  0  0  0  0  0  0  0  0  0  0  0
  -27.1990  -27.0460   20.2330 C   0  0  0  0  0  0  0  0  0  0  0  0
  -23.4620  -30.5270   21.6220 C   0  0  0  0  0  3  0  0  0  0  0  0
  -24.8980  -28.9150   20.1960 C   0  0  0  0  0  0  0  0  0  0  0  0
  -26.0260  -30.7330   21.4640 C   0  0  0  0  0  2  0  0  0  0  0  0
  -26.0870  -29.3220   20.8150 C   0  0  0  0  0  0  0  0  0  0  0  0
  -27.2280  -28.4050   20.8150 C   0  0  0  0  0  3  0  0  0  0  0  0
  -25.9840  -26.7880   19.5610 C   0  0  0  0  0  3  0  0  0  0  0  0
  -24.8690  -27.6670   19.5500 C   0  0  0  0  0  3  0  0  0  0  0  0
  -23.6820  -29.8390   20.2460 C   0  0  0  0  0  2  0  0  0  0  0  0
  -24.7410  -31.0870   22.1670 N   0  0  0  0  0  0  0  0  0  0  0  0
  -23.5840  -32.2140   23.7820 O   0  0  0  0  0  0  0  0  0  0  0  0
  -22.7710  -29.5340   22.5920 C   0  0  0  0  0  0  0  0  0  0  0  0
  -21.4430  -29.3560   22.4590 N   0  0  0  0  0  0  0  0  0  0  0  0
  -23.4360  -28.9220   23.4320 O   0  0  0  0  0  0  0  0  0  0  0  0
  -20.9590  -29.9000   21.7580 H   0  0  0  0  0  0  0  0  0  0  0  0
  -18.0660  -28.1310   22.9630 C   0  0  0  0  0  0  0  0  0  0  0  0
  -20.6230  -28.4190   23.2350 C   0  0  0  0  0  3  0  0  0  0  0  0
  -20.7380  -26.9840   22.6710 C   0  0  0  0  0  2  0  0  0  0  0  0
  -19.6420  -26.6450   21.6550 C   0  0  0  0  0  2  0  0  0  0  0  0
  -18.2570  -26.7800   22.2920 C   0  0  0  0  0  2  0  0  0  0  0  0
  -19.1770  -28.9070   23.3900 C   0  0  0  0  0  0  0  0  0  0  0  0
  -18.9420  -30.1670   23.9800 C   0  0  0  0  0  3  0  0  0  0  0  0
  -17.6320  -30.6540   24.1450 C   0  0  0  0  0  3  0  0  0  0  0  0
  -16.5370  -29.8770   23.7300 C   0  0  0  0  0  3  0  0  0  0  0  0
  -16.7540  -28.6170   23.1450 C   0  0  0  0  0  3  0  0  0  0  0  0
  -25.9470  -32.5580   23.8800 C   0  0  0  0  0  3  0  0  0  0  0  0
  -25.6350  -33.9570   24.2190 N   0  0  0  0  0  0  0  0  0  0  0  0
  -25.9380  -35.0180   23.4580 C   0  0  0  0  0  0  0  0  0  0  0  0
  -26.5710  -34.9220   22.4050 O   0  0  0  0  0  0  0  0  0  0  0  0
  -25.0670  -34.1050   25.0400 H   0  0  0  0  0  0  0  0  0  0  0  0
  -24.1830  -36.8050   23.1930 C   0  0  0  0  0  1  0  0  0  0  0  0
  -25.4660  -36.4050   23.9400 C   0  0  0  0  0  3  0  0  0  0  0  0
  -27.6260  -37.3160   24.6750 C   0  0  0  0  0  1  0  0  0  0  0  0
  -26.4850  -37.4650   23.7750 N   0  0  0  0  0  0  0  0  0  0  0  0
  -26.0780  -38.3840   23.9290 H   0  0  0  0  0  0  0  0  0  0  0  0
  -26.4580  -31.7910   25.1620 C   0  0  1  0  0  0  0  0  0  0  0  0
  -25.3610  -31.5590   26.2290 C   0  0  0  0  0  1  0  0  0  0  0  0
  -27.0410  -30.4100   24.7840 C   0  0  0  0  0  1  0  0  0  0  0  0
  -27.6090  -32.5840   25.8250 C   0  0  0  0  0  1  0  0  0  0  0  0
  1  2  1  0
  3  5  1  0
  4 46  1  0
  4  1  2  0
  5 16  1  0
  5  2  2  0
  6  3  2  0
  6  4  1  0
  7  6  1  0
  8 16  1  0
  9 14  1  0
 10 11  1  0
 10  9  1  0
 12 11  1  0
 12 21  1  0
 12 13  1  0
 14  8  1  0
 14 13  1  0
 15  8  2  0
 16 17  1  0
 18 19  2  0
 19 38  1  0
 20 19  1  0
 20 23  1  0
 21 22  1  0
 21 18  1  0
 22 20  2  0
 23 24  1  0
 24 25  2  0
 26 29  1  0
 26 25  1  0
 27 26  2  0
 28 27  1  0
 28 23  2  0
 29 30  1  0
 30 31  1  0
 31 32  2  0
 33 32  1  0
 33 37  1  0
 34 33  2  0
 35 30  2  0
 35 34  1  0
 36 35  1  0
 38 39  1  0
 39 42  1  0
 39 41  1  0
 40 38  2  0
 43 44  1  0
 43 18  1  0
 45 43  1  0
 46 47  1  0
 47 48  1  0
 49 47  1  0
 50 61  2  0
 51 49  1  0
 51 56  1  0
 52 60  1  0
 52 62  1  0
 53 59  1  0
 53 55  1  0
 54 60  1  0
 55 54  1  0
 56 55  2  0
 57 51  2  0
 58 57  1  0
 58 53  2  0
 59 52  1  0
 60 50  1  0
 62 64  2  0
 63 62  1  0
 65 63  1  0
 66 75  2  0
 66 71  1  0
 67 63  1  0
 67 71  1  0
 68 67  1  0
 69 70  1  0
 69 68  1  0
 70 66  1  0
 71 72  2  0
 72 73  1  0
 74 73  2  0
 75 74  1  0
 76 50  1  0
 76 77  1  0
 76 86  1  0
 77 80  1  0
 78 82  1  0
 78 77  1  0
 79 78  2  0
 82 81  1  0
 84 85  1  0
 84 82  1  0
 84 83  1  0
 86 89  1  1
 86 87  1  0
 88 86  1  0
M  ISO  4   8 100  16 100  47 101  49 101
M  END
>  <TORSDO>  (48) 
F 18

>  <SCORE>  (48) 
-16.095

>  <name>  (48) 
47

>  <ligand_id>  (48) 
47

>  <original_smiles>  (48) 
[H]c1c([H])c([H])c2c(c1[H])C([H])([H])C([H])([H])C([H])([H])C2([H])N([H])C(=O)C1([H])N(C(=O)C([H])(N([H])C(=O)C([H])(N([H])C([H])([H])[H])C([H])([H])[H])C(C([H])([H])[H])(C([H])([H])[H])C([H])([H])[H])C([H])([H])c2c([H])c(ON([H])C([H])([H])c3c([H])c([H])c(N([H])C(=O)N4C([H])([H])C([H])([H])C([H])([H])C([H])(n5nc(-c6c([H])c([H])c(Oc7c([H])c([H])c(F)c([H])c7F)c([H])c6[H])c(C(=O)N([H])[H])c5N([H])[H])C4([H])[H])c([H])c3F)c([H])c([H])c2C1([H])[H]

>  <smiles>  (48) 
[H]c1c([H])c([H])c2c(c1[H])C([H])([H])C([H])([H])C([H])([H])C2([H])N([H])C(=O)C1([H])N(C(=O)C([H])(N([H])C(=O)C([H])(N([H])C([H])([H])[H])C([H])([H])[H])C(C([H])([H])[H])(C([H])([H])[H])C([H])([H])[H])C([H])([H])c2c([H])c(ON([H])C([H])([H])c3c([H])c([H])c(N([H])C(=O)N4C([H])([H])C([H])([H])C([H])([H])C([H])(n5nc(-c6c([H])c([H])c(Oc7c([H])c([H])c(F)c([H])c7F)c([H])c6[H])c(C(=O)N([H])[H])c5N([H])[H])C4([H])[H])c([H])c3F)c([H])c([H])c2C1([H])[H]

$$$$
48:0:0
     RDKit          3D

 90 98  0  0  1  0  0  0  0  0999 V2000
  -27.9590  -19.5900   20.4260 C   0  0  0  0  0  3  0  0  0  0  0  0
  -30.2410  -20.1070   20.1860 C   0  0  0  0  0  3  0  0  0  0  0  0
  -29.5730  -17.6270   20.3250 C   0  0  0  0  0  0  0  0  0  0  0  0
  -28.9080  -20.6500   20.2970 C   0  0  0  0  0  0  0  0  0  0  0  0
  -28.2650  -18.1830   20.4450 C   0  0  0  0  0  0  0  0  0  0  0  0
  -30.5630  -18.6710   20.1940 C   0  0  0  0  0  0  0  0  0  0  0  0
  -27.2360  -17.3130   20.5820 F   0  0  0  0  0  0  0  0  0  0  0  0
  -31.8640  -18.3110   20.0830 F   0  0  0  0  0  0  0  0  0  0  0  0
  -30.5220  -15.0220   20.0730 C   0  0  0  0  0  0  0  0  0  0  0  0
  -30.3880  -12.7040   19.0560 C   0  0  0  0  0  2  0  0  0  0  0  0
  -29.3830  -12.7150   17.8770 C   0  0  0  0  0  2  0  0  0  0  0  0
  -27.9420  -12.4950   18.3760 C   0  0  0  0  0  2  0  0  0  0  0  0
  -27.6010  -13.3710   19.6110 C   0  0  0  0  0  3  0  0  0  0  0  0
  -28.7160  -13.3120   20.6770 C   0  0  0  0  0  2  0  0  0  0  0  0
  -29.9630  -13.7470   20.0290 N   0  0  0  0  0  0  0  0  0  0  0  0
  -31.6900  -15.1580   19.6980 O   0  0  0  0  0  0  0  0  0  0  0  0
  -29.6650  -16.0990   20.3820 N   0  0  0  0  0  0  0  0  0  0  0  0
  -28.7700  -15.7250   20.6540 H   0  0  0  0  0  0  0  0  0  0  0  0
  -25.2510  -13.9190   20.4740 C   0  0  0  0  0  0  0  0  0  0  0  0
  -24.2070  -13.1310   20.8690 C   0  0  0  0  0  0  0  0  0  0  0  0
  -24.6750  -11.7840   20.7770 C   0  0  0  0  0  0  0  0  0  0  0  0
  -26.2880  -13.0550   20.1630 N   0  0  0  0  0  0  0  0  0  0  0  0
  -25.9500  -11.7610   20.4070 N   0  0  0  0  0  0  0  0  0  0  0  0
  -23.9600  -10.5150   20.9640 C   0  0  0  0  0  0  0  0  0  0  0  0
  -24.3980   -9.5510   21.8990 C   0  0  0  0  0  3  0  0  0  0  0  0
  -23.6800   -8.3480   22.0760 C   0  0  0  0  0  3  0  0  0  0  0  0
  -22.5110   -8.1010   21.3160 C   0  0  0  0  0  0  0  0  0  0  0  0
  -22.0920   -9.0540   20.3710 C   0  0  0  0  0  3  0  0  0  0  0  0
  -22.8110  -10.2480   20.1940 C   0  0  0  0  0  3  0  0  0  0  0  0
  -21.7650   -6.9500   21.4010 O   0  0  0  0  0  0  0  0  0  0  0  0
  -21.6570   -6.2480   22.5750 C   0  0  0  0  0  0  0  0  0  0  0  0
  -21.1100   -6.8250   23.7410 C   0  0  0  0  0  3  0  0  0  0  0  0
  -20.9530   -6.0470   24.9050 C   0  0  0  0  0  3  0  0  0  0  0  0
  -21.3340   -4.6920   24.9040 C   0  0  0  0  0  0  0  0  0  0  0  0
  -21.8730   -4.1130   23.7410 C   0  0  0  0  0  3  0  0  0  0  0  0
  -22.0320   -4.8890   22.5790 C   0  0  0  0  0  0  0  0  0  0  0  0
  -22.5330   -4.3210   21.4560 F   0  0  0  0  0  0  0  0  0  0  0  0
  -21.1750   -3.9420   26.0190 F   0  0  0  0  0  0  0  0  0  0  0  0
  -22.8250  -13.5960   21.2230 C   0  0  0  0  0  0  0  0  0  0  0  0
  -22.1450  -12.8770   22.1090 N   0  0  0  0  0  0  0  0  0  0  0  0
  -22.3590  -14.6330   20.7530 O   0  0  0  0  0  0  0  0  0  0  0  0
  -22.5360  -12.0380   22.5110 H   0  0  0  0  0  0  0  0  0  0  0  0
  -21.2190  -13.1700   22.3890 H   0  0  0  0  0  0  0  0  0  0  0  0
  -25.3880  -15.2940   20.3340 N   0  0  0  0  0  0  0  0  0  0  0  0
  -24.6220  -15.9230   20.5450 H   0  0  0  0  0  0  0  0  0  0  0  0
  -26.2440  -15.7950   20.1240 H   0  0  0  0  0  0  0  0  0  0  0  0
  -28.3740  -22.0150   20.2700 O   0  0  0  0  0  0  0  0  0  0  0  0
  -28.9860  -23.4180   20.2990 C   0  0  0  0  0  3  0  0  0  0  0  0
  -27.9870  -24.7600   20.0990 C   0  0  0  0  0  3  0  0  0  0  0  0
  -28.2730  -26.2790   20.2660 O   0  0  0  0  0  0  0  0  0  0  0  0
  -24.6340  -31.9400   23.2590 C   0  0  0  0  0  0  0  0  0  0  0  0
  -27.2090  -27.2510   20.2060 C   0  0  0  0  0  0  0  0  0  0  0  0
  -23.4300  -30.5530   21.6150 C   0  0  0  0  0  3  0  0  0  0  0  0
  -24.8750  -28.9860   20.1830 C   0  0  0  0  0  0  0  0  0  0  0  0
  -25.9840  -30.8200   21.4490 C   0  0  0  0  0  2  0  0  0  0  0  0
  -26.0570  -29.4330   20.7900 C   0  0  0  0  0  0  0  0  0  0  0  0
  -27.2240  -28.5820   20.7840 C   0  0  0  0  0  3  0  0  0  0  0  0
  -25.9990  -26.9030   19.5640 C   0  0  0  0  0  3  0  0  0  0  0  0
  -24.8590  -27.7340   19.5550 C   0  0  0  0  0  3  0  0  0  0  0  0
  -23.6490  -29.8820   20.2330 C   0  0  0  0  0  2  0  0  0  0  0  0
  -24.7030  -31.1250   22.1620 N   0  0  0  0  0  0  0  0  0  0  0  0
  -23.5480  -32.2240   23.7880 O   0  0  0  0  0  0  0  0  0  0  0  0
  -22.7500  -29.5420   22.5720 C   0  0  0  0  0  0  0  0  0  0  0  0
  -21.4240  -29.3700   22.4380 N   0  0  0  0  0  0  0  0  0  0  0  0
  -23.4200  -28.9150   23.3970 O   0  0  0  0  0  0  0  0  0  0  0  0
  -20.9410  -29.9270   21.7480 H   0  0  0  0  0  0  0  0  0  0  0  0
  -18.0380  -28.1810   22.9380 C   0  0  0  0  0  0  0  0  0  0  0  0
  -20.5980  -28.4320   23.2040 C   0  0  0  0  0  3  0  0  0  0  0  0
  -20.6940  -27.0020   22.6210 C   0  0  0  0  0  2  0  0  0  0  0  0
  -19.5890  -26.6900   21.6070 C   0  0  0  0  0  2  0  0  0  0  0  0
  -18.2080  -26.8360   22.2530 C   0  0  0  0  0  2  0  0  0  0  0  0
  -19.1610  -28.9370   23.3700 C   0  0  0  0  0  0  0  0  0  0  0  0
  -18.9460  -30.1960   23.9730 C   0  0  0  0  0  3  0  0  0  0  0  0
  -17.6440  -30.6990   24.1470 C   0  0  0  0  0  3  0  0  0  0  0  0
  -16.5360  -29.9400   23.7310 C   0  0  0  0  0  3  0  0  0  0  0  0
  -16.7340  -28.6830   23.1320 C   0  0  0  0  0  3  0  0  0  0  0  0
  -25.9130  -32.5690   23.8890 C   0  0  0  0  0  3  0  0  0  0  0  0
  -26.4150  -31.8010   25.1730 C   0  0  1  0  0  0  0  0  0  0  0  0
  -25.3110  -31.5700   26.2310 C   0  0  0  0  0  1  0  0  0  0  0  0
  -26.9980  -30.4190   24.7940 C   0  0  0  0  0  1  0  0  0  0  0  0
  -27.5620  -32.5940   25.8420 C   0  0  0  0  0  1  0  0  0  0  0  0
  -25.6070  -33.9700   24.2180 N   0  0  0  0  0  0  0  0  0  0  0  0
  -25.9140  -35.0210   23.4450 C   0  0  0  0  0  0  0  0  0  0  0  0
  -26.5520  -34.9130   22.3950 O   0  0  0  0  0  0  0  0  0  0  0  0
  -25.0370  -34.1270   25.0360 H   0  0  0  0  0  0  0  0  0  0  0  0
  -24.1600  -36.8030   23.1550 C   0  0  0  0  0  1  0  0  0  0  0  0
  -25.4390  -36.4120   23.9120 C   0  0  0  0  0  3  0  0  0  0  0  0
  -27.5980  -37.3260   24.6440 C   0  0  0  0  0  1  0  0  0  0  0  0
  -26.4600  -37.4710   23.7410 N   0  0  0  0  0  0  0  0  0  0  0  0
  -26.0520  -38.3900   23.8880 H   0  0  0  0  0  0  0  0  0  0  0  0
  1  5  1  0
  2  6  2  0
  2  4  1  0
  3 17  1  0
  3  5  2  0
  4  1  2  0
  5  7  1  0
  6  3  1  0
  8  6  1  0
  9 17  1  0
 10 15  1  0
 11 12  1  0
 11 10  1  0
 13 12  1  0
 13 22  1  0
 13 14  1  0
 15  9  1  0
 15 14  1  0
 16  9  2  0
 17 18  1  0
 19 20  2  0
 20 39  1  0
 21 20  1  0
 21 24  1  0
 22 23  1  0
 22 19  1  0
 23 21  2  0
 24 25  1  0
 25 26  2  0
 27 30  1  0
 27 26  1  0
 28 27  2  0
 29 28  1  0
 29 24  2  0
 30 31  1  0
 31 36  2  0
 31 32  1  0
 32 33  2  0
 34 33  1  0
 34 38  1  0
 35 34  2  0
 36 35  1  0
 37 36  1  0
 39 40  1  0
 40 43  1  0
 40 42  1  0
 41 39  2  0
 44 19  1  0
 44 45  1  0
 46 44  1  0
 47  4  1  0
 47 48  1  0
 49 50  1  0
 49 48  2  0
 51 62  2  0
 52 50  1  0
 52 57  1  0
 53 61  1  0
 53 63  1  0
 54 60  1  0
 54 56  1  0
 55 61  1  0
 56 55  1  0
 57 56  2  0
 58 52  2  0
 59 58  1  0
 59 54  2  0
 60 53  1  0
 61 51  1  0
 63 65  2  0
 64 63  1  0
 66 64  1  0
 67 76  2  0
 67 72  1  0
 68 64  1  0
 68 72  1  0
 69 68  1  0
 70 71  1  0
 70 69  1  0
 71 67  1  0
 72 73  2  0
 73 74  1  0
 75 74  2  0
 76 75  1  0
 77 51  1  0
 77 82  1  0
 77 78  1  0
 78 81  1  1
 78 79  1  0
 80 78  1  0
 82 85  1  0
 83 87  1  0
 83 82  1  0
 84 83  2  0
 87 86  1  0
 89 90  1  0
 89 87  1  0
 89 88  1  0
M  ISO  4   9 100  17 100  49 101  50 101
M  END
>  <TORSDO>  (49) 
F 19

>  <SCORE>  (49) 
-14.290

>  <name>  (49) 
48

>  <ligand_id>  (49) 
48

>  <original_smiles>  (49) 
[H]c1c([H])c([H])c2c(c1[H])C([H])([H])C([H])([H])C([H])([H])C2([H])N([H])C(=O)C1([H])N(C(=O)C([H])(N([H])C(=O)C([H])(N([H])C([H])([H])[H])C([H])([H])[H])C(C([H])([H])[H])(C([H])([H])[H])C([H])([H])[H])C([H])([H])c2c([H])c(OC([H])([H])C([H])([H])Oc3c([H])c(F)c(N([H])C(=O)N4C([H])([H])C([H])([H])C([H])([H])C([H])(n5nc(-c6c([H])c([H])c(Oc7c([H])c([H])c(F)c([H])c7F)c([H])c6[H])c(C(=O)N([H])[H])c5N([H])[H])C4([H])[H])c(F)c3[H])c([H])c([H])c2C1([H])[H]

>  <smiles>  (49) 
[H]c1c([H])c([H])c2c(c1[H])C([H])([H])C([H])([H])C([H])([H])C2([H])N([H])C(=O)C1([H])N(C(=O)C([H])(N([H])C(=O)C([H])(N([H])C([H])([H])[H])C([H])([H])[H])C(C([H])([H])[H])(C([H])([H])[H])C([H])([H])[H])C([H])([H])c2c([H])c(OC([H])([H])C([H])([H])Oc3c([H])c(F)c(N([H])C(=O)N4C([H])([H])C([H])([H])C([H])([H])C([H])(n5nc(-c6c([H])c([H])c(Oc7c([H])c([H])c(F)c([H])c7F)c([H])c6[H])c(C(=O)N([H])[H])c5N([H])[H])C4([H])[H])c(F)c3[H])c([H])c([H])c2C1([H])[H]

$$$$
50:0:0
     RDKit          3D

 88 96  0  0  1  0  0  0  0  0999 V2000
  -30.4480  -21.4720   21.2460 C   0  0  0  0  0  1  0  0  0  0  0  0
  -29.0890  -21.2780   20.7040 N   0  0  2  0  0  4  0  0  0  0  0  0
  -28.5200  -21.2780   21.5390 H   0  0  0  0  0  0  0  0  0  0  0  0
  -30.4090  -15.3620   20.2490 C   0  0  0  0  0  0  0  0  0  0  0  0
  -30.3980  -12.9190   19.3560 C   0  0  0  0  0  2  0  0  0  0  0  0
  -29.4710  -12.6800   18.1390 C   0  0  0  0  0  2  0  0  0  0  0  0
  -28.0280  -12.3910   18.5930 C   0  0  0  0  0  2  0  0  0  0  0  0
  -27.5700  -13.3540   19.7150 C   0  0  0  0  0  3  0  0  0  0  0  0
  -28.6260  -13.5360   20.8250 C   0  0  0  0  0  2  0  0  0  0  0  0
  -29.8340  -14.0600   20.1660 N   0  0  0  0  0  0  0  0  0  0  0  0
  -31.6470  -15.3320   20.1720 O   0  0  0  0  0  0  0  0  0  0  0  0
  -28.0880  -17.9900   18.5490 C   0  0  0  0  0  2  0  0  0  0  0  0
  -28.5830  -19.4490   18.7750 C   0  0  0  0  0  2  0  0  0  0  0  0
  -29.1370  -16.8530   18.7630 C   0  0  0  0  0  2  0  0  0  0  0  0
  -29.8750  -18.2200   20.6670 C   0  0  0  0  0  2  0  0  0  0  0  0
  -28.9140  -19.6680   20.2490 C   0  0  0  0  0  3  0  0  0  0  0  0
  -29.6620  -16.6600   20.1380 N   0  0  0  0  0  0  0  0  0  0  0  0
  -25.2050  -13.8980   20.4810 C   0  0  0  0  0  0  0  0  0  0  0  0
  -24.1490  -13.1130   20.8500 C   0  0  0  0  0  0  0  0  0  0  0  0
  -24.6290  -11.7660   20.8230 C   0  0  0  0  0  0  0  0  0  0  0  0
  -26.2530  -13.0290   20.2380 N   0  0  0  0  0  0  0  0  0  0  0  0
  -25.9200  -11.7420   20.5140 N   0  0  0  0  0  0  0  0  0  0  0  0
  -23.9140  -10.4980   21.0140 C   0  0  0  0  0  0  0  0  0  0  0  0
  -24.3510   -9.5390   21.9540 C   0  0  0  0  0  3  0  0  0  0  0  0
  -23.6330   -8.3360   22.1350 C   0  0  0  0  0  3  0  0  0  0  0  0
  -22.4660   -8.0850   21.3760 C   0  0  0  0  0  0  0  0  0  0  0  0
  -22.0500   -9.0330   20.4240 C   0  0  0  0  0  3  0  0  0  0  0  0
  -22.7680  -10.2260   20.2420 C   0  0  0  0  0  3  0  0  0  0  0  0
  -21.7200   -6.9350   21.4660 O   0  0  0  0  0  0  0  0  0  0  0  0
  -21.6690   -6.1990   22.6230 C   0  0  0  0  0  0  0  0  0  0  0  0
  -21.2240   -6.7560   23.8410 C   0  0  0  0  0  3  0  0  0  0  0  0
  -21.1220   -5.9460   24.9900 C   0  0  0  0  0  3  0  0  0  0  0  0
  -21.4550   -4.5790   24.9210 C   0  0  0  0  0  0  0  0  0  0  0  0
  -21.8950   -4.0220   23.7070 C   0  0  0  0  0  3  0  0  0  0  0  0
  -21.9980   -4.8300   22.5610 C   0  0  0  0  0  0  0  0  0  0  0  0
  -22.4020   -4.2840   21.3880 F   0  0  0  0  0  0  0  0  0  0  0  0
  -21.3500   -3.7990   26.0210 F   0  0  0  0  0  0  0  0  0  0  0  0
  -22.7470  -13.5760   21.1120 C   0  0  0  0  0  0  0  0  0  0  0  0
  -22.0210  -12.8730   21.9730 N   0  0  0  0  0  0  0  0  0  0  0  0
  -22.3060  -14.6000   20.5900 O   0  0  0  0  0  0  0  0  0  0  0  0
  -22.3930  -12.0460   22.4170 H   0  0  0  0  0  0  0  0  0  0  0  0
  -21.0790  -13.1660   22.1930 H   0  0  0  0  0  0  0  0  0  0  0  0
  -25.3580  -15.2710   20.3020 N   0  0  0  0  0  0  0  0  0  0  0  0
  -24.5920  -15.9230   20.4250 H   0  0  0  0  0  0  0  0  0  0  0  0
  -26.2140  -15.7140   19.9970 H   0  0  0  0  0  0  0  0  0  0  0  0
  -28.5930  -22.7070   19.9750 C   0  0  0  0  0  2  0  0  0  0  0  0
  -28.1460  -24.3150   20.6840 C   0  0  0  0  0  2  0  0  0  0  0  0
  -28.2500  -25.9220   20.2850 O   0  0  0  0  0  0  0  0  0  0  0  0
  -24.6260  -31.8860   23.2490 C   0  0  0  0  0  0  0  0  0  0  0  0
  -27.2120  -26.9920   20.2980 C   0  0  0  0  0  0  0  0  0  0  0  0
  -23.4470  -30.4800   21.6110 C   0  0  0  0  0  3  0  0  0  0  0  0
  -24.9080  -28.8650   20.2160 C   0  0  0  0  0  0  0  0  0  0  0  0
  -26.0140  -30.6970   21.4790 C   0  0  0  0  0  2  0  0  0  0  0  0
  -26.0920  -29.2800   20.8370 C   0  0  0  0  0  0  0  0  0  0  0  0
  -27.2420  -28.3690   20.8440 C   0  0  0  0  0  3  0  0  0  0  0  0
  -25.9940  -26.7220   19.6360 C   0  0  0  0  0  3  0  0  0  0  0  0
  -24.8830  -27.6050   19.5960 C   0  0  0  0  0  3  0  0  0  0  0  0
  -23.6880  -29.7870   20.2420 C   0  0  0  0  0  2  0  0  0  0  0  0
  -24.7170  -31.0480   22.1670 N   0  0  0  0  0  0  0  0  0  0  0  0
  -23.5330  -32.1760   23.7630 O   0  0  0  0  0  0  0  0  0  0  0  0
  -22.7470  -29.4870   22.5760 C   0  0  0  0  0  0  0  0  0  0  0  0
  -21.4180  -29.3190   22.4430 N   0  0  0  0  0  0  0  0  0  0  0  0
  -23.4080  -28.8670   23.4140 O   0  0  0  0  0  0  0  0  0  0  0  0
  -20.9350  -29.8710   21.7480 H   0  0  0  0  0  0  0  0  0  0  0  0
  -18.0350  -28.1060   22.9380 C   0  0  0  0  0  0  0  0  0  0  0  0
  -20.5920  -28.3820   23.2140 C   0  0  0  0  0  3  0  0  0  0  0  0
  -20.7010  -26.9470   22.6480 C   0  0  0  0  0  2  0  0  0  0  0  0
  -19.6070  -26.6160   21.6290 C   0  0  0  0  0  2  0  0  0  0  0  0
  -18.2210  -26.7560   22.2650 C   0  0  0  0  0  2  0  0  0  0  0  0
  -19.1480  -28.8760   23.3700 C   0  0  0  0  0  0  0  0  0  0  0  0
  -18.9180  -30.1370   23.9620 C   0  0  0  0  0  3  0  0  0  0  0  0
  -17.6090  -30.6290   24.1240 C   0  0  0  0  0  3  0  0  0  0  0  0
  -16.5120  -29.8580   23.7060 C   0  0  0  0  0  3  0  0  0  0  0  0
  -16.7250  -28.5980   23.1210 C   0  0  0  0  0  3  0  0  0  0  0  0
  -25.8910  -32.5360   23.8890 C   0  0  0  0  0  3  0  0  0  0  0  0
  -25.5730  -33.9410   24.1980 N   0  0  0  0  0  0  0  0  0  0  0  0
  -25.9190  -34.9930   23.4430 C   0  0  0  0  0  0  0  0  0  0  0  0
  -26.6020  -34.8820   22.4220 O   0  0  0  0  0  0  0  0  0  0  0  0
  -24.9690  -34.1000   24.9910 H   0  0  0  0  0  0  0  0  0  0  0  0
  -24.2050  -36.7990   23.0600 C   0  0  0  0  0  1  0  0  0  0  0  0
  -25.4330  -36.3880   23.8880 C   0  0  0  0  0  3  0  0  0  0  0  0
  -27.5600  -37.2700   24.7450 C   0  0  0  0  0  1  0  0  0  0  0  0
  -26.4720  -37.4360   23.7840 N   0  0  0  0  0  0  0  0  0  0  0  0
  -26.0680  -38.3580   23.9220 H   0  0  0  0  0  0  0  0  0  0  0  0
  -26.3770  -31.7910   25.1930 C   0  0  1  0  0  0  0  0  0  0  0  0
  -25.2620  -31.5840   26.2450 C   0  0  0  0  0  1  0  0  0  0  0  0
  -26.9620  -30.4020   24.8510 C   0  0  0  0  0  1  0  0  0  0  0  0
  -27.5180  -32.5950   25.8610 C   0  0  0  0  0  1  0  0  0  0  0  0
  2  1  1  0
  2  3  1  1
  5 10  1  0
  6  7  1  0
  6  5  1  0
  8  7  1  0
  8 21  1  0
  8  9  1  0
 10  4  1  0
 10  9  1  0
 11  4  2  0
 12 14  1  0
 12 13  1  0
 13 16  1  0
 14 17  1  0
 16 15  1  0
 16  2  1  0
 17  4  1  0
 17 15  1  0
 18 19  2  0
 19 38  1  0
 20 19  1  0
 20 23  1  0
 21 18  1  0
 21 22  1  0
 22 20  2  0
 23 24  1  0
 24 25  2  0
 26 29  1  0
 26 25  1  0
 27 26  2  0
 28 27  1  0
 28 23  2  0
 29 30  1  0
 30 31  1  0
 31 32  2  0
 33 32  1  0
 33 37  1  0
 34 33  2  0
 35 30  2  0
 35 34  1  0
 36 35  1  0
 38 39  1  0
 39 42  1  0
 39 41  1  0
 40 38  2  0
 43 44  1  0
 43 18  1  0
 45 43  1  0
 46 47  1  0
 46  2  1  0
 48 50  1  0
 48 47  1  0
 49 60  2  0
 50 55  1  0
 51 59  1  0
 51 61  1  0
 52 58  1  0
 52 54  1  0
 53 59  1  0
 54 55  2  0
 54 53  1  0
 56 50  2  0
 57 56  1  0
 57 52  2  0
 58 51  1  0
 59 49  1  0
 61 63  2  0
 62 61  1  0
 64 62  1  0
 65 74  2  0
 65 70  1  0
 66 62  1  0
 66 70  1  0
 67 66  1  0
 68 69  1  0
 68 67  1  0
 69 65  1  0
 70 71  2  0
 71 72  1  0
 73 72  2  0
 74 73  1  0
 75 49  1  0
 75 76  1  0
 75 85  1  0
 76 79  1  0
 77 81  1  0
 77 76  1  0
 78 77  2  0
 81 80  1  0
 83 81  1  0
 83 84  1  0
 83 82  1  0
 85 88  1  1
 85 86  1  0
 87 85  1  0
M  ISO  4   4 100  17 100  47 101  48 101
M  END
>  <TORSDO>  (50) 
F 18

>  <SCORE>  (50) 
-16.795

>  <name>  (50) 
50

>  <ligand_id>  (50) 
50

>  <original_smiles>  (50) 
[H]c1c([H])c([H])c2c(c1[H])C([H])([H])C([H])([H])C([H])([H])C2([H])N([H])C(=O)C1([H])N(C(=O)C([H])(N([H])C(=O)C([H])(N([H])C([H])([H])[H])C([H])([H])[H])C(C([H])([H])[H])(C([H])([H])[H])C([H])([H])[H])C([H])([H])c2c([H])c(OC([H])([H])C([H])([H])[N+]([H])(C([H])([H])[H])C3([H])C([H])([H])N(C(=O)N4C([H])([H])C([H])([H])C([H])([H])C([H])(n5nc(-c6c([H])c([H])c(Oc7c([H])c([H])c(F)c([H])c7F)c([H])c6[H])c(C(=O)N([H])[H])c5N([H])[H])C4([H])[H])C([H])([H])C([H])([H])C3([H])[H])c([H])c([H])c2C1([H])[H]

>  <smiles>  (50) 
[H]c1c([H])c([H])c2c(c1[H])C([H])([H])C([H])([H])C([H])([H])C2([H])N([H])C(=O)C1([H])N(C(=O)C([H])(N([H])C(=O)C([H])(N([H])C([H])([H])[H])C([H])([H])[H])C(C([H])([H])[H])(C([H])([H])[H])C([H])([H])[H])C([H])([H])c2c([H])c(OC([H])([H])C([H])([H])[N+]([H])(C([H])([H])[H])C3([H])C([H])([H])N(C(=O)N4C([H])([H])C([H])([H])C([H])([H])C([H])(n5nc(-c6c([H])c([H])c(Oc7c([H])c([H])c(F)c([H])c7F)c([H])c6[H])c(C(=O)N([H])[H])c5N([H])[H])C4([H])[H])C([H])([H])C([H])([H])C3([H])[H])c([H])c([H])c2C1([H])[H]

$$$$
51:0:0
     RDKit          3D

 90 98  0  0  1  0  0  0  0  0999 V2000
  -30.7620  -19.9330   19.1990 C   0  0  0  0  0  3  0  0  0  0  0  0
  -28.5300  -19.1730   18.9170 C   0  0  0  0  0  3  0  0  0  0  0  0
  -30.3830  -21.2560   18.8120 C   0  0  0  0  0  3  0  0  0  0  0  0
  -28.1470  -20.5200   18.5280 C   0  0  0  0  0  3  0  0  0  0  0  0
  -29.8670  -18.8290   19.2850 C   0  0  0  0  0  0  0  0  0  0  0  0
  -29.0550  -21.6290   18.5090 C   0  0  0  0  0  0  0  0  0  0  0  0
  -29.4190  -23.3990   16.8210 C   0  0  0  0  0  1  0  0  0  0  0  0
  -28.7860  -22.9920   18.0950 N   0  0  0  0  0  0  0  0  0  0  0  0
  -27.9410  -24.0640   18.7580 C   0  0  0  0  0  2  0  0  0  0  0  0
  -28.6190  -25.0930   19.8100 C   0  0  0  0  0  2  0  0  0  0  0  0
  -28.4290  -26.5800   19.9790 O   0  0  0  0  0  0  0  0  0  0  0  0
  -24.5840  -31.8920   23.2350 C   0  0  0  0  0  0  0  0  0  0  0  0
  -27.2360  -27.3310   20.1100 C   0  0  0  0  0  0  0  0  0  0  0  0
  -23.3820  -30.4790   21.6010 C   0  0  0  0  0  3  0  0  0  0  0  0
  -24.8360  -28.8960   20.2310 C   0  0  0  0  0  0  0  0  0  0  0  0
  -25.9280  -30.8170   21.4300 C   0  0  0  0  0  2  0  0  0  0  0  0
  -26.0140  -29.4210   20.7820 C   0  0  0  0  0  0  0  0  0  0  0  0
  -27.2070  -28.6380   20.7230 C   0  0  0  0  0  3  0  0  0  0  0  0
  -26.0400  -26.8800   19.5450 C   0  0  0  0  0  3  0  0  0  0  0  0
  -24.8560  -27.6180   19.6360 C   0  0  0  0  0  3  0  0  0  0  0  0
  -23.5950  -29.7500   20.2530 C   0  0  0  0  0  2  0  0  0  0  0  0
  -24.6520  -31.0720   22.1410 N   0  0  0  0  0  0  0  0  0  0  0  0
  -23.5010  -32.1690   23.7650 O   0  0  0  0  0  0  0  0  0  0  0  0
  -22.7100  -29.4870   22.5660 C   0  0  0  0  0  0  0  0  0  0  0  0
  -21.3850  -29.3060   22.4180 N   0  0  0  0  0  0  0  0  0  0  0  0
  -23.3810  -28.8740   23.4030 O   0  0  0  0  0  0  0  0  0  0  0  0
  -20.8910  -29.8140   21.6920 H   0  0  0  0  0  0  0  0  0  0  0  0
  -18.0310  -28.0830   22.9200 C   0  0  0  0  0  0  0  0  0  0  0  0
  -20.5820  -28.3700   23.1980 C   0  0  0  0  0  3  0  0  0  0  0  0
  -20.7080  -26.9340   22.6380 C   0  0  0  0  0  2  0  0  0  0  0  0
  -19.6190  -26.5920   21.6190 C   0  0  0  0  0  2  0  0  0  0  0  0
  -18.2280  -26.7310   22.2530 C   0  0  0  0  0  2  0  0  0  0  0  0
  -19.1410  -28.8590   23.3520 C   0  0  0  0  0  0  0  0  0  0  0  0
  -18.9080  -30.1240   23.9360 C   0  0  0  0  0  3  0  0  0  0  0  0
  -17.5980  -30.6110   24.0940 C   0  0  0  0  0  3  0  0  0  0  0  0
  -16.5040  -29.8360   23.6800 C   0  0  0  0  0  3  0  0  0  0  0  0
  -16.7170  -28.5770   23.0970 C   0  0  0  0  0  3  0  0  0  0  0  0
  -25.8640  -32.5240   23.8680 C   0  0  0  0  0  3  0  0  0  0  0  0
  -26.3830  -31.7640   25.1600 C   0  0  1  0  0  0  0  0  0  0  0  0
  -25.2820  -31.5470   26.2240 C   0  0  0  0  0  1  0  0  0  0  0  0
  -26.9650  -30.3700   24.7940 C   0  0  0  0  0  1  0  0  0  0  0  0
  -27.5260  -32.5620   25.8200 C   0  0  0  0  0  1  0  0  0  0  0  0
  -25.5510  -33.9280   24.1980 N   0  0  0  0  0  0  0  0  0  0  0  0
  -25.8900  -34.9790   23.4350 C   0  0  0  0  0  0  0  0  0  0  0  0
  -26.5630  -34.8680   22.4030 O   0  0  0  0  0  0  0  0  0  0  0  0
  -24.9640  -34.0940   25.0010 H   0  0  0  0  0  0  0  0  0  0  0  0
  -24.1810  -36.7890   23.0500 C   0  0  0  0  0  1  0  0  0  0  0  0
  -25.4050  -36.3710   23.8790 C   0  0  0  0  0  3  0  0  0  0  0  0
  -27.5270  -37.2620   24.7300 C   0  0  0  0  0  1  0  0  0  0  0  0
  -26.4390  -37.4210   23.7740 N   0  0  0  0  0  0  0  0  0  0  0  0
  -26.0350  -38.3360   23.9090 H   0  0  0  0  0  0  0  0  0  0  0  0
  -30.4820  -17.4440   19.8480 C   0  0  0  0  0  2  0  0  0  0  0  0
  -30.5770  -14.8530   20.1690 C   0  0  0  0  0  0  0  0  0  0  0  0
  -30.3650  -12.5310   19.3130 C   0  0  0  0  0  2  0  0  0  0  0  0
  -29.4090  -12.5010   18.1030 C   0  0  0  0  0  2  0  0  0  0  0  0
  -27.9570  -12.3200   18.5780 C   0  0  0  0  0  2  0  0  0  0  0  0
  -27.5710  -13.2850   19.7300 C   0  0  0  0  0  3  0  0  0  0  0  0
  -28.6500  -13.3170   20.8330 C   0  0  0  0  0  2  0  0  0  0  0  0
  -29.9220  -13.6460   20.1770 N   0  0  0  0  0  0  0  0  0  0  0  0
  -31.8050  -14.8680   20.0620 O   0  0  0  0  0  0  0  0  0  0  0  0
  -29.8590  -16.0430   19.9780 N   0  0  0  0  0  0  0  0  0  0  0  0
  -28.8590  -15.9900   19.9340 H   0  0  0  0  0  0  0  0  0  0  0  0
  -25.1970  -13.8890   20.4880 C   0  0  0  0  0  0  0  0  0  0  0  0
  -24.1280  -13.1200   20.8580 C   0  0  0  0  0  0  0  0  0  0  0  0
  -24.5870  -11.7670   20.8340 C   0  0  0  0  0  0  0  0  0  0  0  0
  -26.2380  -13.0050   20.2540 N   0  0  0  0  0  0  0  0  0  0  0  0
  -25.8790  -11.7270   20.5320 N   0  0  0  0  0  0  0  0  0  0  0  0
  -23.8570  -10.5070   21.0230 C   0  0  0  0  0  0  0  0  0  0  0  0
  -24.2780   -9.5450   21.9680 C   0  0  0  0  0  3  0  0  0  0  0  0
  -23.5480   -8.3500   22.1440 C   0  0  0  0  0  3  0  0  0  0  0  0
  -22.3840   -8.1070   21.3770 C   0  0  0  0  0  0  0  0  0  0  0  0
  -21.9830   -9.0580   20.4210 C   0  0  0  0  0  3  0  0  0  0  0  0
  -22.7140  -10.2460   20.2420 C   0  0  0  0  0  3  0  0  0  0  0  0
  -21.6270   -6.9640   21.4630 O   0  0  0  0  0  0  0  0  0  0  0  0
  -21.5580   -6.2330   22.6220 C   0  0  0  0  0  0  0  0  0  0  0  0
  -21.1010   -6.7950   23.8330 C   0  0  0  0  0  3  0  0  0  0  0  0
  -20.9800   -5.9890   24.9820 C   0  0  0  0  0  3  0  0  0  0  0  0
  -21.3080   -4.6220   24.9220 C   0  0  0  0  0  0  0  0  0  0  0  0
  -21.7590   -4.0590   23.7150 C   0  0  0  0  0  3  0  0  0  0  0  0
  -21.8800   -4.8620   22.5680 C   0  0  0  0  0  0  0  0  0  0  0  0
  -22.2960   -4.3090   21.4030 F   0  0  0  0  0  0  0  0  0  0  0  0
  -21.1860   -3.8450   26.0240 F   0  0  0  0  0  0  0  0  0  0  0  0
  -22.7310  -13.6020   21.1160 C   0  0  0  0  0  0  0  0  0  0  0  0
  -21.9920  -12.9060   21.9740 N   0  0  0  0  0  0  0  0  0  0  0  0
  -22.3000  -14.6300   20.5950 O   0  0  0  0  0  0  0  0  0  0  0  0
  -22.3540  -12.0750   22.4180 H   0  0  0  0  0  0  0  0  0  0  0  0
  -21.0530  -13.2100   22.1900 H   0  0  0  0  0  0  0  0  0  0  0  0
  -25.3650  -15.2600   20.3030 N   0  0  0  0  0  0  0  0  0  0  0  0
  -24.6000  -15.9160   20.4190 H   0  0  0  0  0  0  0  0  0  0  0  0
  -26.2120  -15.6970   19.9680 H   0  0  0  0  0  0  0  0  0  0  0  0
  1  5  1  0
  2  5  2  0
  3  1  2  0
  4  2  1  0
  5 52  1  0
  6  4  2  0
  6  3  1  0
  7  8  1  0
  8  6  1  0
  8  9  1  0
  9 10  1  0
 10 11  1  0
 11 13  1  0
 12 23  2  0
 13 18  1  0
 14 22  1  0
 14 24  1  0
 15 21  1  0
 15 17  1  0
 16 22  1  0
 17 16  1  0
 18 17  2  0
 19 20  1  0
 19 13  2  0
 20 15  2  0
 21 14  1  0
 22 12  1  0
 24 26  2  0
 25 24  1  0
 27 25  1  0
 28 37  2  0
 28 33  1  0
 29 25  1  0
 29 33  1  0
 30 29  1  0
 31 32  1  0
 31 30  1  0
 32 28  1  0
 33 34  2  0
 34 35  1  0
 36 35  2  0
 37 36  1  0
 38 12  1  0
 38 43  1  0
 38 39  1  0
 39 42  1  1
 39 40  1  0
 41 39  1  0
 43 46  1  0
 44 48  1  0
 44 43  1  0
 45 44  2  0
 48 47  1  0
 50 48  1  0
 50 51  1  0
 50 49  1  0
 52 61  1  0
 53 59  1  0
 54 59  1  0
 55 56  1  0
 55 54  1  0
 57 56  1  0
 57 66  1  0
 57 58  1  0
 59 58  1  0
 60 53  2  0
 61 53  1  0
 62 61  1  0
 63 64  2  0
 64 83  1  0
 65 64  1  0
 65 68  1  0
 66 63  1  0
 66 67  1  0
 67 65  2  0
 68 69  1  0
 69 70  2  0
 71 74  1  0
 71 70  1  0
 72 71  2  0
 73 72  1  0
 73 68  2  0
 74 75  1  0
 75 76  1  0
 76 77  2  0
 78 77  1  0
 78 82  1  0
 79 78  2  0
 80 75  2  0
 80 79  1  0
 81 80  1  0
 83 84  1  0
 84 87  1  0
 84 86  1  0
 85 83  2  0
 88 89  1  0
 88 63  1  0
 90 88  1  0
M  ISO  4  10 101  11 101  53 100  61 100
M  END
>  <TORSDO>  (51) 
F 20

>  <SCORE>  (51) 
-13.670

>  <name>  (51) 
51

>  <ligand_id>  (51) 
51

>  <original_smiles>  (51) 
[H]c1c([H])c([H])c2c(c1[H])C([H])([H])C([H])([H])C([H])([H])C2([H])N([H])C(=O)C1([H])N(C(=O)C([H])(N([H])C(=O)C([H])(N([H])C([H])([H])[H])C([H])([H])[H])C(C([H])([H])[H])(C([H])([H])[H])C([H])([H])[H])C([H])([H])c2c([H])c(OC([H])([H])C([H])([H])N(c3c([H])c([H])c(C([H])([H])N([H])C(=O)N4C([H])([H])C([H])([H])C([H])([H])C([H])(n5nc(-c6c([H])c([H])c(Oc7c([H])c([H])c(F)c([H])c7F)c([H])c6[H])c(C(=O)N([H])[H])c5N([H])[H])C4([H])[H])c([H])c3[H])C([H])([H])[H])c([H])c([H])c2C1([H])[H]

>  <smiles>  (51) 
[H]c1c([H])c([H])c2c(c1[H])C([H])([H])C([H])([H])C([H])([H])C2([H])N([H])C(=O)C1([H])N(C(=O)C([H])(N([H])C(=O)C([H])(N([H])C([H])([H])[H])C([H])([H])[H])C(C([H])([H])[H])(C([H])([H])[H])C([H])([H])[H])C([H])([H])c2c([H])c(OC([H])([H])C([H])([H])N(c3c([H])c([H])c(C([H])([H])N([H])C(=O)N4C([H])([H])C([H])([H])C([H])([H])C([H])(n5nc(-c6c([H])c([H])c(Oc7c([H])c([H])c(F)c([H])c7F)c([H])c6[H])c(C(=O)N([H])[H])c5N([H])[H])C4([H])[H])c([H])c3[H])C([H])([H])[H])c([H])c([H])c2C1([H])[H]

$$$$
52:0:0
     RDKit          3D

 90 98  0  0  1  0  0  0  0  0999 V2000
  -27.9590  -19.5900   20.4260 C   0  0  0  0  0  3  0  0  0  0  0  0
  -30.2410  -20.1070   20.1860 C   0  0  0  0  0  3  0  0  0  0  0  0
  -29.5730  -17.6270   20.3250 C   0  0  0  0  0  0  0  0  0  0  0  0
  -28.9080  -20.6500   20.2970 C   0  0  0  0  0  0  0  0  0  0  0  0
  -28.2650  -18.1830   20.4450 C   0  0  0  0  0  0  0  0  0  0  0  0
  -30.5630  -18.6710   20.1940 C   0  0  0  0  0  0  0  0  0  0  0  0
  -27.2360  -17.3130   20.5820 F   0  0  0  0  0  0  0  0  0  0  0  0
  -31.8640  -18.3110   20.0830 F   0  0  0  0  0  0  0  0  0  0  0  0
  -30.5220  -15.0220   20.0730 C   0  0  0  0  0  0  0  0  0  0  0  0
  -30.3880  -12.7040   19.0560 C   0  0  0  0  0  2  0  0  0  0  0  0
  -29.3830  -12.7150   17.8770 C   0  0  0  0  0  2  0  0  0  0  0  0
  -27.9420  -12.4950   18.3760 C   0  0  0  0  0  2  0  0  0  0  0  0
  -27.6010  -13.3710   19.6110 C   0  0  0  0  0  3  0  0  0  0  0  0
  -28.7160  -13.3120   20.6770 C   0  0  0  0  0  2  0  0  0  0  0  0
  -29.9630  -13.7470   20.0290 N   0  0  0  0  0  0  0  0  0  0  0  0
  -31.6900  -15.1580   19.6980 O   0  0  0  0  0  0  0  0  0  0  0  0
  -29.6650  -16.0990   20.3820 N   0  0  0  0  0  0  0  0  0  0  0  0
  -28.7700  -15.7250   20.6540 H   0  0  0  0  0  0  0  0  0  0  0  0
  -25.2510  -13.9190   20.4740 C   0  0  0  0  0  0  0  0  0  0  0  0
  -24.2070  -13.1310   20.8690 C   0  0  0  0  0  0  0  0  0  0  0  0
  -24.6750  -11.7840   20.7770 C   0  0  0  0  0  0  0  0  0  0  0  0
  -26.2880  -13.0550   20.1630 N   0  0  0  0  0  0  0  0  0  0  0  0
  -25.9500  -11.7610   20.4070 N   0  0  0  0  0  0  0  0  0  0  0  0
  -23.9600  -10.5150   20.9640 C   0  0  0  0  0  0  0  0  0  0  0  0
  -24.3980   -9.5510   21.8990 C   0  0  0  0  0  3  0  0  0  0  0  0
  -23.6800   -8.3480   22.0760 C   0  0  0  0  0  3  0  0  0  0  0  0
  -22.5110   -8.1010   21.3160 C   0  0  0  0  0  0  0  0  0  0  0  0
  -22.0920   -9.0540   20.3710 C   0  0  0  0  0  3  0  0  0  0  0  0
  -22.8110  -10.2480   20.1940 C   0  0  0  0  0  3  0  0  0  0  0  0
  -21.7650   -6.9500   21.4010 O   0  0  0  0  0  0  0  0  0  0  0  0
  -21.6570   -6.2480   22.5750 C   0  0  0  0  0  0  0  0  0  0  0  0
  -21.1100   -6.8250   23.7410 C   0  0  0  0  0  3  0  0  0  0  0  0
  -20.9530   -6.0470   24.9050 C   0  0  0  0  0  3  0  0  0  0  0  0
  -21.3340   -4.6920   24.9040 C   0  0  0  0  0  0  0  0  0  0  0  0
  -21.8730   -4.1130   23.7410 C   0  0  0  0  0  3  0  0  0  0  0  0
  -22.0320   -4.8890   22.5790 C   0  0  0  0  0  0  0  0  0  0  0  0
  -22.5330   -4.3210   21.4560 F   0  0  0  0  0  0  0  0  0  0  0  0
  -21.1750   -3.9420   26.0190 F   0  0  0  0  0  0  0  0  0  0  0  0
  -22.8250  -13.5960   21.2230 C   0  0  0  0  0  0  0  0  0  0  0  0
  -22.1450  -12.8770   22.1090 N   0  0  0  0  0  0  0  0  0  0  0  0
  -22.3590  -14.6330   20.7530 O   0  0  0  0  0  0  0  0  0  0  0  0
  -22.5360  -12.0380   22.5110 H   0  0  0  0  0  0  0  0  0  0  0  0
  -21.2190  -13.1700   22.3890 H   0  0  0  0  0  0  0  0  0  0  0  0
  -25.3880  -15.2940   20.3340 N   0  0  0  0  0  0  0  0  0  0  0  0
  -24.6220  -15.9230   20.5450 H   0  0  0  0  0  0  0  0  0  0  0  0
  -26.2440  -15.7950   20.1240 H   0  0  0  0  0  0  0  0  0  0  0  0
  -28.3740  -22.0150   20.2700 O   0  0  0  0  0  0  0  0  0  0  0  0
  -28.9860  -23.4180   20.2990 C   0  0  0  0  0  3  0  0  0  0  0  0
  -27.9870  -24.7600   20.0990 C   0  0  0  0  0  3  0  0  0  0  0  0
  -28.2730  -26.2790   20.2660 O   0  0  0  0  0  0  0  0  0  0  0  0
  -24.6340  -31.9400   23.2590 C   0  0  0  0  0  0  0  0  0  0  0  0
  -27.2090  -27.2510   20.2060 C   0  0  0  0  0  0  0  0  0  0  0  0
  -23.4300  -30.5530   21.6150 C   0  0  0  0  0  3  0  0  0  0  0  0
  -24.8750  -28.9860   20.1830 C   0  0  0  0  0  0  0  0  0  0  0  0
  -25.9840  -30.8200   21.4490 C   0  0  0  0  0  2  0  0  0  0  0  0
  -26.0570  -29.4330   20.7900 C   0  0  0  0  0  0  0  0  0  0  0  0
  -27.2240  -28.5820   20.7840 C   0  0  0  0  0  3  0  0  0  0  0  0
  -25.9990  -26.9030   19.5640 C   0  0  0  0  0  3  0  0  0  0  0  0
  -24.8590  -27.7340   19.5550 C   0  0  0  0  0  3  0  0  0  0  0  0
  -23.6490  -29.8820   20.2330 C   0  0  0  0  0  2  0  0  0  0  0  0
  -24.7030  -31.1250   22.1620 N   0  0  0  0  0  0  0  0  0  0  0  0
  -23.5480  -32.2240   23.7880 O   0  0  0  0  0  0  0  0  0  0  0  0
  -22.7500  -29.5420   22.5720 C   0  0  0  0  0  0  0  0  0  0  0  0
  -21.4240  -29.3700   22.4380 N   0  0  0  0  0  0  0  0  0  0  0  0
  -23.4200  -28.9150   23.3970 O   0  0  0  0  0  0  0  0  0  0  0  0
  -20.9410  -29.9270   21.7480 H   0  0  0  0  0  0  0  0  0  0  0  0
  -18.0380  -28.1810   22.9380 C   0  0  0  0  0  0  0  0  0  0  0  0
  -20.5980  -28.4320   23.2040 C   0  0  0  0  0  3  0  0  0  0  0  0
  -20.6940  -27.0020   22.6210 C   0  0  0  0  0  2  0  0  0  0  0  0
  -19.5890  -26.6900   21.6070 C   0  0  0  0  0  2  0  0  0  0  0  0
  -18.2080  -26.8360   22.2530 C   0  0  0  0  0  2  0  0  0  0  0  0
  -19.1610  -28.9370   23.3700 C   0  0  0  0  0  0  0  0  0  0  0  0
  -18.9460  -30.1960   23.9730 C   0  0  0  0  0  3  0  0  0  0  0  0
  -17.6440  -30.6990   24.1470 C   0  0  0  0  0  3  0  0  0  0  0  0
  -16.5360  -29.9400   23.7310 C   0  0  0  0  0  3  0  0  0  0  0  0
  -16.7340  -28.6830   23.1320 C   0  0  0  0  0  3  0  0  0  0  0  0
  -25.9130  -32.5690   23.8890 C   0  0  0  0  0  3  0  0  0  0  0  0
  -26.4150  -31.8010   25.1730 C   0  0  1  0  0  0  0  0  0  0  0  0
  -25.3110  -31.5700   26.2310 C   0  0  0  0  0  1  0  0  0  0  0  0
  -26.9980  -30.4190   24.7940 C   0  0  0  0  0  1  0  0  0  0  0  0
  -27.5620  -32.5940   25.8420 C   0  0  0  0  0  1  0  0  0  0  0  0
  -25.6070  -33.9700   24.2180 N   0  0  0  0  0  0  0  0  0  0  0  0
  -25.9140  -35.0210   23.4450 C   0  0  0  0  0  0  0  0  0  0  0  0
  -26.5520  -34.9130   22.3950 O   0  0  0  0  0  0  0  0  0  0  0  0
  -25.0370  -34.1270   25.0360 H   0  0  0  0  0  0  0  0  0  0  0  0
  -24.1600  -36.8030   23.1550 C   0  0  0  0  0  1  0  0  0  0  0  0
  -25.4390  -36.4120   23.9120 C   0  0  0  0  0  3  0  0  0  0  0  0
  -27.5980  -37.3260   24.6440 C   0  0  0  0  0  1  0  0  0  0  0  0
  -26.4600  -37.4710   23.7410 N   0  0  0  0  0  0  0  0  0  0  0  0
  -26.0520  -38.3900   23.8880 H   0  0  0  0  0  0  0  0  0  0  0  0
  1  5  1  0
  2  6  2  0
  2  4  1  0
  3 17  1  0
  3  5  2  0
  4  1  2  0
  5  7  1  0
  6  3  1  0
  8  6  1  0
  9 17  1  0
 10 15  1  0
 11 12  1  0
 11 10  1  0
 13 12  1  0
 13 22  1  0
 13 14  1  0
 15  9  1  0
 15 14  1  0
 16  9  2  0
 17 18  1  0
 19 20  2  0
 20 39  1  0
 21 20  1  0
 21 24  1  0
 22 23  1  0
 22 19  1  0
 23 21  2  0
 24 25  1  0
 25 26  2  0
 27 30  1  0
 27 26  1  0
 28 27  2  0
 29 28  1  0
 29 24  2  0
 30 31  1  0
 31 36  2  0
 31 32  1  0
 32 33  2  0
 34 33  1  0
 34 38  1  0
 35 34  2  0
 36 35  1  0
 37 36  1  0
 39 40  1  0
 40 43  1  0
 40 42  1  0
 41 39  2  0
 44 19  1  0
 44 45  1  0
 46 44  1  0
 47  4  1  0
 47 48  1  0
 49 50  1  0
 49 48  2  0
 51 62  2  0
 52 50  1  0
 52 57  1  0
 53 61  1  0
 53 63  1  0
 54 60  1  0
 54 56  1  0
 55 61  1  0
 56 55  1  0
 57 56  2  0
 58 52  2  0
 59 58  1  0
 59 54  2  0
 60 53  1  0
 61 51  1  0
 63 65  2  0
 64 63  1  0
 66 64  1  0
 67 76  2  0
 67 72  1  0
 68 64  1  0
 68 72  1  0
 69 68  1  0
 70 71  1  0
 70 69  1  0
 71 67  1  0
 72 73  2  0
 73 74  1  0
 75 74  2  0
 76 75  1  0
 77 51  1  0
 77 82  1  0
 77 78  1  0
 78 81  1  1
 78 79  1  0
 80 78  1  0
 82 85  1  0
 83 87  1  0
 83 82  1  0
 84 83  2  0
 87 86  1  0
 89 90  1  0
 89 87  1  0
 89 88  1  0
M  ISO  4   9 100  17 100  49 101  50 101
M  END
>  <TORSDO>  (52) 
F 19

>  <SCORE>  (52) 
-14.290

>  <name>  (52) 
52

>  <ligand_id>  (52) 
52

>  <original_smiles>  (52) 
[H]c1c([H])c([H])c2c(c1[H])C([H])([H])C([H])([H])C([H])([H])C2([H])N([H])C(=O)C1([H])N(C(=O)C([H])(N([H])C(=O)C([H])(N([H])C([H])([H])[H])C([H])([H])[H])C(C([H])([H])[H])(C([H])([H])[H])C([H])([H])[H])C([H])([H])c2c([H])c(OC([H])([H])C([H])([H])Oc3c([H])c(F)c(N([H])C(=O)N4C([H])([H])C([H])([H])C([H])([H])C([H])(n5nc(-c6c([H])c([H])c(Oc7c([H])c([H])c(F)c([H])c7F)c([H])c6[H])c(C(=O)N([H])[H])c5N([H])[H])C4([H])[H])c(F)c3[H])c([H])c([H])c2C1([H])[H]

>  <smiles>  (52) 
[H]c1c([H])c([H])c2c(c1[H])C([H])([H])C([H])([H])C([H])([H])C2([H])N([H])C(=O)C1([H])N(C(=O)C([H])(N([H])C(=O)C([H])(N([H])C([H])([H])[H])C([H])([H])[H])C(C([H])([H])[H])(C([H])([H])[H])C([H])([H])[H])C([H])([H])c2c([H])c(OC([H])([H])C([H])([H])Oc3c([H])c(F)c(N([H])C(=O)N4C([H])([H])C([H])([H])C([H])([H])C([H])(n5nc(-c6c([H])c([H])c(Oc7c([H])c([H])c(F)c([H])c7F)c([H])c6[H])c(C(=O)N([H])[H])c5N([H])[H])C4([H])[H])c(F)c3[H])c([H])c([H])c2C1([H])[H]

$$$$
53:0:0
     RDKit          3D

 90 98  0  0  1  0  0  0  0  0999 V2000
  -30.6690  -18.6020   20.1120 C   0  0  0  0  0  3  0  0  0  0  0  0
  -30.3670  -20.0380   19.9990 C   0  0  0  0  0  3  0  0  0  0  0  0
  -29.6720  -17.5580   20.0590 C   0  0  0  0  0  0  0  0  0  0  0  0
  -29.0420  -20.5790   19.8110 C   0  0  0  0  0  0  0  0  0  0  0  0
  -28.3690  -18.1180   19.8910 C   0  0  0  0  0  0  0  0  0  0  0  0
  -28.0750  -19.5260   19.7620 C   0  0  0  0  0  0  0  0  0  0  0  0
  -27.3290  -17.2550   19.8420 F   0  0  0  0  0  0  0  0  0  0  0  0
  -26.7780  -19.8770   19.5810 F   0  0  0  0  0  0  0  0  0  0  0  0
  -30.5990  -14.9350   19.8900 C   0  0  0  0  0  0  0  0  0  0  0  0
  -30.4260  -12.5890   18.9470 C   0  0  0  0  0  2  0  0  0  0  0  0
  -29.4050  -12.5780   17.7840 C   0  0  0  0  0  2  0  0  0  0  0  0
  -27.9660  -12.3950   18.3090 C   0  0  0  0  0  2  0  0  0  0  0  0
  -27.6550  -13.3110   19.5210 C   0  0  0  0  0  3  0  0  0  0  0  0
  -28.7860  -13.2660   20.5740 C   0  0  0  0  0  2  0  0  0  0  0  0
  -30.0280  -13.6650   19.8950 N   0  0  0  0  0  0  0  0  0  0  0  0
  -31.7650  -15.0520   19.5000 O   0  0  0  0  0  0  0  0  0  0  0  0
  -29.7530  -16.0310   20.1670 N   0  0  0  0  0  0  0  0  0  0  0  0
  -28.8600  -15.6630   20.4600 H   0  0  0  0  0  0  0  0  0  0  0  0
  -25.3350  -13.9230   20.4260 C   0  0  0  0  0  0  0  0  0  0  0  0
  -24.2810  -13.1620   20.8470 C   0  0  0  0  0  0  0  0  0  0  0  0
  -24.7120  -11.8040   20.7510 C   0  0  0  0  0  0  0  0  0  0  0  0
  -26.3450  -13.0310   20.0990 N   0  0  0  0  0  0  0  0  0  0  0  0
  -25.9800  -11.7480   20.3560 N   0  0  0  0  0  0  0  0  0  0  0  0
  -23.9680  -10.5550   20.9560 C   0  0  0  0  0  0  0  0  0  0  0  0
  -24.4250   -9.5600   21.8480 C   0  0  0  0  0  3  0  0  0  0  0  0
  -23.6800   -8.3770   22.0420 C   0  0  0  0  0  3  0  0  0  0  0  0
  -22.4650   -8.1810   21.3460 C   0  0  0  0  0  0  0  0  0  0  0  0
  -22.0260   -9.1650   20.4420 C   0  0  0  0  0  3  0  0  0  0  0  0
  -22.7700  -10.3390   20.2460 C   0  0  0  0  0  3  0  0  0  0  0  0
  -21.6890   -7.0520   21.4520 O   0  0  0  0  0  0  0  0  0  0  0  0
  -21.6680   -6.3000   22.5990 C   0  0  0  0  0  0  0  0  0  0  0  0
  -21.2650   -6.8440   23.8390 C   0  0  0  0  0  3  0  0  0  0  0  0
  -21.1910   -6.0180   24.9780 C   0  0  0  0  0  3  0  0  0  0  0  0
  -21.5070   -4.6500   24.8790 C   0  0  0  0  0  0  0  0  0  0  0  0
  -21.9030   -4.1050   23.6440 C   0  0  0  0  0  3  0  0  0  0  0  0
  -21.9800   -4.9290   22.5070 C   0  0  0  0  0  0  0  0  0  0  0  0
  -22.3410   -4.3950   21.3160 F   0  0  0  0  0  0  0  0  0  0  0  0
  -21.4280   -3.8540   25.9720 F   0  0  0  0  0  0  0  0  0  0  0  0
  -22.9180  -13.6650   21.2250 C   0  0  0  0  0  0  0  0  0  0  0  0
  -22.2370  -12.9710   22.1300 N   0  0  0  0  0  0  0  0  0  0  0  0
  -22.4690  -14.7110   20.7560 O   0  0  0  0  0  0  0  0  0  0  0  0
  -22.6150  -12.1240   22.5310 H   0  0  0  0  0  0  0  0  0  0  0  0
  -21.3270  -13.2910   22.4290 H   0  0  0  0  0  0  0  0  0  0  0  0
  -25.5040  -15.2930   20.2730 N   0  0  0  0  0  0  0  0  0  0  0  0
  -24.7530  -15.9410   20.4790 H   0  0  0  0  0  0  0  0  0  0  0  0
  -26.3520  -15.7620   19.9820 H   0  0  0  0  0  0  0  0  0  0  0  0
  -28.5430  -21.9450   19.6200 O   0  0  0  0  0  0  0  0  0  0  0  0
  -29.1170  -23.3450   19.8410 C   0  0  0  0  0  3  0  0  0  0  0  0
  -28.1400  -24.6920   19.5680 C   0  0  0  0  0  3  0  0  0  0  0  0
  -28.3730  -26.1970   19.8780 O   0  0  0  0  0  0  0  0  0  0  0  0
  -24.5400  -31.6140   23.0790 C   0  0  0  0  0  0  0  0  0  0  0  0
  -27.2840  -27.1420   19.8480 C   0  0  0  0  0  0  0  0  0  0  0  0
  -23.3980  -30.2730   21.3550 C   0  0  0  0  0  3  0  0  0  0  0  0
  -24.9050  -28.8140   19.8750 C   0  0  0  0  0  0  0  0  0  0  0  0
  -25.9470  -30.6140   21.2420 C   0  0  0  0  0  2  0  0  0  0  0  0
  -26.0650  -29.2630   20.5190 C   0  0  0  0  0  0  0  0  0  0  0  0
  -27.2550  -28.4440   20.4880 C   0  0  0  0  0  3  0  0  0  0  0  0
  -26.0920  -26.7910   19.1750 C   0  0  0  0  0  3  0  0  0  0  0  0
  -24.9300  -27.5920   19.1880 C   0  0  0  0  0  3  0  0  0  0  0  0
  -23.6550  -29.6760   19.9470 C   0  0  0  0  0  2  0  0  0  0  0  0
  -24.6470  -30.8520   21.9480 N   0  0  0  0  0  0  0  0  0  0  0  0
  -23.4390  -31.8420   23.6050 O   0  0  0  0  0  0  0  0  0  0  0  0
  -22.7340  -29.2000   22.2540 C   0  0  0  0  0  0  0  0  0  0  0  0
  -21.4070  -29.0260   22.1240 N   0  0  0  0  0  0  0  0  0  0  0  0
  -23.4160  -28.5290   23.0330 O   0  0  0  0  0  0  0  0  0  0  0  0
  -20.9130  -29.6210   21.4730 H   0  0  0  0  0  0  0  0  0  0  0  0
  -18.0290  -27.8110   22.6170 C   0  0  0  0  0  0  0  0  0  0  0  0
  -20.5960  -28.0370   22.8390 C   0  0  0  0  0  3  0  0  0  0  0  0
  -20.6720  -26.6530   22.1540 C   0  0  0  0  0  2  0  0  0  0  0  0
  -19.5430  -26.4150   21.1460 C   0  0  0  0  0  2  0  0  0  0  0  0
  -18.1780  -26.5180   21.8330 C   0  0  0  0  0  2  0  0  0  0  0  0
  -19.1640  -28.5320   23.0760 C   0  0  0  0  0  0  0  0  0  0  0  0
  -18.9690  -29.7450   23.7710 C   0  0  0  0  0  3  0  0  0  0  0  0
  -17.6720  -30.2370   24.0120 C   0  0  0  0  0  3  0  0  0  0  0  0
  -16.5520  -29.5120   23.5680 C   0  0  0  0  0  3  0  0  0  0  0  0
  -16.7320  -28.3010   22.8750 C   0  0  0  0  0  3  0  0  0  0  0  0
  -25.7930  -32.2490   23.7540 C   0  0  0  0  0  3  0  0  0  0  0  0
  -26.2710  -31.4660   25.0390 C   0  0  1  0  0  0  0  0  0  0  0  0
  -25.1460  -31.2110   26.0680 C   0  0  0  0  0  1  0  0  0  0  0  0
  -26.8740  -30.0950   24.6550 C   0  0  0  0  0  1  0  0  0  0  0  0
  -27.3960  -32.2570   25.7460 C   0  0  0  0  0  1  0  0  0  0  0  0
  -25.4580  -33.6400   24.0990 N   0  0  0  0  0  0  0  0  0  0  0  0
  -25.7770  -34.7100   23.3570 C   0  0  0  0  0  0  0  0  0  0  0  0
  -26.4520  -34.6310   22.3280 O   0  0  0  0  0  0  0  0  0  0  0  0
  -24.8630  -33.7740   24.9020 H   0  0  0  0  0  0  0  0  0  0  0  0
  -24.0110  -36.4750   23.0430 C   0  0  0  0  0  1  0  0  0  0  0  0
  -25.2710  -36.0850   23.8350 C   0  0  0  0  0  3  0  0  0  0  0  0
  -27.3900  -37.0110   24.6560 C   0  0  0  0  0  1  0  0  0  0  0  0
  -26.2810  -37.1590   23.7180 N   0  0  0  0  0  0  0  0  0  0  0  0
  -25.8570  -38.0700   23.8710 H   0  0  0  0  0  0  0  0  0  0  0  0
  2  1  2  0
  3  1  1  0
  3 17  1  0
  4  2  1  0
  5  3  2  0
  6  4  2  0
  6  5  1  0
  7  5  1  0
  8  6  1  0
  9 15  1  0
  9 17  1  0
 10 15  1  0
 11 12  1  0
 11 10  1  0
 13 12  1  0
 13 22  1  0
 13 14  1  0
 15 14  1  0
 16  9  2  0
 17 18  1  0
 19 20  2  0
 20 39  1  0
 21 20  1  0
 21 24  1  0
 22 23  1  0
 22 19  1  0
 23 21  2  0
 24 25  1  0
 25 26  2  0
 27 30  1  0
 27 26  1  0
 28 27  2  0
 29 28  1  0
 29 24  2  0
 30 31  1  0
 31 32  1  0
 32 33  2  0
 34 33  1  0
 34 38  1  0
 35 34  2  0
 36 31  2  0
 36 35  1  0
 37 36  1  0
 39 40  1  0
 40 43  1  0
 40 42  1  0
 41 39  2  0
 44 19  1  0
 44 45  1  0
 46 44  1  0
 47  4  1  0
 47 48  1  0
 49 48  2  0
 49 50  1  0
 51 62  2  0
 52 50  1  0
 52 57  1  0
 53 61  1  0
 53 63  1  0
 54 60  1  0
 54 56  1  0
 55 61  1  0
 56 55  1  0
 57 56  2  0
 58 59  1  0
 58 52  2  0
 59 54  2  0
 60 53  1  0
 61 51  1  0
 63 65  2  0
 64 63  1  0
 66 64  1  0
 67 76  2  0
 67 72  1  0
 68 64  1  0
 68 72  1  0
 69 68  1  0
 70 71  1  0
 70 69  1  0
 71 67  1  0
 72 73  2  0
 73 74  1  0
 75 74  2  0
 76 75  1  0
 77 51  1  0
 77 82  1  0
 77 78  1  0
 78 81  1  1
 78 79  1  0
 80 78  1  0
 82 85  1  0
 83 87  1  0
 83 82  1  0
 84 83  2  0
 87 86  1  0
 89 87  1  0
 89 90  1  0
 89 88  1  0
M  ISO  4   9 100  17 100  49 101  50 101
M  END
>  <TORSDO>  (53) 
F 19

>  <SCORE>  (53) 
-13.791

>  <name>  (53) 
53

>  <ligand_id>  (53) 
53

>  <original_smiles>  (53) 
[H]c1c([H])c([H])c2c(c1[H])C([H])([H])C([H])([H])C([H])([H])C2([H])N([H])C(=O)C1([H])N(C(=O)C([H])(N([H])C(=O)C([H])(N([H])C([H])([H])[H])C([H])([H])[H])C(C([H])([H])[H])(C([H])([H])[H])C([H])([H])[H])C([H])([H])c2c([H])c(OC([H])([H])C([H])([H])Oc3c([H])c([H])c(N([H])C(=O)N4C([H])([H])C([H])([H])C([H])([H])C([H])(n5nc(-c6c([H])c([H])c(Oc7c([H])c([H])c(F)c([H])c7F)c([H])c6[H])c(C(=O)N([H])[H])c5N([H])[H])C4([H])[H])c(F)c3F)c([H])c([H])c2C1([H])[H]

>  <smiles>  (53) 
[H]c1c([H])c([H])c2c(c1[H])C([H])([H])C([H])([H])C([H])([H])C2([H])N([H])C(=O)C1([H])N(C(=O)C([H])(N([H])C(=O)C([H])(N([H])C([H])([H])[H])C([H])([H])[H])C(C([H])([H])[H])(C([H])([H])[H])C([H])([H])[H])C([H])([H])c2c([H])c(OC([H])([H])C([H])([H])Oc3c([H])c([H])c(N([H])C(=O)N4C([H])([H])C([H])([H])C([H])([H])C([H])(n5nc(-c6c([H])c([H])c(Oc7c([H])c([H])c(F)c([H])c7F)c([H])c6[H])c(C(=O)N([H])[H])c5N([H])[H])C4([H])[H])c(F)c3F)c([H])c([H])c2C1([H])[H]

$$$$
54:0:0
     RDKit          3D

 88 96  0  0  1  0  0  0  0  0999 V2000
  -29.0230  -22.6670   21.6450 C   0  0  0  0  0  3  0  0  0  0  0  0
  -29.4850  -21.4740   22.2750 C   0  0  0  0  0  3  0  0  0  0  0  0
  -28.9570  -21.3490   19.6320 C   0  0  0  0  0  3  0  0  0  0  0  0
  -28.7020  -22.7470   20.2730 C   0  0  0  0  0  0  0  0  0  0  0  0
  -29.4700  -20.0130   20.2530 C   0  0  0  0  0  0  0  0  0  0  0  0
  -29.6970  -20.2200   21.6320 C   0  0  0  0  0  0  0  0  0  0  0  0
  -30.1600  -19.1890   22.3780 F   0  0  0  0  0  0  0  0  0  0  0  0
  -29.9320  -18.4340   19.5900 C   0  0  0  0  0  2  0  0  0  0  0  0
  -30.6480  -15.5330   19.8500 C   0  0  0  0  0  0  0  0  0  0  0  0
  -30.6320  -13.0660   19.0000 C   0  0  0  0  0  2  0  0  0  0  0  0
  -29.6460  -12.8230   17.8260 C   0  0  0  0  0  2  0  0  0  0  0  0
  -28.2350  -12.5160   18.3570 C   0  0  0  0  0  2  0  0  0  0  0  0
  -27.8340  -13.4710   19.5070 C   0  0  0  0  0  3  0  0  0  0  0  0
  -28.9440  -13.6560   20.5640 C   0  0  0  0  0  2  0  0  0  0  0  0
  -30.1170  -14.2020   19.8600 N   0  0  0  0  0  0  0  0  0  0  0  0
  -31.8330  -15.5480   19.4820 O   0  0  0  0  0  0  0  0  0  0  0  0
  -29.8770  -16.8020   20.0480 N   0  0  0  0  0  0  0  0  0  0  0  0
  -28.9660  -16.5800   20.4250 H   0  0  0  0  0  0  0  0  0  0  0  0
  -25.5240  -13.9790   20.4500 C   0  0  0  0  0  0  0  0  0  0  0  0
  -24.4950  -13.1820   20.8670 C   0  0  0  0  0  0  0  0  0  0  0  0
  -24.9640  -11.8370   20.7520 C   0  0  0  0  0  0  0  0  0  0  0  0
  -26.5490  -13.1220   20.0990 N   0  0  0  0  0  0  0  0  0  0  0  0
  -26.2310  -11.8240   20.3470 N   0  0  0  0  0  0  0  0  0  0  0  0
  -24.2570  -10.5640   20.9450 C   0  0  0  0  0  0  0  0  0  0  0  0
  -24.6880   -9.6150   21.8980 C   0  0  0  0  0  3  0  0  0  0  0  0
  -23.9770   -8.4090   22.0810 C   0  0  0  0  0  3  0  0  0  0  0  0
  -22.8200   -8.1440   21.3110 C   0  0  0  0  0  0  0  0  0  0  0  0
  -22.4080   -9.0810   20.3470 C   0  0  0  0  0  3  0  0  0  0  0  0
  -23.1200  -10.2780   20.1630 C   0  0  0  0  0  3  0  0  0  0  0  0
  -22.0810   -6.9880   21.4010 O   0  0  0  0  0  0  0  0  0  0  0  0
  -21.9260   -6.3250   22.5920 C   0  0  0  0  0  0  0  0  0  0  0  0
  -21.3260   -6.9370   23.7130 C   0  0  0  0  0  3  0  0  0  0  0  0
  -21.1230   -6.1970   24.8950 C   0  0  0  0  0  3  0  0  0  0  0  0
  -21.5090   -4.8450   24.9550 C   0  0  0  0  0  0  0  0  0  0  0  0
  -22.1010   -4.2310   23.8370 C   0  0  0  0  0  3  0  0  0  0  0  0
  -22.3050   -4.9690   22.6570 C   0  0  0  0  0  0  0  0  0  0  0  0
  -22.8570   -4.3670   21.5760 F   0  0  0  0  0  0  0  0  0  0  0  0
  -21.3080   -4.1310   26.0870 F   0  0  0  0  0  0  0  0  0  0  0  0
  -23.1190  -13.6390   21.2510 C   0  0  0  0  0  0  0  0  0  0  0  0
  -22.4620  -12.9190   22.1530 N   0  0  0  0  0  0  0  0  0  0  0  0
  -22.6380  -14.6730   20.7870 O   0  0  0  0  0  0  0  0  0  0  0  0
  -22.8670  -12.0830   22.5480 H   0  0  0  0  0  0  0  0  0  0  0  0
  -21.5420  -13.2080   22.4530 H   0  0  0  0  0  0  0  0  0  0  0  0
  -25.6640  -15.3570   20.3100 N   0  0  0  0  0  0  0  0  0  0  0  0
  -24.8980  -15.9970   20.4890 H   0  0  0  0  0  0  0  0  0  0  0  0
  -26.4670  -15.8110   19.8920 H   0  0  0  0  0  0  0  0  0  0  0  0
  -27.9620  -24.2590   19.7190 C   0  0  0  0  0  2  0  0  0  0  0  0
  -28.1300  -25.8760   20.1040 O   0  0  0  0  0  0  0  0  0  0  0  0
  -24.6480  -31.9110   23.0940 C   0  0  0  0  0  0  0  0  0  0  0  0
  -27.1360  -27.0040   20.0120 C   0  0  0  0  0  0  0  0  0  0  0  0
  -23.4150  -30.5070   21.4920 C   0  0  0  0  0  3  0  0  0  0  0  0
  -24.8320  -28.9030   20.0270 C   0  0  0  0  0  0  0  0  0  0  0  0
  -25.9770  -30.7170   21.2770 C   0  0  0  0  0  2  0  0  0  0  0  0
  -26.0340  -29.3030   20.6200 C   0  0  0  0  0  0  0  0  0  0  0  0
  -27.1740  -28.3730   20.5950 C   0  0  0  0  0  3  0  0  0  0  0  0
  -25.9050  -26.7750   19.3530 C   0  0  0  0  0  3  0  0  0  0  0  0
  -24.7950  -27.6620   19.3700 C   0  0  0  0  0  3  0  0  0  0  0  0
  -23.6110  -29.8220   20.1100 C   0  0  0  0  0  2  0  0  0  0  0  0
  -24.7040  -31.0740   22.0070 N   0  0  0  0  0  0  0  0  0  0  0  0
  -23.5710  -32.1970   23.6450 O   0  0  0  0  0  0  0  0  0  0  0  0
  -22.7520  -29.5110   22.4800 C   0  0  0  0  0  0  0  0  0  0  0  0
  -21.4280  -29.2940   22.3560 N   0  0  0  0  0  0  0  0  0  0  0  0
  -23.4340  -28.9330   23.3300 O   0  0  0  0  0  0  0  0  0  0  0  0
  -20.9270  -29.8130   21.6490 H   0  0  0  0  0  0  0  0  0  0  0  0
  -18.1020  -27.9250   22.8450 C   0  0  0  0  0  0  0  0  0  0  0  0
  -20.6390  -28.3450   23.1480 C   0  0  0  0  0  3  0  0  0  0  0  0
  -20.8300  -26.8990   22.6370 C   0  0  0  0  0  2  0  0  0  0  0  0
  -19.7710  -26.4750   21.6140 C   0  0  0  0  0  2  0  0  0  0  0  0
  -18.3690  -26.5640   22.2230 C   0  0  0  0  0  2  0  0  0  0  0  0
  -19.1670  -28.7670   23.2640 C   0  0  0  0  0  0  0  0  0  0  0  0
  -18.8630  -30.0340   23.8080 C   0  0  0  0  0  3  0  0  0  0  0  0
  -17.5270  -30.4620   23.9340 C   0  0  0  0  0  3  0  0  0  0  0  0
  -16.4770  -29.6190   23.5280 C   0  0  0  0  0  3  0  0  0  0  0  0
  -16.7660  -28.3530   22.9900 C   0  0  0  0  0  3  0  0  0  0  0  0
  -25.9320  -32.5630   23.6910 C   0  0  0  0  0  3  0  0  0  0  0  0
  -25.6090  -33.9560   24.0520 N   0  0  0  0  0  0  0  0  0  0  0  0
  -25.9300  -35.0340   23.3240 C   0  0  0  0  0  0  0  0  0  0  0  0
  -26.5920  -34.9620   22.2850 O   0  0  0  0  0  0  0  0  0  0  0  0
  -25.0200  -34.0850   24.8610 H   0  0  0  0  0  0  0  0  0  0  0  0
  -24.2130  -36.8510   23.0190 C   0  0  0  0  0  1  0  0  0  0  0  0
  -25.4450  -36.4100   23.8250 C   0  0  0  0  0  3  0  0  0  0  0  0
  -27.5690  -37.2680   24.7140 C   0  0  0  0  0  1  0  0  0  0  0  0
  -26.4830  -37.4640   23.7570 N   0  0  0  0  0  0  0  0  0  0  0  0
  -26.0770  -38.3820   23.9200 H   0  0  0  0  0  0  0  0  0  0  0  0
  -26.4880  -31.7940   24.9510 C   0  0  1  0  0  0  0  0  0  0  0  0
  -25.4190  -31.5180   26.0360 C   0  0  0  0  0  1  0  0  0  0  0  0
  -27.1010  -30.4350   24.5460 C   0  0  0  0  0  1  0  0  0  0  0  0
  -27.6290  -32.6110   25.6030 C   0  0  0  0  0  1  0  0  0  0  0  0
  1  2  1  0
  3  5  2  0
  3  4  1  0
  4  1  2  0
  5  6  1  0
  6  2  2  0
  6  7  1  0
  8 17  1  0
  8  5  1  0
  9 15  1  0
  9 17  1  0
 10 15  1  0
 11 12  1  0
 11 10  1  0
 13 12  1  0
 13 22  1  0
 13 14  1  0
 15 14  1  0
 16  9  2  0
 17 18  1  0
 19 20  2  0
 20 39  1  0
 21 20  1  0
 21 24  1  0
 22 23  1  0
 22 19  1  0
 23 21  2  0
 24 25  1  0
 25 26  2  0
 27 30  1  0
 27 26  1  0
 28 27  2  0
 29 28  1  0
 29 24  2  0
 30 31  1  0
 31 36  2  0
 31 32  1  0
 32 33  2  0
 33 34  1  0
 34 38  1  0
 35 34  2  0
 36 35  1  0
 37 36  1  0
 39 40  1  0
 40 43  1  0
 40 42  1  0
 41 39  2  0
 44 19  1  0
 44 45  1  0
 46 44  1  0
 47 48  1  0
 47  4  1  0
 49 60  2  0
 50 48  1  0
 50 55  1  0
 51 59  1  0
 51 61  1  0
 52 58  1  0
 52 54  1  0
 53 59  1  0
 54 53  1  0
 55 54  2  0
 56 57  1  0
 56 50  2  0
 57 52  2  0
 58 51  1  0
 59 49  1  0
 61 63  2  0
 62 61  1  0
 64 62  1  0
 65 74  2  0
 65 70  1  0
 66 62  1  0
 66 70  1  0
 67 66  1  0
 68 69  1  0
 68 67  1  0
 69 65  1  0
 70 71  2  0
 71 72  1  0
 73 72  2  0
 74 73  1  0
 75 49  1  0
 75 76  1  0
 75 85  1  0
 76 79  1  0
 77 81  1  0
 77 76  1  0
 78 77  2  0
 81 80  1  0
 83 81  1  0
 83 84  1  0
 83 82  1  0
 85 88  1  1
 85 86  1  0
 87 85  1  0
M  ISO  4   9 100  17 100  47 101  48 101
M  END
>  <TORSDO>  (54) 
F 18

>  <SCORE>  (54) 
-15.779

>  <name>  (54) 
54

>  <ligand_id>  (54) 
54

>  <original_smiles>  (54) 
[H]c1c([H])c([H])c2c(c1[H])C([H])([H])C([H])([H])C([H])([H])C2([H])N([H])C(=O)C1([H])N(C(=O)C([H])(N([H])C(=O)C([H])(N([H])C([H])([H])[H])C([H])([H])[H])C(C([H])([H])[H])(C([H])([H])[H])C([H])([H])[H])C([H])([H])c2c([H])c(OC([H])([H])c3c([H])c([H])c(F)c(C([H])([H])N([H])C(=O)N4C([H])([H])C([H])([H])C([H])([H])C([H])(n5nc(-c6c([H])c([H])c(Oc7c([H])c([H])c(F)c([H])c7F)c([H])c6[H])c(C(=O)N([H])[H])c5N([H])[H])C4([H])[H])c3[H])c([H])c([H])c2C1([H])[H]

>  <smiles>  (54) 
[H]c1c([H])c([H])c2c(c1[H])C([H])([H])C([H])([H])C([H])([H])C2([H])N([H])C(=O)C1([H])N(C(=O)C([H])(N([H])C(=O)C([H])(N([H])C([H])([H])[H])C([H])([H])[H])C(C([H])([H])[H])(C([H])([H])[H])C([H])([H])[H])C([H])([H])c2c([H])c(OC([H])([H])c3c([H])c([H])c(F)c(C([H])([H])N([H])C(=O)N4C([H])([H])C([H])([H])C([H])([H])C([H])(n5nc(-c6c([H])c([H])c(Oc7c([H])c([H])c(F)c([H])c7F)c([H])c6[H])c(C(=O)N([H])[H])c5N([H])[H])C4([H])[H])c3[H])c([H])c([H])c2C1([H])[H]

$$$$
55:0:0
     RDKit          3D

 87 95  0  0  1  0  0  0  0  0999 V2000
  -29.4740  -21.3680   21.0420 C   0  0  0  0  0  3  0  0  0  0  0  0
  -29.8190  -19.8650   21.0410 C   0  0  0  0  0  3  0  0  0  0  0  0
  -28.1230  -21.0360   19.3060 C   0  0  0  0  0  3  0  0  0  0  0  0
  -28.5650  -22.1730   20.1610 C   0  0  0  0  0  0  0  0  0  0  0  0
  -29.3370  -18.7380   20.1720 C   0  0  0  0  0  0  0  0  0  0  0  0
  -28.4400  -19.5460   19.3040 C   0  0  0  0  0  0  0  0  0  0  0  0
  -27.7710  -18.8280   18.3660 F   0  0  0  0  0  0  0  0  0  0  0  0
  -30.2700  -15.7040   20.1710 C   0  0  0  0  0  0  0  0  0  0  0  0
  -30.3830  -13.1740   19.3280 C   0  0  0  0  0  2  0  0  0  0  0  0
  -29.4680  -12.7730   18.1340 C   0  0  0  0  0  2  0  0  0  0  0  0
  -28.0490  -12.4210   18.6120 C   0  0  0  0  0  2  0  0  0  0  0  0
  -27.5540  -13.4080   19.6950 C   0  0  0  0  0  3  0  0  0  0  0  0
  -28.6090  -13.7050   20.7850 C   0  0  0  0  0  2  0  0  0  0  0  0
  -29.7630  -14.3370   20.1040 N   0  0  0  0  0  0  0  0  0  0  0  0
  -31.5030  -15.6750   20.0070 O   0  0  0  0  0  0  0  0  0  0  0  0
  -29.4380  -17.0170   20.1980 N   0  0  0  0  0  0  0  0  0  0  0  0
  -28.4920  -16.6790   20.1140 H   0  0  0  0  0  0  0  0  0  0  0  0
  -25.1990  -13.9070   20.5110 C   0  0  0  0  0  0  0  0  0  0  0  0
  -24.1550  -13.1120   20.8900 C   0  0  0  0  0  0  0  0  0  0  0  0
  -24.6410  -11.7690   20.8400 C   0  0  0  0  0  0  0  0  0  0  0  0
  -26.2490  -13.0510   20.2390 N   0  0  0  0  0  0  0  0  0  0  0  0
  -25.9280  -11.7570   20.5040 N   0  0  0  0  0  0  0  0  0  0  0  0
  -23.9300  -10.4970   21.0290 C   0  0  0  0  0  0  0  0  0  0  0  0
  -24.3770   -9.5290   21.9560 C   0  0  0  0  0  3  0  0  0  0  0  0
  -23.6580   -8.3260   22.1370 C   0  0  0  0  0  3  0  0  0  0  0  0
  -22.4790   -8.0840   21.3930 C   0  0  0  0  0  0  0  0  0  0  0  0
  -22.0520   -9.0410   20.4560 C   0  0  0  0  0  3  0  0  0  0  0  0
  -22.7710  -10.2340   20.2720 C   0  0  0  0  0  3  0  0  0  0  0  0
  -21.7330   -6.9320   21.4830 O   0  0  0  0  0  0  0  0  0  0  0  0
  -21.6910   -6.1900   22.6350 C   0  0  0  0  0  0  0  0  0  0  0  0
  -21.2450   -6.7380   23.8590 C   0  0  0  0  0  3  0  0  0  0  0  0
  -21.1510   -5.9210   25.0030 C   0  0  0  0  0  3  0  0  0  0  0  0
  -21.4920   -4.5580   24.9280 C   0  0  0  0  0  0  0  0  0  0  0  0
  -21.9330   -4.0100   23.7090 C   0  0  0  0  0  3  0  0  0  0  0  0
  -22.0290   -4.8230   22.5670 C   0  0  0  0  0  0  0  0  0  0  0  0
  -22.4320   -4.2840   21.3910 F   0  0  0  0  0  0  0  0  0  0  0  0
  -21.3960   -3.7710   26.0240 F   0  0  0  0  0  0  0  0  0  0  0  0
  -22.7570  -13.5710   21.1800 C   0  0  0  0  0  0  0  0  0  0  0  0
  -22.0460  -12.8700   22.0560 N   0  0  0  0  0  0  0  0  0  0  0  0
  -22.3010  -14.5920   20.6650 O   0  0  0  0  0  0  0  0  0  0  0  0
  -22.4270  -12.0480   22.5020 H   0  0  0  0  0  0  0  0  0  0  0  0
  -21.1090  -13.1650   22.2920 H   0  0  0  0  0  0  0  0  0  0  0  0
  -25.3280  -15.2820   20.3410 N   0  0  0  0  0  0  0  0  0  0  0  0
  -24.5350  -15.9020   20.4650 H   0  0  0  0  0  0  0  0  0  0  0  0
  -26.1370  -15.7530   19.9560 H   0  0  0  0  0  0  0  0  0  0  0  0
  -27.8240  -23.8920   20.1290 C   0  0  0  0  0  2  0  0  0  0  0  0
  -28.1390  -25.5970   20.3340 O   0  0  0  0  0  0  0  0  0  0  0  0
  -24.6660  -31.9000   23.2420 C   0  0  0  0  0  0  0  0  0  0  0  0
  -27.1820  -26.8170   20.2710 C   0  0  0  0  0  0  0  0  0  0  0  0
  -23.4750  -30.5030   21.6080 C   0  0  0  0  0  3  0  0  0  0  0  0
  -24.9190  -28.8470   20.2030 C   0  0  0  0  0  0  0  0  0  0  0  0
  -26.0550  -30.6380   21.4900 C   0  0  0  0  0  2  0  0  0  0  0  0
  -26.1150  -29.2040   20.8380 C   0  0  0  0  0  0  0  0  0  0  0  0
  -27.2330  -28.2170   20.8390 C   0  0  0  0  0  3  0  0  0  0  0  0
  -25.9530  -26.6660   19.5810 C   0  0  0  0  0  3  0  0  0  0  0  0
  -24.8760  -27.6030   19.5520 C   0  0  0  0  0  3  0  0  0  0  0  0
  -23.7140  -29.8000   20.2400 C   0  0  0  0  0  2  0  0  0  0  0  0
  -24.7560  -31.0460   22.1660 N   0  0  0  0  0  0  0  0  0  0  0  0
  -23.5740  -32.2090   23.7490 O   0  0  0  0  0  0  0  0  0  0  0  0
  -22.7510  -29.5330   22.5800 C   0  0  0  0  0  0  0  0  0  0  0  0
  -21.4190  -29.3830   22.4480 N   0  0  0  0  0  0  0  0  0  0  0  0
  -23.3990  -28.9130   23.4270 O   0  0  0  0  0  0  0  0  0  0  0  0
  -20.9460  -29.9320   21.7440 H   0  0  0  0  0  0  0  0  0  0  0  0
  -18.0220  -28.1860   22.9450 C   0  0  0  0  0  0  0  0  0  0  0  0
  -20.5830  -28.4560   23.2220 C   0  0  0  0  0  3  0  0  0  0  0  0
  -20.6850  -27.0170   22.6640 C   0  0  0  0  0  2  0  0  0  0  0  0
  -19.5900  -26.6860   21.6440 C   0  0  0  0  0  2  0  0  0  0  0  0
  -18.2050  -26.8340   22.2770 C   0  0  0  0  0  2  0  0  0  0  0  0
  -19.1380  -28.9540   23.3750 C   0  0  0  0  0  0  0  0  0  0  0  0
  -18.9120  -30.2150   23.9670 C   0  0  0  0  0  3  0  0  0  0  0  0
  -17.6050  -30.7110   24.1300 C   0  0  0  0  0  3  0  0  0  0  0  0
  -16.5040  -29.9420   23.7130 C   0  0  0  0  0  3  0  0  0  0  0  0
  -16.7130  -28.6810   23.1270 C   0  0  0  0  0  3  0  0  0  0  0  0
  -25.9320  -32.5440   23.8860 C   0  0  0  0  0  3  0  0  0  0  0  0
  -25.6150  -33.9470   24.2170 N   0  0  0  0  0  0  0  0  0  0  0  0
  -25.9300  -35.0090   23.4630 C   0  0  0  0  0  0  0  0  0  0  0  0
  -26.5740  -34.9100   22.4160 O   0  0  0  0  0  0  0  0  0  0  0  0
  -25.0310  -34.0950   25.0280 H   0  0  0  0  0  0  0  0  0  0  0  0
  -24.1810  -36.8060   23.1940 C   0  0  0  0  0  1  0  0  0  0  0  0
  -25.4620  -36.4000   23.9430 C   0  0  0  0  0  3  0  0  0  0  0  0
  -27.6250  -37.3080   24.6720 C   0  0  0  0  0  1  0  0  0  0  0  0
  -26.4830  -37.4570   23.7750 N   0  0  0  0  0  0  0  0  0  0  0  0
  -26.0790  -38.3780   23.9250 H   0  0  0  0  0  0  0  0  0  0  0  0
  -26.4180  -31.7850   25.1830 C   0  0  1  0  0  0  0  0  0  0  0  0
  -25.3060  -31.5750   26.2390 C   0  0  0  0  0  1  0  0  0  0  0  0
  -26.9910  -30.3950   24.8290 C   0  0  0  0  0  1  0  0  0  0  0  0
  -27.5670  -32.5770   25.8510 C   0  0  0  0  0  1  0  0  0  0  0  0
  2  1  1  0
  3  4  1  0
  4  1  2  0
  5 16  1  0
  5  2  2  0
  6  3  2  0
  6  5  1  0
  7  6  1  0
  8 16  1  0
  9 14  1  0
 10 11  1  0
 10  9  1  0
 12 11  1  0
 12 21  1  0
 12 13  1  0
 14  8  1  0
 14 13  1  0
 15  8  2  0
 17 16  1  0
 18 19  2  0
 19 38  1  0
 20 19  1  0
 20 23  1  0
 21 22  1  0
 21 18  1  0
 22 20  2  0
 23 24  1  0
 24 25  2  0
 26 29  1  0
 26 25  1  0
 27 26  2  0
 28 27  1  0
 28 23  2  0
 29 30  1  0
 30 31  1  0
 31 32  2  0
 33 32  1  0
 33 37  1  0
 34 33  2  0
 35 30  2  0
 35 34  1  0
 36 35  1  0
 38 39  1  0
 39 42  1  0
 39 41  1  0
 40 38  2  0
 43 44  1  0
 43 18  1  0
 45 43  1  0
 46  4  1  0
 46 47  1  0
 48 59  2  0
 49 47  1  0
 49 54  1  0
 50 58  1  0
 50 60  1  0
 51 57  1  0
 51 53  1  0
 52 58  1  0
 53 54  2  0
 53 52  1  0
 55 49  2  0
 56 55  1  0
 56 51  2  0
 57 50  1  0
 58 48  1  0
 60 62  2  0
 61 60  1  0
 63 61  1  0
 64 73  2  0
 64 69  1  0
 65 61  1  0
 65 69  1  0
 66 65  1  0
 67 68  1  0
 67 66  1  0
 68 64  1  0
 69 70  2  0
 70 71  1  0
 72 71  2  0
 73 72  1  0
 74 48  1  0
 74 75  1  0
 74 84  1  0
 75 78  1  0
 76 80  1  0
 76 75  1  0
 77 76  2  0
 80 79  1  0
 82 83  1  0
 82 80  1  0
 82 81  1  0
 84 87  1  1
 84 85  1  0
 86 84  1  0
M  ISO  4   8 100  16 100  46 101  47 101
M  END
>  <TORSDO>  (55) 
F 17

>  <SCORE>  (55) 
-16.741

>  <name>  (55) 
55

>  <ligand_id>  (55) 
55

>  <original_smiles>  (55) 
[H]c1c([H])c([H])c2c(c1[H])C([H])([H])C([H])([H])C([H])([H])C2([H])N([H])C(=O)C1([H])N(C(=O)C([H])(N([H])C(=O)C([H])(N([H])C([H])([H])[H])C([H])([H])[H])C(C([H])([H])[H])(C([H])([H])[H])C([H])([H])[H])C([H])([H])c2c([H])c(OC([H])([H])c3c([H])c([H])c(N([H])C(=O)N4C([H])([H])C([H])([H])C([H])([H])C([H])(n5nc(-c6c([H])c([H])c(Oc7c([H])c([H])c(F)c([H])c7F)c([H])c6[H])c(C(=O)N([H])[H])c5N([H])[H])C4([H])[H])c(F)c3[H])c([H])c([H])c2C1([H])[H]

>  <smiles>  (55) 
[H]c1c([H])c([H])c2c(c1[H])C([H])([H])C([H])([H])C([H])([H])C2([H])N([H])C(=O)C1([H])N(C(=O)C([H])(N([H])C(=O)C([H])(N([H])C([H])([H])[H])C([H])([H])[H])C(C([H])([H])[H])(C([H])([H])[H])C([H])([H])[H])C([H])([H])c2c([H])c(OC([H])([H])c3c([H])c([H])c(N([H])C(=O)N4C([H])([H])C([H])([H])C([H])([H])C([H])(n5nc(-c6c([H])c([H])c(Oc7c([H])c([H])c(F)c([H])c7F)c([H])c6[H])c(C(=O)N([H])[H])c5N([H])[H])C4([H])[H])c(F)c3[H])c([H])c([H])c2C1([H])[H]

$$$$
56:0:0
     RDKit          3D

 94103  0  0  1  0  0  0  0  0999 V2000
  -29.6720  -21.7090   20.6120 C   0  0  0  0  0  0  0  0  0  0  0  0
  -29.4180  -22.9650   17.3560 C   0  0  0  0  0  2  0  0  0  0  0  0
  -29.1890  -24.3150   18.0240 C   0  0  0  0  0  2  0  0  0  0  0  0
  -28.7630  -21.9880   18.3240 C   0  0  0  0  0  2  0  0  0  0  0  0
  -29.2640  -24.0320   19.5360 C   0  0  0  0  0  3  0  0  0  0  0  0
  -29.0940  -22.5170   19.6530 N   0  0  0  0  0  0  0  0  0  0  0  0
  -30.1820  -22.2170   21.6150 O   0  0  0  0  0  0  0  0  0  0  0  0
  -31.0210  -19.4880   20.4920 C   0  0  0  0  0  3  0  0  0  0  0  0
  -31.1420  -18.0610   20.4970 C   0  0  0  0  0  3  0  0  0  0  0  0
  -28.7460  -17.8970   20.4910 C   0  0  0  0  0  3  0  0  0  0  0  0
  -29.7650  -20.1660   20.4720 C   0  0  0  0  0  0  0  0  0  0  0  0
  -29.9960  -17.2160   20.5080 C   0  0  0  0  0  0  0  0  0  0  0  0
  -28.6230  -19.3220   20.4610 C   0  0  0  0  0  0  0  0  0  0  0  0
  -27.3860  -19.8760   20.4710 F   0  0  0  0  0  0  0  0  0  0  0  0
  -30.7780  -14.7390   20.0820 C   0  0  0  0  0  0  0  0  0  0  0  0
  -30.5440  -12.5440   18.9290 C   0  0  0  0  0  2  0  0  0  0  0  0
  -29.5070  -12.6840   17.7900 C   0  0  0  0  0  2  0  0  0  0  0  0
  -28.0690  -12.4880   18.3110 C   0  0  0  0  0  2  0  0  0  0  0  0
  -27.7850  -13.3100   19.5940 C   0  0  0  0  0  3  0  0  0  0  0  0
  -28.9150  -13.1130   20.6310 C   0  0  0  0  0  2  0  0  0  0  0  0
  -30.1830  -13.5060   19.9930 N   0  0  0  0  0  0  0  0  0  0  0  0
  -31.8990  -14.9410   19.6070 O   0  0  0  0  0  0  0  0  0  0  0  0
  -29.9900  -15.7440   20.5880 N   0  0  0  0  0  0  0  0  0  0  0  0
  -29.1400  -15.3670   20.9800 H   0  0  0  0  0  0  0  0  0  0  0  0
  -25.4340  -13.8850   20.4630 C   0  0  0  0  0  0  0  0  0  0  0  0
  -24.3870  -13.1020   20.8700 C   0  0  0  0  0  0  0  0  0  0  0  0
  -24.8440  -11.7520   20.7700 C   0  0  0  0  0  0  0  0  0  0  0  0
  -26.4630  -13.0140   20.1450 N   0  0  0  0  0  0  0  0  0  0  0  0
  -26.1150  -11.7230   20.3870 N   0  0  0  0  0  0  0  0  0  0  0  0
  -24.1260  -10.4870   20.9590 C   0  0  0  0  0  0  0  0  0  0  0  0
  -24.5660   -9.5210   21.8910 C   0  0  0  0  0  3  0  0  0  0  0  0
  -23.8490   -8.3170   22.0680 C   0  0  0  0  0  3  0  0  0  0  0  0
  -22.6750   -8.0720   21.3150 C   0  0  0  0  0  0  0  0  0  0  0  0
  -22.2550   -9.0280   20.3730 C   0  0  0  0  0  3  0  0  0  0  0  0
  -22.9720  -10.2230   20.1940 C   0  0  0  0  0  3  0  0  0  0  0  0
  -21.9280   -6.9210   21.4010 O   0  0  0  0  0  0  0  0  0  0  0  0
  -21.8310   -6.2150   22.5720 C   0  0  0  0  0  0  0  0  0  0  0  0
  -21.3020   -6.7910   23.7460 C   0  0  0  0  0  3  0  0  0  0  0  0
  -21.1540   -6.0090   24.9090 C   0  0  0  0  0  3  0  0  0  0  0  0
  -21.5240   -4.6510   24.8970 C   0  0  0  0  0  0  0  0  0  0  0  0
  -22.0440   -4.0730   23.7250 C   0  0  0  0  0  3  0  0  0  0  0  0
  -22.1940   -4.8530   22.5650 C   0  0  0  0  0  0  0  0  0  0  0  0
  -22.6770   -4.2860   21.4330 F   0  0  0  0  0  0  0  0  0  0  0  0
  -21.3760   -3.8960   26.0120 F   0  0  0  0  0  0  0  0  0  0  0  0
  -23.0080  -13.5710   21.2340 C   0  0  0  0  0  0  0  0  0  0  0  0
  -22.3230  -12.8480   22.1130 N   0  0  0  0  0  0  0  0  0  0  0  0
  -22.5490  -14.6170   20.7750 O   0  0  0  0  0  0  0  0  0  0  0  0
  -22.7060  -12.0020   22.5050 H   0  0  0  0  0  0  0  0  0  0  0  0
  -21.4020  -13.1500   22.3950 H   0  0  0  0  0  0  0  0  0  0  0  0
  -25.5870  -15.2600   20.3130 N   0  0  0  0  0  0  0  0  0  0  0  0
  -24.8060  -15.8920   20.4520 H   0  0  0  0  0  0  0  0  0  0  0  0
  -26.3720  -15.7010   19.8520 H   0  0  0  0  0  0  0  0  0  0  0  0
  -28.2950  -25.0250   20.3240 C   0  0  0  0  0  2  0  0  0  0  0  0
  -28.4460  -26.4930   20.0940 O   0  0  0  0  0  0  0  0  0  0  0  0
  -24.6600  -31.8500   23.1640 C   0  0  0  0  0  0  0  0  0  0  0  0
  -27.3090  -27.3180   20.0920 C   0  0  0  0  0  0  0  0  0  0  0  0
  -23.4710  -30.4540   21.5110 C   0  0  0  0  0  3  0  0  0  0  0  0
  -24.9310  -28.9140   20.0850 C   0  0  0  0  0  0  0  0  0  0  0  0
  -26.0120  -30.7770   21.3510 C   0  0  0  0  0  2  0  0  0  0  0  0
  -26.0950  -29.4070   20.6860 C   0  0  0  0  0  0  0  0  0  0  0  0
  -27.2860  -28.6230   20.6770 C   0  0  0  0  0  3  0  0  0  0  0  0
  -26.1190  -26.8720   19.4730 C   0  0  0  0  0  3  0  0  0  0  0  0
  -24.9450  -27.6490   19.4720 C   0  0  0  0  0  3  0  0  0  0  0  0
  -23.6960  -29.7910   20.1260 C   0  0  0  0  0  2  0  0  0  0  0  0
  -24.7310  -31.0500   22.0610 N   0  0  0  0  0  0  0  0  0  0  0  0
  -23.5730  -32.1210   23.6950 O   0  0  0  0  0  0  0  0  0  0  0  0
  -22.8090  -29.4280   22.4600 C   0  0  0  0  0  0  0  0  0  0  0  0
  -21.4810  -29.2690   22.3390 N   0  0  0  0  0  0  0  0  0  0  0  0
  -23.4870  -28.7830   23.2620 O   0  0  0  0  0  0  0  0  0  0  0  0
  -21.0000  -29.8420   21.6610 H   0  0  0  0  0  0  0  0  0  0  0  0
  -18.0880  -28.1200   22.8730 C   0  0  0  0  0  0  0  0  0  0  0  0
  -20.6570  -28.3280   23.0990 C   0  0  0  0  0  3  0  0  0  0  0  0
  -20.7210  -26.9110   22.4870 C   0  0  0  0  0  2  0  0  0  0  0  0
  -19.5930  -26.6300   21.4870 C   0  0  0  0  0  2  0  0  0  0  0  0
  -18.2260  -26.7850   22.1590 C   0  0  0  0  0  2  0  0  0  0  0  0
  -19.2300  -28.8510   23.2990 C   0  0  0  0  0  0  0  0  0  0  0  0
  -19.0450  -30.0990   23.9310 C   0  0  0  0  0  3  0  0  0  0  0  0
  -17.7520  -30.6170   24.1410 C   0  0  0  0  0  3  0  0  0  0  0  0
  -16.6260  -29.8850   23.7290 C   0  0  0  0  0  3  0  0  0  0  0  0
  -16.7950  -28.6380   23.1010 C   0  0  0  0  0  3  0  0  0  0  0  0
  -25.9380  -32.4810   23.8010 C   0  0  0  0  0  3  0  0  0  0  0  0
  -25.6210  -33.8770   24.1410 N   0  0  0  0  0  0  0  0  0  0  0  0
  -25.9530  -34.9380   23.3940 C   0  0  0  0  0  0  0  0  0  0  0  0
  -26.6300  -34.8460   22.3680 O   0  0  0  0  0  0  0  0  0  0  0  0
  -25.0330  -34.0250   24.9480 H   0  0  0  0  0  0  0  0  0  0  0  0
  -24.2280  -36.7370   23.0360 C   0  0  0  0  0  1  0  0  0  0  0  0
  -25.4560  -36.3220   23.8620 C   0  0  0  0  0  3  0  0  0  0  0  0
  -27.5720  -37.2010   24.7500 C   0  0  0  0  0  1  0  0  0  0  0  0
  -26.4910  -37.3740   23.7800 N   0  0  0  0  0  0  0  0  0  0  0  0
  -26.0820  -38.2950   23.9190 H   0  0  0  0  0  0  0  0  0  0  0  0
  -26.4460  -31.7070   25.0800 C   0  0  1  0  0  0  0  0  0  0  0  0
  -25.3390  -31.4680   26.1360 C   0  0  0  0  0  1  0  0  0  0  0  0
  -27.0490  -30.3350   24.6980 C   0  0  0  0  0  1  0  0  0  0  0  0
  -27.5850  -32.5090   25.7550 C   0  0  0  0  0  1  0  0  0  0  0  0
  1  7  2  0
  2  3  1  0
  2  4  1  0
  3  5  1  0
  4  6  1  0
  5  6  1  0
  5 53  1  0
  6  1  1  0
  8  9  1  0
  9 12  2  0
 10 12  1  0
 11  8  2  0
 11  1  1  0
 12 23  1  0
 13 14  1  0
 13 11  1  0
 13 10  2  0
 15 23  1  0
 16 21  1  0
 17 18  1  0
 17 16  1  0
 19 18  1  0
 19 28  1  0
 19 20  1  0
 21 15  1  0
 21 20  1  0
 22 15  2  0
 23 24  1  0
 25 26  2  0
 26 45  1  0
 27 26  1  0
 27 30  1  0
 28 29  1  0
 28 25  1  0
 29 27  2  0
 30 31  1  0
 31 32  2  0
 33 36  1  0
 33 32  1  0
 34 33  2  0
 35 34  1  0
 35 30  2  0
 36 37  1  0
 37 38  1  0
 38 39  2  0
 40 39  1  0
 40 44  1  0
 41 40  2  0
 42 37  2  0
 42 41  1  0
 43 42  1  0
 45 46  1  0
 46 49  1  0
 46 48  1  0
 47 45  2  0
 50 51  1  0
 50 25  1  0
 52 50  1  0
 54 53  1  0
 55 66  2  0
 56 54  1  0
 56 61  1  0
 57 65  1  0
 57 67  1  0
 58 64  1  0
 58 60  1  0
 59 65  1  0
 60 59  1  0
 61 60  2  0
 62 56  2  0
 63 62  1  0
 63 58  2  0
 64 57  1  0
 65 55  1  0
 67 69  2  0
 68 67  1  0
 70 68  1  0
 71 80  2  0
 71 76  1  0
 72 68  1  0
 72 76  1  0
 73 72  1  0
 74 75  1  0
 74 73  1  0
 75 71  1  0
 76 77  2  0
 77 78  1  0
 79 78  2  0
 80 79  1  0
 81 55  1  0
 81 82  1  0
 81 91  1  0
 82 85  1  0
 83 87  1  0
 83 82  1  0
 84 83  2  0
 87 86  1  0
 89 87  1  0
 89 90  1  0
 89 88  1  0
 91 94  1  1
 91 92  1  0
 93 91  1  0
M  ISO  4  15 100  23 100  53 101  54 101
M  END
>  <TORSDO>  (56) 
F 18

>  <SCORE>  (56) 
-14.626

>  <name>  (56) 
56

>  <ligand_id>  (56) 
56

>  <original_smiles>  (56) 
[H]c1c([H])c([H])c2c(c1[H])C([H])([H])C([H])([H])C([H])([H])C2([H])N([H])C(=O)C1([H])N(C(=O)C([H])(N([H])C(=O)C([H])(N([H])C([H])([H])[H])C([H])([H])[H])C(C([H])([H])[H])(C([H])([H])[H])C([H])([H])[H])C([H])([H])c2c([H])c(OC([H])([H])C3([H])N(C(=O)c4c([H])c([H])c(N([H])C(=O)N5C([H])([H])C([H])([H])C([H])([H])C([H])(n6nc(-c7c([H])c([H])c(Oc8c([H])c([H])c(F)c([H])c8F)c([H])c7[H])c(C(=O)N([H])[H])c6N([H])[H])C5([H])[H])c([H])c4F)C([H])([H])C([H])([H])C3([H])[H])c([H])c([H])c2C1([H])[H]

>  <smiles>  (56) 
[H]c1c([H])c([H])c2c(c1[H])C([H])([H])C([H])([H])C([H])([H])C2([H])N([H])C(=O)C1([H])N(C(=O)C([H])(N([H])C(=O)C([H])(N([H])C([H])([H])[H])C([H])([H])[H])C(C([H])([H])[H])(C([H])([H])[H])C([H])([H])[H])C([H])([H])c2c([H])c(OC([H])([H])C3([H])N(C(=O)c4c([H])c([H])c(N([H])C(=O)N5C([H])([H])C([H])([H])C([H])([H])C([H])(n6nc(-c7c([H])c([H])c(Oc8c([H])c([H])c(F)c([H])c8F)c([H])c7[H])c(C(=O)N([H])[H])c6N([H])[H])C5([H])[H])c([H])c4F)C([H])([H])C([H])([H])C3([H])[H])c([H])c([H])c2C1([H])[H]

$$$$
57:0:0
     RDKit          3D

 90 98  0  0  1  0  0  0  0  0999 V2000
  -27.9590  -19.5900   20.4260 C   0  0  0  0  0  3  0  0  0  0  0  0
  -30.2410  -20.1070   20.1860 C   0  0  0  0  0  3  0  0  0  0  0  0
  -29.5730  -17.6270   20.3250 C   0  0  0  0  0  0  0  0  0  0  0  0
  -28.9080  -20.6500   20.2970 C   0  0  0  0  0  0  0  0  0  0  0  0
  -28.2650  -18.1830   20.4450 C   0  0  0  0  0  0  0  0  0  0  0  0
  -30.5630  -18.6710   20.1940 C   0  0  0  0  0  0  0  0  0  0  0  0
  -27.2360  -17.3130   20.5820 F   0  0  0  0  0  0  0  0  0  0  0  0
  -31.8640  -18.3110   20.0830 F   0  0  0  0  0  0  0  0  0  0  0  0
  -30.5220  -15.0220   20.0730 C   0  0  0  0  0  0  0  0  0  0  0  0
  -30.3880  -12.7040   19.0560 C   0  0  0  0  0  2  0  0  0  0  0  0
  -29.3830  -12.7150   17.8770 C   0  0  0  0  0  2  0  0  0  0  0  0
  -27.9420  -12.4950   18.3760 C   0  0  0  0  0  2  0  0  0  0  0  0
  -27.6010  -13.3710   19.6110 C   0  0  0  0  0  3  0  0  0  0  0  0
  -28.7160  -13.3120   20.6770 C   0  0  0  0  0  2  0  0  0  0  0  0
  -29.9630  -13.7470   20.0290 N   0  0  0  0  0  0  0  0  0  0  0  0
  -31.6900  -15.1580   19.6980 O   0  0  0  0  0  0  0  0  0  0  0  0
  -29.6650  -16.0990   20.3820 N   0  0  0  0  0  0  0  0  0  0  0  0
  -28.7700  -15.7250   20.6540 H   0  0  0  0  0  0  0  0  0  0  0  0
  -25.2510  -13.9190   20.4740 C   0  0  0  0  0  0  0  0  0  0  0  0
  -24.2070  -13.1310   20.8690 C   0  0  0  0  0  0  0  0  0  0  0  0
  -24.6750  -11.7840   20.7770 C   0  0  0  0  0  0  0  0  0  0  0  0
  -26.2880  -13.0550   20.1630 N   0  0  0  0  0  0  0  0  0  0  0  0
  -25.9500  -11.7610   20.4070 N   0  0  0  0  0  0  0  0  0  0  0  0
  -23.9600  -10.5150   20.9640 C   0  0  0  0  0  0  0  0  0  0  0  0
  -24.3980   -9.5510   21.8990 C   0  0  0  0  0  3  0  0  0  0  0  0
  -23.6800   -8.3480   22.0760 C   0  0  0  0  0  3  0  0  0  0  0  0
  -22.5110   -8.1010   21.3160 C   0  0  0  0  0  0  0  0  0  0  0  0
  -22.0920   -9.0540   20.3710 C   0  0  0  0  0  3  0  0  0  0  0  0
  -22.8110  -10.2480   20.1940 C   0  0  0  0  0  3  0  0  0  0  0  0
  -21.7650   -6.9500   21.4010 O   0  0  0  0  0  0  0  0  0  0  0  0
  -21.6570   -6.2480   22.5750 C   0  0  0  0  0  0  0  0  0  0  0  0
  -21.1100   -6.8250   23.7410 C   0  0  0  0  0  3  0  0  0  0  0  0
  -20.9530   -6.0470   24.9050 C   0  0  0  0  0  3  0  0  0  0  0  0
  -21.3340   -4.6920   24.9040 C   0  0  0  0  0  0  0  0  0  0  0  0
  -21.8730   -4.1130   23.7410 C   0  0  0  0  0  3  0  0  0  0  0  0
  -22.0320   -4.8890   22.5790 C   0  0  0  0  0  0  0  0  0  0  0  0
  -22.5330   -4.3210   21.4560 F   0  0  0  0  0  0  0  0  0  0  0  0
  -21.1750   -3.9420   26.0190 F   0  0  0  0  0  0  0  0  0  0  0  0
  -22.8250  -13.5960   21.2230 C   0  0  0  0  0  0  0  0  0  0  0  0
  -22.1450  -12.8770   22.1090 N   0  0  0  0  0  0  0  0  0  0  0  0
  -22.3590  -14.6330   20.7530 O   0  0  0  0  0  0  0  0  0  0  0  0
  -22.5360  -12.0380   22.5110 H   0  0  0  0  0  0  0  0  0  0  0  0
  -21.2190  -13.1700   22.3890 H   0  0  0  0  0  0  0  0  0  0  0  0
  -25.3880  -15.2940   20.3340 N   0  0  0  0  0  0  0  0  0  0  0  0
  -24.6220  -15.9230   20.5450 H   0  0  0  0  0  0  0  0  0  0  0  0
  -26.2440  -15.7950   20.1240 H   0  0  0  0  0  0  0  0  0  0  0  0
  -28.3740  -22.0150   20.2700 O   0  0  0  0  0  0  0  0  0  0  0  0
  -28.9860  -23.4180   20.2990 C   0  0  0  0  0  3  0  0  0  0  0  0
  -27.9870  -24.7600   20.0990 C   0  0  0  0  0  3  0  0  0  0  0  0
  -28.2730  -26.2790   20.2660 O   0  0  0  0  0  0  0  0  0  0  0  0
  -24.6340  -31.9400   23.2590 C   0  0  0  0  0  0  0  0  0  0  0  0
  -27.2090  -27.2510   20.2060 C   0  0  0  0  0  0  0  0  0  0  0  0
  -23.4300  -30.5530   21.6150 C   0  0  0  0  0  3  0  0  0  0  0  0
  -24.8750  -28.9860   20.1830 C   0  0  0  0  0  0  0  0  0  0  0  0
  -25.9840  -30.8200   21.4490 C   0  0  0  0  0  2  0  0  0  0  0  0
  -26.0570  -29.4330   20.7900 C   0  0  0  0  0  0  0  0  0  0  0  0
  -27.2240  -28.5820   20.7840 C   0  0  0  0  0  3  0  0  0  0  0  0
  -25.9990  -26.9030   19.5640 C   0  0  0  0  0  3  0  0  0  0  0  0
  -24.8590  -27.7340   19.5550 C   0  0  0  0  0  3  0  0  0  0  0  0
  -23.6490  -29.8820   20.2330 C   0  0  0  0  0  2  0  0  0  0  0  0
  -24.7030  -31.1250   22.1620 N   0  0  0  0  0  0  0  0  0  0  0  0
  -23.5480  -32.2240   23.7880 O   0  0  0  0  0  0  0  0  0  0  0  0
  -22.7500  -29.5420   22.5720 C   0  0  0  0  0  0  0  0  0  0  0  0
  -21.4240  -29.3700   22.4380 N   0  0  0  0  0  0  0  0  0  0  0  0
  -23.4200  -28.9150   23.3970 O   0  0  0  0  0  0  0  0  0  0  0  0
  -20.9410  -29.9270   21.7480 H   0  0  0  0  0  0  0  0  0  0  0  0
  -18.0380  -28.1810   22.9380 C   0  0  0  0  0  0  0  0  0  0  0  0
  -20.5980  -28.4320   23.2040 C   0  0  0  0  0  3  0  0  0  0  0  0
  -20.6940  -27.0020   22.6210 C   0  0  0  0  0  2  0  0  0  0  0  0
  -19.5890  -26.6900   21.6070 C   0  0  0  0  0  2  0  0  0  0  0  0
  -18.2080  -26.8360   22.2530 C   0  0  0  0  0  2  0  0  0  0  0  0
  -19.1610  -28.9370   23.3700 C   0  0  0  0  0  0  0  0  0  0  0  0
  -18.9460  -30.1960   23.9730 C   0  0  0  0  0  3  0  0  0  0  0  0
  -17.6440  -30.6990   24.1470 C   0  0  0  0  0  3  0  0  0  0  0  0
  -16.5360  -29.9400   23.7310 C   0  0  0  0  0  3  0  0  0  0  0  0
  -16.7340  -28.6830   23.1320 C   0  0  0  0  0  3  0  0  0  0  0  0
  -25.9130  -32.5690   23.8890 C   0  0  0  0  0  3  0  0  0  0  0  0
  -26.4150  -31.8010   25.1730 C   0  0  1  0  0  0  0  0  0  0  0  0
  -25.3110  -31.5700   26.2310 C   0  0  0  0  0  1  0  0  0  0  0  0
  -26.9980  -30.4190   24.7940 C   0  0  0  0  0  1  0  0  0  0  0  0
  -27.5620  -32.5940   25.8420 C   0  0  0  0  0  1  0  0  0  0  0  0
  -25.6070  -33.9700   24.2180 N   0  0  0  0  0  0  0  0  0  0  0  0
  -25.9140  -35.0210   23.4450 C   0  0  0  0  0  0  0  0  0  0  0  0
  -26.5520  -34.9130   22.3950 O   0  0  0  0  0  0  0  0  0  0  0  0
  -25.0370  -34.1270   25.0360 H   0  0  0  0  0  0  0  0  0  0  0  0
  -24.1600  -36.8030   23.1550 C   0  0  0  0  0  1  0  0  0  0  0  0
  -25.4390  -36.4120   23.9120 C   0  0  0  0  0  3  0  0  0  0  0  0
  -27.5980  -37.3260   24.6440 C   0  0  0  0  0  1  0  0  0  0  0  0
  -26.4600  -37.4710   23.7410 N   0  0  0  0  0  0  0  0  0  0  0  0
  -26.0520  -38.3900   23.8880 H   0  0  0  0  0  0  0  0  0  0  0  0
  1  5  1  0
  2  6  2  0
  2  4  1  0
  3 17  1  0
  3  5  2  0
  4  1  2  0
  5  7  1  0
  6  3  1  0
  8  6  1  0
  9 17  1  0
 10 15  1  0
 11 12  1  0
 11 10  1  0
 13 12  1  0
 13 22  1  0
 13 14  1  0
 15  9  1  0
 15 14  1  0
 16  9  2  0
 17 18  1  0
 19 20  2  0
 20 39  1  0
 21 20  1  0
 21 24  1  0
 22 23  1  0
 22 19  1  0
 23 21  2  0
 24 25  1  0
 25 26  2  0
 27 30  1  0
 27 26  1  0
 28 27  2  0
 29 28  1  0
 29 24  2  0
 30 31  1  0
 31 36  2  0
 31 32  1  0
 32 33  2  0
 34 33  1  0
 34 38  1  0
 35 34  2  0
 36 35  1  0
 37 36  1  0
 39 40  1  0
 40 43  1  0
 40 42  1  0
 41 39  2  0
 44 19  1  0
 44 45  1  0
 46 44  1  0
 47  4  1  0
 47 48  1  0
 49 50  1  0
 49 48  2  0
 51 62  2  0
 52 50  1  0
 52 57  1  0
 53 61  1  0
 53 63  1  0
 54 60  1  0
 54 56  1  0
 55 61  1  0
 56 55  1  0
 57 56  2  0
 58 52  2  0
 59 58  1  0
 59 54  2  0
 60 53  1  0
 61 51  1  0
 63 65  2  0
 64 63  1  0
 66 64  1  0
 67 76  2  0
 67 72  1  0
 68 64  1  0
 68 72  1  0
 69 68  1  0
 70 71  1  0
 70 69  1  0
 71 67  1  0
 72 73  2  0
 73 74  1  0
 75 74  2  0
 76 75  1  0
 77 51  1  0
 77 82  1  0
 77 78  1  0
 78 81  1  1
 78 79  1  0
 80 78  1  0
 82 85  1  0
 83 87  1  0
 83 82  1  0
 84 83  2  0
 87 86  1  0
 89 90  1  0
 89 87  1  0
 89 88  1  0
M  ISO  4   9 100  17 100  49 101  50 101
M  END
>  <TORSDO>  (57) 
F 19

>  <SCORE>  (57) 
-14.290

>  <name>  (57) 
57

>  <ligand_id>  (57) 
57

>  <original_smiles>  (57) 
[H]c1c([H])c([H])c2c(c1[H])C([H])([H])C([H])([H])C([H])([H])C2([H])N([H])C(=O)C1([H])N(C(=O)C([H])(N([H])C(=O)C([H])(N([H])C([H])([H])[H])C([H])([H])[H])C(C([H])([H])[H])(C([H])([H])[H])C([H])([H])[H])C([H])([H])c2c([H])c(OC([H])([H])C([H])([H])Oc3c([H])c(F)c(N([H])C(=O)N4C([H])([H])C([H])([H])C([H])([H])C([H])(n5nc(-c6c([H])c([H])c(Oc7c([H])c([H])c(F)c([H])c7F)c([H])c6[H])c(C(=O)N([H])[H])c5N([H])[H])C4([H])[H])c(F)c3[H])c([H])c([H])c2C1([H])[H]

>  <smiles>  (57) 
[H]c1c([H])c([H])c2c(c1[H])C([H])([H])C([H])([H])C([H])([H])C2([H])N([H])C(=O)C1([H])N(C(=O)C([H])(N([H])C(=O)C([H])(N([H])C([H])([H])[H])C([H])([H])[H])C(C([H])([H])[H])(C([H])([H])[H])C([H])([H])[H])C([H])([H])c2c([H])c(OC([H])([H])C([H])([H])Oc3c([H])c(F)c(N([H])C(=O)N4C([H])([H])C([H])([H])C([H])([H])C([H])(n5nc(-c6c([H])c([H])c(Oc7c([H])c([H])c(F)c([H])c7F)c([H])c6[H])c(C(=O)N([H])[H])c5N([H])[H])C4([H])[H])c(F)c3[H])c([H])c([H])c2C1([H])[H]

$$$$
58:0:0
     RDKit          3D

 96105  0  0  1  0  0  0  0  0999 V2000
  -29.1270  -22.8430   16.9860 C   0  0  0  0  0  2  0  0  0  0  0  0
  -30.1750  -20.8690   18.0210 C   0  0  0  0  0  2  0  0  0  0  0  0
  -29.0220  -23.4980   18.3600 C   0  0  0  0  0  2  0  0  0  0  0  0
  -29.9590  -21.3680   19.4810 C   0  0  0  0  0  3  0  0  0  0  0  0
  -30.3460  -21.9400   16.9530 C   0  0  0  0  0  3  0  0  0  0  0  0
  -28.8950  -22.5500   19.5100 N   0  0  1  0  0  4  0  0  0  0  0  0
  -31.4600  -22.6430   17.1690 F   0  0  0  0  0  0  0  0  0  0  0  0
  -28.0340  -22.0520   19.3360 H   0  0  0  0  0  0  0  0  0  0  0  0
  -29.8990  -18.6110   19.8830 C   0  0  0  0  0  3  0  0  0  0  0  0
  -30.5050  -20.1140   21.6910 C   0  0  0  0  0  3  0  0  0  0  0  0
  -30.8440  -17.6700   21.9050 C   0  0  0  0  0  3  0  0  0  0  0  0
  -30.0120  -20.0040   20.3740 C   0  0  0  0  0  0  0  0  0  0  0  0
  -30.3360  -17.4140   20.6130 C   0  0  0  0  0  0  0  0  0  0  0  0
  -30.9090  -18.9810   22.4340 C   0  0  0  0  0  0  0  0  0  0  0  0
  -31.3980  -19.1590   23.6840 F   0  0  0  0  0  0  0  0  0  0  0  0
  -30.9380  -14.8210   20.2440 C   0  0  0  0  0  0  0  0  0  0  0  0
  -30.7240  -12.5080   19.2660 C   0  0  0  0  0  2  0  0  0  0  0  0
  -29.7860  -12.5370   18.0380 C   0  0  0  0  0  2  0  0  0  0  0  0
  -28.3110  -12.4030   18.4680 C   0  0  0  0  0  2  0  0  0  0  0  0
  -27.9480  -13.3390   19.6510 C   0  0  0  0  0  3  0  0  0  0  0  0
  -29.0000  -13.2720   20.7780 C   0  0  0  0  0  2  0  0  0  0  0  0
  -30.2950  -13.6010   20.1700 N   0  0  0  0  0  0  0  0  0  0  0  0
  -32.1550  -14.8710   20.0400 O   0  0  0  0  0  0  0  0  0  0  0  0
  -30.1440  -15.9790   20.2020 N   0  0  0  0  0  0  0  0  0  0  0  0
  -29.1830  -15.7530   20.0010 H   0  0  0  0  0  0  0  0  0  0  0  0
  -25.5820  -14.0260   20.3640 C   0  0  0  0  0  0  0  0  0  0  0  0
  -24.4880  -13.2960   20.7380 C   0  0  0  0  0  0  0  0  0  0  0  0
  -24.9040  -11.9300   20.7340 C   0  0  0  0  0  0  0  0  0  0  0  0
  -26.5940  -13.1060   20.1450 N   0  0  0  0  0  0  0  0  0  0  0  0
  -26.1940  -11.8410   20.4330 N   0  0  0  0  0  0  0  0  0  0  0  0
  -24.1300  -10.6980   20.9380 C   0  0  0  0  0  0  0  0  0  0  0  0
  -24.5150   -9.7340   21.8960 C   0  0  0  0  0  3  0  0  0  0  0  0
  -23.7440   -8.5670   22.0860 C   0  0  0  0  0  3  0  0  0  0  0  0
  -22.5740   -8.3570   21.3200 C   0  0  0  0  0  0  0  0  0  0  0  0
  -22.2090   -9.3080   20.3510 C   0  0  0  0  0  3  0  0  0  0  0  0
  -22.9790  -10.4660   20.1580 C   0  0  0  0  0  3  0  0  0  0  0  0
  -21.7790   -7.2400   21.4180 O   0  0  0  0  0  0  0  0  0  0  0  0
  -21.6730   -6.5330   22.5890 C   0  0  0  0  0  0  0  0  0  0  0  0
  -21.2480   -7.1400   23.7900 C   0  0  0  0  0  3  0  0  0  0  0  0
  -21.0870   -6.3610   24.9530 C   0  0  0  0  0  3  0  0  0  0  0  0
  -21.3410   -4.9770   24.9160 C   0  0  0  0  0  0  0  0  0  0  0  0
  -21.7600   -4.3700   23.7190 C   0  0  0  0  0  3  0  0  0  0  0  0
  -21.9220   -5.1460   22.5570 C   0  0  0  0  0  0  0  0  0  0  0  0
  -22.3050   -4.5520   21.4010 F   0  0  0  0  0  0  0  0  0  0  0  0
  -21.1800   -4.2270   26.0310 F   0  0  0  0  0  0  0  0  0  0  0  0
  -23.1060  -13.8280   20.9900 C   0  0  0  0  0  0  0  0  0  0  0  0
  -22.3510  -13.1820   21.8700 N   0  0  0  0  0  0  0  0  0  0  0  0
  -22.7070  -14.8540   20.4390 O   0  0  0  0  0  0  0  0  0  0  0  0
  -22.6850  -12.3540   22.3390 H   0  0  0  0  0  0  0  0  0  0  0  0
  -21.4230  -13.5220   22.0800 H   0  0  0  0  0  0  0  0  0  0  0  0
  -25.7930  -15.3880   20.1640 N   0  0  0  0  0  0  0  0  0  0  0  0
  -25.0410  -16.0610   20.2580 H   0  0  0  0  0  0  0  0  0  0  0  0
  -26.6450  -15.7970   19.8040 H   0  0  0  0  0  0  0  0  0  0  0  0
  -28.5280  -23.4440   20.7230 C   0  0  0  0  0  2  0  0  0  0  0  0
  -28.8980  -25.0560   20.8860 C   0  0  0  0  0  2  0  0  0  0  0  0
  -28.5950  -26.2950   20.0650 O   0  0  0  0  0  0  0  0  0  0  0  0
  -24.6120  -31.6730   23.1130 C   0  0  0  0  0  0  0  0  0  0  0  0
  -27.4430  -27.1160   20.1730 C   0  0  0  0  0  0  0  0  0  0  0  0
  -23.5020  -30.2330   21.4450 C   0  0  0  0  0  3  0  0  0  0  0  0
  -25.0400  -28.7050   20.0780 C   0  0  0  0  0  0  0  0  0  0  0  0
  -26.0400  -30.6120   21.3360 C   0  0  0  0  0  2  0  0  0  0  0  0
  -26.1820  -29.2210   20.7070 C   0  0  0  0  0  0  0  0  0  0  0  0
  -27.3890  -28.4420   20.7340 C   0  0  0  0  0  3  0  0  0  0  0  0
  -26.2750  -26.6670   19.5260 C   0  0  0  0  0  3  0  0  0  0  0  0
  -25.0930  -27.4360   19.4780 C   0  0  0  0  0  3  0  0  0  0  0  0
  -23.7810  -29.5540   20.0780 C   0  0  0  0  0  2  0  0  0  0  0  0
  -24.7360  -30.8610   22.0210 N   0  0  0  0  0  0  0  0  0  0  0  0
  -23.5050  -31.9180   23.6150 O   0  0  0  0  0  0  0  0  0  0  0  0
  -22.8400  -29.2020   22.3920 C   0  0  0  0  0  0  0  0  0  0  0  0
  -21.5180  -29.0020   22.2470 N   0  0  0  0  0  0  0  0  0  0  0  0
  -23.5180  -28.5840   23.2180 O   0  0  0  0  0  0  0  0  0  0  0  0
  -21.0300  -29.5530   21.5560 H   0  0  0  0  0  0  0  0  0  0  0  0
  -18.1560  -27.7420   22.7050 C   0  0  0  0  0  0  0  0  0  0  0  0
  -20.7080  -28.0430   23.0010 C   0  0  0  0  0  3  0  0  0  0  0  0
  -20.8390  -26.6190   22.4110 C   0  0  0  0  0  2  0  0  0  0  0  0
  -19.7520  -26.2890   21.3840 C   0  0  0  0  0  2  0  0  0  0  0  0
  -18.3630  -26.4030   22.0170 C   0  0  0  0  0  2  0  0  0  0  0  0
  -19.2580  -28.5180   23.1540 C   0  0  0  0  0  0  0  0  0  0  0  0
  -19.0120  -29.7700   23.7590 C   0  0  0  0  0  3  0  0  0  0  0  0
  -17.6960  -30.2460   23.9190 C   0  0  0  0  0  3  0  0  0  0  0  0
  -16.6100  -29.4660   23.4870 C   0  0  0  0  0  3  0  0  0  0  0  0
  -16.8400  -28.2160   22.8860 C   0  0  0  0  0  3  0  0  0  0  0  0
  -25.8540  -32.3510   23.7700 C   0  0  0  0  0  3  0  0  0  0  0  0
  -26.3680  -31.5890   25.0540 C   0  0  1  0  0  0  0  0  0  0  0  0
  -25.2620  -31.3090   26.0970 C   0  0  0  0  0  1  0  0  0  0  0  0
  -27.0060  -30.2340   24.6690 C   0  0  0  0  0  1  0  0  0  0  0  0
  -27.4780  -32.4180   25.7440 C   0  0  0  0  0  1  0  0  0  0  0  0
  -25.4820  -33.7330   24.1080 N   0  0  0  0  0  0  0  0  0  0  0  0
  -25.7870  -34.8080   23.3670 C   0  0  0  0  0  0  0  0  0  0  0  0
  -26.4800  -34.7410   22.3490 O   0  0  0  0  0  0  0  0  0  0  0  0
  -24.8660  -33.8550   24.8980 H   0  0  0  0  0  0  0  0  0  0  0  0
  -23.9950  -36.5360   23.0060 C   0  0  0  0  0  1  0  0  0  0  0  0
  -25.2400  -36.1720   23.8310 C   0  0  0  0  0  3  0  0  0  0  0  0
  -27.3280  -37.1320   24.6970 C   0  0  0  0  0  1  0  0  0  0  0  0
  -26.2320  -37.2660   23.7420 N   0  0  0  0  0  0  0  0  0  0  0  0
  -25.7870  -38.1680   23.8930 H   0  0  0  0  0  0  0  0  0  0  0  0
  1  3  1  0
  2  4  1  0
  3  6  1  0
  4  6  1  0
  4 12  1  0
  5  1  1  0
  5  7  1  0
  5  2  1  0
  6 54  1  0
  6  8  1  6
  9 12  2  0
  9 13  1  0
 10 14  2  0
 11 14  1  0
 12 10  1  0
 13 11  2  0
 14 15  1  0
 17 22  1  0
 18 19  1  0
 18 17  1  0
 20 19  1  0
 20 29  1  0
 20 21  1  0
 22 16  1  0
 22 21  1  0
 23 16  2  0
 24 16  1  0
 24 13  1  0
 25 24  1  0
 26 27  2  0
 27 46  1  0
 28 27  1  0
 28 31  1  0
 29 26  1  0
 29 30  1  0
 30 28  2  0
 31 32  1  0
 32 33  2  0
 34 37  1  0
 34 33  1  0
 35 34  2  0
 36 35  1  0
 36 31  2  0
 37 38  1  0
 38 39  1  0
 39 40  2  0
 41 40  1  0
 41 45  1  0
 42 41  2  0
 43 38  2  0
 43 42  1  0
 44 43  1  0
 46 47  1  0
 47 50  1  0
 47 49  1  0
 48 46  2  0
 51 52  1  0
 51 26  1  0
 53 51  1  0
 54 55  1  0
 56 58  1  0
 56 55  1  0
 57 68  2  0
 58 63  1  0
 59 67  1  0
 59 69  1  0
 60 62  1  0
 61 67  1  0
 62 63  2  0
 62 61  1  0
 64 58  2  0
 65 64  1  0
 65 60  2  0
 66 60  1  0
 66 59  1  0
 67 57  1  0
 69 71  2  0
 70 69  1  0
 72 70  1  0
 73 82  2  0
 73 78  1  0
 74 70  1  0
 74 78  1  0
 75 74  1  0
 76 77  1  0
 76 75  1  0
 77 73  1  0
 78 79  2  0
 79 80  1  0
 81 80  2  0
 82 81  1  0
 83 57  1  0
 83 88  1  0
 83 84  1  0
 84 87  1  1
 84 85  1  0
 86 84  1  0
 88 91  1  0
 89 93  1  0
 89 88  1  0
 90 89  2  0
 93 92  1  0
 95 93  1  0
 95 96  1  0
 95 94  1  0
M  ISO  4  16 100  24 100  55 101  56 101
M  END
>  <TORSDO>  (58) 
F 19

>  <SCORE>  (58) 
-13.960

>  <name>  (58) 
58

>  <ligand_id>  (58) 
58

>  <original_smiles>  (58) 
[H]c1c([H])c([H])c2c(c1[H])C([H])([H])C([H])([H])C([H])([H])C2([H])N([H])C(=O)C1([H])N(C(=O)C([H])(N([H])C(=O)C([H])(N([H])C([H])([H])[H])C([H])([H])[H])C(C([H])([H])[H])(C([H])([H])[H])C([H])([H])[H])C([H])([H])c2c([H])c(OC([H])([H])C([H])([H])[N+]3([H])C([H])([H])C([H])([H])C([H])(F)C([H])([H])C3([H])c3c([H])c(F)c([H])c(N([H])C(=O)N4C([H])([H])C([H])([H])C([H])([H])C([H])(n5nc(-c6c([H])c([H])c(Oc7c([H])c([H])c(F)c([H])c7F)c([H])c6[H])c(C(=O)N([H])[H])c5N([H])[H])C4([H])[H])c3[H])c([H])c([H])c2C1([H])[H]

>  <smiles>  (58) 
[H]c1c([H])c([H])c2c(c1[H])C([H])([H])C([H])([H])C([H])([H])C2([H])N([H])C(=O)C1([H])N(C(=O)C([H])(N([H])C(=O)C([H])(N([H])C([H])([H])[H])C([H])([H])[H])C(C([H])([H])[H])(C([H])([H])[H])C([H])([H])[H])C([H])([H])c2c([H])c(OC([H])([H])C([H])([H])[N+]3([H])C([H])([H])C([H])([H])C([H])(F)C([H])([H])C3([H])c3c([H])c(F)c([H])c(N([H])C(=O)N4C([H])([H])C([H])([H])C([H])([H])C([H])(n5nc(-c6c([H])c([H])c(Oc7c([H])c([H])c(F)c([H])c7F)c([H])c6[H])c(C(=O)N([H])[H])c5N([H])[H])C4([H])[H])c3[H])c([H])c([H])c2C1([H])[H]

$$$$
59:0:0
     RDKit          3D

 95105  0  0  1  0  0  0  0  0999 V2000
  -28.3760  -21.4470   21.9800 C   0  0  0  0  0  2  0  0  0  0  0  0
  -27.4450  -21.7040   20.7810 C   0  0  0  0  0  2  0  0  0  0  0  0
  -29.6670  -20.8520   21.3780 C   0  0  0  0  0  2  0  0  0  0  0  0
  -28.4090  -21.9390   19.6190 C   0  0  0  0  0  3  0  0  0  0  0  0
  -29.3850  -20.7330   19.9540 N   0  0  0  0  0  0  0  0  0  0  0  0
  -30.8520  -15.5010   19.4280 C   0  0  0  0  0  0  0  0  0  0  0  0
  -30.6590  -13.0910   18.6030 C   0  0  0  0  0  2  0  0  0  0  0  0
  -29.5910  -12.9240   17.4980 C   0  0  0  0  0  2  0  0  0  0  0  0
  -28.2080  -12.6580   18.1140 C   0  0  0  0  0  2  0  0  0  0  0  0
  -27.9020  -13.6040   19.3000 C   0  0  0  0  0  3  0  0  0  0  0  0
  -29.0830  -13.7780   20.2840 C   0  0  0  0  0  2  0  0  0  0  0  0
  -30.2540  -14.2230   19.5080 N   0  0  0  0  0  0  0  0  0  0  0  0
  -31.9150  -15.5220   18.7940 O   0  0  0  0  0  0  0  0  0  0  0  0
  -31.8020  -20.2140   18.2740 C   0  0  0  0  0  2  0  0  0  0  0  0
  -32.5260  -19.5610   19.3000 C   0  0  0  0  0  3  0  0  0  0  0  0
  -30.4050  -20.0150   18.1470 C   0  0  0  0  0  2  0  0  0  0  0  0
  -31.8580  -18.5720   20.0460 C   0  0  0  0  0  0  0  0  0  0  0  0
  -29.7380  -19.4400   19.2510 C   0  0  0  0  0  3  0  0  0  0  0  0
  -30.5360  -18.2340   19.7620 C   0  0  0  0  0  3  0  0  0  0  0  0
  -32.4460  -17.6710   21.0910 C   0  0  0  0  0  2  0  0  0  0  0  0
  -31.2960  -16.6550   21.3460 C   0  0  0  0  0  3  0  0  0  0  0  0
  -30.4740  -16.9430   22.6140 C   0  0  0  0  0  1  0  0  0  0  0  0
  -30.4200  -16.7050   20.1330 N   0  0  0  0  0  0  0  0  0  0  0  0
  -25.6720  -14.1050   20.4350 C   0  0  0  0  0  0  0  0  0  0  0  0
  -24.6550  -13.3030   20.8880 C   0  0  0  0  0  0  0  0  0  0  0  0
  -25.0880  -11.9600   20.6710 C   0  0  0  0  0  0  0  0  0  0  0  0
  -26.6510  -13.2500   19.9670 N   0  0  0  0  0  0  0  0  0  0  0  0
  -26.3180  -11.9480   20.1660 N   0  0  0  0  0  0  0  0  0  0  0  0
  -24.3700  -10.6910   20.8550 C   0  0  0  0  0  0  0  0  0  0  0  0
  -24.7950   -9.7290   21.8000 C   0  0  0  0  0  3  0  0  0  0  0  0
  -24.0780   -8.5230   21.9640 C   0  0  0  0  0  3  0  0  0  0  0  0
  -22.9200   -8.2720   21.1870 C   0  0  0  0  0  0  0  0  0  0  0  0
  -22.5210   -9.2210   20.2280 C   0  0  0  0  0  3  0  0  0  0  0  0
  -23.2390  -10.4180   20.0630 C   0  0  0  0  0  3  0  0  0  0  0  0
  -22.1710   -7.1240   21.2670 O   0  0  0  0  0  0  0  0  0  0  0  0
  -21.9270   -6.5060   22.4690 C   0  0  0  0  0  0  0  0  0  0  0  0
  -21.2740   -7.1670   23.5320 C   0  0  0  0  0  3  0  0  0  0  0  0
  -20.9890   -6.4700   24.7250 C   0  0  0  0  0  3  0  0  0  0  0  0
  -21.3350   -5.1120   24.8470 C   0  0  0  0  0  0  0  0  0  0  0  0
  -21.9770   -4.4500   23.7890 C   0  0  0  0  0  3  0  0  0  0  0  0
  -22.2680   -5.1440   22.5990 C   0  0  0  0  0  0  0  0  0  0  0  0
  -22.8690   -4.4950   21.5750 F   0  0  0  0  0  0  0  0  0  0  0  0
  -21.0530   -4.4420   25.9900 F   0  0  0  0  0  0  0  0  0  0  0  0
  -23.3270  -13.7630   21.4140 C   0  0  0  0  0  0  0  0  0  0  0  0
  -22.7360  -13.0070   22.3380 N   0  0  0  0  0  0  0  0  0  0  0  0
  -22.8270  -14.8230   21.0440 O   0  0  0  0  0  0  0  0  0  0  0  0
  -23.1560  -12.1460   22.6500 H   0  0  0  0  0  0  0  0  0  0  0  0
  -21.8540  -13.2980   22.7350 H   0  0  0  0  0  0  0  0  0  0  0  0
  -25.8340  -15.4810   20.3610 N   0  0  0  0  0  0  0  0  0  0  0  0
  -25.1220  -16.1400   20.6560 H   0  0  0  0  0  0  0  0  0  0  0  0
  -26.6480  -15.9310   19.9610 H   0  0  0  0  0  0  0  0  0  0  0  0
  -28.7650  -23.6480   19.6470 C   0  0  0  0  0  2  0  0  0  0  0  0
  -27.6900  -24.7820   19.4240 N   0  0  0  0  0  0  0  0  0  0  0  0
  -27.2700  -24.6600   18.5040 H   0  0  0  0  0  0  0  0  0  0  0  0
  -28.0970  -26.3570   19.5110 O   0  0  0  0  0  0  0  0  0  0  0  0
  -24.5210  -31.7460   23.1620 C   0  0  0  0  0  0  0  0  0  0  0  0
  -27.0230  -27.3340   19.6110 C   0  0  0  0  0  0  0  0  0  0  0  0
  -23.2550  -30.4180   21.5180 C   0  0  0  0  0  3  0  0  0  0  0  0
  -24.6520  -29.0190   19.8660 C   0  0  0  0  0  0  0  0  0  0  0  0
  -25.7800  -30.7940   21.1880 C   0  0  0  0  0  2  0  0  0  0  0  0
  -25.8570  -29.4550   20.4280 C   0  0  0  0  0  0  0  0  0  0  0  0
  -27.0430  -28.6320   20.2810 C   0  0  0  0  0  3  0  0  0  0  0  0
  -25.7850  -27.0200   19.0150 C   0  0  0  0  0  3  0  0  0  0  0  0
  -24.6310  -27.8260   19.1320 C   0  0  0  0  0  3  0  0  0  0  0  0
  -23.4000  -29.8590   20.0790 C   0  0  0  0  0  2  0  0  0  0  0  0
  -24.5420  -31.0050   22.0120 N   0  0  0  0  0  0  0  0  0  0  0  0
  -23.4690  -31.9510   23.7860 O   0  0  0  0  0  0  0  0  0  0  0  0
  -22.6850  -29.3180   22.4480 C   0  0  0  0  0  0  0  0  0  0  0  0
  -21.3960  -28.9690   22.2730 N   0  0  0  0  0  0  0  0  0  0  0  0
  -23.4060  -28.7710   23.2880 O   0  0  0  0  0  0  0  0  0  0  0  0
  -20.8640  -29.4540   21.5630 H   0  0  0  0  0  0  0  0  0  0  0  0
  -18.2550  -27.1890   22.5420 C   0  0  0  0  0  0  0  0  0  0  0  0
  -20.6870  -27.9290   23.0180 C   0  0  0  0  0  3  0  0  0  0  0  0
  -21.1020  -26.5250   22.5270 C   0  0  0  0  0  2  0  0  0  0  0  0
  -20.1790  -25.9730   21.4350 C   0  0  0  0  0  2  0  0  0  0  0  0
  -18.7380  -25.8760   21.9470 C   0  0  0  0  0  2  0  0  0  0  0  0
  -19.1700  -28.1580   23.0290 C   0  0  0  0  0  0  0  0  0  0  0  0
  -18.6700  -29.3750   23.5450 C   0  0  0  0  0  3  0  0  0  0  0  0
  -17.2850  -29.6270   23.5770 C   0  0  0  0  0  3  0  0  0  0  0  0
  -16.3830  -28.6570   23.1090 C   0  0  0  0  0  3  0  0  0  0  0  0
  -16.8680  -27.4410   22.5940 C   0  0  0  0  0  3  0  0  0  0  0  0
  -25.8200  -32.3910   23.7310 C   0  0  0  0  0  3  0  0  0  0  0  0
  -25.5030  -33.7850   24.0870 N   0  0  0  0  0  0  0  0  0  0  0  0
  -25.7760  -34.8530   23.3250 C   0  0  0  0  0  0  0  0  0  0  0  0
  -26.3920  -34.7750   22.2590 O   0  0  0  0  0  0  0  0  0  0  0  0
  -24.9460  -33.9190   24.9160 H   0  0  0  0  0  0  0  0  0  0  0  0
  -24.0040  -36.6330   23.1080 C   0  0  0  0  0  1  0  0  0  0  0  0
  -25.2960  -36.2270   23.8310 C   0  0  0  0  0  3  0  0  0  0  0  0
  -27.4530  -37.1500   24.5600 C   0  0  0  0  0  1  0  0  0  0  0  0
  -26.3020  -37.3000   23.6750 N   0  0  0  0  0  0  0  0  0  0  0  0
  -25.8820  -38.2070   23.8570 H   0  0  0  0  0  0  0  0  0  0  0  0
  -26.4050  -31.6190   24.9790 C   0  0  1  0  0  0  0  0  0  0  0  0
  -25.3560  -31.3450   26.0790 C   0  0  0  0  0  1  0  0  0  0  0  0
  -27.0060  -30.2540   24.5620 C   0  0  0  0  0  1  0  0  0  0  0  0
  -27.5520  -32.4400   25.6140 C   0  0  0  0  0  1  0  0  0  0  0  0
  2  1  1  0
  3  1  1  0
  4 52  1  0
  4  5  1  0
  4  2  1  0
  5  3  1  0
  6 12  1  0
  6 23  1  0
  7 12  1  0
  8  9  1  0
  8  7  1  0
 10  9  1  0
 10 27  1  0
 10 11  1  0
 12 11  1  0
 13  6  2  0
 14 15  1  0
 15 17  2  0
 16 14  1  0
 17 20  1  0
 18 16  1  0
 18 19  1  0
 18  5  1  0
 19 17  1  0
 19 23  1  0
 20 21  1  0
 21 22  1  0
 23 21  1  0
 24 25  2  0
 25 44  1  0
 26 29  1  0
 26 25  1  0
 27 28  1  0
 27 24  1  0
 28 26  2  0
 29 30  1  0
 30 31  2  0
 32 35  1  0
 32 31  1  0
 33 32  2  0
 34 33  1  0
 34 29  2  0
 35 36  1  0
 36 41  2  0
 36 37  1  0
 37 38  2  0
 38 39  1  0
 39 43  1  0
 40 39  2  0
 41 40  1  0
 42 41  1  0
 44 45  1  0
 45 47  1  0
 45 48  1  0
 46 44  2  0
 49 24  1  0
 49 50  1  0
 51 49  1  0
 53 55  1  0
 53 52  1  0
 54 53  1  0
 55 57  1  0
 56 67  2  0
 57 62  1  0
 58 66  1  0
 58 68  1  0
 59 65  1  0
 59 61  1  0
 60 66  1  0
 61 60  1  0
 62 61  2  0
 63 64  1  0
 63 57  2  0
 64 59  2  0
 65 58  1  0
 66 56  1  0
 68 70  2  0
 69 68  1  0
 71 69  1  0
 72 81  2  0
 72 77  1  0
 73 69  1  0
 73 77  1  0
 74 73  1  0
 75 76  1  0
 75 74  1  0
 76 72  1  0
 77 78  2  0
 78 79  1  0
 80 79  2  0
 81 80  1  0
 82 56  1  0
 82 83  1  0
 82 92  1  0
 83 86  1  0
 84 88  1  0
 84 83  1  0
 85 84  2  0
 88 87  1  0
 90 88  1  0
 90 91  1  0
 90 89  1  0
 92 95  1  1
 92 93  1  0
 94 92  1  0
M  ISO  4   6 100  23 100  53 101  55 101
M  END
>  <TORSDO>  (59) 
F 18

>  <SCORE>  (59) 
-13.777

>  <name>  (59) 
59

>  <ligand_id>  (59) 
59

>  <original_smiles>  (59) 
[H]c1c([H])c([H])c2c(c1[H])C([H])([H])C([H])([H])C([H])([H])C2([H])N([H])C(=O)C1([H])N(C(=O)C([H])(N([H])C(=O)C([H])(N([H])C([H])([H])[H])C([H])([H])[H])C(C([H])([H])[H])(C([H])([H])[H])C([H])([H])[H])C([H])([H])c2c([H])c(ON([H])C([H])([H])C3([H])N(c4c([H])c([H])c([H])c5c4N(C(=O)N4C([H])([H])C([H])([H])C([H])([H])C([H])(n6nc(-c7c([H])c([H])c(Oc8c([H])c([H])c(F)c([H])c8F)c([H])c7[H])c(C(=O)N([H])[H])c6N([H])[H])C4([H])[H])C([H])(C([H])([H])[H])C5([H])[H])C([H])([H])C([H])([H])C3([H])[H])c([H])c([H])c2C1([H])[H]

>  <smiles>  (59) 
[H]c1c([H])c([H])c2c(c1[H])C([H])([H])C([H])([H])C([H])([H])C2([H])N([H])C(=O)C1([H])N(C(=O)C([H])(N([H])C(=O)C([H])(N([H])C([H])([H])[H])C([H])([H])[H])C(C([H])([H])[H])(C([H])([H])[H])C([H])([H])[H])C([H])([H])c2c([H])c(ON([H])C([H])([H])C3([H])N(c4c([H])c([H])c([H])c5c4N(C(=O)N4C([H])([H])C([H])([H])C([H])([H])C([H])(n6nc(-c7c([H])c([H])c(Oc8c([H])c([H])c(F)c([H])c8F)c([H])c7[H])c(C(=O)N([H])[H])c6N([H])[H])C4([H])[H])C([H])(C([H])([H])[H])C5([H])[H])C([H])([H])C([H])([H])C3([H])[H])c([H])c([H])c2C1([H])[H]

$$$$
60:0:0
     RDKit          3D

 81 88  0  0  1  0  0  0  0  0999 V2000
  -28.1510  -24.2600   20.2660 O   0  0  0  0  0  1  0  0  0  0  0  0
  -29.8060  -17.0440   20.1340 C   0  0  0  0  0  0  0  0  0  0  0  0
  -30.2550  -14.1970   19.3540 C   0  0  0  0  0  2  0  0  0  0  0  0
  -29.5770  -13.2100   18.2910 C   0  0  0  0  0  2  0  0  0  0  0  0
  -28.3000  -12.5480   18.8070 C   0  0  0  0  0  2  0  0  0  0  0  0
  -27.5870  -13.5750   19.6920 C   0  0  0  0  0  3  0  0  0  0  0  0
  -28.4910  -14.4180   20.6970 C   0  0  0  0  0  2  0  0  0  0  0  0
  -29.4060  -15.4550   19.9720 N   0  0  0  0  0  0  0  0  0  0  0  0
  -31.0500  -16.7200   20.1580 O   0  0  0  0  0  0  0  0  0  0  0  0
  -29.6200  -20.5230   20.6730 C   0  0  0  0  0  3  0  0  0  0  0  0
  -28.1970  -20.2010   19.5670 C   0  0  0  0  0  2  0  0  0  0  0  0
  -28.3760  -22.0100   20.3400 C   0  0  0  0  0  1  0  0  0  0  0  0
  -29.1880  -18.8290   20.2150 N   0  0  0  0  0  0  0  0  0  0  0  0
  -25.2130  -13.9110   20.4430 C   0  0  0  0  0  0  0  0  0  0  0  0
  -24.1860  -13.0870   20.7930 C   0  0  0  0  0  0  0  0  0  0  0  0
  -24.7100  -11.7570   20.7670 C   0  0  0  0  0  0  0  0  0  0  0  0
  -26.3080  -13.1030   20.2300 N   0  0  0  0  0  0  0  0  0  0  0  0
  -26.0160  -11.7870   20.4670 N   0  0  0  0  0  0  0  0  0  0  0  0
  -24.0070  -10.4710   20.9520 C   0  0  0  0  0  0  0  0  0  0  0  0
  -24.4180   -9.5280   21.9210 C   0  0  0  0  0  3  0  0  0  0  0  0
  -23.7010   -8.3250   22.1040 C   0  0  0  0  0  3  0  0  0  0  0  0
  -22.5550   -8.0500   21.3210 C   0  0  0  0  0  0  0  0  0  0  0  0
  -22.1580   -8.9820   20.3460 C   0  0  0  0  0  3  0  0  0  0  0  0
  -22.8760  -10.1760   20.1610 C   0  0  0  0  0  3  0  0  0  0  0  0
  -21.8140   -6.8940   21.4100 O   0  0  0  0  0  0  0  0  0  0  0  0
  -21.7180   -6.1850   22.5820 C   0  0  0  0  0  0  0  0  0  0  0  0
  -21.1920   -6.7610   23.7600 C   0  0  0  0  0  3  0  0  0  0  0  0
  -21.0480   -5.9780   24.9220 C   0  0  0  0  0  3  0  0  0  0  0  0
  -21.4180   -4.6190   24.9090 C   0  0  0  0  0  0  0  0  0  0  0  0
  -21.9350   -4.0420   23.7360 C   0  0  0  0  0  3  0  0  0  0  0  0
  -22.0820   -4.8220   22.5750 C   0  0  0  0  0  0  0  0  0  0  0  0
  -22.5600   -4.2540   21.4420 F   0  0  0  0  0  0  0  0  0  0  0  0
  -21.2730   -3.8660   26.0240 F   0  0  0  0  0  0  0  0  0  0  0  0
  -22.7700  -13.5200   21.0320 C   0  0  0  0  0  0  0  0  0  0  0  0
  -22.0530  -12.8210   21.9020 N   0  0  0  0  0  0  0  0  0  0  0  0
  -22.3120  -14.5250   20.4860 O   0  0  0  0  0  0  0  0  0  0  0  0
  -22.4380  -12.0130   22.3670 H   0  0  0  0  0  0  0  0  0  0  0  0
  -21.1030  -13.0980   22.1080 H   0  0  0  0  0  0  0  0  0  0  0  0
  -25.3060  -15.2850   20.2470 N   0  0  0  0  0  0  0  0  0  0  0  0
  -24.5030  -15.9000   20.3310 H   0  0  0  0  0  0  0  0  0  0  0  0
  -26.1400  -15.7630   19.9280 H   0  0  0  0  0  0  0  0  0  0  0  0
  -24.7250  -31.7400   23.0950 C   0  0  0  0  0  0  0  0  0  0  0  0
  -27.2370  -25.8530   20.2780 C   0  0  0  0  0  0  0  0  0  0  0  0
  -23.5800  -30.2880   21.4860 C   0  0  0  0  0  3  0  0  0  0  0  0
  -25.0390  -28.4340   20.1690 C   0  0  0  0  0  0  0  0  0  0  0  0
  -26.1860  -30.1750   21.4790 C   0  0  0  0  0  2  0  0  0  0  0  0
  -26.2450  -28.6350   20.8460 C   0  0  0  0  0  0  0  0  0  0  0  0
  -27.2800  -27.4110   20.8390 C   0  0  0  0  0  3  0  0  0  0  0  0
  -25.9880  -26.0920   19.5410 C   0  0  0  0  0  3  0  0  0  0  0  0
  -25.0010  -27.1900   19.4900 C   0  0  0  0  0  3  0  0  0  0  0  0
  -23.8690  -29.4910   20.1640 C   0  0  0  0  0  2  0  0  0  0  0  0
  -24.8670  -30.7900   22.0730 N   0  0  0  0  0  0  0  0  0  0  0  0
  -23.6110  -32.0820   23.5440 O   0  0  0  0  0  0  0  0  0  0  0  0
  -22.7740  -29.4130   22.4930 C   0  0  0  0  0  0  0  0  0  0  0  0
  -21.4320  -29.3130   22.3690 N   0  0  0  0  0  0  0  0  0  0  0  0
  -23.3870  -28.8070   23.3730 O   0  0  0  0  0  0  0  0  0  0  0  0
  -20.9750  -29.8500   21.6460 H   0  0  0  0  0  0  0  0  0  0  0  0
  -18.0150  -28.1440   22.9310 C   0  0  0  0  0  0  0  0  0  0  0  0
  -20.5830  -28.4010   23.1570 C   0  0  0  0  0  3  0  0  0  0  0  0
  -20.6610  -26.9600   22.5990 C   0  0  0  0  0  2  0  0  0  0  0  0
  -19.5500  -26.6440   21.5920 C   0  0  0  0  0  2  0  0  0  0  0  0
  -18.1750  -26.7970   22.2470 C   0  0  0  0  0  2  0  0  0  0  0  0
  -19.1430  -28.9060   23.3420 C   0  0  0  0  0  0  0  0  0  0  0  0
  -18.9310  -30.1600   23.9540 C   0  0  0  0  0  3  0  0  0  0  0  0
  -17.6270  -30.6560   24.1500 C   0  0  0  0  0  3  0  0  0  0  0  0
  -16.5170  -29.8950   23.7480 C   0  0  0  0  0  3  0  0  0  0  0  0
  -16.7110  -28.6400   23.1450 C   0  0  0  0  0  3  0  0  0  0  0  0
  -25.9400  -32.4550   23.7710 C   0  0  0  0  0  3  0  0  0  0  0  0
  -25.5720  -33.8590   24.1000 N   0  0  0  0  0  0  0  0  0  0  0  0
  -25.8960  -34.9500   23.3880 C   0  0  0  0  0  0  0  0  0  0  0  0
  -26.5650  -34.8830   22.3550 O   0  0  0  0  0  0  0  0  0  0  0  0
  -24.9690  -33.9820   24.8990 H   0  0  0  0  0  0  0  0  0  0  0  0
  -24.1410  -36.7520   23.1270 C   0  0  0  0  0  1  0  0  0  0  0  0
  -25.4090  -36.3320   23.8890 C   0  0  0  0  0  3  0  0  0  0  0  0
  -27.5490  -37.2540   24.6800 C   0  0  0  0  0  1  0  0  0  0  0  0
  -26.4240  -37.4050   23.7620 N   0  0  0  0  0  0  0  0  0  0  0  0
  -26.0060  -38.3180   23.9220 H   0  0  0  0  0  0  0  0  0  0  0  0
  -26.4100  -31.7370   25.0980 C   0  0  1  0  0  0  0  0  0  0  0  0
  -25.2800  -31.5280   26.1360 C   0  0  0  0  0  1  0  0  0  0  0  0
  -27.0170  -30.3510   24.7990 C   0  0  0  0  0  1  0  0  0  0  0  0
  -27.5320  -32.5610   25.7730 C   0  0  0  0  0  1  0  0  0  0  0  0
  1 43  1  0
  2  9  2  0
  2 13  1  0
  3  8  1  0
  4  5  1  0
  4  3  1  0
  6  5  1  0
  6 17  1  0
  6  7  1  0
  8  2  1  0
  8  7  1  0
 10 12  1  0
 11 13  1  0
 11 10  1  0
 13 10  1  0
 14 15  2  0
 15 34  1  0
 16 15  1  0
 16 19  1  0
 17 14  1  0
 17 18  1  0
 18 16  2  0
 19 20  1  0
 20 21  2  0
 22 25  1  0
 22 21  1  0
 23 22  2  0
 24 23  1  0
 24 19  2  0
 25 26  1  0
 26 27  1  0
 27 28  2  0
 29 28  1  0
 29 33  1  0
 30 29  2  0
 31 26  2  0
 31 30  1  0
 32 31  1  0
 34 35  1  0
 35 38  1  0
 35 37  1  0
 36 34  2  0
 39 40  1  0
 39 14  1  0
 41 39  1  0
 42 53  2  0
 43 48  1  0
 44 52  1  0
 44 54  1  0
 45 47  1  0
 46 52  1  0
 47 46  1  0
 48 47  2  0
 49 43  2  0
 50 49  1  0
 50 45  2  0
 51 45  1  0
 51 44  1  0
 52 42  1  0
 54 56  2  0
 55 54  1  0
 57 55  1  0
 58 67  2  0
 58 63  1  0
 59 55  1  0
 59 63  1  0
 60 59  1  0
 61 62  1  0
 61 60  1  0
 62 58  1  0
 63 64  2  0
 64 65  1  0
 66 65  2  0
 67 66  1  0
 68 42  1  0
 68 69  1  0
 68 78  1  0
 69 72  1  0
 70 74  1  0
 70 69  1  0
 71 70  2  0
 74 73  1  0
 76 74  1  0
 76 77  1  0
 76 75  1  0
 78 81  1  1
 78 79  1  0
 80 78  1  0
M  ISO  4   1 101   2 100  12 101  13 100
M  END
>  <TORSDO>  (60) 
F 15

>  <SCORE>  (60) 
-16.065

>  <name>  (60) 
60

>  <ligand_id>  (60) 
60

>  <original_smiles>  (60) 
[H]c1c([H])c([H])c2c(c1[H])C([H])([H])C([H])([H])C([H])([H])C2([H])N([H])C(=O)C1([H])N(C(=O)C([H])(N([H])C(=O)C([H])(N([H])C([H])([H])[H])C([H])([H])[H])C(C([H])([H])[H])(C([H])([H])[H])C([H])([H])[H])C([H])([H])c2c([H])c(OC3([H])C([H])([H])N(C(=O)N4C([H])([H])C([H])([H])C([H])([H])C([H])(n5nc(-c6c([H])c([H])c(Oc7c([H])c([H])c(F)c([H])c7F)c([H])c6[H])c(C(=O)N([H])[H])c5N([H])[H])C4([H])[H])C3([H])[H])c([H])c([H])c2C1([H])[H]

>  <smiles>  (60) 
[H]c1c([H])c([H])c2c(c1[H])C([H])([H])C([H])([H])C([H])([H])C2([H])N([H])C(=O)C1([H])N(C(=O)C([H])(N([H])C(=O)C([H])(N([H])C([H])([H])[H])C([H])([H])[H])C(C([H])([H])[H])(C([H])([H])[H])C([H])([H])[H])C([H])([H])c2c([H])c(OC3([H])C([H])([H])N(C(=O)N4C([H])([H])C([H])([H])C([H])([H])C([H])(n5nc(-c6c([H])c([H])c(Oc7c([H])c([H])c(F)c([H])c7F)c([H])c6[H])c(C(=O)N([H])[H])c5N([H])[H])C4([H])[H])C3([H])[H])c([H])c([H])c2C1([H])[H]

$$$$
61:0:0
     RDKit          3D

 89 97  0  0  1  0  0  0  0  0999 V2000
  -30.6320  -18.5540   20.0960 C   0  0  0  0  0  3  0  0  0  0  0  0
  -30.3370  -19.9850   19.9270 C   0  0  0  0  0  3  0  0  0  0  0  0
  -28.3280  -18.0820   19.9740 C   0  0  0  0  0  3  0  0  0  0  0  0
  -29.6320  -17.5130   20.1270 C   0  0  0  0  0  0  0  0  0  0  0  0
  -29.0100  -20.5310   19.7590 C   0  0  0  0  0  0  0  0  0  0  0  0
  -28.0350  -19.4830   19.7960 C   0  0  0  0  0  0  0  0  0  0  0  0
  -26.3710  -19.9180   19.6130 Cl  0  0  0  0  0  0  0  0  0  0  0  0
  -30.5950  -14.8970   20.0790 C   0  0  0  0  0  0  0  0  0  0  0  0
  -30.4810  -12.5140   19.2280 C   0  0  0  0  0  2  0  0  0  0  0  0
  -29.5180  -12.4560   18.0170 C   0  0  0  0  0  2  0  0  0  0  0  0
  -28.0560  -12.2860   18.4780 C   0  0  0  0  0  2  0  0  0  0  0  0
  -27.6870  -13.2480   19.6370 C   0  0  0  0  0  3  0  0  0  0  0  0
  -28.7630  -13.2460   20.7450 C   0  0  0  0  0  2  0  0  0  0  0  0
  -30.0360  -13.6240   20.1130 N   0  0  0  0  0  0  0  0  0  0  0  0
  -31.7730  -15.0130   19.7230 O   0  0  0  0  0  0  0  0  0  0  0  0
  -29.7280  -15.9920   20.2970 N   0  0  0  0  0  0  0  0  0  0  0  0
  -28.8460  -15.6100   20.6000 H   0  0  0  0  0  0  0  0  0  0  0  0
  -25.3460  -13.9020   20.4510 C   0  0  0  0  0  0  0  0  0  0  0  0
  -24.2670  -13.1580   20.8420 C   0  0  0  0  0  0  0  0  0  0  0  0
  -24.6810  -11.7920   20.7700 C   0  0  0  0  0  0  0  0  0  0  0  0
  -26.3500  -12.9920   20.1630 N   0  0  0  0  0  0  0  0  0  0  0  0
  -25.9600  -11.7170   20.4180 N   0  0  0  0  0  0  0  0  0  0  0  0
  -23.9150  -10.5530   20.9570 C   0  0  0  0  0  0  0  0  0  0  0  0
  -24.3510   -9.5420   21.8410 C   0  0  0  0  0  3  0  0  0  0  0  0
  -23.5880   -8.3680   22.0180 C   0  0  0  0  0  3  0  0  0  0  0  0
  -22.3730   -8.1980   21.3110 C   0  0  0  0  0  0  0  0  0  0  0  0
  -21.9550   -9.1970   20.4160 C   0  0  0  0  0  3  0  0  0  0  0  0
  -22.7190  -10.3630   20.2370 C   0  0  0  0  0  3  0  0  0  0  0  0
  -21.5790   -7.0800   21.4020 O   0  0  0  0  0  0  0  0  0  0  0  0
  -21.5640   -6.2950   22.5270 C   0  0  0  0  0  0  0  0  0  0  0  0
  -21.2280   -6.8180   23.7950 C   0  0  0  0  0  3  0  0  0  0  0  0
  -21.1590   -5.9620   24.9130 C   0  0  0  0  0  3  0  0  0  0  0  0
  -21.4160   -4.5850   24.7640 C   0  0  0  0  0  0  0  0  0  0  0  0
  -21.7450   -4.0630   23.5000 C   0  0  0  0  0  3  0  0  0  0  0  0
  -21.8160   -4.9160   22.3850 C   0  0  0  0  0  0  0  0  0  0  0  0
  -22.1140   -4.4040   21.1660 F   0  0  0  0  0  0  0  0  0  0  0  0
  -21.3410   -3.7620   25.8350 F   0  0  0  0  0  0  0  0  0  0  0  0
  -22.8960  -13.6790   21.1630 C   0  0  0  0  0  0  0  0  0  0  0  0
  -22.1710  -12.9990   22.0440 N   0  0  0  0  0  0  0  0  0  0  0  0
  -22.4770  -14.7240   20.6650 O   0  0  0  0  0  0  0  0  0  0  0  0
  -22.5240  -12.1540   22.4690 H   0  0  0  0  0  0  0  0  0  0  0  0
  -21.2520  -13.3300   22.3000 H   0  0  0  0  0  0  0  0  0  0  0  0
  -25.5500  -15.2690   20.2890 N   0  0  0  0  0  0  0  0  0  0  0  0
  -24.7910  -15.9310   20.4050 H   0  0  0  0  0  0  0  0  0  0  0  0
  -26.3510  -15.6680   19.8190 H   0  0  0  0  0  0  0  0  0  0  0  0
  -28.5220  -21.8940   19.5190 O   0  0  0  0  0  0  0  0  0  0  0  0
  -29.1290  -23.2960   19.6130 C   0  0  0  0  0  3  0  0  0  0  0  0
  -28.1420  -24.6400   19.3640 C   0  0  0  0  0  3  0  0  0  0  0  0
  -28.3950  -26.1550   19.6110 O   0  0  0  0  0  0  0  0  0  0  0  0
  -24.6430  -31.5280   22.9760 C   0  0  0  0  0  0  0  0  0  0  0  0
  -27.3060  -27.1010   19.6210 C   0  0  0  0  0  0  0  0  0  0  0  0
  -23.4570  -30.2090   21.2650 C   0  0  0  0  0  3  0  0  0  0  0  0
  -24.9270  -28.7700   19.7280 C   0  0  0  0  0  0  0  0  0  0  0  0
  -26.0000  -30.5560   21.0880 C   0  0  0  0  0  2  0  0  0  0  0  0
  -26.1020  -29.2120   20.3480 C   0  0  0  0  0  0  0  0  0  0  0  0
  -27.2920  -28.3950   20.2780 C   0  0  0  0  0  3  0  0  0  0  0  0
  -26.0980  -26.7590   18.9710 C   0  0  0  0  0  3  0  0  0  0  0  0
  -24.9360  -27.5580   19.0240 C   0  0  0  0  0  3  0  0  0  0  0  0
  -23.6770  -29.6270   19.8440 C   0  0  0  0  0  2  0  0  0  0  0  0
  -24.7200  -30.7820   21.8320 N   0  0  0  0  0  0  0  0  0  0  0  0
  -23.5570  -31.7500   23.5340 O   0  0  0  0  0  0  0  0  0  0  0  0
  -22.8170  -29.1240   22.1680 C   0  0  0  0  0  0  0  0  0  0  0  0
  -21.4870  -28.9480   22.0670 N   0  0  0  0  0  0  0  0  0  0  0  0
  -23.5190  -28.4460   22.9220 O   0  0  0  0  0  0  0  0  0  0  0  0
  -20.9770  -29.5490   21.4360 H   0  0  0  0  0  0  0  0  0  0  0  0
  -18.1280  -27.7040   22.6060 C   0  0  0  0  0  0  0  0  0  0  0  0
  -20.6970  -27.9480   22.7890 C   0  0  0  0  0  3  0  0  0  0  0  0
  -20.7730  -26.5690   22.0940 C   0  0  0  0  0  2  0  0  0  0  0  0
  -19.6290  -26.3300   21.1020 C   0  0  0  0  0  2  0  0  0  0  0  0
  -18.2760  -26.4170   21.8120 C   0  0  0  0  0  2  0  0  0  0  0  0
  -19.2650  -28.4310   23.0520 C   0  0  0  0  0  0  0  0  0  0  0  0
  -19.0710  -29.6380   23.7580 C   0  0  0  0  0  3  0  0  0  0  0  0
  -17.7740  -30.1190   24.0210 C   0  0  0  0  0  3  0  0  0  0  0  0
  -16.6540  -29.3880   23.5890 C   0  0  0  0  0  3  0  0  0  0  0  0
  -16.8320  -28.1820   22.8890 C   0  0  0  0  0  3  0  0  0  0  0  0
  -25.9130  -32.1560   23.6270 C   0  0  0  0  0  3  0  0  0  0  0  0
  -26.4450  -31.3320   24.8650 C   0  0  1  0  0  0  0  0  0  0  0  0
  -25.3610  -31.0310   25.9260 C   0  0  0  0  0  1  0  0  0  0  0  0
  -27.0450  -29.9810   24.4100 C   0  0  0  0  0  1  0  0  0  0  0  0
  -27.5900  -32.1090   25.5570 C   0  0  0  0  0  1  0  0  0  0  0  0
  -25.5750  -33.5300   24.0330 N   0  0  0  0  0  0  0  0  0  0  0  0
  -25.8700  -34.6290   23.3270 C   0  0  0  0  0  0  0  0  0  0  0  0
  -26.5210  -34.5950   22.2790 O   0  0  0  0  0  0  0  0  0  0  0  0
  -24.9930  -33.6270   24.8520 H   0  0  0  0  0  0  0  0  0  0  0  0
  -24.0890  -36.3950   23.1120 C   0  0  0  0  0  1  0  0  0  0  0  0
  -25.3630  -35.9820   23.8660 C   0  0  0  0  0  3  0  0  0  0  0  0
  -27.4990  -36.8830   24.6800 C   0  0  0  0  0  1  0  0  0  0  0  0
  -26.3670  -37.0650   23.7750 N   0  0  0  0  0  0  0  0  0  0  0  0
  -25.9430  -37.9670   23.9760 H   0  0  0  0  0  0  0  0  0  0  0  0
  1  4  1  0
  2  1  2  0
  3  4  2  0
  4 16  1  0
  5  6  2  0
  5  2  1  0
  6  3  1  0
  7  6  1  0
  8 14  1  0
  8 16  1  0
  9 14  1  0
 10 11  1  0
 10  9  1  0
 12 11  1  0
 12 21  1  0
 12 13  1  0
 14 13  1  0
 15  8  2  0
 16 17  1  0
 18 19  2  0
 19 38  1  0
 20 19  1  0
 20 23  1  0
 21 22  1  0
 21 18  1  0
 22 20  2  0
 23 24  1  0
 24 25  2  0
 26 29  1  0
 26 25  1  0
 27 26  2  0
 28 27  1  0
 28 23  2  0
 29 30  1  0
 30 31  1  0
 31 32  2  0
 33 32  1  0
 33 37  1  0
 34 33  2  0
 35 30  2  0
 35 34  1  0
 36 35  1  0
 38 39  1  0
 39 42  1  0
 39 41  1  0
 40 38  2  0
 43 44  1  0
 43 18  1  0
 45 43  1  0
 46 47  1  0
 46  5  1  0
 48 49  1  0
 48 47  2  0
 49 51  1  0
 50 61  2  0
 51 56  1  0
 52 60  1  0
 52 62  1  0
 53 59  1  0
 53 55  1  0
 54 60  1  0
 55 54  1  0
 56 55  2  0
 57 58  1  0
 57 51  2  0
 58 53  2  0
 59 52  1  0
 60 50  1  0
 62 64  2  0
 63 62  1  0
 65 63  1  0
 66 75  2  0
 66 71  1  0
 67 63  1  0
 67 71  1  0
 68 67  1  0
 69 70  1  0
 69 68  1  0
 70 66  1  0
 71 72  2  0
 72 73  1  0
 74 73  2  0
 75 74  1  0
 76 50  1  0
 76 81  1  0
 76 77  1  0
 77 80  1  1
 77 78  1  0
 79 77  1  0
 81 84  1  0
 82 86  1  0
 82 81  1  0
 83 82  2  0
 86 85  1  0
 88 86  1  0
 88 89  1  0
 88 87  1  0
M  ISO  4   8 100  16 100  48 101  49 101
M  END
>  <TORSDO>  (61) 
F 19

>  <SCORE>  (61) 
-12.798

>  <name>  (61) 
61

>  <ligand_id>  (61) 
61

>  <original_smiles>  (61) 
[H]c1c([H])c([H])c2c(c1[H])C([H])([H])C([H])([H])C([H])([H])C2([H])N([H])C(=O)C1([H])N(C(=O)C([H])(N([H])C(=O)C([H])(N([H])C([H])([H])[H])C([H])([H])[H])C(C([H])([H])[H])(C([H])([H])[H])C([H])([H])[H])C([H])([H])c2c([H])c(OC([H])([H])C([H])([H])Oc3c([H])c([H])c(N([H])C(=O)N4C([H])([H])C([H])([H])C([H])([H])C([H])(n5nc(-c6c([H])c([H])c(Oc7c([H])c([H])c(F)c([H])c7F)c([H])c6[H])c(C(=O)N([H])[H])c5N([H])[H])C4([H])[H])c([H])c3Cl)c([H])c([H])c2C1([H])[H]

>  <smiles>  (61) 
[H]c1c([H])c([H])c2c(c1[H])C([H])([H])C([H])([H])C([H])([H])C2([H])N([H])C(=O)C1([H])N(C(=O)C([H])(N([H])C(=O)C([H])(N([H])C([H])([H])[H])C([H])([H])[H])C(C([H])([H])[H])(C([H])([H])[H])C([H])([H])[H])C([H])([H])c2c([H])c(OC([H])([H])C([H])([H])Oc3c([H])c([H])c(N([H])C(=O)N4C([H])([H])C([H])([H])C([H])([H])C([H])(n5nc(-c6c([H])c([H])c(Oc7c([H])c([H])c(F)c([H])c7F)c([H])c6[H])c(C(=O)N([H])[H])c5N([H])[H])C4([H])[H])c([H])c3Cl)c([H])c([H])c2C1([H])[H]

$$$$
62:0:0
     RDKit          3D

 93101  0  0  1  0  0  0  0  0999 V2000
  -31.1430  -22.0020   18.9860 C   0  0  0  0  0  1  0  0  0  0  0  0
  -31.6470  -22.6890   20.2010 N   0  0  2  0  0  4  0  0  0  0  0  0
  -32.3170  -23.3660   19.8710 H   0  0  0  0  0  0  0  0  0  0  0  0
  -32.4500  -21.8050   21.0900 C   0  0  0  0  0  2  0  0  0  0  0  0
  -30.5550  -19.1660   23.1620 C   0  0  0  0  0  3  0  0  0  0  0  0
  -30.6300  -18.0380   22.3200 C   0  0  0  0  0  3  0  0  0  0  0  0
  -31.1150  -20.3970   22.7570 C   0  0  0  0  0  3  0  0  0  0  0  0
  -31.8340  -19.3650   20.6710 C   0  0  0  0  0  3  0  0  0  0  0  0
  -31.2610  -18.1340   21.0620 C   0  0  0  0  0  0  0  0  0  0  0  0
  -31.7670  -20.5000   21.5090 C   0  0  0  0  0  0  0  0  0  0  0  0
  -31.2920  -16.9680   20.0800 C   0  0  0  0  0  2  0  0  0  0  0  0
  -31.5860  -14.5290   20.2540 C   0  0  0  0  0  0  0  0  0  0  0  0
  -31.1100  -12.4220   19.0990 C   0  0  0  0  0  2  0  0  0  0  0  0
  -30.2020  -12.7410   17.8920 C   0  0  0  0  0  2  0  0  0  0  0  0
  -28.7180  -12.7170   18.3110 C   0  0  0  0  0  2  0  0  0  0  0  0
  -28.4410  -13.5490   19.5920 C   0  0  0  0  0  3  0  0  0  0  0  0
  -29.4690  -13.2330   20.7050 C   0  0  0  0  0  2  0  0  0  0  0  0
  -30.8180  -13.4150   20.1430 N   0  0  0  0  0  0  0  0  0  0  0  0
  -32.7420  -14.5890   19.8250 O   0  0  0  0  0  0  0  0  0  0  0  0
  -30.9250  -15.6440   20.5990 N   0  0  0  0  0  0  0  0  0  0  0  0
  -29.9820  -15.5230   20.9270 H   0  0  0  0  0  0  0  0  0  0  0  0
  -26.0860  -14.3270   20.2770 C   0  0  0  0  0  0  0  0  0  0  0  0
  -24.9620  -13.6330   20.6400 C   0  0  0  0  0  0  0  0  0  0  0  0
  -25.3250  -12.2520   20.6110 C   0  0  0  0  0  0  0  0  0  0  0  0
  -27.0670  -13.3720   20.0570 N   0  0  0  0  0  0  0  0  0  0  0  0
  -26.6120  -12.1180   20.3130 N   0  0  0  0  0  0  0  0  0  0  0  0
  -24.5080  -11.0470   20.7950 C   0  0  0  0  0  0  0  0  0  0  0  0
  -24.8450  -10.0660   21.7550 C   0  0  0  0  0  3  0  0  0  0  0  0
  -24.0350   -8.9220   21.9250 C   0  0  0  0  0  3  0  0  0  0  0  0
  -22.8740   -8.7530   21.1340 C   0  0  0  0  0  0  0  0  0  0  0  0
  -22.5560   -9.7190   20.1640 C   0  0  0  0  0  3  0  0  0  0  0  0
  -23.3660  -10.8550   19.9920 C   0  0  0  0  0  3  0  0  0  0  0  0
  -22.0410   -7.6610   21.2130 O   0  0  0  0  0  0  0  0  0  0  0  0
  -21.8640   -6.9730   22.3860 C   0  0  0  0  0  0  0  0  0  0  0  0
  -21.4090   -7.6100   23.5620 C   0  0  0  0  0  3  0  0  0  0  0  0
  -21.1740   -6.8520   24.7270 C   0  0  0  0  0  3  0  0  0  0  0  0
  -21.3820   -5.4600   24.7160 C   0  0  0  0  0  0  0  0  0  0  0  0
  -21.8290   -4.8240   23.5440 C   0  0  0  0  0  3  0  0  0  0  0  0
  -22.0670   -5.5790   22.3820 C   0  0  0  0  0  0  0  0  0  0  0  0
  -22.4760   -4.9580   21.2500 F   0  0  0  0  0  0  0  0  0  0  0  0
  -21.1500   -4.7310   25.8320 F   0  0  0  0  0  0  0  0  0  0  0  0
  -23.6000  -14.2110   20.9020 C   0  0  0  0  0  0  0  0  0  0  0  0
  -22.8220  -13.5790   21.7740 N   0  0  0  0  0  0  0  0  0  0  0  0
  -23.2360  -15.2580   20.3690 O   0  0  0  0  0  0  0  0  0  0  0  0
  -23.1280  -12.7290   22.2240 H   0  0  0  0  0  0  0  0  0  0  0  0
  -21.9070  -13.9480   21.9910 H   0  0  0  0  0  0  0  0  0  0  0  0
  -26.3510  -15.6800   20.1000 N   0  0  0  0  0  0  0  0  0  0  0  0
  -25.6310  -16.3890   20.2030 H   0  0  0  0  0  0  0  0  0  0  0  0
  -27.2300  -16.0550   19.7630 H   0  0  0  0  0  0  0  0  0  0  0  0
  -30.5970  -23.4790   20.8970 C   0  0  0  0  0  2  0  0  0  0  0  0
  -30.4450  -24.9040   20.3220 C   0  0  0  0  0  2  0  0  0  0  0  0
  -29.0860  -25.5330   20.6710 C   0  0  0  0  0  2  0  0  0  0  0  0
  -29.0650  -26.8990   20.2570 O   0  0  0  0  0  0  0  0  0  0  0  0
  -24.8180  -31.7570   23.2300 C   0  0  0  0  0  0  0  0  0  0  0  0
  -27.8320  -27.5130   20.2340 C   0  0  0  0  0  0  0  0  0  0  0  0
  -23.7490  -30.2850   21.5490 C   0  0  0  0  0  3  0  0  0  0  0  0
  -25.3400  -28.8470   20.1700 C   0  0  0  0  0  0  0  0  0  0  0  0
  -26.2460  -30.8130   21.4180 C   0  0  0  0  0  2  0  0  0  0  0  0
  -26.4410  -29.4500   20.7870 C   0  0  0  0  0  0  0  0  0  0  0  0
  -27.6910  -28.7930   20.8110 C   0  0  0  0  0  3  0  0  0  0  0  0
  -26.7120  -26.9170   19.6090 C   0  0  0  0  0  3  0  0  0  0  0  0
  -25.4700  -27.5800   19.5740 C   0  0  0  0  0  3  0  0  0  0  0  0
  -24.0410  -29.6210   20.1760 C   0  0  0  0  0  2  0  0  0  0  0  0
  -24.9540  -30.9670   22.1260 N   0  0  0  0  0  0  0  0  0  0  0  0
  -23.7080  -31.9590   23.7400 O   0  0  0  0  0  0  0  0  0  0  0  0
  -23.1390  -29.2240   22.4910 C   0  0  0  0  0  0  0  0  0  0  0  0
  -21.8370  -28.9440   22.3130 N   0  0  0  0  0  0  0  0  0  0  0  0
  -23.8340  -28.6510   23.3340 O   0  0  0  0  0  0  0  0  0  0  0  0
  -21.3360  -29.4640   21.6070 H   0  0  0  0  0  0  0  0  0  0  0  0
  -18.5510  -27.4830   22.6490 C   0  0  0  0  0  0  0  0  0  0  0  0
  -21.0600  -27.9520   23.0540 C   0  0  0  0  0  3  0  0  0  0  0  0
  -21.3100  -26.5280   22.5060 C   0  0  0  0  0  2  0  0  0  0  0  0
  -20.2940  -26.1030   21.4420 C   0  0  0  0  0  2  0  0  0  0  0  0
  -18.8720  -26.1430   22.0080 C   0  0  0  0  0  2  0  0  0  0  0  0
  -19.5790  -28.3390   23.1250 C   0  0  0  0  0  0  0  0  0  0  0  0
  -19.2260  -29.5900   23.6790 C   0  0  0  0  0  3  0  0  0  0  0  0
  -17.8780  -29.9840   23.7650 C   0  0  0  0  0  3  0  0  0  0  0  0
  -16.8640  -29.1270   23.3040 C   0  0  0  0  0  3  0  0  0  0  0  0
  -17.2010  -27.8790   22.7510 C   0  0  0  0  0  3  0  0  0  0  0  0
  -26.0450  -32.4630   23.8880 C   0  0  0  0  0  3  0  0  0  0  0  0
  -25.6430  -33.8410   24.2060 N   0  0  0  0  0  0  0  0  0  0  0  0
  -25.9410  -34.9090   23.4550 C   0  0  0  0  0  0  0  0  0  0  0  0
  -26.6550  -34.8450   22.4500 O   0  0  0  0  0  0  0  0  0  0  0  0
  -25.0110  -33.9630   24.9830 H   0  0  0  0  0  0  0  0  0  0  0  0
  -24.1240  -36.5930   23.0220 C   0  0  0  0  0  1  0  0  0  0  0  0
  -25.3520  -36.2660   23.8860 C   0  0  0  0  0  3  0  0  0  0  0  0
  -27.4000  -37.2760   24.7920 C   0  0  0  0  0  1  0  0  0  0  0  0
  -26.3230  -37.3790   23.8110 N   0  0  0  0  0  0  0  0  0  0  0  0
  -25.8580  -38.2740   23.9380 H   0  0  0  0  0  0  0  0  0  0  0  0
  -26.5690  -31.7230   25.1800 C   0  0  1  0  0  0  0  0  0  0  0  0
  -25.4620  -31.4190   26.2160 C   0  0  0  0  0  1  0  0  0  0  0  0
  -27.2440  -30.3830   24.8020 C   0  0  0  0  0  1  0  0  0  0  0  0
  -27.6520  -32.5810   25.8740 C   0  0  0  0  0  1  0  0  0  0  0  0
  1  2  1  0
  2 50  1  0
  2  4  1  0
  2  3  1  6
  4 10  1  0
  6  5  2  0
  7  5  1  0
  8  9  2  0
  8 10  1  0
  9  6  1  0
 10  7  2  0
 11 20  1  0
 11  9  1  0
 12 20  1  0
 13 18  1  0
 14 15  1  0
 14 13  1  0
 16 15  1  0
 16 25  1  0
 16 17  1  0
 18 12  1  0
 18 17  1  0
 19 12  2  0
 20 21  1  0
 22 23  2  0
 23 42  1  0
 24 23  1  0
 24 27  1  0
 25 22  1  0
 25 26  1  0
 26 24  2  0
 27 28  1  0
 28 29  2  0
 30 33  1  0
 30 29  1  0
 31 30  2  0
 32 31  1  0
 32 27  2  0
 33 34  1  0
 34 35  1  0
 35 36  2  0
 37 36  1  0
 37 41  1  0
 38 37  2  0
 39 34  2  0
 39 38  1  0
 40 39  1  0
 42 43  1  0
 43 46  1  0
 43 45  1  0
 44 42  2  0
 47 48  1  0
 47 22  1  0
 49 47  1  0
 51 52  1  0
 51 50  1  0
 53 52  1  0
 54 65  2  0
 55 53  1  0
 55 60  1  0
 56 64  1  0
 56 66  1  0
 57 63  1  0
 57 59  1  0
 58 64  1  0
 59 60  2  0
 59 58  1  0
 61 55  2  0
 62 61  1  0
 62 57  2  0
 63 56  1  0
 64 54  1  0
 66 68  2  0
 67 66  1  0
 69 67  1  0
 70 79  2  0
 70 75  1  0
 71 67  1  0
 71 75  1  0
 72 71  1  0
 73 74  1  0
 73 72  1  0
 74 70  1  0
 75 76  2  0
 76 77  1  0
 78 77  2  0
 79 78  1  0
 80 54  1  0
 80 81  1  0
 80 90  1  0
 81 84  1  0
 82 86  1  0
 82 81  1  0
 83 82  2  0
 86 85  1  0
 88 86  1  0
 88 89  1  0
 88 87  1  0
 90 93  1  1
 90 91  1  0
 92 90  1  0
M  ISO  4  12 100  20 100  52 101  53 101
M  END
>  <TORSDO>  (62) 
F 22

>  <SCORE>  (62) 
-11.290

>  <name>  (62) 
62

>  <ligand_id>  (62) 
62

>  <original_smiles>  (62) 
[H]c1c([H])c([H])c2c(c1[H])C([H])([H])C([H])([H])C([H])([H])C2([H])N([H])C(=O)C1([H])N(C(=O)C([H])(N([H])C(=O)C([H])(N([H])C([H])([H])[H])C([H])([H])[H])C(C([H])([H])[H])(C([H])([H])[H])C([H])([H])[H])C([H])([H])c2c([H])c(OC([H])([H])C([H])([H])C([H])([H])[N+]([H])(C([H])([H])[H])C([H])([H])c3c([H])c([H])c([H])c(C([H])([H])N([H])C(=O)N4C([H])([H])C([H])([H])C([H])([H])C([H])(n5nc(-c6c([H])c([H])c(Oc7c([H])c([H])c(F)c([H])c7F)c([H])c6[H])c(C(=O)N([H])[H])c5N([H])[H])C4([H])[H])c3[H])c([H])c([H])c2C1([H])[H]

>  <smiles>  (62) 
[H]c1c([H])c([H])c2c(c1[H])C([H])([H])C([H])([H])C([H])([H])C2([H])N([H])C(=O)C1([H])N(C(=O)C([H])(N([H])C(=O)C([H])(N([H])C([H])([H])[H])C([H])([H])[H])C(C([H])([H])[H])(C([H])([H])[H])C([H])([H])[H])C([H])([H])c2c([H])c(OC([H])([H])C([H])([H])C([H])([H])[N+]([H])(C([H])([H])[H])C([H])([H])c3c([H])c([H])c([H])c(C([H])([H])N([H])C(=O)N4C([H])([H])C([H])([H])C([H])([H])C([H])(n5nc(-c6c([H])c([H])c(Oc7c([H])c([H])c(F)c([H])c7F)c([H])c6[H])c(C(=O)N([H])[H])c5N([H])[H])C4([H])[H])c3[H])c([H])c([H])c2C1([H])[H]

$$$$
63:0:0
     RDKit          3D

 83 90  0  0  1  0  0  0  0  0999 V2000
  -30.0400  -16.4510   20.2400 C   0  0  0  0  0  0  0  0  0  0  0  0
  -30.3380  -13.7140   19.5150 C   0  0  0  0  0  2  0  0  0  0  0  0
  -29.5840  -12.9150   18.3840 C   0  0  0  0  0  2  0  0  0  0  0  0
  -28.2280  -12.3910   18.8610 C   0  0  0  0  0  2  0  0  0  0  0  0
  -27.5770  -13.4450   19.7700 C   0  0  0  0  0  3  0  0  0  0  0  0
  -28.5190  -14.1110   20.8330 C   0  0  0  0  0  2  0  0  0  0  0  0
  -29.5600  -14.9650   20.1270 N   0  0  0  0  0  0  0  0  0  0  0  0
  -31.2820  -16.1950   20.1830 O   0  0  0  0  0  0  0  0  0  0  0  0
  -29.5390  -21.4550   19.5260 C   0  0  0  0  0  2  0  0  0  0  0  0
  -28.0200  -21.1120   20.8350 C   0  0  0  0  0  2  0  0  0  0  0  0
  -30.1120  -19.6710   19.9600 C   0  0  0  0  0  2  0  0  0  0  0  0
  -28.1980  -19.2300   20.4500 C   0  0  0  0  0  2  0  0  0  0  0  0
  -28.2970  -22.7400   20.0010 C   0  0  0  0  0  2  0  0  0  0  0  0
  -29.4630  -18.1080   20.1840 N   0  0  0  0  0  0  0  0  0  0  0  0
  -25.2020  -13.8910   20.4860 C   0  0  0  0  0  0  0  0  0  0  0  0
  -24.1500  -13.0950   20.8320 C   0  0  0  0  0  0  0  0  0  0  0  0
  -24.6460  -11.7530   20.8270 C   0  0  0  0  0  0  0  0  0  0  0  0
  -26.2720  -13.0460   20.2860 N   0  0  0  0  0  0  0  0  0  0  0  0
  -25.9510  -11.7470   20.5470 N   0  0  0  0  0  0  0  0  0  0  0  0
  -23.9240  -10.4830   21.0140 C   0  0  0  0  0  0  0  0  0  0  0  0
  -24.3400   -9.5250   21.9660 C   0  0  0  0  0  3  0  0  0  0  0  0
  -23.6090   -8.3290   22.1470 C   0  0  0  0  0  3  0  0  0  0  0  0
  -22.4480   -8.0810   21.3770 C   0  0  0  0  0  0  0  0  0  0  0  0
  -22.0500   -9.0270   20.4170 C   0  0  0  0  0  3  0  0  0  0  0  0
  -22.7810  -10.2140   20.2340 C   0  0  0  0  0  3  0  0  0  0  0  0
  -21.6930   -6.9360   21.4660 O   0  0  0  0  0  0  0  0  0  0  0  0
  -21.6320   -6.1990   22.6220 C   0  0  0  0  0  0  0  0  0  0  0  0
  -21.2040   -6.7630   23.8430 C   0  0  0  0  0  3  0  0  0  0  0  0
  -21.0910   -5.9540   24.9910 C   0  0  0  0  0  3  0  0  0  0  0  0
  -21.3960   -4.5820   24.9200 C   0  0  0  0  0  0  0  0  0  0  0  0
  -21.8180   -4.0170   23.7040 C   0  0  0  0  0  3  0  0  0  0  0  0
  -21.9320   -4.8230   22.5580 C   0  0  0  0  0  0  0  0  0  0  0  0
  -22.3170   -4.2690   21.3820 F   0  0  0  0  0  0  0  0  0  0  0  0
  -21.2800   -3.8030   26.0210 F   0  0  0  0  0  0  0  0  0  0  0  0
  -22.7400  -13.5560   21.0490 C   0  0  0  0  0  0  0  0  0  0  0  0
  -21.9990  -12.8740   21.9140 N   0  0  0  0  0  0  0  0  0  0  0  0
  -22.3050  -14.5610   20.4880 O   0  0  0  0  0  0  0  0  0  0  0  0
  -22.3650  -12.0630   22.3890 H   0  0  0  0  0  0  0  0  0  0  0  0
  -21.0510  -13.1680   22.1030 H   0  0  0  0  0  0  0  0  0  0  0  0
  -25.3380  -15.2620   20.2890 N   0  0  0  0  0  0  0  0  0  0  0  0
  -24.5520  -15.9000   20.3660 H   0  0  0  0  0  0  0  0  0  0  0  0
  -26.1870  -15.7150   19.9770 H   0  0  0  0  0  0  0  0  0  0  0  0
  -28.1700  -24.7750   20.1880 O   0  0  0  0  0  1  0  0  0  0  0  0
  -24.7530  -31.7710   23.0090 C   0  0  0  0  0  0  0  0  0  0  0  0
  -27.2450  -26.2140   20.1220 C   0  0  0  0  0  0  0  0  0  0  0  0
  -23.5790  -30.3370   21.4020 C   0  0  0  0  0  3  0  0  0  0  0  0
  -25.0240  -28.5690   20.0360 C   0  0  0  0  0  0  0  0  0  0  0  0
  -26.1750  -30.3310   21.3290 C   0  0  0  0  0  2  0  0  0  0  0  0
  -26.2300  -28.8350   20.6910 C   0  0  0  0  0  0  0  0  0  0  0  0
  -27.2940  -27.7040   20.6890 C   0  0  0  0  0  3  0  0  0  0  0  0
  -26.0000  -26.2940   19.3970 C   0  0  0  0  0  3  0  0  0  0  0  0
  -24.9790  -27.3300   19.3620 C   0  0  0  0  0  3  0  0  0  0  0  0
  -23.8390  -29.5820   20.0570 C   0  0  0  0  0  2  0  0  0  0  0  0
  -24.8660  -30.8600   21.9640 N   0  0  0  0  0  0  0  0  0  0  0  0
  -23.6510  -32.0980   23.4920 O   0  0  0  0  0  0  0  0  0  0  0  0
  -22.8180  -29.4200   22.4010 C   0  0  0  0  0  0  0  0  0  0  0  0
  -21.4760  -29.3140   22.3020 N   0  0  0  0  0  0  0  0  0  0  0  0
  -23.4570  -28.7940   23.2490 O   0  0  0  0  0  0  0  0  0  0  0  0
  -21.0020  -29.8670   21.6020 H   0  0  0  0  0  0  0  0  0  0  0  0
  -18.0660  -28.1740   22.9100 C   0  0  0  0  0  0  0  0  0  0  0  0
  -20.6400  -28.3970   23.0950 C   0  0  0  0  0  3  0  0  0  0  0  0
  -20.6930  -26.9630   22.5170 C   0  0  0  0  0  2  0  0  0  0  0  0
  -19.5590  -26.6680   21.5290 C   0  0  0  0  0  2  0  0  0  0  0  0
  -18.1990  -26.8310   22.2120 C   0  0  0  0  0  2  0  0  0  0  0  0
  -19.2100  -28.9170   23.3080 C   0  0  0  0  0  0  0  0  0  0  0  0
  -19.0250  -30.1690   23.9320 C   0  0  0  0  0  3  0  0  0  0  0  0
  -17.7320  -30.6820   24.1540 C   0  0  0  0  0  3  0  0  0  0  0  0
  -16.6050  -29.9380   23.7640 C   0  0  0  0  0  3  0  0  0  0  0  0
  -16.7730  -28.6850   23.1500 C   0  0  0  0  0  3  0  0  0  0  0  0
  -25.9940  -32.4580   23.6590 C   0  0  0  0  0  3  0  0  0  0  0  0
  -25.6340  -33.8470   24.0330 N   0  0  0  0  0  0  0  0  0  0  0  0
  -25.9390  -34.9510   23.3360 C   0  0  0  0  0  0  0  0  0  0  0  0
  -26.5960  -34.9100   22.2950 O   0  0  0  0  0  0  0  0  0  0  0  0
  -25.0420  -33.9490   24.8450 H   0  0  0  0  0  0  0  0  0  0  0  0
  -24.1730  -36.7430   23.1210 C   0  0  0  0  0  1  0  0  0  0  0  0
  -25.4450  -36.3160   23.8720 C   0  0  0  0  0  3  0  0  0  0  0  0
  -27.5860  -37.2150   24.6810 C   0  0  0  0  0  1  0  0  0  0  0  0
  -26.4540  -37.3940   23.7750 N   0  0  0  0  0  0  0  0  0  0  0  0
  -26.0340  -38.3000   23.9680 H   0  0  0  0  0  0  0  0  0  0  0  0
  -26.5160  -31.6970   24.9430 C   0  0  1  0  0  0  0  0  0  0  0  0
  -25.4230  -31.4500   26.0110 C   0  0  0  0  0  1  0  0  0  0  0  0
  -27.1180  -30.3250   24.5750 C   0  0  0  0  0  1  0  0  0  0  0  0
  -27.6570  -32.5070   25.6040 C   0  0  0  0  0  1  0  0  0  0  0  0
  2  7  1  0
  3  4  1  0
  3  2  1  0
  5  4  1  0
  5 18  1  0
  5  6  1  0
  7  1  1  0
  7  6  1  0
  8  1  2  0
  9 11  1  0
  9 13  1  0
 11 14  1  0
 12 10  1  0
 13 10  1  0
 14  1  1  0
 14 12  1  0
 15 16  2  0
 16 35  1  0
 17 16  1  0
 17 20  1  0
 18 15  1  0
 18 19  1  0
 19 17  2  0
 20 21  1  0
 21 22  2  0
 23 26  1  0
 23 22  1  0
 24 23  2  0
 25 24  1  0
 25 20  2  0
 26 27  1  0
 27 28  1  0
 28 29  2  0
 30 29  1  0
 30 34  1  0
 31 30  2  0
 32 27  2  0
 32 31  1  0
 33 32  1  0
 35 36  1  0
 36 39  1  0
 36 38  1  0
 37 35  2  0
 40 41  1  0
 40 15  1  0
 42 40  1  0
 44 55  2  0
 45 43  1  0
 45 50  1  0
 46 54  1  0
 46 56  1  0
 47 53  1  0
 47 49  1  0
 48 54  1  0
 49 48  1  0
 50 49  2  0
 51 45  2  0
 52 51  1  0
 52 47  2  0
 53 46  1  0
 54 44  1  0
 56 58  2  0
 57 56  1  0
 59 57  1  0
 60 69  2  0
 60 65  1  0
 61 57  1  0
 61 65  1  0
 62 61  1  0
 63 64  1  0
 63 62  1  0
 64 60  1  0
 65 66  2  0
 66 67  1  0
 68 67  2  0
 69 68  1  0
 70 44  1  0
 70 71  1  0
 70 80  1  0
 71 74  1  0
 72 76  1  0
 72 71  1  0
 73 72  2  0
 76 75  1  0
 78 76  1  0
 78 79  1  0
 78 77  1  0
 80 83  1  1
 80 81  1  0
 82 80  1  0
M  ISO  4   1 100  13 101  14 100  43 101
M  END
>  <TORSDO>  (63) 
F 15

>  <SCORE>  (63) 
-16.160

>  <name>  (63) 
63

>  <ligand_id>  (63) 
63

>  <original_smiles>  (63) 
[H]c1c([H])c([H])c2c(c1[H])C([H])([H])C([H])([H])C([H])([H])C2([H])N([H])C(=O)C1([H])N(C(=O)C([H])(N([H])C(=O)C([H])(N([H])C([H])([H])[H])C([H])([H])[H])C(C([H])([H])[H])(C([H])([H])[H])C([H])([H])[H])C([H])([H])c2c([H])c(OC3([H])C([H])([H])C([H])([H])N(C(=O)N4C([H])([H])C([H])([H])C([H])([H])C([H])(n5nc(-c6c([H])c([H])c(Oc7c([H])c([H])c(F)c([H])c7F)c([H])c6[H])c(C(=O)N([H])[H])c5N([H])[H])C4([H])[H])C([H])([H])C3([H])[H])c([H])c([H])c2C1([H])[H]

>  <smiles>  (63) 
[H]c1c([H])c([H])c2c(c1[H])C([H])([H])C([H])([H])C([H])([H])C2([H])N([H])C(=O)C1([H])N(C(=O)C([H])(N([H])C(=O)C([H])(N([H])C([H])([H])[H])C([H])([H])[H])C(C([H])([H])[H])(C([H])([H])[H])C([H])([H])[H])C([H])([H])c2c([H])c(OC3([H])C([H])([H])C([H])([H])N(C(=O)N4C([H])([H])C([H])([H])C([H])([H])C([H])(n5nc(-c6c([H])c([H])c(Oc7c([H])c([H])c(F)c([H])c7F)c([H])c6[H])c(C(=O)N([H])[H])c5N([H])[H])C4([H])[H])C([H])([H])C3([H])[H])c([H])c([H])c2C1([H])[H]

$$$$
64:0:0
     RDKit          3D

 94103  0  0  1  0  0  0  0  0999 V2000
  -28.1260  -21.5240   20.1860 C   0  0  0  0  0  2  0  0  0  0  0  0
  -28.5010  -19.2420   18.8720 C   0  0  0  0  0  3  0  0  0  0  0  0
  -30.0980  -18.2330   20.9450 C   0  0  0  0  0  3  0  0  0  0  0  0
  -28.8480  -20.1380   19.9320 C   0  0  0  0  0  0  0  0  0  0  0  0
  -29.6810  -17.3150   19.9460 C   0  0  0  0  0  0  0  0  0  0  0  0
  -28.9000  -17.8650   18.8850 C   0  0  0  0  0  0  0  0  0  0  0  0
  -29.6930  -19.6020   20.9360 C   0  0  0  0  0  0  0  0  0  0  0  0
  -28.4500  -17.0470   17.9010 F   0  0  0  0  0  0  0  0  0  0  0  0
  -30.0530  -20.3890   21.9790 F   0  0  0  0  0  0  0  0  0  0  0  0
  -30.6660  -14.8810   19.9310 C   0  0  0  0  0  0  0  0  0  0  0  0
  -30.5690  -12.5820   18.9980 C   0  0  0  0  0  2  0  0  0  0  0  0
  -29.5440  -12.5970   17.8420 C   0  0  0  0  0  2  0  0  0  0  0  0
  -28.0910  -12.4360   18.3510 C   0  0  0  0  0  2  0  0  0  0  0  0
  -27.7730  -13.3200   19.5900 C   0  0  0  0  0  3  0  0  0  0  0  0
  -28.9020  -13.2180   20.6360 C   0  0  0  0  0  2  0  0  0  0  0  0
  -30.1550  -13.6100   19.9690 N   0  0  0  0  0  0  0  0  0  0  0  0
  -31.8150  -15.1000   19.5280 O   0  0  0  0  0  0  0  0  0  0  0  0
  -29.7530  -15.8700   20.1930 N   0  0  0  0  0  0  0  0  0  0  0  0
  -28.8670  -15.4820   20.4770 H   0  0  0  0  0  0  0  0  0  0  0  0
  -25.4390  -13.8770   20.5240 C   0  0  0  0  0  0  0  0  0  0  0  0
  -24.4040  -13.0810   20.9360 C   0  0  0  0  0  0  0  0  0  0  0  0
  -24.8600  -11.7350   20.7990 C   0  0  0  0  0  0  0  0  0  0  0  0
  -26.4620  -13.0150   20.1650 N   0  0  0  0  0  0  0  0  0  0  0  0
  -26.1240  -11.7170   20.3900 N   0  0  0  0  0  0  0  0  0  0  0  0
  -24.1410  -10.4670   20.9740 C   0  0  0  0  0  0  0  0  0  0  0  0
  -24.5660   -9.5050   21.9170 C   0  0  0  0  0  3  0  0  0  0  0  0
  -23.8510   -8.3010   22.0840 C   0  0  0  0  0  3  0  0  0  0  0  0
  -22.6940   -8.0500   21.3100 C   0  0  0  0  0  0  0  0  0  0  0  0
  -22.2890   -8.9970   20.3560 C   0  0  0  0  0  3  0  0  0  0  0  0
  -23.0040  -10.1940   20.1850 C   0  0  0  0  0  3  0  0  0  0  0  0
  -21.9480   -6.8990   21.3880 O   0  0  0  0  0  0  0  0  0  0  0  0
  -21.7880   -6.2220   22.5710 C   0  0  0  0  0  0  0  0  0  0  0  0
  -21.1680   -6.8160   23.6930 C   0  0  0  0  0  3  0  0  0  0  0  0
  -20.9620   -6.0620   24.8640 C   0  0  0  0  0  3  0  0  0  0  0  0
  -21.3640   -4.7130   24.9140 C   0  0  0  0  0  0  0  0  0  0  0  0
  -21.9760   -4.1190   23.7980 C   0  0  0  0  0  3  0  0  0  0  0  0
  -22.1880   -4.8720   22.6280 C   0  0  0  0  0  0  0  0  0  0  0  0
  -22.7590   -4.2890   21.5470 F   0  0  0  0  0  0  0  0  0  0  0  0
  -21.1580   -3.9850   26.0360 F   0  0  0  0  0  0  0  0  0  0  0  0
  -23.0320  -13.5400   21.3390 C   0  0  0  0  0  0  0  0  0  0  0  0
  -22.3780  -12.8010   22.2310 N   0  0  0  0  0  0  0  0  0  0  0  0
  -22.5510  -14.5810   20.8960 O   0  0  0  0  0  0  0  0  0  0  0  0
  -22.7790  -11.9550   22.6030 H   0  0  0  0  0  0  0  0  0  0  0  0
  -21.4570  -13.0850   22.5360 H   0  0  0  0  0  0  0  0  0  0  0  0
  -25.5560  -15.2580   20.3970 N   0  0  0  0  0  0  0  0  0  0  0  0
  -24.7090  -15.8120   20.4860 H   0  0  0  0  0  0  0  0  0  0  0  0
  -26.2800  -15.7390   19.8770 H   0  0  0  0  0  0  0  0  0  0  0  0
  -30.0440  -24.8590   20.0790 C   0  0  0  0  0  2  0  0  0  0  0  0
  -29.9980  -23.3090   20.2320 C   0  0  0  0  0  2  0  0  0  0  0  0
  -27.7820  -24.0830   19.9470 C   0  0  0  0  0  2  0  0  0  0  0  0
  -28.6480  -25.3490   19.5870 C   0  0  0  0  0  3  0  0  0  0  0  0
  -28.6720  -22.8720   19.7360 N   0  0  2  0  0  4  0  0  0  0  0  0
  -28.7730  -22.7900   18.7330 H   0  0  0  0  0  0  0  0  0  0  0  0
  -28.4430  -26.7170   20.1240 O   0  0  0  0  0  0  0  0  0  0  0  0
  -24.6240  -31.9230   23.2210 C   0  0  0  0  0  0  0  0  0  0  0  0
  -27.2780  -27.4940   20.0310 C   0  0  0  0  0  0  0  0  0  0  0  0
  -23.4220  -30.5520   21.5440 C   0  0  0  0  0  3  0  0  0  0  0  0
  -24.8810  -29.0520   20.0670 C   0  0  0  0  0  0  0  0  0  0  0  0
  -25.9460  -30.9250   21.3440 C   0  0  0  0  0  2  0  0  0  0  0  0
  -26.0380  -29.5590   20.6720 C   0  0  0  0  0  0  0  0  0  0  0  0
  -27.2310  -28.7820   20.6470 C   0  0  0  0  0  3  0  0  0  0  0  0
  -26.1100  -27.0470   19.3800 C   0  0  0  0  0  3  0  0  0  0  0  0
  -24.9230  -27.8130   19.4080 C   0  0  0  0  0  3  0  0  0  0  0  0
  -23.6270  -29.8980   20.1470 C   0  0  0  0  0  2  0  0  0  0  0  0
  -24.6830  -31.1510   22.0990 N   0  0  0  0  0  0  0  0  0  0  0  0
  -23.5380  -32.1700   23.7730 O   0  0  0  0  0  0  0  0  0  0  0  0
  -22.7820  -29.5090   22.4930 C   0  0  0  0  0  0  0  0  0  0  0  0
  -21.4610  -29.3030   22.3590 N   0  0  0  0  0  0  0  0  0  0  0  0
  -23.4760  -28.8890   23.3010 O   0  0  0  0  0  0  0  0  0  0  0  0
  -20.9560  -29.8710   21.6910 H   0  0  0  0  0  0  0  0  0  0  0  0
  -18.1090  -28.0450   22.8470 C   0  0  0  0  0  0  0  0  0  0  0  0
  -20.6650  -28.3390   23.1180 C   0  0  0  0  0  3  0  0  0  0  0  0
  -20.7760  -26.9190   22.5160 C   0  0  0  0  0  2  0  0  0  0  0  0
  -19.6790  -26.6070   21.4910 C   0  0  0  0  0  2  0  0  0  0  0  0
  -18.3000  -26.7120   22.1460 C   0  0  0  0  0  2  0  0  0  0  0  0
  -19.2160  -28.8170   23.2890 C   0  0  0  0  0  0  0  0  0  0  0  0
  -18.9740  -30.0640   23.9060 C   0  0  0  0  0  3  0  0  0  0  0  0
  -17.6580  -30.5360   24.0840 C   0  0  0  0  0  3  0  0  0  0  0  0
  -16.5690  -29.7600   23.6500 C   0  0  0  0  0  3  0  0  0  0  0  0
  -16.7960  -28.5150   23.0400 C   0  0  0  0  0  3  0  0  0  0  0  0
  -25.9010  -32.5540   23.8540 C   0  0  0  0  0  3  0  0  0  0  0  0
  -25.5780  -33.9460   24.2010 N   0  0  0  0  0  0  0  0  0  0  0  0
  -25.8990  -35.0100   23.4550 C   0  0  0  0  0  0  0  0  0  0  0  0
  -26.5580  -34.9230   22.4140 O   0  0  0  0  0  0  0  0  0  0  0  0
  -24.9650  -34.0800   24.9910 H   0  0  0  0  0  0  0  0  0  0  0  0
  -24.1410  -36.7870   23.1570 C   0  0  0  0  0  1  0  0  0  0  0  0
  -25.4080  -36.3910   23.9340 C   0  0  0  0  0  3  0  0  0  0  0  0
  -27.5500  -37.2910   24.7330 C   0  0  0  0  0  1  0  0  0  0  0  0
  -26.4280  -37.4580   23.8090 N   0  0  0  0  0  0  0  0  0  0  0  0
  -26.0160  -38.3710   23.9750 H   0  0  0  0  0  0  0  0  0  0  0  0
  -26.4130  -31.7740   25.1250 C   0  0  1  0  0  0  0  0  0  0  0  0
  -25.3170  -31.5250   26.1890 C   0  0  0  0  0  1  0  0  0  0  0  0
  -27.0020  -30.4070   24.7150 C   0  0  0  0  0  1  0  0  0  0  0  0
  -27.5620  -32.5620   25.7950 C   0  0  0  0  0  1  0  0  0  0  0  0
  2  6  2  0
  2  4  1  0
  4  1  1  0
  4  7  2  0
  5 18  1  0
  5  3  2  0
  6  5  1  0
  7  3  1  0
  7  9  1  0
  8  6  1  0
 10 16  1  0
 10 18  1  0
 11 16  1  0
 12 13  1  0
 12 11  1  0
 14 13  1  0
 14 23  1  0
 14 15  1  0
 16 15  1  0
 17 10  2  0
 18 19  1  0
 20 21  2  0
 21 40  1  0
 22 21  1  0
 22 25  1  0
 23 24  1  0
 23 20  1  0
 24 22  2  0
 25 26  1  0
 26 27  2  0
 28 31  1  0
 28 27  1  0
 29 28  2  0
 30 29  1  0
 30 25  2  0
 31 32  1  0
 32 37  2  0
 32 33  1  0
 33 34  2  0
 34 35  1  0
 35 39  1  0
 36 35  2  0
 37 36  1  0
 38 37  1  0
 40 41  1  0
 41 44  1  0
 41 43  1  0
 42 40  2  0
 45 46  1  0
 45 20  1  0
 47 45  1  0
 48 49  1  0
 51 50  1  0
 51 48  1  0
 51 54  1  0
 52 50  1  0
 52  1  1  0
 52 49  1  0
 52 53  1  6
 55 66  2  0
 56 54  1  0
 56 61  1  0
 57 65  1  0
 57 67  1  0
 58 64  1  0
 58 60  1  0
 59 65  1  0
 60 59  1  0
 61 60  2  0
 62 63  1  0
 62 56  2  0
 63 58  2  0
 64 57  1  0
 65 55  1  0
 67 69  2  0
 68 67  1  0
 70 68  1  0
 71 80  2  0
 71 76  1  0
 72 68  1  0
 72 76  1  0
 73 72  1  0
 74 75  1  0
 74 73  1  0
 75 71  1  0
 76 77  2  0
 77 78  1  0
 79 78  2  0
 80 79  1  0
 81 55  1  0
 81 82  1  0
 81 91  1  0
 82 85  1  0
 83 87  1  0
 83 82  1  0
 84 83  2  0
 87 86  1  0
 89 87  1  0
 89 90  1  0
 89 88  1  0
 91 94  1  1
 91 92  1  0
 93 91  1  0
M  ISO  4  10 100  18 100  51 101  54 101
M  END
>  <TORSDO>  (64) 
F 18

>  <SCORE>  (64) 
-14.430

>  <name>  (64) 
64

>  <ligand_id>  (64) 
64

>  <original_smiles>  (64) 
[H]c1c([H])c([H])c2c(c1[H])C([H])([H])C([H])([H])C([H])([H])C2([H])N([H])C(=O)C1([H])N(C(=O)C([H])(N([H])C(=O)C([H])(N([H])C([H])([H])[H])C([H])([H])[H])C(C([H])([H])[H])(C([H])([H])[H])C([H])([H])[H])C([H])([H])c2c([H])c(OC3([H])C([H])([H])C([H])([H])[N+]([H])(C([H])([H])c4c([H])c(F)c(N([H])C(=O)N5C([H])([H])C([H])([H])C([H])([H])C([H])(n6nc(-c7c([H])c([H])c(Oc8c([H])c([H])c(F)c([H])c8F)c([H])c7[H])c(C(=O)N([H])[H])c6N([H])[H])C5([H])[H])c([H])c4F)C3([H])[H])c([H])c([H])c2C1([H])[H]

>  <smiles>  (64) 
[H]c1c([H])c([H])c2c(c1[H])C([H])([H])C([H])([H])C([H])([H])C2([H])N([H])C(=O)C1([H])N(C(=O)C([H])(N([H])C(=O)C([H])(N([H])C([H])([H])[H])C([H])([H])[H])C(C([H])([H])[H])(C([H])([H])[H])C([H])([H])[H])C([H])([H])c2c([H])c(OC3([H])C([H])([H])C([H])([H])[N+]([H])(C([H])([H])c4c([H])c(F)c(N([H])C(=O)N5C([H])([H])C([H])([H])C([H])([H])C([H])(n6nc(-c7c([H])c([H])c(Oc8c([H])c([H])c(F)c([H])c8F)c([H])c7[H])c(C(=O)N([H])[H])c6N([H])[H])C5([H])[H])c([H])c4F)C3([H])[H])c([H])c([H])c2C1([H])[H]

$$$$
65:0:0
     RDKit          3D

 90 98  0  0  1  0  0  0  0  0999 V2000
  -28.9480  -19.8630   20.5840 C   0  0  0  0  0  3  0  0  0  0  0  0
  -30.7390  -18.4430   18.9860 C   0  0  0  0  0  3  0  0  0  0  0  0
  -29.1020  -18.4140   20.6910 C   0  0  0  0  0  0  0  0  0  0  0  0
  -30.0050  -17.6130   19.8930 C   0  0  0  0  0  0  0  0  0  0  0  0
  -29.6570  -20.6870   19.6500 C   0  0  0  0  0  0  0  0  0  0  0  0
  -30.5640  -19.8830   18.8680 C   0  0  0  0  0  0  0  0  0  0  0  0
  -28.2310  -17.6960   21.7080 C   0  0  0  0  0  1  0  0  0  0  0  0
  -31.3080  -20.5190   17.9300 F   0  0  0  0  0  0  0  0  0  0  0  0
  -30.8020  -14.9870   19.5130 C   0  0  0  0  0  0  0  0  0  0  0  0
  -30.5860  -12.6890   18.4700 C   0  0  0  0  0  2  0  0  0  0  0  0
  -29.5070  -12.7300   17.3610 C   0  0  0  0  0  2  0  0  0  0  0  0
  -28.1020  -12.5010   17.9530 C   0  0  0  0  0  2  0  0  0  0  0  0
  -27.8520  -13.3530   19.2240 C   0  0  0  0  0  3  0  0  0  0  0  0
  -29.0350  -13.2720   20.2140 C   0  0  0  0  0  2  0  0  0  0  0  0
  -30.2370  -13.7150   19.4940 N   0  0  0  0  0  0  0  0  0  0  0  0
  -31.9260  -15.1280   19.0180 O   0  0  0  0  0  0  0  0  0  0  0  0
  -30.0270  -16.0780   19.9800 N   0  0  0  0  0  0  0  0  0  0  0  0
  -29.2240  -15.7210   20.4750 H   0  0  0  0  0  0  0  0  0  0  0  0
  -25.5760  -13.8950   20.2670 C   0  0  0  0  0  0  0  0  0  0  0  0
  -24.5600  -13.1020   20.7220 C   0  0  0  0  0  0  0  0  0  0  0  0
  -25.0080  -11.7540   20.5640 C   0  0  0  0  0  0  0  0  0  0  0  0
  -26.5780  -13.0310   19.8590 N   0  0  0  0  0  0  0  0  0  0  0  0
  -26.2530  -11.7340   20.1000 N   0  0  0  0  0  0  0  0  0  0  0  0
  -24.3010  -10.4840   20.7730 C   0  0  0  0  0  0  0  0  0  0  0  0
  -24.7470   -9.5370   21.7220 C   0  0  0  0  0  3  0  0  0  0  0  0
  -24.0380   -8.3320   21.9170 C   0  0  0  0  0  3  0  0  0  0  0  0
  -22.8690   -8.0650   21.1660 C   0  0  0  0  0  0  0  0  0  0  0  0
  -22.4420   -9.0010   20.2070 C   0  0  0  0  0  3  0  0  0  0  0  0
  -23.1520  -10.1980   20.0090 C   0  0  0  0  0  3  0  0  0  0  0  0
  -22.1310   -6.9100   21.2710 O   0  0  0  0  0  0  0  0  0  0  0  0
  -21.9600   -6.2730   22.4730 C   0  0  0  0  0  0  0  0  0  0  0  0
  -21.3540   -6.9120   23.5760 C   0  0  0  0  0  3  0  0  0  0  0  0
  -21.1350   -6.1970   24.7710 C   0  0  0  0  0  3  0  0  0  0  0  0
  -21.5110   -4.8440   24.8610 C   0  0  0  0  0  0  0  0  0  0  0  0
  -22.1090   -4.2040   23.7620 C   0  0  0  0  0  3  0  0  0  0  0  0
  -22.3300   -4.9160   22.5700 C   0  0  0  0  0  0  0  0  0  0  0  0
  -22.8870   -4.2880   21.5060 F   0  0  0  0  0  0  0  0  0  0  0  0
  -21.2940   -4.1550   26.0070 F   0  0  0  0  0  0  0  0  0  0  0  0
  -23.2080  -13.5640   21.1830 C   0  0  0  0  0  0  0  0  0  0  0  0
  -22.5920  -12.8330   22.1050 N   0  0  0  0  0  0  0  0  0  0  0  0
  -22.7110  -14.6070   20.7590 O   0  0  0  0  0  0  0  0  0  0  0  0
  -23.0090  -11.9900   22.4680 H   0  0  0  0  0  0  0  0  0  0  0  0
  -21.6900  -13.1250   22.4550 H   0  0  0  0  0  0  0  0  0  0  0  0
  -25.7250  -15.2730   20.1400 N   0  0  0  0  0  0  0  0  0  0  0  0
  -24.9680  -15.9120   20.3590 H   0  0  0  0  0  0  0  0  0  0  0  0
  -26.5010  -15.7250   19.6760 H   0  0  0  0  0  0  0  0  0  0  0  0
  -29.5170  -22.1230   19.3730 O   0  0  0  0  0  0  0  0  0  0  0  0
  -28.9280  -23.2950   20.1760 C   0  0  0  0  0  2  0  0  0  0  0  0
  -28.5340  -24.7690   19.4480 C   0  0  0  0  0  2  0  0  0  0  0  0
  -28.4880  -26.2160   20.0290 O   0  0  0  0  0  0  0  0  0  0  0  0
  -24.7490  -31.7690   23.0710 C   0  0  0  0  0  0  0  0  0  0  0  0
  -27.3920  -27.1530   19.9440 C   0  0  0  0  0  0  0  0  0  0  0  0
  -23.5600  -30.3740   21.4230 C   0  0  0  0  0  3  0  0  0  0  0  0
  -25.0250  -28.8500   19.9600 C   0  0  0  0  0  0  0  0  0  0  0  0
  -26.1070  -30.6900   21.2410 C   0  0  0  0  0  2  0  0  0  0  0  0
  -26.1990  -29.3090   20.5680 C   0  0  0  0  0  0  0  0  0  0  0  0
  -27.3780  -28.4750   20.5480 C   0  0  0  0  0  3  0  0  0  0  0  0
  -26.1880  -26.7970   19.2950 C   0  0  0  0  0  3  0  0  0  0  0  0
  -25.0310  -27.6070   19.3110 C   0  0  0  0  0  3  0  0  0  0  0  0
  -23.7810  -29.7210   20.0320 C   0  0  0  0  0  2  0  0  0  0  0  0
  -24.8250  -30.9650   21.9660 N   0  0  0  0  0  0  0  0  0  0  0  0
  -23.6620  -32.0260   23.6120 O   0  0  0  0  0  0  0  0  0  0  0  0
  -22.9100  -29.3390   22.3760 C   0  0  0  0  0  0  0  0  0  0  0  0
  -21.5830  -29.1530   22.2650 N   0  0  0  0  0  0  0  0  0  0  0  0
  -23.6020  -28.7090   23.1810 O   0  0  0  0  0  0  0  0  0  0  0  0
  -21.0810  -29.7130   21.5910 H   0  0  0  0  0  0  0  0  0  0  0  0
  -18.2230  -27.9110   22.8060 C   0  0  0  0  0  0  0  0  0  0  0  0
  -20.7840  -28.1920   23.0320 C   0  0  0  0  0  3  0  0  0  0  0  0
  -20.8890  -26.7720   22.4260 C   0  0  0  0  0  2  0  0  0  0  0  0
  -19.7710  -26.4600   21.4250 C   0  0  0  0  0  2  0  0  0  0  0  0
  -18.4000  -26.5780   22.0970 C   0  0  0  0  0  2  0  0  0  0  0  0
  -19.3430  -28.6760   23.2300 C   0  0  0  0  0  0  0  0  0  0  0  0
  -19.1220  -29.9220   23.8540 C   0  0  0  0  0  3  0  0  0  0  0  0
  -17.8150  -30.4040   24.0580 C   0  0  0  0  0  3  0  0  0  0  0  0
  -16.7100  -29.6380   23.6490 C   0  0  0  0  0  3  0  0  0  0  0  0
  -16.9160  -28.3920   23.0280 C   0  0  0  0  0  3  0  0  0  0  0  0
  -26.0200  -32.4200   23.6950 C   0  0  0  0  0  3  0  0  0  0  0  0
  -26.5830  -31.6190   24.9340 C   0  0  1  0  0  0  0  0  0  0  0  0
  -25.5150  -31.2990   26.0050 C   0  0  0  0  0  1  0  0  0  0  0  0
  -27.2110  -30.2800   24.4830 C   0  0  0  0  0  1  0  0  0  0  0  0
  -27.7120  -32.4290   25.6110 C   0  0  0  0  0  1  0  0  0  0  0  0
  -25.6710  -33.7940   24.0910 N   0  0  0  0  0  0  0  0  0  0  0  0
  -25.9420  -34.8900   23.3680 C   0  0  0  0  0  0  0  0  0  0  0  0
  -26.5790  -34.8520   22.3120 O   0  0  0  0  0  0  0  0  0  0  0  0
  -25.0990  -33.8950   24.9160 H   0  0  0  0  0  0  0  0  0  0  0  0
  -24.1380  -36.6320   23.1600 C   0  0  0  0  0  1  0  0  0  0  0  0
  -25.4270  -36.2420   23.9020 C   0  0  0  0  0  3  0  0  0  0  0  0
  -27.5570  -37.1800   24.6850 C   0  0  0  0  0  1  0  0  0  0  0  0
  -26.4160  -37.3360   23.7870 N   0  0  0  0  0  0  0  0  0  0  0  0
  -25.9820  -38.2350   23.9770 H   0  0  0  0  0  0  0  0  0  0  0  0
  1  3  1  0
  2  4  1  0
  3  7  1  0
  4 17  1  0
  4  3  2  0
  5  1  2  0
  6  2  2  0
  6  5  1  0
  8  6  1  0
  9 17  1  0
 10 15  1  0
 11 12  1  0
 11 10  1  0
 13 12  1  0
 13 22  1  0
 13 14  1  0
 15  9  1  0
 15 14  1  0
 16  9  2  0
 17 18  1  0
 19 20  2  0
 20 39  1  0
 21 20  1  0
 21 24  1  0
 22 23  1  0
 22 19  1  0
 23 21  2  0
 24 25  1  0
 25 26  2  0
 27 30  1  0
 27 26  1  0
 28 27  2  0
 29 28  1  0
 29 24  2  0
 30 31  1  0
 31 36  2  0
 31 32  1  0
 32 33  2  0
 33 34  1  0
 34 38  1  0
 35 34  2  0
 36 35  1  0
 37 36  1  0
 39 40  1  0
 40 43  1  0
 40 42  1  0
 41 39  2  0
 44 19  1  0
 44 45  1  0
 46 44  1  0
 47  5  1  0
 47 48  1  0
 49 50  1  0
 49 48  1  0
 51 62  2  0
 52 50  1  0
 52 57  1  0
 53 61  1  0
 53 63  1  0
 54 60  1  0
 54 56  1  0
 55 61  1  0
 56 55  1  0
 57 56  2  0
 58 59  1  0
 58 52  2  0
 59 54  2  0
 60 53  1  0
 61 51  1  0
 63 65  2  0
 64 63  1  0
 66 64  1  0
 67 76  2  0
 67 72  1  0
 68 64  1  0
 68 72  1  0
 69 68  1  0
 70 71  1  0
 70 69  1  0
 71 67  1  0
 72 73  2  0
 73 74  1  0
 75 74  2  0
 76 75  1  0
 77 51  1  0
 77 82  1  0
 77 78  1  0
 78 81  1  1
 78 79  1  0
 80 78  1  0
 82 85  1  0
 83 87  1  0
 83 82  1  0
 84 83  2  0
 87 86  1  0
 89 87  1  0
 89 90  1  0
 89 88  1  0
M  ISO  4   9 100  17 100  49 101  50 101
M  END
>  <TORSDO>  (65) 
F 19

>  <SCORE>  (65) 
-10.692

>  <name>  (65) 
65

>  <ligand_id>  (65) 
65

>  <original_smiles>  (65) 
[H]c1c([H])c([H])c2c(c1[H])C([H])([H])C([H])([H])C([H])([H])C2([H])N([H])C(=O)C1([H])N(C(=O)C([H])(N([H])C(=O)C([H])(N([H])C([H])([H])[H])C([H])([H])[H])C(C([H])([H])[H])(C([H])([H])[H])C([H])([H])[H])C([H])([H])c2c([H])c(OC([H])([H])C([H])([H])Oc3c([H])c(C([H])([H])[H])c(N([H])C(=O)N4C([H])([H])C([H])([H])C([H])([H])C([H])(n5nc(-c6c([H])c([H])c(Oc7c([H])c([H])c(F)c([H])c7F)c([H])c6[H])c(C(=O)N([H])[H])c5N([H])[H])C4([H])[H])c([H])c3F)c([H])c([H])c2C1([H])[H]

>  <smiles>  (65) 
[H]c1c([H])c([H])c2c(c1[H])C([H])([H])C([H])([H])C([H])([H])C2([H])N([H])C(=O)C1([H])N(C(=O)C([H])(N([H])C(=O)C([H])(N([H])C([H])([H])[H])C([H])([H])[H])C(C([H])([H])[H])(C([H])([H])[H])C([H])([H])[H])C([H])([H])c2c([H])c(OC([H])([H])C([H])([H])Oc3c([H])c(C([H])([H])[H])c(N([H])C(=O)N4C([H])([H])C([H])([H])C([H])([H])C([H])(n5nc(-c6c([H])c([H])c(Oc7c([H])c([H])c(F)c([H])c7F)c([H])c6[H])c(C(=O)N([H])[H])c5N([H])[H])C4([H])[H])c([H])c3F)c([H])c([H])c2C1([H])[H]

$$$$
66:0:0
     RDKit          3D

 95104  0  0  1  0  0  0  0  0999 V2000
  -26.2080  -24.2360   21.8250 C   0  0  0  0  0  2  0  0  0  0  0  0
  -27.4090  -25.1050   22.1530 C   0  0  0  0  0  2  0  0  0  0  0  0
  -26.8570  -22.9170   21.4090 C   0  0  0  0  0  2  0  0  0  0  0  0
  -28.4420  -24.6930   21.0900 C   0  0  0  0  0  3  0  0  0  0  0  0
  -28.2220  -23.2170   20.8890 N   0  0  1  0  0  4  0  0  0  0  0  0
  -28.2310  -23.0310   19.8970 H   0  0  0  0  0  0  0  0  0  0  0  0
  -29.2940  -22.3490   21.4810 C   0  0  0  0  0  2  0  0  0  0  0  0
  -28.2190  -20.0770   20.7540 C   0  0  0  0  0  3  0  0  0  0  0  0
  -28.3350  -18.7020   20.4620 C   0  0  0  0  0  3  0  0  0  0  0  0
  -30.6160  -20.2020   21.0560 C   0  0  0  0  0  3  0  0  0  0  0  0
  -29.3600  -20.8600   21.0560 C   0  0  0  0  0  0  0  0  0  0  0  0
  -29.5830  -18.0470   20.4850 C   0  0  0  0  0  0  0  0  0  0  0  0
  -30.7320  -18.8190   20.7830 C   0  0  0  0  0  0  0  0  0  0  0  0
  -31.9550  -18.2390   20.8200 F   0  0  0  0  0  0  0  0  0  0  0  0
  -29.6200  -16.5480   20.1470 C   0  0  0  0  0  2  0  0  0  0  0  0
  -31.2510  -14.7010   20.0330 C   0  0  0  0  0  0  0  0  0  0  0  0
  -30.8580  -12.4660   19.0590 C   0  0  0  0  0  2  0  0  0  0  0  0
  -29.9120  -12.5650   17.8470 C   0  0  0  0  0  2  0  0  0  0  0  0
  -28.4420  -12.4850   18.3010 C   0  0  0  0  0  2  0  0  0  0  0  0
  -28.1270  -13.4520   19.4730 C   0  0  0  0  0  3  0  0  0  0  0  0
  -29.1890  -13.3360   20.5920 C   0  0  0  0  0  2  0  0  0  0  0  0
  -30.5130  -13.5560   19.9880 N   0  0  0  0  0  0  0  0  0  0  0  0
  -32.3630  -14.7940   19.5160 O   0  0  0  0  0  0  0  0  0  0  0  0
  -30.7390  -15.7620   20.6800 N   0  0  0  0  0  0  0  0  0  0  0  0
  -31.4810  -16.3840   20.9740 H   0  0  0  0  0  0  0  0  0  0  0  0
  -25.7890  -14.2000   20.2380 C   0  0  0  0  0  0  0  0  0  0  0  0
  -24.6860  -13.4900   20.6310 C   0  0  0  0  0  0  0  0  0  0  0  0
  -25.0660  -12.1140   20.5830 C   0  0  0  0  0  0  0  0  0  0  0  0
  -26.7740  -13.2580   19.9820 N   0  0  0  0  0  0  0  0  0  0  0  0
  -26.3440  -11.9990   20.2470 N   0  0  0  0  0  0  0  0  0  0  0  0
  -24.2710  -10.8960   20.7830 C   0  0  0  0  0  0  0  0  0  0  0  0
  -24.6600   -9.9060   21.7120 C   0  0  0  0  0  3  0  0  0  0  0  0
  -23.8700   -8.7520   21.8990 C   0  0  0  0  0  3  0  0  0  0  0  0
  -22.6770   -8.5810   21.1580 C   0  0  0  0  0  0  0  0  0  0  0  0
  -22.3070   -9.5590   20.2180 C   0  0  0  0  0  3  0  0  0  0  0  0
  -23.0960  -10.7040   20.0280 C   0  0  0  0  0  3  0  0  0  0  0  0
  -21.8600   -7.4810   21.2550 O   0  0  0  0  0  0  0  0  0  0  0  0
  -21.7680   -6.7530   22.4150 C   0  0  0  0  0  0  0  0  0  0  0  0
  -21.3860   -7.3470   23.6380 C   0  0  0  0  0  3  0  0  0  0  0  0
  -21.2360   -6.5490   24.7910 C   0  0  0  0  0  3  0  0  0  0  0  0
  -21.4580   -5.1610   24.7200 C   0  0  0  0  0  0  0  0  0  0  0  0
  -21.8320   -4.5680   23.5010 C   0  0  0  0  0  3  0  0  0  0  0  0
  -21.9830   -5.3620   22.3510 C   0  0  0  0  0  0  0  0  0  0  0  0
  -22.3230   -4.7820   21.1740 F   0  0  0  0  0  0  0  0  0  0  0  0
  -21.3070   -4.3930   25.8240 F   0  0  0  0  0  0  0  0  0  0  0  0
  -23.3250  -14.0490   20.9330 C   0  0  0  0  0  0  0  0  0  0  0  0
  -22.5810  -13.4010   21.8230 N   0  0  0  0  0  0  0  0  0  0  0  0
  -22.9320  -15.0930   20.4140 O   0  0  0  0  0  0  0  0  0  0  0  0
  -22.9140  -12.5570   22.2640 H   0  0  0  0  0  0  0  0  0  0  0  0
  -21.6670  -13.7570   22.0670 H   0  0  0  0  0  0  0  0  0  0  0  0
  -26.0260  -15.5590   20.0550 N   0  0  0  0  0  0  0  0  0  0  0  0
  -25.2860  -16.2440   20.1670 H   0  0  0  0  0  0  0  0  0  0  0  0
  -26.8640  -15.9440   19.6420 H   0  0  0  0  0  0  0  0  0  0  0  0
  -28.3160  -25.4900   19.7530 C   0  0  0  0  0  2  0  0  0  0  0  0
  -28.3010  -26.9280   19.9140 O   0  0  0  0  0  0  0  0  0  0  0  0
  -24.5600  -32.0070   23.2120 C   0  0  0  0  0  0  0  0  0  0  0  0
  -27.1040  -27.6290   19.9400 C   0  0  0  0  0  0  0  0  0  0  0  0
  -23.2980  -30.6330   21.5910 C   0  0  0  0  0  3  0  0  0  0  0  0
  -24.7010  -29.1330   20.0810 C   0  0  0  0  0  0  0  0  0  0  0  0
  -25.8140  -31.0060   21.3030 C   0  0  0  0  0  2  0  0  0  0  0  0
  -25.8800  -29.6480   20.6320 C   0  0  0  0  0  0  0  0  0  0  0  0
  -27.0810  -28.9050   20.5570 C   0  0  0  0  0  3  0  0  0  0  0  0
  -25.9010  -27.1390   19.3780 C   0  0  0  0  0  3  0  0  0  0  0  0
  -24.7080  -27.8780   19.4530 C   0  0  0  0  0  3  0  0  0  0  0  0
  -23.4560  -29.9840   20.1910 C   0  0  0  0  0  2  0  0  0  0  0  0
  -24.5790  -31.2280   22.0930 N   0  0  0  0  0  0  0  0  0  0  0  0
  -23.4990  -32.2640   23.7980 O   0  0  0  0  0  0  0  0  0  0  0  0
  -22.6890  -29.5880   22.5550 C   0  0  0  0  0  0  0  0  0  0  0  0
  -21.3660  -29.3820   22.4540 N   0  0  0  0  0  0  0  0  0  0  0  0
  -23.4030  -28.9680   23.3460 O   0  0  0  0  0  0  0  0  0  0  0  0
  -20.8500  -29.9360   21.7860 H   0  0  0  0  0  0  0  0  0  0  0  0
  -18.0340  -28.0860   22.9770 C   0  0  0  0  0  0  0  0  0  0  0  0
  -20.5840  -28.4210   23.2330 C   0  0  0  0  0  3  0  0  0  0  0  0
  -20.7270  -26.9930   22.6590 C   0  0  0  0  0  2  0  0  0  0  0  0
  -19.6280  -26.6340   21.6520 C   0  0  0  0  0  2  0  0  0  0  0  0
  -18.2470  -26.7410   22.3050 C   0  0  0  0  0  2  0  0  0  0  0  0
  -19.1320  -28.8820   23.3990 C   0  0  0  0  0  0  0  0  0  0  0  0
  -18.8790  -30.1400   23.9870 C   0  0  0  0  0  3  0  0  0  0  0  0
  -17.5620  -30.6040   24.1590 C   0  0  0  0  0  3  0  0  0  0  0  0
  -16.4780  -29.8040   23.7560 C   0  0  0  0  0  3  0  0  0  0  0  0
  -16.7150  -28.5480   23.1690 C   0  0  0  0  0  3  0  0  0  0  0  0
  -25.8660  -32.6330   23.7920 C   0  0  0  0  0  3  0  0  0  0  0  0
  -26.4260  -31.8490   25.0430 C   0  0  1  0  0  0  0  0  0  0  0  0
  -25.3710  -31.6020   26.1450 C   0  0  0  0  0  1  0  0  0  0  0  0
  -26.9950  -30.4760   24.6160 C   0  0  0  0  0  1  0  0  0  0  0  0
  -27.5980  -32.6380   25.6730 C   0  0  0  0  0  1  0  0  0  0  0  0
  -25.5690  -34.0280   24.1440 N   0  0  0  0  0  0  0  0  0  0  0  0
  -25.8900  -35.0870   23.3890 C   0  0  0  0  0  0  0  0  0  0  0  0
  -26.5390  -34.9930   22.3440 O   0  0  0  0  0  0  0  0  0  0  0  0
  -24.9900  -34.1740   24.9580 H   0  0  0  0  0  0  0  0  0  0  0  0
  -24.1630  -36.8890   23.0840 C   0  0  0  0  0  1  0  0  0  0  0  0
  -25.4160  -36.4710   23.8710 C   0  0  0  0  0  3  0  0  0  0  0  0
  -27.5690  -37.3350   24.6740 C   0  0  0  0  0  1  0  0  0  0  0  0
  -26.4510  -37.5220   23.7530 N   0  0  0  0  0  0  0  0  0  0  0  0
  -26.0520  -38.4420   23.9220 H   0  0  0  0  0  0  0  0  0  0  0  0
  1  2  1  0
  3  1  1  0
  4 54  1  0
  4  2  1  0
  5  4  1  0
  5  3  1  0
  5  7  1  0
  5  6  1  6
  8 11  1  0
  9 12  1  0
  9  8  2  0
 10 11  2  0
 11  7  1  0
 12 13  2  0
 13 14  1  0
 13 10  1  0
 15 12  1  0
 15 24  1  0
 16 24  1  0
 17 22  1  0
 18 19  1  0
 18 17  1  0
 20 19  1  0
 20 29  1  0
 20 21  1  0
 22 16  1  0
 22 21  1  0
 23 16  2  0
 24 25  1  0
 26 27  2  0
 27 46  1  0
 28 27  1  0
 28 31  1  0
 29 26  1  0
 29 30  1  0
 30 28  2  0
 31 32  1  0
 32 33  2  0
 34 37  1  0
 34 33  1  0
 35 34  2  0
 36 35  1  0
 36 31  2  0
 37 38  1  0
 38 39  1  0
 39 40  2  0
 41 40  1  0
 41 45  1  0
 42 41  2  0
 43 38  2  0
 43 42  1  0
 44 43  1  0
 46 47  1  0
 47 50  1  0
 47 49  1  0
 48 46  2  0
 51 52  1  0
 51 26  1  0
 53 51  1  0
 54 55  1  0
 55 57  1  0
 56 67  2  0
 57 62  1  0
 58 66  1  0
 58 68  1  0
 59 65  1  0
 59 61  1  0
 60 66  1  0
 61 60  1  0
 62 61  2  0
 63 64  1  0
 63 57  2  0
 64 59  2  0
 65 58  1  0
 66 56  1  0
 68 70  2  0
 69 68  1  0
 71 69  1  0
 72 81  2  0
 72 77  1  0
 73 69  1  0
 73 77  1  0
 74 73  1  0
 75 76  1  0
 75 74  1  0
 76 72  1  0
 77 78  2  0
 78 79  1  0
 80 79  2  0
 81 80  1  0
 82 56  1  0
 82 87  1  0
 82 83  1  0
 83 86  1  1
 83 84  1  0
 85 83  1  0
 87 90  1  0
 88 92  1  0
 88 87  1  0
 89 88  2  0
 92 91  1  0
 94 92  1  0
 94 95  1  0
 94 93  1  0
M  ISO  4  16 100  24 100  54 101  55 101
M  END
>  <TORSDO>  (66) 
F 20

>  <SCORE>  (66) 
-13.616

>  <name>  (66) 
66

>  <ligand_id>  (66) 
66

>  <original_smiles>  (66) 
[H]c1c([H])c([H])c2c(c1[H])C([H])([H])C([H])([H])C([H])([H])C2([H])N([H])C(=O)C1([H])N(C(=O)C([H])(N([H])C(=O)C([H])(N([H])C([H])([H])[H])C([H])([H])[H])C(C([H])([H])[H])(C([H])([H])[H])C([H])([H])[H])C([H])([H])c2c([H])c(OC([H])([H])C3([H])C([H])([H])C([H])([H])C([H])([H])[N+]3([H])C([H])([H])c3c([H])c([H])c(C([H])([H])N([H])C(=O)N4C([H])([H])C([H])([H])C([H])([H])C([H])(n5nc(-c6c([H])c([H])c(Oc7c([H])c([H])c(F)c([H])c7F)c([H])c6[H])c(C(=O)N([H])[H])c5N([H])[H])C4([H])[H])c(F)c3[H])c([H])c([H])c2C1([H])[H]

>  <smiles>  (66) 
[H]c1c([H])c([H])c2c(c1[H])C([H])([H])C([H])([H])C([H])([H])C2([H])N([H])C(=O)C1([H])N(C(=O)C([H])(N([H])C(=O)C([H])(N([H])C([H])([H])[H])C([H])([H])[H])C(C([H])([H])[H])(C([H])([H])[H])C([H])([H])[H])C([H])([H])c2c([H])c(OC([H])([H])C3([H])C([H])([H])C([H])([H])C([H])([H])[N+]3([H])C([H])([H])c3c([H])c([H])c(C([H])([H])N([H])C(=O)N4C([H])([H])C([H])([H])C([H])([H])C([H])(n5nc(-c6c([H])c([H])c(Oc7c([H])c([H])c(F)c([H])c7F)c([H])c6[H])c(C(=O)N([H])[H])c5N([H])[H])C4([H])[H])c(F)c3[H])c([H])c([H])c2C1([H])[H]

$$$$
67:0:0
     RDKit          3D

 89 98  0  0  1  0  0  0  0  0999 V2000
  -30.4030  -15.4320   20.3090 C   0  0  0  0  0  0  0  0  0  0  0  0
  -30.3860  -12.9590   19.4460 C   0  0  0  0  0  2  0  0  0  0  0  0
  -29.4930  -12.6720   18.2130 C   0  0  0  0  0  2  0  0  0  0  0  0
  -28.0440  -12.3780   18.6360 C   0  0  0  0  0  2  0  0  0  0  0  0
  -27.5610  -13.3490   19.7430 C   0  0  0  0  0  3  0  0  0  0  0  0
  -28.5990  -13.5840   20.8630 C   0  0  0  0  0  2  0  0  0  0  0  0
  -29.8010  -14.1300   20.2100 N   0  0  0  0  0  0  0  0  0  0  0  0
  -31.6400  -15.3410   20.2450 O   0  0  0  0  0  0  0  0  0  0  0  0
  -28.3320  -19.9760   18.3010 C   0  0  0  0  0  2  0  0  0  0  0  0
  -29.8380  -19.7490   18.4920 C   0  0  0  0  0  2  0  0  0  0  0  0
  -27.6280  -18.5760   20.3520 C   0  0  0  0  0  2  0  0  0  0  0  0
  -28.3550  -17.1810   19.8670 C   0  0  0  0  0  2  0  0  0  0  0  0
  -30.3290  -18.2650   20.6910 C   0  0  0  0  0  2  0  0  0  0  0  0
  -27.8350  -20.0900   19.7480 C   0  0  0  0  0  3  0  0  0  0  0  0
  -30.0360  -19.8690   20.0190 C   0  0  0  0  0  3  0  0  0  0  0  0
  -29.7460  -16.8040   20.3180 N   0  0  0  0  0  0  0  0  0  0  0  0
  -28.8960  -20.9310   20.4310 N   0  0  1  0  0  4  0  0  0  0  0  0
  -28.7530  -20.8550   21.4290 H   0  0  0  0  0  0  0  0  0  0  0  0
  -25.1920  -13.8850   20.4960 C   0  0  0  0  0  0  0  0  0  0  0  0
  -24.1340  -13.1020   20.8570 C   0  0  0  0  0  0  0  0  0  0  0  0
  -24.6130  -11.7560   20.8350 C   0  0  0  0  0  0  0  0  0  0  0  0
  -26.2410  -13.0180   20.2590 N   0  0  0  0  0  0  0  0  0  0  0  0
  -25.9080  -11.7280   20.5350 N   0  0  0  0  0  0  0  0  0  0  0  0
  -23.8910  -10.4920   21.0190 C   0  0  0  0  0  0  0  0  0  0  0  0
  -24.3110   -9.5360   21.9690 C   0  0  0  0  0  3  0  0  0  0  0  0
  -23.5870   -8.3380   22.1430 C   0  0  0  0  0  3  0  0  0  0  0  0
  -22.4290   -8.0880   21.3670 C   0  0  0  0  0  0  0  0  0  0  0  0
  -22.0310   -9.0330   20.4060 C   0  0  0  0  0  3  0  0  0  0  0  0
  -22.7560  -10.2220   20.2310 C   0  0  0  0  0  3  0  0  0  0  0  0
  -21.6760   -6.9420   21.4510 O   0  0  0  0  0  0  0  0  0  0  0  0
  -21.5950   -6.2170   22.6130 C   0  0  0  0  0  0  0  0  0  0  0  0
  -21.1190   -6.7840   23.8140 C   0  0  0  0  0  3  0  0  0  0  0  0
  -20.9880   -5.9830   24.9670 C   0  0  0  0  0  3  0  0  0  0  0  0
  -21.3200   -4.6160   24.9180 C   0  0  0  0  0  0  0  0  0  0  0  0
  -21.7880   -4.0490   23.7210 C   0  0  0  0  0  3  0  0  0  0  0  0
  -21.9230   -4.8470   22.5710 C   0  0  0  0  0  0  0  0  0  0  0  0
  -22.3550   -4.2910   21.4130 F   0  0  0  0  0  0  0  0  0  0  0  0
  -21.1860   -3.8450   26.0230 F   0  0  0  0  0  0  0  0  0  0  0  0
  -22.7310  -13.5720   21.1020 C   0  0  0  0  0  0  0  0  0  0  0  0
  -22.0000  -12.8820   21.9670 N   0  0  0  0  0  0  0  0  0  0  0  0
  -22.2920  -14.5870   20.5610 O   0  0  0  0  0  0  0  0  0  0  0  0
  -22.3740  -12.0660   22.4320 H   0  0  0  0  0  0  0  0  0  0  0  0
  -21.0520  -13.1670   22.1680 H   0  0  0  0  0  0  0  0  0  0  0  0
  -25.3350  -15.2560   20.3190 N   0  0  0  0  0  0  0  0  0  0  0  0
  -24.5550  -15.8940   20.4310 H   0  0  0  0  0  0  0  0  0  0  0  0
  -26.1840  -15.7120   20.0150 H   0  0  0  0  0  0  0  0  0  0  0  0
  -29.0350  -22.6130   20.1190 C   0  0  0  0  0  3  0  0  0  0  0  0
  -27.9870  -24.1130   20.3210 C   0  0  0  0  0  3  0  0  0  0  0  0
  -28.2150  -25.7890   20.2670 O   0  0  0  0  0  0  0  0  0  0  0  0
  -24.6650  -31.8700   23.2070 C   0  0  0  0  0  0  0  0  0  0  0  0
  -27.2090  -26.9170   20.2300 C   0  0  0  0  0  0  0  0  0  0  0  0
  -23.4670  -30.4740   21.5700 C   0  0  0  0  0  3  0  0  0  0  0  0
  -24.9160  -28.8370   20.1710 C   0  0  0  0  0  0  0  0  0  0  0  0
  -26.0380  -30.6580   21.4320 C   0  0  0  0  0  2  0  0  0  0  0  0
  -26.1080  -29.2350   20.7870 C   0  0  0  0  0  0  0  0  0  0  0  0
  -27.2470  -28.2990   20.7910 C   0  0  0  0  0  3  0  0  0  0  0  0
  -25.9890  -26.6910   19.5550 C   0  0  0  0  0  3  0  0  0  0  0  0
  -24.8820  -27.5830   19.5390 C   0  0  0  0  0  3  0  0  0  0  0  0
  -23.7020  -29.7690   20.2040 C   0  0  0  0  0  2  0  0  0  0  0  0
  -24.7450  -31.0280   22.1230 N   0  0  0  0  0  0  0  0  0  0  0  0
  -23.5780  -32.1640   23.7300 O   0  0  0  0  0  0  0  0  0  0  0  0
  -22.7660  -29.4890   22.5400 C   0  0  0  0  0  0  0  0  0  0  0  0
  -21.4350  -29.3280   22.4160 N   0  0  0  0  0  0  0  0  0  0  0  0
  -23.4280  -28.8660   23.3750 O   0  0  0  0  0  0  0  0  0  0  0  0
  -20.9500  -29.8940   21.7350 H   0  0  0  0  0  0  0  0  0  0  0  0
  -18.0530  -28.1230   22.9380 C   0  0  0  0  0  0  0  0  0  0  0  0
  -20.6120  -28.3930   23.1920 C   0  0  0  0  0  3  0  0  0  0  0  0
  -20.7070  -26.9550   22.6310 C   0  0  0  0  0  2  0  0  0  0  0  0
  -19.6080  -26.6280   21.6150 C   0  0  0  0  0  2  0  0  0  0  0  0
  -18.2280  -26.7730   22.2620 C   0  0  0  0  0  2  0  0  0  0  0  0
  -19.1720  -28.8910   23.3620 C   0  0  0  0  0  0  0  0  0  0  0  0
  -18.9540  -30.1510   23.9570 C   0  0  0  0  0  3  0  0  0  0  0  0
  -17.6490  -30.6490   24.1270 C   0  0  0  0  0  3  0  0  0  0  0  0
  -16.5440  -29.8830   23.7160 C   0  0  0  0  0  3  0  0  0  0  0  0
  -16.7480  -28.6210   23.1300 C   0  0  0  0  0  3  0  0  0  0  0  0
  -25.9380  -32.5150   23.8350 C   0  0  0  0  0  3  0  0  0  0  0  0
  -25.6140  -33.9120   24.1750 N   0  0  0  0  0  0  0  0  0  0  0  0
  -25.9250  -34.9810   23.4260 C   0  0  0  0  0  0  0  0  0  0  0  0
  -26.5760  -34.8940   22.3840 O   0  0  0  0  0  0  0  0  0  0  0  0
  -25.0270  -34.0490   24.9840 H   0  0  0  0  0  0  0  0  0  0  0  0
  -24.1700  -36.7720   23.1400 C   0  0  0  0  0  1  0  0  0  0  0  0
  -25.4370  -36.3630   23.9110 C   0  0  0  0  0  3  0  0  0  0  0  0
  -27.5850  -37.2710   24.6910 C   0  0  0  0  0  1  0  0  0  0  0  0
  -26.4550  -37.4280   23.7790 N   0  0  0  0  0  0  0  0  0  0  0  0
  -26.0400  -38.3430   23.9380 H   0  0  0  0  0  0  0  0  0  0  0  0
  -26.4460  -31.7500   25.1220 C   0  0  1  0  0  0  0  0  0  0  0  0
  -25.3520  -31.5260   26.1910 C   0  0  0  0  0  1  0  0  0  0  0  0
  -27.0290  -30.3640   24.7570 C   0  0  0  0  0  1  0  0  0  0  0  0
  -27.5870  -32.5510   25.7930 C   0  0  0  0  0  1  0  0  0  0  0  0
  1 16  1  0
  2  7  1  0
  3  4  1  0
  3  2  1  0
  5  4  1  0
  5 22  1  0
  5  6  1  0
  7  1  1  0
  7  6  1  0
  8  1  2  0
  9 10  1  0
 12 16  1  0
 12 11  1  0
 14  9  1  0
 14 11  1  0
 14 17  1  0
 15 10  1  0
 15 17  1  0
 15 13  1  0
 16 13  1  0
 17 18  1  1
 19 20  2  0
 20 39  1  0
 21 20  1  0
 21 24  1  0
 22 19  1  0
 22 23  1  0
 23 21  2  0
 24 25  1  0
 25 26  2  0
 27 30  1  0
 27 26  1  0
 28 27  2  0
 29 28  1  0
 29 24  2  0
 30 31  1  0
 31 32  1  0
 32 33  2  0
 34 33  1  0
 34 38  1  0
 35 34  2  0
 36 31  2  0
 36 35  1  0
 37 36  1  0
 39 40  1  0
 40 43  1  0
 40 42  1  0
 41 39  2  0
 44 45  1  0
 44 19  1  0
 46 44  1  0
 47 48  2  0
 47 17  1  0
 49 48  1  0
 50 61  2  0
 51 49  1  0
 51 56  1  0
 52 60  1  0
 52 62  1  0
 53 59  1  0
 53 55  1  0
 54 60  1  0
 55 56  2  0
 55 54  1  0
 57 51  2  0
 58 57  1  0
 58 53  2  0
 59 52  1  0
 60 50  1  0
 62 64  2  0
 63 62  1  0
 65 63  1  0
 66 75  2  0
 66 71  1  0
 67 63  1  0
 67 71  1  0
 68 67  1  0
 69 70  1  0
 69 68  1  0
 70 66  1  0
 71 72  2  0
 72 73  1  0
 74 73  2  0
 75 74  1  0
 76 50  1  0
 76 77  1  0
 76 86  1  0
 77 80  1  0
 78 82  1  0
 78 77  1  0
 79 78  2  0
 82 81  1  0
 84 82  1  0
 84 85  1  0
 84 83  1  0
 86 89  1  1
 86 87  1  0
 88 86  1  0
M  ISO  4   1 100  16 100  48 101  49 101
M  END
>  <TORSDO>  (67) 
F 17

>  <SCORE>  (67) 
-16.741

>  <name>  (67) 
67

>  <ligand_id>  (67) 
67

>  <original_smiles>  (67) 
[H]c1c([H])c([H])c2c(c1[H])C([H])([H])C([H])([H])C([H])([H])C2([H])N([H])C(=O)C1([H])N(C(=O)C([H])(N([H])C(=O)C([H])(N([H])C([H])([H])[H])C([H])([H])[H])C(C([H])([H])[H])(C([H])([H])[H])C([H])([H])[H])C([H])([H])c2c([H])c(OC([H])([H])C([H])([H])[N+]3([H])C4([H])C([H])([H])N(C(=O)N5C([H])([H])C([H])([H])C([H])([H])C([H])(n6nc(-c7c([H])c([H])c(Oc8c([H])c([H])c(F)c([H])c8F)c([H])c7[H])c(C(=O)N([H])[H])c6N([H])[H])C5([H])[H])C([H])([H])C([H])([H])C3([H])C([H])([H])C4([H])[H])c([H])c([H])c2C1([H])[H]

>  <smiles>  (67) 
[H]c1c([H])c([H])c2c(c1[H])C([H])([H])C([H])([H])C([H])([H])C2([H])N([H])C(=O)C1([H])N(C(=O)C([H])(N([H])C(=O)C([H])(N([H])C([H])([H])[H])C([H])([H])[H])C(C([H])([H])[H])(C([H])([H])[H])C([H])([H])[H])C([H])([H])c2c([H])c(OC([H])([H])C([H])([H])[N+]3([H])C4([H])C([H])([H])N(C(=O)N5C([H])([H])C([H])([H])C([H])([H])C([H])(n6nc(-c7c([H])c([H])c(Oc8c([H])c([H])c(F)c([H])c8F)c([H])c7[H])c(C(=O)N([H])[H])c6N([H])[H])C5([H])[H])C([H])([H])C([H])([H])C3([H])C([H])([H])C4([H])[H])c([H])c([H])c2C1([H])[H]

$$$$
68:0:0
     RDKit          3D

 88 96  0  0  1  0  0  0  0  0999 V2000
  -28.7180  -21.5160   19.1690 C   0  0  0  0  0  3  0  0  0  0  0  0
  -28.3700  -23.0100   19.1420 C   0  0  0  0  0  3  0  0  0  0  0  0
  -29.1160  -20.6020   20.2790 C   0  0  0  0  0  0  0  0  0  0  0  0
  -28.3040  -24.0420   20.2170 C   0  0  0  0  0  0  0  0  0  0  0  0
  -29.0570  -21.6310   21.3630 C   0  0  0  0  0  0  0  0  0  0  0  0
  -28.7050  -23.1300   21.3350 C   0  0  0  0  0  0  0  0  0  0  0  0
  -29.4360  -21.1700   22.5790 F   0  0  0  0  0  0  0  0  0  0  0  0
  -28.8280  -23.7520   22.5320 F   0  0  0  0  0  0  0  0  0  0  0  0
  -28.2230  -25.6640   20.1670 O   0  0  0  0  0  0  0  0  0  0  0  0
  -24.6860  -31.8900   23.1890 C   0  0  0  0  0  0  0  0  0  0  0  0
  -27.1980  -26.8280   20.1700 C   0  0  0  0  0  0  0  0  0  0  0  0
  -23.4810  -30.4860   21.5700 C   0  0  0  0  0  3  0  0  0  0  0  0
  -24.9150  -28.8430   20.1400 C   0  0  0  0  0  0  0  0  0  0  0  0
  -26.0550  -30.6420   21.4130 C   0  0  0  0  0  2  0  0  0  0  0  0
  -26.1150  -29.2070   20.7610 C   0  0  0  0  0  0  0  0  0  0  0  0
  -27.2370  -28.2270   20.7450 C   0  0  0  0  0  3  0  0  0  0  0  0
  -25.9640  -26.6710   19.4890 C   0  0  0  0  0  3  0  0  0  0  0  0
  -24.8760  -27.5990   19.4820 C   0  0  0  0  0  3  0  0  0  0  0  0
  -23.7050  -29.7890   20.1960 C   0  0  0  0  0  2  0  0  0  0  0  0
  -24.7650  -31.0400   22.1090 N   0  0  0  0  0  0  0  0  0  0  0  0
  -23.5990  -32.1850   23.7160 O   0  0  0  0  0  0  0  0  0  0  0  0
  -22.7840  -29.5060   22.5520 C   0  0  0  0  0  0  0  0  0  0  0  0
  -21.4530  -29.3350   22.4360 N   0  0  0  0  0  0  0  0  0  0  0  0
  -23.4530  -28.8960   23.3880 O   0  0  0  0  0  0  0  0  0  0  0  0
  -20.9620  -29.8790   21.7390 H   0  0  0  0  0  0  0  0  0  0  0  0
  -18.0850  -28.0830   22.9750 C   0  0  0  0  0  0  0  0  0  0  0  0
  -20.6430  -28.3940   23.2200 C   0  0  0  0  0  3  0  0  0  0  0  0
  -20.7620  -26.9580   22.6570 C   0  0  0  0  0  2  0  0  0  0  0  0
  -19.6600  -26.6110   21.6510 C   0  0  0  0  0  2  0  0  0  0  0  0
  -18.2800  -26.7350   22.3020 C   0  0  0  0  0  2  0  0  0  0  0  0
  -19.1930  -28.8680   23.3910 C   0  0  0  0  0  0  0  0  0  0  0  0
  -18.9530  -30.1260   23.9870 C   0  0  0  0  0  3  0  0  0  0  0  0
  -17.6400  -30.5990   24.1660 C   0  0  0  0  0  3  0  0  0  0  0  0
  -16.5470  -29.8130   23.7620 C   0  0  0  0  0  3  0  0  0  0  0  0
  -16.7710  -28.5560   23.1730 C   0  0  0  0  0  3  0  0  0  0  0  0
  -25.9550  -32.5460   23.8130 C   0  0  0  0  0  3  0  0  0  0  0  0
  -25.6160  -33.9320   24.1970 N   0  0  0  0  0  0  0  0  0  0  0  0
  -25.8920  -35.0240   23.4700 C   0  0  0  0  0  0  0  0  0  0  0  0
  -26.5140  -34.9730   22.4070 O   0  0  0  0  0  0  0  0  0  0  0  0
  -25.0540  -34.0420   25.0280 H   0  0  0  0  0  0  0  0  0  0  0  0
  -24.1090  -36.7960   23.2820 C   0  0  0  0  0  1  0  0  0  0  0  0
  -25.4030  -36.3880   24.0050 C   0  0  0  0  0  3  0  0  0  0  0  0
  -27.5580  -37.3050   24.7480 C   0  0  0  0  0  1  0  0  0  0  0  0
  -26.4040  -37.4690   23.8690 N   0  0  0  0  0  0  0  0  0  0  0  0
  -25.9850  -38.3750   24.0620 H   0  0  0  0  0  0  0  0  0  0  0  0
  -26.5010  -31.7630   25.0710 C   0  0  1  0  0  0  0  0  0  0  0  0
  -25.4280  -31.4930   26.1530 C   0  0  0  0  0  1  0  0  0  0  0  0
  -27.0990  -30.4000   24.6600 C   0  0  0  0  0  1  0  0  0  0  0  0
  -27.6510  -32.5630   25.7290 C   0  0  0  0  0  1  0  0  0  0  0  0
  -29.8910  -18.8900   20.2560 C   0  0  0  0  0  2  0  0  0  0  0  0
  -30.3900  -15.7720   20.2630 C   0  0  0  0  0  0  0  0  0  0  0  0
  -30.5140  -13.2320   19.4490 C   0  0  0  0  0  2  0  0  0  0  0  0
  -29.6330  -12.8190   18.2350 C   0  0  0  0  0  2  0  0  0  0  0  0
  -28.2120  -12.4530   18.6870 C   0  0  0  0  0  2  0  0  0  0  0  0
  -27.6880  -13.4470   19.7490 C   0  0  0  0  0  3  0  0  0  0  0  0
  -28.7110  -13.7730   20.8620 C   0  0  0  0  0  2  0  0  0  0  0  0
  -29.8770  -14.4040   20.2010 N   0  0  0  0  0  0  0  0  0  0  0  0
  -31.6230  -15.7190   20.0910 O   0  0  0  0  0  0  0  0  0  0  0  0
  -29.6310  -17.1340   20.3250 N   0  0  0  0  0  0  0  0  0  0  0  0
  -28.6450  -16.9440   20.4220 H   0  0  0  0  0  0  0  0  0  0  0  0
  -25.3220  -13.9410   20.5260 C   0  0  0  0  0  0  0  0  0  0  0  0
  -24.2740  -13.1440   20.8850 C   0  0  0  0  0  0  0  0  0  0  0  0
  -24.7620  -11.8010   20.8380 C   0  0  0  0  0  0  0  0  0  0  0  0
  -26.3760  -13.0870   20.2680 N   0  0  0  0  0  0  0  0  0  0  0  0
  -26.0540  -11.7910   20.5240 N   0  0  0  0  0  0  0  0  0  0  0  0
  -24.0500  -10.5270   21.0110 C   0  0  0  0  0  0  0  0  0  0  0  0
  -24.4650   -9.5710   21.9630 C   0  0  0  0  0  3  0  0  0  0  0  0
  -23.7480   -8.3660   22.1270 C   0  0  0  0  0  3  0  0  0  0  0  0
  -22.6020   -8.1070   21.3380 C   0  0  0  0  0  0  0  0  0  0  0  0
  -22.2060   -9.0530   20.3760 C   0  0  0  0  0  3  0  0  0  0  0  0
  -22.9230  -10.2490   20.2110 C   0  0  0  0  0  3  0  0  0  0  0  0
  -21.8590   -6.9540   21.4110 O   0  0  0  0  0  0  0  0  0  0  0  0
  -21.7450   -6.2430   22.5790 C   0  0  0  0  0  0  0  0  0  0  0  0
  -21.2020   -6.8150   23.7490 C   0  0  0  0  0  3  0  0  0  0  0  0
  -21.0390   -6.0280   24.9070 C   0  0  0  0  0  3  0  0  0  0  0  0
  -21.4080   -4.6710   24.8950 C   0  0  0  0  0  0  0  0  0  0  0  0
  -21.9450   -4.0970   23.7280 C   0  0  0  0  0  3  0  0  0  0  0  0
  -22.1090   -4.8810   22.5730 C   0  0  0  0  0  0  0  0  0  0  0  0
  -22.6060   -4.3180   21.4450 F   0  0  0  0  0  0  0  0  0  0  0  0
  -21.2460   -3.9130   26.0040 F   0  0  0  0  0  0  0  0  0  0  0  0
  -22.8700  -13.5990   21.1540 C   0  0  0  0  0  0  0  0  0  0  0  0
  -22.1520  -12.8920   22.0180 N   0  0  0  0  0  0  0  0  0  0  0  0
  -22.4210  -14.6200   20.6340 O   0  0  0  0  0  0  0  0  0  0  0  0
  -22.5300  -12.0680   22.4600 H   0  0  0  0  0  0  0  0  0  0  0  0
  -21.2090  -13.1800   22.2420 H   0  0  0  0  0  0  0  0  0  0  0  0
  -25.4620  -15.3160   20.3630 N   0  0  0  0  0  0  0  0  0  0  0  0
  -24.6820  -15.9540   20.4780 H   0  0  0  0  0  0  0  0  0  0  0  0
  -26.2930  -15.7690   20.0050 H   0  0  0  0  0  0  0  0  0  0  0  0
  1  3  1  0
  2  1  2  0
  2  4  1  0
  3  5  2  0
  4  6  2  0
  5  7  1  0
  6  5  1  0
  6  8  1  0
  9 11  1  0
  9  4  1  0
 10 21  2  0
 11 16  1  0
 12 20  1  0
 12 22  1  0
 13 19  1  0
 13 15  1  0
 14 20  1  0
 15 14  1  0
 16 15  2  0
 17 11  2  0
 18 17  1  0
 18 13  2  0
 19 12  1  0
 20 10  1  0
 22 24  2  0
 23 22  1  0
 25 23  1  0
 26 35  2  0
 26 31  1  0
 27 23  1  0
 27 31  1  0
 28 27  1  0
 29 30  1  0
 29 28  1  0
 30 26  1  0
 31 32  2  0
 32 33  1  0
 34 33  2  0
 35 34  1  0
 36 10  1  0
 36 37  1  0
 36 46  1  0
 37 40  1  0
 38 42  1  0
 38 37  1  0
 39 38  2  0
 42 41  1  0
 44 42  1  0
 44 45  1  0
 44 43  1  0
 46 49  1  1
 46 47  1  0
 48 46  1  0
 50  3  1  0
 50 59  1  0
 51 59  1  0
 52 57  1  0
 53 54  1  0
 53 52  1  0
 55 54  1  0
 55 64  1  0
 55 56  1  0
 57 51  1  0
 57 56  1  0
 58 51  2  0
 59 60  1  0
 61 62  2  0
 62 81  1  0
 63 62  1  0
 63 66  1  0
 64 65  1  0
 64 61  1  0
 65 63  2  0
 66 67  1  0
 67 68  2  0
 69 72  1  0
 69 68  1  0
 70 69  2  0
 71 70  1  0
 71 66  2  0
 72 73  1  0
 73 74  1  0
 74 75  2  0
 76 75  1  0
 76 80  1  0
 77 76  2  0
 78 73  2  0
 78 77  1  0
 79 78  1  0
 81 82  1  0
 82 85  1  0
 82 84  1  0
 83 81  2  0
 86 87  1  0
 86 61  1  0
 88 86  1  0
M  ISO  4   4 101   9 101  51 100  59 100
M  END
>  <TORSDO>  (68) 
F 17

>  <SCORE>  (68) 
-15.886

>  <name>  (68) 
68

>  <ligand_id>  (68) 
68

>  <original_smiles>  (68) 
[H]c1c([H])c([H])c2c(c1[H])C([H])([H])C([H])([H])C([H])([H])C2([H])N([H])C(=O)C1([H])N(C(=O)C([H])(N([H])C(=O)C([H])(N([H])C([H])([H])[H])C([H])([H])[H])C(C([H])([H])[H])(C([H])([H])[H])C([H])([H])[H])C([H])([H])c2c([H])c(Oc3c([H])c([H])c(C([H])([H])N([H])C(=O)N4C([H])([H])C([H])([H])C([H])([H])C([H])(n5nc(-c6c([H])c([H])c(Oc7c([H])c([H])c(F)c([H])c7F)c([H])c6[H])c(C(=O)N([H])[H])c5N([H])[H])C4([H])[H])c(F)c3F)c([H])c([H])c2C1([H])[H]

>  <smiles>  (68) 
[H]c1c([H])c([H])c2c(c1[H])C([H])([H])C([H])([H])C([H])([H])C2([H])N([H])C(=O)C1([H])N(C(=O)C([H])(N([H])C(=O)C([H])(N([H])C([H])([H])[H])C([H])([H])[H])C(C([H])([H])[H])(C([H])([H])[H])C([H])([H])[H])C([H])([H])c2c([H])c(Oc3c([H])c([H])c(C([H])([H])N([H])C(=O)N4C([H])([H])C([H])([H])C([H])([H])C([H])(n5nc(-c6c([H])c([H])c(Oc7c([H])c([H])c(F)c([H])c7F)c([H])c6[H])c(C(=O)N([H])[H])c5N([H])[H])C4([H])[H])c(F)c3F)c([H])c([H])c2C1([H])[H]

$$$$
69:0:0
     RDKit          3D

 96105  0  0  1  0  0  0  0  0999 V2000
  -29.5030  -21.9600   21.2830 C   0  0  0  0  0  3  0  0  0  0  0  0
  -29.8040  -20.5590   21.2940 C   0  0  0  0  0  3  0  0  0  0  0  0
  -29.0000  -21.8300   18.9390 C   0  0  0  0  0  3  0  0  0  0  0  0
  -29.1480  -22.6470   20.0920 C   0  0  0  0  0  0  0  0  0  0  0  0
  -29.7850  -19.7670   20.1090 C   0  0  0  0  0  0  0  0  0  0  0  0
  -29.3150  -20.4370   18.9420 C   0  0  0  0  0  0  0  0  0  0  0  0
  -29.2540  -19.7620   17.7680 F   0  0  0  0  0  0  0  0  0  0  0  0
  -29.1520  -24.2190   19.9670 C   0  0  0  0  0  2  0  0  0  0  0  0
  -28.0460  -25.0640   20.4990 N   0  0  0  0  0  0  0  0  0  0  0  0
  -27.1920  -24.8330   20.0000 H   0  0  0  0  0  0  0  0  0  0  0  0
  -28.3280  -26.5060   20.1480 O   0  0  0  0  0  0  0  0  0  0  0  0
  -24.6010  -31.8910   23.2330 C   0  0  0  0  0  0  0  0  0  0  0  0
  -27.1970  -27.3300   20.1730 C   0  0  0  0  0  0  0  0  0  0  0  0
  -23.3870  -30.4850   21.6070 C   0  0  0  0  0  3  0  0  0  0  0  0
  -24.8280  -28.9290   20.1770 C   0  0  0  0  0  0  0  0  0  0  0  0
  -25.9220  -30.8020   21.4090 C   0  0  0  0  0  2  0  0  0  0  0  0
  -26.0000  -29.4190   20.7730 C   0  0  0  0  0  0  0  0  0  0  0  0
  -27.1840  -28.6240   20.7720 C   0  0  0  0  0  3  0  0  0  0  0  0
  -26.0100  -26.8900   19.5460 C   0  0  0  0  0  3  0  0  0  0  0  0
  -24.8320  -27.6660   19.5620 C   0  0  0  0  0  3  0  0  0  0  0  0
  -23.5920  -29.8020   20.2280 C   0  0  0  0  0  2  0  0  0  0  0  0
  -24.6550  -31.0760   22.1400 N   0  0  0  0  0  0  0  0  0  0  0  0
  -23.5200  -32.1750   23.7710 O   0  0  0  0  0  0  0  0  0  0  0  0
  -22.7340  -29.4690   22.5740 C   0  0  0  0  0  0  0  0  0  0  0  0
  -21.4090  -29.2880   22.4500 N   0  0  0  0  0  0  0  0  0  0  0  0
  -23.4180  -28.8490   23.3930 O   0  0  0  0  0  0  0  0  0  0  0  0
  -20.9170  -29.8430   21.7620 H   0  0  0  0  0  0  0  0  0  0  0  0
  -18.0370  -28.0780   22.9680 C   0  0  0  0  0  0  0  0  0  0  0  0
  -20.5940  -28.3520   23.2300 C   0  0  0  0  0  3  0  0  0  0  0  0
  -20.7030  -26.9180   22.6660 C   0  0  0  0  0  2  0  0  0  0  0  0
  -19.6010  -26.5820   21.6550 C   0  0  0  0  0  2  0  0  0  0  0  0
  -18.2190  -26.7250   22.3000 C   0  0  0  0  0  2  0  0  0  0  0  0
  -19.1540  -28.8500   23.3890 C   0  0  0  0  0  0  0  0  0  0  0  0
  -18.9300  -30.1140   23.9740 C   0  0  0  0  0  3  0  0  0  0  0  0
  -17.6240  -30.6130   24.1350 C   0  0  0  0  0  3  0  0  0  0  0  0
  -16.5210  -29.8390   23.7290 C   0  0  0  0  0  3  0  0  0  0  0  0
  -16.7300  -28.5720   23.1550 C   0  0  0  0  0  3  0  0  0  0  0  0
  -25.8890  -32.5240   23.8450 C   0  0  0  0  0  3  0  0  0  0  0  0
  -25.5800  -33.9190   24.1840 N   0  0  0  0  0  0  0  0  0  0  0  0
  -25.9020  -34.9740   23.4270 C   0  0  0  0  0  0  0  0  0  0  0  0
  -26.5640  -34.8800   22.3900 O   0  0  0  0  0  0  0  0  0  0  0  0
  -24.9860  -34.0680   24.9860 H   0  0  0  0  0  0  0  0  0  0  0  0
  -24.1630  -36.7650   23.0990 C   0  0  0  0  0  1  0  0  0  0  0  0
  -25.4150  -36.3610   23.8940 C   0  0  0  0  0  3  0  0  0  0  0  0
  -27.5580  -37.2420   24.7060 C   0  0  0  0  0  1  0  0  0  0  0  0
  -26.4440  -37.4160   23.7760 N   0  0  0  0  0  0  0  0  0  0  0  0
  -26.0380  -38.3330   23.9410 H   0  0  0  0  0  0  0  0  0  0  0  0
  -26.4200  -31.7510   25.1120 C   0  0  1  0  0  0  0  0  0  0  0  0
  -25.3390  -31.5020   26.1910 C   0  0  0  0  0  1  0  0  0  0  0  0
  -27.0070  -30.3790   24.7120 C   0  0  0  0  0  1  0  0  0  0  0  0
  -27.5820  -32.5430   25.7600 C   0  0  0  0  0  1  0  0  0  0  0  0
  -30.4700  -18.3350   19.9960 C   0  0  0  0  0  3  0  0  0  0  0  0
  -33.8320  -18.7780   19.3190 C   0  0  0  0  0  2  0  0  0  0  0  0
  -32.5290  -19.5430   19.1150 C   0  0  0  0  0  2  0  0  0  0  0  0
  -32.9050  -17.6070   19.6420 C   0  0  0  0  0  2  0  0  0  0  0  0
  -31.9370  -18.6130   20.0850 N   0  0  2  0  0  4  0  0  0  0  0  0
  -32.1770  -18.9170   21.0150 H   0  0  0  0  0  0  0  0  0  0  0  0
  -30.0760  -17.2030   21.0660 C   0  0  0  0  0  2  0  0  0  0  0  0
  -30.5920  -14.6720   20.4140 C   0  0  0  0  0  0  0  0  0  0  0  0
  -30.3620  -12.4360   19.3440 C   0  0  0  0  0  2  0  0  0  0  0  0
  -29.4160  -12.5460   18.1290 C   0  0  0  0  0  2  0  0  0  0  0  0
  -27.9460  -12.3930   18.5660 C   0  0  0  0  0  2  0  0  0  0  0  0
  -27.5890  -13.2730   19.7930 C   0  0  0  0  0  3  0  0  0  0  0  0
  -28.6480  -13.1330   20.9080 C   0  0  0  0  0  2  0  0  0  0  0  0
  -29.9520  -13.4650   20.3160 N   0  0  0  0  0  0  0  0  0  0  0  0
  -31.7750  -14.8000   20.1040 O   0  0  0  0  0  0  0  0  0  0  0  0
  -29.8020  -15.7600   20.6790 N   0  0  0  0  0  0  0  0  0  0  0  0
  -28.8330  -15.5020   20.7920 H   0  0  0  0  0  0  0  0  0  0  0  0
  -25.1980  -13.8900   20.5030 C   0  0  0  0  0  0  0  0  0  0  0  0
  -24.1260  -13.1250   20.8730 C   0  0  0  0  0  0  0  0  0  0  0  0
  -24.5810  -11.7710   20.8530 C   0  0  0  0  0  0  0  0  0  0  0  0
  -26.2390  -13.0020   20.2800 N   0  0  0  0  0  0  0  0  0  0  0  0
  -25.8720  -11.7240   20.5520 N   0  0  0  0  0  0  0  0  0  0  0  0
  -23.8460  -10.5150   21.0480 C   0  0  0  0  0  0  0  0  0  0  0  0
  -24.2780   -9.5440   21.9780 C   0  0  0  0  0  3  0  0  0  0  0  0
  -23.5460   -8.3510   22.1600 C   0  0  0  0  0  3  0  0  0  0  0  0
  -22.3670   -8.1220   21.4120 C   0  0  0  0  0  0  0  0  0  0  0  0
  -21.9540   -9.0810   20.4700 C   0  0  0  0  0  3  0  0  0  0  0  0
  -22.6870  -10.2650   20.2860 C   0  0  0  0  0  3  0  0  0  0  0  0
  -21.6050   -6.9820   21.5030 O   0  0  0  0  0  0  0  0  0  0  0  0
  -21.5700   -6.2300   22.6500 C   0  0  0  0  0  0  0  0  0  0  0  0
  -21.1860   -6.7830   23.8920 C   0  0  0  0  0  3  0  0  0  0  0  0
  -21.0970   -5.9590   25.0320 C   0  0  0  0  0  3  0  0  0  0  0  0
  -21.3820   -4.5840   24.9320 C   0  0  0  0  0  0  0  0  0  0  0  0
  -21.7590   -4.0310   23.6970 C   0  0  0  0  0  3  0  0  0  0  0  0
  -21.8510   -4.8520   22.5580 C   0  0  0  0  0  0  0  0  0  0  0  0
  -22.1940   -4.3100   21.3640 F   0  0  0  0  0  0  0  0  0  0  0  0
  -21.2890   -3.7910   26.0260 F   0  0  0  0  0  0  0  0  0  0  0  0
  -22.7310  -13.6120   21.1330 C   0  0  0  0  0  0  0  0  0  0  0  0
  -21.9950  -12.9250   22.0010 N   0  0  0  0  0  0  0  0  0  0  0  0
  -22.3010  -14.6370   20.6030 O   0  0  0  0  0  0  0  0  0  0  0  0
  -22.3590  -12.0950   22.4480 H   0  0  0  0  0  0  0  0  0  0  0  0
  -21.0580  -13.2300   22.2200 H   0  0  0  0  0  0  0  0  0  0  0  0
  -25.3730  -15.2580   20.3140 N   0  0  0  0  0  0  0  0  0  0  0  0
  -24.6050  -15.9140   20.4060 H   0  0  0  0  0  0  0  0  0  0  0  0
  -26.2140  -15.6840   19.9470 H   0  0  0  0  0  0  0  0  0  0  0  0
  1  2  1  0
  3  6  2  0
  3  4  1  0
  4  1  2  0
  5  2  2  0
  6  5  1  0
  7  6  1  0
  8  4  1  0
  8  9  1  0
 10  9  1  0
 11 13  1  0
 11  9  1  0
 12 23  2  0
 13 18  1  0
 14 22  1  0
 14 24  1  0
 15 21  1  0
 15 17  1  0
 16 22  1  0
 17 16  1  0
 18 17  2  0
 19 20  1  0
 19 13  2  0
 20 15  2  0
 21 14  1  0
 22 12  1  0
 24 26  2  0
 25 24  1  0
 27 25  1  0
 28 37  2  0
 28 33  1  0
 29 25  1  0
 29 33  1  0
 30 29  1  0
 31 32  1  0
 31 30  1  0
 32 28  1  0
 33 34  2  0
 34 35  1  0
 36 35  2  0
 37 36  1  0
 38 12  1  0
 38 39  1  0
 38 48  1  0
 39 42  1  0
 40 44  1  0
 40 39  1  0
 41 40  2  0
 44 43  1  0
 46 44  1  0
 46 47  1  0
 46 45  1  0
 48 51  1  1
 48 49  1  0
 50 48  1  0
 52 56  1  0
 52  5  1  0
 52 58  1  0
 53 55  1  0
 54 53  1  0
 54 56  1  0
 55 56  1  0
 56 57  1  1
 59 67  1  0
 60 65  1  0
 61 62  1  0
 61 60  1  0
 63 62  1  0
 63 72  1  0
 63 64  1  0
 65 59  1  0
 65 64  1  0
 66 59  2  0
 67 68  1  0
 67 58  1  0
 69 70  2  0
 70 89  1  0
 71 70  1  0
 71 74  1  0
 72 69  1  0
 72 73  1  0
 73 71  2  0
 74 75  1  0
 75 76  2  0
 77 80  1  0
 77 76  1  0
 78 77  2  0
 79 78  1  0
 79 74  2  0
 80 81  1  0
 81 82  1  0
 82 83  2  0
 84 83  1  0
 84 88  1  0
 85 84  2  0
 86 81  2  0
 86 85  1  0
 87 86  1  0
 89 90  1  0
 90 93  1  0
 90 92  1  0
 91 89  2  0
 94 95  1  0
 94 69  1  0
 96 94  1  0
M  ISO  4   9 101  11 101  59 100  67 100
M  END
>  <TORSDO>  (69) 
F 21

>  <SCORE>  (69) 
-13.691

>  <name>  (69) 
69

>  <ligand_id>  (69) 
69

>  <original_smiles>  (69) 
[H]c1c([H])c([H])c2c(c1[H])C([H])([H])C([H])([H])C([H])([H])C2([H])N([H])C(=O)C1([H])N(C(=O)C([H])(N([H])C(=O)C([H])(N([H])C([H])([H])[H])C([H])([H])[H])C(C([H])([H])[H])(C([H])([H])[H])C([H])([H])[H])C([H])([H])c2c([H])c(ON([H])C([H])([H])c3c([H])c([H])c(C([H])(C([H])([H])N([H])C(=O)N4C([H])([H])C([H])([H])C([H])([H])C([H])(n5nc(-c6c([H])c([H])c(Oc7c([H])c([H])c(F)c([H])c7F)c([H])c6[H])c(C(=O)N([H])[H])c5N([H])[H])C4([H])[H])[N+]4([H])C([H])([H])C([H])([H])C4([H])[H])c(F)c3[H])c([H])c([H])c2C1([H])[H]

>  <smiles>  (69) 
[H]c1c([H])c([H])c2c(c1[H])C([H])([H])C([H])([H])C([H])([H])C2([H])N([H])C(=O)C1([H])N(C(=O)C([H])(N([H])C(=O)C([H])(N([H])C([H])([H])[H])C([H])([H])[H])C(C([H])([H])[H])(C([H])([H])[H])C([H])([H])[H])C([H])([H])c2c([H])c(ON([H])C([H])([H])c3c([H])c([H])c(C([H])(C([H])([H])N([H])C(=O)N4C([H])([H])C([H])([H])C([H])([H])C([H])(n5nc(-c6c([H])c([H])c(Oc7c([H])c([H])c(F)c([H])c7F)c([H])c6[H])c(C(=O)N([H])[H])c5N([H])[H])C4([H])[H])[N+]4([H])C([H])([H])C([H])([H])C4([H])[H])c(F)c3[H])c([H])c([H])c2C1([H])[H]

$$$$
70:0:0
     RDKit          3D

 87 95  0  0  1  0  0  0  0  0999 V2000
  -29.1620  -21.3200   21.2240 C   0  0  0  0  0  3  0  0  0  0  0  0
  -29.5080  -19.8210   21.2250 C   0  0  0  0  0  3  0  0  0  0  0  0
  -28.7390  -19.6470   19.1540 C   0  0  0  0  0  3  0  0  0  0  0  0
  -28.5580  -22.1990   20.1760 C   0  0  0  0  0  0  0  0  0  0  0  0
  -29.3490  -18.7600   20.1840 C   0  0  0  0  0  0  0  0  0  0  0  0
  -28.3970  -21.1370   19.1390 C   0  0  0  0  0  0  0  0  0  0  0  0
  -27.7890  -21.5550   18.0020 F   0  0  0  0  0  0  0  0  0  0  0  0
  -30.2680  -15.7300   20.1340 C   0  0  0  0  0  0  0  0  0  0  0  0
  -30.3760  -13.1970   19.2960 C   0  0  0  0  0  2  0  0  0  0  0  0
  -29.4510  -12.8100   18.1070 C   0  0  0  0  0  2  0  0  0  0  0  0
  -28.0400  -12.4500   18.5980 C   0  0  0  0  0  2  0  0  0  0  0  0
  -27.5550  -13.4350   19.6850 C   0  0  0  0  0  3  0  0  0  0  0  0
  -28.6170  -13.7300   20.7710 C   0  0  0  0  0  2  0  0  0  0  0  0
  -29.7690  -14.3580   20.0860 N   0  0  0  0  0  0  0  0  0  0  0  0
  -31.4940  -15.7090   19.9180 O   0  0  0  0  0  0  0  0  0  0  0  0
  -29.4350  -17.0380   20.2320 N   0  0  0  0  0  0  0  0  0  0  0  0
  -28.4900  -16.6940   20.3130 H   0  0  0  0  0  0  0  0  0  0  0  0
  -25.2170  -13.9370   20.5420 C   0  0  0  0  0  0  0  0  0  0  0  0
  -24.1740  -13.1430   20.9250 C   0  0  0  0  0  0  0  0  0  0  0  0
  -24.6500  -11.7980   20.8420 C   0  0  0  0  0  0  0  0  0  0  0  0
  -26.2560  -13.0800   20.2400 N   0  0  0  0  0  0  0  0  0  0  0  0
  -25.9320  -11.7820   20.4870 N   0  0  0  0  0  0  0  0  0  0  0  0
  -23.9340  -10.5270   21.0200 C   0  0  0  0  0  0  0  0  0  0  0  0
  -24.3650   -9.5580   21.9530 C   0  0  0  0  0  3  0  0  0  0  0  0
  -23.6440   -8.3570   22.1220 C   0  0  0  0  0  3  0  0  0  0  0  0
  -22.4780   -8.1140   21.3580 C   0  0  0  0  0  0  0  0  0  0  0  0
  -22.0660   -9.0700   20.4140 C   0  0  0  0  0  3  0  0  0  0  0  0
  -22.7870  -10.2640   20.2440 C   0  0  0  0  0  3  0  0  0  0  0  0
  -21.7300   -6.9630   21.4370 O   0  0  0  0  0  0  0  0  0  0  0  0
  -21.6350   -6.2440   22.6020 C   0  0  0  0  0  0  0  0  0  0  0  0
  -21.1110   -6.8090   23.7850 C   0  0  0  0  0  3  0  0  0  0  0  0
  -20.9660   -6.0150   24.9400 C   0  0  0  0  0  3  0  0  0  0  0  0
  -21.3340   -4.6570   24.9120 C   0  0  0  0  0  0  0  0  0  0  0  0
  -21.8510   -4.0910   23.7330 C   0  0  0  0  0  3  0  0  0  0  0  0
  -21.9970   -4.8830   22.5810 C   0  0  0  0  0  0  0  0  0  0  0  0
  -22.4750   -4.3270   21.4410 F   0  0  0  0  0  0  0  0  0  0  0  0
  -21.1880   -3.8920   26.0200 F   0  0  0  0  0  0  0  0  0  0  0  0
  -22.7830  -13.6050   21.2450 C   0  0  0  0  0  0  0  0  0  0  0  0
  -22.0840  -12.8860   22.1150 N   0  0  0  0  0  0  0  0  0  0  0  0
  -22.3280  -14.6400   20.7600 O   0  0  0  0  0  0  0  0  0  0  0  0
  -22.4680  -12.0500   22.5290 H   0  0  0  0  0  0  0  0  0  0  0  0
  -21.1510  -13.1780   22.3730 H   0  0  0  0  0  0  0  0  0  0  0  0
  -25.3610  -15.3140   20.3930 N   0  0  0  0  0  0  0  0  0  0  0  0
  -24.5850  -15.9520   20.5360 H   0  0  0  0  0  0  0  0  0  0  0  0
  -26.1730  -15.7660   19.9940 H   0  0  0  0  0  0  0  0  0  0  0  0
  -27.7900  -23.9050   20.1710 C   0  0  0  0  0  2  0  0  0  0  0  0
  -28.1100  -25.6200   20.3060 O   0  0  0  0  0  0  0  0  0  0  0  0
  -24.6500  -31.9140   23.2530 C   0  0  0  0  0  0  0  0  0  0  0  0
  -27.1510  -26.8400   20.2560 C   0  0  0  0  0  0  0  0  0  0  0  0
  -23.4500  -30.5180   21.6240 C   0  0  0  0  0  3  0  0  0  0  0  0
  -24.8860  -28.8680   20.2060 C   0  0  0  0  0  0  0  0  0  0  0  0
  -26.0280  -30.6580   21.4890 C   0  0  0  0  0  2  0  0  0  0  0  0
  -26.0860  -29.2260   20.8330 C   0  0  0  0  0  0  0  0  0  0  0  0
  -27.2040  -28.2400   20.8250 C   0  0  0  0  0  3  0  0  0  0  0  0
  -25.9170  -26.6910   19.5740 C   0  0  0  0  0  3  0  0  0  0  0  0
  -24.8400  -27.6260   19.5530 C   0  0  0  0  0  3  0  0  0  0  0  0
  -23.6810  -29.8200   20.2540 C   0  0  0  0  0  2  0  0  0  0  0  0
  -24.7330  -31.0630   22.1740 N   0  0  0  0  0  0  0  0  0  0  0  0
  -23.5600  -32.2180   23.7680 O   0  0  0  0  0  0  0  0  0  0  0  0
  -22.7350  -29.5440   22.5990 C   0  0  0  0  0  0  0  0  0  0  0  0
  -21.4050  -29.3780   22.4670 N   0  0  0  0  0  0  0  0  0  0  0  0
  -23.3910  -28.9340   23.4470 O   0  0  0  0  0  0  0  0  0  0  0  0
  -20.9260  -29.9210   21.7620 H   0  0  0  0  0  0  0  0  0  0  0  0
  -18.0260  -28.1370   22.9630 C   0  0  0  0  0  0  0  0  0  0  0  0
  -20.5810  -28.4430   23.2440 C   0  0  0  0  0  3  0  0  0  0  0  0
  -20.7040  -27.0030   22.6930 C   0  0  0  0  0  2  0  0  0  0  0  0
  -19.6170  -26.6520   21.6730 C   0  0  0  0  0  2  0  0  0  0  0  0
  -18.2270  -26.7840   22.3020 C   0  0  0  0  0  2  0  0  0  0  0  0
  -19.1290  -28.9220   23.3910 C   0  0  0  0  0  0  0  0  0  0  0  0
  -18.8830  -30.1850   23.9750 C   0  0  0  0  0  3  0  0  0  0  0  0
  -17.5690  -30.6620   24.1300 C   0  0  0  0  0  3  0  0  0  0  0  0
  -16.4800  -29.8760   23.7150 C   0  0  0  0  0  3  0  0  0  0  0  0
  -16.7100  -28.6140   23.1380 C   0  0  0  0  0  3  0  0  0  0  0  0
  -25.9190  -32.5610   23.8870 C   0  0  0  0  0  3  0  0  0  0  0  0
  -25.6040  -33.9650   24.2180 N   0  0  0  0  0  0  0  0  0  0  0  0
  -25.9100  -35.0260   23.4570 C   0  0  0  0  0  0  0  0  0  0  0  0
  -26.5460  -34.9250   22.4060 O   0  0  0  0  0  0  0  0  0  0  0  0
  -25.0320  -34.1160   25.0350 H   0  0  0  0  0  0  0  0  0  0  0  0
  -24.1590  -36.8190   23.1920 C   0  0  0  0  0  1  0  0  0  0  0  0
  -25.4430  -36.4170   23.9360 C   0  0  0  0  0  3  0  0  0  0  0  0
  -27.6070  -37.3270   24.6600 C   0  0  0  0  0  1  0  0  0  0  0  0
  -26.4630  -37.4760   23.7650 N   0  0  0  0  0  0  0  0  0  0  0  0
  -26.0570  -38.3950   23.9190 H   0  0  0  0  0  0  0  0  0  0  0  0
  -26.4160  -31.8060   25.1830 C   0  0  1  0  0  0  0  0  0  0  0  0
  -25.3090  -31.5910   26.2420 C   0  0  0  0  0  1  0  0  0  0  0  0
  -26.9960  -30.4190   24.8290 C   0  0  0  0  0  1  0  0  0  0  0  0
  -27.5630  -32.6040   25.8460 C   0  0  0  0  0  1  0  0  0  0  0  0
  1  2  1  0
  3  5  1  0
  4  1  2  0
  5 16  1  0
  5  2  2  0
  6  3  2  0
  6  4  1  0
  7  6  1  0
  8 16  1  0
  9 14  1  0
 10 11  1  0
 10  9  1  0
 12 11  1  0
 12 21  1  0
 12 13  1  0
 14  8  1  0
 14 13  1  0
 15  8  2  0
 16 17  1  0
 18 19  2  0
 19 38  1  0
 20 19  1  0
 20 23  1  0
 21 22  1  0
 21 18  1  0
 22 20  2  0
 23 24  1  0
 24 25  2  0
 26 29  1  0
 26 25  1  0
 27 26  2  0
 28 27  1  0
 28 23  2  0
 29 30  1  0
 30 31  1  0
 31 32  2  0
 33 32  1  0
 33 37  1  0
 34 33  2  0
 35 30  2  0
 35 34  1  0
 36 35  1  0
 38 39  1  0
 39 42  1  0
 39 41  1  0
 40 38  2  0
 43 44  1  0
 43 18  1  0
 45 43  1  0
 46  4  1  0
 46 47  1  0
 48 59  2  0
 49 47  1  0
 49 54  1  0
 50 58  1  0
 50 60  1  0
 51 57  1  0
 51 53  1  0
 52 58  1  0
 53 52  1  0
 54 53  2  0
 55 49  2  0
 56 55  1  0
 56 51  2  0
 57 50  1  0
 58 48  1  0
 60 62  2  0
 61 60  1  0
 63 61  1  0
 64 73  2  0
 64 69  1  0
 65 61  1  0
 65 69  1  0
 66 65  1  0
 67 68  1  0
 67 66  1  0
 68 64  1  0
 69 70  2  0
 70 71  1  0
 72 71  2  0
 73 72  1  0
 74 48  1  0
 74 75  1  0
 74 84  1  0
 75 78  1  0
 76 80  1  0
 76 75  1  0
 77 76  2  0
 80 79  1  0
 82 83  1  0
 82 80  1  0
 82 81  1  0
 84 87  1  1
 84 85  1  0
 86 84  1  0
M  ISO  4   8 100  16 100  46 101  47 101
M  END
>  <TORSDO>  (70) 
F 17

>  <SCORE>  (70) 
-16.539

>  <name>  (70) 
70

>  <ligand_id>  (70) 
70

>  <original_smiles>  (70) 
[H]c1c([H])c([H])c2c(c1[H])C([H])([H])C([H])([H])C([H])([H])C2([H])N([H])C(=O)C1([H])N(C(=O)C([H])(N([H])C(=O)C([H])(N([H])C([H])([H])[H])C([H])([H])[H])C(C([H])([H])[H])(C([H])([H])[H])C([H])([H])[H])C([H])([H])c2c([H])c(OC([H])([H])c3c([H])c([H])c(N([H])C(=O)N4C([H])([H])C([H])([H])C([H])([H])C([H])(n5nc(-c6c([H])c([H])c(Oc7c([H])c([H])c(F)c([H])c7F)c([H])c6[H])c(C(=O)N([H])[H])c5N([H])[H])C4([H])[H])c([H])c3F)c([H])c([H])c2C1([H])[H]

>  <smiles>  (70) 
[H]c1c([H])c([H])c2c(c1[H])C([H])([H])C([H])([H])C([H])([H])C2([H])N([H])C(=O)C1([H])N(C(=O)C([H])(N([H])C(=O)C([H])(N([H])C([H])([H])[H])C([H])([H])[H])C(C([H])([H])[H])(C([H])([H])[H])C([H])([H])[H])C([H])([H])c2c([H])c(OC([H])([H])c3c([H])c([H])c(N([H])C(=O)N4C([H])([H])C([H])([H])C([H])([H])C([H])(n5nc(-c6c([H])c([H])c(Oc7c([H])c([H])c(F)c([H])c7F)c([H])c6[H])c(C(=O)N([H])[H])c5N([H])[H])C4([H])[H])c([H])c3F)c([H])c([H])c2C1([H])[H]

$$$$
71:0:0
     RDKit          3D

 82 86  0  0  1  0  0  0  0  0999 V2000
  -28.2030  -25.2140   20.1870 O   0  0  0  0  0  1  0  0  0  0  0  0
  -24.6590  -31.8230   23.1160 C   0  0  0  0  0  0  0  0  0  0  0  0
  -27.2270  -26.5180   20.2190 C   0  0  0  0  0  0  0  0  0  0  0  0
  -23.5030  -30.4040   21.4840 C   0  0  0  0  0  3  0  0  0  0  0  0
  -24.9680  -28.6960   20.1210 C   0  0  0  0  0  0  0  0  0  0  0  0
  -26.0920  -30.4850   21.4080 C   0  0  0  0  0  2  0  0  0  0  0  0
  -26.1660  -29.0180   20.7700 C   0  0  0  0  0  0  0  0  0  0  0  0
  -27.2690  -27.9690   20.7710 C   0  0  0  0  0  3  0  0  0  0  0  0
  -25.9850  -26.4690   19.5130 C   0  0  0  0  0  3  0  0  0  0  0  0
  -24.9320  -27.4500   19.4670 C   0  0  0  0  0  3  0  0  0  0  0  0
  -23.7680  -29.6710   20.1330 C   0  0  0  0  0  2  0  0  0  0  0  0
  -24.7790  -30.9440   22.0540 N   0  0  0  0  0  0  0  0  0  0  0  0
  -23.5550  -32.1300   23.6020 O   0  0  0  0  0  0  0  0  0  0  0  0
  -22.7610  -29.4600   22.4680 C   0  0  0  0  0  0  0  0  0  0  0  0
  -21.4220  -29.3490   22.3610 N   0  0  0  0  0  0  0  0  0  0  0  0
  -23.4040  -28.8170   23.3000 O   0  0  0  0  0  0  0  0  0  0  0  0
  -20.9470  -29.9240   21.6780 H   0  0  0  0  0  0  0  0  0  0  0  0
  -18.0030  -28.1330   22.8590 C   0  0  0  0  0  0  0  0  0  0  0  0
  -20.5950  -28.3830   23.0970 C   0  0  0  0  0  0  0  0  0  0  0  0
  -20.7720  -26.9760   22.4620 C   0  0  0  0  0  3  0  0  0  0  0  0
  -19.5380  -26.4150   21.7220 C   0  0  0  0  0  3  0  0  0  0  0  0
  -18.0990  -26.8440   22.0560 C   0  0  0  0  0  3  0  0  0  0  0  0
  -19.1450  -28.8670   23.2920 C   0  0  0  0  0  0  0  0  0  0  0  0
  -18.9400  -30.1130   23.9270 C   0  0  0  0  0  3  0  0  0  0  0  0
  -17.6430  -30.6230   24.1300 C   0  0  0  0  0  3  0  0  0  0  0  0
  -16.5250  -29.8800   23.7210 C   0  0  0  0  0  3  0  0  0  0  0  0
  -16.7080  -28.6360   23.0960 C   0  0  0  0  0  3  0  0  0  0  0  0
  -25.9010  -32.4970   23.7720 C   0  0  0  0  0  3  0  0  0  0  0  0
  -25.5540  -33.8960   24.1020 N   0  0  0  0  0  0  0  0  0  0  0  0
  -25.8860  -34.9730   23.3740 C   0  0  0  0  0  0  0  0  0  0  0  0
  -26.5670  -34.8910   22.3500 O   0  0  0  0  0  0  0  0  0  0  0  0
  -24.9460  -34.0310   24.8960 H   0  0  0  0  0  0  0  0  0  0  0  0
  -24.1500  -36.7720   23.0460 C   0  0  0  0  0  1  0  0  0  0  0  0
  -25.3900  -36.3550   23.8530 C   0  0  0  0  0  3  0  0  0  0  0  0
  -27.5120  -37.2520   24.7100 C   0  0  0  0  0  1  0  0  0  0  0  0
  -26.4160  -37.4190   23.7590 N   0  0  0  0  0  0  0  0  0  0  0  0
  -26.0000  -38.3340   23.9110 H   0  0  0  0  0  0  0  0  0  0  0  0
  -26.3860  -31.7540   25.0790 C   0  0  1  0  0  0  0  0  0  0  0  0
  -25.2660  -31.5290   26.1240 C   0  0  0  0  0  1  0  0  0  0  0  0
  -26.9880  -30.3730   24.7440 C   0  0  0  0  0  1  0  0  0  0  0  0
  -27.5140  -32.5680   25.7560 C   0  0  0  0  0  1  0  0  0  0  0  0
  -28.2300  -23.3320   20.4390 C   0  0  0  0  0 15  0  0  0  0  0  0
  -28.7870  -21.3790   19.8640 C   0  0  0  0  0 15  0  0  0  0  0  0
  -29.3980  -19.4400   20.4120 C   0  0  0  0  0  1  0  0  0  0  0  0
  -30.1690  -16.0920   20.0360 C   0  0  0  0  0  0  0  0  0  0  0  0
  -30.3590  -13.4710   19.1990 C   0  0  0  0  0  2  0  0  0  0  0  0
  -29.4770  -12.8700   18.0550 C   0  0  0  0  0  2  0  0  0  0  0  0
  -28.1030  -12.4290   18.5740 C   0  0  0  0  0  2  0  0  0  0  0  0
  -27.5630  -13.4490   19.5940 C   0  0  0  0  0  3  0  0  0  0  0  0
  -28.6020  -13.9210   20.6470 C   0  0  0  0  0  2  0  0  0  0  0  0
  -29.6750  -14.6720   19.9180 N   0  0  0  0  0  0  0  0  0  0  0  0
  -31.4150  -15.9560   19.9590 O   0  0  0  0  0  0  0  0  0  0  0  0
  -29.4220  -17.5600   20.0550 N   0  0  0  0  0  0  0  0  0  0  0  0
  -28.4530  -17.3130   19.9040 H   0  0  0  0  0  0  0  0  0  0  0  0
  -25.2310  -13.9310   20.4500 C   0  0  0  0  0  0  0  0  0  0  0  0
  -24.1900  -13.1380   20.8360 C   0  0  0  0  0  0  0  0  0  0  0  0
  -24.6710  -11.7930   20.7770 C   0  0  0  0  0  0  0  0  0  0  0  0
  -26.2760  -13.0750   20.1660 N   0  0  0  0  0  0  0  0  0  0  0  0
  -25.9570  -11.7790   20.4270 N   0  0  0  0  0  0  0  0  0  0  0  0
  -23.9560  -10.5240   20.9740 C   0  0  0  0  0  0  0  0  0  0  0  0
  -24.4050   -9.5560   21.8990 C   0  0  0  0  0  3  0  0  0  0  0  0
  -23.6830   -8.3560   22.0890 C   0  0  0  0  0  3  0  0  0  0  0  0
  -22.4960   -8.1180   21.3550 C   0  0  0  0  0  0  0  0  0  0  0  0
  -22.0660   -9.0740   20.4200 C   0  0  0  0  0  3  0  0  0  0  0  0
  -22.7890  -10.2650   20.2280 C   0  0  0  0  0  3  0  0  0  0  0  0
  -21.7460   -6.9710   21.4550 O   0  0  0  0  0  0  0  0  0  0  0  0
  -21.7090   -6.2310   22.6100 C   0  0  0  0  0  0  0  0  0  0  0  0
  -21.2840   -6.7860   23.8360 C   0  0  0  0  0  3  0  0  0  0  0  0
  -21.1960   -5.9730   24.9840 C   0  0  0  0  0  3  0  0  0  0  0  0
  -21.5230   -4.6050   24.9060 C   0  0  0  0  0  0  0  0  0  0  0  0
  -21.9420   -4.0500   23.6840 C   0  0  0  0  0  3  0  0  0  0  0  0
  -22.0320   -4.8600   22.5390 C   0  0  0  0  0  0  0  0  0  0  0  0
  -22.4140   -4.3150   21.3590 F   0  0  0  0  0  0  0  0  0  0  0  0
  -21.4320   -3.8220   26.0060 F   0  0  0  0  0  0  0  0  0  0  0  0
  -22.7960  -13.6030   21.1400 C   0  0  0  0  0  0  0  0  0  0  0  0
  -22.0920  -12.8960   22.0160 N   0  0  0  0  0  0  0  0  0  0  0  0
  -22.3430  -14.6300   20.6380 O   0  0  0  0  0  0  0  0  0  0  0  0
  -22.4740  -12.0650   22.4440 H   0  0  0  0  0  0  0  0  0  0  0  0
  -21.1580  -13.1890   22.2630 H   0  0  0  0  0  0  0  0  0  0  0  0
  -25.3710  -15.3060   20.2780 N   0  0  0  0  0  0  0  0  0  0  0  0
  -24.5980  -15.9490   20.4140 H   0  0  0  0  0  0  0  0  0  0  0  0
  -26.2020  -15.7550   19.9170 H   0  0  0  0  0  0  0  0  0  0  0  0
  1  3  1  0
  2 13  2  0
  3  8  1  0
  4 12  1  0
  4 14  1  0
  5 11  1  0
  5  7  1  0
  6 12  1  0
  7  8  2  0
  7  6  1  0
  9  3  2  0
 10  9  1  0
 10  5  2  0
 11  4  1  0
 12  2  1  0
 14 16  2  0
 15 14  1  0
 15 19  1  0
 17 15  1  0
 18 27  2  0
 18 23  1  0
 19 23  1  0
 20 19  2  0
 21 22  2  0
 21 20  1  0
 22 18  1  0
 23 24  2  0
 24 25  1  0
 26 25  2  0
 27 26  1  0
 28  2  1  0
 28 29  1  0
 28 38  1  0
 29 32  1  0
 30 34  1  0
 30 29  1  0
 31 30  2  0
 34 33  1  0
 36 34  1  0
 36 37  1  0
 36 35  1  0
 38 41  1  1
 38 39  1  0
 40 38  1  0
 45 53  1  0
 46 51  1  0
 47 48  1  0
 47 46  1  0
 49 48  1  0
 49 58  1  0
 49 50  1  0
 51 45  1  0
 51 50  1  0
 52 45  2  0
 53 44  1  0
 54 53  1  0
 55 56  2  0
 56 75  1  0
 57 56  1  0
 57 60  1  0
 58 59  1  0
 58 55  1  0
 59 57  2  0
 60 61  1  0
 61 62  2  0
 63 66  1  0
 63 62  1  0
 64 63  2  0
 65 64  1  0
 65 60  2  0
 66 67  1  0
 67 68  1  0
 68 69  2  0
 70 69  1  0
 70 74  1  0
 71 70  2  0
 72 67  2  0
 72 71  1  0
 73 72  1  0
 75 76  1  0
 76 79  1  0
 76 78  1  0
 77 75  2  0
 80 81  1  0
 80 55  1  0
 82 80  1  0
M  ISO  4   1 101  42 101  45 100  53 100
M  END
>  <TORSDO>  (71) 
F 18

>  <SCORE>  (71) 
-16.165

>  <name>  (71) 
71

>  <ligand_id>  (71) 
71

>  <original_smiles>  (71) 
[H]c1c([H])c([H])c2c(c1[H])C([H])([H])C([H])([H])C([H])([H])C2([H])N([H])C(=O)C1([H])N(C(=O)C([H])(N([H])C(=O)C([H])(N([H])C([H])([H])[H])C([H])([H])[H])C(C([H])([H])[H])(C([H])([H])[H])C([H])([H])[H])C([H])([H])c2c([H])c(OC([H])([H])C([H])([H])C([H])([H])N([H])C(=O)N3C([H])([H])C([H])([H])C([H])([H])C([H])(n4nc(-c5c([H])c([H])c(Oc6c([H])c([H])c(F)c([H])c6F)c([H])c5[H])c(C(=O)N([H])[H])c4N([H])[H])C3([H])[H])c([H])c([H])c2C1([H])[H]

>  <smiles>  (71) 
[H]c1c([H])c([H])c2c(c1[H])C([H])([H])C([H])([H])C([H])([H])C2([H])N([H])C(=O)C1([H])N(C(=O)C([H])(N([H])C(=O)C([H])(N([H])C([H])([H])[H])C([H])([H])[H])C(C([H])([H])[H])(C([H])([H])[H])C([H])([H])[H])C([H])([H])c2c([H])c(OC([H])([H])C([H])([H])C([H])([H])N([H])C(=O)N3C([H])([H])C([H])([H])C([H])([H])C([H])(n4nc(-c5c([H])c([H])c(Oc6c([H])c([H])c(F)c([H])c6F)c([H])c5[H])c(C(=O)N([H])[H])c4N([H])[H])C3([H])[H])c([H])c([H])c2C1([H])[H]

$$$$
72:0:0
     RDKit          3D

 92101  0  0  1  0  0  0  0  0999 V2000
  -28.6220  -19.0540   20.4150 C   0  0  0  0  0  3  0  0  0  0  0  0
  -30.7730  -19.4190   19.7380 C   0  0  0  0  0  3  0  0  0  0  0  0
  -29.2380  -21.5900   20.0100 C   0  0  0  0  0  0  0  0  0  0  0  0
  -29.8560  -18.3480   20.0950 C   0  0  0  0  0  0  0  0  0  0  0  0
  -28.3060  -20.5060   20.3690 C   0  0  0  0  0  0  0  0  0  0  0  0
  -30.4900  -20.8840   19.6980 C   0  0  0  0  0  0  0  0  0  0  0  0
  -29.0470  -23.3250   19.7500 C   0  0  0  0  0  2  0  0  0  0  0  0
  -26.4140  -22.9980   21.1400 C   0  0  0  0  0  2  0  0  0  0  0  0
  -26.7740  -24.3080   20.4430 C   0  0  0  0  0  2  0  0  0  0  0  0
  -26.3160  -21.8330   20.1520 C   0  0  0  0  0  2  0  0  0  0  0  0
  -28.2130  -24.5500   20.4370 N   0  0  0  0  0  0  0  0  0  0  0  0
  -26.9810  -20.7100   20.6900 O   0  0  0  0  0  0  0  0  0  0  0  0
  -31.5180  -21.6650   19.2890 F   0  0  0  0  0  0  0  0  0  0  0  0
  -30.8440  -15.5770   19.8870 C   0  0  0  0  0  0  0  0  0  0  0  0
  -30.8520  -13.1570   18.9650 C   0  0  0  0  0  2  0  0  0  0  0  0
  -29.8580  -12.9800   17.7880 C   0  0  0  0  0  2  0  0  0  0  0  0
  -28.4390  -12.6780   18.3040 C   0  0  0  0  0  2  0  0  0  0  0  0
  -28.0450  -13.6010   19.4840 C   0  0  0  0  0  3  0  0  0  0  0  0
  -29.1570  -13.7130   20.5490 C   0  0  0  0  0  2  0  0  0  0  0  0
  -30.3450  -14.2500   19.8660 N   0  0  0  0  0  0  0  0  0  0  0  0
  -32.0310  -15.6720   19.5430 O   0  0  0  0  0  0  0  0  0  0  0  0
  -29.9740  -16.7380   20.1330 N   0  0  0  0  0  0  0  0  0  0  0  0
  -29.0880  -16.3480   20.4160 H   0  0  0  0  0  0  0  0  0  0  0  0
  -25.7250  -14.1000   20.4250 C   0  0  0  0  0  0  0  0  0  0  0  0
  -24.6970  -13.2940   20.8230 C   0  0  0  0  0  0  0  0  0  0  0  0
  -25.1670  -11.9520   20.6820 C   0  0  0  0  0  0  0  0  0  0  0  0
  -26.7530  -13.2490   20.0600 N   0  0  0  0  0  0  0  0  0  0  0  0
  -26.4330  -11.9470   20.2800 N   0  0  0  0  0  0  0  0  0  0  0  0
  -24.4610  -10.6750   20.8470 C   0  0  0  0  0  0  0  0  0  0  0  0
  -24.8850   -9.7110   21.7880 C   0  0  0  0  0  3  0  0  0  0  0  0
  -24.1760   -8.5000   21.9440 C   0  0  0  0  0  3  0  0  0  0  0  0
  -23.0280   -8.2440   21.1580 C   0  0  0  0  0  0  0  0  0  0  0  0
  -22.6230   -9.1960   20.2060 C   0  0  0  0  0  3  0  0  0  0  0  0
  -23.3330  -10.3990   20.0480 C   0  0  0  0  0  3  0  0  0  0  0  0
  -22.2920   -7.0860   21.2220 O   0  0  0  0  0  0  0  0  0  0  0  0
  -22.1300   -6.3990   22.3990 C   0  0  0  0  0  0  0  0  0  0  0  0
  -21.5210   -6.9900   23.5270 C   0  0  0  0  0  3  0  0  0  0  0  0
  -21.3130   -6.2290   24.6950 C   0  0  0  0  0  3  0  0  0  0  0  0
  -21.7030   -4.8760   24.7330 C   0  0  0  0  0  0  0  0  0  0  0  0
  -22.3040   -4.2850   23.6080 C   0  0  0  0  0  3  0  0  0  0  0  0
  -22.5140   -5.0440   22.4440 C   0  0  0  0  0  0  0  0  0  0  0  0
  -23.0760   -4.4630   21.3560 F   0  0  0  0  0  0  0  0  0  0  0  0
  -21.4950   -4.1420   25.8510 F   0  0  0  0  0  0  0  0  0  0  0  0
  -23.3190  -13.7420   21.2110 C   0  0  0  0  0  0  0  0  0  0  0  0
  -22.6550  -12.9950   22.0850 N   0  0  0  0  0  0  0  0  0  0  0  0
  -22.8440  -14.7910   20.7780 O   0  0  0  0  0  0  0  0  0  0  0  0
  -23.0560  -12.1480   22.4570 H   0  0  0  0  0  0  0  0  0  0  0  0
  -21.7330  -13.2760   22.3890 H   0  0  0  0  0  0  0  0  0  0  0  0
  -25.8650  -15.4810   20.3120 N   0  0  0  0  0  0  0  0  0  0  0  0
  -25.0860  -16.1060   20.4930 H   0  0  0  0  0  0  0  0  0  0  0  0
  -26.6420  -15.9410   19.8550 H   0  0  0  0  0  0  0  0  0  0  0  0
  -28.4570  -26.1840   19.9990 O   0  0  0  0  0  0  0  0  0  0  0  0
  -24.7920  -31.9390   23.3050 C   0  0  0  0  0  0  0  0  0  0  0  0
  -27.4280  -27.2610   20.0700 C   0  0  0  0  0  0  0  0  0  0  0  0
  -23.6470  -30.6480   21.5510 C   0  0  0  0  0  3  0  0  0  0  0  0
  -25.1370  -29.1420   20.0730 C   0  0  0  0  0  0  0  0  0  0  0  0
  -26.2150  -30.8600   21.5020 C   0  0  0  0  0  2  0  0  0  0  0  0
  -26.3000  -29.4920   20.7710 C   0  0  0  0  0  0  0  0  0  0  0  0
  -27.4370  -28.5660   20.7630 C   0  0  0  0  0  3  0  0  0  0  0  0
  -26.2650  -27.1060   19.2800 C   0  0  0  0  0  3  0  0  0  0  0  0
  -25.1430  -27.9660   19.3110 C   0  0  0  0  0  3  0  0  0  0  0  0
  -23.9190  -30.0570   20.1410 C   0  0  0  0  0  2  0  0  0  0  0  0
  -24.9040  -31.1740   22.1730 N   0  0  0  0  0  0  0  0  0  0  0  0
  -23.6890  -32.1960   23.8120 O   0  0  0  0  0  0  0  0  0  0  0  0
  -22.9300  -29.5900   22.4290 C   0  0  0  0  0  0  0  0  0  0  0  0
  -21.6040  -29.4400   22.2640 N   0  0  0  0  0  0  0  0  0  0  0  0
  -23.5760  -28.9080   23.2300 O   0  0  0  0  0  0  0  0  0  0  0  0
  -21.1370  -30.0440   21.6020 H   0  0  0  0  0  0  0  0  0  0  0  0
  -18.1870  -28.3100   22.7250 C   0  0  0  0  0  0  0  0  0  0  0  0
  -20.7600  -28.4580   22.9530 C   0  0  0  0  0  3  0  0  0  0  0  0
  -20.7960  -27.0890   22.2320 C   0  0  0  0  0  2  0  0  0  0  0  0
  -19.6630  -26.9120   21.2170 C   0  0  0  0  0  2  0  0  0  0  0  0
  -18.3000  -27.0360   21.9040 C   0  0  0  0  0  2  0  0  0  0  0  0
  -19.3420  -28.9860   23.2030 C   0  0  0  0  0  0  0  0  0  0  0  0
  -19.1780  -30.1830   23.9340 C   0  0  0  0  0  3  0  0  0  0  0  0
  -17.8960  -30.7040   24.1860 C   0  0  0  0  0  3  0  0  0  0  0  0
  -16.7560  -30.0250   23.7200 C   0  0  0  0  0  3  0  0  0  0  0  0
  -16.9030  -28.8290   22.9950 C   0  0  0  0  0  3  0  0  0  0  0  0
  -26.0460  -32.5390   24.0110 C   0  0  0  0  0  3  0  0  0  0  0  0
  -25.7340  -33.9310   24.3810 N   0  0  0  0  0  0  0  0  0  0  0  0
  -26.0630  -35.0090   23.6570 C   0  0  0  0  0  0  0  0  0  0  0  0
  -26.7260  -34.9380   22.6200 O   0  0  0  0  0  0  0  0  0  0  0  0
  -25.1420  -34.0580   25.1880 H   0  0  0  0  0  0  0  0  0  0  0  0
  -24.3140  -36.8040   23.4050 C   0  0  0  0  0  1  0  0  0  0  0  0
  -25.5840  -36.3860   24.1640 C   0  0  0  0  0  3  0  0  0  0  0  0
  -27.7310  -37.2780   24.9570 C   0  0  0  0  0  1  0  0  0  0  0  0
  -26.6070  -37.4480   24.0400 N   0  0  0  0  0  0  0  0  0  0  0  0
  -26.1980  -38.3630   24.2060 H   0  0  0  0  0  0  0  0  0  0  0  0
  -26.4870  -31.7230   25.2890 C   0  0  1  0  0  0  0  0  0  0  0  0
  -25.3380  -31.4680   26.2910 C   0  0  0  0  0  1  0  0  0  0  0  0
  -27.0740  -30.3490   24.8950 C   0  0  0  0  0  1  0  0  0  0  0  0
  -27.6120  -32.4840   26.0310 C   0  0  0  0  0  1  0  0  0  0  0  0
  2  4  1  0
  3  5  2  0
  4 22  1  0
  4  1  2  0
  5  1  1  0
  5 12  1  0
  6  2  2  0
  6  3  1  0
  7  3  1  0
  7 11  1  0
  9  8  1  0
 10 12  1  0
 10  8  1  0
 11  9  1  0
 13  6  1  0
 14 22  1  0
 15 20  1  0
 16 17  1  0
 16 15  1  0
 18 17  1  0
 18 27  1  0
 18 19  1  0
 20 14  1  0
 20 19  1  0
 21 14  2  0
 22 23  1  0
 24 25  2  0
 25 44  1  0
 26 25  1  0
 26 29  1  0
 27 28  1  0
 27 24  1  0
 28 26  2  0
 29 30  1  0
 30 31  2  0
 32 35  1  0
 32 31  1  0
 33 32  2  0
 34 33  1  0
 34 29  2  0
 35 36  1  0
 36 41  2  0
 36 37  1  0
 37 38  2  0
 38 39  1  0
 39 43  1  0
 40 39  2  0
 41 40  1  0
 42 41  1  0
 44 45  1  0
 45 48  1  0
 45 47  1  0
 46 44  2  0
 49 24  1  0
 49 50  1  0
 51 49  1  0
 52 54  1  0
 52 11  1  0
 53 64  2  0
 54 59  1  0
 55 63  1  0
 55 65  1  0
 56 62  1  0
 56 58  1  0
 57 63  1  0
 58 57  1  0
 59 58  2  0
 60 61  1  0
 60 54  2  0
 61 56  2  0
 62 55  1  0
 63 53  1  0
 65 67  2  0
 66 65  1  0
 68 66  1  0
 69 78  2  0
 69 74  1  0
 70 66  1  0
 70 74  1  0
 71 70  1  0
 72 73  1  0
 72 71  1  0
 73 69  1  0
 74 75  2  0
 75 76  1  0
 77 76  2  0
 78 77  1  0
 79 53  1  0
 79 80  1  0
 79 89  1  0
 80 83  1  0
 81 85  1  0
 81 80  1  0
 82 81  2  0
 85 84  1  0
 87 85  1  0
 87 88  1  0
 87 86  1  0
 89 92  1  1
 89 90  1  0
 91 89  1  0
M  ISO  4  11 101  14 100  22 100  52 101
M  END
>  <TORSDO>  (72) 
F 16

>  <SCORE>  (72) 
-13.670

>  <name>  (72) 
72

>  <ligand_id>  (72) 
72

>  <original_smiles>  (72) 
[H]c1c([H])c([H])c2c(c1[H])C([H])([H])C([H])([H])C([H])([H])C2([H])N([H])C(=O)C1([H])N(C(=O)C([H])(N([H])C(=O)C([H])(N([H])C([H])([H])[H])C([H])([H])[H])C(C([H])([H])[H])(C([H])([H])[H])C([H])([H])[H])C([H])([H])c2c([H])c(ON3C([H])([H])c4c(F)c([H])c(N([H])C(=O)N5C([H])([H])C([H])([H])C([H])([H])C([H])(n6nc(-c7c([H])c([H])c(Oc8c([H])c([H])c(F)c([H])c8F)c([H])c7[H])c(C(=O)N([H])[H])c6N([H])[H])C5([H])[H])c([H])c4OC([H])([H])C([H])([H])C3([H])[H])c([H])c([H])c2C1([H])[H]

>  <smiles>  (72) 
[H]c1c([H])c([H])c2c(c1[H])C([H])([H])C([H])([H])C([H])([H])C2([H])N([H])C(=O)C1([H])N(C(=O)C([H])(N([H])C(=O)C([H])(N([H])C([H])([H])[H])C([H])([H])[H])C(C([H])([H])[H])(C([H])([H])[H])C([H])([H])[H])C([H])([H])c2c([H])c(ON3C([H])([H])c4c(F)c([H])c(N([H])C(=O)N5C([H])([H])C([H])([H])C([H])([H])C([H])(n6nc(-c7c([H])c([H])c(Oc8c([H])c([H])c(F)c([H])c8F)c([H])c7[H])c(C(=O)N([H])[H])c6N([H])[H])C5([H])[H])c([H])c4OC([H])([H])C([H])([H])C3([H])[H])c([H])c([H])c2C1([H])[H]

$$$$
73:0:0
     RDKit          3D

 88 97  0  0  1  0  0  0  0  0999 V2000
  -30.6210  -15.4190   19.9980 C   0  0  0  0  0  0  0  0  0  0  0  0
  -30.5670  -12.9050   19.2410 C   0  0  0  0  0  2  0  0  0  0  0  0
  -29.6250  -12.5800   18.0500 C   0  0  0  0  0  2  0  0  0  0  0  0
  -28.1750  -12.3500   18.5170 C   0  0  0  0  0  2  0  0  0  0  0  0
  -27.7490  -13.3900   19.5800 C   0  0  0  0  0  3  0  0  0  0  0  0
  -28.8220  -13.5640   20.6800 C   0  0  0  0  0  2  0  0  0  0  0  0
  -30.0300  -14.1020   20.0050 N   0  0  0  0  0  0  0  0  0  0  0  0
  -31.8360  -15.3550   19.7430 O   0  0  0  0  0  0  0  0  0  0  0  0
  -28.0000  -18.1110   20.9690 C   0  0  0  0  0  2  0  0  0  0  0  0
  -28.6200  -16.7130   20.7850 C   0  0  0  0  0  2  0  0  0  0  0  0
  -28.7810  -20.6350   20.8400 C   0  0  0  0  0  2  0  0  0  0  0  0
  -29.9050  -19.7690   19.0370 C   0  0  0  0  0  2  0  0  0  0  0  0
  -29.1600  -19.0800   21.1060 C   0  0  0  0  0  3  0  0  0  0  0  0
  -30.1570  -18.4300   20.1000 C   0  0  0  0  0  3  0  0  0  0  0  0
  -29.8970  -16.7530   20.0620 N   0  0  0  0  0  0  0  0  0  0  0  0
  -29.6010  -21.2030   19.7320 N   0  0  1  0  0  4  0  0  0  0  0  0
  -30.4780  -21.4150   20.1870 H   0  0  0  0  0  0  0  0  0  0  0  0
  -25.4080  -14.0680   20.3550 C   0  0  0  0  0  0  0  0  0  0  0  0
  -24.3240  -13.3460   20.7600 C   0  0  0  0  0  0  0  0  0  0  0  0
  -24.7300  -11.9780   20.7350 C   0  0  0  0  0  0  0  0  0  0  0  0
  -26.4140  -13.1460   20.1130 N   0  0  0  0  0  0  0  0  0  0  0  0
  -26.0150  -11.8810   20.4060 N   0  0  0  0  0  0  0  0  0  0  0  0
  -23.9470  -10.7550   20.9430 C   0  0  0  0  0  0  0  0  0  0  0  0
  -24.3510   -9.7660   21.8660 C   0  0  0  0  0  3  0  0  0  0  0  0
  -23.5670   -8.6100   22.0640 C   0  0  0  0  0  3  0  0  0  0  0  0
  -22.3650   -8.4350   21.3390 C   0  0  0  0  0  0  0  0  0  0  0  0
  -21.9780   -9.4120   20.4040 C   0  0  0  0  0  3  0  0  0  0  0  0
  -22.7630  -10.5590   20.2030 C   0  0  0  0  0  3  0  0  0  0  0  0
  -21.5520   -7.3320   21.4480 O   0  0  0  0  0  0  0  0  0  0  0  0
  -21.5030   -6.5860   22.5990 C   0  0  0  0  0  0  0  0  0  0  0  0
  -21.1420   -7.1550   23.8390 C   0  0  0  0  0  3  0  0  0  0  0  0
  -21.0360   -6.3400   24.9830 C   0  0  0  0  0  3  0  0  0  0  0  0
  -21.2800   -4.9560   24.8880 C   0  0  0  0  0  0  0  0  0  0  0  0
  -21.6340   -4.3880   23.6520 C   0  0  0  0  0  3  0  0  0  0  0  0
  -21.7420   -5.2010   22.5100 C   0  0  0  0  0  0  0  0  0  0  0  0
  -22.0630   -4.6440   21.3170 F   0  0  0  0  0  0  0  0  0  0  0  0
  -21.1700   -4.1710   25.9840 F   0  0  0  0  0  0  0  0  0  0  0  0
  -22.9560  -13.8930   21.0440 C   0  0  0  0  0  0  0  0  0  0  0  0
  -22.2160  -13.2540   21.9420 N   0  0  0  0  0  0  0  0  0  0  0  0
  -22.5560  -14.9270   20.5070 O   0  0  0  0  0  0  0  0  0  0  0  0
  -22.5530  -12.4180   22.3970 H   0  0  0  0  0  0  0  0  0  0  0  0
  -21.2990  -13.6050   22.1760 H   0  0  0  0  0  0  0  0  0  0  0  0
  -25.5960  -15.4270   20.1390 N   0  0  0  0  0  0  0  0  0  0  0  0
  -24.8360  -16.0920   20.2410 H   0  0  0  0  0  0  0  0  0  0  0  0
  -26.4220  -15.8330   19.7220 H   0  0  0  0  0  0  0  0  0  0  0  0
  -29.2170  -22.6870   19.0100 C   0  0  0  0  0  3  0  0  0  0  0  0
  -28.4620  -24.2420   19.5860 C   0  0  0  0  0  3  0  0  0  0  0  0
  -28.3630  -25.8340   19.0800 O   0  0  0  0  0  0  0  0  0  0  0  0
  -24.6780  -31.4150   22.7150 C   0  0  0  0  0  0  0  0  0  0  0  0
  -27.2820  -26.8630   19.2350 C   0  0  0  0  0  0  0  0  0  0  0  0
  -23.4660  -30.1050   21.0190 C   0  0  0  0  0  3  0  0  0  0  0  0
  -24.9100  -28.6590   19.4280 C   0  0  0  0  0  0  0  0  0  0  0  0
  -26.0150  -30.4210   20.7860 C   0  0  0  0  0  2  0  0  0  0  0  0
  -26.1100  -29.0630   20.0260 C   0  0  0  0  0  0  0  0  0  0  0  0
  -27.2890  -28.1930   19.8970 C   0  0  0  0  0  3  0  0  0  0  0  0
  -26.0370  -26.6110   18.6150 C   0  0  0  0  0  3  0  0  0  0  0  0
  -24.8960  -27.4550   18.7040 C   0  0  0  0  0  3  0  0  0  0  0  0
  -23.6630  -29.5310   19.5890 C   0  0  0  0  0  2  0  0  0  0  0  0
  -24.7430  -30.6710   21.5610 N   0  0  0  0  0  0  0  0  0  0  0  0
  -23.6010  -31.6230   23.2970 O   0  0  0  0  0  0  0  0  0  0  0  0
  -22.8440  -29.0160   21.9310 C   0  0  0  0  0  0  0  0  0  0  0  0
  -21.5110  -28.8320   21.8650 N   0  0  0  0  0  0  0  0  0  0  0  0
  -23.5650  -28.3380   22.6670 O   0  0  0  0  0  0  0  0  0  0  0  0
  -20.9800  -29.4330   21.2500 H   0  0  0  0  0  0  0  0  0  0  0  0
  -18.1800  -27.5310   22.4830 C   0  0  0  0  0  0  0  0  0  0  0  0
  -20.7500  -27.8110   22.5930 C   0  0  0  0  0  3  0  0  0  0  0  0
  -20.8230  -26.4450   21.8720 C   0  0  0  0  0  2  0  0  0  0  0  0
  -19.6550  -26.2080   20.9090 C   0  0  0  0  0  2  0  0  0  0  0  0
  -18.3210  -26.2610   21.6590 C   0  0  0  0  0  2  0  0  0  0  0  0
  -19.3190  -28.2670   22.9070 C   0  0  0  0  0  0  0  0  0  0  0  0
  -19.1280  -29.4550   23.6450 C   0  0  0  0  0  3  0  0  0  0  0  0
  -17.8320  -29.9090   23.9570 C   0  0  0  0  0  3  0  0  0  0  0  0
  -16.7100  -29.1700   23.5450 C   0  0  0  0  0  3  0  0  0  0  0  0
  -16.8840  -27.9820   22.8130 C   0  0  0  0  0  3  0  0  0  0  0  0
  -25.9500  -32.0530   23.3490 C   0  0  0  0  0  3  0  0  0  0  0  0
  -25.5750  -33.3710   23.8940 N   0  0  0  0  0  0  0  0  0  0  0  0
  -25.8300  -34.5470   23.3040 C   0  0  0  0  0  0  0  0  0  0  0  0
  -26.4680  -34.6370   22.2510 O   0  0  0  0  0  0  0  0  0  0  0  0
  -25.0030  -33.3670   24.7250 H   0  0  0  0  0  0  0  0  0  0  0  0
  -24.0120  -36.2890   23.2820 C   0  0  0  0  0  1  0  0  0  0  0  0
  -25.2960  -35.8240   23.9860 C   0  0  0  0  0  3  0  0  0  0  0  0
  -27.4110  -36.6810   24.8940 C   0  0  0  0  0  1  0  0  0  0  0  0
  -26.2760  -36.9320   24.0110 N   0  0  0  0  0  0  0  0  0  0  0  0
  -25.8330  -37.7990   24.3050 H   0  0  0  0  0  0  0  0  0  0  0  0
  -26.5890  -31.1610   24.4840 C   0  0  1  0  0  0  0  0  0  0  0  0
  -25.5850  -30.7280   25.5790 C   0  0  0  0  0  1  0  0  0  0  0  0
  -27.2130  -29.8780   23.8900 C   0  0  0  0  0  1  0  0  0  0  0  0
  -27.7420  -31.9310   25.1700 C   0  0  0  0  0  1  0  0  0  0  0  0
  1  7  1  0
  1 15  1  0
  2  7  1  0
  3  4  1  0
  3  2  1  0
  5  4  1  0
  5 21  1  0
  5  6  1  0
  7  6  1  0
  8  1  2  0
  9 13  1  0
 10  9  1  0
 12 16  1  0
 13 11  1  0
 14 12  1  0
 14 13  1  0
 15 14  1  0
 15 10  1  0
 16 17  1  1
 16 11  1  0
 18 19  2  0
 19 38  1  0
 20 19  1  0
 20 23  1  0
 21 18  1  0
 21 22  1  0
 22 20  2  0
 23 24  1  0
 24 25  2  0
 26 29  1  0
 26 25  1  0
 27 26  2  0
 28 27  1  0
 28 23  2  0
 29 30  1  0
 30 31  1  0
 31 32  2  0
 33 32  1  0
 33 37  1  0
 34 33  2  0
 35 30  2  0
 35 34  1  0
 36 35  1  0
 38 39  1  0
 39 42  1  0
 39 41  1  0
 40 38  2  0
 43 44  1  0
 43 18  1  0
 45 43  1  0
 46 47  2  0
 46 16  1  0
 48 50  1  0
 48 47  1  0
 49 60  2  0
 50 55  1  0
 51 59  1  0
 51 61  1  0
 52 58  1  0
 52 54  1  0
 53 59  1  0
 54 53  1  0
 55 54  2  0
 56 57  1  0
 56 50  2  0
 57 52  2  0
 58 51  1  0
 59 49  1  0
 61 63  2  0
 62 61  1  0
 64 62  1  0
 65 74  2  0
 65 70  1  0
 66 62  1  0
 66 70  1  0
 67 66  1  0
 68 69  1  0
 68 67  1  0
 69 65  1  0
 70 71  2  0
 71 72  1  0
 73 72  2  0
 74 73  1  0
 75 49  1  0
 75 76  1  0
 75 85  1  0
 76 79  1  0
 77 76  1  0
 77 81  1  0
 78 77  2  0
 81 80  1  0
 81 83  1  0
 83 84  1  0
 83 82  1  0
 85 88  1  1
 85 86  1  0
 87 85  1  0
M  ISO  4   1 100  15 100  47 101  48 101
M  END
>  <TORSDO>  (73) 
F 17

>  <SCORE>  (73) 
-13.815

>  <name>  (73) 
73

>  <ligand_id>  (73) 
73

>  <original_smiles>  (73) 
[H]c1c([H])c([H])c2c(c1[H])C([H])([H])C([H])([H])C([H])([H])C2([H])N([H])C(=O)C1([H])N(C(=O)C([H])(N([H])C(=O)C([H])(N([H])C([H])([H])[H])C([H])([H])[H])C(C([H])([H])[H])(C([H])([H])[H])C([H])([H])[H])C([H])([H])c2c([H])c(OC([H])([H])C([H])([H])[N+]3([H])C([H])([H])C4([H])N(C(=O)N5C([H])([H])C([H])([H])C([H])([H])C([H])(n6nc(-c7c([H])c([H])c(Oc8c([H])c([H])c(F)c([H])c8F)c([H])c7[H])c(C(=O)N([H])[H])c6N([H])[H])C5([H])[H])C([H])([H])C([H])([H])C4([H])C3([H])[H])c([H])c([H])c2C1([H])[H]

>  <smiles>  (73) 
[H]c1c([H])c([H])c2c(c1[H])C([H])([H])C([H])([H])C([H])([H])C2([H])N([H])C(=O)C1([H])N(C(=O)C([H])(N([H])C(=O)C([H])(N([H])C([H])([H])[H])C([H])([H])[H])C(C([H])([H])[H])(C([H])([H])[H])C([H])([H])[H])C([H])([H])c2c([H])c(OC([H])([H])C([H])([H])[N+]3([H])C([H])([H])C4([H])N(C(=O)N5C([H])([H])C([H])([H])C([H])([H])C([H])(n6nc(-c7c([H])c([H])c(Oc8c([H])c([H])c(F)c([H])c8F)c([H])c7[H])c(C(=O)N([H])[H])c6N([H])[H])C5([H])[H])C([H])([H])C([H])([H])C4([H])C3([H])[H])c([H])c([H])c2C1([H])[H]

$$$$
74:0:0
     RDKit          3D

 90 99  0  0  1  0  0  0  0  0999 V2000
  -30.5320  -15.0750   20.3770 C   0  0  0  0  0  0  0  0  0  0  0  0
  -30.4030  -12.7080   19.4410 C   0  0  0  0  0  2  0  0  0  0  0  0
  -29.4860  -12.6220   18.2000 C   0  0  0  0  0  2  0  0  0  0  0  0
  -28.0220  -12.4040   18.6280 C   0  0  0  0  0  2  0  0  0  0  0  0
  -27.5960  -13.3440   19.7870 C   0  0  0  0  0  3  0  0  0  0  0  0
  -28.6430  -13.4020   20.9160 C   0  0  0  0  0  2  0  0  0  0  0  0
  -29.9030  -13.8260   20.2950 N   0  0  0  0  0  0  0  0  0  0  0  0
  -31.7560  -15.0690   20.2010 O   0  0  0  0  0  0  0  0  0  0  0  0
  -30.7340  -19.7240   18.8100 C   0  0  0  0  0  2  0  0  0  0  0  0
  -31.3480  -19.2310   20.1280 C   0  0  0  0  0  2  0  0  0  0  0  0
  -28.6110  -18.2580   18.8710 C   0  0  0  0  0  2  0  0  0  0  0  0
  -29.4730  -16.9090   18.9810 C   0  0  0  0  0  2  0  0  0  0  0  0
  -29.7750  -17.5000   21.3500 C   0  0  0  0  0  2  0  0  0  0  0  0
  -29.2260  -19.7160   19.0940 C   0  0  0  0  0  3  0  0  0  0  0  0
  -30.1440  -19.1170   21.0860 C   0  0  0  0  0  3  0  0  0  0  0  0
  -29.8090  -16.3320   20.3200 N   0  0  0  0  0  0  0  0  0  0  0  0
  -29.1170  -20.1480   20.5130 N   0  0  1  0  0  4  0  0  0  0  0  0
  -28.1980  -19.8860   20.8380 H   0  0  0  0  0  0  0  0  0  0  0  0
  -25.2160  -13.9200   20.5110 C   0  0  0  0  0  0  0  0  0  0  0  0
  -24.1490  -13.1430   20.8700 C   0  0  0  0  0  0  0  0  0  0  0  0
  -24.6180  -11.7930   20.8530 C   0  0  0  0  0  0  0  0  0  0  0  0
  -26.2610  -13.0410   20.2830 N   0  0  0  0  0  0  0  0  0  0  0  0
  -25.9130  -11.7590   20.5600 N   0  0  0  0  0  0  0  0  0  0  0  0
  -23.8930  -10.5300   21.0420 C   0  0  0  0  0  0  0  0  0  0  0  0
  -24.3190   -9.5640   21.9800 C   0  0  0  0  0  3  0  0  0  0  0  0
  -23.5900   -8.3690   22.1570 C   0  0  0  0  0  3  0  0  0  0  0  0
  -22.4210   -8.1320   21.3960 C   0  0  0  0  0  0  0  0  0  0  0  0
  -22.0140   -9.0870   20.4480 C   0  0  0  0  0  3  0  0  0  0  0  0
  -22.7450  -10.2720   20.2680 C   0  0  0  0  0  3  0  0  0  0  0  0
  -21.6630   -6.9890   21.4840 O   0  0  0  0  0  0  0  0  0  0  0  0
  -21.6060   -6.2480   22.6370 C   0  0  0  0  0  0  0  0  0  0  0  0
  -21.1780   -6.8060   23.8610 C   0  0  0  0  0  3  0  0  0  0  0  0
  -21.0640   -5.9910   25.0050 C   0  0  0  0  0  3  0  0  0  0  0  0
  -21.3740   -4.6200   24.9260 C   0  0  0  0  0  0  0  0  0  0  0  0
  -21.7980   -4.0620   23.7080 C   0  0  0  0  0  3  0  0  0  0  0  0
  -21.9090   -4.8740   22.5640 C   0  0  0  0  0  0  0  0  0  0  0  0
  -22.2970   -4.3250   21.3880 F   0  0  0  0  0  0  0  0  0  0  0  0
  -21.2590   -3.8360   26.0230 F   0  0  0  0  0  0  0  0  0  0  0  0
  -22.7470  -13.6200   21.1150 C   0  0  0  0  0  0  0  0  0  0  0  0
  -22.0070  -12.9340   21.9770 N   0  0  0  0  0  0  0  0  0  0  0  0
  -22.3150  -14.6380   20.5760 O   0  0  0  0  0  0  0  0  0  0  0  0
  -22.3680  -12.1120   22.4400 H   0  0  0  0  0  0  0  0  0  0  0  0
  -21.0650  -13.2360   22.1810 H   0  0  0  0  0  0  0  0  0  0  0  0
  -25.3770  -15.2920   20.3310 N   0  0  0  0  0  0  0  0  0  0  0  0
  -24.6060  -15.9400   20.4500 H   0  0  0  0  0  0  0  0  0  0  0  0
  -26.2310  -15.7450   20.0300 H   0  0  0  0  0  0  0  0  0  0  0  0
  -29.2560  -21.7200   20.8940 C   0  0  0  0  0  2  0  0  0  0  0  0
  -28.6060  -23.1240   20.1340 C   0  0  0  0  0  2  0  0  0  0  0  0
  -28.2690  -24.6550   20.8590 C   0  0  0  0  0  2  0  0  0  0  0  0
  -28.3880  -26.1570   20.3770 O   0  0  0  0  0  0  0  0  0  0  0  0
  -24.6550  -31.9120   23.2720 C   0  0  0  0  0  0  0  0  0  0  0  0
  -27.3140  -27.1350   20.3700 C   0  0  0  0  0  0  0  0  0  0  0  0
  -23.4970  -30.4880   21.6260 C   0  0  0  0  0  3  0  0  0  0  0  0
  -24.9830  -28.8930   20.2580 C   0  0  0  0  0  0  0  0  0  0  0  0
  -26.0540  -30.7580   21.5110 C   0  0  0  0  0  2  0  0  0  0  0  0
  -26.1500  -29.3510   20.8820 C   0  0  0  0  0  0  0  0  0  0  0  0
  -27.3180  -28.4920   20.9120 C   0  0  0  0  0  3  0  0  0  0  0  0
  -26.1180  -26.7800   19.7160 C   0  0  0  0  0  3  0  0  0  0  0  0
  -24.9820  -27.6230   19.6570 C   0  0  0  0  0  3  0  0  0  0  0  0
  -23.7530  -29.7900   20.2630 C   0  0  0  0  0  2  0  0  0  0  0  0
  -24.7540  -31.0760   22.1910 N   0  0  0  0  0  0  0  0  0  0  0  0
  -23.5560  -32.1970   23.7740 O   0  0  0  0  0  0  0  0  0  0  0  0
  -22.8010  -29.4930   22.5890 C   0  0  0  0  0  0  0  0  0  0  0  0
  -21.4730  -29.3330   22.4550 N   0  0  0  0  0  0  0  0  0  0  0  0
  -23.4620  -28.8670   23.4220 O   0  0  0  0  0  0  0  0  0  0  0  0
  -20.9960  -29.8900   21.7590 H   0  0  0  0  0  0  0  0  0  0  0  0
  -18.0760  -28.1690   22.9470 C   0  0  0  0  0  0  0  0  0  0  0  0
  -20.6360  -28.4050   23.2230 C   0  0  0  0  0  3  0  0  0  0  0  0
  -20.7250  -26.9720   22.6470 C   0  0  0  0  0  2  0  0  0  0  0  0
  -19.6220  -26.6620   21.6290 C   0  0  0  0  0  2  0  0  0  0  0  0
  -18.2400  -26.8200   22.2690 C   0  0  0  0  0  2  0  0  0  0  0  0
  -19.2010  -28.9220   23.3800 C   0  0  0  0  0  0  0  0  0  0  0  0
  -18.9910  -30.1830   23.9770 C   0  0  0  0  0  3  0  0  0  0  0  0
  -17.6890  -30.6940   24.1430 C   0  0  0  0  0  3  0  0  0  0  0  0
  -16.5800  -29.9390   23.7250 C   0  0  0  0  0  3  0  0  0  0  0  0
  -16.7740  -28.6790   23.1320 C   0  0  0  0  0  3  0  0  0  0  0  0
  -25.9150  -32.5640   23.9180 C   0  0  0  0  0  3  0  0  0  0  0  0
  -25.5890  -33.9660   24.2230 N   0  0  0  0  0  0  0  0  0  0  0  0
  -25.9240  -35.0140   23.4580 C   0  0  0  0  0  0  0  0  0  0  0  0
  -26.6040  -34.9010   22.4340 O   0  0  0  0  0  0  0  0  0  0  0  0
  -24.9830  -34.1260   25.0150 H   0  0  0  0  0  0  0  0  0  0  0  0
  -24.1870  -36.7970   23.0740 C   0  0  0  0  0  1  0  0  0  0  0  0
  -25.4280  -36.4070   23.8950 C   0  0  0  0  0  3  0  0  0  0  0  0
  -27.5520  -37.3190   24.7230 C   0  0  0  0  0  1  0  0  0  0  0  0
  -26.4540  -37.4650   23.7720 N   0  0  0  0  0  0  0  0  0  0  0  0
  -26.0400  -38.3840   23.9020 H   0  0  0  0  0  0  0  0  0  0  0  0
  -26.3970  -31.8190   25.2240 C   0  0  1  0  0  0  0  0  0  0  0  0
  -25.2760  -31.5990   26.2690 C   0  0  0  0  0  1  0  0  0  0  0  0
  -26.9930  -30.4340   24.8790 C   0  0  0  0  0  1  0  0  0  0  0  0
  -27.5280  -32.6280   25.9010 C   0  0  0  0  0  1  0  0  0  0  0  0
  2  7  1  0
  3  4  1  0
  3  2  1  0
  5  4  1  0
  5 22  1  0
  5  6  1  0
  7  1  1  0
  7  6  1  0
  8  1  2  0
  9 10  1  0
 11 12  1  0
 11 14  1  0
 12 16  1  0
 14  9  1  0
 14 17  1  0
 15 10  1  0
 15 13  1  0
 16  1  1  0
 16 13  1  0
 17 18  1  1
 17 47  1  0
 17 15  1  0
 19 20  2  0
 20 39  1  0
 21 20  1  0
 21 24  1  0
 22 19  1  0
 22 23  1  0
 23 21  2  0
 24 25  1  0
 25 26  2  0
 27 30  1  0
 27 26  1  0
 28 27  2  0
 29 28  1  0
 29 24  2  0
 30 31  1  0
 31 32  1  0
 32 33  2  0
 34 33  1  0
 34 38  1  0
 35 34  2  0
 36 31  2  0
 36 35  1  0
 37 36  1  0
 39 40  1  0
 40 43  1  0
 40 42  1  0
 41 39  2  0
 44 45  1  0
 44 19  1  0
 46 44  1  0
 48 49  1  0
 48 47  1  0
 50 49  1  0
 51 62  2  0
 52 50  1  0
 52 57  1  0
 53 61  1  0
 53 63  1  0
 54 60  1  0
 54 56  1  0
 55 61  1  0
 56 57  2  0
 56 55  1  0
 58 52  2  0
 59 58  1  0
 59 54  2  0
 60 53  1  0
 61 51  1  0
 63 65  2  0
 64 63  1  0
 66 64  1  0
 67 76  2  0
 67 72  1  0
 68 64  1  0
 68 72  1  0
 69 68  1  0
 70 71  1  0
 70 69  1  0
 71 67  1  0
 72 73  2  0
 73 74  1  0
 75 74  2  0
 76 75  1  0
 77 51  1  0
 77 78  1  0
 77 87  1  0
 78 81  1  0
 79 83  1  0
 79 78  1  0
 80 79  2  0
 83 82  1  0
 85 83  1  0
 85 86  1  0
 85 84  1  0
 87 90  1  1
 87 88  1  0
 89 87  1  0
M  ISO  4   1 100  16 100  49 101  50 101
M  END
>  <TORSDO>  (74) 
F 18

>  <SCORE>  (74) 
-16.076

>  <name>  (74) 
74

>  <ligand_id>  (74) 
74

>  <original_smiles>  (74) 
[H]c1c([H])c([H])c2c(c1[H])C([H])([H])C([H])([H])C([H])([H])C2([H])N([H])C(=O)C1([H])N(C(=O)C([H])(N([H])C(=O)C([H])(N([H])C([H])([H])[H])C([H])([H])[H])C(C([H])([H])[H])(C([H])([H])[H])C([H])([H])[H])C([H])([H])c2c([H])c(OC([H])([H])C([H])([H])C([H])([H])[N+]3([H])C4([H])C([H])([H])N(C(=O)N5C([H])([H])C([H])([H])C([H])([H])C([H])(n6nc(-c7c([H])c([H])c(Oc8c([H])c([H])c(F)c([H])c8F)c([H])c7[H])c(C(=O)N([H])[H])c6N([H])[H])C5([H])[H])C([H])([H])C([H])([H])C3([H])C([H])([H])C4([H])[H])c([H])c([H])c2C1([H])[H]

>  <smiles>  (74) 
[H]c1c([H])c([H])c2c(c1[H])C([H])([H])C([H])([H])C([H])([H])C2([H])N([H])C(=O)C1([H])N(C(=O)C([H])(N([H])C(=O)C([H])(N([H])C([H])([H])[H])C([H])([H])[H])C(C([H])([H])[H])(C([H])([H])[H])C([H])([H])[H])C([H])([H])c2c([H])c(OC([H])([H])C([H])([H])C([H])([H])[N+]3([H])C4([H])C([H])([H])N(C(=O)N5C([H])([H])C([H])([H])C([H])([H])C([H])(n6nc(-c7c([H])c([H])c(Oc8c([H])c([H])c(F)c([H])c8F)c([H])c7[H])c(C(=O)N([H])[H])c6N([H])[H])C5([H])[H])C([H])([H])C([H])([H])C3([H])C([H])([H])C4([H])[H])c([H])c([H])c2C1([H])[H]

$$$$
75:0:0
     RDKit          3D

 81 85  0  0  1  0  0  0  0  0999 V2000
  -28.1090  -24.6470   20.3000 O   0  0  0  0  0  1  0  0  0  0  0  0
  -24.7100  -31.7810   23.1610 C   0  0  0  0  0  0  0  0  0  0  0  0
  -27.2070  -26.1440   20.2640 C   0  0  0  0  0  0  0  0  0  0  0  0
  -23.5560  -30.3680   21.5220 C   0  0  0  0  0  3  0  0  0  0  0  0
  -25.0090  -28.5810   20.1690 C   0  0  0  0  0  0  0  0  0  0  0  0
  -26.1560  -30.3130   21.5020 C   0  0  0  0  0  2  0  0  0  0  0  0
  -26.2110  -28.8120   20.8490 C   0  0  0  0  0  0  0  0  0  0  0  0
  -27.2590  -27.6460   20.8460 C   0  0  0  0  0  3  0  0  0  0  0  0
  -25.9680  -26.2870   19.5230 C   0  0  0  0  0  3  0  0  0  0  0  0
  -24.9660  -27.3480   19.4800 C   0  0  0  0  0  3  0  0  0  0  0  0
  -23.8360  -29.6140   20.1780 C   0  0  0  0  0  2  0  0  0  0  0  0
  -24.8390  -30.8700   22.1140 N   0  0  0  0  0  0  0  0  0  0  0  0
  -23.6010  -32.1150   23.6230 O   0  0  0  0  0  0  0  0  0  0  0  0
  -22.7620  -29.4580   22.5040 C   0  0  0  0  0  0  0  0  0  0  0  0
  -21.4220  -29.3560   22.3730 N   0  0  0  0  0  0  0  0  0  0  0  0
  -23.3780  -28.8290   23.3670 O   0  0  0  0  0  0  0  0  0  0  0  0
  -20.9670  -29.9120   21.6630 H   0  0  0  0  0  0  0  0  0  0  0  0
  -17.9970  -28.2130   22.9010 C   0  0  0  0  0  0  0  0  0  0  0  0
  -20.5670  -28.4380   23.1430 C   0  0  0  0  0  3  0  0  0  0  0  0
  -20.6330  -27.0060   22.5600 C   0  0  0  0  0  2  0  0  0  0  0  0
  -19.5210  -26.7160   21.5460 C   0  0  0  0  0  2  0  0  0  0  0  0
  -18.1460  -26.8740   22.1990 C   0  0  0  0  0  2  0  0  0  0  0  0
  -19.1320  -28.9550   23.3290 C   0  0  0  0  0  0  0  0  0  0  0  0
  -18.9320  -30.2040   23.9560 C   0  0  0  0  0  3  0  0  0  0  0  0
  -17.6350  -30.7130   24.1530 C   0  0  0  0  0  3  0  0  0  0  0  0
  -16.5160  -29.9710   23.7350 C   0  0  0  0  0  3  0  0  0  0  0  0
  -16.6980  -28.7220   23.1160 C   0  0  0  0  0  3  0  0  0  0  0  0
  -25.9400  -32.4590   23.8420 C   0  0  0  0  0  3  0  0  0  0  0  0
  -25.5980  -33.8650   24.1720 N   0  0  0  0  0  0  0  0  0  0  0  0
  -25.9200  -34.9450   23.4450 C   0  0  0  0  0  0  0  0  0  0  0  0
  -26.5760  -34.8640   22.4040 O   0  0  0  0  0  0  0  0  0  0  0  0
  -25.0070  -33.9990   24.9800 H   0  0  0  0  0  0  0  0  0  0  0  0
  -24.1680  -36.7480   23.1980 C   0  0  0  0  0  1  0  0  0  0  0  0
  -25.4480  -36.3330   23.9420 C   0  0  0  0  0  3  0  0  0  0  0  0
  -27.6060  -37.2470   24.6880 C   0  0  0  0  0  1  0  0  0  0  0  0
  -26.4650  -37.3980   23.7880 N   0  0  0  0  0  0  0  0  0  0  0  0
  -26.0550  -38.3150   23.9480 H   0  0  0  0  0  0  0  0  0  0  0  0
  -26.3960  -31.7200   25.1620 C   0  0  1  0  0  0  0  0  0  0  0  0
  -25.2580  -31.5140   26.1910 C   0  0  0  0  0  1  0  0  0  0  0  0
  -26.9880  -30.3300   24.8490 C   0  0  0  0  0  1  0  0  0  0  0  0
  -27.5230  -32.5250   25.8520 C   0  0  0  0  0  1  0  0  0  0  0  0
  -28.1400  -22.5480   20.1630 C   0  0  0  0  0 15  0  0  0  0  0  0
  -29.1420  -20.4180   20.2160 C   0  0  0  0  0 15  0  0  0  0  0  0
  -29.9010  -16.6470   20.0860 C   0  0  0  0  0  0  0  0  0  0  0  0
  -30.2300  -13.8900   19.2940 C   0  0  0  0  0  2  0  0  0  0  0  0
  -29.4480  -13.0530   18.1990 C   0  0  0  0  0  2  0  0  0  0  0  0
  -28.1340  -12.4820   18.7300 C   0  0  0  0  0  2  0  0  0  0  0  0
  -27.5010  -13.5140   19.6750 C   0  0  0  0  0  3  0  0  0  0  0  0
  -28.4750  -14.2100   20.6950 C   0  0  0  0  0  2  0  0  0  0  0  0
  -29.4550  -15.1290   19.9600 N   0  0  0  0  0  0  0  0  0  0  0  0
  -31.1430  -16.3980   20.0040 O   0  0  0  0  0  0  0  0  0  0  0  0
  -29.2570  -18.3100   20.1340 N   0  0  0  0  0  2  0  0  0  0  0  0
  -30.2580  -18.4710   20.1320 H   0  0  0  0  0  0  0  0  0  0  0  0
  -25.1600  -13.9200   20.5080 C   0  0  0  0  0  0  0  0  0  0  0  0
  -24.1280  -13.1120   20.8810 C   0  0  0  0  0  0  0  0  0  0  0  0
  -24.6260  -11.7720   20.8220 C   0  0  0  0  0  0  0  0  0  0  0  0
  -26.2240  -13.0860   20.2420 N   0  0  0  0  0  0  0  0  0  0  0  0
  -25.9190  -11.7780   20.4820 N   0  0  0  0  0  0  0  0  0  0  0  0
  -23.9140  -10.4950   21.0120 C   0  0  0  0  0  0  0  0  0  0  0  0
  -24.3570   -9.5290   21.9420 C   0  0  0  0  0  3  0  0  0  0  0  0
  -23.6350   -8.3280   22.1300 C   0  0  0  0  0  3  0  0  0  0  0  0
  -22.4560   -8.0830   21.3870 C   0  0  0  0  0  0  0  0  0  0  0  0
  -22.0290   -9.0390   20.4470 C   0  0  0  0  0  3  0  0  0  0  0  0
  -22.7510  -10.2310   20.2590 C   0  0  0  0  0  3  0  0  0  0  0  0
  -21.7070   -6.9350   21.4820 O   0  0  0  0  0  0  0  0  0  0  0  0
  -21.6700   -6.1910   22.6350 C   0  0  0  0  0  0  0  0  0  0  0  0
  -21.2140   -6.7320   23.8560 C   0  0  0  0  0  3  0  0  0  0  0  0
  -21.1260   -5.9140   25.0000 C   0  0  0  0  0  3  0  0  0  0  0  0
  -21.4850   -4.5540   24.9250 C   0  0  0  0  0  0  0  0  0  0  0  0
  -21.9340   -4.0110   23.7070 C   0  0  0  0  0  3  0  0  0  0  0  0
  -22.0220   -4.8270   22.5660 C   0  0  0  0  0  0  0  0  0  0  0  0
  -22.4340   -4.2930   21.3900 F   0  0  0  0  0  0  0  0  0  0  0  0
  -21.3950   -3.7660   26.0220 F   0  0  0  0  0  0  0  0  0  0  0  0
  -22.7270  -13.5620   21.1730 C   0  0  0  0  0  0  0  0  0  0  0  0
  -22.0260  -12.8570   22.0520 N   0  0  0  0  0  0  0  0  0  0  0  0
  -22.2670  -14.5820   20.6590 O   0  0  0  0  0  0  0  0  0  0  0  0
  -22.4140  -12.0340   22.4890 H   0  0  0  0  0  0  0  0  0  0  0  0
  -21.0880  -13.1430   22.2910 H   0  0  0  0  0  0  0  0  0  0  0  0
  -25.2790  -15.2960   20.3350 N   0  0  0  0  0  0  0  0  0  0  0  0
  -24.4980  -15.9290   20.4650 H   0  0  0  0  0  0  0  0  0  0  0  0
  -26.1180  -15.7610   20.0090 H   0  0  0  0  0  0  0  0  0  0  0  0
  2 13  2  0
  3  1  1  0
  3  8  1  0
  4 12  1  0
  4 14  1  0
  5 11  1  0
  5  7  1  0
  6 12  1  0
  7  6  1  0
  8  7  2  0
  9  3  2  0
 10  9  1  0
 10  5  2  0
 11  4  1  0
 12  2  1  0
 14 16  2  0
 15 14  1  0
 17 15  1  0
 18 27  2  0
 18 23  1  0
 19 15  1  0
 19 23  1  0
 20 19  1  0
 21 22  1  0
 21 20  1  0
 22 18  1  0
 23 24  2  0
 24 25  1  0
 26 25  2  0
 27 26  1  0
 28  2  1  0
 28 29  1  0
 28 38  1  0
 29 32  1  0
 30 34  1  0
 30 29  1  0
 31 30  2  0
 34 33  1  0
 36 34  1  0
 36 37  1  0
 36 35  1  0
 38 41  1  1
 38 39  1  0
 40 38  1  0
 44 52  1  0
 45 50  1  0
 46 47  1  0
 46 45  1  0
 48 47  1  0
 48 57  1  0
 48 49  1  0
 50 44  1  0
 50 49  1  0
 51 44  2  0
 53 52  1  0
 54 55  2  0
 55 74  1  0
 56 55  1  0
 56 59  1  0
 57 58  1  0
 57 54  1  0
 58 56  2  0
 59 60  1  0
 60 61  2  0
 62 65  1  0
 62 61  1  0
 63 62  2  0
 64 63  1  0
 64 59  2  0
 65 66  1  0
 66 67  1  0
 67 68  2  0
 69 68  1  0
 69 73  1  0
 70 69  2  0
 71 66  2  0
 71 70  1  0
 72 71  1  0
 74 75  1  0
 75 78  1  0
 75 77  1  0
 76 74  2  0
 79 80  1  0
 79 54  1  0
 81 79  1  0
M  ISO  4   1 101  42 101  44 100  52 100
M  END
>  <TORSDO>  (75) 
F 17

>  <SCORE>  (75) 
-16.141

>  <name>  (75) 
75

>  <ligand_id>  (75) 
75

>  <original_smiles>  (75) 
[H]c1c([H])c([H])c2c(c1[H])C([H])([H])C([H])([H])C([H])([H])C2([H])N([H])C(=O)C1([H])N(C(=O)C([H])(N([H])C(=O)C([H])(N([H])C([H])([H])[H])C([H])([H])[H])C(C([H])([H])[H])(C([H])([H])[H])C([H])([H])[H])C([H])([H])c2c([H])c(OC([H])([H])C([H])([H])N([H])C(=O)N3C([H])([H])C([H])([H])C([H])([H])C([H])(n4nc(-c5c([H])c([H])c(Oc6c([H])c([H])c(F)c([H])c6F)c([H])c5[H])c(C(=O)N([H])[H])c4N([H])[H])C3([H])[H])c([H])c([H])c2C1([H])[H]

>  <smiles>  (75) 
[H]c1c([H])c([H])c2c(c1[H])C([H])([H])C([H])([H])C([H])([H])C2([H])N([H])C(=O)C1([H])N(C(=O)C([H])(N([H])C(=O)C([H])(N([H])C([H])([H])[H])C([H])([H])[H])C(C([H])([H])[H])(C([H])([H])[H])C([H])([H])[H])C([H])([H])c2c([H])c(OC([H])([H])C([H])([H])N([H])C(=O)N3C([H])([H])C([H])([H])C([H])([H])C([H])(n4nc(-c5c([H])c([H])c(Oc6c([H])c([H])c(F)c([H])c6F)c([H])c5[H])c(C(=O)N([H])[H])c4N([H])[H])C3([H])[H])c([H])c([H])c2C1([H])[H]

$$$$
76:0:0
     RDKit          3D

 82 87  0  0  1  0  0  0  0  0999 V2000
  -28.1930  -24.4930   20.2350 O   0  0  0  0  0  1  0  0  0  0  0  0
  -29.9270  -16.8380   20.0730 C   0  0  0  0  0  0  0  0  0  0  0  0
  -30.3100  -14.0380   19.2850 C   0  0  0  0  0  2  0  0  0  0  0  0
  -29.5570  -13.1340   18.2110 C   0  0  0  0  0  2  0  0  0  0  0  0
  -28.2660  -12.5240   18.7530 C   0  0  0  0  0  2  0  0  0  0  0  0
  -27.6070  -13.5550   19.6770 C   0  0  0  0  0  3  0  0  0  0  0  0
  -28.5680  -14.3130   20.6800 C   0  0  0  0  0  2  0  0  0  0  0  0
  -29.5070  -15.2870   19.9360 N   0  0  0  0  0  0  0  0  0  0  0  0
  -31.1730  -16.5560   20.0100 O   0  0  0  0  0  0  0  0  0  0  0  0
  -27.5340  -21.0000   19.7070 C   0  0  0  0  0  2  0  0  0  0  0  0
  -27.8640  -19.2740   20.0150 C   0  0  0  0  0  3  0  0  0  0  0  0
  -29.5080  -20.4900   20.2470 C   0  0  0  0  0 15  0  0  0  0  0  0
  -28.3710  -22.3280   20.3220 C   0  0  0  0  0  1  0  0  0  0  0  0
  -29.2760  -18.5540   20.1200 N   0  0  0  0  0  0  0  0  0  0  0  0
  -25.2730  -13.9330   20.5360 C   0  0  0  0  0  0  0  0  0  0  0  0
  -24.2420  -13.1190   20.9040 C   0  0  0  0  0  0  0  0  0  0  0  0
  -24.7400  -11.7790   20.8180 C   0  0  0  0  0  0  0  0  0  0  0  0
  -26.3380  -13.1070   20.2490 N   0  0  0  0  0  0  0  0  0  0  0  0
  -26.0300  -11.7920   20.4660 N   0  0  0  0  0  0  0  0  0  0  0  0
  -24.0250  -10.5010   20.9960 C   0  0  0  0  0  0  0  0  0  0  0  0
  -24.4550   -9.5310   21.9290 C   0  0  0  0  0  3  0  0  0  0  0  0
  -23.7310   -8.3300   22.1050 C   0  0  0  0  0  3  0  0  0  0  0  0
  -22.5580   -8.0880   21.3500 C   0  0  0  0  0  0  0  0  0  0  0  0
  -22.1450   -9.0470   20.4080 C   0  0  0  0  0  3  0  0  0  0  0  0
  -22.8710  -10.2380   20.2290 C   0  0  0  0  0  3  0  0  0  0  0  0
  -21.8070   -6.9400   21.4340 O   0  0  0  0  0  0  0  0  0  0  0  0
  -21.7220   -6.2160   22.5970 C   0  0  0  0  0  0  0  0  0  0  0  0
  -21.2220   -6.7830   23.7900 C   0  0  0  0  0  3  0  0  0  0  0  0
  -21.0850   -5.9860   24.9460 C   0  0  0  0  0  3  0  0  0  0  0  0
  -21.4370   -4.6250   24.9090 C   0  0  0  0  0  0  0  0  0  0  0  0
  -21.9270   -4.0570   23.7210 C   0  0  0  0  0  3  0  0  0  0  0  0
  -22.0660   -4.8490   22.5680 C   0  0  0  0  0  0  0  0  0  0  0  0
  -22.5200   -4.2900   21.4200 F   0  0  0  0  0  0  0  0  0  0  0  0
  -21.3000   -3.8580   26.0160 F   0  0  0  0  0  0  0  0  0  0  0  0
  -22.8450  -13.5660   21.2130 C   0  0  0  0  0  0  0  0  0  0  0  0
  -22.1500  -12.8530   22.0910 N   0  0  0  0  0  0  0  0  0  0  0  0
  -22.3810  -14.5920   20.7140 O   0  0  0  0  0  0  0  0  0  0  0  0
  -22.5370  -12.0250   22.5180 H   0  0  0  0  0  0  0  0  0  0  0  0
  -21.2140  -13.1390   22.3440 H   0  0  0  0  0  0  0  0  0  0  0  0
  -25.3930  -15.3130   20.3850 N   0  0  0  0  0  0  0  0  0  0  0  0
  -24.6220  -15.9490   20.5580 H   0  0  0  0  0  0  0  0  0  0  0  0
  -26.2340  -15.7810   20.0760 H   0  0  0  0  0  0  0  0  0  0  0  0
  -24.7500  -31.7680   23.0990 C   0  0  0  0  0  0  0  0  0  0  0  0
  -27.2720  -26.0230   20.2540 C   0  0  0  0  0  0  0  0  0  0  0  0
  -23.6050  -30.3310   21.4770 C   0  0  0  0  0  3  0  0  0  0  0  0
  -25.0660  -28.5170   20.1430 C   0  0  0  0  0  0  0  0  0  0  0  0
  -26.2080  -30.2590   21.4610 C   0  0  0  0  0  2  0  0  0  0  0  0
  -26.2690  -28.7400   20.8220 C   0  0  0  0  0  0  0  0  0  0  0  0
  -27.3180  -27.5540   20.8160 C   0  0  0  0  0  3  0  0  0  0  0  0
  -26.0280  -26.2040   19.5150 C   0  0  0  0  0  3  0  0  0  0  0  0
  -25.0300  -27.2790   19.4620 C   0  0  0  0  0  3  0  0  0  0  0  0
  -23.8920  -29.5580   20.1430 C   0  0  0  0  0  2  0  0  0  0  0  0
  -24.8890  -30.8380   22.0650 N   0  0  0  0  0  0  0  0  0  0  0  0
  -23.6360  -32.1040   23.5540 O   0  0  0  0  0  0  0  0  0  0  0  0
  -22.8090  -29.4350   22.4720 C   0  0  0  0  0  0  0  0  0  0  0  0
  -21.4710  -29.3260   22.3430 N   0  0  0  0  0  0  0  0  0  0  0  0
  -23.4260  -28.8230   23.3450 O   0  0  0  0  0  0  0  0  0  0  0  0
  -21.0110  -29.8700   21.6250 H   0  0  0  0  0  0  0  0  0  0  0  0
  -18.0540  -28.1530   22.8920 C   0  0  0  0  0  0  0  0  0  0  0  0
  -20.6230  -28.4050   23.1200 C   0  0  0  0  0  3  0  0  0  0  0  0
  -20.7020  -26.9710   22.5450 C   0  0  0  0  0  2  0  0  0  0  0  0
  -19.5860  -26.6620   21.5400 C   0  0  0  0  0  2  0  0  0  0  0  0
  -18.2140  -26.8090   22.2030 C   0  0  0  0  0  2  0  0  0  0  0  0
  -19.1840  -28.9110   23.3070 C   0  0  0  0  0  0  0  0  0  0  0  0
  -18.9730  -30.1620   23.9250 C   0  0  0  0  0  3  0  0  0  0  0  0
  -17.6710  -30.6600   24.1230 C   0  0  0  0  0  3  0  0  0  0  0  0
  -16.5580  -29.9040   23.7140 C   0  0  0  0  0  3  0  0  0  0  0  0
  -16.7520  -28.6520   23.1050 C   0  0  0  0  0  3  0  0  0  0  0  0
  -25.9700  -32.4670   23.7800 C   0  0  0  0  0  3  0  0  0  0  0  0
  -25.6140  -33.8710   24.1070 N   0  0  0  0  0  0  0  0  0  0  0  0
  -25.9400  -34.9560   23.3870 C   0  0  0  0  0  0  0  0  0  0  0  0
  -26.6090  -34.8820   22.3550 O   0  0  0  0  0  0  0  0  0  0  0  0
  -25.0140  -34.0020   24.9070 H   0  0  0  0  0  0  0  0  0  0  0  0
  -24.1860  -36.7550   23.1120 C   0  0  0  0  0  1  0  0  0  0  0  0
  -25.4510  -36.3390   23.8810 C   0  0  0  0  0  3  0  0  0  0  0  0
  -27.6020  -37.2450   24.6620 C   0  0  0  0  0  1  0  0  0  0  0  0
  -26.4610  -37.4170   23.7670 N   0  0  0  0  0  0  0  0  0  0  0  0
  -26.0420  -38.3200   23.9670 H   0  0  0  0  0  0  0  0  0  0  0  0
  -26.4350  -31.7400   25.1050 C   0  0  1  0  0  0  0  0  0  0  0  0
  -25.3030  -31.5230   26.1410 C   0  0  0  0  0  1  0  0  0  0  0  0
  -27.0440  -30.3560   24.7990 C   0  0  0  0  0  1  0  0  0  0  0  0
  -27.5530  -32.5630   25.7870 C   0  0  0  0  0  1  0  0  0  0  0  0
  1 44  1  0
  2 14  1  0
  3  8  1  0
  4  5  1  0
  4  3  1  0
  6  5  1  0
  6 18  1  0
  6  7  1  0
  8  2  1  0
  8  7  1  0
  9  2  2  0
 10 11  1  0
 10 13  1  0
 11 14  2  0
 15 16  2  0
 16 35  1  0
 17 16  1  0
 17 20  1  0
 18 19  1  0
 18 15  1  0
 19 17  2  0
 20 21  1  0
 21 22  2  0
 23 26  1  0
 23 22  1  0
 24 23  2  0
 25 24  1  0
 25 20  2  0
 26 27  1  0
 27 28  1  0
 28 29  2  0
 30 29  1  0
 30 34  1  0
 31 30  2  0
 32 27  2  0
 32 31  1  0
 33 32  1  0
 35 36  1  0
 36 39  1  0
 36 38  1  0
 37 35  2  0
 40 15  1  0
 40 41  1  0
 42 40  1  0
 43 54  2  0
 44 49  1  0
 45 53  1  0
 45 55  1  0
 46 48  1  0
 47 53  1  0
 48 47  1  0
 49 48  2  0
 50 44  2  0
 51 50  1  0
 51 46  2  0
 52 46  1  0
 52 45  1  0
 53 43  1  0
 55 57  2  0
 56 55  1  0
 58 56  1  0
 59 68  2  0
 59 64  1  0
 60 56  1  0
 60 64  1  0
 61 60  1  0
 62 63  1  0
 62 61  1  0
 63 59  1  0
 64 65  2  0
 65 66  1  0
 67 66  2  0
 68 67  1  0
 69 43  1  0
 69 70  1  0
 69 79  1  0
 70 73  1  0
 71 75  1  0
 71 70  1  0
 72 71  2  0
 75 74  1  0
 77 75  1  0
 77 78  1  0
 77 76  1  0
 79 82  1  1
 79 80  1  0
 81 79  1  0
M  ISO  4   1 101   2 100  13 101  14 100
M  END
>  <TORSDO>  (76) 
F 15

>  <SCORE>  (76) 
-16.149

>  <name>  (76) 
76

>  <ligand_id>  (76) 
76

>  <original_smiles>  (76) 
[H]c1c([H])c([H])c2c(c1[H])C([H])([H])C([H])([H])C([H])([H])C2([H])N([H])C(=O)C1([H])N(C(=O)C([H])(N([H])C(=O)C([H])(N([H])C([H])([H])[H])C([H])([H])[H])C(C([H])([H])[H])(C([H])([H])[H])C([H])([H])[H])C([H])([H])c2c([H])c(OC3([H])C([H])([H])N(C(=O)N4C([H])([H])C([H])([H])C([H])([H])C([H])(n5nc(-c6c([H])c([H])c(Oc7c([H])c([H])c(F)c([H])c7F)c([H])c6[H])c(C(=O)N([H])[H])c5N([H])[H])C4([H])[H])C([H])([H])C3([H])[H])c([H])c([H])c2C1([H])[H]

>  <smiles>  (76) 
[H]c1c([H])c([H])c2c(c1[H])C([H])([H])C([H])([H])C([H])([H])C2([H])N([H])C(=O)C1([H])N(C(=O)C([H])(N([H])C(=O)C([H])(N([H])C([H])([H])[H])C([H])([H])[H])C(C([H])([H])[H])(C([H])([H])[H])C([H])([H])[H])C([H])([H])c2c([H])c(OC3([H])C([H])([H])N(C(=O)N4C([H])([H])C([H])([H])C([H])([H])C([H])(n5nc(-c6c([H])c([H])c(Oc7c([H])c([H])c(F)c([H])c7F)c([H])c6[H])c(C(=O)N([H])[H])c5N([H])[H])C4([H])[H])C([H])([H])C3([H])[H])c([H])c([H])c2C1([H])[H]

$$$$
77:0:0
     RDKit          3D

 97107  0  0  1  0  0  0  0  0999 V2000
  -31.1360  -18.8780   20.5330 C   0  0  0  0  0  3  0  0  0  0  0  0
  -30.7130  -20.4330   22.8170 C   0  0  0  0  0  3  0  0  0  0  0  0
  -31.1180  -18.2400   21.7910 C   0  0  0  0  0  0  0  0  0  0  0  0
  -30.6610  -21.0790   21.5550 C   0  0  0  0  0  0  0  0  0  0  0  0
  -30.8940  -20.2680   20.4080 C   0  0  0  0  0  0  0  0  0  0  0  0
  -30.9260  -19.0430   22.9370 C   0  0  0  0  0  0  0  0  0  0  0  0
  -30.8800  -20.7990   19.1610 F   0  0  0  0  0  0  0  0  0  0  0  0
  -30.9320  -18.4820   24.1700 F   0  0  0  0  0  0  0  0  0  0  0  0
  -29.3780  -24.5560   22.1100 C   0  0  0  0  0  2  0  0  0  0  0  0
  -29.9940  -23.2600   22.6490 C   0  0  0  0  0  2  0  0  0  0  0  0
  -30.0780  -23.2130   20.2540 C   0  0  0  0  0  2  0  0  0  0  0  0
  -29.9120  -24.6880   20.6810 C   0  0  0  0  0  3  0  0  0  0  0  0
  -30.4010  -22.4810   21.4820 N   0  0  0  0  0  0  0  0  0  0  0  0
  -29.0080  -25.5440   19.7640 C   0  0  0  0  0  2  0  0  0  0  0  0
  -28.8600  -26.8770   20.2890 O   0  0  0  0  0  0  0  0  0  0  0  0
  -24.7590  -31.8160   23.3560 C   0  0  0  0  0  0  0  0  0  0  0  0
  -27.6430  -27.5370   20.2350 C   0  0  0  0  0  0  0  0  0  0  0  0
  -23.6530  -30.4290   21.6340 C   0  0  0  0  0  3  0  0  0  0  0  0
  -25.2000  -28.9810   20.2150 C   0  0  0  0  0  0  0  0  0  0  0  0
  -26.1740  -30.8630   21.5380 C   0  0  0  0  0  2  0  0  0  0  0  0
  -26.3200  -29.5150   20.8610 C   0  0  0  0  0  0  0  0  0  0  0  0
  -27.5380  -28.7960   20.8740 C   0  0  0  0  0  3  0  0  0  0  0  0
  -26.5020  -27.0300   19.5700 C   0  0  0  0  0  3  0  0  0  0  0  0
  -25.2850  -27.7370   19.5700 C   0  0  0  0  0  3  0  0  0  0  0  0
  -23.9300  -29.8000   20.2420 C   0  0  0  0  0  2  0  0  0  0  0  0
  -24.8790  -31.0510   22.2340 N   0  0  0  0  0  0  0  0  0  0  0  0
  -23.6520  -32.0380   23.8670 O   0  0  0  0  0  0  0  0  0  0  0  0
  -23.0050  -29.3580   22.5410 C   0  0  0  0  0  0  0  0  0  0  0  0
  -21.6960  -29.1260   22.3520 N   0  0  0  0  0  0  0  0  0  0  0  0
  -23.6780  -28.7380   23.3680 O   0  0  0  0  0  0  0  0  0  0  0  0
  -21.2110  -29.6820   21.6620 H   0  0  0  0  0  0  0  0  0  0  0  0
  -18.3520  -27.7940   22.6740 C   0  0  0  0  0  0  0  0  0  0  0  0
  -20.8850  -28.1380   23.0650 C   0  0  0  0  0  3  0  0  0  0  0  0
  -21.0660  -26.7260   22.4600 C   0  0  0  0  0  2  0  0  0  0  0  0
  -20.0220  -26.3900   21.3900 C   0  0  0  0  0  2  0  0  0  0  0  0
  -18.6090  -26.4680   21.9760 C   0  0  0  0  0  2  0  0  0  0  0  0
  -19.4220  -28.5850   23.1710 C   0  0  0  0  0  0  0  0  0  0  0  0
  -19.1310  -29.8250   23.7800 C   0  0  0  0  0  3  0  0  0  0  0  0
  -17.8020  -30.2740   23.8990 C   0  0  0  0  0  3  0  0  0  0  0  0
  -16.7450  -29.4780   23.4200 C   0  0  0  0  0  3  0  0  0  0  0  0
  -17.0220  -28.2400   22.8130 C   0  0  0  0  0  3  0  0  0  0  0  0
  -26.0040  -32.4670   24.0370 C   0  0  0  0  0  3  0  0  0  0  0  0
  -25.6620  -33.8620   24.3370 N   0  0  0  0  0  0  0  0  0  0  0  0
  -25.9920  -34.9090   23.5680 C   0  0  0  0  0  0  0  0  0  0  0  0
  -26.6850  -34.8010   22.5520 O   0  0  0  0  0  0  0  0  0  0  0  0
  -25.0510  -34.0190   25.1250 H   0  0  0  0  0  0  0  0  0  0  0  0
  -24.2170  -36.6450   23.1720 C   0  0  0  0  0  1  0  0  0  0  0  0
  -25.4690  -36.2950   23.9930 C   0  0  0  0  0  3  0  0  0  0  0  0
  -27.5730  -37.2590   24.8070 C   0  0  0  0  0  1  0  0  0  0  0  0
  -26.4730  -37.3710   23.8550 N   0  0  0  0  0  0  0  0  0  0  0  0
  -26.0420  -38.2840   23.9730 H   0  0  0  0  0  0  0  0  0  0  0  0
  -26.4650  -31.7110   25.3430 C   0  0  1  0  0  0  0  0  0  0  0  0
  -25.3210  -31.4640   26.3540 C   0  0  0  0  0  1  0  0  0  0  0  0
  -27.0870  -30.3400   24.9880 C   0  0  0  0  0  1  0  0  0  0  0  0
  -27.5660  -32.5260   26.0590 C   0  0  0  0  0  1  0  0  0  0  0  0
  -31.2870  -16.7110   21.9260 C   0  0  0  0  0  2  0  0  0  0  0  0
  -31.0300  -14.7190   20.4850 C   0  0  0  0  0  0  0  0  0  0  0  0
  -30.7020  -12.5500   19.3310 C   0  0  0  0  0  2  0  0  0  0  0  0
  -29.7550  -12.7070   18.1240 C   0  0  0  0  0  2  0  0  0  0  0  0
  -28.2900  -12.5190   18.5630 C   0  0  0  0  0  2  0  0  0  0  0  0
  -27.9360  -13.3670   19.8080 C   0  0  0  0  0  3  0  0  0  0  0  0
  -29.0070  -13.2200   20.9190 C   0  0  0  0  0  2  0  0  0  0  0  0
  -30.3140  -13.5600   20.3360 N   0  0  0  0  0  0  0  0  0  0  0  0
  -32.1900  -14.7950   20.0680 O   0  0  0  0  0  0  0  0  0  0  0  0
  -30.4520  -15.8170   21.0700 N   0  0  0  0  0  0  0  0  0  0  0  0
  -25.5540  -13.9850   20.5590 C   0  0  0  0  0  0  0  0  0  0  0  0
  -24.4860  -13.2130   20.9210 C   0  0  0  0  0  0  0  0  0  0  0  0
  -24.9420  -11.8610   20.8610 C   0  0  0  0  0  0  0  0  0  0  0  0
  -26.5920  -13.1000   20.3010 N   0  0  0  0  0  0  0  0  0  0  0  0
  -26.2290  -11.8180   20.5470 N   0  0  0  0  0  0  0  0  0  0  0  0
  -24.2130  -10.6000   21.0260 C   0  0  0  0  0  0  0  0  0  0  0  0
  -24.6190   -9.6350   21.9720 C   0  0  0  0  0  3  0  0  0  0  0  0
  -23.8920   -8.4360   22.1230 C   0  0  0  0  0  3  0  0  0  0  0  0
  -22.7480   -8.1950   21.3270 C   0  0  0  0  0  0  0  0  0  0  0  0
  -22.3640   -9.1500   20.3690 C   0  0  0  0  0  3  0  0  0  0  0  0
  -23.0920  -10.3420   20.2160 C   0  0  0  0  0  3  0  0  0  0  0  0
  -21.9940   -7.0490   21.3880 O   0  0  0  0  0  0  0  0  0  0  0  0
  -21.8620   -6.3370   22.5520 C   0  0  0  0  0  0  0  0  0  0  0  0
  -21.3190   -6.9130   23.7210 C   0  0  0  0  0  3  0  0  0  0  0  0
  -21.1380   -6.1260   24.8760 C   0  0  0  0  0  3  0  0  0  0  0  0
  -21.4920   -4.7640   24.8610 C   0  0  0  0  0  0  0  0  0  0  0  0
  -22.0290   -4.1870   23.6960 C   0  0  0  0  0  3  0  0  0  0  0  0
  -22.2120   -4.9720   22.5450 C   0  0  0  0  0  0  0  0  0  0  0  0
  -22.7110   -4.4080   21.4180 F   0  0  0  0  0  0  0  0  0  0  0  0
  -21.3100   -4.0040   25.9660 F   0  0  0  0  0  0  0  0  0  0  0  0
  -23.0920  -13.6930   21.2060 C   0  0  0  0  0  0  0  0  0  0  0  0
  -22.3680  -12.9880   22.0670 N   0  0  0  0  0  0  0  0  0  0  0  0
  -22.6550  -14.7270   20.7020 O   0  0  0  0  0  0  0  0  0  0  0  0
  -22.7360  -12.1510   22.4970 H   0  0  0  0  0  0  0  0  0  0  0  0
  -21.4330  -13.2890   22.3030 H   0  0  0  0  0  0  0  0  0  0  0  0
  -25.7130  -15.3570   20.4050 N   0  0  0  0  0  0  0  0  0  0  0  0
  -24.9320  -15.9960   20.5000 H   0  0  0  0  0  0  0  0  0  0  0  0
  -26.5400  -15.7910   20.0150 H   0  0  0  0  0  0  0  0  0  0  0  0
  -29.1730  -16.4040   20.6030 C   0  0  0  0  0  2  0  0  0  0  0  0
  -27.7660  -17.2720   18.5470 C   0  0  0  0  0  2  0  0  0  0  0  0
  -29.0080  -18.1140   18.5590 C   0  0  0  0  0  2  0  0  0  0  0  0
  -29.0530  -16.6990   19.1050 C   0  0  0  0  0  3  0  0  0  0  0  0
  1  3  1  0
  2  6  1  0
  3 56  1  0
  3  6  2  0
  4  2  2  0
  5  1  2  0
  5  4  1  0
  6  8  1  0
  7  5  1  0
  9 10  1  0
 11 12  1  0
 11 13  1  0
 12 14  1  0
 12  9  1  0
 13  4  1  0
 13 10  1  0
 14 15  1  0
 16 27  2  0
 17 15  1  0
 17 22  1  0
 18 26  1  0
 18 28  1  0
 19 25  1  0
 19 21  1  0
 20 26  1  0
 21 22  2  0
 21 20  1  0
 23 17  2  0
 24 23  1  0
 24 19  2  0
 25 18  1  0
 26 16  1  0
 28 30  2  0
 29 28  1  0
 31 29  1  0
 32 41  2  0
 32 37  1  0
 33 29  1  0
 33 37  1  0
 34 33  1  0
 35 36  1  0
 35 34  1  0
 36 32  1  0
 37 38  2  0
 38 39  1  0
 40 39  2  0
 41 40  1  0
 42 16  1  0
 42 43  1  0
 42 52  1  0
 43 46  1  0
 44 48  1  0
 44 43  1  0
 45 44  2  0
 48 47  1  0
 50 51  1  0
 50 48  1  0
 50 49  1  0
 52 55  1  1
 52 53  1  0
 54 52  1  0
 57 65  1  0
 58 63  1  0
 59 60  1  0
 59 58  1  0
 61 60  1  0
 61 69  1  0
 61 62  1  0
 63 57  1  0
 63 62  1  0
 64 57  2  0
 65 56  1  0
 66 67  2  0
 67 86  1  0
 68 67  1  0
 68 71  1  0
 69 70  1  0
 69 66  1  0
 70 68  2  0
 71 72  1  0
 72 73  2  0
 74 77  1  0
 74 73  1  0
 75 74  2  0
 76 75  1  0
 76 71  2  0
 77 78  1  0
 78 79  1  0
 79 80  2  0
 81 80  1  0
 81 85  1  0
 82 81  2  0
 83 78  2  0
 83 82  1  0
 84 83  1  0
 86 87  1  0
 87 90  1  0
 87 89  1  0
 88 86  2  0
 91 92  1  0
 91 66  1  0
 93 91  1  0
 94 65  1  0
 95 96  1  0
 95 97  1  0
 96 97  1  0
 97 94  1  0
M  ISO  4  14 101  15 101  57 100  65 100
M  END
>  <TORSDO>  (77) 
F 21

>  <SCORE>  (77) 
-13.402

>  <name>  (77) 
77

>  <ligand_id>  (77) 
77

>  <original_smiles>  (77) 
[H]c1c([H])c([H])c2c(c1[H])C([H])([H])C([H])([H])C([H])([H])C2([H])N([H])C(=O)C1([H])N(C(=O)C([H])(N([H])C(=O)C([H])(N([H])C([H])([H])[H])C([H])([H])[H])C(C([H])([H])[H])(C([H])([H])[H])C([H])([H])[H])C([H])([H])c2c([H])c(OC([H])([H])C3([H])C([H])([H])N(c4c([H])c(F)c(C([H])([H])N(C(=O)N5C([H])([H])C([H])([H])C([H])([H])C([H])(n6nc(-c7c([H])c([H])c(Oc8c([H])c([H])c(F)c([H])c8F)c([H])c7[H])c(C(=O)N([H])[H])c6N([H])[H])C5([H])[H])C([H])([H])C5([H])C([H])([H])C5([H])[H])c([H])c4F)C([H])([H])C3([H])[H])c([H])c([H])c2C1([H])[H]

>  <smiles>  (77) 
[H]c1c([H])c([H])c2c(c1[H])C([H])([H])C([H])([H])C([H])([H])C2([H])N([H])C(=O)C1([H])N(C(=O)C([H])(N([H])C(=O)C([H])(N([H])C([H])([H])[H])C([H])([H])[H])C(C([H])([H])[H])(C([H])([H])[H])C([H])([H])[H])C([H])([H])c2c([H])c(OC([H])([H])C3([H])C([H])([H])N(c4c([H])c(F)c(C([H])([H])N(C(=O)N5C([H])([H])C([H])([H])C([H])([H])C([H])(n6nc(-c7c([H])c([H])c(Oc8c([H])c([H])c(F)c([H])c8F)c([H])c7[H])c(C(=O)N([H])[H])c6N([H])[H])C5([H])[H])C([H])([H])C5([H])C([H])([H])C5([H])[H])c([H])c4F)C([H])([H])C3([H])[H])c([H])c([H])c2C1([H])[H]

$$$$
78:0:0
     RDKit          3D

 89 97  0  0  1  0  0  0  0  0999 V2000
  -28.0740  -20.4070   20.5260 C   0  0  0  0  0  3  0  0  0  0  0  0
  -28.2730  -18.9300   20.5300 C   0  0  0  0  0  3  0  0  0  0  0  0
  -30.4800  -19.1800   19.9680 C   0  0  0  0  0  3  0  0  0  0  0  0
  -29.0690  -21.4300   20.2370 C   0  0  0  0  0  0  0  0  0  0  0  0
  -29.4870  -18.1550   20.2580 C   0  0  0  0  0  0  0  0  0  0  0  0
  -30.2900  -20.6600   19.9610 C   0  0  0  0  0  0  0  0  0  0  0  0
  -31.3920  -21.3920   19.6700 F   0  0  0  0  0  0  0  0  0  0  0  0
  -30.4050  -15.3430   20.0910 C   0  0  0  0  0  0  0  0  0  0  0  0
  -30.3950  -12.9140   19.1770 C   0  0  0  0  0  2  0  0  0  0  0  0
  -29.4220  -12.7350   17.9830 C   0  0  0  0  0  2  0  0  0  0  0  0
  -27.9910  -12.4520   18.4750 C   0  0  0  0  0  2  0  0  0  0  0  0
  -27.5840  -13.3860   19.6420 C   0  0  0  0  0  3  0  0  0  0  0  0
  -28.6780  -13.4980   20.7260 C   0  0  0  0  0  2  0  0  0  0  0  0
  -29.8820  -14.0220   20.0600 N   0  0  0  0  0  0  0  0  0  0  0  0
  -31.6040  -15.4070   19.7830 O   0  0  0  0  0  0  0  0  0  0  0  0
  -29.5530  -16.5350   20.2960 N   0  0  0  0  0  0  0  0  0  0  0  0
  -28.6430  -16.1720   20.5340 H   0  0  0  0  0  0  0  0  0  0  0  0
  -25.2460  -13.9180   20.5100 C   0  0  0  0  0  0  0  0  0  0  0  0
  -24.2030  -13.1280   20.9060 C   0  0  0  0  0  0  0  0  0  0  0  0
  -24.6710  -11.7810   20.8160 C   0  0  0  0  0  0  0  0  0  0  0  0
  -26.2790  -13.0540   20.1970 N   0  0  0  0  0  0  0  0  0  0  0  0
  -25.9490  -11.7600   20.4480 N   0  0  0  0  0  0  0  0  0  0  0  0
  -23.9560  -10.5110   21.0010 C   0  0  0  0  0  0  0  0  0  0  0  0
  -24.4000   -9.5400   21.9250 C   0  0  0  0  0  3  0  0  0  0  0  0
  -23.6820   -8.3360   22.1000 C   0  0  0  0  0  3  0  0  0  0  0  0
  -22.5050   -8.0970   21.3510 C   0  0  0  0  0  0  0  0  0  0  0  0
  -22.0800   -9.0580   20.4170 C   0  0  0  0  0  3  0  0  0  0  0  0
  -22.7990  -10.2520   20.2400 C   0  0  0  0  0  3  0  0  0  0  0  0
  -21.7570   -6.9470   21.4360 O   0  0  0  0  0  0  0  0  0  0  0  0
  -21.6790   -6.2250   22.5990 C   0  0  0  0  0  0  0  0  0  0  0  0
  -21.1750   -6.7860   23.7920 C   0  0  0  0  0  3  0  0  0  0  0  0
  -21.0450   -5.9880   24.9460 C   0  0  0  0  0  3  0  0  0  0  0  0
  -21.4100   -4.6300   24.9080 C   0  0  0  0  0  0  0  0  0  0  0  0
  -21.9070   -4.0670   23.7190 C   0  0  0  0  0  3  0  0  0  0  0  0
  -22.0380   -4.8630   22.5670 C   0  0  0  0  0  0  0  0  0  0  0  0
  -22.4970   -4.3100   21.4190 F   0  0  0  0  0  0  0  0  0  0  0  0
  -21.2790   -3.8600   26.0150 F   0  0  0  0  0  0  0  0  0  0  0  0
  -22.8170  -13.5920   21.2450 C   0  0  0  0  0  0  0  0  0  0  0  0
  -22.1290  -12.8750   22.1260 N   0  0  0  0  0  0  0  0  0  0  0  0
  -22.3560  -14.6280   20.7660 O   0  0  0  0  0  0  0  0  0  0  0  0
  -22.5170  -12.0370   22.5330 H   0  0  0  0  0  0  0  0  0  0  0  0
  -21.2010  -13.1670   22.3960 H   0  0  0  0  0  0  0  0  0  0  0  0
  -25.3930  -15.2950   20.3590 N   0  0  0  0  0  0  0  0  0  0  0  0
  -24.6160  -15.9300   20.5010 H   0  0  0  0  0  0  0  0  0  0  0  0
  -26.1890  -15.7400   19.9230 H   0  0  0  0  0  0  0  0  0  0  0  0
  -29.0130  -23.1860   20.2590 C   0  0  0  0  0  2  0  0  0  0  0  0
  -27.8600  -24.3300   20.2980 N   0  0  0  0  0  0  0  0  0  0  0  0
  -27.3380  -24.2150   21.1630 H   0  0  0  0  0  0  0  0  0  0  0  0
  -28.2380  -25.9820   20.2400 O   0  0  0  0  0  0  0  0  0  0  0  0
  -24.6700  -31.9190   23.2550 C   0  0  0  0  0  0  0  0  0  0  0  0
  -27.1990  -27.0460   20.2330 C   0  0  0  0  0  0  0  0  0  0  0  0
  -23.4620  -30.5270   21.6220 C   0  0  0  0  0  3  0  0  0  0  0  0
  -24.8980  -28.9150   20.1960 C   0  0  0  0  0  0  0  0  0  0  0  0
  -26.0260  -30.7330   21.4640 C   0  0  0  0  0  2  0  0  0  0  0  0
  -26.0870  -29.3220   20.8150 C   0  0  0  0  0  0  0  0  0  0  0  0
  -27.2280  -28.4050   20.8150 C   0  0  0  0  0  3  0  0  0  0  0  0
  -25.9840  -26.7880   19.5610 C   0  0  0  0  0  3  0  0  0  0  0  0
  -24.8690  -27.6670   19.5500 C   0  0  0  0  0  3  0  0  0  0  0  0
  -23.6820  -29.8390   20.2460 C   0  0  0  0  0  2  0  0  0  0  0  0
  -24.7410  -31.0870   22.1670 N   0  0  0  0  0  0  0  0  0  0  0  0
  -23.5840  -32.2140   23.7820 O   0  0  0  0  0  0  0  0  0  0  0  0
  -22.7710  -29.5340   22.5920 C   0  0  0  0  0  0  0  0  0  0  0  0
  -21.4430  -29.3560   22.4590 N   0  0  0  0  0  0  0  0  0  0  0  0
  -23.4360  -28.9220   23.4320 O   0  0  0  0  0  0  0  0  0  0  0  0
  -20.9590  -29.9000   21.7580 H   0  0  0  0  0  0  0  0  0  0  0  0
  -18.0660  -28.1310   22.9630 C   0  0  0  0  0  0  0  0  0  0  0  0
  -20.6230  -28.4190   23.2350 C   0  0  0  0  0  3  0  0  0  0  0  0
  -20.7380  -26.9840   22.6710 C   0  0  0  0  0  2  0  0  0  0  0  0
  -19.6420  -26.6450   21.6550 C   0  0  0  0  0  2  0  0  0  0  0  0
  -18.2570  -26.7800   22.2920 C   0  0  0  0  0  2  0  0  0  0  0  0
  -19.1770  -28.9070   23.3900 C   0  0  0  0  0  0  0  0  0  0  0  0
  -18.9420  -30.1670   23.9800 C   0  0  0  0  0  3  0  0  0  0  0  0
  -17.6320  -30.6540   24.1450 C   0  0  0  0  0  3  0  0  0  0  0  0
  -16.5370  -29.8770   23.7300 C   0  0  0  0  0  3  0  0  0  0  0  0
  -16.7540  -28.6170   23.1450 C   0  0  0  0  0  3  0  0  0  0  0  0
  -25.9470  -32.5580   23.8800 C   0  0  0  0  0  3  0  0  0  0  0  0
  -25.6350  -33.9570   24.2190 N   0  0  0  0  0  0  0  0  0  0  0  0
  -25.9380  -35.0180   23.4580 C   0  0  0  0  0  0  0  0  0  0  0  0
  -26.5710  -34.9220   22.4050 O   0  0  0  0  0  0  0  0  0  0  0  0
  -25.0670  -34.1050   25.0400 H   0  0  0  0  0  0  0  0  0  0  0  0
  -24.1830  -36.8050   23.1930 C   0  0  0  0  0  1  0  0  0  0  0  0
  -25.4660  -36.4050   23.9400 C   0  0  0  0  0  3  0  0  0  0  0  0
  -27.6260  -37.3160   24.6750 C   0  0  0  0  0  1  0  0  0  0  0  0
  -26.4850  -37.4650   23.7750 N   0  0  0  0  0  0  0  0  0  0  0  0
  -26.0780  -38.3840   23.9290 H   0  0  0  0  0  0  0  0  0  0  0  0
  -26.4580  -31.7910   25.1620 C   0  0  1  0  0  0  0  0  0  0  0  0
  -25.3610  -31.5590   26.2290 C   0  0  0  0  0  1  0  0  0  0  0  0
  -27.0410  -30.4100   24.7840 C   0  0  0  0  0  1  0  0  0  0  0  0
  -27.6090  -32.5840   25.8250 C   0  0  0  0  0  1  0  0  0  0  0  0
  1  2  1  0
  3  5  1  0
  4 46  1  0
  4  1  2  0
  5 16  1  0
  5  2  2  0
  6  3  2  0
  6  4  1  0
  7  6  1  0
  8 16  1  0
  9 14  1  0
 10 11  1  0
 10  9  1  0
 12 11  1  0
 12 21  1  0
 12 13  1  0
 14  8  1  0
 14 13  1  0
 15  8  2  0
 16 17  1  0
 18 19  2  0
 19 38  1  0
 20 19  1  0
 20 23  1  0
 21 22  1  0
 21 18  1  0
 22 20  2  0
 23 24  1  0
 24 25  2  0
 26 29  1  0
 26 25  1  0
 27 26  2  0
 28 27  1  0
 28 23  2  0
 29 30  1  0
 30 31  1  0
 31 32  2  0
 33 32  1  0
 33 37  1  0
 34 33  2  0
 35 30  2  0
 35 34  1  0
 36 35  1  0
 38 39  1  0
 39 42  1  0
 39 41  1  0
 40 38  2  0
 43 44  1  0
 43 18  1  0
 45 43  1  0
 46 47  1  0
 47 48  1  0
 49 47  1  0
 50 61  2  0
 51 49  1  0
 51 56  1  0
 52 60  1  0
 52 62  1  0
 53 59  1  0
 53 55  1  0
 54 60  1  0
 55 54  1  0
 56 55  2  0
 57 51  2  0
 58 57  1  0
 58 53  2  0
 59 52  1  0
 60 50  1  0
 62 64  2  0
 63 62  1  0
 65 63  1  0
 66 75  2  0
 66 71  1  0
 67 63  1  0
 67 71  1  0
 68 67  1  0
 69 70  1  0
 69 68  1  0
 70 66  1  0
 71 72  2  0
 72 73  1  0
 74 73  2  0
 75 74  1  0
 76 50  1  0
 76 77  1  0
 76 86  1  0
 77 80  1  0
 78 82  1  0
 78 77  1  0
 79 78  2  0
 82 81  1  0
 84 85  1  0
 84 82  1  0
 84 83  1  0
 86 89  1  1
 86 87  1  0
 88 86  1  0
M  ISO  4   8 100  16 100  47 101  49 101
M  END
>  <TORSDO>  (78) 
F 18

>  <SCORE>  (78) 
-16.095

>  <name>  (78) 
78

>  <ligand_id>  (78) 
78

>  <original_smiles>  (78) 
[H]c1c([H])c([H])c2c(c1[H])C([H])([H])C([H])([H])C([H])([H])C2([H])N([H])C(=O)C1([H])N(C(=O)C([H])(N([H])C(=O)C([H])(N([H])C([H])([H])[H])C([H])([H])[H])C(C([H])([H])[H])(C([H])([H])[H])C([H])([H])[H])C([H])([H])c2c([H])c(ON([H])C([H])([H])c3c([H])c([H])c(N([H])C(=O)N4C([H])([H])C([H])([H])C([H])([H])C([H])(n5nc(-c6c([H])c([H])c(Oc7c([H])c([H])c(F)c([H])c7F)c([H])c6[H])c(C(=O)N([H])[H])c5N([H])[H])C4([H])[H])c([H])c3F)c([H])c([H])c2C1([H])[H]

>  <smiles>  (78) 
[H]c1c([H])c([H])c2c(c1[H])C([H])([H])C([H])([H])C([H])([H])C2([H])N([H])C(=O)C1([H])N(C(=O)C([H])(N([H])C(=O)C([H])(N([H])C([H])([H])[H])C([H])([H])[H])C(C([H])([H])[H])(C([H])([H])[H])C([H])([H])[H])C([H])([H])c2c([H])c(ON([H])C([H])([H])c3c([H])c([H])c(N([H])C(=O)N4C([H])([H])C([H])([H])C([H])([H])C([H])(n5nc(-c6c([H])c([H])c(Oc7c([H])c([H])c(F)c([H])c7F)c([H])c6[H])c(C(=O)N([H])[H])c5N([H])[H])C4([H])[H])c([H])c3F)c([H])c([H])c2C1([H])[H]

$$$$
79:0:0
     RDKit          3D

 90 98  0  0  1  0  0  0  0  0999 V2000
  -30.3900  -20.6520   19.8920 C   0  0  0  0  0  3  0  0  0  0  0  0
  -30.5980  -19.1780   19.9270 C   0  0  0  0  0  3  0  0  0  0  0  0
  -29.1460  -21.4220   20.0120 C   0  0  0  0  0  0  0  0  0  0  0  0
  -29.5790  -18.1560   20.0970 C   0  0  0  0  0  0  0  0  0  0  0  0
  -28.1240  -20.3970   20.1830 C   0  0  0  0  0  0  0  0  0  0  0  0
  -28.3290  -18.9160   20.2160 C   0  0  0  0  0  0  0  0  0  0  0  0
  -26.8530  -20.8380   20.3420 F   0  0  0  0  0  0  0  0  0  0  0  0
  -27.2120  -18.1670   20.3830 F   0  0  0  0  0  0  0  0  0  0  0  0
  -30.4790  -15.3410   19.9290 C   0  0  0  0  0  0  0  0  0  0  0  0
  -30.4440  -12.9060   19.0310 C   0  0  0  0  0  2  0  0  0  0  0  0
  -29.4480  -12.7220   17.8560 C   0  0  0  0  0  2  0  0  0  0  0  0
  -28.0260  -12.4460   18.3780 C   0  0  0  0  0  2  0  0  0  0  0  0
  -27.6440  -13.3890   19.5450 C   0  0  0  0  0  3  0  0  0  0  0  0
  -28.7580  -13.5050   20.6070 C   0  0  0  0  0  2  0  0  0  0  0  0
  -29.9510  -14.0210   19.9170 N   0  0  0  0  0  0  0  0  0  0  0  0
  -31.6720  -15.3970   19.5950 O   0  0  0  0  0  0  0  0  0  0  0  0
  -29.6400  -16.5360   20.1470 N   0  0  0  0  0  0  0  0  0  0  0  0
  -28.7330  -16.1900   20.4190 H   0  0  0  0  0  0  0  0  0  0  0  0
  -25.3260  -13.9330   20.4600 C   0  0  0  0  0  0  0  0  0  0  0  0
  -24.2870  -13.1480   20.8760 C   0  0  0  0  0  0  0  0  0  0  0  0
  -24.7470  -11.7990   20.7790 C   0  0  0  0  0  0  0  0  0  0  0  0
  -26.3490  -13.0630   20.1260 N   0  0  0  0  0  0  0  0  0  0  0  0
  -26.0170  -11.7710   20.3850 N   0  0  0  0  0  0  0  0  0  0  0  0
  -24.0290  -10.5330   20.9790 C   0  0  0  0  0  0  0  0  0  0  0  0
  -24.4850   -9.5610   21.8970 C   0  0  0  0  0  3  0  0  0  0  0  0
  -23.7640   -8.3620   22.0890 C   0  0  0  0  0  3  0  0  0  0  0  0
  -22.5720   -8.1270   21.3620 C   0  0  0  0  0  0  0  0  0  0  0  0
  -22.1360   -9.0880   20.4320 C   0  0  0  0  0  3  0  0  0  0  0  0
  -22.8570  -10.2770   20.2390 C   0  0  0  0  0  3  0  0  0  0  0  0
  -21.8210   -6.9810   21.4620 O   0  0  0  0  0  0  0  0  0  0  0  0
  -21.7670   -6.2570   22.6260 C   0  0  0  0  0  0  0  0  0  0  0  0
  -21.3110   -6.8230   23.8360 C   0  0  0  0  0  3  0  0  0  0  0  0
  -21.2050   -6.0240   24.9910 C   0  0  0  0  0  3  0  0  0  0  0  0
  -21.5440   -4.6600   24.9380 C   0  0  0  0  0  0  0  0  0  0  0  0
  -21.9930   -4.0920   23.7320 C   0  0  0  0  0  3  0  0  0  0  0  0
  -22.1000   -4.8880   22.5790 C   0  0  0  0  0  0  0  0  0  0  0  0
  -22.5130   -4.3310   21.4150 F   0  0  0  0  0  0  0  0  0  0  0  0
  -21.4350   -3.8890   26.0470 F   0  0  0  0  0  0  0  0  0  0  0  0
  -22.9110  -13.6210   21.2440 C   0  0  0  0  0  0  0  0  0  0  0  0
  -22.2380  -12.9080   22.1400 N   0  0  0  0  0  0  0  0  0  0  0  0
  -22.4440  -14.6560   20.7720 O   0  0  0  0  0  0  0  0  0  0  0  0
  -22.6310  -12.0700   22.5420 H   0  0  0  0  0  0  0  0  0  0  0  0
  -21.3170  -13.2060   22.4290 H   0  0  0  0  0  0  0  0  0  0  0  0
  -25.4760  -15.3090   20.3080 N   0  0  0  0  0  0  0  0  0  0  0  0
  -24.7150  -15.9520   20.4900 H   0  0  0  0  0  0  0  0  0  0  0  0
  -26.2830  -15.7620   19.9010 H   0  0  0  0  0  0  0  0  0  0  0  0
  -29.0840  -23.1790   20.0480 C   0  0  0  0  0  2  0  0  0  0  0  0
  -27.9320  -24.3230   19.9500 N   0  0  0  0  0  0  0  0  0  0  0  0
  -27.2850  -24.1760   20.7190 H   0  0  0  0  0  0  0  0  0  0  0  0
  -28.3040  -25.9750   20.0030 O   0  0  0  0  0  0  0  0  0  0  0  0
  -24.6750  -31.7760   23.2060 C   0  0  0  0  0  0  0  0  0  0  0  0
  -27.2600  -27.0360   20.0230 C   0  0  0  0  0  0  0  0  0  0  0  0
  -23.4900  -30.4420   21.5080 C   0  0  0  0  0  3  0  0  0  0  0  0
  -24.9500  -28.8940   20.0350 C   0  0  0  0  0  0  0  0  0  0  0  0
  -26.0550  -30.6660   21.3840 C   0  0  0  0  0  2  0  0  0  0  0  0
  -26.1310  -29.2810   20.6820 C   0  0  0  0  0  0  0  0  0  0  0  0
  -27.2770  -28.3710   20.6570 C   0  0  0  0  0  3  0  0  0  0  0  0
  -26.0530  -26.7980   19.3280 C   0  0  0  0  0  3  0  0  0  0  0  0
  -24.9350  -27.6720   19.3420 C   0  0  0  0  0  3  0  0  0  0  0  0
  -23.7280  -29.8090   20.1080 C   0  0  0  0  0  2  0  0  0  0  0  0
  -24.7610  -30.9870   22.0870 N   0  0  0  0  0  0  0  0  0  0  0  0
  -23.5820  -32.0440   23.7330 O   0  0  0  0  0  0  0  0  0  0  0  0
  -22.7950  -29.4090   22.4320 C   0  0  0  0  0  0  0  0  0  0  0  0
  -21.4670  -29.2460   22.2940 N   0  0  0  0  0  0  0  0  0  0  0  0
  -23.4580  -28.7540   23.2410 O   0  0  0  0  0  0  0  0  0  0  0  0
  -20.9850  -29.8250   21.6200 H   0  0  0  0  0  0  0  0  0  0  0  0
  -18.0790  -28.0350   22.7640 C   0  0  0  0  0  0  0  0  0  0  0  0
  -20.6410  -28.2780   23.0260 C   0  0  0  0  0  3  0  0  0  0  0  0
  -20.7340  -26.8730   22.3850 C   0  0  0  0  0  2  0  0  0  0  0  0
  -19.6240  -26.6030   21.3630 C   0  0  0  0  0  2  0  0  0  0  0  0
  -18.2470  -26.7200   22.0200 C   0  0  0  0  0  2  0  0  0  0  0  0
  -19.2030  -28.7740   23.2220 C   0  0  0  0  0  0  0  0  0  0  0  0
  -18.9890  -30.0040   23.8800 C   0  0  0  0  0  3  0  0  0  0  0  0
  -17.6860  -30.4970   24.0830 C   0  0  0  0  0  3  0  0  0  0  0  0
  -16.5780  -29.7560   23.6380 C   0  0  0  0  0  3  0  0  0  0  0  0
  -16.7750  -28.5260   22.9850 C   0  0  0  0  0  3  0  0  0  0  0  0
  -25.9420  -32.3950   23.8690 C   0  0  0  0  0  3  0  0  0  0  0  0
  -25.6230  -33.7830   24.2490 N   0  0  0  0  0  0  0  0  0  0  0  0
  -25.9330  -34.8680   23.5280 C   0  0  0  0  0  0  0  0  0  0  0  0
  -26.5810  -34.8080   22.4800 O   0  0  0  0  0  0  0  0  0  0  0  0
  -25.0430  -33.9020   25.0680 H   0  0  0  0  0  0  0  0  0  0  0  0
  -24.1710  -36.6550   23.3060 C   0  0  0  0  0  1  0  0  0  0  0  0
  -25.4510  -36.2380   24.0500 C   0  0  0  0  0  3  0  0  0  0  0  0
  -27.6040  -37.1340   24.8230 C   0  0  0  0  0  1  0  0  0  0  0  0
  -26.4670  -37.3070   23.9240 N   0  0  0  0  0  0  0  0  0  0  0  0
  -26.0550  -38.2190   24.1050 H   0  0  0  0  0  0  0  0  0  0  0  0
  -26.4380  -31.5880   25.1310 C   0  0  1  0  0  0  0  0  0  0  0  0
  -25.3310  -31.3210   26.1770 C   0  0  0  0  0  1  0  0  0  0  0  0
  -27.0250  -30.2190   24.7160 C   0  0  0  0  0  1  0  0  0  0  0  0
  -27.5820  -32.3600   25.8320 C   0  0  0  0  0  1  0  0  0  0  0  0
  1  2  2  0
  1  3  1  0
  2  4  1  0
  3 47  1  0
  3  5  2  0
  4 17  1  0
  4  6  2  0
  5  6  1  0
  5  7  1  0
  6  8  1  0
  9 17  1  0
 10 15  1  0
 11 12  1  0
 11 10  1  0
 13 12  1  0
 13 22  1  0
 13 14  1  0
 15  9  1  0
 15 14  1  0
 16  9  2  0
 17 18  1  0
 19 20  2  0
 20 39  1  0
 21 20  1  0
 21 24  1  0
 22 23  1  0
 22 19  1  0
 23 21  2  0
 24 25  1  0
 25 26  2  0
 27 30  1  0
 27 26  1  0
 28 27  2  0
 29 28  1  0
 29 24  2  0
 30 31  1  0
 31 32  1  0
 32 33  2  0
 34 33  1  0
 34 38  1  0
 35 34  2  0
 36 31  2  0
 36 35  1  0
 37 36  1  0
 39 40  1  0
 40 43  1  0
 40 42  1  0
 41 39  2  0
 44 19  1  0
 44 45  1  0
 46 44  1  0
 48 50  1  0
 48 47  1  0
 48 49  1  0
 50 52  1  0
 51 62  2  0
 52 57  1  0
 53 61  1  0
 53 63  1  0
 54 60  1  0
 54 56  1  0
 55 61  1  0
 56 55  1  0
 57 56  2  0
 58 59  1  0
 58 52  2  0
 59 54  2  0
 60 53  1  0
 61 51  1  0
 63 65  2  0
 64 63  1  0
 66 64  1  0
 67 76  2  0
 67 72  1  0
 68 64  1  0
 68 72  1  0
 69 68  1  0
 70 71  1  0
 70 69  1  0
 71 67  1  0
 72 73  2  0
 73 74  1  0
 75 74  2  0
 76 75  1  0
 77 51  1  0
 77 78  1  0
 77 87  1  0
 78 81  1  0
 79 83  1  0
 79 78  1  0
 80 79  2  0
 83 82  1  0
 85 83  1  0
 85 86  1  0
 85 84  1  0
 87 90  1  1
 87 88  1  0
 89 87  1  0
M  ISO  4   9 100  17 100  48 101  50 101
M  END
>  <TORSDO>  (79) 
F 18

>  <SCORE>  (79) 
-15.725

>  <name>  (79) 
79

>  <ligand_id>  (79) 
79

>  <original_smiles>  (79) 
[H]c1c([H])c([H])c2c(c1[H])C([H])([H])C([H])([H])C([H])([H])C2([H])N([H])C(=O)C1([H])N(C(=O)C([H])(N([H])C(=O)C([H])(N([H])C([H])([H])[H])C([H])([H])[H])C(C([H])([H])[H])(C([H])([H])[H])C([H])([H])[H])C([H])([H])c2c([H])c(ON([H])C([H])([H])c3c([H])c([H])c(N([H])C(=O)N4C([H])([H])C([H])([H])C([H])([H])C([H])(n5nc(-c6c([H])c([H])c(Oc7c([H])c([H])c(F)c([H])c7F)c([H])c6[H])c(C(=O)N([H])[H])c5N([H])[H])C4([H])[H])c(F)c3F)c([H])c([H])c2C1([H])[H]

>  <smiles>  (79) 
[H]c1c([H])c([H])c2c(c1[H])C([H])([H])C([H])([H])C([H])([H])C2([H])N([H])C(=O)C1([H])N(C(=O)C([H])(N([H])C(=O)C([H])(N([H])C([H])([H])[H])C([H])([H])[H])C(C([H])([H])[H])(C([H])([H])[H])C([H])([H])[H])C([H])([H])c2c([H])c(ON([H])C([H])([H])c3c([H])c([H])c(N([H])C(=O)N4C([H])([H])C([H])([H])C([H])([H])C([H])(n5nc(-c6c([H])c([H])c(Oc7c([H])c([H])c(F)c([H])c7F)c([H])c6[H])c(C(=O)N([H])[H])c5N([H])[H])C4([H])[H])c(F)c3F)c([H])c([H])c2C1([H])[H]

$$$$
80:0:0
     RDKit          3D

 93101  0  0  1  0  0  0  0  0999 V2000
  -29.4610  -21.1700   20.8000 C   0  0  0  0  0  2  0  0  0  0  0  0
  -29.8200  -19.7550   18.6680 C   0  0  0  0  0  3  0  0  0  0  0  0
  -30.0390  -18.5500   17.9710 C   0  0  0  0  0  3  0  0  0  0  0  0
  -29.6290  -19.7650   20.0660 C   0  0  0  0  0  0  0  0  0  0  0  0
  -29.9500  -17.2220   20.0410 C   0  0  0  0  0  0  0  0  0  0  0  0
  -30.0990  -17.3100   18.6350 C   0  0  0  0  0  0  0  0  0  0  0  0
  -29.6870  -18.4720   20.7370 C   0  0  0  0  0  0  0  0  0  0  0  0
  -30.2590  -16.1910   17.8870 F   0  0  0  0  0  0  0  0  0  0  0  0
  -29.4960  -18.4320   22.0780 F   0  0  0  0  0  0  0  0  0  0  0  0
  -30.7050  -14.7720   20.3350 C   0  0  0  0  0  0  0  0  0  0  0  0
  -30.5080  -12.5110   19.3110 C   0  0  0  0  0  2  0  0  0  0  0  0
  -29.5770  -12.6160   18.0830 C   0  0  0  0  0  2  0  0  0  0  0  0
  -28.1020  -12.4580   18.5010 C   0  0  0  0  0  2  0  0  0  0  0  0
  -27.7320  -13.3290   19.7300 C   0  0  0  0  0  3  0  0  0  0  0  0
  -28.7790  -13.1980   20.8570 C   0  0  0  0  0  2  0  0  0  0  0  0
  -30.0880  -13.5440   20.2870 N   0  0  0  0  0  0  0  0  0  0  0  0
  -31.8800  -14.8870   19.9680 O   0  0  0  0  0  0  0  0  0  0  0  0
  -29.9510  -15.8810   20.6700 N   0  0  0  0  0  0  0  0  0  0  0  0
  -29.1220  -15.6800   21.2070 H   0  0  0  0  0  0  0  0  0  0  0  0
  -25.3320  -13.9310   20.4130 C   0  0  0  0  0  0  0  0  0  0  0  0
  -24.2620  -13.1620   20.7800 C   0  0  0  0  0  0  0  0  0  0  0  0
  -24.7270  -11.8110   20.7750 C   0  0  0  0  0  0  0  0  0  0  0  0
  -26.3790  -13.0500   20.2030 N   0  0  0  0  0  0  0  0  0  0  0  0
  -26.0200  -11.7710   20.4830 N   0  0  0  0  0  0  0  0  0  0  0  0
  -24.0000  -10.5490   20.9750 C   0  0  0  0  0  0  0  0  0  0  0  0
  -24.4220   -9.5940   21.9260 C   0  0  0  0  0  3  0  0  0  0  0  0
  -23.6940   -8.4000   22.1130 C   0  0  0  0  0  3  0  0  0  0  0  0
  -22.5300   -8.1500   21.3490 C   0  0  0  0  0  0  0  0  0  0  0  0
  -22.1260   -9.0940   20.3880 C   0  0  0  0  0  3  0  0  0  0  0  0
  -22.8550  -10.2800   20.2000 C   0  0  0  0  0  3  0  0  0  0  0  0
  -21.7760   -7.0050   21.4440 O   0  0  0  0  0  0  0  0  0  0  0  0
  -21.7100   -6.2800   22.6060 C   0  0  0  0  0  0  0  0  0  0  0  0
  -21.2540   -6.8490   23.8150 C   0  0  0  0  0  3  0  0  0  0  0  0
  -21.1370   -6.0490   24.9690 C   0  0  0  0  0  3  0  0  0  0  0  0
  -21.4670   -4.6830   24.9150 C   0  0  0  0  0  0  0  0  0  0  0  0
  -21.9170   -4.1130   23.7110 C   0  0  0  0  0  3  0  0  0  0  0  0
  -22.0350   -4.9100   22.5590 C   0  0  0  0  0  0  0  0  0  0  0  0
  -22.4490   -4.3510   21.3960 F   0  0  0  0  0  0  0  0  0  0  0  0
  -21.3460   -3.9120   26.0220 F   0  0  0  0  0  0  0  0  0  0  0  0
  -22.8610  -13.6410   21.0280 C   0  0  0  0  0  0  0  0  0  0  0  0
  -22.1260  -12.9600   21.9000 N   0  0  0  0  0  0  0  0  0  0  0  0
  -22.4250  -14.6550   20.4830 O   0  0  0  0  0  0  0  0  0  0  0  0
  -22.4940  -12.1400   22.3610 H   0  0  0  0  0  0  0  0  0  0  0  0
  -21.1870  -13.2630   22.1120 H   0  0  0  0  0  0  0  0  0  0  0  0
  -25.5010  -15.2980   20.2160 N   0  0  0  0  0  0  0  0  0  0  0  0
  -24.7370  -15.9570   20.3110 H   0  0  0  0  0  0  0  0  0  0  0  0
  -26.3530  -15.7250   19.8760 H   0  0  0  0  0  0  0  0  0  0  0  0
  -28.8290  -22.3610   20.0670 N   0  0  0  0  0  4  0  0  0  0  0  0
  -27.8420  -22.1730   20.0110 H   0  0  0  0  0  0  0  0  0  0  0  0
  -29.1790  -22.3490   19.1230 H   0  0  0  0  0  0  0  0  0  0  0  0
  -29.0320  -23.7970   20.5960 C   0  0  0  0  0  3  0  0  0  0  0  0
  -28.1210  -24.9660   19.9570 C   0  0  0  0  0  3  0  0  0  0  0  0
  -28.3200  -26.4230   20.2710 O   0  0  0  0  0  0  0  0  0  0  0  0
  -24.6150  -31.9000   23.2340 C   0  0  0  0  0  0  0  0  0  0  0  0
  -27.2220  -27.3100   20.1860 C   0  0  0  0  0  0  0  0  0  0  0  0
  -23.4130  -30.5000   21.5970 C   0  0  0  0  0  3  0  0  0  0  0  0
  -24.8640  -28.9510   20.1680 C   0  0  0  0  0  0  0  0  0  0  0  0
  -25.9550  -30.8090   21.4170 C   0  0  0  0  0  2  0  0  0  0  0  0
  -26.0330  -29.4280   20.7720 C   0  0  0  0  0  0  0  0  0  0  0  0
  -27.2130  -28.6190   20.7750 C   0  0  0  0  0  3  0  0  0  0  0  0
  -26.0320  -26.9120   19.5310 C   0  0  0  0  0  3  0  0  0  0  0  0
  -24.8680  -27.6990   19.5370 C   0  0  0  0  0  3  0  0  0  0  0  0
  -23.6280  -29.8270   20.2160 C   0  0  0  0  0  2  0  0  0  0  0  0
  -24.6800  -31.0890   22.1380 N   0  0  0  0  0  0  0  0  0  0  0  0
  -23.5310  -32.1780   23.7680 O   0  0  0  0  0  0  0  0  0  0  0  0
  -22.7510  -29.4830   22.5580 C   0  0  0  0  0  0  0  0  0  0  0  0
  -21.4280  -29.2900   22.4210 N   0  0  0  0  0  0  0  0  0  0  0  0
  -23.4280  -28.8690   23.3880 O   0  0  0  0  0  0  0  0  0  0  0  0
  -20.9390  -29.8390   21.7290 H   0  0  0  0  0  0  0  0  0  0  0  0
  -18.0640  -28.0400   22.8850 C   0  0  0  0  0  0  0  0  0  0  0  0
  -20.6130  -28.3500   23.1930 C   0  0  0  0  0  3  0  0  0  0  0  0
  -20.7490  -26.9120   22.6440 C   0  0  0  0  0  2  0  0  0  0  0  0
  -19.6700  -26.5530   21.6160 C   0  0  0  0  0  2  0  0  0  0  0  0
  -18.2760  -26.6840   22.2350 C   0  0  0  0  0  2  0  0  0  0  0  0
  -19.1620  -28.8290   23.3210 C   0  0  0  0  0  0  0  0  0  0  0  0
  -18.9120  -30.0970   23.8900 C   0  0  0  0  0  3  0  0  0  0  0  0
  -17.5960  -30.5770   24.0270 C   0  0  0  0  0  3  0  0  0  0  0  0
  -16.5120  -29.7860   23.6060 C   0  0  0  0  0  3  0  0  0  0  0  0
  -16.7470  -28.5200   23.0420 C   0  0  0  0  0  3  0  0  0  0  0  0
  -25.8970  -32.5380   23.8550 C   0  0  0  0  0  3  0  0  0  0  0  0
  -26.4130  -31.7740   25.1360 C   0  0  1  0  0  0  0  0  0  0  0  0
  -25.3180  -31.5440   26.2040 C   0  0  0  0  0  1  0  0  0  0  0  0
  -26.9960  -30.3930   24.7550 C   0  0  0  0  0  1  0  0  0  0  0  0
  -27.5610  -32.5730   25.7960 C   0  0  0  0  0  1  0  0  0  0  0  0
  -25.5850  -33.9370   24.1780 N   0  0  0  0  0  0  0  0  0  0  0  0
  -25.9170  -34.9890   23.4160 C   0  0  0  0  0  0  0  0  0  0  0  0
  -26.5890  -34.8820   22.3860 O   0  0  0  0  0  0  0  0  0  0  0  0
  -24.9900  -34.0940   24.9780 H   0  0  0  0  0  0  0  0  0  0  0  0
  -24.1940  -36.7840   23.0510 C   0  0  0  0  0  1  0  0  0  0  0  0
  -25.4290  -36.3780   23.8690 C   0  0  0  0  0  3  0  0  0  0  0  0
  -27.5590  -37.2620   24.7120 C   0  0  0  0  0  1  0  0  0  0  0  0
  -26.4630  -37.4300   23.7610 N   0  0  0  0  0  0  0  0  0  0  0  0
  -26.0570  -38.3510   23.9050 H   0  0  0  0  0  0  0  0  0  0  0  0
  2  4  1  0
  3  6  1  0
  3  2  2  0
  4  7  2  0
  4  1  1  0
  5 18  1  0
  5  7  1  0
  6  5  2  0
  7  9  1  0
  8  6  1  0
 10 18  1  0
 11 16  1  0
 12 13  1  0
 12 11  1  0
 14 13  1  0
 14 23  1  0
 14 15  1  0
 16 10  1  0
 16 15  1  0
 17 10  2  0
 18 19  1  0
 20 21  2  0
 21 40  1  0
 22 21  1  0
 22 25  1  0
 23 20  1  0
 23 24  1  0
 24 22  2  0
 25 26  1  0
 26 27  2  0
 28 31  1  0
 28 27  1  0
 29 28  2  0
 30 29  1  0
 30 25  2  0
 31 32  1  0
 32 33  1  0
 33 34  2  0
 35 34  1  0
 35 39  1  0
 36 35  2  0
 37 32  2  0
 37 36  1  0
 38 37  1  0
 40 41  1  0
 41 44  1  0
 41 43  1  0
 42 40  2  0
 45 46  1  0
 45 20  1  0
 47 45  1  0
 48 51  1  0
 48  1  1  0
 49 48  1  0
 50 48  1  0
 52 53  1  0
 52 51  2  0
 54 65  2  0
 55 53  1  0
 55 60  1  0
 56 64  1  0
 56 66  1  0
 57 63  1  0
 57 59  1  0
 58 64  1  0
 59 60  2  0
 59 58  1  0
 61 62  1  0
 61 55  2  0
 62 57  2  0
 63 56  1  0
 64 54  1  0
 66 68  2  0
 67 66  1  0
 69 67  1  0
 70 79  2  0
 70 75  1  0
 71 67  1  0
 71 75  1  0
 72 71  1  0
 73 74  1  0
 73 72  1  0
 74 70  1  0
 75 76  2  0
 76 77  1  0
 78 77  2  0
 79 78  1  0
 80 54  1  0
 80 85  1  0
 80 81  1  0
 81 84  1  1
 81 82  1  0
 83 81  1  0
 85 88  1  0
 86 90  1  0
 86 85  1  0
 87 86  2  0
 90 89  1  0
 92 90  1  0
 92 93  1  0
 92 91  1  0
M  ISO  4  10 100  18 100  52 101  53 101
M  END
>  <TORSDO>  (80) 
F 20

>  <SCORE>  (80) 
-13.065

>  <name>  (80) 
80

>  <ligand_id>  (80) 
80

>  <original_smiles>  (80) 
[H]c1c([H])c([H])c2c(c1[H])C([H])([H])C([H])([H])C([H])([H])C2([H])N([H])C(=O)C1([H])N(C(=O)C([H])(N([H])C(=O)C([H])(N([H])C([H])([H])[H])C([H])([H])[H])C(C([H])([H])[H])(C([H])([H])[H])C([H])([H])[H])C([H])([H])c2c([H])c(OC([H])([H])C([H])([H])[N+]([H])([H])C([H])([H])c3c([H])c([H])c(F)c(N([H])C(=O)N4C([H])([H])C([H])([H])C([H])([H])C([H])(n5nc(-c6c([H])c([H])c(Oc7c([H])c([H])c(F)c([H])c7F)c([H])c6[H])c(C(=O)N([H])[H])c5N([H])[H])C4([H])[H])c3F)c([H])c([H])c2C1([H])[H]

>  <smiles>  (80) 
[H]c1c([H])c([H])c2c(c1[H])C([H])([H])C([H])([H])C([H])([H])C2([H])N([H])C(=O)C1([H])N(C(=O)C([H])(N([H])C(=O)C([H])(N([H])C([H])([H])[H])C([H])([H])[H])C(C([H])([H])[H])(C([H])([H])[H])C([H])([H])[H])C([H])([H])c2c([H])c(OC([H])([H])C([H])([H])[N+]([H])([H])C([H])([H])c3c([H])c([H])c(F)c(N([H])C(=O)N4C([H])([H])C([H])([H])C([H])([H])C([H])(n5nc(-c6c([H])c([H])c(Oc7c([H])c([H])c(F)c([H])c7F)c([H])c6[H])c(C(=O)N([H])[H])c5N([H])[H])C4([H])[H])c3F)c([H])c([H])c2C1([H])[H]

$$$$
81:0:0
     RDKit          3D

 90 98  0  0  1  0  0  0  0  0999 V2000
  -30.9510  -19.6330   20.9550 C   0  0  0  0  0  3  0  0  0  0  0  0
  -31.3290  -20.9630   21.2600 C   0  0  0  0  0  3  0  0  0  0  0  0
  -28.8250  -20.5420   20.2200 C   0  0  0  0  0  3  0  0  0  0  0  0
  -29.6930  -19.3170   20.4060 C   0  0  0  0  0  0  0  0  0  0  0  0
  -29.1770  -21.9720   20.5480 C   0  0  0  0  0  0  0  0  0  0  0  0
  -30.4870  -22.0860   21.0680 C   0  0  0  0  0  0  0  0  0  0  0  0
  -30.9490  -23.3020   21.4440 F   0  0  0  0  0  0  0  0  0  0  0  0
  -29.4990  -17.7360   19.8680 C   0  0  0  0  0  2  0  0  0  0  0  0
  -30.4700  -15.1020   20.2600 C   0  0  0  0  0  0  0  0  0  0  0  0
  -30.3840  -12.7210   19.3480 C   0  0  0  0  0  2  0  0  0  0  0  0
  -29.4450  -12.6600   18.1180 C   0  0  0  0  0  2  0  0  0  0  0  0
  -27.9890  -12.4240   18.5580 C   0  0  0  0  0  2  0  0  0  0  0  0
  -27.5820  -13.3410   19.7400 C   0  0  0  0  0  3  0  0  0  0  0  0
  -28.6440  -13.3710   20.8630 C   0  0  0  0  0  2  0  0  0  0  0  0
  -29.9080  -13.8150   20.2560 N   0  0  0  0  0  0  0  0  0  0  0  0
  -31.6370  -15.1780   19.8570 O   0  0  0  0  0  0  0  0  0  0  0  0
  -29.6980  -16.2850   20.5380 N   0  0  0  0  0  0  0  0  0  0  0  0
  -28.8660  -16.0280   21.0500 H   0  0  0  0  0  0  0  0  0  0  0  0
  -25.2030  -13.8930   20.4950 C   0  0  0  0  0  0  0  0  0  0  0  0
  -24.1490  -13.1080   20.8730 C   0  0  0  0  0  0  0  0  0  0  0  0
  -24.6260  -11.7620   20.8400 C   0  0  0  0  0  0  0  0  0  0  0  0
  -26.2510  -13.0250   20.2470 N   0  0  0  0  0  0  0  0  0  0  0  0
  -25.9150  -11.7370   20.5210 N   0  0  0  0  0  0  0  0  0  0  0  0
  -23.9100  -10.4940   21.0340 C   0  0  0  0  0  0  0  0  0  0  0  0
  -24.3590   -9.5250   21.9590 C   0  0  0  0  0  3  0  0  0  0  0  0
  -23.6410   -8.3240   22.1440 C   0  0  0  0  0  3  0  0  0  0  0  0
  -22.4590   -8.0820   21.4030 C   0  0  0  0  0  0  0  0  0  0  0  0
  -22.0300   -9.0380   20.4660 C   0  0  0  0  0  3  0  0  0  0  0  0
  -22.7490  -10.2310   20.2800 C   0  0  0  0  0  3  0  0  0  0  0  0
  -21.7110   -6.9330   21.4980 O   0  0  0  0  0  0  0  0  0  0  0  0
  -21.6870   -6.1830   22.6460 C   0  0  0  0  0  0  0  0  0  0  0  0
  -21.2840   -6.7290   23.8840 C   0  0  0  0  0  3  0  0  0  0  0  0
  -21.2060   -5.9060   25.0250 C   0  0  0  0  0  3  0  0  0  0  0  0
  -21.5190   -4.5370   24.9300 C   0  0  0  0  0  0  0  0  0  0  0  0
  -21.9150   -3.9900   23.6960 C   0  0  0  0  0  3  0  0  0  0  0  0
  -21.9960   -4.8110   22.5580 C   0  0  0  0  0  0  0  0  0  0  0  0
  -22.3570   -4.2740   21.3670 F   0  0  0  0  0  0  0  0  0  0  0  0
  -21.4370   -3.7430   26.0230 F   0  0  0  0  0  0  0  0  0  0  0  0
  -22.7500  -13.5750   21.1520 C   0  0  0  0  0  0  0  0  0  0  0  0
  -22.0340  -12.8730   22.0230 N   0  0  0  0  0  0  0  0  0  0  0  0
  -22.3020  -14.5960   20.6340 O   0  0  0  0  0  0  0  0  0  0  0  0
  -22.4120  -12.0490   22.4660 H   0  0  0  0  0  0  0  0  0  0  0  0
  -21.0930  -13.1650   22.2500 H   0  0  0  0  0  0  0  0  0  0  0  0
  -25.3540  -15.2650   20.3100 N   0  0  0  0  0  0  0  0  0  0  0  0
  -24.5780  -15.9110   20.4080 H   0  0  0  0  0  0  0  0  0  0  0  0
  -26.1870  -15.7030   19.9370 H   0  0  0  0  0  0  0  0  0  0  0  0
  -28.2540  -23.3830   20.6350 C   0  0  0  0  0  2  0  0  0  0  0  0
  -28.2780  -24.6900   19.7490 N   0  0  0  0  0  0  0  0  0  0  0  0
  -27.4410  -24.6790   19.1740 H   0  0  0  0  0  0  0  0  0  0  0  0
  -28.2820  -26.1570   20.4420 O   0  0  0  0  0  0  0  0  0  0  0  0
  -24.6290  -31.9150   23.2500 C   0  0  0  0  0  0  0  0  0  0  0  0
  -27.2260  -27.1430   20.2670 C   0  0  0  0  0  0  0  0  0  0  0  0
  -23.4380  -30.5020   21.6180 C   0  0  0  0  0  3  0  0  0  0  0  0
  -24.8960  -28.9120   20.2000 C   0  0  0  0  0  0  0  0  0  0  0  0
  -25.9930  -30.7600   21.4630 C   0  0  0  0  0  2  0  0  0  0  0  0
  -26.0690  -29.3600   20.8180 C   0  0  0  0  0  0  0  0  0  0  0  0
  -27.2270  -28.4870   20.8360 C   0  0  0  0  0  3  0  0  0  0  0  0
  -26.0260  -26.8060   19.6010 C   0  0  0  0  0  3  0  0  0  0  0  0
  -24.8910  -27.6540   19.5760 C   0  0  0  0  0  3  0  0  0  0  0  0
  -23.6660  -29.8100   20.2440 C   0  0  0  0  0  2  0  0  0  0  0  0
  -24.7070  -31.0830   22.1650 N   0  0  0  0  0  0  0  0  0  0  0  0
  -23.5410  -32.2040   23.7710 O   0  0  0  0  0  0  0  0  0  0  0  0
  -22.7560  -29.5060   22.5900 C   0  0  0  0  0  0  0  0  0  0  0  0
  -21.4270  -29.3340   22.4640 N   0  0  0  0  0  0  0  0  0  0  0  0
  -23.4260  -28.8880   23.4210 O   0  0  0  0  0  0  0  0  0  0  0  0
  -20.9420  -29.8830   21.7690 H   0  0  0  0  0  0  0  0  0  0  0  0
  -18.0490  -28.1260   22.9660 C   0  0  0  0  0  0  0  0  0  0  0  0
  -20.6050  -28.4030   23.2420 C   0  0  0  0  0  3  0  0  0  0  0  0
  -20.7160  -26.9650   22.6860 C   0  0  0  0  0  2  0  0  0  0  0  0
  -19.6210  -26.6260   21.6700 C   0  0  0  0  0  2  0  0  0  0  0  0
  -18.2350  -26.7700   22.3030 C   0  0  0  0  0  2  0  0  0  0  0  0
  -19.1610  -28.8990   23.3920 C   0  0  0  0  0  0  0  0  0  0  0  0
  -18.9310  -30.1660   23.9720 C   0  0  0  0  0  3  0  0  0  0  0  0
  -17.6230  -30.6590   24.1290 C   0  0  0  0  0  3  0  0  0  0  0  0
  -16.5250  -29.8830   23.7180 C   0  0  0  0  0  3  0  0  0  0  0  0
  -16.7380  -28.6180   23.1420 C   0  0  0  0  0  3  0  0  0  0  0  0
  -25.9040  -32.5610   23.8750 C   0  0  0  0  0  3  0  0  0  0  0  0
  -26.4120  -31.8060   25.1660 C   0  0  1  0  0  0  0  0  0  0  0  0
  -25.3110  -31.5820   26.2300 C   0  0  0  0  0  1  0  0  0  0  0  0
  -26.9970  -30.4230   24.8010 C   0  0  0  0  0  1  0  0  0  0  0  0
  -27.5590  -32.6080   25.8240 C   0  0  0  0  0  1  0  0  0  0  0  0
  -25.5880  -33.9630   24.1980 N   0  0  0  0  0  0  0  0  0  0  0  0
  -25.9180  -35.0150   23.4360 C   0  0  0  0  0  0  0  0  0  0  0  0
  -26.5820  -34.9090   22.4020 O   0  0  0  0  0  0  0  0  0  0  0  0
  -25.0000  -34.1190   25.0020 H   0  0  0  0  0  0  0  0  0  0  0  0
  -24.1800  -36.8040   23.0920 C   0  0  0  0  0  1  0  0  0  0  0  0
  -25.4310  -36.4060   23.8920 C   0  0  0  0  0  3  0  0  0  0  0  0
  -27.5710  -37.3030   24.6950 C   0  0  0  0  0  1  0  0  0  0  0  0
  -26.4590  -37.4630   23.7620 N   0  0  0  0  0  0  0  0  0  0  0  0
  -26.0500  -38.3820   23.9130 H   0  0  0  0  0  0  0  0  0  0  0  0
  1  2  1  0
  3  4  1  0
  3  5  2  0
  4  1  2  0
  5 47  1  0
  5  6  1  0
  6  2  2  0
  6  7  1  0
  8  4  1  0
  8 17  1  0
  9 17  1  0
 10 15  1  0
 11 12  1  0
 11 10  1  0
 13 12  1  0
 13 22  1  0
 13 14  1  0
 15  9  1  0
 15 14  1  0
 16  9  2  0
 17 18  1  0
 19 20  2  0
 20 39  1  0
 21 20  1  0
 21 24  1  0
 22 19  1  0
 22 23  1  0
 23 21  2  0
 24 25  1  0
 25 26  2  0
 27 30  1  0
 27 26  1  0
 28 27  2  0
 29 28  1  0
 29 24  2  0
 30 31  1  0
 31 32  1  0
 32 33  2  0
 34 33  1  0
 34 38  1  0
 35 34  2  0
 36 31  2  0
 36 35  1  0
 37 36  1  0
 39 40  1  0
 40 43  1  0
 40 42  1  0
 41 39  2  0
 44 45  1  0
 44 19  1  0
 46 44  1  0
 48 50  1  0
 48 47  1  0
 49 48  1  0
 51 62  2  0
 52 50  1  0
 52 57  1  0
 53 61  1  0
 53 63  1  0
 54 60  1  0
 54 56  1  0
 55 61  1  0
 56 57  2  0
 56 55  1  0
 58 52  2  0
 59 58  1  0
 59 54  2  0
 60 53  1  0
 61 51  1  0
 63 65  2  0
 64 63  1  0
 66 64  1  0
 67 76  2  0
 67 72  1  0
 68 64  1  0
 68 72  1  0
 69 68  1  0
 70 71  1  0
 70 69  1  0
 71 67  1  0
 72 73  2  0
 73 74  1  0
 75 74  2  0
 76 75  1  0
 77 51  1  0
 77 82  1  0
 77 78  1  0
 78 81  1  1
 78 79  1  0
 80 78  1  0
 82 85  1  0
 83 87  1  0
 83 82  1  0
 84 83  2  0
 87 86  1  0
 89 87  1  0
 89 90  1  0
 89 88  1  0
M  ISO  4   9 100  17 100  48 101  50 101
M  END
>  <TORSDO>  (81) 
F 19

>  <SCORE>  (81) 
-14.322

>  <name>  (81) 
81

>  <ligand_id>  (81) 
81

>  <original_smiles>  (81) 
[H]c1c([H])c([H])c2c(c1[H])C([H])([H])C([H])([H])C([H])([H])C2([H])N([H])C(=O)C1([H])N(C(=O)C([H])(N([H])C(=O)C([H])(N([H])C([H])([H])[H])C([H])([H])[H])C(C([H])([H])[H])(C([H])([H])[H])C([H])([H])[H])C([H])([H])c2c([H])c(ON([H])C([H])([H])c3c([H])c(C([H])([H])N([H])C(=O)N4C([H])([H])C([H])([H])C([H])([H])C([H])(n5nc(-c6c([H])c([H])c(Oc7c([H])c([H])c(F)c([H])c7F)c([H])c6[H])c(C(=O)N([H])[H])c5N([H])[H])C4([H])[H])c([H])c([H])c3F)c([H])c([H])c2C1([H])[H]

>  <smiles>  (81) 
[H]c1c([H])c([H])c2c(c1[H])C([H])([H])C([H])([H])C([H])([H])C2([H])N([H])C(=O)C1([H])N(C(=O)C([H])(N([H])C(=O)C([H])(N([H])C([H])([H])[H])C([H])([H])[H])C(C([H])([H])[H])(C([H])([H])[H])C([H])([H])[H])C([H])([H])c2c([H])c(ON([H])C([H])([H])c3c([H])c(C([H])([H])N([H])C(=O)N4C([H])([H])C([H])([H])C([H])([H])C([H])(n5nc(-c6c([H])c([H])c(Oc7c([H])c([H])c(F)c([H])c7F)c([H])c6[H])c(C(=O)N([H])[H])c5N([H])[H])C4([H])[H])c([H])c([H])c3F)c([H])c([H])c2C1([H])[H]

$$$$
82:0:0
     RDKit          3D

 96 96  0  0  1  0  0  0  0  0999 V2000
  -18.1290  -25.6200   21.0680 C   0  0  0  0  0  3  0  0  0  0  0  0
  -18.5830  -24.0010   21.7210 C   0  0  0  0  0  3  0  0  0  0  0  0
  -21.1700  -24.9160   21.6690 C   0  0  0  0  0 15  0  0  0  0  0  0
  -19.6350  -26.6750   20.8960 C   0  0  0  0  0  3  0  0  0  0  0  0
  -20.0470  -22.9940   21.7370 C   0  0  0  0  0  0  0  0  0  0  0  0
  -21.7310  -23.0080   21.3310 C   0  0  0  0  0  1  0  0  0  0  0  0
  -19.6900  -21.5770   22.1850 C   0  0  1  0  0  0  0  0  0  0  0  0
  -18.3840  -21.3160   22.1190 F   0  0  0  0  0  0  0  0  0  0  0  0
  -20.3090  -20.6790   21.4180 F   0  0  0  0  0  0  0  0  0  0  0  0
  -20.0830  -21.3970   23.4470 F   0  0  0  0  0  0  0  0  0  0  0  0
  -23.6110  -20.8550   20.9500 C   0  0  0  0  0 15  0  0  0  0  0  0
  -27.1180  -17.5220   19.8780 C   0  0  0  0  0  2  0  0  0  0  0  0
  -28.9160  -14.9970   18.6690 C   0  0  0  0  0  2  0  0  0  0  0  0
  -28.7940  -13.5740   17.7850 C   0  0  0  0  0  2  0  0  0  0  0  0
  -27.8250  -12.5570   18.3720 C   0  0  0  0  0  2  0  0  0  0  0  0
  -26.9900  -13.4860   19.2260 C   0  0  0  0  0  3  0  0  0  0  0  0
  -27.6570  -14.4690   20.2540 C   0  0  0  0  0  2  0  0  0  0  0  0
  -27.6670  -15.8520   19.5630 N   0  0  0  0  0  0  0  0  0  0  0  0
  -28.4420  -17.5530   19.5630 O   0  0  0  0  0  1  0  0  0  0  0  0
  -25.5890  -19.0700   20.3170 N   0  0  0  0  0  1  0  0  0  0  0  0
  -26.2810  -19.7970   20.1740 H   0  0  0  0  0  0  0  0  0  0  0  0
  -24.8600  -13.9090   20.2290 C   0  0  0  0  0  0  0  0  0  0  0  0
  -23.9260  -13.1170   20.7710 C   0  0  0  0  0  0  0  0  0  0  0  0
  -24.3950  -11.7760   20.6080 C   0  0  0  0  0  0  0  0  0  0  0  0
  -25.8270  -13.0350   19.8080 N   0  0  0  0  0  0  0  0  0  0  0  0
  -25.6060  -11.7400   20.0760 N   0  0  0  0  0  0  0  0  0  0  0  0
  -23.7110  -10.5250   20.8540 C   0  0  0  0  0  0  0  0  0  0  0  0
  -24.2240   -9.5650   21.7490 C   0  0  0  0  0  3  0  0  0  0  0  0
  -23.5090   -8.3750   21.9820 C   0  0  0  0  0  3  0  0  0  0  0  0
  -22.2770   -8.1520   21.3220 C   0  0  0  0  0  0  0  0  0  0  0  0
  -21.7920   -9.1040   20.4110 C   0  0  0  0  0  3  0  0  0  0  0  0
  -22.5070  -10.2840   20.1740 C   0  0  0  0  0  3  0  0  0  0  0  0
  -21.5180   -7.0220   21.4760 O   0  0  0  0  0  0  0  0  0  0  0  0
  -21.5080   -6.3270   22.6550 C   0  0  0  0  0  0  0  0  0  0  0  0
  -21.1240   -6.9270   23.8740 C   0  0  0  0  0  3  0  0  0  0  0  0
  -21.0620   -6.1520   25.0480 C   0  0  0  0  0  3  0  0  0  0  0  0
  -21.3770   -4.7800   25.0040 C   0  0  0  0  0  0  0  0  0  0  0  0
  -21.7560   -4.1820   23.7890 C   0  0  0  0  0  3  0  0  0  0  0  0
  -21.8200   -4.9550   22.6170 C   0  0  0  0  0  0  0  0  0  0  0  0
  -22.1680   -4.3730   21.4450 F   0  0  0  0  0  0  0  0  0  0  0  0
  -21.3070   -4.0320   26.1290 F   0  0  0  0  0  0  0  0  0  0  0  0
  -22.6260  -13.6170   21.2900 C   0  0  0  0  0  0  0  0  0  0  0  0
  -22.0600  -12.9240   22.2640 N   0  0  0  0  0  0  0  0  0  0  0  0
  -22.1470  -14.6730   20.8760 O   0  0  0  0  0  0  0  0  0  0  0  0
  -22.4810  -12.0760   22.6170 H   0  0  0  0  0  0  0  0  0  0  0  0
  -21.1940  -13.2520   22.6710 H   0  0  0  0  0  0  0  0  0  0  0  0
  -24.9450  -15.2900   20.0450 N   0  0  0  0  0  0  0  0  0  0  0  0
  -24.1110  -15.8580   20.1590 H   0  0  0  0  0  0  0  0  0  0  0  0
  -25.5880  -15.6560   19.3580 H   0  0  0  0  0  0  0  0  0  0  0  0
  -19.8330  -28.6430   21.1570 C   0  0  0  0  0 15  0  0  0  0  0  0
  -20.9130  -29.5370   22.4980 N   0  0  0  0  0  2  0  0  0  0  0  0
  -21.5620  -29.0200   21.8970 H   0  0  0  0  0  0  0  0  0  0  0  0
  -20.1980  -29.1540   23.1110 H   0  0  0  0  0  0  0  0  0  0  0  0
  -22.2430  -28.8950   23.7250 C   0  0  0  0  0 15  0  0  0  0  0  0
  -24.0160  -27.6540   23.5060 C   0  0  0  0  0  1  0  0  0  0  0  0
  -25.4350  -27.0820   22.4600 O   0  0  0  0  0  0  0  0  0  0  0  0
  -24.6690  -32.1640   22.9560 C   0  0  0  0  0  0  0  0  0  0  0  0
  -26.3490  -27.5010   21.4060 C   0  0  0  0  0  3  0  0  0  0  0  0
  -23.9330  -31.0040   20.7650 C   0  0  0  0  0  3  0  0  0  0  0  0
  -25.6040  -29.3940   19.7550 C   0  0  0  0  0  3  0  0  0  0  0  0
  -26.3820  -31.1240   21.4430 C   0  0  0  0  0  2  0  0  0  0  0  0
  -26.4520  -29.7260   20.8330 C   0  0  0  0  0  3  0  0  0  0  0  0
  -27.0560  -28.6940   21.5540 C   0  0  0  0  0  2  0  0  0  0  0  0
  -26.0900  -27.0620   20.0840 C   0  0  0  0  0  2  0  0  0  0  0  0
  -25.5720  -28.0700   19.2550 C   0  0  0  0  0  2  0  0  0  0  0  0
  -24.5330  -30.4360   19.4530 C   0  0  0  0  0  2  0  0  0  0  0  0
  -25.0030  -31.6190   21.7150 N   0  0  0  0  0  0  0  0  0  0  0  0
  -23.4850  -32.3830   23.2640 O   0  0  0  0  0  0  0  0  0  0  0  0
  -23.4900  -29.7300   21.3940 C   0  0  0  0  0  0  0  0  0  0  0  0
  -22.5860  -28.7630   21.0200 N   0  0  0  0  0  0  0  0  0  0  0  0
  -24.1190  -29.6100   22.3670 O   0  0  0  0  0  0  0  0  0  0  0  0
  -22.4310  -28.7770   20.0170 H   0  0  0  0  0  0  0  0  0  0  0  0
  -18.8010  -26.8080   22.4480 C   0  0  2  0  0  0  0  0  0  0  0  0
  -21.6800  -27.5680   21.7730 C   0  0  0  0  0  2  0  0  0  0  0  0
  -21.9050  -27.0980   20.1470 C   0  0  0  0  0  2  0  0  0  0  0  0
  -20.8310  -26.7790   18.9240 C   0  0  0  0  0  2  0  0  0  0  0  0
  -19.4450  -26.0390   19.3360 C   0  0  0  0  0  2  0  0  0  0  0  0
  -20.0100  -27.6530   23.0370 C   0  0  0  0  0  2  0  0  0  0  0  0
  -19.5890  -28.8500   24.0330 C   0  0  0  0  0  2  0  0  0  0  0  0
  -18.6300  -29.9450   23.8720 C   0  0  0  0  0  2  0  0  0  0  0  0
  -17.5490  -29.4410   23.1630 C   0  0  0  0  0  2  0  0  0  0  0  0
  -17.6390  -27.9860   22.7560 C   0  0  0  0  0  2  0  0  0  0  0  0
  -25.7460  -32.4790   24.0570 C   0  0  0  0  0  3  0  0  0  0  0  0
  -25.4670  -33.8480   24.4700 N   0  0  0  0  0  0  0  0  0  0  0  0
  -26.0230  -34.9040   23.8750 C   0  0  0  0  0  0  0  0  0  0  0  0
  -26.8840  -34.8030   22.9960 O   0  0  0  0  0  0  0  0  0  0  0  0
  -24.7210  -33.9950   25.1340 H   0  0  0  0  0  0  0  0  0  0  0  0
  -24.5470  -36.8430   23.3010 C   0  0  0  0  0  1  0  0  0  0  0  0
  -25.5470  -36.2890   24.3260 C   0  0  0  0  0  3  0  0  0  0  0  0
  -27.5180  -36.9160   25.6450 C   0  0  0  0  0  1  0  0  0  0  0  0
  -26.6540  -37.2460   24.5140 N   0  0  0  0  0  0  0  0  0  0  0  0
  -26.2940  -38.1870   24.6470 H   0  0  0  0  0  0  0  0  0  0  0  0
  -25.8370  -31.5470   25.3440 C   0  0  1  0  0  0  0  0  0  0  0  0
  -24.5110  -31.3510   26.1120 C   0  0  0  0  0  1  0  0  0  0  0  0
  -26.4070  -30.1600   24.9840 C   0  0  0  0  0  1  0  0  0  0  0  0
  -26.8500  -32.1650   26.3400 C   0  0  0  0  0  1  0  0  0  0  0  0
  1  2  1  0
  1 73  1  0
  2  5  2  0
  4 77  1  0
  4  1  1  0
  4 73  1  0
  5  7  1  0
  6  5  1  0
  7 10  1  1
  8  7  1  0
  9  7  1  0
 13 18  1  0
 14 15  1  0
 14 13  1  0
 16 15  1  0
 16 25  1  0
 16 17  1  0
 18 12  1  0
 18 17  1  0
 19 12  1  0
 21 20  1  0
 22 23  2  0
 23 42  1  0
 24 23  1  0
 24 27  1  0
 25 26  1  0
 25 22  1  0
 26 24  2  0
 27 28  1  0
 28 29  2  0
 30 33  1  0
 30 29  1  0
 31 30  2  0
 32 31  1  0
 32 27  2  0
 33 34  1  0
 34 35  1  0
 35 36  2  0
 37 36  1  0
 37 41  1  0
 38 37  2  0
 39 34  2  0
 39 38  1  0
 40 39  1  0
 42 43  1  0
 43 45  1  0
 43 46  1  0
 44 42  2  0
 47 48  1  0
 47 22  1  0
 49 47  1  0
 51 53  1  0
 52 51  1  0
 56 55  1  0
 57 68  2  0
 58 63  1  0
 58 56  1  0
 59 69  1  0
 59 67  1  0
 60 65  1  0
 60 62  1  0
 61 67  1  0
 62 61  1  0
 62 63  1  0
 64 58  1  0
 65 64  1  0
 66 60  1  0
 66 59  1  0
 67 57  1  0
 69 71  2  0
 70 69  1  0
 70 74  1  0
 72 70  1  0
 73 82  1  6
 73 78  1  0
 75 74  1  0
 76 77  1  0
 76 75  1  0
 78 79  1  0
 80 79  1  0
 81 80  1  0
 82 81  1  0
 83 57  1  0
 83 84  1  0
 83 93  1  0
 84 87  1  0
 85 89  1  0
 85 84  1  0
 86 85  2  0
 89 88  1  0
 89 91  1  0
 91 92  1  0
 91 90  1  0
 93 94  1  1
 93 96  1  0
 95 93  1  0
M  ISO  4  12 100  20 100  55 101  56 101
M  END
>  <TORSDO>  (82) 
F 22

>  <SCORE>  (82) 
1.735

>  <name>  (82) 
82

>  <ligand_id>  (82) 
82

>  <original_smiles>  (82) 
[H]c1c([H])c([H])c2c(c1[H])C([H])([H])C([H])([H])C([H])([H])C2([H])N([H])C(=O)C1([H])N(C(=O)C([H])(N([H])C(=O)C([H])(N([H])C([H])([H])[H])C([H])([H])[H])C(C([H])([H])[H])(C([H])([H])[H])C([H])([H])[H])C([H])([H])c2c([H])c(OC([H])([H])C([H])([H])[N+]([H])([H])C([H])([H])c3c([H])c([H])c(C(F)(F)F)c(C([H])([H])N([H])C(=O)N4C([H])([H])C([H])([H])C([H])([H])C([H])(n5nc(-c6c([H])c([H])c(Oc7c([H])c([H])c(F)c([H])c7F)c([H])c6[H])c(C(=O)N([H])[H])c5N([H])[H])C4([H])[H])c3[H])c([H])c([H])c2C1([H])[H]

>  <smiles>  (82) 
[H]c1c([H])c([H])c2c(c1[H])C([H])([H])C([H])([H])C([H])([H])C2([H])N([H])C(=O)C1([H])N(C(=O)C([H])(N([H])C(=O)C([H])(N([H])C([H])([H])[H])C([H])([H])[H])C(C([H])([H])[H])(C([H])([H])[H])C([H])([H])[H])C([H])([H])c2c([H])c(OC([H])([H])C([H])([H])[N+]([H])([H])C([H])([H])c3c([H])c([H])c(C(F)(F)F)c(C([H])([H])N([H])C(=O)N4C([H])([H])C([H])([H])C([H])([H])C([H])(n5nc(-c6c([H])c([H])c(Oc7c([H])c([H])c(F)c([H])c7F)c([H])c6[H])c(C(=O)N([H])[H])c5N([H])[H])C4([H])[H])c3[H])c([H])c([H])c2C1([H])[H]

$$$$
83:0:0
     RDKit          3D

 93101  0  0  1  0  0  0  0  0999 V2000
  -27.9590  -21.5830   20.1260 C   0  0  0  0  0  2  0  0  0  0  0  0
  -30.1080  -20.7280   19.0680 C   0  0  0  0  0  3  0  0  0  0  0  0
  -30.9530  -19.6910   18.6410 C   0  0  0  0  0  3  0  0  0  0  0  0
  -28.7200  -19.0840   20.2130 C   0  0  0  0  0  3  0  0  0  0  0  0
  -28.9650  -20.4420   19.8400 C   0  0  0  0  0  0  0  0  0  0  0  0
  -29.5620  -18.0130   19.7740 C   0  0  0  0  0  0  0  0  0  0  0  0
  -30.6710  -18.3480   18.9530 C   0  0  0  0  0  0  0  0  0  0  0  0
  -31.6690  -17.1470   18.2230 Cl  0  0  0  0  0  0  0  0  0  0  0  0
  -29.1890  -16.5280   20.0600 C   0  0  0  0  0  2  0  0  0  0  0  0
  -30.7190  -14.5760   20.4380 C   0  0  0  0  0  0  0  0  0  0  0  0
  -30.4100  -12.3710   19.3640 C   0  0  0  0  0  2  0  0  0  0  0  0
  -29.4910  -12.5060   18.1340 C   0  0  0  0  0  2  0  0  0  0  0  0
  -28.0160  -12.3610   18.5510 C   0  0  0  0  0  2  0  0  0  0  0  0
  -27.6460  -13.2540   19.7650 C   0  0  0  0  0  3  0  0  0  0  0  0
  -28.6880  -13.1360   20.8980 C   0  0  0  0  0  2  0  0  0  0  0  0
  -30.0100  -13.4170   20.3210 N   0  0  0  0  0  0  0  0  0  0  0  0
  -31.9000  -14.6370   20.0930 O   0  0  0  0  0  0  0  0  0  0  0  0
  -30.7280  -16.4420   21.9890 C   0  0  0  0  0  1  0  0  0  0  0  0
  -30.0810  -15.6870   20.9130 N   0  0  0  0  0  0  0  0  0  0  0  0
  -25.2500  -13.8780   20.4470 C   0  0  0  0  0  0  0  0  0  0  0  0
  -24.1760  -13.1160   20.8140 C   0  0  0  0  0  0  0  0  0  0  0  0
  -24.6330  -11.7620   20.8110 C   0  0  0  0  0  0  0  0  0  0  0  0
  -26.2930  -12.9890   20.2400 N   0  0  0  0  0  0  0  0  0  0  0  0
  -25.9270  -11.7120   20.5220 N   0  0  0  0  0  0  0  0  0  0  0  0
  -23.9000  -10.5050   21.0080 C   0  0  0  0  0  0  0  0  0  0  0  0
  -24.3190   -9.5480   21.9570 C   0  0  0  0  0  3  0  0  0  0  0  0
  -23.5860   -8.3560   22.1410 C   0  0  0  0  0  3  0  0  0  0  0  0
  -22.4210   -8.1120   21.3750 C   0  0  0  0  0  0  0  0  0  0  0  0
  -22.0240   -9.0580   20.4130 C   0  0  0  0  0  3  0  0  0  0  0  0
  -22.7560  -10.2430   20.2280 C   0  0  0  0  0  3  0  0  0  0  0  0
  -21.6610   -6.9720   21.4680 O   0  0  0  0  0  0  0  0  0  0  0  0
  -21.6010   -6.2410   22.6270 C   0  0  0  0  0  0  0  0  0  0  0  0
  -21.1610   -6.8070   23.8430 C   0  0  0  0  0  3  0  0  0  0  0  0
  -21.0480   -6.0010   24.9950 C   0  0  0  0  0  3  0  0  0  0  0  0
  -21.3650   -4.6310   24.9300 C   0  0  0  0  0  0  0  0  0  0  0  0
  -21.7970   -4.0650   23.7170 C   0  0  0  0  0  3  0  0  0  0  0  0
  -21.9110   -4.8680   22.5690 C   0  0  0  0  0  0  0  0  0  0  0  0
  -22.3080   -4.3120   21.3980 F   0  0  0  0  0  0  0  0  0  0  0  0
  -21.2480   -3.8550   26.0320 F   0  0  0  0  0  0  0  0  0  0  0  0
  -22.7760  -13.6020   21.0570 C   0  0  0  0  0  0  0  0  0  0  0  0
  -22.0310  -12.9190   21.9170 N   0  0  0  0  0  0  0  0  0  0  0  0
  -22.3520  -14.6230   20.5170 O   0  0  0  0  0  0  0  0  0  0  0  0
  -22.3870  -12.0920   22.3750 H   0  0  0  0  0  0  0  0  0  0  0  0
  -21.0900  -13.2250   22.1220 H   0  0  0  0  0  0  0  0  0  0  0  0
  -25.4200  -15.2450   20.2460 N   0  0  0  0  0  0  0  0  0  0  0  0
  -24.6480  -15.8980   20.3210 H   0  0  0  0  0  0  0  0  0  0  0  0
  -26.2650  -15.6690   19.8860 H   0  0  0  0  0  0  0  0  0  0  0  0
  -28.5360  -22.8410   20.6900 N   0  0  0  0  0  4  0  0  0  0  0  0
  -29.5400  -22.7650   20.6690 H   0  0  0  0  0  0  0  0  0  0  0  0
  -28.2700  -22.8620   21.6610 H   0  0  0  0  0  0  0  0  0  0  0  0
  -28.1150  -24.1270   20.0280 C   0  0  0  0  0  2  0  0  0  0  0  0
  -28.3770  -25.4110   20.8830 C   0  0  0  0  0  2  0  0  0  0  0  0
  -28.3860  -26.6770   20.1740 O   0  0  0  0  0  0  0  0  0  0  0  0
  -24.5830  -31.9110   23.2280 C   0  0  0  0  0  0  0  0  0  0  0  0
  -27.2250  -27.4250   20.1920 C   0  0  0  0  0  0  0  0  0  0  0  0
  -23.3830  -30.5060   21.5860 C   0  0  0  0  0  3  0  0  0  0  0  0
  -24.8400  -28.9560   20.1740 C   0  0  0  0  0  0  0  0  0  0  0  0
  -25.9120  -30.8540   21.3980 C   0  0  0  0  0  2  0  0  0  0  0  0
  -25.9990  -29.4770   20.7650 C   0  0  0  0  0  0  0  0  0  0  0  0
  -27.1960  -28.7220   20.7640 C   0  0  0  0  0  3  0  0  0  0  0  0
  -26.0510  -26.9230   19.5930 C   0  0  0  0  0  3  0  0  0  0  0  0
  -24.8640  -27.6800   19.5840 C   0  0  0  0  0  3  0  0  0  0  0  0
  -23.5980  -29.8200   20.2100 C   0  0  0  0  0  2  0  0  0  0  0  0
  -24.6440  -31.1060   22.1300 N   0  0  0  0  0  0  0  0  0  0  0  0
  -23.5000  -32.1870   23.7630 O   0  0  0  0  0  0  0  0  0  0  0  0
  -22.7260  -29.4890   22.5480 C   0  0  0  0  0  0  0  0  0  0  0  0
  -21.4000  -29.3130   22.4200 N   0  0  0  0  0  0  0  0  0  0  0  0
  -23.4070  -28.8610   23.3630 O   0  0  0  0  0  0  0  0  0  0  0  0
  -20.9130  -29.8720   21.7340 H   0  0  0  0  0  0  0  0  0  0  0  0
  -18.0170  -28.1500   22.9280 C   0  0  0  0  0  0  0  0  0  0  0  0
  -20.5790  -28.3790   23.1910 C   0  0  0  0  0  3  0  0  0  0  0  0
  -20.6640  -26.9510   22.6050 C   0  0  0  0  0  2  0  0  0  0  0  0
  -19.5540  -26.6450   21.5950 C   0  0  0  0  0  2  0  0  0  0  0  0
  -18.1760  -26.8010   22.2460 C   0  0  0  0  0  2  0  0  0  0  0  0
  -19.1460  -28.8970   23.3580 C   0  0  0  0  0  0  0  0  0  0  0  0
  -18.9440  -30.1590   23.9560 C   0  0  0  0  0  3  0  0  0  0  0  0
  -17.6460  -30.6740   24.1290 C   0  0  0  0  0  3  0  0  0  0  0  0
  -16.5310  -29.9230   23.7190 C   0  0  0  0  0  3  0  0  0  0  0  0
  -16.7180  -28.6620   23.1230 C   0  0  0  0  0  3  0  0  0  0  0  0
  -25.8680  -32.5430   23.8520 C   0  0  0  0  0  3  0  0  0  0  0  0
  -25.5610  -33.9430   24.1720 N   0  0  0  0  0  0  0  0  0  0  0  0
  -25.9020  -34.9900   23.4090 C   0  0  0  0  0  0  0  0  0  0  0  0
  -26.5800  -34.8770   22.3830 O   0  0  0  0  0  0  0  0  0  0  0  0
  -24.9610  -34.1040   24.9680 H   0  0  0  0  0  0  0  0  0  0  0  0
  -24.1860  -36.7870   23.0250 C   0  0  0  0  0  1  0  0  0  0  0  0
  -25.4150  -36.3820   23.8550 C   0  0  0  0  0  3  0  0  0  0  0  0
  -27.5410  -37.2620   24.7100 C   0  0  0  0  0  1  0  0  0  0  0  0
  -26.4530  -37.4290   23.7500 N   0  0  0  0  0  0  0  0  0  0  0  0
  -26.0490  -38.3520   23.8860 H   0  0  0  0  0  0  0  0  0  0  0  0
  -26.3770  -31.7760   25.1350 C   0  0  1  0  0  0  0  0  0  0  0  0
  -25.2790  -31.5460   26.1980 C   0  0  0  0  0  1  0  0  0  0  0  0
  -26.9600  -30.3970   24.7480 C   0  0  0  0  0  1  0  0  0  0  0  0
  -27.5260  -32.5720   25.7980 C   0  0  0  0  0  1  0  0  0  0  0  0
  1 48  1  0
  2  5  1  0
  3  7  1  0
  3  2  2  0
  5  1  1  0
  5  4  2  0
  6  9  1  0
  6  4  1  0
  7  6  2  0
  8  7  1  0
  9 19  1  0
 10 19  1  0
 11 16  1  0
 12 13  1  0
 12 11  1  0
 14 13  1  0
 14 23  1  0
 14 15  1  0
 16 10  1  0
 16 15  1  0
 17 10  2  0
 19 18  1  0
 20 21  2  0
 21 40  1  0
 22 21  1  0
 22 25  1  0
 23 20  1  0
 23 24  1  0
 24 22  2  0
 25 26  1  0
 26 27  2  0
 28 31  1  0
 28 27  1  0
 29 28  2  0
 30 29  1  0
 30 25  2  0
 31 32  1  0
 32 33  1  0
 33 34  2  0
 35 34  1  0
 35 39  1  0
 36 35  2  0
 37 32  2  0
 37 36  1  0
 38 37  1  0
 40 41  1  0
 41 44  1  0
 41 43  1  0
 42 40  2  0
 45 46  1  0
 45 20  1  0
 47 45  1  0
 48 50  1  0
 49 48  1  0
 51 48  1  0
 51 52  1  0
 53 55  1  0
 53 52  1  0
 54 65  2  0
 55 60  1  0
 56 64  1  0
 56 66  1  0
 57 63  1  0
 57 59  1  0
 58 64  1  0
 59 58  1  0
 60 59  2  0
 61 55  2  0
 62 61  1  0
 62 57  2  0
 63 56  1  0
 64 54  1  0
 66 68  2  0
 67 66  1  0
 69 67  1  0
 70 79  2  0
 70 75  1  0
 71 67  1  0
 71 75  1  0
 72 71  1  0
 73 74  1  0
 73 72  1  0
 74 70  1  0
 75 76  2  0
 76 77  1  0
 78 77  2  0
 79 78  1  0
 80 54  1  0
 80 81  1  0
 80 90  1  0
 81 84  1  0
 82 86  1  0
 82 81  1  0
 83 82  2  0
 86 85  1  0
 88 86  1  0
 88 89  1  0
 88 87  1  0
 90 93  1  1
 90 91  1  0
 92 90  1  0
M  ISO  4  10 100  19 100  52 101  53 101
M  END
>  <TORSDO>  (83) 
F 21

>  <SCORE>  (83) 
-13.728

>  <name>  (83) 
83

>  <ligand_id>  (83) 
83

>  <original_smiles>  (83) 
[H]c1c([H])c([H])c2c(c1[H])C([H])([H])C([H])([H])C([H])([H])C2([H])N([H])C(=O)C1([H])N(C(=O)C([H])(N([H])C(=O)C([H])(N([H])C([H])([H])[H])C([H])([H])[H])C(C([H])([H])[H])(C([H])([H])[H])C([H])([H])[H])C([H])([H])c2c([H])c(OC([H])([H])C([H])([H])[N+]([H])([H])C([H])([H])c3c([H])c([H])c(Cl)c(C([H])([H])N(C(=O)N4C([H])([H])C([H])([H])C([H])([H])C([H])(n5nc(-c6c([H])c([H])c(Oc7c([H])c([H])c(F)c([H])c7F)c([H])c6[H])c(C(=O)N([H])[H])c5N([H])[H])C4([H])[H])C([H])([H])[H])c3[H])c([H])c([H])c2C1([H])[H]

>  <smiles>  (83) 
[H]c1c([H])c([H])c2c(c1[H])C([H])([H])C([H])([H])C([H])([H])C2([H])N([H])C(=O)C1([H])N(C(=O)C([H])(N([H])C(=O)C([H])(N([H])C([H])([H])[H])C([H])([H])[H])C(C([H])([H])[H])(C([H])([H])[H])C([H])([H])[H])C([H])([H])c2c([H])c(OC([H])([H])C([H])([H])[N+]([H])([H])C([H])([H])c3c([H])c([H])c(Cl)c(C([H])([H])N(C(=O)N4C([H])([H])C([H])([H])C([H])([H])C([H])(n5nc(-c6c([H])c([H])c(Oc7c([H])c([H])c(F)c([H])c7F)c([H])c6[H])c(C(=O)N([H])[H])c5N([H])[H])C4([H])[H])C([H])([H])[H])c3[H])c([H])c([H])c2C1([H])[H]

$$$$
84:0:0
     RDKit          3D

 92100  0  0  1  0  0  0  0  0999 V2000
  -29.7930  -21.6260   20.7590 C   0  0  0  0  0  2  0  0  0  0  0  0
  -31.0730  -19.3510   20.4490 C   0  0  0  0  0  3  0  0  0  0  0  0
  -31.1350  -17.9210   20.4350 C   0  0  0  0  0  3  0  0  0  0  0  0
  -28.6710  -19.2710   20.4520 C   0  0  0  0  0  3  0  0  0  0  0  0
  -29.8410  -20.0710   20.4880 C   0  0  0  0  0  0  0  0  0  0  0  0
  -29.9490  -17.1420   20.4530 C   0  0  0  0  0  0  0  0  0  0  0  0
  -28.7270  -17.8540   20.4260 C   0  0  0  0  0  0  0  0  0  0  0  0
  -27.5700  -17.1500   20.3980 F   0  0  0  0  0  0  0  0  0  0  0  0
  -30.6430  -14.6630   20.1690 C   0  0  0  0  0  0  0  0  0  0  0  0
  -30.3670  -12.4740   19.0340 C   0  0  0  0  0  2  0  0  0  0  0  0
  -29.3730  -12.6450   17.8650 C   0  0  0  0  0  2  0  0  0  0  0  0
  -27.9180  -12.4880   18.3470 C   0  0  0  0  0  2  0  0  0  0  0  0
  -27.6110  -13.3210   19.6200 C   0  0  0  0  0  3  0  0  0  0  0  0
  -28.7100  -13.1170   20.6900 C   0  0  0  0  0  2  0  0  0  0  0  0
  -30.0080  -13.4530   20.0770 N   0  0  0  0  0  0  0  0  0  0  0  0
  -31.7920  -14.8330   19.7550 O   0  0  0  0  0  0  0  0  0  0  0  0
  -29.8500  -15.6950   20.5690 N   0  0  0  0  0  0  0  0  0  0  0  0
  -28.9330  -15.3860   20.8550 H   0  0  0  0  0  0  0  0  0  0  0  0
  -25.2310  -13.9140   20.3950 C   0  0  0  0  0  0  0  0  0  0  0  0
  -24.1760  -13.1390   20.7890 C   0  0  0  0  0  0  0  0  0  0  0  0
  -24.6450  -11.7880   20.7510 C   0  0  0  0  0  0  0  0  0  0  0  0
  -26.2750  -13.0390   20.1400 N   0  0  0  0  0  0  0  0  0  0  0  0
  -25.9290  -11.7550   20.4130 N   0  0  0  0  0  0  0  0  0  0  0  0
  -23.9300  -10.5240   20.9570 C   0  0  0  0  0  0  0  0  0  0  0  0
  -24.3800   -9.5630   21.8900 C   0  0  0  0  0  3  0  0  0  0  0  0
  -23.6620   -8.3630   22.0830 C   0  0  0  0  0  3  0  0  0  0  0  0
  -22.4800   -8.1130   21.3450 C   0  0  0  0  0  0  0  0  0  0  0  0
  -22.0500   -9.0630   20.4010 C   0  0  0  0  0  3  0  0  0  0  0  0
  -22.7690  -10.2540   20.2050 C   0  0  0  0  0  3  0  0  0  0  0  0
  -21.7340   -6.9650   21.4500 O   0  0  0  0  0  0  0  0  0  0  0  0
  -21.6980   -6.2320   22.6110 C   0  0  0  0  0  0  0  0  0  0  0  0
  -21.2640   -6.7930   23.8320 C   0  0  0  0  0  3  0  0  0  0  0  0
  -21.1770   -5.9880   24.9860 C   0  0  0  0  0  3  0  0  0  0  0  0
  -21.5140   -4.6230   24.9190 C   0  0  0  0  0  0  0  0  0  0  0  0
  -21.9390   -4.0610   23.7040 C   0  0  0  0  0  3  0  0  0  0  0  0
  -22.0300   -4.8630   22.5520 C   0  0  0  0  0  0  0  0  0  0  0  0
  -22.4190   -4.3120   21.3780 F   0  0  0  0  0  0  0  0  0  0  0  0
  -21.4240   -3.8470   26.0250 F   0  0  0  0  0  0  0  0  0  0  0  0
  -22.7830  -13.6080   21.0910 C   0  0  0  0  0  0  0  0  0  0  0  0
  -22.0740  -12.9070   21.9690 N   0  0  0  0  0  0  0  0  0  0  0  0
  -22.3280  -14.6330   20.5820 O   0  0  0  0  0  0  0  0  0  0  0  0
  -22.4450  -12.0720   22.3990 H   0  0  0  0  0  0  0  0  0  0  0  0
  -21.1420  -13.2080   22.2160 H   0  0  0  0  0  0  0  0  0  0  0  0
  -25.3850  -15.2860   20.2110 N   0  0  0  0  0  0  0  0  0  0  0  0
  -24.6440  -15.9500   20.4030 H   0  0  0  0  0  0  0  0  0  0  0  0
  -26.2520  -15.7460   19.9570 H   0  0  0  0  0  0  0  0  0  0  0  0
  -27.7910  -22.2460   19.3380 C   0  0  0  0  0  1  0  0  0  0  0  0
  -29.1750  -22.6090   19.7680 N   0  0  1  0  0  4  0  0  0  0  0  0
  -29.7260  -22.4830   18.9300 H   0  0  0  0  0  0  0  0  0  0  0  0
  -29.3710  -24.0880   20.1420 C   0  0  0  0  0  3  0  0  0  0  0  0
  -28.1710  -25.1060   19.9120 C   0  0  0  0  0  3  0  0  0  0  0  0
  -28.3600  -26.5430   20.2090 O   0  0  0  0  0  0  0  0  0  0  0  0
  -24.6040  -31.9100   23.2360 C   0  0  0  0  0  0  0  0  0  0  0  0
  -27.2310  -27.3740   20.1690 C   0  0  0  0  0  0  0  0  0  0  0  0
  -23.4040  -30.5140   21.5920 C   0  0  0  0  0  3  0  0  0  0  0  0
  -24.8580  -28.9760   20.1660 C   0  0  0  0  0  0  0  0  0  0  0  0
  -25.9420  -30.8450   21.4070 C   0  0  0  0  0  2  0  0  0  0  0  0
  -26.0290  -29.4640   20.7630 C   0  0  0  0  0  0  0  0  0  0  0  0
  -27.2160  -28.6760   20.7580 C   0  0  0  0  0  3  0  0  0  0  0  0
  -26.0340  -26.9370   19.5550 C   0  0  0  0  0  3  0  0  0  0  0  0
  -24.8630  -27.7160   19.5550 C   0  0  0  0  0  3  0  0  0  0  0  0
  -23.6230  -29.8490   20.2080 C   0  0  0  0  0  2  0  0  0  0  0  0
  -24.6700  -31.1040   22.1350 N   0  0  0  0  0  0  0  0  0  0  0  0
  -23.5190  -32.1800   23.7730 O   0  0  0  0  0  0  0  0  0  0  0  0
  -22.7440  -29.4890   22.5450 C   0  0  0  0  0  0  0  0  0  0  0  0
  -21.4150  -29.3170   22.4250 N   0  0  0  0  0  0  0  0  0  0  0  0
  -23.4240  -28.8460   23.3480 O   0  0  0  0  0  0  0  0  0  0  0  0
  -20.9300  -29.8830   21.7430 H   0  0  0  0  0  0  0  0  0  0  0  0
  -18.0270  -28.1490   22.9310 C   0  0  0  0  0  0  0  0  0  0  0  0
  -20.5910  -28.3810   23.1900 C   0  0  0  0  0  3  0  0  0  0  0  0
  -20.6790  -26.9540   22.6030 C   0  0  0  0  0  2  0  0  0  0  0  0
  -19.5680  -26.6480   21.5920 C   0  0  0  0  0  2  0  0  0  0  0  0
  -18.1890  -26.8010   22.2450 C   0  0  0  0  0  2  0  0  0  0  0  0
  -19.1570  -28.8960   23.3610 C   0  0  0  0  0  0  0  0  0  0  0  0
  -18.9560  -30.1550   23.9650 C   0  0  0  0  0  3  0  0  0  0  0  0
  -17.6600  -30.6720   24.1420 C   0  0  0  0  0  3  0  0  0  0  0  0
  -16.5450  -29.9220   23.7340 C   0  0  0  0  0  3  0  0  0  0  0  0
  -16.7270  -28.6640   23.1310 C   0  0  0  0  0  3  0  0  0  0  0  0
  -25.8870  -32.5440   23.8570 C   0  0  0  0  0  3  0  0  0  0  0  0
  -26.3970  -31.7740   25.1360 C   0  0  1  0  0  0  0  0  0  0  0  0
  -25.2980  -31.5380   26.1990 C   0  0  0  0  0  1  0  0  0  0  0  0
  -26.9780  -30.3960   24.7420 C   0  0  0  0  0  1  0  0  0  0  0  0
  -27.5410  -32.5700   25.8040 C   0  0  0  0  0  1  0  0  0  0  0  0
  -25.5770  -33.9420   24.1820 N   0  0  0  0  0  0  0  0  0  0  0  0
  -25.9130  -34.9920   23.4190 C   0  0  0  0  0  0  0  0  0  0  0  0
  -26.5880  -34.8860   22.3910 O   0  0  0  0  0  0  0  0  0  0  0  0
  -24.9710  -34.0930   24.9750 H   0  0  0  0  0  0  0  0  0  0  0  0
  -24.1910  -36.7900   23.0490 C   0  0  0  0  0  1  0  0  0  0  0  0
  -25.4240  -36.3820   23.8700 C   0  0  0  0  0  3  0  0  0  0  0  0
  -27.5540  -37.2640   24.7170 C   0  0  0  0  0  1  0  0  0  0  0  0
  -26.4580  -37.4340   23.7660 N   0  0  0  0  0  0  0  0  0  0  0  0
  -26.0500  -38.3540   23.9140 H   0  0  0  0  0  0  0  0  0  0  0  0
  2  5  1  0
  3  2  2  0
  3  6  1  0
  4  5  2  0
  5  1  1  0
  6 17  1  0
  7  4  1  0
  7  6  2  0
  8  7  1  0
  9 17  1  0
 10 15  1  0
 11 12  1  0
 11 10  1  0
 13 12  1  0
 13 22  1  0
 13 14  1  0
 15  9  1  0
 15 14  1  0
 16  9  2  0
 17 18  1  0
 19 20  2  0
 20 39  1  0
 21 20  1  0
 21 24  1  0
 22 19  1  0
 22 23  1  0
 23 21  2  0
 24 25  1  0
 25 26  2  0
 27 30  1  0
 27 26  1  0
 28 27  2  0
 29 28  1  0
 29 24  2  0
 30 31  1  0
 31 32  1  0
 32 33  2  0
 34 33  1  0
 34 38  1  0
 35 34  2  0
 36 31  2  0
 36 35  1  0
 37 36  1  0
 39 40  1  0
 40 43  1  0
 40 42  1  0
 41 39  2  0
 44 19  1  0
 44 45  1  0
 46 44  1  0
 47 48  1  0
 48 50  1  0
 48  1  1  0
 48 49  1  6
 51 50  2  0
 51 52  1  0
 53 64  2  0
 54 52  1  0
 54 59  1  0
 55 63  1  0
 55 65  1  0
 56 62  1  0
 56 58  1  0
 57 63  1  0
 58 57  1  0
 59 58  2  0
 60 54  2  0
 61 60  1  0
 61 56  2  0
 62 55  1  0
 63 53  1  0
 65 67  2  0
 66 65  1  0
 68 66  1  0
 69 78  2  0
 69 74  1  0
 70 66  1  0
 70 74  1  0
 71 70  1  0
 72 73  1  0
 72 71  1  0
 73 69  1  0
 74 75  2  0
 75 76  1  0
 77 76  2  0
 78 77  1  0
 79 53  1  0
 79 84  1  0
 79 80  1  0
 80 83  1  1
 80 81  1  0
 82 80  1  0
 84 87  1  0
 85 89  1  0
 85 84  1  0
 86 85  2  0
 89 88  1  0
 91 89  1  0
 91 92  1  0
 91 90  1  0
M  ISO  4   9 100  17 100  51 101  52 101
M  END
>  <TORSDO>  (84) 
F 20

>  <SCORE>  (84) 
-14.124

>  <name>  (84) 
84

>  <ligand_id>  (84) 
84

>  <original_smiles>  (84) 
[H]c1c([H])c([H])c2c(c1[H])C([H])([H])C([H])([H])C([H])([H])C2([H])N([H])C(=O)C1([H])N(C(=O)C([H])(N([H])C(=O)C([H])(N([H])C([H])([H])[H])C([H])([H])[H])C(C([H])([H])[H])(C([H])([H])[H])C([H])([H])[H])C([H])([H])c2c([H])c(OC([H])([H])C([H])([H])[N+]([H])(C([H])([H])[H])C([H])([H])c3c([H])c([H])c(N([H])C(=O)N4C([H])([H])C([H])([H])C([H])([H])C([H])(n5nc(-c6c([H])c([H])c(Oc7c([H])c([H])c(F)c([H])c7F)c([H])c6[H])c(C(=O)N([H])[H])c5N([H])[H])C4([H])[H])c(F)c3[H])c([H])c([H])c2C1([H])[H]

>  <smiles>  (84) 
[H]c1c([H])c([H])c2c(c1[H])C([H])([H])C([H])([H])C([H])([H])C2([H])N([H])C(=O)C1([H])N(C(=O)C([H])(N([H])C(=O)C([H])(N([H])C([H])([H])[H])C([H])([H])[H])C(C([H])([H])[H])(C([H])([H])[H])C([H])([H])[H])C([H])([H])c2c([H])c(OC([H])([H])C([H])([H])[N+]([H])(C([H])([H])[H])C([H])([H])c3c([H])c([H])c(N([H])C(=O)N4C([H])([H])C([H])([H])C([H])([H])C([H])(n5nc(-c6c([H])c([H])c(Oc7c([H])c([H])c(F)c([H])c7F)c([H])c6[H])c(C(=O)N([H])[H])c5N([H])[H])C4([H])[H])c(F)c3[H])c([H])c([H])c2C1([H])[H]

$$$$
85:0:0
     RDKit          3D

 87 95  0  0  1  0  0  0  0  0999 V2000
  -30.3860  -15.5470   20.3520 C   0  0  0  0  0  0  0  0  0  0  0  0
  -30.3430  -13.0650   19.4560 C   0  0  0  0  0  2  0  0  0  0  0  0
  -29.4450  -12.7280   18.2390 C   0  0  0  0  0  2  0  0  0  0  0  0
  -28.0130  -12.4120   18.6930 C   0  0  0  0  0  2  0  0  0  0  0  0
  -27.5290  -13.4050   19.7770 C   0  0  0  0  0  3  0  0  0  0  0  0
  -28.5680  -13.6760   20.8890 C   0  0  0  0  0  2  0  0  0  0  0  0
  -29.7540  -14.2500   20.2180 N   0  0  0  0  0  0  0  0  0  0  0  0
  -31.6170  -15.3840   20.2610 O   0  0  0  0  0  0  0  0  0  0  0  0
  -28.5030  -17.7940   20.2440 C   0  0  0  0  0  2  0  0  0  0  0  0
  -30.6200  -18.2500   20.9480 C   0  0  0  0  0  2  0  0  0  0  0  0
  -28.2620  -19.5000   19.9520 C   0  0  0  0  0  2  0  0  0  0  0  0
  -30.4320  -19.8990   20.5310 C   0  0  0  0  0  3  0  0  0  0  0  0
  -31.1230  -20.1240   19.1690 C   0  0  0  0  0  1  0  0  0  0  0  0
  -29.8410  -16.9930   20.4410 N   0  0  0  0  0  0  0  0  0  0  0  0
  -29.0760  -20.6890   20.5930 N   0  0  1  0  0  4  0  0  0  0  0  0
  -28.8220  -20.6830   21.5710 H   0  0  0  0  0  0  0  0  0  0  0  0
  -25.1660  -13.9450   20.5320 C   0  0  0  0  0  0  0  0  0  0  0  0
  -24.1040  -13.1660   20.8910 C   0  0  0  0  0  0  0  0  0  0  0  0
  -24.5740  -11.8170   20.8670 C   0  0  0  0  0  0  0  0  0  0  0  0
  -26.2110  -13.0740   20.2960 N   0  0  0  0  0  0  0  0  0  0  0  0
  -25.8700  -11.7860   20.5670 N   0  0  0  0  0  0  0  0  0  0  0  0
  -23.8460  -10.5540   21.0510 C   0  0  0  0  0  0  0  0  0  0  0  0
  -24.2690   -9.5850   21.9860 C   0  0  0  0  0  3  0  0  0  0  0  0
  -23.5370   -8.3910   22.1620 C   0  0  0  0  0  3  0  0  0  0  0  0
  -22.3670   -8.1560   21.4000 C   0  0  0  0  0  0  0  0  0  0  0  0
  -21.9630   -9.1140   20.4530 C   0  0  0  0  0  3  0  0  0  0  0  0
  -22.6960  -10.2990   20.2770 C   0  0  0  0  0  3  0  0  0  0  0  0
  -21.6080   -7.0140   21.4850 O   0  0  0  0  0  0  0  0  0  0  0  0
  -21.5500   -6.2710   22.6370 C   0  0  0  0  0  0  0  0  0  0  0  0
  -21.1220   -6.8270   23.8620 C   0  0  0  0  0  3  0  0  0  0  0  0
  -21.0110   -6.0110   25.0050 C   0  0  0  0  0  3  0  0  0  0  0  0
  -21.3190   -4.6400   24.9240 C   0  0  0  0  0  0  0  0  0  0  0  0
  -21.7410   -4.0830   23.7040 C   0  0  0  0  0  3  0  0  0  0  0  0
  -21.8520   -4.8970   22.5630 C   0  0  0  0  0  0  0  0  0  0  0  0
  -22.2390   -4.3500   21.3850 F   0  0  0  0  0  0  0  0  0  0  0  0
  -21.2060   -3.8540   26.0210 F   0  0  0  0  0  0  0  0  0  0  0  0
  -22.7030  -13.6430   21.1390 C   0  0  0  0  0  0  0  0  0  0  0  0
  -21.9660  -12.9550   22.0050 N   0  0  0  0  0  0  0  0  0  0  0  0
  -22.2710  -14.6620   20.6020 O   0  0  0  0  0  0  0  0  0  0  0  0
  -22.3300  -12.1310   22.4610 H   0  0  0  0  0  0  0  0  0  0  0  0
  -21.0260  -13.2580   22.2150 H   0  0  0  0  0  0  0  0  0  0  0  0
  -25.3270  -15.3160   20.3530 N   0  0  0  0  0  0  0  0  0  0  0  0
  -24.5580  -15.9690   20.4590 H   0  0  0  0  0  0  0  0  0  0  0  0
  -26.1790  -15.7530   20.0290 H   0  0  0  0  0  0  0  0  0  0  0  0
  -29.0330  -22.3840   20.1560 C   0  0  0  0  0  3  0  0  0  0  0  0
  -28.0790  -23.9670   20.5590 C   0  0  0  0  0  3  0  0  0  0  0  0
  -28.2540  -25.6820   20.4000 O   0  0  0  0  0  0  0  0  0  0  0  0
  -24.6660  -31.8880   23.2370 C   0  0  0  0  0  0  0  0  0  0  0  0
  -27.2490  -26.8370   20.3610 C   0  0  0  0  0  0  0  0  0  0  0  0
  -23.4970  -30.4560   21.6160 C   0  0  0  0  0  3  0  0  0  0  0  0
  -24.9640  -28.8040   20.2470 C   0  0  0  0  0  0  0  0  0  0  0  0
  -26.0720  -30.6340   21.5040 C   0  0  0  0  0  2  0  0  0  0  0  0
  -26.1510  -29.1970   20.8770 C   0  0  0  0  0  0  0  0  0  0  0  0
  -27.2840  -28.2400   20.8980 C   0  0  0  0  0  3  0  0  0  0  0  0
  -26.0260  -26.6310   19.6780 C   0  0  0  0  0  3  0  0  0  0  0  0
  -24.9360  -27.5450   19.6240 C   0  0  0  0  0  3  0  0  0  0  0  0
  -23.7500  -29.7400   20.2590 C   0  0  0  0  0  2  0  0  0  0  0  0
  -24.7680  -31.0250   22.1710 N   0  0  0  0  0  0  0  0  0  0  0  0
  -23.5690  -32.1880   23.7360 O   0  0  0  0  0  0  0  0  0  0  0  0
  -22.7850  -29.4860   22.5960 C   0  0  0  0  0  0  0  0  0  0  0  0
  -21.4550  -29.3250   22.4650 N   0  0  0  0  0  0  0  0  0  0  0  0
  -23.4400  -28.8770   23.4450 O   0  0  0  0  0  0  0  0  0  0  0  0
  -20.9770  -29.8660   21.7590 H   0  0  0  0  0  0  0  0  0  0  0  0
  -18.0670  -28.1160   22.9760 C   0  0  0  0  0  0  0  0  0  0  0  0
  -20.6250  -28.3990   23.2480 C   0  0  0  0  0  3  0  0  0  0  0  0
  -20.7340  -26.9560   22.6990 C   0  0  0  0  0  2  0  0  0  0  0  0
  -19.6400  -26.6120   21.6840 C   0  0  0  0  0  2  0  0  0  0  0  0
  -18.2540  -26.7590   22.3180 C   0  0  0  0  0  2  0  0  0  0  0  0
  -19.1810  -28.8930   23.3980 C   0  0  0  0  0  0  0  0  0  0  0  0
  -18.9480  -30.1580   23.9770 C   0  0  0  0  0  3  0  0  0  0  0  0
  -17.6390  -30.6500   24.1360 C   0  0  0  0  0  3  0  0  0  0  0  0
  -16.5410  -29.8730   23.7280 C   0  0  0  0  0  3  0  0  0  0  0  0
  -16.7560  -28.6070   23.1540 C   0  0  0  0  0  3  0  0  0  0  0  0
  -25.9220  -32.5540   23.8750 C   0  0  0  0  0  3  0  0  0  0  0  0
  -25.5880  -33.9560   24.1910 N   0  0  0  0  0  0  0  0  0  0  0  0
  -25.9150  -35.0150   23.4380 C   0  0  0  0  0  0  0  0  0  0  0  0
  -26.5890  -34.9150   22.4100 O   0  0  0  0  0  0  0  0  0  0  0  0
  -24.9870  -34.1050   24.9880 H   0  0  0  0  0  0  0  0  0  0  0  0
  -24.1710  -36.8000   23.0920 C   0  0  0  0  0  1  0  0  0  0  0  0
  -25.4200  -36.4040   23.8950 C   0  0  0  0  0  3  0  0  0  0  0  0
  -27.5520  -37.3150   24.7090 C   0  0  0  0  0  1  0  0  0  0  0  0
  -26.4420  -37.4660   23.7700 N   0  0  0  0  0  0  0  0  0  0  0  0
  -26.0290  -38.3830   23.9130 H   0  0  0  0  0  0  0  0  0  0  0  0
  -26.4190  -31.8140   25.1800 C   0  0  1  0  0  0  0  0  0  0  0  0
  -25.3090  -31.5980   26.2360 C   0  0  0  0  0  1  0  0  0  0  0  0
  -27.0130  -30.4290   24.8400 C   0  0  0  0  0  1  0  0  0  0  0  0
  -27.5560  -32.6270   25.8420 C   0  0  0  0  0  1  0  0  0  0  0  0
  1 14  1  0
  2  7  1  0
  3  4  1  0
  3  2  1  0
  5  4  1  0
  5 20  1  0
  5  6  1  0
  7  1  1  0
  7  6  1  0
  8  1  2  0
  9 14  1  0
 11  9  1  0
 11 15  1  0
 12 13  1  0
 12 15  1  0
 12 10  1  0
 14 10  1  0
 15 16  1  1
 17 18  2  0
 18 37  1  0
 19 18  1  0
 19 22  1  0
 20 17  1  0
 20 21  1  0
 21 19  2  0
 22 23  1  0
 23 24  2  0
 25 28  1  0
 25 24  1  0
 26 25  2  0
 27 26  1  0
 27 22  2  0
 28 29  1  0
 29 30  1  0
 30 31  2  0
 32 31  1  0
 32 36  1  0
 33 32  2  0
 34 29  2  0
 34 33  1  0
 35 34  1  0
 37 38  1  0
 38 41  1  0
 38 40  1  0
 39 37  2  0
 42 43  1  0
 42 17  1  0
 44 42  1  0
 45 46  2  0
 45 15  1  0
 47 46  1  0
 48 59  2  0
 49 47  1  0
 49 54  1  0
 50 58  1  0
 50 60  1  0
 51 57  1  0
 51 53  1  0
 52 58  1  0
 53 54  2  0
 53 52  1  0
 55 49  2  0
 56 55  1  0
 56 51  2  0
 57 50  1  0
 58 48  1  0
 60 62  2  0
 61 60  1  0
 63 61  1  0
 64 73  2  0
 64 69  1  0
 65 61  1  0
 65 69  1  0
 66 65  1  0
 67 68  1  0
 67 66  1  0
 68 64  1  0
 69 70  2  0
 70 71  1  0
 72 71  2  0
 73 72  1  0
 74 48  1  0
 74 75  1  0
 74 84  1  0
 75 78  1  0
 76 80  1  0
 76 75  1  0
 77 76  2  0
 80 79  1  0
 82 80  1  0
 82 83  1  0
 82 81  1  0
 84 87  1  1
 84 85  1  0
 86 84  1  0
M  ISO  4   1 100  14 100  46 101  47 101
M  END
>  <TORSDO>  (85) 
F 17

>  <SCORE>  (85) 
-16.707

>  <name>  (85) 
85

>  <ligand_id>  (85) 
85

>  <original_smiles>  (85) 
[H]c1c([H])c([H])c2c(c1[H])C([H])([H])C([H])([H])C([H])([H])C2([H])N([H])C(=O)C1([H])N(C(=O)C([H])(N([H])C(=O)C([H])(N([H])C([H])([H])[H])C([H])([H])[H])C(C([H])([H])[H])(C([H])([H])[H])C([H])([H])[H])C([H])([H])c2c([H])c(OC([H])([H])C([H])([H])[N+]3([H])C([H])([H])C([H])([H])N(C(=O)N4C([H])([H])C([H])([H])C([H])([H])C([H])(n5nc(-c6c([H])c([H])c(Oc7c([H])c([H])c(F)c([H])c7F)c([H])c6[H])c(C(=O)N([H])[H])c5N([H])[H])C4([H])[H])C([H])([H])C3([H])C([H])([H])[H])c([H])c([H])c2C1([H])[H]

>  <smiles>  (85) 
[H]c1c([H])c([H])c2c(c1[H])C([H])([H])C([H])([H])C([H])([H])C2([H])N([H])C(=O)C1([H])N(C(=O)C([H])(N([H])C(=O)C([H])(N([H])C([H])([H])[H])C([H])([H])[H])C(C([H])([H])[H])(C([H])([H])[H])C([H])([H])[H])C([H])([H])c2c([H])c(OC([H])([H])C([H])([H])[N+]3([H])C([H])([H])C([H])([H])N(C(=O)N4C([H])([H])C([H])([H])C([H])([H])C([H])(n5nc(-c6c([H])c([H])c(Oc7c([H])c([H])c(F)c([H])c7F)c([H])c6[H])c(C(=O)N([H])[H])c5N([H])[H])C4([H])[H])C([H])([H])C3([H])C([H])([H])[H])c([H])c([H])c2C1([H])[H]

$$$$
86:0:0
     RDKit          3D

 91 99  0  0  1  0  0  0  0  0999 V2000
  -30.2610  -21.0110   21.1210 C   0  0  0  0  0  3  0  0  0  0  0  0
  -28.8280  -18.7600   20.2490 C   0  0  0  0  0  3  0  0  0  0  0  0
  -30.7390  -19.6850   21.3820 C   0  0  0  0  0  0  0  0  0  0  0  0
  -30.0380  -18.5140   20.9440 C   0  0  0  0  0  0  0  0  0  0  0  0
  -29.0620  -21.2520   20.4050 C   0  0  0  0  0  0  0  0  0  0  0  0
  -28.3620  -20.0830   19.9830 C   0  0  0  0  0  0  0  0  0  0  0  0
  -32.0390  -19.5550   22.1640 C   0  0  0  0  0  1  0  0  0  0  0  0
  -27.2030  -20.2330   19.2960 F   0  0  0  0  0  0  0  0  0  0  0  0
  -30.6160  -17.0730   21.2520 C   0  0  0  0  0  2  0  0  0  0  0  0
  -30.6510  -14.6540   20.4450 C   0  0  0  0  0  0  0  0  0  0  0  0
  -30.3710  -12.4270   19.3600 C   0  0  0  0  0  2  0  0  0  0  0  0
  -29.4430  -12.5600   18.1330 C   0  0  0  0  0  2  0  0  0  0  0  0
  -27.9680  -12.4240   18.5540 C   0  0  0  0  0  2  0  0  0  0  0  0
  -27.6120  -13.2940   19.7900 C   0  0  0  0  0  3  0  0  0  0  0  0
  -28.6610  -13.1510   20.9130 C   0  0  0  0  0  2  0  0  0  0  0  0
  -29.9690  -13.4690   20.3310 N   0  0  0  0  0  0  0  0  0  0  0  0
  -31.8180  -14.7410   20.0580 O   0  0  0  0  0  0  0  0  0  0  0  0
  -29.9720  -15.7690   20.8670 N   0  0  0  0  0  0  0  0  0  0  0  0
  -29.0060  -15.6380   21.1240 H   0  0  0  0  0  0  0  0  0  0  0  0
  -25.2200  -13.9110   20.4850 C   0  0  0  0  0  0  0  0  0  0  0  0
  -24.1420  -13.1460   20.8450 C   0  0  0  0  0  0  0  0  0  0  0  0
  -24.5970  -11.7910   20.8250 C   0  0  0  0  0  0  0  0  0  0  0  0
  -26.2590  -13.0220   20.2650 N   0  0  0  0  0  0  0  0  0  0  0  0
  -25.8910  -11.7420   20.5300 N   0  0  0  0  0  0  0  0  0  0  0  0
  -23.8610  -10.5340   21.0140 C   0  0  0  0  0  0  0  0  0  0  0  0
  -24.2810   -9.5670   21.9520 C   0  0  0  0  0  3  0  0  0  0  0  0
  -23.5450   -8.3750   22.1300 C   0  0  0  0  0  3  0  0  0  0  0  0
  -22.3760   -8.1440   21.3700 C   0  0  0  0  0  0  0  0  0  0  0  0
  -21.9740   -9.1000   20.4180 C   0  0  0  0  0  3  0  0  0  0  0  0
  -22.7110  -10.2820   20.2390 C   0  0  0  0  0  3  0  0  0  0  0  0
  -21.6120   -7.0050   21.4570 O   0  0  0  0  0  0  0  0  0  0  0  0
  -21.5450   -6.2700   22.6130 C   0  0  0  0  0  0  0  0  0  0  0  0
  -21.1040   -6.8310   23.8310 C   0  0  0  0  0  3  0  0  0  0  0  0
  -20.9870   -6.0220   24.9780 C   0  0  0  0  0  3  0  0  0  0  0  0
  -21.2970   -4.6510   24.9080 C   0  0  0  0  0  0  0  0  0  0  0  0
  -21.7280   -4.0870   23.6940 C   0  0  0  0  0  3  0  0  0  0  0  0
  -21.8490   -4.8950   22.5490 C   0  0  0  0  0  0  0  0  0  0  0  0
  -22.2460   -4.3430   21.3770 F   0  0  0  0  0  0  0  0  0  0  0  0
  -21.1760   -3.8700   26.0070 F   0  0  0  0  0  0  0  0  0  0  0  0
  -22.7470  -13.6340   21.1000 C   0  0  0  0  0  0  0  0  0  0  0  0
  -22.0070  -12.9450   21.9630 N   0  0  0  0  0  0  0  0  0  0  0  0
  -22.3210  -14.6600   20.5710 O   0  0  0  0  0  0  0  0  0  0  0  0
  -22.3670  -12.1150   22.4080 H   0  0  0  0  0  0  0  0  0  0  0  0
  -21.0680  -13.2520   22.1780 H   0  0  0  0  0  0  0  0  0  0  0  0
  -25.3950  -15.2790   20.3060 N   0  0  0  0  0  0  0  0  0  0  0  0
  -24.6330  -15.9380   20.4220 H   0  0  0  0  0  0  0  0  0  0  0  0
  -26.2480  -15.7160   19.9820 H   0  0  0  0  0  0  0  0  0  0  0  0
  -28.5200  -22.5230   20.0880 O   0  0  0  0  0  0  0  0  0  0  0  0
  -29.0860  -23.8310   20.4600 C   0  0  0  0  0  2  0  0  0  0  0  0
  -28.1840  -25.0340   19.9010 C   0  0  0  0  0  2  0  0  0  0  0  0
  -28.3690  -26.4740   20.2520 O   0  0  0  0  0  0  0  0  0  0  0  0
  -24.6180  -31.8850   23.2360 C   0  0  0  0  0  0  0  0  0  0  0  0
  -27.2550  -27.3380   20.1700 C   0  0  0  0  0  0  0  0  0  0  0  0
  -23.4220  -30.4870   21.5900 C   0  0  0  0  0  3  0  0  0  0  0  0
  -24.8800  -28.9490   20.1570 C   0  0  0  0  0  0  0  0  0  0  0  0
  -25.9600  -30.8120   21.4130 C   0  0  0  0  0  2  0  0  0  0  0  0
  -26.0450  -29.4350   20.7640 C   0  0  0  0  0  0  0  0  0  0  0  0
  -27.2320  -28.6400   20.7640 C   0  0  0  0  0  3  0  0  0  0  0  0
  -26.0690  -26.9240   19.5160 C   0  0  0  0  0  3  0  0  0  0  0  0
  -24.8970  -27.7000   19.5190 C   0  0  0  0  0  3  0  0  0  0  0  0
  -23.6390  -29.8160   20.2080 C   0  0  0  0  0  2  0  0  0  0  0  0
  -24.6860  -31.0810   22.1350 N   0  0  0  0  0  0  0  0  0  0  0  0
  -23.5320  -32.1580   23.7690 O   0  0  0  0  0  0  0  0  0  0  0  0
  -22.7600  -29.4670   22.5480 C   0  0  0  0  0  0  0  0  0  0  0  0
  -21.4340  -29.2910   22.4220 N   0  0  0  0  0  0  0  0  0  0  0  0
  -23.4400  -28.8380   23.3640 O   0  0  0  0  0  0  0  0  0  0  0  0
  -20.9460  -29.8540   21.7410 H   0  0  0  0  0  0  0  0  0  0  0  0
  -18.0540  -28.1000   22.9350 C   0  0  0  0  0  0  0  0  0  0  0  0
  -20.6160  -28.3500   23.1900 C   0  0  0  0  0  3  0  0  0  0  0  0
  -20.7070  -26.9230   22.6030 C   0  0  0  0  0  2  0  0  0  0  0  0
  -19.5980  -26.6110   21.5930 C   0  0  0  0  0  2  0  0  0  0  0  0
  -18.2220  -26.7560   22.2470 C   0  0  0  0  0  2  0  0  0  0  0  0
  -19.1790  -28.8560   23.3640 C   0  0  0  0  0  0  0  0  0  0  0  0
  -18.9680  -30.1130   23.9690 C   0  0  0  0  0  3  0  0  0  0  0  0
  -17.6660  -30.6170   24.1510 C   0  0  0  0  0  3  0  0  0  0  0  0
  -16.5560  -29.8580   23.7370 C   0  0  0  0  0  3  0  0  0  0  0  0
  -16.7510  -28.6030   23.1340 C   0  0  0  0  0  3  0  0  0  0  0  0
  -25.8980  -32.5220   23.8620 C   0  0  0  0  0  3  0  0  0  0  0  0
  -26.4080  -31.7550   25.1440 C   0  0  1  0  0  0  0  0  0  0  0  0
  -25.3100  -31.5200   26.2080 C   0  0  0  0  0  1  0  0  0  0  0  0
  -26.9950  -30.3770   24.7620 C   0  0  0  0  0  1  0  0  0  0  0  0
  -27.5550  -32.5540   25.8100 C   0  0  0  0  0  1  0  0  0  0  0  0
  -25.5840  -33.9200   24.1880 N   0  0  0  0  0  0  0  0  0  0  0  0
  -25.9070  -34.9740   23.4260 C   0  0  0  0  0  0  0  0  0  0  0  0
  -26.5740  -34.8710   22.3920 O   0  0  0  0  0  0  0  0  0  0  0  0
  -24.9910  -34.0740   24.9910 H   0  0  0  0  0  0  0  0  0  0  0  0
  -24.1730  -36.7640   23.0790 C   0  0  0  0  0  1  0  0  0  0  0  0
  -25.4190  -36.3610   23.8830 C   0  0  0  0  0  3  0  0  0  0  0  0
  -27.5530  -37.2570   24.7060 C   0  0  0  0  0  1  0  0  0  0  0  0
  -26.4470  -37.4180   23.7640 N   0  0  0  0  0  0  0  0  0  0  0  0
  -26.0380  -38.3360   23.9100 H   0  0  0  0  0  0  0  0  0  0  0  0
  1  3  1  0
  2  4  1  0
  3  7  1  0
  4  9  1  0
  4  3  2  0
  5  1  2  0
  6  2  2  0
  6  5  1  0
  8  6  1  0
 10 18  1  0
 11 16  1  0
 12 13  1  0
 12 11  1  0
 14 13  1  0
 14 23  1  0
 14 15  1  0
 16 10  1  0
 16 15  1  0
 17 10  2  0
 18 19  1  0
 18  9  1  0
 20 21  2  0
 21 40  1  0
 22 21  1  0
 22 25  1  0
 23 20  1  0
 23 24  1  0
 24 22  2  0
 25 26  1  0
 26 27  2  0
 28 31  1  0
 28 27  1  0
 29 28  2  0
 30 29  1  0
 30 25  2  0
 31 32  1  0
 32 33  1  0
 33 34  2  0
 35 34  1  0
 35 39  1  0
 36 35  2  0
 37 32  2  0
 37 36  1  0
 38 37  1  0
 40 41  1  0
 41 44  1  0
 41 43  1  0
 42 40  2  0
 45 46  1  0
 45 20  1  0
 47 45  1  0
 48  5  1  0
 48 49  1  0
 50 51  1  0
 50 49  1  0
 52 63  2  0
 53 51  1  0
 53 58  1  0
 54 62  1  0
 54 64  1  0
 55 61  1  0
 55 57  1  0
 56 62  1  0
 57 56  1  0
 58 57  2  0
 59 60  1  0
 59 53  2  0
 60 55  2  0
 61 54  1  0
 62 52  1  0
 64 66  2  0
 65 64  1  0
 67 65  1  0
 68 77  2  0
 68 73  1  0
 69 65  1  0
 69 73  1  0
 70 69  1  0
 71 72  1  0
 71 70  1  0
 72 68  1  0
 73 74  2  0
 74 75  1  0
 76 75  2  0
 77 76  1  0
 78 52  1  0
 78 83  1  0
 78 79  1  0
 79 82  1  1
 79 80  1  0
 81 79  1  0
 83 86  1  0
 84 88  1  0
 84 83  1  0
 85 84  2  0
 88 87  1  0
 90 88  1  0
 90 91  1  0
 90 89  1  0
M  ISO  4  10 100  18 100  50 101  51 101
M  END
>  <TORSDO>  (86) 
F 20

>  <SCORE>  (86) 
-14.122

>  <name>  (86) 
86

>  <ligand_id>  (86) 
86

>  <original_smiles>  (86) 
[H]c1c([H])c([H])c2c(c1[H])C([H])([H])C([H])([H])C([H])([H])C2([H])N([H])C(=O)C1([H])N(C(=O)C([H])(N([H])C(=O)C([H])(N([H])C([H])([H])[H])C([H])([H])[H])C(C([H])([H])[H])(C([H])([H])[H])C([H])([H])[H])C([H])([H])c2c([H])c(OC([H])([H])C([H])([H])Oc3c([H])c(C([H])([H])[H])c(C([H])([H])N([H])C(=O)N4C([H])([H])C([H])([H])C([H])([H])C([H])(n5nc(-c6c([H])c([H])c(Oc7c([H])c([H])c(F)c([H])c7F)c([H])c6[H])c(C(=O)N([H])[H])c5N([H])[H])C4([H])[H])c([H])c3F)c([H])c([H])c2C1([H])[H]

>  <smiles>  (86) 
[H]c1c([H])c([H])c2c(c1[H])C([H])([H])C([H])([H])C([H])([H])C2([H])N([H])C(=O)C1([H])N(C(=O)C([H])(N([H])C(=O)C([H])(N([H])C([H])([H])[H])C([H])([H])[H])C(C([H])([H])[H])(C([H])([H])[H])C([H])([H])[H])C([H])([H])c2c([H])c(OC([H])([H])C([H])([H])Oc3c([H])c(C([H])([H])[H])c(C([H])([H])N([H])C(=O)N4C([H])([H])C([H])([H])C([H])([H])C([H])(n5nc(-c6c([H])c([H])c(Oc7c([H])c([H])c(F)c([H])c7F)c([H])c6[H])c(C(=O)N([H])[H])c5N([H])[H])C4([H])[H])c([H])c3F)c([H])c([H])c2C1([H])[H]

$$$$
87:0:0
     RDKit          3D

 93101  0  0  1  0  0  0  0  0999 V2000
  -30.1680  -21.7300   20.8010 C   0  0  0  0  0  2  0  0  0  0  0  0
  -28.9120  -19.4580   20.3770 C   0  0  0  0  0  3  0  0  0  0  0  0
  -31.2720  -19.3570   20.7860 C   0  0  0  0  0  3  0  0  0  0  0  0
  -30.1120  -20.1650   20.6090 C   0  0  0  0  0  0  0  0  0  0  0  0
  -28.8750  -18.0340   20.3330 C   0  0  0  0  0  0  0  0  0  0  0  0
  -30.0300  -17.2170   20.5300 C   0  0  0  0  0  0  0  0  0  0  0  0
  -31.2420  -17.9290   20.7630 C   0  0  0  0  0  0  0  0  0  0  0  0
  -27.5390  -17.3880   20.0660 C   0  0  0  0  0  1  0  0  0  0  0  0
  -32.3900  -17.2630   21.0230 F   0  0  0  0  0  0  0  0  0  0  0  0
  -30.6060  -14.7030   20.0810 C   0  0  0  0  0  0  0  0  0  0  0  0
  -30.2800  -12.5160   18.9350 C   0  0  0  0  0  2  0  0  0  0  0  0
  -29.2680  -12.7100   17.7850 C   0  0  0  0  0  2  0  0  0  0  0  0
  -27.8220  -12.5420   18.2930 C   0  0  0  0  0  2  0  0  0  0  0  0
  -27.5440  -13.3450   19.5920 C   0  0  0  0  0  3  0  0  0  0  0  0
  -28.6730  -13.1450   20.6320 C   0  0  0  0  0  2  0  0  0  0  0  0
  -29.9510  -13.4990   19.9880 N   0  0  0  0  0  0  0  0  0  0  0  0
  -31.7320  -14.8460   19.6010 O   0  0  0  0  0  0  0  0  0  0  0  0
  -29.8660  -15.7530   20.5600 N   0  0  0  0  0  0  0  0  0  0  0  0
  -28.9530  -15.4550   20.8600 H   0  0  0  0  0  0  0  0  0  0  0  0
  -25.1830  -13.9070   20.4500 C   0  0  0  0  0  0  0  0  0  0  0  0
  -24.1450  -13.1270   20.8700 C   0  0  0  0  0  0  0  0  0  0  0  0
  -24.6100  -11.7800   20.7780 C   0  0  0  0  0  0  0  0  0  0  0  0
  -26.2240  -13.0440   20.1430 N   0  0  0  0  0  0  0  0  0  0  0  0
  -25.8830  -11.7540   20.3970 N   0  0  0  0  0  0  0  0  0  0  0  0
  -23.8940  -10.5160   20.9730 C   0  0  0  0  0  0  0  0  0  0  0  0
  -24.3500   -9.5440   21.8880 C   0  0  0  0  0  3  0  0  0  0  0  0
  -23.6310   -8.3440   22.0730 C   0  0  0  0  0  3  0  0  0  0  0  0
  -22.4420   -8.1090   21.3430 C   0  0  0  0  0  0  0  0  0  0  0  0
  -22.0040   -9.0720   20.4170 C   0  0  0  0  0  3  0  0  0  0  0  0
  -22.7240  -10.2620   20.2300 C   0  0  0  0  0  3  0  0  0  0  0  0
  -21.6930   -6.9630   21.4410 O   0  0  0  0  0  0  0  0  0  0  0  0
  -21.6450   -6.2300   22.6000 C   0  0  0  0  0  0  0  0  0  0  0  0
  -21.1930   -6.7880   23.8150 C   0  0  0  0  0  3  0  0  0  0  0  0
  -21.0960   -5.9800   24.9660 C   0  0  0  0  0  3  0  0  0  0  0  0
  -21.4390   -4.6170   24.9020 C   0  0  0  0  0  0  0  0  0  0  0  0
  -21.8840   -4.0590   23.6910 C   0  0  0  0  0  3  0  0  0  0  0  0
  -21.9840   -4.8630   22.5430 C   0  0  0  0  0  0  0  0  0  0  0  0
  -22.3940   -4.3160   21.3730 F   0  0  0  0  0  0  0  0  0  0  0  0
  -21.3360   -3.8390   26.0050 F   0  0  0  0  0  0  0  0  0  0  0  0
  -22.7670  -13.6000   21.2320 C   0  0  0  0  0  0  0  0  0  0  0  0
  -22.0860  -12.8820   22.1170 N   0  0  0  0  0  0  0  0  0  0  0  0
  -22.3060  -14.6420   20.7680 O   0  0  0  0  0  0  0  0  0  0  0  0
  -22.4730  -12.0400   22.5150 H   0  0  0  0  0  0  0  0  0  0  0  0
  -21.1630  -13.1790   22.4010 H   0  0  0  0  0  0  0  0  0  0  0  0
  -25.3050  -15.2760   20.2780 N   0  0  0  0  0  0  0  0  0  0  0  0
  -24.5130  -15.8950   20.4160 H   0  0  0  0  0  0  0  0  0  0  0  0
  -26.0850  -15.7230   19.8200 H   0  0  0  0  0  0  0  0  0  0  0  0
  -29.3930  -22.4280   18.5490 C   0  0  0  0  0  1  0  0  0  0  0  0
  -29.2620  -22.6570   20.0100 N   0  0  2  0  0  4  0  0  0  0  0  0
  -28.3230  -22.3790   20.2600 H   0  0  0  0  0  0  0  0  0  0  0  0
  -29.3890  -24.1380   20.3770 C   0  0  0  0  0  3  0  0  0  0  0  0
  -28.2440  -25.1250   19.8850 C   0  0  0  0  0  3  0  0  0  0  0  0
  -28.3780  -26.5650   20.1880 O   0  0  0  0  0  0  0  0  0  0  0  0
  -24.6150  -31.8980   23.2270 C   0  0  0  0  0  0  0  0  0  0  0  0
  -27.2320  -27.3750   20.1430 C   0  0  0  0  0  0  0  0  0  0  0  0
  -23.4010  -30.4950   21.5980 C   0  0  0  0  0  3  0  0  0  0  0  0
  -24.8460  -28.9530   20.1600 C   0  0  0  0  0  0  0  0  0  0  0  0
  -25.9340  -30.8330   21.3870 C   0  0  0  0  0  2  0  0  0  0  0  0
  -26.0160  -29.4550   20.7420 C   0  0  0  0  0  0  0  0  0  0  0  0
  -27.2100  -28.6770   20.7250 C   0  0  0  0  0  3  0  0  0  0  0  0
  -26.0360  -26.9210   19.5350 C   0  0  0  0  0  3  0  0  0  0  0  0
  -24.8570  -27.6890   19.5510 C   0  0  0  0  0  3  0  0  0  0  0  0
  -23.6050  -29.8190   20.2160 C   0  0  0  0  0  2  0  0  0  0  0  0
  -24.6700  -31.0920   22.1280 N   0  0  0  0  0  0  0  0  0  0  0  0
  -23.5360  -32.1720   23.7720 O   0  0  0  0  0  0  0  0  0  0  0  0
  -22.7520  -29.4750   22.5640 C   0  0  0  0  0  0  0  0  0  0  0  0
  -21.4280  -29.2870   22.4430 N   0  0  0  0  0  0  0  0  0  0  0  0
  -23.4410  -28.8570   23.3800 O   0  0  0  0  0  0  0  0  0  0  0  0
  -20.9320  -29.8400   21.7570 H   0  0  0  0  0  0  0  0  0  0  0  0
  -18.0610  -28.0750   22.9640 C   0  0  0  0  0  0  0  0  0  0  0  0
  -20.6190  -28.3470   23.2200 C   0  0  0  0  0  3  0  0  0  0  0  0
  -20.7250  -26.9140   22.6470 C   0  0  0  0  0  2  0  0  0  0  0  0
  -19.6190  -26.5840   21.6400 C   0  0  0  0  0  2  0  0  0  0  0  0
  -18.2400  -26.7240   22.2900 C   0  0  0  0  0  2  0  0  0  0  0  0
  -19.1780  -28.8440   23.3860 C   0  0  0  0  0  0  0  0  0  0  0  0
  -18.9560  -30.1070   23.9760 C   0  0  0  0  0  3  0  0  0  0  0  0
  -17.6490  -30.6020   24.1470 C   0  0  0  0  0  3  0  0  0  0  0  0
  -16.5470  -29.8310   23.7410 C   0  0  0  0  0  3  0  0  0  0  0  0
  -16.7530  -28.5690   23.1550 C   0  0  0  0  0  3  0  0  0  0  0  0
  -25.9020  -32.5350   23.8370 C   0  0  0  0  0  3  0  0  0  0  0  0
  -26.4360  -31.7620   25.1050 C   0  0  1  0  0  0  0  0  0  0  0  0
  -25.3540  -31.5120   26.1810 C   0  0  0  0  0  1  0  0  0  0  0  0
  -27.0250  -30.3900   24.7020 C   0  0  0  0  0  1  0  0  0  0  0  0
  -27.5860  -32.5620   25.7610 C   0  0  0  0  0  1  0  0  0  0  0  0
  -25.5890  -33.9300   24.1750 N   0  0  0  0  0  0  0  0  0  0  0  0
  -25.9030  -34.9880   23.4130 C   0  0  0  0  0  0  0  0  0  0  0  0
  -26.5580  -34.8900   22.3720 O   0  0  0  0  0  0  0  0  0  0  0  0
  -25.0050  -34.0790   24.9840 H   0  0  0  0  0  0  0  0  0  0  0  0
  -24.1620  -36.7720   23.0880 C   0  0  0  0  0  1  0  0  0  0  0  0
  -25.4160  -36.3720   23.8810 C   0  0  0  0  0  3  0  0  0  0  0  0
  -27.5540  -37.2690   24.6910 C   0  0  0  0  0  1  0  0  0  0  0  0
  -26.4410  -37.4300   23.7580 N   0  0  0  0  0  0  0  0  0  0  0  0
  -26.0310  -38.3480   23.9090 H   0  0  0  0  0  0  0  0  0  0  0  0
  2  4  1  0
  4  3  2  0
  4  1  1  0
  5  2  2  0
  5  6  1  0
  6 18  1  0
  6  7  2  0
  7  3  1  0
  7  9  1  0
  8  5  1  0
 10 18  1  0
 11 16  1  0
 12 13  1  0
 12 11  1  0
 14 13  1  0
 14 23  1  0
 14 15  1  0
 16 10  1  0
 16 15  1  0
 17 10  2  0
 18 19  1  0
 20 21  2  0
 21 40  1  0
 22 21  1  0
 22 25  1  0
 23 24  1  0
 23 20  1  0
 24 22  2  0
 25 26  1  0
 26 27  2  0
 28 31  1  0
 28 27  1  0
 29 28  2  0
 30 29  1  0
 30 25  2  0
 31 32  1  0
 32 33  1  0
 33 34  2  0
 35 34  1  0
 35 39  1  0
 36 35  2  0
 37 32  2  0
 37 36  1  0
 38 37  1  0
 40 41  1  0
 41 44  1  0
 41 43  1  0
 42 40  2  0
 45 46  1  0
 45 20  1  0
 47 45  1  0
 48 49  1  0
 49 50  1  1
 49 51  1  0
 49  1  1  0
 52 53  1  0
 52 51  2  0
 54 65  2  0
 55 53  1  0
 55 60  1  0
 56 64  1  0
 56 66  1  0
 57 63  1  0
 57 59  1  0
 58 64  1  0
 59 58  1  0
 60 59  2  0
 61 62  1  0
 61 55  2  0
 62 57  2  0
 63 56  1  0
 64 54  1  0
 66 68  2  0
 67 66  1  0
 69 67  1  0
 70 79  2  0
 70 75  1  0
 71 67  1  0
 71 75  1  0
 72 71  1  0
 73 74  1  0
 73 72  1  0
 74 70  1  0
 75 76  2  0
 76 77  1  0
 78 77  2  0
 79 78  1  0
 80 54  1  0
 80 85  1  0
 80 81  1  0
 81 84  1  1
 81 82  1  0
 83 81  1  0
 85 88  1  0
 86 90  1  0
 86 85  1  0
 87 86  2  0
 90 89  1  0
 92 90  1  0
 92 93  1  0
 92 91  1  0
M  ISO  4  10 100  18 100  52 101  53 101
M  END
>  <TORSDO>  (87) 
F 20

>  <SCORE>  (87) 
-14.130

>  <name>  (87) 
87

>  <ligand_id>  (87) 
87

>  <original_smiles>  (87) 
[H]c1c([H])c([H])c2c(c1[H])C([H])([H])C([H])([H])C([H])([H])C2([H])N([H])C(=O)C1([H])N(C(=O)C([H])(N([H])C(=O)C([H])(N([H])C([H])([H])[H])C([H])([H])[H])C(C([H])([H])[H])(C([H])([H])[H])C([H])([H])[H])C([H])([H])c2c([H])c(OC([H])([H])C([H])([H])[N+]([H])(C([H])([H])[H])C([H])([H])c3c([H])c(F)c(N([H])C(=O)N4C([H])([H])C([H])([H])C([H])([H])C([H])(n5nc(-c6c([H])c([H])c(Oc7c([H])c([H])c(F)c([H])c7F)c([H])c6[H])c(C(=O)N([H])[H])c5N([H])[H])C4([H])[H])c(C([H])([H])[H])c3[H])c([H])c([H])c2C1([H])[H]

>  <smiles>  (87) 
[H]c1c([H])c([H])c2c(c1[H])C([H])([H])C([H])([H])C([H])([H])C2([H])N([H])C(=O)C1([H])N(C(=O)C([H])(N([H])C(=O)C([H])(N([H])C([H])([H])[H])C([H])([H])[H])C(C([H])([H])[H])(C([H])([H])[H])C([H])([H])[H])C([H])([H])c2c([H])c(OC([H])([H])C([H])([H])[N+]([H])(C([H])([H])[H])C([H])([H])c3c([H])c(F)c(N([H])C(=O)N4C([H])([H])C([H])([H])C([H])([H])C([H])(n5nc(-c6c([H])c([H])c(Oc7c([H])c([H])c(F)c([H])c7F)c([H])c6[H])c(C(=O)N([H])[H])c5N([H])[H])C4([H])[H])c(C([H])([H])[H])c3[H])c([H])c([H])c2C1([H])[H]

$$$$
88:0:0
     RDKit          3D

 90 99  0  0  1  0  0  0  0  0999 V2000
  -28.4320  -20.2600   20.7540 C   0  0  0  0  0  3  0  0  0  0  0  0
  -27.9840  -21.6770   20.7730 C   0  0  0  0  0  3  0  0  0  0  0  0
  -29.7030  -22.2820   19.3730 C   0  0  0  0  0  3  0  0  0  0  0  0
  -29.5670  -19.7160   20.0270 C   0  0  0  0  0  0  0  0  0  0  0  0
  -28.5750  -22.8340   20.1000 C   0  0  0  0  0  0  0  0  0  0  0  0
  -30.1620  -20.8700   19.3510 C   0  0  0  0  0  0  0  0  0  0  0  0
  -31.2790  -20.6250   18.6260 F   0  0  0  0  0  0  0  0  0  0  0  0
  -30.6030  -15.2980   19.9170 C   0  0  0  0  0  0  0  0  0  0  0  0
  -30.5090  -12.8930   18.9470 C   0  0  0  0  0  2  0  0  0  0  0  0
  -29.5080  -12.7210   17.7760 C   0  0  0  0  0  2  0  0  0  0  0  0
  -28.0930  -12.4240   18.3020 C   0  0  0  0  0  2  0  0  0  0  0  0
  -27.7160  -13.3480   19.4840 C   0  0  0  0  0  3  0  0  0  0  0  0
  -28.8350  -13.4410   20.5370 C   0  0  0  0  0  2  0  0  0  0  0  0
  -30.0220  -13.9970   19.8590 N   0  0  0  0  0  0  0  0  0  0  0  0
  -31.7610  -15.3210   19.4720 O   0  0  0  0  0  0  0  0  0  0  0  0
  -30.2590  -17.6250   22.4130 C   0  0  0  0  0  2  0  0  0  0  0  0
  -31.1680  -18.2620   21.3670 C   0  0  0  0  0  2  0  0  0  0  0  0
  -29.4020  -16.6040   21.6430 C   0  0  0  0  0  2  0  0  0  0  0  0
  -30.3370  -18.1550   20.0890 C   0  0  0  0  0  3  0  0  0  0  0  0
  -29.9100  -16.5680   20.2640 N   0  0  0  0  0  0  0  0  0  0  0  0
  -25.4090  -13.8600   20.4480 C   0  0  0  0  0  0  0  0  0  0  0  0
  -24.3830  -13.0590   20.8670 C   0  0  0  0  0  0  0  0  0  0  0  0
  -24.8540  -11.7160   20.7410 C   0  0  0  0  0  0  0  0  0  0  0  0
  -26.4310  -13.0040   20.0790 N   0  0  0  0  0  0  0  0  0  0  0  0
  -26.1160  -11.7050   20.3240 N   0  0  0  0  0  0  0  0  0  0  0  0
  -24.1520  -10.4400   20.9340 C   0  0  0  0  0  0  0  0  0  0  0  0
  -24.5890   -9.4910   21.8840 C   0  0  0  0  0  3  0  0  0  0  0  0
  -23.8840   -8.2820   22.0640 C   0  0  0  0  0  3  0  0  0  0  0  0
  -22.7270   -8.0120   21.2940 C   0  0  0  0  0  0  0  0  0  0  0  0
  -22.3090   -8.9500   20.3330 C   0  0  0  0  0  3  0  0  0  0  0  0
  -23.0160  -10.1510   20.1520 C   0  0  0  0  0  3  0  0  0  0  0  0
  -21.9940   -6.8530   21.3810 O   0  0  0  0  0  0  0  0  0  0  0  0
  -21.8310   -6.1930   22.5730 C   0  0  0  0  0  0  0  0  0  0  0  0
  -21.2500   -6.8190   23.6970 C   0  0  0  0  0  3  0  0  0  0  0  0
  -21.0370   -6.0840   24.8810 C   0  0  0  0  0  3  0  0  0  0  0  0
  -21.3960   -4.7230   24.9400 C   0  0  0  0  0  0  0  0  0  0  0  0
  -21.9690   -4.0970   23.8190 C   0  0  0  0  0  3  0  0  0  0  0  0
  -22.1830   -4.8300   22.6380 C   0  0  0  0  0  0  0  0  0  0  0  0
  -22.7160   -4.2160   21.5540 F   0  0  0  0  0  0  0  0  0  0  0  0
  -21.1840   -4.0150   26.0730 F   0  0  0  0  0  0  0  0  0  0  0  0
  -23.0090  -13.5120   21.2640 C   0  0  0  0  0  0  0  0  0  0  0  0
  -22.3610  -12.7860   22.1670 N   0  0  0  0  0  0  0  0  0  0  0  0
  -22.5210  -14.5460   20.8070 O   0  0  0  0  0  0  0  0  0  0  0  0
  -22.7700  -11.9480   22.5540 H   0  0  0  0  0  0  0  0  0  0  0  0
  -21.4410  -13.0690   22.4740 H   0  0  0  0  0  0  0  0  0  0  0  0
  -25.5530  -15.2390   20.3220 N   0  0  0  0  0  0  0  0  0  0  0  0
  -24.8030  -15.8840   20.5420 H   0  0  0  0  0  0  0  0  0  0  0  0
  -26.3720  -15.6990   19.9470 H   0  0  0  0  0  0  0  0  0  0  0  0
  -27.8110  -24.3870   19.9650 C   0  0  0  0  0  2  0  0  0  0  0  0
  -28.1930  -25.9430   20.2350 O   0  0  0  0  0  0  0  0  0  0  0  0
  -24.6760  -31.8840   23.2120 C   0  0  0  0  0  0  0  0  0  0  0  0
  -27.2040  -27.0470   20.1620 C   0  0  0  0  0  0  0  0  0  0  0  0
  -23.4710  -30.5030   21.5690 C   0  0  0  0  0  3  0  0  0  0  0  0
  -24.9100  -28.9120   20.1320 C   0  0  0  0  0  0  0  0  0  0  0  0
  -26.0360  -30.7170   21.4140 C   0  0  0  0  0  2  0  0  0  0  0  0
  -26.1000  -29.3140   20.7510 C   0  0  0  0  0  0  0  0  0  0  0  0
  -27.2440  -28.4010   20.7450 C   0  0  0  0  0  3  0  0  0  0  0  0
  -25.9860  -26.7930   19.4910 C   0  0  0  0  0  3  0  0  0  0  0  0
  -24.8750  -27.6710   19.4820 C   0  0  0  0  0  3  0  0  0  0  0  0
  -23.6920  -29.8300   20.1880 C   0  0  0  0  0  2  0  0  0  0  0  0
  -24.7500  -31.0600   22.1190 N   0  0  0  0  0  0  0  0  0  0  0  0
  -23.5900  -32.1740   23.7390 O   0  0  0  0  0  0  0  0  0  0  0  0
  -22.7790  -29.5010   22.5300 C   0  0  0  0  0  0  0  0  0  0  0  0
  -21.4500  -29.3300   22.3960 N   0  0  0  0  0  0  0  0  0  0  0  0
  -23.4420  -28.8790   23.3620 O   0  0  0  0  0  0  0  0  0  0  0  0
  -20.9670  -29.8840   21.7010 H   0  0  0  0  0  0  0  0  0  0  0  0
  -18.0690  -28.1100   22.8810 C   0  0  0  0  0  0  0  0  0  0  0  0
  -20.6260  -28.3900   23.1630 C   0  0  0  0  0  3  0  0  0  0  0  0
  -20.7390  -26.9580   22.5920 C   0  0  0  0  0  2  0  0  0  0  0  0
  -19.6460  -26.6280   21.5700 C   0  0  0  0  0  2  0  0  0  0  0  0
  -18.2590  -26.7630   22.2040 C   0  0  0  0  0  2  0  0  0  0  0  0
  -19.1790  -28.8810   23.3160 C   0  0  0  0  0  0  0  0  0  0  0  0
  -18.9460  -30.1410   23.9110 C   0  0  0  0  0  3  0  0  0  0  0  0
  -17.6360  -30.6290   24.0720 C   0  0  0  0  0  3  0  0  0  0  0  0
  -16.5400  -29.8560   23.6510 C   0  0  0  0  0  3  0  0  0  0  0  0
  -16.7580  -28.5970   23.0610 C   0  0  0  0  0  3  0  0  0  0  0  0
  -25.9520  -32.5170   23.8440 C   0  0  0  0  0  3  0  0  0  0  0  0
  -25.6420  -33.9160   24.1880 N   0  0  0  0  0  0  0  0  0  0  0  0
  -25.9520  -34.9780   23.4330 C   0  0  0  0  0  0  0  0  0  0  0  0
  -26.5920  -34.8850   22.3830 O   0  0  0  0  0  0  0  0  0  0  0  0
  -25.0720  -34.0620   25.0080 H   0  0  0  0  0  0  0  0  0  0  0  0
  -24.2000  -36.7660   23.1600 C   0  0  0  0  0  1  0  0  0  0  0  0
  -25.4760  -36.3640   23.9170 C   0  0  0  0  0  3  0  0  0  0  0  0
  -27.6370  -37.2630   24.6630 C   0  0  0  0  0  1  0  0  0  0  0  0
  -26.4980  -37.4230   23.7640 N   0  0  0  0  0  0  0  0  0  0  0  0
  -26.0910  -38.3410   23.9290 H   0  0  0  0  0  0  0  0  0  0  0  0
  -26.4570  -31.7420   25.1240 C   0  0  1  0  0  0  0  0  0  0  0  0
  -25.3560  -31.5070   26.1850 C   0  0  0  0  0  1  0  0  0  0  0  0
  -27.0390  -30.3640   24.7400 C   0  0  0  0  0  1  0  0  0  0  0  0
  -27.6060  -32.5330   25.7950 C   0  0  0  0  0  1  0  0  0  0  0  0
  1  2  1  0
  3  5  1  0
  4  1  2  0
  5  2  2  0
  6  3  2  0
  6  4  1  0
  7  6  1  0
  8 20  1  0
  9 14  1  0
 10 11  1  0
 10  9  1  0
 12 11  1  0
 12 24  1  0
 12 13  1  0
 14  8  1  0
 14 13  1  0
 15  8  2  0
 17 16  1  0
 18 16  1  0
 19  4  1  0
 19 20  1  0
 19 17  1  0
 20 18  1  0
 21 22  2  0
 22 41  1  0
 23 22  1  0
 23 26  1  0
 24 25  1  0
 24 21  1  0
 25 23  2  0
 26 27  1  0
 27 28  2  0
 29 32  1  0
 29 28  1  0
 30 29  2  0
 31 30  1  0
 31 26  2  0
 32 33  1  0
 33 38  2  0
 33 34  1  0
 34 35  2  0
 35 36  1  0
 36 40  1  0
 37 36  2  0
 38 37  1  0
 39 38  1  0
 41 42  1  0
 42 45  1  0
 42 44  1  0
 43 41  2  0
 46 21  1  0
 46 47  1  0
 48 46  1  0
 49  5  1  0
 49 50  1  0
 51 62  2  0
 52 50  1  0
 52 57  1  0
 53 61  1  0
 53 63  1  0
 54 60  1  0
 54 56  1  0
 55 61  1  0
 56 55  1  0
 57 56  2  0
 58 52  2  0
 59 58  1  0
 59 54  2  0
 60 53  1  0
 61 51  1  0
 63 65  2  0
 64 63  1  0
 66 64  1  0
 67 76  2  0
 67 72  1  0
 68 64  1  0
 68 72  1  0
 69 68  1  0
 70 71  1  0
 70 69  1  0
 71 67  1  0
 72 73  2  0
 73 74  1  0
 75 74  2  0
 76 75  1  0
 77 51  1  0
 77 78  1  0
 77 87  1  0
 78 81  1  0
 79 83  1  0
 79 78  1  0
 80 79  2  0
 83 82  1  0
 85 83  1  0
 85 86  1  0
 85 84  1  0
 87 90  1  1
 87 88  1  0
 89 87  1  0
M  ISO  4   8 100  20 100  49 101  50 101
M  END
>  <TORSDO>  (88) 
F 17

>  <SCORE>  (88) 
-15.549

>  <name>  (88) 
88

>  <ligand_id>  (88) 
88

>  <original_smiles>  (88) 
[H]c1c([H])c([H])c2c(c1[H])C([H])([H])C([H])([H])C([H])([H])C2([H])N([H])C(=O)C1([H])N(C(=O)C([H])(N([H])C(=O)C([H])(N([H])C([H])([H])[H])C([H])([H])[H])C(C([H])([H])[H])(C([H])([H])[H])C([H])([H])[H])C([H])([H])c2c([H])c(OC([H])([H])c3c([H])c([H])c(C4([H])N(C(=O)N5C([H])([H])C([H])([H])C([H])([H])C([H])(n6nc(-c7c([H])c([H])c(Oc8c([H])c([H])c(F)c([H])c8F)c([H])c7[H])c(C(=O)N([H])[H])c6N([H])[H])C5([H])[H])C([H])([H])C([H])([H])C4([H])[H])c(F)c3[H])c([H])c([H])c2C1([H])[H]

>  <smiles>  (88) 
[H]c1c([H])c([H])c2c(c1[H])C([H])([H])C([H])([H])C([H])([H])C2([H])N([H])C(=O)C1([H])N(C(=O)C([H])(N([H])C(=O)C([H])(N([H])C([H])([H])[H])C([H])([H])[H])C(C([H])([H])[H])(C([H])([H])[H])C([H])([H])[H])C([H])([H])c2c([H])c(OC([H])([H])c3c([H])c([H])c(C4([H])N(C(=O)N5C([H])([H])C([H])([H])C([H])([H])C([H])(n6nc(-c7c([H])c([H])c(Oc8c([H])c([H])c(F)c([H])c8F)c([H])c7[H])c(C(=O)N([H])[H])c6N([H])[H])C5([H])[H])C([H])([H])C([H])([H])C4([H])[H])c(F)c3[H])c([H])c([H])c2C1([H])[H]

$$$$
89:0:0
     RDKit          3D

 83 88  0  0  1  0  0  0  0  0999 V2000
  -28.4230  -22.6370   19.6310 C   0  0  0  0  0 15  0  0  0  0  0  0
  -30.2530  -16.7920   19.5190 C   0  0  0  0  0  0  0  0  0  0  0  0
  -30.5910  -14.0280   18.7140 C   0  0  0  0  0  2  0  0  0  0  0  0
  -29.7260  -13.1640   17.7040 C   0  0  0  0  0  2  0  0  0  0  0  0
  -28.4760  -12.5700   18.3560 C   0  0  0  0  0  2  0  0  0  0  0  0
  -27.9160  -13.5950   19.3540 C   0  0  0  0  0  3  0  0  0  0  0  0
  -28.9730  -14.3060   20.2770 C   0  0  0  0  0  2  0  0  0  0  0  0
  -29.8580  -15.2500   19.4560 N   0  0  0  0  0  0  0  0  0  0  0  0
  -31.4830  -16.5940   19.2570 O   0  0  0  0  0  0  0  0  0  0  0  0
  -28.5080  -19.2940   21.7330 C   0  0  0  0  0  2  0  0  0  0  0  0
  -29.4850  -20.4140   21.3280 C   0  0  0  0  0  2  0  0  0  0  0  0
  -28.3610  -18.2520   20.5970 C   0  0  0  0  0  2  0  0  0  0  0  0
  -29.4170  -20.5030   19.8100 C   0  0  0  0  0  1  0  0  0  0  0  0
  -29.4820  -18.4040   19.6750 N   0  0  0  0  0  2  0  0  0  0  0  0
  -25.7400  -13.9800   20.5600 C   0  0  0  0  0  0  0  0  0  0  0  0
  -24.7280  -13.1700   20.9840 C   0  0  0  0  0  0  0  0  0  0  0  0
  -25.1380  -11.8320   20.6920 C   0  0  0  0  0  0  0  0  0  0  0  0
  -26.7090  -13.1470   20.0420 N   0  0  0  0  0  0  0  0  0  0  0  0
  -26.3680  -11.8310   20.1690 N   0  0  0  0  0  0  0  0  0  0  0  0
  -24.3900  -10.5700   20.8300 C   0  0  0  0  0  0  0  0  0  0  0  0
  -24.8160   -9.5450   21.7030 C   0  0  0  0  0  3  0  0  0  0  0  0
  -24.0610   -8.3590   21.8430 C   0  0  0  0  0  3  0  0  0  0  0  0
  -22.8630   -8.1870   21.1110 C   0  0  0  0  0  0  0  0  0  0  0  0
  -22.4520   -9.2010   20.2270 C   0  0  0  0  0  3  0  0  0  0  0  0
  -23.2080  -10.3780   20.0850 C   0  0  0  0  0  3  0  0  0  0  0  0
  -22.0810   -7.0570   21.1610 O   0  0  0  0  0  0  0  0  0  0  0  0
  -21.9080   -6.3510   22.3260 C   0  0  0  0  0  0  0  0  0  0  0  0
  -21.3440   -6.9430   23.4780 C   0  0  0  0  0  3  0  0  0  0  0  0
  -21.1190   -6.1640   24.6310 C   0  0  0  0  0  3  0  0  0  0  0  0
  -21.4460   -4.7950   24.6330 C   0  0  0  0  0  0  0  0  0  0  0  0
  -22.0000   -4.2030   23.4850 C   0  0  0  0  0  3  0  0  0  0  0  0
  -22.2260   -4.9780   22.3340 C   0  0  0  0  0  0  0  0  0  0  0  0
  -22.7400   -4.3960   21.2220 F   0  0  0  0  0  0  0  0  0  0  0  0
  -21.2230   -4.0450   25.7370 F   0  0  0  0  0  0  0  0  0  0  0  0
  -23.4090  -13.6360   21.5260 C   0  0  0  0  0  0  0  0  0  0  0  0
  -22.8120  -12.8680   22.4280 N   0  0  0  0  0  0  0  0  0  0  0  0
  -22.9280  -14.7170   21.1880 O   0  0  0  0  0  0  0  0  0  0  0  0
  -23.2210  -11.9950   22.7240 H   0  0  0  0  0  0  0  0  0  0  0  0
  -21.9330  -13.1590   22.8310 H   0  0  0  0  0  0  0  0  0  0  0  0
  -25.9100  -15.3610   20.5340 N   0  0  0  0  0  0  0  0  0  0  0  0
  -25.1760  -15.9930   20.8350 H   0  0  0  0  0  0  0  0  0  0  0  0
  -26.6870  -15.8320   20.0890 H   0  0  0  0  0  0  0  0  0  0  0  0
  -28.3020  -24.7230   19.9040 O   0  0  0  0  0  1  0  0  0  0  0  0
  -24.7680  -31.6960   22.9840 C   0  0  0  0  0  0  0  0  0  0  0  0
  -27.3630  -26.1990   19.9000 C   0  0  0  0  0  0  0  0  0  0  0  0
  -23.6210  -30.2910   21.3320 C   0  0  0  0  0  3  0  0  0  0  0  0
  -25.0990  -28.5810   19.9070 C   0  0  0  0  0  0  0  0  0  0  0  0
  -26.2210  -30.3090   21.2640 C   0  0  0  0  0  2  0  0  0  0  0  0
  -26.3050  -28.8260   20.5720 C   0  0  0  0  0  0  0  0  0  0  0  0
  -27.3810  -27.6870   20.5230 C   0  0  0  0  0  3  0  0  0  0  0  0
  -26.1090  -26.3300   19.1820 C   0  0  0  0  0  3  0  0  0  0  0  0
  -25.0780  -27.3650   19.1860 C   0  0  0  0  0  3  0  0  0  0  0  0
  -23.8980  -29.5800   19.9650 C   0  0  0  0  0  2  0  0  0  0  0  0
  -24.9010  -30.8150   21.9120 N   0  0  0  0  0  0  0  0  0  0  0  0
  -23.6590  -31.9890   23.4740 O   0  0  0  0  0  0  0  0  0  0  0  0
  -22.8730  -29.3360   22.3080 C   0  0  0  0  0  0  0  0  0  0  0  0
  -21.5380  -29.1780   22.1850 N   0  0  0  0  0  0  0  0  0  0  0  0
  -23.5200  -28.7260   23.1610 O   0  0  0  0  0  0  0  0  0  0  0  0
  -21.0540  -29.7210   21.4840 H   0  0  0  0  0  0  0  0  0  0  0  0
  -18.1690  -27.8790   22.7190 C   0  0  0  0  0  0  0  0  0  0  0  0
  -20.7280  -28.2110   22.9470 C   0  0  0  0  0  3  0  0  0  0  0  0
  -20.8520  -26.7930   22.3430 C   0  0  0  0  0  2  0  0  0  0  0  0
  -19.7460  -26.4690   21.3330 C   0  0  0  0  0  2  0  0  0  0  0  0
  -18.3700  -26.5570   21.9980 C   0  0  0  0  0  2  0  0  0  0  0  0
  -19.2740  -28.6640   23.1490 C   0  0  0  0  0  0  0  0  0  0  0  0
  -19.0250  -29.8930   23.7950 C   0  0  0  0  0  3  0  0  0  0  0  0
  -17.7070  -30.3440   24.0070 C   0  0  0  0  0  3  0  0  0  0  0  0
  -16.6200  -29.5610   23.5850 C   0  0  0  0  0  3  0  0  0  0  0  0
  -16.8510  -28.3280   22.9490 C   0  0  0  0  0  3  0  0  0  0  0  0
  -25.9920  -32.3920   23.6590 C   0  0  0  0  0  3  0  0  0  0  0  0
  -25.6170  -33.7780   24.0380 N   0  0  0  0  0  0  0  0  0  0  0  0
  -25.8920  -34.8860   23.3330 C   0  0  0  0  0  0  0  0  0  0  0  0
  -26.5260  -34.8530   22.2770 O   0  0  0  0  0  0  0  0  0  0  0  0
  -25.0460  -33.8740   24.8640 H   0  0  0  0  0  0  0  0  0  0  0  0
  -24.0950  -36.6520   23.1580 C   0  0  0  0  0  1  0  0  0  0  0  0
  -25.3910  -36.2450   23.8780 C   0  0  0  0  0  3  0  0  0  0  0  0
  -27.5320  -37.1900   24.6380 C   0  0  0  0  0  1  0  0  0  0  0  0
  -26.3810  -37.3410   23.7520 N   0  0  0  0  0  0  0  0  0  0  0  0
  -25.9480  -38.2400   23.9450 H   0  0  0  0  0  0  0  0  0  0  0  0
  -26.4990  -31.6300   24.9480 C   0  0  1  0  0  0  0  0  0  0  0  0
  -25.3910  -31.3560   25.9930 C   0  0  0  0  0  1  0  0  0  0  0  0
  -27.1330  -30.2710   24.5850 C   0  0  0  0  0  1  0  0  0  0  0  0
  -27.6120  -32.4520   25.6400 C   0  0  0  0  0  1  0  0  0  0  0  0
  2 14  1  0
  3  8  1  0
  4  5  1  0
  4  3  1  0
  6  5  1  0
  6 18  1  0
  6  7  1  0
  8  2  1  0
  8  7  1  0
  9  2  2  0
 11 10  1  0
 12 10  1  0
 13 11  1  0
 14 12  1  0
 15 16  2  0
 16 35  1  0
 17 20  1  0
 17 16  1  0
 18 19  1  0
 18 15  1  0
 19 17  2  0
 20 21  1  0
 21 22  2  0
 23 26  1  0
 23 22  1  0
 24 23  2  0
 25 24  1  0
 25 20  2  0
 26 27  1  0
 27 32  2  0
 27 28  1  0
 28 29  2  0
 29 30  1  0
 30 34  1  0
 31 30  2  0
 32 31  1  0
 33 32  1  0
 35 36  1  0
 36 38  1  0
 36 39  1  0
 37 35  2  0
 40 15  1  0
 40 41  1  0
 42 40  1  0
 44 55  2  0
 45 43  1  0
 45 50  1  0
 46 54  1  0
 46 56  1  0
 47 53  1  0
 47 49  1  0
 48 54  1  0
 49 48  1  0
 50 49  2  0
 51 52  1  0
 51 45  2  0
 52 47  2  0
 53 46  1  0
 54 44  1  0
 56 58  2  0
 57 56  1  0
 59 57  1  0
 60 69  2  0
 60 65  1  0
 61 57  1  0
 61 65  1  0
 62 61  1  0
 63 64  1  0
 63 62  1  0
 64 60  1  0
 65 66  2  0
 66 67  1  0
 68 67  2  0
 69 68  1  0
 70 44  1  0
 70 71  1  0
 70 80  1  0
 71 74  1  0
 72 76  1  0
 72 71  1  0
 73 72  2  0
 76 75  1  0
 78 76  1  0
 78 79  1  0
 78 77  1  0
 80 83  1  1
 80 81  1  0
 82 80  1  0
M  ISO  4   1 101   2 100  14 100  43 101
M  END
>  <TORSDO>  (89) 
F 16

>  <SCORE>  (89) 
-12.649

>  <name>  (89) 
89

>  <ligand_id>  (89) 
89

>  <original_smiles>  (89) 
[H]c1c([H])c([H])c2c(c1[H])C([H])([H])C([H])([H])C([H])([H])C2([H])N([H])C(=O)C1([H])N(C(=O)C([H])(N([H])C(=O)C([H])(N([H])C([H])([H])[H])C([H])([H])[H])C(C([H])([H])[H])(C([H])([H])[H])C([H])([H])[H])C([H])([H])c2c([H])c(OC([H])([H])C3([H])N(C(=O)N4C([H])([H])C([H])([H])C([H])([H])C([H])(n5nc(-c6c([H])c([H])c(Oc7c([H])c([H])c(F)c([H])c7F)c([H])c6[H])c(C(=O)N([H])[H])c5N([H])[H])C4([H])[H])C([H])([H])C([H])([H])C3([H])[H])c([H])c([H])c2C1([H])[H]

>  <smiles>  (89) 
[H]c1c([H])c([H])c2c(c1[H])C([H])([H])C([H])([H])C([H])([H])C2([H])N([H])C(=O)C1([H])N(C(=O)C([H])(N([H])C(=O)C([H])(N([H])C([H])([H])[H])C([H])([H])[H])C(C([H])([H])[H])(C([H])([H])[H])C([H])([H])[H])C([H])([H])c2c([H])c(OC([H])([H])C3([H])N(C(=O)N4C([H])([H])C([H])([H])C([H])([H])C([H])(n5nc(-c6c([H])c([H])c(Oc7c([H])c([H])c(F)c([H])c7F)c([H])c6[H])c(C(=O)N([H])[H])c5N([H])[H])C4([H])[H])C([H])([H])C([H])([H])C3([H])[H])c([H])c([H])c2C1([H])[H]

$$$$
90:0:0
     RDKit          3D

 82 87  0  0  1  0  0  0  0  0999 V2000
  -28.1440  -24.5410   20.3020 O   0  0  0  0  0  0  0  0  0  0  0  0
  -24.7500  -31.7870   23.1020 C   0  0  0  0  0  0  0  0  0  0  0  0
  -27.2370  -26.0590   20.2690 C   0  0  0  0  0  0  0  0  0  0  0  0
  -23.5910  -30.3510   21.4880 C   0  0  0  0  0  3  0  0  0  0  0  0
  -25.0410  -28.5340   20.1550 C   0  0  0  0  0  0  0  0  0  0  0  0
  -26.1920  -30.2790   21.4640 C   0  0  0  0  0  2  0  0  0  0  0  0
  -26.2430  -28.7610   20.8300 C   0  0  0  0  0  0  0  0  0  0  0  0
  -27.2860  -27.5800   20.8370 C   0  0  0  0  0  3  0  0  0  0  0  0
  -25.9980  -26.2250   19.5230 C   0  0  0  0  0  3  0  0  0  0  0  0
  -24.9990  -27.2940   19.4750 C   0  0  0  0  0  3  0  0  0  0  0  0
  -23.8680  -29.5740   20.1560 C   0  0  0  0  0  2  0  0  0  0  0  0
  -24.8780  -30.8570   22.0690 N   0  0  0  0  0  0  0  0  0  0  0  0
  -23.6420  -32.1290   23.5620 O   0  0  0  0  0  0  0  0  0  0  0  0
  -22.7980  -29.4580   22.4880 C   0  0  0  0  0  0  0  0  0  0  0  0
  -21.4570  -29.3610   22.3670 N   0  0  0  0  0  0  0  0  0  0  0  0
  -23.4170  -28.8410   23.3570 O   0  0  0  0  0  0  0  0  0  0  0  0
  -20.9980  -29.9070   21.6520 H   0  0  0  0  0  0  0  0  0  0  0  0
  -18.0350  -28.2160   22.9250 C   0  0  0  0  0  0  0  0  0  0  0  0
  -20.6040  -28.4510   23.1540 C   0  0  0  0  0  3  0  0  0  0  0  0
  -20.6720  -27.0100   22.5920 C   0  0  0  0  0  2  0  0  0  0  0  0
  -19.5590  -26.7030   21.5870 C   0  0  0  0  0  2  0  0  0  0  0  0
  -18.1850  -26.8670   22.2410 C   0  0  0  0  0  2  0  0  0  0  0  0
  -19.1690  -28.9680   23.3380 C   0  0  0  0  0  0  0  0  0  0  0  0
  -18.9680  -30.2250   23.9480 C   0  0  0  0  0  3  0  0  0  0  0  0
  -17.6690  -30.7320   24.1420 C   0  0  0  0  0  3  0  0  0  0  0  0
  -16.5520  -29.9800   23.7390 C   0  0  0  0  0  3  0  0  0  0  0  0
  -16.7350  -28.7230   23.1380 C   0  0  0  0  0  3  0  0  0  0  0  0
  -25.9800  -32.4810   23.7690 C   0  0  0  0  0  3  0  0  0  0  0  0
  -25.6280  -33.8850   24.1050 N   0  0  0  0  0  0  0  0  0  0  0  0
  -25.9480  -34.9710   23.3860 C   0  0  0  0  0  0  0  0  0  0  0  0
  -26.6090  -34.8990   22.3500 O   0  0  0  0  0  0  0  0  0  0  0  0
  -25.0330  -34.0100   24.9100 H   0  0  0  0  0  0  0  0  0  0  0  0
  -24.1940  -36.7720   23.1370 C   0  0  0  0  0  1  0  0  0  0  0  0
  -25.4680  -36.3530   23.8900 C   0  0  0  0  0  3  0  0  0  0  0  0
  -27.6200  -37.2650   24.6600 C   0  0  0  0  0  1  0  0  0  0  0  0
  -26.4850  -37.4230   23.7550 N   0  0  0  0  0  0  0  0  0  0  0  0
  -26.0710  -38.3370   23.9230 H   0  0  0  0  0  0  0  0  0  0  0  0
  -26.4570  -31.7480   25.0860 C   0  0  1  0  0  0  0  0  0  0  0  0
  -25.3330  -31.5360   26.1300 C   0  0  0  0  0  1  0  0  0  0  0  0
  -27.0540  -30.3620   24.7700 C   0  0  0  0  0  1  0  0  0  0  0  0
  -27.5870  -32.5610   25.7600 C   0  0  0  0  0  1  0  0  0  0  0  0
  -28.1080  -22.6960   20.2660 C   0  0  0  0  0  2  0  0  0  0  0  0
  -27.4160  -22.4040   21.3950 F   0  0  0  0  0  0  0  0  0  0  0  0
  -29.1140  -20.5220   20.2110 C   0  0  0  0  0 15  0  0  0  0  0  0
  -29.8730  -16.7290   20.1510 C   0  0  0  0  0  0  0  0  0  0  0  0
  -30.2640  -13.9450   19.3780 C   0  0  0  0  0  2  0  0  0  0  0  0
  -29.5220  -13.0770   18.2740 C   0  0  0  0  0  2  0  0  0  0  0  0
  -28.2050  -12.4860   18.7750 C   0  0  0  0  0  2  0  0  0  0  0  0
  -27.5380  -13.5160   19.6950 C   0  0  0  0  0  3  0  0  0  0  0  0
  -28.4800  -14.2400   20.7340 C   0  0  0  0  0  2  0  0  0  0  0  0
  -29.4630  -15.1870   20.0260 N   0  0  0  0  0  0  0  0  0  0  0  0
  -31.1220  -16.4950   20.0810 O   0  0  0  0  0  0  0  0  0  0  0  0
  -29.1440  -18.3800   20.1890 N   0  0  0  0  0  2  0  0  0  0  0  0
  -28.1590  -18.1450   20.1890 H   0  0  0  0  0  0  0  0  0  0  0  0
  -25.1720  -13.9070   20.4570 C   0  0  0  0  0  0  0  0  0  0  0  0
  -24.1360  -13.0960   20.8140 C   0  0  0  0  0  0  0  0  0  0  0  0
  -24.6450  -11.7600   20.7870 C   0  0  0  0  0  0  0  0  0  0  0  0
  -26.2510  -13.0800   20.2320 N   0  0  0  0  0  0  0  0  0  0  0  0
  -25.9470  -11.7720   20.4820 N   0  0  0  0  0  0  0  0  0  0  0  0
  -23.9360  -10.4810   20.9760 C   0  0  0  0  0  0  0  0  0  0  0  0
  -24.3590   -9.5290   21.9310 C   0  0  0  0  0  3  0  0  0  0  0  0
  -23.6390   -8.3280   22.1170 C   0  0  0  0  0  3  0  0  0  0  0  0
  -22.4800   -8.0670   21.3490 C   0  0  0  0  0  0  0  0  0  0  0  0
  -22.0720   -9.0080   20.3860 C   0  0  0  0  0  3  0  0  0  0  0  0
  -22.7930  -10.2000   20.1990 C   0  0  0  0  0  3  0  0  0  0  0  0
  -21.7340   -6.9160   21.4410 O   0  0  0  0  0  0  0  0  0  0  0  0
  -21.6640   -6.1920   22.6060 C   0  0  0  0  0  0  0  0  0  0  0  0
  -21.1900   -6.7600   23.8080 C   0  0  0  0  0  3  0  0  0  0  0  0
  -21.0690   -5.9630   24.9640 C   0  0  0  0  0  3  0  0  0  0  0  0
  -21.4110   -4.5990   24.9190 C   0  0  0  0  0  0  0  0  0  0  0  0
  -21.8790   -4.0300   23.7210 C   0  0  0  0  0  3  0  0  0  0  0  0
  -22.0010   -4.8230   22.5680 C   0  0  0  0  0  0  0  0  0  0  0  0
  -22.4300   -4.2630   21.4100 F   0  0  0  0  0  0  0  0  0  0  0  0
  -21.2890   -3.8310   26.0280 F   0  0  0  0  0  0  0  0  0  0  0  0
  -22.7250  -13.5420   21.0600 C   0  0  0  0  0  0  0  0  0  0  0  0
  -22.0050  -12.8460   21.9300 N   0  0  0  0  0  0  0  0  0  0  0  0
  -22.2730  -14.5500   20.5190 O   0  0  0  0  0  0  0  0  0  0  0  0
  -22.3850  -12.0320   22.3910 H   0  0  0  0  0  0  0  0  0  0  0  0
  -21.0580  -13.1290   22.1400 H   0  0  0  0  0  0  0  0  0  0  0  0
  -25.2850  -15.2810   20.2640 N   0  0  0  0  0  0  0  0  0  0  0  0
  -24.4910  -15.9070   20.3550 H   0  0  0  0  0  0  0  0  0  0  0  0
  -26.1200  -15.7440   19.9300 H   0  0  0  0  0  0  0  0  0  0  0  0
  2 13  2  0
  3  1  1  0
  3  8  1  0
  4 12  1  0
  4 14  1  0
  5 11  1  0
  5  7  1  0
  6 12  1  0
  7  8  2  0
  7  6  1  0
  9  3  2  0
 10  9  1  0
 10  5  2  0
 11  4  1  0
 12  2  1  0
 14 16  2  0
 15 14  1  0
 17 15  1  0
 18 27  2  0
 18 23  1  0
 19 15  1  0
 19 23  1  0
 20 19  1  0
 21 22  1  0
 21 20  1  0
 22 18  1  0
 23 24  2  0
 24 25  1  0
 26 25  2  0
 27 26  1  0
 28  2  1  0
 28 29  1  0
 28 38  1  0
 29 32  1  0
 30 34  1  0
 30 29  1  0
 31 30  2  0
 34 33  1  0
 36 34  1  0
 36 37  1  0
 36 35  1  0
 38 41  1  1
 38 39  1  0
 40 38  1  0
 42  1  1  0
 42 43  1  0
 45 53  1  0
 46 51  1  0
 47 48  1  0
 47 46  1  0
 49 48  1  0
 49 58  1  0
 49 50  1  0
 51 45  1  0
 51 50  1  0
 52 45  2  0
 53 54  1  0
 55 56  2  0
 56 75  1  0
 57 56  1  0
 57 60  1  0
 58 55  1  0
 58 59  1  0
 59 57  2  0
 60 61  1  0
 61 62  2  0
 63 66  1  0
 63 62  1  0
 64 63  2  0
 65 64  1  0
 65 60  2  0
 66 67  1  0
 67 68  1  0
 68 69  2  0
 70 69  1  0
 70 74  1  0
 71 70  2  0
 72 67  2  0
 72 71  1  0
 73 72  1  0
 75 76  1  0
 76 79  1  0
 76 78  1  0
 77 75  2  0
 80 81  1  0
 80 55  1  0
 82 80  1  0
M  ISO  4   1 101  42 101  45 100  53 100
M  END
>  <TORSDO>  (90) 
F 17

>  <SCORE>  (90) 
-16.191

>  <name>  (90) 
90

>  <ligand_id>  (90) 
90

>  <original_smiles>  (90) 
[H]c1c([H])c([H])c2c(c1[H])C([H])([H])C([H])([H])C([H])([H])C2([H])N([H])C(=O)C1([H])N(C(=O)C([H])(N([H])C(=O)C([H])(N([H])C([H])([H])[H])C([H])([H])[H])C(C([H])([H])[H])(C([H])([H])[H])C([H])([H])[H])C([H])([H])c2c([H])c(OC([H])(F)C([H])([H])N([H])C(=O)N3C([H])([H])C([H])([H])C([H])([H])C([H])(n4nc(-c5c([H])c([H])c(Oc6c([H])c([H])c(F)c([H])c6F)c([H])c5[H])c(C(=O)N([H])[H])c4N([H])[H])C3([H])[H])c([H])c([H])c2C1([H])[H]

>  <smiles>  (90) 
[H]c1c([H])c([H])c2c(c1[H])C([H])([H])C([H])([H])C([H])([H])C2([H])N([H])C(=O)C1([H])N(C(=O)C([H])(N([H])C(=O)C([H])(N([H])C([H])([H])[H])C([H])([H])[H])C(C([H])([H])[H])(C([H])([H])[H])C([H])([H])[H])C([H])([H])c2c([H])c(OC([H])(F)C([H])([H])N([H])C(=O)N3C([H])([H])C([H])([H])C([H])([H])C([H])(n4nc(-c5c([H])c([H])c(Oc6c([H])c([H])c(F)c([H])c6F)c([H])c5[H])c(C(=O)N([H])[H])c4N([H])[H])C3([H])[H])c([H])c([H])c2C1([H])[H]

$$$$
91:0:0
     RDKit          3D

 90 98  0  0  1  0  0  0  0  0999 V2000
  -30.6800  -18.4140   19.3230 C   0  0  0  0  0  3  0  0  0  0  0  0
  -28.4930  -19.8010   20.3620 C   0  0  0  0  0  3  0  0  0  0  0  0
  -29.7340  -17.5720   19.9900 C   0  0  0  0  0  0  0  0  0  0  0  0
  -29.4230  -20.6410   19.6660 C   0  0  0  0  0  0  0  0  0  0  0  0
  -30.5240  -19.8520   19.1650 C   0  0  0  0  0  0  0  0  0  0  0  0
  -28.6370  -18.3550   20.5000 C   0  0  0  0  0  0  0  0  0  0  0  0
  -31.4900  -20.5050   18.4730 F   0  0  0  0  0  0  0  0  0  0  0  0
  -27.6510  -17.6850   21.1440 F   0  0  0  0  0  0  0  0  0  0  0  0
  -30.5120  -14.9320   19.7000 C   0  0  0  0  0  0  0  0  0  0  0  0
  -30.2960  -12.6140   18.7030 C   0  0  0  0  0  2  0  0  0  0  0  0
  -29.2350  -12.6390   17.5770 C   0  0  0  0  0  2  0  0  0  0  0  0
  -27.8200  -12.4310   18.1510 C   0  0  0  0  0  2  0  0  0  0  0  0
  -27.5560  -13.3090   19.4020 C   0  0  0  0  0  3  0  0  0  0  0  0
  -28.7240  -13.2430   20.4110 C   0  0  0  0  0  2  0  0  0  0  0  0
  -29.9380  -13.6640   19.6980 N   0  0  0  0  0  0  0  0  0  0  0  0
  -31.6470  -15.0520   19.2250 O   0  0  0  0  0  0  0  0  0  0  0  0
  -29.7370  -16.0410   20.1180 N   0  0  0  0  0  0  0  0  0  0  0  0
  -28.9170  -15.7190   20.6100 H   0  0  0  0  0  0  0  0  0  0  0  0
  -25.2720  -13.8870   20.4060 C   0  0  0  0  0  0  0  0  0  0  0  0
  -24.2410  -13.1110   20.8560 C   0  0  0  0  0  0  0  0  0  0  0  0
  -24.6790  -11.7570   20.7250 C   0  0  0  0  0  0  0  0  0  0  0  0
  -26.2710  -13.0080   20.0240 N   0  0  0  0  0  0  0  0  0  0  0  0
  -25.9300  -11.7180   20.2790 N   0  0  0  0  0  0  0  0  0  0  0  0
  -23.9570  -10.4960   20.9410 C   0  0  0  0  0  0  0  0  0  0  0  0
  -24.4420   -9.5090   21.8270 C   0  0  0  0  0  3  0  0  0  0  0  0
  -23.7190   -8.3140   22.0340 C   0  0  0  0  0  3  0  0  0  0  0  0
  -22.4960   -8.0990   21.3570 C   0  0  0  0  0  0  0  0  0  0  0  0
  -22.0280   -9.0750   20.4590 C   0  0  0  0  0  3  0  0  0  0  0  0
  -22.7520  -10.2600   20.2490 C   0  0  0  0  0  3  0  0  0  0  0  0
  -21.7380   -6.9580   21.4760 O   0  0  0  0  0  0  0  0  0  0  0  0
  -21.7300   -6.2180   22.6310 C   0  0  0  0  0  0  0  0  0  0  0  0
  -21.3310   -6.7710   23.8670 C   0  0  0  0  0  3  0  0  0  0  0  0
  -21.2710   -5.9560   25.0150 C   0  0  0  0  0  3  0  0  0  0  0  0
  -21.5960   -4.5900   24.9290 C   0  0  0  0  0  0  0  0  0  0  0  0
  -21.9870   -4.0360   23.6970 C   0  0  0  0  0  3  0  0  0  0  0  0
  -22.0500   -4.8480   22.5500 C   0  0  0  0  0  0  0  0  0  0  0  0
  -22.4070   -4.3050   21.3620 F   0  0  0  0  0  0  0  0  0  0  0  0
  -21.5310   -3.8050   26.0300 F   0  0  0  0  0  0  0  0  0  0  0  0
  -22.8870  -13.5920   21.2920 C   0  0  0  0  0  0  0  0  0  0  0  0
  -22.2490  -12.8760   22.2100 N   0  0  0  0  0  0  0  0  0  0  0  0
  -22.4100  -14.6380   20.8530 O   0  0  0  0  0  0  0  0  0  0  0  0
  -22.6500  -12.0290   22.5840 H   0  0  0  0  0  0  0  0  0  0  0  0
  -21.3440  -13.1800   22.5440 H   0  0  0  0  0  0  0  0  0  0  0  0
  -25.4350  -15.2620   20.2640 N   0  0  0  0  0  0  0  0  0  0  0  0
  -24.6950  -15.9170   20.4920 H   0  0  0  0  0  0  0  0  0  0  0  0
  -26.2470  -15.7110   19.8610 H   0  0  0  0  0  0  0  0  0  0  0  0
  -29.3480  -22.0780   19.3640 O   0  0  0  0  0  0  0  0  0  0  0  0
  -28.6350  -23.2610   20.0410 C   0  0  0  0  0  2  0  0  0  0  0  0
  -28.4330  -24.7510   19.2670 C   0  0  0  0  0  2  0  0  0  0  0  0
  -28.3950  -26.2040   19.8330 O   0  0  0  0  0  0  0  0  0  0  0  0
  -24.6650  -31.6640   23.0420 C   0  0  0  0  0  0  0  0  0  0  0  0
  -27.2950  -27.1370   19.7780 C   0  0  0  0  0  0  0  0  0  0  0  0
  -23.4700  -30.3170   21.3580 C   0  0  0  0  0  3  0  0  0  0  0  0
  -24.9290  -28.8330   19.8490 C   0  0  0  0  0  0  0  0  0  0  0  0
  -26.0150  -30.6370   21.1770 C   0  0  0  0  0  2  0  0  0  0  0  0
  -26.1050  -29.2760   20.4650 C   0  0  0  0  0  0  0  0  0  0  0  0
  -27.2840  -28.4430   20.4170 C   0  0  0  0  0  3  0  0  0  0  0  0
  -26.0880  -26.7950   19.1300 C   0  0  0  0  0  3  0  0  0  0  0  0
  -24.9330  -27.6050   19.1690 C   0  0  0  0  0  3  0  0  0  0  0  0
  -23.6860  -29.7030   19.9490 C   0  0  0  0  0  2  0  0  0  0  0  0
  -24.7360  -30.8920   21.9150 N   0  0  0  0  0  0  0  0  0  0  0  0
  -23.5800  -31.9060   23.5940 O   0  0  0  0  0  0  0  0  0  0  0  0
  -22.8210  -29.2580   22.2840 C   0  0  0  0  0  0  0  0  0  0  0  0
  -21.4920  -29.0820   22.1770 N   0  0  0  0  0  0  0  0  0  0  0  0
  -23.5150  -28.5970   23.0610 O   0  0  0  0  0  0  0  0  0  0  0  0
  -20.9880  -29.6680   21.5260 H   0  0  0  0  0  0  0  0  0  0  0  0
  -18.1260  -27.8550   22.7150 C   0  0  0  0  0  0  0  0  0  0  0  0
  -20.6920  -28.1040   22.9190 C   0  0  0  0  0  3  0  0  0  0  0  0
  -20.7760  -26.7060   22.2620 C   0  0  0  0  0  2  0  0  0  0  0  0
  -19.6430  -26.4400   21.2650 C   0  0  0  0  0  2  0  0  0  0  0  0
  -18.2810  -26.5460   21.9580 C   0  0  0  0  0  2  0  0  0  0  0  0
  -19.2580  -28.5940   23.1530 C   0  0  0  0  0  0  0  0  0  0  0  0
  -19.0570  -29.8180   23.8240 C   0  0  0  0  0  3  0  0  0  0  0  0
  -17.7570  -30.3060   24.0600 C   0  0  0  0  0  3  0  0  0  0  0  0
  -16.6410  -29.5650   23.6370 C   0  0  0  0  0  3  0  0  0  0  0  0
  -16.8270  -28.3390   22.9710 C   0  0  0  0  0  3  0  0  0  0  0  0
  -25.9380  -32.2940   23.6820 C   0  0  0  0  0  3  0  0  0  0  0  0
  -26.4710  -31.4850   24.9290 C   0  0  1  0  0  0  0  0  0  0  0  0
  -25.3890  -31.2010   25.9960 C   0  0  0  0  0  1  0  0  0  0  0  0
  -27.0660  -30.1280   24.4900 C   0  0  0  0  0  1  0  0  0  0  0  0
  -27.6200  -32.2690   25.6100 C   0  0  0  0  0  1  0  0  0  0  0  0
  -25.6080  -33.6750   24.0710 N   0  0  0  0  0  0  0  0  0  0  0  0
  -25.9270  -34.7670   23.3630 C   0  0  0  0  0  0  0  0  0  0  0  0
  -26.5980  -34.7180   22.3290 O   0  0  0  0  0  0  0  0  0  0  0  0
  -25.0110  -33.7850   24.8780 H   0  0  0  0  0  0  0  0  0  0  0  0
  -24.1770  -36.5550   23.0950 C   0  0  0  0  0  1  0  0  0  0  0  0
  -25.4250  -36.1280   23.8850 C   0  0  0  0  0  3  0  0  0  0  0  0
  -27.5470  -37.0060   24.7570 C   0  0  0  0  0  1  0  0  0  0  0  0
  -26.4450  -37.1970   23.8160 N   0  0  0  0  0  0  0  0  0  0  0  0
  -26.0260  -38.1060   23.9980 H   0  0  0  0  0  0  0  0  0  0  0  0
  1  3  1  0
  2  6  1  0
  3 17  1  0
  3  6  2  0
  4  2  2  0
  5  1  2  0
  5  4  1  0
  6  8  1  0
  7  5  1  0
  9 17  1  0
 10 15  1  0
 11 12  1  0
 11 10  1  0
 13 12  1  0
 13 22  1  0
 13 14  1  0
 15  9  1  0
 15 14  1  0
 16  9  2  0
 17 18  1  0
 19 20  2  0
 20 39  1  0
 21 20  1  0
 21 24  1  0
 22 23  1  0
 22 19  1  0
 23 21  2  0
 24 25  1  0
 25 26  2  0
 27 30  1  0
 27 26  1  0
 28 27  2  0
 29 28  1  0
 29 24  2  0
 30 31  1  0
 31 32  1  0
 32 33  2  0
 34 33  1  0
 34 38  1  0
 35 34  2  0
 36 31  2  0
 36 35  1  0
 37 36  1  0
 39 40  1  0
 40 43  1  0
 40 42  1  0
 41 39  2  0
 44 19  1  0
 44 45  1  0
 46 44  1  0
 47  4  1  0
 47 48  1  0
 49 50  1  0
 49 48  1  0
 51 62  2  0
 52 50  1  0
 52 57  1  0
 53 61  1  0
 53 63  1  0
 54 60  1  0
 54 56  1  0
 55 61  1  0
 56 55  1  0
 57 56  2  0
 58 59  1  0
 58 52  2  0
 59 54  2  0
 60 53  1  0
 61 51  1  0
 63 65  2  0
 64 63  1  0
 66 64  1  0
 67 76  2  0
 67 72  1  0
 68 64  1  0
 68 72  1  0
 69 68  1  0
 70 71  1  0
 70 69  1  0
 71 67  1  0
 72 73  2  0
 73 74  1  0
 75 74  2  0
 76 75  1  0
 77 51  1  0
 77 82  1  0
 77 78  1  0
 78 81  1  1
 78 79  1  0
 80 78  1  0
 82 85  1  0
 83 87  1  0
 83 82  1  0
 84 83  2  0
 87 86  1  0
 89 87  1  0
 89 90  1  0
 89 88  1  0
M  ISO  4   9 100  17 100  49 101  50 101
M  END
>  <TORSDO>  (91) 
F 19

>  <SCORE>  (91) 
-13.201

>  <name>  (91) 
91

>  <ligand_id>  (91) 
91

>  <original_smiles>  (91) 
[H]c1c([H])c([H])c2c(c1[H])C([H])([H])C([H])([H])C([H])([H])C2([H])N([H])C(=O)C1([H])N(C(=O)C([H])(N([H])C(=O)C([H])(N([H])C([H])([H])[H])C([H])([H])[H])C(C([H])([H])[H])(C([H])([H])[H])C([H])([H])[H])C([H])([H])c2c([H])c(OC([H])([H])C([H])([H])Oc3c([H])c(F)c(N([H])C(=O)N4C([H])([H])C([H])([H])C([H])([H])C([H])(n5nc(-c6c([H])c([H])c(Oc7c([H])c([H])c(F)c([H])c7F)c([H])c6[H])c(C(=O)N([H])[H])c5N([H])[H])C4([H])[H])c([H])c3F)c([H])c([H])c2C1([H])[H]

>  <smiles>  (91) 
[H]c1c([H])c([H])c2c(c1[H])C([H])([H])C([H])([H])C([H])([H])C2([H])N([H])C(=O)C1([H])N(C(=O)C([H])(N([H])C(=O)C([H])(N([H])C([H])([H])[H])C([H])([H])[H])C(C([H])([H])[H])(C([H])([H])[H])C([H])([H])[H])C([H])([H])c2c([H])c(OC([H])([H])C([H])([H])Oc3c([H])c(F)c(N([H])C(=O)N4C([H])([H])C([H])([H])C([H])([H])C([H])(n5nc(-c6c([H])c([H])c(Oc7c([H])c([H])c(F)c([H])c7F)c([H])c6[H])c(C(=O)N([H])[H])c5N([H])[H])C4([H])[H])c([H])c3F)c([H])c([H])c2C1([H])[H]

$$$$
92:0:0
     RDKit          3D

 92100  0  0  1  0  0  0  0  0999 V2000
  -31.1970  -17.5980   19.2130 C   0  0  0  0  0  3  0  0  0  0  0  0
  -31.4850  -18.9200   18.8320 C   0  0  0  0  0  3  0  0  0  0  0  0
  -29.5120  -19.7980   20.0030 C   0  0  0  0  0  0  0  0  0  0  0  0
  -30.0870  -17.2870   20.0320 C   0  0  0  0  0  0  0  0  0  0  0  0
  -30.6730  -20.0000   19.2230 C   0  0  0  0  0  0  0  0  0  0  0  0
  -29.2440  -18.4190   20.4010 C   0  0  0  0  0  0  0  0  0  0  0  0
  -31.0510  -21.2420   18.8440 F   0  0  0  0  0  0  0  0  0  0  0  0
  -28.1530  -18.1720   21.1660 F   0  0  0  0  0  0  0  0  0  0  0  0
  -30.5690  -14.7210   20.2080 C   0  0  0  0  0  0  0  0  0  0  0  0
  -30.3340  -12.4580   19.2000 C   0  0  0  0  0  2  0  0  0  0  0  0
  -29.3900  -12.5690   17.9840 C   0  0  0  0  0  2  0  0  0  0  0  0
  -27.9210  -12.4150   18.4200 C   0  0  0  0  0  2  0  0  0  0  0  0
  -27.5690  -13.2830   19.6580 C   0  0  0  0  0  3  0  0  0  0  0  0
  -28.6360  -13.1610   20.7660 C   0  0  0  0  0  2  0  0  0  0  0  0
  -29.9290  -13.5050   20.1660 N   0  0  0  0  0  0  0  0  0  0  0  0
  -31.7630  -14.7760   19.9020 O   0  0  0  0  0  0  0  0  0  0  0  0
  -29.8150  -15.8720   20.4130 N   0  0  0  0  0  0  0  0  0  0  0  0
  -28.8900  -15.7160   20.7850 H   0  0  0  0  0  0  0  0  0  0  0  0
  -25.1830  -13.8760   20.3840 C   0  0  0  0  0  0  0  0  0  0  0  0
  -24.1230  -13.1060   20.7740 C   0  0  0  0  0  0  0  0  0  0  0  0
  -24.5900  -11.7550   20.7670 C   0  0  0  0  0  0  0  0  0  0  0  0
  -26.2290  -12.9970   20.1580 N   0  0  0  0  0  0  0  0  0  0  0  0
  -25.8810  -11.7170   20.4510 N   0  0  0  0  0  0  0  0  0  0  0  0
  -23.8700  -10.4930   20.9820 C   0  0  0  0  0  0  0  0  0  0  0  0
  -24.3110   -9.5420   21.9290 C   0  0  0  0  0  3  0  0  0  0  0  0
  -23.5890   -8.3460   22.1310 C   0  0  0  0  0  3  0  0  0  0  0  0
  -22.4120   -8.0930   21.3880 C   0  0  0  0  0  0  0  0  0  0  0  0
  -21.9900   -9.0320   20.4300 C   0  0  0  0  0  3  0  0  0  0  0  0
  -22.7130  -10.2190   20.2260 C   0  0  0  0  0  3  0  0  0  0  0  0
  -21.6600   -6.9480   21.5020 O   0  0  0  0  0  0  0  0  0  0  0  0
  -21.6330   -6.2160   22.6610 C   0  0  0  0  0  0  0  0  0  0  0  0
  -21.2060   -6.7740   23.8860 C   0  0  0  0  0  3  0  0  0  0  0  0
  -21.1290   -5.9660   25.0390 C   0  0  0  0  0  3  0  0  0  0  0  0
  -21.4700   -4.6020   24.9660 C   0  0  0  0  0  0  0  0  0  0  0  0
  -21.8910   -4.0430   23.7470 C   0  0  0  0  0  3  0  0  0  0  0  0
  -21.9700   -4.8490   22.5970 C   0  0  0  0  0  0  0  0  0  0  0  0
  -22.3560   -4.3010   21.4190 F   0  0  0  0  0  0  0  0  0  0  0  0
  -21.3880   -3.8240   26.0710 F   0  0  0  0  0  0  0  0  0  0  0  0
  -22.7250  -13.5820   21.0410 C   0  0  0  0  0  0  0  0  0  0  0  0
  -22.0000  -12.8960   21.9180 N   0  0  0  0  0  0  0  0  0  0  0  0
  -22.2820  -14.5970   20.5050 O   0  0  0  0  0  0  0  0  0  0  0  0
  -22.3700  -12.0740   22.3740 H   0  0  0  0  0  0  0  0  0  0  0  0
  -21.0620  -13.1960   22.1390 H   0  0  0  0  0  0  0  0  0  0  0  0
  -25.3420  -15.2450   20.1790 N   0  0  0  0  0  0  0  0  0  0  0  0
  -24.5750  -15.9010   20.2750 H   0  0  0  0  0  0  0  0  0  0  0  0
  -26.1830  -15.6760   19.8160 H   0  0  0  0  0  0  0  0  0  0  0  0
  -28.6320  -21.0560   20.4440 C   0  0  0  0  0  2  0  0  0  0  0  0
  -28.6950  -22.4890   19.7420 C   0  0  0  0  0  3  0  0  0  0  0  0
  -28.2660  -23.7350   20.1800 C   0  0  0  0  0  0  0  0  0  0  0  0
  -27.6070  -23.9150   21.5340 C   0  0  0  0  0  1  0  0  0  0  0  0
  -28.3970  -25.0820   19.3490 C   0  0  0  0  0  2  0  0  0  0  0  0
  -28.3220  -26.4140   20.0320 O   0  0  0  0  0  0  0  0  0  0  0  0
  -24.5560  -31.7590   23.1520 C   0  0  0  0  0  0  0  0  0  0  0  0
  -27.1910  -27.2540   19.9890 C   0  0  0  0  0  0  0  0  0  0  0  0
  -23.3660  -30.3950   21.4770 C   0  0  0  0  0  3  0  0  0  0  0  0
  -24.8240  -28.8820   20.0200 C   0  0  0  0  0  0  0  0  0  0  0  0
  -25.9090  -30.7170   21.3130 C   0  0  0  0  0  2  0  0  0  0  0  0
  -25.9920  -29.3530   20.6290 C   0  0  0  0  0  0  0  0  0  0  0  0
  -27.1760  -28.5520   20.6030 C   0  0  0  0  0  3  0  0  0  0  0  0
  -25.9860  -26.8360   19.3770 C   0  0  0  0  0  3  0  0  0  0  0  0
  -24.8250  -27.6310   19.3890 C   0  0  0  0  0  3  0  0  0  0  0  0
  -23.5870  -29.7570   20.0810 C   0  0  0  0  0  2  0  0  0  0  0  0
  -24.6290  -30.9750   22.0370 N   0  0  0  0  0  0  0  0  0  0  0  0
  -23.4680  -32.0180   23.6880 O   0  0  0  0  0  0  0  0  0  0  0  0
  -22.7070  -29.3500   22.4100 C   0  0  0  0  0  0  0  0  0  0  0  0
  -21.3850  -29.1560   22.2670 N   0  0  0  0  0  0  0  0  0  0  0  0
  -23.3860  -28.7190   23.2250 O   0  0  0  0  0  0  0  0  0  0  0  0
  -20.8960  -29.7190   21.5860 H   0  0  0  0  0  0  0  0  0  0  0  0
  -18.0220  -27.9060   22.7060 C   0  0  0  0  0  0  0  0  0  0  0  0
  -20.5720  -28.1940   23.0120 C   0  0  0  0  0  3  0  0  0  0  0  0
  -20.7000  -26.7740   22.4110 C   0  0  0  0  0  2  0  0  0  0  0  0
  -19.6140  -26.4540   21.3790 C   0  0  0  0  0  2  0  0  0  0  0  0
  -18.2240  -26.5710   22.0100 C   0  0  0  0  0  2  0  0  0  0  0  0
  -19.1250  -28.6750   23.1630 C   0  0  0  0  0  0  0  0  0  0  0  0
  -18.8810  -29.9240   23.7730 C   0  0  0  0  0  3  0  0  0  0  0  0
  -17.5680  -30.4050   23.9340 C   0  0  0  0  0  3  0  0  0  0  0  0
  -16.4800  -29.6310   23.4940 C   0  0  0  0  0  3  0  0  0  0  0  0
  -16.7060  -28.3840   22.8850 C   0  0  0  0  0  3  0  0  0  0  0  0
  -25.8310  -32.3880   23.7950 C   0  0  0  0  0  3  0  0  0  0  0  0
  -26.3250  -31.6140   25.0800 C   0  0  1  0  0  0  0  0  0  0  0  0
  -25.2170  -31.3790   26.1340 C   0  0  0  0  0  1  0  0  0  0  0  0
  -26.9100  -30.2360   24.6960 C   0  0  0  0  0  1  0  0  0  0  0  0
  -27.4700  -32.4040   25.7590 C   0  0  0  0  0  1  0  0  0  0  0  0
  -25.5210  -33.7850   24.1250 N   0  0  0  0  0  0  0  0  0  0  0  0
  -25.8630  -34.8410   23.3750 C   0  0  0  0  0  0  0  0  0  0  0  0
  -26.5470  -34.7410   22.3530 O   0  0  0  0  0  0  0  0  0  0  0  0
  -24.9180  -33.9400   24.9210 H   0  0  0  0  0  0  0  0  0  0  0  0
  -24.1510  -36.6450   22.9990 C   0  0  0  0  0  1  0  0  0  0  0  0
  -25.3740  -36.2290   23.8320 C   0  0  0  0  0  3  0  0  0  0  0  0
  -27.4900  -37.1030   24.7180 C   0  0  0  0  0  1  0  0  0  0  0  0
  -26.4120  -37.2790   23.7480 N   0  0  0  0  0  0  0  0  0  0  0  0
  -26.0050  -38.2000   23.8890 H   0  0  0  0  0  0  0  0  0  0  0  0
  1  4  1  0
  2  1  2  0
  2  5  1  0
  3  6  1  0
  3 47  1  0
  4  6  2  0
  4 17  1  0
  5  3  2  0
  6  8  1  0
  7  5  1  0
  9 17  1  0
 10 15  1  0
 11 12  1  0
 11 10  1  0
 13 12  1  0
 13 22  1  0
 13 14  1  0
 15  9  1  0
 15 14  1  0
 16  9  2  0
 17 18  1  0
 19 20  2  0
 20 39  1  0
 21 20  1  0
 21 24  1  0
 22 19  1  0
 22 23  1  0
 23 21  2  0
 24 25  1  0
 25 26  2  0
 27 30  1  0
 27 26  1  0
 28 27  2  0
 29 28  1  0
 29 24  2  0
 30 31  1  0
 31 32  1  0
 32 33  2  0
 34 33  1  0
 34 38  1  0
 35 34  2  0
 36 31  2  0
 36 35  1  0
 37 36  1  0
 39 40  1  0
 40 43  1  0
 40 42  1  0
 41 39  2  0
 44 45  1  0
 44 19  1  0
 46 44  1  0
 48 49  2  0
 48 47  1  0
 49 50  1  0
 51 52  1  0
 51 49  1  0
 53 64  2  0
 54 52  1  0
 54 59  1  0
 55 63  1  0
 55 65  1  0
 56 62  1  0
 56 58  1  0
 57 63  1  0
 58 57  1  0
 59 58  2  0
 60 61  1  0
 60 54  2  0
 61 56  2  0
 62 55  1  0
 63 53  1  0
 65 67  2  0
 66 65  1  0
 68 66  1  0
 69 78  2  0
 69 74  1  0
 70 66  1  0
 70 74  1  0
 71 70  1  0
 72 73  1  0
 72 71  1  0
 73 69  1  0
 74 75  2  0
 75 76  1  0
 77 76  2  0
 78 77  1  0
 79 53  1  0
 79 84  1  0
 79 80  1  0
 80 83  1  1
 80 81  1  0
 82 80  1  0
 84 87  1  0
 85 89  1  0
 85 84  1  0
 86 85  2  0
 89 88  1  0
 91 89  1  0
 91 92  1  0
 91 90  1  0
M  ISO  4   9 100  17 100  51 101  52 101
M  END
>  <TORSDO>  (92) 
F 19

>  <SCORE>  (92) 
-14.058

>  <name>  (92) 
92

>  <ligand_id>  (92) 
92

>  <original_smiles>  (92) 
[H]C(=C(C([H])([H])[H])C([H])([H])Oc1c([H])c([H])c2c(c1[H])C([H])([H])N(C(=O)C([H])(N([H])C(=O)C([H])(N([H])C([H])([H])[H])C([H])([H])[H])C(C([H])([H])[H])(C([H])([H])[H])C([H])([H])[H])C([H])(C(=O)N([H])C1([H])c3c([H])c([H])c([H])c([H])c3C([H])([H])C([H])([H])C1([H])[H])C2([H])[H])C([H])([H])c1c(F)c([H])c([H])c(N([H])C(=O)N2C([H])([H])C([H])([H])C([H])([H])C([H])(n3nc(-c4c([H])c([H])c(Oc5c([H])c([H])c(F)c([H])c5F)c([H])c4[H])c(C(=O)N([H])[H])c3N([H])[H])C2([H])[H])c1F

>  <smiles>  (92) 
[H]C(=C(C([H])([H])[H])C([H])([H])Oc1c([H])c([H])c2c(c1[H])C([H])([H])N(C(=O)C([H])(N([H])C(=O)C([H])(N([H])C([H])([H])[H])C([H])([H])[H])C(C([H])([H])[H])(C([H])([H])[H])C([H])([H])[H])C([H])(C(=O)N([H])C1([H])c3c([H])c([H])c([H])c([H])c3C([H])([H])C([H])([H])C1([H])[H])C2([H])[H])C([H])([H])c1c(F)c([H])c([H])c(N([H])C(=O)N2C([H])([H])C([H])([H])C([H])([H])C([H])(n3nc(-c4c([H])c([H])c(Oc5c([H])c([H])c(F)c([H])c5F)c([H])c4[H])c(C(=O)N([H])[H])c3N([H])[H])C2([H])[H])c1F

$$$$
93:0:0
     RDKit          3D

 91 99  0  0  1  0  0  0  0  0999 V2000
  -28.7760  -19.7170   21.3690 C   0  0  0  0  0  3  0  0  0  0  0  0
  -29.0960  -18.3090   21.3800 C   0  0  0  0  0  3  0  0  0  0  0  0
  -29.6810  -19.9230   19.1960 C   0  0  0  0  0  0  0  0  0  0  0  0
  -29.0360  -20.6170   20.2860 C   0  0  0  0  0  0  0  0  0  0  0  0
  -29.7290  -17.6030   20.3080 C   0  0  0  0  0  0  0  0  0  0  0  0
  -30.0140  -18.4900   19.2090 C   0  0  0  0  0  0  0  0  0  0  0  0
  -29.9230  -20.7140   17.9250 C   0  0  0  0  0  1  0  0  0  0  0  0
  -30.5500  -17.9380   18.0950 F   0  0  0  0  0  0  0  0  0  0  0  0
  -30.6800  -15.0350   19.9220 C   0  0  0  0  0  0  0  0  0  0  0  0
  -30.5860  -12.6960   18.9490 C   0  0  0  0  0  2  0  0  0  0  0  0
  -29.5700  -12.6770   17.7800 C   0  0  0  0  0  2  0  0  0  0  0  0
  -28.1330  -12.4480   18.2940 C   0  0  0  0  0  2  0  0  0  0  0  0
  -27.8040  -13.3420   19.5190 C   0  0  0  0  0  3  0  0  0  0  0  0
  -28.9260  -13.3020   20.5780 C   0  0  0  0  0  2  0  0  0  0  0  0
  -30.1600  -13.7450   19.9150 N   0  0  0  0  0  0  0  0  0  0  0  0
  -31.8140  -15.2070   19.4620 O   0  0  0  0  0  0  0  0  0  0  0  0
  -29.8410  -16.0790   20.3700 N   0  0  0  0  0  0  0  0  0  0  0  0
  -29.0540  -15.6740   20.8520 H   0  0  0  0  0  0  0  0  0  0  0  0
  -25.4900  -13.9060   20.4660 C   0  0  0  0  0  0  0  0  0  0  0  0
  -24.4470  -13.1220   20.8780 C   0  0  0  0  0  0  0  0  0  0  0  0
  -24.8900  -11.7710   20.7360 C   0  0  0  0  0  0  0  0  0  0  0  0
  -26.5000  -13.0330   20.0960 N   0  0  0  0  0  0  0  0  0  0  0  0
  -26.1510  -11.7390   20.3190 N   0  0  0  0  0  0  0  0  0  0  0  0
  -24.1660  -10.5060   20.9150 C   0  0  0  0  0  0  0  0  0  0  0  0
  -24.5670   -9.5520   21.8750 C   0  0  0  0  0  3  0  0  0  0  0  0
  -23.8410   -8.3520   22.0420 C   0  0  0  0  0  3  0  0  0  0  0  0
  -22.6990   -8.0990   21.2450 C   0  0  0  0  0  0  0  0  0  0  0  0
  -22.3160   -9.0410   20.2740 C   0  0  0  0  0  3  0  0  0  0  0  0
  -23.0440  -10.2310   20.1060 C   0  0  0  0  0  3  0  0  0  0  0  0
  -21.9480   -6.9510   21.3170 O   0  0  0  0  0  0  0  0  0  0  0  0
  -21.7340   -6.3040   22.5080 C   0  0  0  0  0  0  0  0  0  0  0  0
  -21.0850   -6.9330   23.5930 C   0  0  0  0  0  3  0  0  0  0  0  0
  -20.8220   -6.2110   24.7740 C   0  0  0  0  0  3  0  0  0  0  0  0
  -21.2020   -4.8580   24.8690 C   0  0  0  0  0  0  0  0  0  0  0  0
  -21.8440   -4.2270   23.7900 C   0  0  0  0  0  3  0  0  0  0  0  0
  -22.1080   -4.9490   22.6120 C   0  0  0  0  0  0  0  0  0  0  0  0
  -22.7060   -4.3300   21.5650 F   0  0  0  0  0  0  0  0  0  0  0  0
  -20.9470   -4.1600   26.0010 F   0  0  0  0  0  0  0  0  0  0  0  0
  -23.0830  -13.5940   21.2870 C   0  0  0  0  0  0  0  0  0  0  0  0
  -22.4180  -12.8570   22.1670 N   0  0  0  0  0  0  0  0  0  0  0  0
  -22.6220  -14.6540   20.8650 O   0  0  0  0  0  0  0  0  0  0  0  0
  -22.8080  -12.0010   22.5330 H   0  0  0  0  0  0  0  0  0  0  0  0
  -21.5040  -13.1510   22.4800 H   0  0  0  0  0  0  0  0  0  0  0  0
  -25.6560  -15.2840   20.3500 N   0  0  0  0  0  0  0  0  0  0  0  0
  -24.9040  -15.9330   20.5480 H   0  0  0  0  0  0  0  0  0  0  0  0
  -26.4720  -15.7340   19.9570 H   0  0  0  0  0  0  0  0  0  0  0  0
  -28.5240  -22.0130   20.3530 N   0  0  0  0  0  0  0  0  0  0  0  0
  -27.8160  -22.1120   21.0780 H   0  0  0  0  0  0  0  0  0  0  0  0
  -29.0210  -23.4230   19.9260 C   0  0  0  0  0  3  0  0  0  0  0  0
  -27.9840  -24.7460   19.9810 C   0  0  0  0  0  3  0  0  0  0  0  0
  -28.2980  -26.2630   19.8490 O   0  0  0  0  0  0  0  0  0  0  0  0
  -24.6820  -31.7990   23.0820 C   0  0  0  0  0  0  0  0  0  0  0  0
  -27.2380  -27.2350   19.8400 C   0  0  0  0  0  0  0  0  0  0  0  0
  -23.4680  -30.4570   21.4090 C   0  0  0  0  0  3  0  0  0  0  0  0
  -24.9020  -28.9570   19.9040 C   0  0  0  0  0  0  0  0  0  0  0  0
  -26.0140  -30.7530   21.2130 C   0  0  0  0  0  2  0  0  0  0  0  0
  -26.0860  -29.3860   20.5160 C   0  0  0  0  0  0  0  0  0  0  0  0
  -27.2560  -28.5420   20.4710 C   0  0  0  0  0  3  0  0  0  0  0  0
  -26.0270  -26.9130   19.1850 C   0  0  0  0  0  3  0  0  0  0  0  0
  -24.8840  -27.7340   19.2230 C   0  0  0  0  0  3  0  0  0  0  0  0
  -23.6710  -29.8380   20.0020 C   0  0  0  0  0  2  0  0  0  0  0  0
  -24.7430  -31.0220   21.9570 N   0  0  0  0  0  0  0  0  0  0  0  0
  -23.6030  -32.0510   23.6380 O   0  0  0  0  0  0  0  0  0  0  0  0
  -22.8180  -29.4040   22.3390 C   0  0  0  0  0  0  0  0  0  0  0  0
  -21.4920  -29.2180   22.2220 N   0  0  0  0  0  0  0  0  0  0  0  0
  -23.5060  -28.7580   23.1320 O   0  0  0  0  0  0  0  0  0  0  0  0
  -20.9930  -29.7870   21.5540 H   0  0  0  0  0  0  0  0  0  0  0  0
  -18.1260  -27.9820   22.7530 C   0  0  0  0  0  0  0  0  0  0  0  0
  -20.6900  -28.2450   22.9700 C   0  0  0  0  0  3  0  0  0  0  0  0
  -20.7830  -26.8390   22.3330 C   0  0  0  0  0  2  0  0  0  0  0  0
  -19.6570  -26.5550   21.3330 C   0  0  0  0  0  2  0  0  0  0  0  0
  -18.2900  -26.6650   22.0140 C   0  0  0  0  0  2  0  0  0  0  0  0
  -19.2520  -28.7310   23.1890 C   0  0  0  0  0  0  0  0  0  0  0  0
  -19.0410  -29.9640   23.8430 C   0  0  0  0  0  3  0  0  0  0  0  0
  -17.7390  -30.4470   24.0660 C   0  0  0  0  0  3  0  0  0  0  0  0
  -16.6280  -29.6970   23.6430 C   0  0  0  0  0  3  0  0  0  0  0  0
  -16.8220  -28.4670   22.9910 C   0  0  0  0  0  3  0  0  0  0  0  0
  -25.9640  -32.4230   23.7120 C   0  0  0  0  0  3  0  0  0  0  0  0
  -26.5010  -31.6100   24.9530 C   0  0  1  0  0  0  0  0  0  0  0  0
  -25.4190  -31.3100   26.0180 C   0  0  0  0  0  1  0  0  0  0  0  0
  -27.1050  -30.2580   24.5080 C   0  0  0  0  0  1  0  0  0  0  0  0
  -27.6420  -32.3970   25.6370 C   0  0  0  0  0  1  0  0  0  0  0  0
  -25.6430  -33.8050   24.1030 N   0  0  0  0  0  0  0  0  0  0  0  0
  -25.9350  -34.8920   23.3750 C   0  0  0  0  0  0  0  0  0  0  0  0
  -26.5720  -34.8350   22.3210 O   0  0  0  0  0  0  0  0  0  0  0  0
  -25.0700  -33.9180   24.9270 H   0  0  0  0  0  0  0  0  0  0  0  0
  -24.1740  -36.6750   23.1440 C   0  0  0  0  0  1  0  0  0  0  0  0
  -25.4460  -36.2590   23.8990 C   0  0  0  0  0  3  0  0  0  0  0  0
  -27.5930  -37.1450   24.7000 C   0  0  0  0  0  1  0  0  0  0  0  0
  -26.4620  -37.3290   23.7930 N   0  0  0  0  0  0  0  0  0  0  0  0
  -26.0500  -38.2390   23.9810 H   0  0  0  0  0  0  0  0  0  0  0  0
  1  2  1  0
  3  6  2  0
  3  4  1  0
  4 47  1  0
  4  1  2  0
  5 17  1  0
  5  2  2  0
  6  5  1  0
  7  3  1  0
  8  6  1  0
  9 17  1  0
 10 15  1  0
 11 12  1  0
 11 10  1  0
 13 12  1  0
 13 22  1  0
 13 14  1  0
 15  9  1  0
 15 14  1  0
 16  9  2  0
 17 18  1  0
 19 20  2  0
 20 39  1  0
 21 20  1  0
 21 24  1  0
 22 23  1  0
 22 19  1  0
 23 21  2  0
 24 25  1  0
 25 26  2  0
 27 30  1  0
 27 26  1  0
 28 27  2  0
 29 28  1  0
 29 24  2  0
 30 31  1  0
 31 36  2  0
 31 32  1  0
 32 33  2  0
 33 34  1  0
 34 38  1  0
 35 34  2  0
 36 35  1  0
 37 36  1  0
 39 40  1  0
 40 43  1  0
 40 42  1  0
 41 39  2  0
 44 19  1  0
 44 45  1  0
 46 44  1  0
 47 48  1  0
 49 50  2  0
 49 47  1  0
 51 50  1  0
 52 63  2  0
 53 51  1  0
 53 58  1  0
 54 62  1  0
 54 64  1  0
 55 61  1  0
 55 57  1  0
 56 62  1  0
 57 56  1  0
 58 57  2  0
 59 60  1  0
 59 53  2  0
 60 55  2  0
 61 54  1  0
 62 52  1  0
 64 66  2  0
 65 64  1  0
 67 65  1  0
 68 77  2  0
 68 73  1  0
 69 65  1  0
 69 73  1  0
 70 69  1  0
 71 72  1  0
 71 70  1  0
 72 68  1  0
 73 74  2  0
 74 75  1  0
 76 75  2  0
 77 76  1  0
 78 52  1  0
 78 83  1  0
 78 79  1  0
 79 82  1  1
 79 80  1  0
 81 79  1  0
 83 86  1  0
 84 88  1  0
 84 83  1  0
 85 84  2  0
 88 87  1  0
 90 88  1  0
 90 91  1  0
 90 89  1  0
M  ISO  4   9 100  17 100  50 101  51 101
M  END
>  <TORSDO>  (93) 
F 19

>  <SCORE>  (93) 
-12.508

>  <name>  (93) 
93

>  <ligand_id>  (93) 
93

>  <original_smiles>  (93) 
[H]c1c([H])c([H])c2c(c1[H])C([H])([H])C([H])([H])C([H])([H])C2([H])N([H])C(=O)C1([H])N(C(=O)C([H])(N([H])C(=O)C([H])(N([H])C([H])([H])[H])C([H])([H])[H])C(C([H])([H])[H])(C([H])([H])[H])C([H])([H])[H])C([H])([H])c2c([H])c(OC([H])([H])C([H])([H])N([H])c3c([H])c([H])c(N([H])C(=O)N4C([H])([H])C([H])([H])C([H])([H])C([H])(n5nc(-c6c([H])c([H])c(Oc7c([H])c([H])c(F)c([H])c7F)c([H])c6[H])c(C(=O)N([H])[H])c5N([H])[H])C4([H])[H])c(F)c3C([H])([H])[H])c([H])c([H])c2C1([H])[H]

>  <smiles>  (93) 
[H]c1c([H])c([H])c2c(c1[H])C([H])([H])C([H])([H])C([H])([H])C2([H])N([H])C(=O)C1([H])N(C(=O)C([H])(N([H])C(=O)C([H])(N([H])C([H])([H])[H])C([H])([H])[H])C(C([H])([H])[H])(C([H])([H])[H])C([H])([H])[H])C([H])([H])c2c([H])c(OC([H])([H])C([H])([H])N([H])c3c([H])c([H])c(N([H])C(=O)N4C([H])([H])C([H])([H])C([H])([H])C([H])(n5nc(-c6c([H])c([H])c(Oc7c([H])c([H])c(F)c([H])c7F)c([H])c6[H])c(C(=O)N([H])[H])c5N([H])[H])C4([H])[H])c(F)c3C([H])([H])[H])c([H])c([H])c2C1([H])[H]

$$$$
94:0:0
     RDKit          3D

 90 98  0  0  1  0  0  0  0  0999 V2000
  -30.6800  -18.4140   19.3230 C   0  0  0  0  0  3  0  0  0  0  0  0
  -28.4930  -19.8010   20.3620 C   0  0  0  0  0  3  0  0  0  0  0  0
  -29.7340  -17.5720   19.9900 C   0  0  0  0  0  0  0  0  0  0  0  0
  -29.4230  -20.6410   19.6660 C   0  0  0  0  0  0  0  0  0  0  0  0
  -30.5240  -19.8520   19.1650 C   0  0  0  0  0  0  0  0  0  0  0  0
  -28.6370  -18.3550   20.5000 C   0  0  0  0  0  0  0  0  0  0  0  0
  -31.4900  -20.5050   18.4730 F   0  0  0  0  0  0  0  0  0  0  0  0
  -27.6510  -17.6850   21.1440 F   0  0  0  0  0  0  0  0  0  0  0  0
  -30.5120  -14.9320   19.7000 C   0  0  0  0  0  0  0  0  0  0  0  0
  -30.2960  -12.6140   18.7030 C   0  0  0  0  0  2  0  0  0  0  0  0
  -29.2350  -12.6390   17.5770 C   0  0  0  0  0  2  0  0  0  0  0  0
  -27.8200  -12.4310   18.1510 C   0  0  0  0  0  2  0  0  0  0  0  0
  -27.5560  -13.3090   19.4020 C   0  0  0  0  0  3  0  0  0  0  0  0
  -28.7240  -13.2430   20.4110 C   0  0  0  0  0  2  0  0  0  0  0  0
  -29.9380  -13.6640   19.6980 N   0  0  0  0  0  0  0  0  0  0  0  0
  -31.6470  -15.0520   19.2250 O   0  0  0  0  0  0  0  0  0  0  0  0
  -29.7370  -16.0410   20.1180 N   0  0  0  0  0  0  0  0  0  0  0  0
  -28.9170  -15.7190   20.6100 H   0  0  0  0  0  0  0  0  0  0  0  0
  -25.2720  -13.8870   20.4060 C   0  0  0  0  0  0  0  0  0  0  0  0
  -24.2410  -13.1110   20.8560 C   0  0  0  0  0  0  0  0  0  0  0  0
  -24.6790  -11.7570   20.7250 C   0  0  0  0  0  0  0  0  0  0  0  0
  -26.2710  -13.0080   20.0240 N   0  0  0  0  0  0  0  0  0  0  0  0
  -25.9300  -11.7180   20.2790 N   0  0  0  0  0  0  0  0  0  0  0  0
  -23.9570  -10.4960   20.9410 C   0  0  0  0  0  0  0  0  0  0  0  0
  -24.4420   -9.5090   21.8270 C   0  0  0  0  0  3  0  0  0  0  0  0
  -23.7190   -8.3140   22.0340 C   0  0  0  0  0  3  0  0  0  0  0  0
  -22.4960   -8.0990   21.3570 C   0  0  0  0  0  0  0  0  0  0  0  0
  -22.0280   -9.0750   20.4590 C   0  0  0  0  0  3  0  0  0  0  0  0
  -22.7520  -10.2600   20.2490 C   0  0  0  0  0  3  0  0  0  0  0  0
  -21.7380   -6.9580   21.4760 O   0  0  0  0  0  0  0  0  0  0  0  0
  -21.7300   -6.2180   22.6310 C   0  0  0  0  0  0  0  0  0  0  0  0
  -21.3310   -6.7710   23.8670 C   0  0  0  0  0  3  0  0  0  0  0  0
  -21.2710   -5.9560   25.0150 C   0  0  0  0  0  3  0  0  0  0  0  0
  -21.5960   -4.5900   24.9290 C   0  0  0  0  0  0  0  0  0  0  0  0
  -21.9870   -4.0360   23.6970 C   0  0  0  0  0  3  0  0  0  0  0  0
  -22.0500   -4.8480   22.5500 C   0  0  0  0  0  0  0  0  0  0  0  0
  -22.4070   -4.3050   21.3620 F   0  0  0  0  0  0  0  0  0  0  0  0
  -21.5310   -3.8050   26.0300 F   0  0  0  0  0  0  0  0  0  0  0  0
  -22.8870  -13.5920   21.2920 C   0  0  0  0  0  0  0  0  0  0  0  0
  -22.2490  -12.8760   22.2100 N   0  0  0  0  0  0  0  0  0  0  0  0
  -22.4100  -14.6380   20.8530 O   0  0  0  0  0  0  0  0  0  0  0  0
  -22.6500  -12.0290   22.5840 H   0  0  0  0  0  0  0  0  0  0  0  0
  -21.3440  -13.1800   22.5440 H   0  0  0  0  0  0  0  0  0  0  0  0
  -25.4350  -15.2620   20.2640 N   0  0  0  0  0  0  0  0  0  0  0  0
  -24.6950  -15.9170   20.4920 H   0  0  0  0  0  0  0  0  0  0  0  0
  -26.2470  -15.7110   19.8610 H   0  0  0  0  0  0  0  0  0  0  0  0
  -29.3480  -22.0780   19.3640 O   0  0  0  0  0  0  0  0  0  0  0  0
  -28.6350  -23.2610   20.0410 C   0  0  0  0  0  2  0  0  0  0  0  0
  -28.4330  -24.7510   19.2670 C   0  0  0  0  0  2  0  0  0  0  0  0
  -28.3950  -26.2040   19.8330 O   0  0  0  0  0  0  0  0  0  0  0  0
  -24.6650  -31.6640   23.0420 C   0  0  0  0  0  0  0  0  0  0  0  0
  -27.2950  -27.1370   19.7780 C   0  0  0  0  0  0  0  0  0  0  0  0
  -23.4700  -30.3170   21.3580 C   0  0  0  0  0  3  0  0  0  0  0  0
  -24.9290  -28.8330   19.8490 C   0  0  0  0  0  0  0  0  0  0  0  0
  -26.0150  -30.6370   21.1770 C   0  0  0  0  0  2  0  0  0  0  0  0
  -26.1050  -29.2760   20.4650 C   0  0  0  0  0  0  0  0  0  0  0  0
  -27.2840  -28.4430   20.4170 C   0  0  0  0  0  3  0  0  0  0  0  0
  -26.0880  -26.7950   19.1300 C   0  0  0  0  0  3  0  0  0  0  0  0
  -24.9330  -27.6050   19.1690 C   0  0  0  0  0  3  0  0  0  0  0  0
  -23.6860  -29.7030   19.9490 C   0  0  0  0  0  2  0  0  0  0  0  0
  -24.7360  -30.8920   21.9150 N   0  0  0  0  0  0  0  0  0  0  0  0
  -23.5800  -31.9060   23.5940 O   0  0  0  0  0  0  0  0  0  0  0  0
  -22.8210  -29.2580   22.2840 C   0  0  0  0  0  0  0  0  0  0  0  0
  -21.4920  -29.0820   22.1770 N   0  0  0  0  0  0  0  0  0  0  0  0
  -23.5150  -28.5970   23.0610 O   0  0  0  0  0  0  0  0  0  0  0  0
  -20.9880  -29.6680   21.5260 H   0  0  0  0  0  0  0  0  0  0  0  0
  -18.1260  -27.8550   22.7150 C   0  0  0  0  0  0  0  0  0  0  0  0
  -20.6920  -28.1040   22.9190 C   0  0  0  0  0  3  0  0  0  0  0  0
  -20.7760  -26.7060   22.2620 C   0  0  0  0  0  2  0  0  0  0  0  0
  -19.6430  -26.4400   21.2650 C   0  0  0  0  0  2  0  0  0  0  0  0
  -18.2810  -26.5460   21.9580 C   0  0  0  0  0  2  0  0  0  0  0  0
  -19.2580  -28.5940   23.1530 C   0  0  0  0  0  0  0  0  0  0  0  0
  -19.0570  -29.8180   23.8240 C   0  0  0  0  0  3  0  0  0  0  0  0
  -17.7570  -30.3060   24.0600 C   0  0  0  0  0  3  0  0  0  0  0  0
  -16.6410  -29.5650   23.6370 C   0  0  0  0  0  3  0  0  0  0  0  0
  -16.8270  -28.3390   22.9710 C   0  0  0  0  0  3  0  0  0  0  0  0
  -25.9380  -32.2940   23.6820 C   0  0  0  0  0  3  0  0  0  0  0  0
  -26.4710  -31.4850   24.9290 C   0  0  1  0  0  0  0  0  0  0  0  0
  -25.3890  -31.2010   25.9960 C   0  0  0  0  0  1  0  0  0  0  0  0
  -27.0660  -30.1280   24.4900 C   0  0  0  0  0  1  0  0  0  0  0  0
  -27.6200  -32.2690   25.6100 C   0  0  0  0  0  1  0  0  0  0  0  0
  -25.6080  -33.6750   24.0710 N   0  0  0  0  0  0  0  0  0  0  0  0
  -25.9270  -34.7670   23.3630 C   0  0  0  0  0  0  0  0  0  0  0  0
  -26.5980  -34.7180   22.3290 O   0  0  0  0  0  0  0  0  0  0  0  0
  -25.0110  -33.7850   24.8780 H   0  0  0  0  0  0  0  0  0  0  0  0
  -24.1770  -36.5550   23.0950 C   0  0  0  0  0  1  0  0  0  0  0  0
  -25.4250  -36.1280   23.8850 C   0  0  0  0  0  3  0  0  0  0  0  0
  -27.5470  -37.0060   24.7570 C   0  0  0  0  0  1  0  0  0  0  0  0
  -26.4450  -37.1970   23.8160 N   0  0  0  0  0  0  0  0  0  0  0  0
  -26.0260  -38.1060   23.9980 H   0  0  0  0  0  0  0  0  0  0  0  0
  1  3  1  0
  2  6  1  0
  3 17  1  0
  3  6  2  0
  4  2  2  0
  5  1  2  0
  5  4  1  0
  6  8  1  0
  7  5  1  0
  9 17  1  0
 10 15  1  0
 11 12  1  0
 11 10  1  0
 13 12  1  0
 13 22  1  0
 13 14  1  0
 15  9  1  0
 15 14  1  0
 16  9  2  0
 17 18  1  0
 19 20  2  0
 20 39  1  0
 21 20  1  0
 21 24  1  0
 22 23  1  0
 22 19  1  0
 23 21  2  0
 24 25  1  0
 25 26  2  0
 27 30  1  0
 27 26  1  0
 28 27  2  0
 29 28  1  0
 29 24  2  0
 30 31  1  0
 31 32  1  0
 32 33  2  0
 34 33  1  0
 34 38  1  0
 35 34  2  0
 36 31  2  0
 36 35  1  0
 37 36  1  0
 39 40  1  0
 40 43  1  0
 40 42  1  0
 41 39  2  0
 44 19  1  0
 44 45  1  0
 46 44  1  0
 47  4  1  0
 47 48  1  0
 49 50  1  0
 49 48  1  0
 51 62  2  0
 52 50  1  0
 52 57  1  0
 53 61  1  0
 53 63  1  0
 54 60  1  0
 54 56  1  0
 55 61  1  0
 56 55  1  0
 57 56  2  0
 58 59  1  0
 58 52  2  0
 59 54  2  0
 60 53  1  0
 61 51  1  0
 63 65  2  0
 64 63  1  0
 66 64  1  0
 67 76  2  0
 67 72  1  0
 68 64  1  0
 68 72  1  0
 69 68  1  0
 70 71  1  0
 70 69  1  0
 71 67  1  0
 72 73  2  0
 73 74  1  0
 75 74  2  0
 76 75  1  0
 77 51  1  0
 77 82  1  0
 77 78  1  0
 78 81  1  1
 78 79  1  0
 80 78  1  0
 82 85  1  0
 83 87  1  0
 83 82  1  0
 84 83  2  0
 87 86  1  0
 89 87  1  0
 89 90  1  0
 89 88  1  0
M  ISO  4   9 100  17 100  49 101  50 101
M  END
>  <TORSDO>  (94) 
F 19

>  <SCORE>  (94) 
-13.201

>  <name>  (94) 
94

>  <ligand_id>  (94) 
94

>  <original_smiles>  (94) 
[H]c1c([H])c([H])c2c(c1[H])C([H])([H])C([H])([H])C([H])([H])C2([H])N([H])C(=O)C1([H])N(C(=O)C([H])(N([H])C(=O)C([H])(N([H])C([H])([H])[H])C([H])([H])[H])C(C([H])([H])[H])(C([H])([H])[H])C([H])([H])[H])C([H])([H])c2c([H])c(OC([H])([H])C([H])([H])Oc3c([H])c(F)c(N([H])C(=O)N4C([H])([H])C([H])([H])C([H])([H])C([H])(n5nc(-c6c([H])c([H])c(Oc7c([H])c([H])c(F)c([H])c7F)c([H])c6[H])c(C(=O)N([H])[H])c5N([H])[H])C4([H])[H])c([H])c3F)c([H])c([H])c2C1([H])[H]

>  <smiles>  (94) 
[H]c1c([H])c([H])c2c(c1[H])C([H])([H])C([H])([H])C([H])([H])C2([H])N([H])C(=O)C1([H])N(C(=O)C([H])(N([H])C(=O)C([H])(N([H])C([H])([H])[H])C([H])([H])[H])C(C([H])([H])[H])(C([H])([H])[H])C([H])([H])[H])C([H])([H])c2c([H])c(OC([H])([H])C([H])([H])Oc3c([H])c(F)c(N([H])C(=O)N4C([H])([H])C([H])([H])C([H])([H])C([H])(n5nc(-c6c([H])c([H])c(Oc7c([H])c([H])c(F)c([H])c7F)c([H])c6[H])c(C(=O)N([H])[H])c5N([H])[H])C4([H])[H])c([H])c3F)c([H])c([H])c2C1([H])[H]

$$$$
95:0:0
     RDKit          3D

 92101  0  0  1  0  0  0  0  0999 V2000
  -28.0810  -23.9730   19.1170 C   0  0  0  0  0  2  0  0  0  0  0  0
  -29.3080  -24.2210   21.1860 C   0  0  0  0  0  2  0  0  0  0  0  0
  -27.9650  -22.4050   19.3870 C   0  0  0  0  0  2  0  0  0  0  0  0
  -29.2330  -22.6460   21.4300 C   0  0  0  0  0  2  0  0  0  0  0  0
  -28.1310  -24.8920   20.3900 C   0  0  0  0  0  3  0  0  0  0  0  0
  -29.0380  -21.8070   20.2230 N   0  0  0  0  0  0  0  0  0  0  0  0
  -30.3840  -19.7220   20.8700 C   0  0  0  0  0  3  0  0  0  0  0  0
  -30.5870  -18.2910   20.9340 C   0  0  0  0  0  3  0  0  0  0  0  0
  -28.2910  -19.3950   19.7940 C   0  0  0  0  0  3  0  0  0  0  0  0
  -29.2270  -20.3480   20.2980 C   0  0  0  0  0  0  0  0  0  0  0  0
  -29.6270  -17.3540   20.4450 C   0  0  0  0  0  0  0  0  0  0  0  0
  -28.4730  -17.9710   19.8800 C   0  0  0  0  0  0  0  0  0  0  0  0
  -27.4880  -17.1610   19.4170 F   0  0  0  0  0  0  0  0  0  0  0  0
  -30.5120  -14.8200   20.3660 C   0  0  0  0  0  0  0  0  0  0  0  0
  -30.3850  -12.5310   19.3460 C   0  0  0  0  0  2  0  0  0  0  0  0
  -29.4230  -12.5900   18.1360 C   0  0  0  0  0  2  0  0  0  0  0  0
  -27.9580  -12.4010   18.5800 C   0  0  0  0  0  2  0  0  0  0  0  0
  -27.5900  -13.2780   19.8060 C   0  0  0  0  0  3  0  0  0  0  0  0
  -28.6620  -13.1740   20.9120 C   0  0  0  0  0  2  0  0  0  0  0  0
  -29.9480  -13.5630   20.3140 N   0  0  0  0  0  0  0  0  0  0  0  0
  -31.6920  -14.9850   20.0340 O   0  0  0  0  0  0  0  0  0  0  0  0
  -29.6350  -15.8700   20.6070 N   0  0  0  0  0  0  0  0  0  0  0  0
  -28.7040  -15.5090   20.7450 H   0  0  0  0  0  0  0  0  0  0  0  0
  -25.2090  -13.8640   20.5620 C   0  0  0  0  0  0  0  0  0  0  0  0
  -24.1480  -13.0860   20.9380 C   0  0  0  0  0  0  0  0  0  0  0  0
  -24.6120  -11.7360   20.8910 C   0  0  0  0  0  0  0  0  0  0  0  0
  -26.2500  -12.9860   20.3070 N   0  0  0  0  0  0  0  0  0  0  0  0
  -25.8990  -11.7010   20.5670 N   0  0  0  0  0  0  0  0  0  0  0  0
  -23.8890  -10.4710   21.0780 C   0  0  0  0  0  0  0  0  0  0  0  0
  -24.3350   -9.4930   21.9930 C   0  0  0  0  0  3  0  0  0  0  0  0
  -23.6110   -8.2930   22.1680 C   0  0  0  0  0  3  0  0  0  0  0  0
  -22.4260   -8.0640   21.4300 C   0  0  0  0  0  0  0  0  0  0  0  0
  -21.9990   -9.0320   20.5030 C   0  0  0  0  0  3  0  0  0  0  0  0
  -22.7240  -10.2230   20.3260 C   0  0  0  0  0  3  0  0  0  0  0  0
  -21.6730   -6.9190   21.5150 O   0  0  0  0  0  0  0  0  0  0  0  0
  -21.6460   -6.1600   22.6580 C   0  0  0  0  0  0  0  0  0  0  0  0
  -21.2250   -6.6910   23.8960 C   0  0  0  0  0  3  0  0  0  0  0  0
  -21.1450   -5.8570   25.0300 C   0  0  0  0  0  3  0  0  0  0  0  0
  -21.4780   -4.4930   24.9270 C   0  0  0  0  0  0  0  0  0  0  0  0
  -21.8940   -3.9620   23.6920 C   0  0  0  0  0  3  0  0  0  0  0  0
  -21.9740   -4.7930   22.5610 C   0  0  0  0  0  0  0  0  0  0  0  0
  -22.3550   -4.2700   21.3700 F   0  0  0  0  0  0  0  0  0  0  0  0
  -21.3960   -3.6910   26.0130 F   0  0  0  0  0  0  0  0  0  0  0  0
  -22.7530  -13.5590   21.2260 C   0  0  0  0  0  0  0  0  0  0  0  0
  -22.0370  -12.8600   22.0990 N   0  0  0  0  0  0  0  0  0  0  0  0
  -22.3070  -14.5850   20.7130 O   0  0  0  0  0  0  0  0  0  0  0  0
  -22.4110  -12.0300   22.5350 H   0  0  0  0  0  0  0  0  0  0  0  0
  -21.1000  -13.1580   22.3350 H   0  0  0  0  0  0  0  0  0  0  0  0
  -25.3630  -15.2370   20.3920 N   0  0  0  0  0  0  0  0  0  0  0  0
  -24.5820  -15.8710   20.5060 H   0  0  0  0  0  0  0  0  0  0  0  0
  -26.1800  -15.6970   20.0050 H   0  0  0  0  0  0  0  0  0  0  0  0
  -28.2860  -26.3950   20.2240 O   0  0  0  0  0  0  0  0  0  0  0  0
  -24.6050  -31.9160   23.2410 C   0  0  0  0  0  0  0  0  0  0  0  0
  -27.1730  -27.2770   20.2010 C   0  0  0  0  0  0  0  0  0  0  0  0
  -23.3900  -30.5200   21.6080 C   0  0  0  0  0  3  0  0  0  0  0  0
  -24.8270  -28.9460   20.1840 C   0  0  0  0  0  0  0  0  0  0  0  0
  -25.9360  -30.8080   21.4190 C   0  0  0  0  0  2  0  0  0  0  0  0
  -26.0040  -29.4220   20.7730 C   0  0  0  0  0  0  0  0  0  0  0  0
  -27.1820  -28.6030   20.7600 C   0  0  0  0  0  3  0  0  0  0  0  0
  -25.9670  -26.8650   19.5970 C   0  0  0  0  0  3  0  0  0  0  0  0
  -24.8140  -27.6770   19.5840 C   0  0  0  0  0  3  0  0  0  0  0  0
  -23.5980  -29.8370   20.2300 C   0  0  0  0  0  2  0  0  0  0  0  0
  -24.6630  -31.1000   22.1450 N   0  0  0  0  0  0  0  0  0  0  0  0
  -23.5250  -32.2030   23.7760 O   0  0  0  0  0  0  0  0  0  0  0  0
  -22.7190  -29.5140   22.5740 C   0  0  0  0  0  0  0  0  0  0  0  0
  -21.3910  -29.3440   22.4500 N   0  0  0  0  0  0  0  0  0  0  0  0
  -23.3930  -28.8900   23.3970 O   0  0  0  0  0  0  0  0  0  0  0  0
  -20.9050  -29.8990   21.7600 H   0  0  0  0  0  0  0  0  0  0  0  0
  -18.0080  -28.1610   22.9590 C   0  0  0  0  0  0  0  0  0  0  0  0
  -20.5680  -28.4130   23.2260 C   0  0  0  0  0  3  0  0  0  0  0  0
  -20.6650  -26.9790   22.6570 C   0  0  0  0  0  2  0  0  0  0  0  0
  -19.5610  -26.6560   21.6450 C   0  0  0  0  0  2  0  0  0  0  0  0
  -18.1800  -26.8080   22.2890 C   0  0  0  0  0  2  0  0  0  0  0  0
  -19.1300  -28.9220   23.3850 C   0  0  0  0  0  0  0  0  0  0  0  0
  -18.9150  -30.1870   23.9710 C   0  0  0  0  0  3  0  0  0  0  0  0
  -17.6110  -30.6920   24.1380 C   0  0  0  0  0  3  0  0  0  0  0  0
  -16.5050  -29.9280   23.7280 C   0  0  0  0  0  3  0  0  0  0  0  0
  -16.7040  -28.6660   23.1440 C   0  0  0  0  0  3  0  0  0  0  0  0
  -25.8910  -32.5450   23.8580 C   0  0  0  0  0  3  0  0  0  0  0  0
  -25.5870  -33.9440   24.1930 N   0  0  0  0  0  0  0  0  0  0  0  0
  -25.9000  -34.9970   23.4280 C   0  0  0  0  0  0  0  0  0  0  0  0
  -26.5450  -34.8940   22.3800 O   0  0  0  0  0  0  0  0  0  0  0  0
  -25.0120  -34.0980   25.0080 H   0  0  0  0  0  0  0  0  0  0  0  0
  -24.1560  -36.7850   23.1270 C   0  0  0  0  0  1  0  0  0  0  0  0
  -25.4250  -36.3870   23.8970 C   0  0  0  0  0  3  0  0  0  0  0  0
  -27.5820  -37.2830   24.6550 C   0  0  0  0  0  1  0  0  0  0  0  0
  -26.4500  -37.4420   23.7460 N   0  0  0  0  0  0  0  0  0  0  0  0
  -26.0450  -38.3620   23.9010 H   0  0  0  0  0  0  0  0  0  0  0  0
  -26.4090  -31.7720   25.1350 C   0  0  1  0  0  0  0  0  0  0  0  0
  -25.3170  -31.5380   26.2060 C   0  0  0  0  0  1  0  0  0  0  0  0
  -26.9860  -30.3920   24.7430 C   0  0  0  0  0  1  0  0  0  0  0  0
  -27.5640  -32.5630   25.7930 C   0  0  0  0  0  1  0  0  0  0  0  0
  1  3  1  0
  1  5  1  0
  2  4  1  0
  3  6  1  0
  5 52  1  0
  5  2  1  0
  6 10  1  0
  6  4  1  0
  7  8  1  0
  9 12  2  0
  9 10  1  0
 10  7  2  0
 11 22  1  0
 11  8  2  0
 12 11  1  0
 13 12  1  0
 14 22  1  0
 15 20  1  0
 16 17  1  0
 16 15  1  0
 18 17  1  0
 18 27  1  0
 18 19  1  0
 20 14  1  0
 20 19  1  0
 21 14  2  0
 22 23  1  0
 24 25  2  0
 25 44  1  0
 26 25  1  0
 26 29  1  0
 27 24  1  0
 27 28  1  0
 28 26  2  0
 29 30  1  0
 30 31  2  0
 32 35  1  0
 32 31  1  0
 33 32  2  0
 34 33  1  0
 34 29  2  0
 35 36  1  0
 36 37  1  0
 37 38  2  0
 39 38  1  0
 39 43  1  0
 40 39  2  0
 41 36  2  0
 41 40  1  0
 42 41  1  0
 44 45  1  0
 45 48  1  0
 45 47  1  0
 46 44  2  0
 49 50  1  0
 49 24  1  0
 51 49  1  0
 53 64  2  0
 54 52  1  0
 54 59  1  0
 55 63  1  0
 55 65  1  0
 56 62  1  0
 56 58  1  0
 57 63  1  0
 58 57  1  0
 59 58  2  0
 60 54  2  0
 61 60  1  0
 61 56  2  0
 62 55  1  0
 63 53  1  0
 65 67  2  0
 66 65  1  0
 68 66  1  0
 69 78  2  0
 69 74  1  0
 70 66  1  0
 70 74  1  0
 71 70  1  0
 72 73  1  0
 72 71  1  0
 73 69  1  0
 74 75  2  0
 75 76  1  0
 77 76  2  0
 78 77  1  0
 79 53  1  0
 79 80  1  0
 79 89  1  0
 80 83  1  0
 81 85  1  0
 81 80  1  0
 82 81  2  0
 85 84  1  0
 87 85  1  0
 87 88  1  0
 87 86  1  0
 89 92  1  1
 89 90  1  0
 91 89  1  0
M  ISO  4   5 101  14 100  22 100  52 101
M  END
>  <TORSDO>  (95) 
F 17

>  <SCORE>  (95) 
-15.542

>  <name>  (95) 
95

>  <ligand_id>  (95) 
95

>  <original_smiles>  (95) 
[H]c1c([H])c([H])c2c(c1[H])C([H])([H])C([H])([H])C([H])([H])C2([H])N([H])C(=O)C1([H])N(C(=O)C([H])(N([H])C(=O)C([H])(N([H])C([H])([H])[H])C([H])([H])[H])C(C([H])([H])[H])(C([H])([H])[H])C([H])([H])[H])C([H])([H])c2c([H])c(OC3([H])C([H])([H])C([H])([H])N(c4c([H])c([H])c(N([H])C(=O)N5C([H])([H])C([H])([H])C([H])([H])C([H])(n6nc(-c7c([H])c([H])c(Oc8c([H])c([H])c(F)c([H])c8F)c([H])c7[H])c(C(=O)N([H])[H])c6N([H])[H])C5([H])[H])c(F)c4[H])C([H])([H])C3([H])[H])c([H])c([H])c2C1([H])[H]

>  <smiles>  (95) 
[H]c1c([H])c([H])c2c(c1[H])C([H])([H])C([H])([H])C([H])([H])C2([H])N([H])C(=O)C1([H])N(C(=O)C([H])(N([H])C(=O)C([H])(N([H])C([H])([H])[H])C([H])([H])[H])C(C([H])([H])[H])(C([H])([H])[H])C([H])([H])[H])C([H])([H])c2c([H])c(OC3([H])C([H])([H])C([H])([H])N(c4c([H])c([H])c(N([H])C(=O)N5C([H])([H])C([H])([H])C([H])([H])C([H])(n6nc(-c7c([H])c([H])c(Oc8c([H])c([H])c(F)c([H])c8F)c([H])c7[H])c(C(=O)N([H])[H])c6N([H])[H])C5([H])[H])c(F)c4[H])C([H])([H])C3([H])[H])c([H])c([H])c2C1([H])[H]

$$$$
96:0:0
     RDKit          3D

 92101  0  0  1  0  0  0  0  0999 V2000
  -30.3310  -21.6530   20.2540 C   0  0  0  0  0  2  0  0  0  0  0  0
  -30.8290  -14.7080   19.7520 C   0  0  0  0  0  0  0  0  0  0  0  0
  -30.4730  -12.5770   18.4970 C   0  0  0  0  0  2  0  0  0  0  0  0
  -29.3260  -12.7610   17.4750 C   0  0  0  0  0  2  0  0  0  0  0  0
  -27.9430  -12.5360   18.1240 C   0  0  0  0  0  2  0  0  0  0  0  0
  -27.8010  -13.2690   19.4840 C   0  0  0  0  0  3  0  0  0  0  0  0
  -29.0310  -12.9670   20.3620 C   0  0  0  0  0  2  0  0  0  0  0  0
  -30.2110  -13.4770   19.6440 N   0  0  0  0  0  0  0  0  0  0  0  0
  -31.8570  -14.9310   19.0980 O   0  0  0  0  0  0  0  0  0  0  0  0
  -30.3670  -19.3380   18.9950 C   0  0  0  0  0  3  0  0  0  0  0  0
  -30.4110  -17.9040   18.9710 C   0  0  0  0  0  3  0  0  0  0  0  0
  -29.9380  -19.3310   21.3750 C   0  0  0  0  0  3  0  0  0  0  0  0
  -29.9870  -17.9110   21.3350 C   0  0  0  0  0  0  0  0  0  0  0  0
  -30.1450  -20.0900   20.1920 C   0  0  0  0  0  0  0  0  0  0  0  0
  -30.2320  -17.1720   20.1720 C   0  0  0  0  0  0  0  0  0  0  0  0
  -29.8270  -16.9930   22.5060 C   0  0  0  0  0  2  0  0  0  0  0  0
  -29.7540  -15.5980   21.8460 C   0  0  0  0  0  2  0  0  0  0  0  0
  -30.2000  -15.7370   20.4440 N   0  0  0  0  0  0  0  0  0  0  0  0
  -25.6060  -13.7730   20.7250 C   0  0  0  0  0  0  0  0  0  0  0  0
  -24.5910  -12.9630   21.1560 C   0  0  0  0  0  0  0  0  0  0  0  0
  -24.9770  -11.6310   20.8130 C   0  0  0  0  0  0  0  0  0  0  0  0
  -26.5490  -12.9310   20.1570 N   0  0  0  0  0  0  0  0  0  0  0  0
  -26.1840  -11.6280   20.2620 N   0  0  0  0  0  0  0  0  0  0  0  0
  -24.2420  -10.3650   20.9260 C   0  0  0  0  0  0  0  0  0  0  0  0
  -24.7480   -9.2810   21.6790 C   0  0  0  0  0  3  0  0  0  0  0  0
  -24.0130   -8.0800   21.7860 C   0  0  0  0  0  3  0  0  0  0  0  0
  -22.7600   -7.9540   21.1420 C   0  0  0  0  0  0  0  0  0  0  0  0
  -22.2710   -9.0270   20.3770 C   0  0  0  0  0  3  0  0  0  0  0  0
  -23.0040  -10.2200   20.2660 C   0  0  0  0  0  3  0  0  0  0  0  0
  -21.9900   -6.8160   21.1710 O   0  0  0  0  0  0  0  0  0  0  0  0
  -21.9690   -5.9890   22.2640 C   0  0  0  0  0  0  0  0  0  0  0  0
  -21.6180   -6.4600   23.5480 C   0  0  0  0  0  3  0  0  0  0  0  0
  -21.5410   -5.5620   24.6310 C   0  0  0  0  0  3  0  0  0  0  0  0
  -21.8040   -4.1940   24.4320 C   0  0  0  0  0  0  0  0  0  0  0  0
  -22.1500   -3.7220   23.1530 C   0  0  0  0  0  3  0  0  0  0  0  0
  -22.2280   -4.6170   22.0720 C   0  0  0  0  0  0  0  0  0  0  0  0
  -22.5400   -4.1530   20.8370 F   0  0  0  0  0  0  0  0  0  0  0  0
  -21.7230   -3.3290   25.4700 F   0  0  0  0  0  0  0  0  0  0  0  0
  -23.2920  -13.4050   21.7650 C   0  0  0  0  0  0  0  0  0  0  0  0
  -22.7250  -12.5970   22.6550 N   0  0  0  0  0  0  0  0  0  0  0  0
  -22.7960  -14.4980   21.4920 O   0  0  0  0  0  0  0  0  0  0  0  0
  -23.1420  -11.7110   22.8980 H   0  0  0  0  0  0  0  0  0  0  0  0
  -21.8620  -12.8720   23.1030 H   0  0  0  0  0  0  0  0  0  0  0  0
  -25.7980  -15.1500   20.7490 N   0  0  0  0  0  0  0  0  0  0  0  0
  -25.1000  -15.7890   21.1140 H   0  0  0  0  0  0  0  0  0  0  0  0
  -26.6010  -15.6240   20.3550 H   0  0  0  0  0  0  0  0  0  0  0  0
  -29.1580  -22.5880   20.0710 N   0  0  0  0  0  4  0  0  0  0  0  0
  -28.4480  -22.3170   20.7330 H   0  0  0  0  0  0  0  0  0  0  0  0
  -28.7840  -22.4210   19.1500 H   0  0  0  0  0  0  0  0  0  0  0  0
  -29.4490  -24.0780   20.2380 C   0  0  0  0  0  3  0  0  0  0  0  0
  -28.2680  -25.0830   19.8980 C   0  0  0  0  0  3  0  0  0  0  0  0
  -28.4470  -26.5260   20.1800 O   0  0  0  0  0  0  0  0  0  0  0  0
  -24.6760  -31.8290   23.2930 C   0  0  0  0  0  0  0  0  0  0  0  0
  -27.3150  -27.3560   20.1450 C   0  0  0  0  0  0  0  0  0  0  0  0
  -23.4800  -30.4610   21.6220 C   0  0  0  0  0  3  0  0  0  0  0  0
  -24.9380  -28.9480   20.1690 C   0  0  0  0  0  0  0  0  0  0  0  0
  -26.0170  -30.7960   21.4480 C   0  0  0  0  0  2  0  0  0  0  0  0
  -26.1030  -29.4320   20.7750 C   0  0  0  0  0  0  0  0  0  0  0  0
  -27.2940  -28.6470   20.7550 C   0  0  0  0  0  3  0  0  0  0  0  0
  -26.1220  -26.9240   19.5170 C   0  0  0  0  0  3  0  0  0  0  0  0
  -24.9480  -27.6980   19.5330 C   0  0  0  0  0  3  0  0  0  0  0  0
  -23.6970  -29.8130   20.2300 C   0  0  0  0  0  2  0  0  0  0  0  0
  -24.7430  -31.0450   22.1780 N   0  0  0  0  0  0  0  0  0  0  0  0
  -23.5910  -32.0930   23.8310 O   0  0  0  0  0  0  0  0  0  0  0  0
  -22.8180  -29.4230   22.5600 C   0  0  0  0  0  0  0  0  0  0  0  0
  -21.4930  -29.2410   22.4200 N   0  0  0  0  0  0  0  0  0  0  0  0
  -23.4950  -28.7870   23.3710 O   0  0  0  0  0  0  0  0  0  0  0  0
  -21.0060  -29.8080   21.7400 H   0  0  0  0  0  0  0  0  0  0  0  0
  -18.1160  -28.0370   22.8920 C   0  0  0  0  0  0  0  0  0  0  0  0
  -20.6740  -28.2870   23.1680 C   0  0  0  0  0  3  0  0  0  0  0  0
  -20.7740  -26.8680   22.5600 C   0  0  0  0  0  2  0  0  0  0  0  0
  -19.6720  -26.5710   21.5380 C   0  0  0  0  0  2  0  0  0  0  0  0
  -18.2900  -26.7030   22.1850 C   0  0  0  0  0  2  0  0  0  0  0  0
  -19.2350  -28.7870   23.3390 C   0  0  0  0  0  0  0  0  0  0  0  0
  -19.0170  -30.0370   23.9590 C   0  0  0  0  0  3  0  0  0  0  0  0
  -17.7130  -30.5360   24.1370 C   0  0  0  0  0  3  0  0  0  0  0  0
  -16.6080  -29.7830   23.7040 C   0  0  0  0  0  3  0  0  0  0  0  0
  -16.8100  -28.5340   23.0880 C   0  0  0  0  0  3  0  0  0  0  0  0
  -25.9570  -32.4510   23.9300 C   0  0  0  0  0  3  0  0  0  0  0  0
  -26.4550  -31.6720   25.2100 C   0  0  1  0  0  0  0  0  0  0  0  0
  -25.3480  -31.4340   26.2640 C   0  0  0  0  0  1  0  0  0  0  0  0
  -27.0360  -30.2950   24.8180 C   0  0  0  0  0  1  0  0  0  0  0  0
  -27.6000  -32.4600   25.8890 C   0  0  0  0  0  1  0  0  0  0  0  0
  -25.6510  -33.8500   24.2630 N   0  0  0  0  0  0  0  0  0  0  0  0
  -25.9640  -34.9020   23.4930 C   0  0  0  0  0  0  0  0  0  0  0  0
  -26.6100  -34.7970   22.4470 O   0  0  0  0  0  0  0  0  0  0  0  0
  -25.0740  -34.0050   25.0770 H   0  0  0  0  0  0  0  0  0  0  0  0
  -24.2100  -36.6800   23.1930 C   0  0  0  0  0  1  0  0  0  0  0  0
  -25.4840  -36.2910   23.9590 C   0  0  0  0  0  3  0  0  0  0  0  0
  -27.6420  -37.1990   24.7000 C   0  0  0  0  0  1  0  0  0  0  0  0
  -26.5040  -37.3500   23.7960 N   0  0  0  0  0  0  0  0  0  0  0  0
  -26.0970  -38.2690   23.9490 H   0  0  0  0  0  0  0  0  0  0  0  0
  2 18  1  0
  3  8  1  0
  4  5  1  0
  4  3  1  0
  6  5  1  0
  6 22  1  0
  6  7  1  0
  8  2  1  0
  8  7  1  0
  9  2  2  0
 10 14  1  0
 11 10  2  0
 11 15  1  0
 13 12  1  0
 13 16  1  0
 14  1  1  0
 14 12  2  0
 15 18  1  0
 15 13  2  0
 17 16  1  0
 18 17  1  0
 19 44  1  0
 19 20  2  0
 20 39  1  0
 21 24  1  0
 21 20  1  0
 22 23  1  0
 22 19  1  0
 23 21  2  0
 24 25  1  0
 25 26  2  0
 27 30  1  0
 27 26  1  0
 28 27  2  0
 29 28  1  0
 29 24  2  0
 30 31  1  0
 31 32  1  0
 32 33  2  0
 34 33  1  0
 34 38  1  0
 35 34  2  0
 36 31  2  0
 36 35  1  0
 37 36  1  0
 39 40  1  0
 40 42  1  0
 40 43  1  0
 41 39  2  0
 44 45  1  0
 46 44  1  0
 47 50  1  0
 47  1  1  0
 47 48  1  0
 49 47  1  0
 51 52  1  0
 51 50  2  0
 53 64  2  0
 54 52  1  0
 54 59  1  0
 55 63  1  0
 55 65  1  0
 56 62  1  0
 56 58  1  0
 57 63  1  0
 58 57  1  0
 59 58  2  0
 60 61  1  0
 60 54  2  0
 61 56  2  0
 62 55  1  0
 63 53  1  0
 65 67  2  0
 66 65  1  0
 68 66  1  0
 69 78  2  0
 69 74  1  0
 70 66  1  0
 70 74  1  0
 71 70  1  0
 72 73  1  0
 72 71  1  0
 73 69  1  0
 74 75  2  0
 75 76  1  0
 77 76  2  0
 78 77  1  0
 79 53  1  0
 79 84  1  0
 79 80  1  0
 80 83  1  1
 80 81  1  0
 82 80  1  0
 84 87  1  0
 85 89  1  0
 85 84  1  0
 86 85  2  0
 89 88  1  0
 91 92  1  0
 91 89  1  0
 91 90  1  0
M  ISO  4   2 100  18 100  51 101  52 101
M  END
>  <TORSDO>  (96) 
F 19

>  <SCORE>  (96) 
-10.972

>  <name>  (96) 
96

>  <ligand_id>  (96) 
96

>  <original_smiles>  (96) 
[H]c1c([H])c([H])c2c(c1[H])C([H])([H])C([H])([H])C([H])([H])C2([H])N([H])C(=O)C1([H])N(C(=O)C([H])(N([H])C(=O)C([H])(N([H])C([H])([H])[H])C([H])([H])[H])C(C([H])([H])[H])(C([H])([H])[H])C([H])([H])[H])C([H])([H])c2c([H])c(OC([H])([H])C([H])([H])[N+]([H])([H])C([H])([H])c3c([H])c([H])c4c(c3[H])C([H])([H])C([H])([H])N4C(=O)N3C([H])([H])C([H])([H])C([H])([H])C([H])(n4nc(-c5c([H])c([H])c(Oc6c([H])c([H])c(F)c([H])c6F)c([H])c5[H])c(C(=O)N([H])[H])c4N([H])[H])C3([H])[H])c([H])c([H])c2C1([H])[H]

>  <smiles>  (96) 
[H]c1c([H])c([H])c2c(c1[H])C([H])([H])C([H])([H])C([H])([H])C2([H])N([H])C(=O)C1([H])N(C(=O)C([H])(N([H])C(=O)C([H])(N([H])C([H])([H])[H])C([H])([H])[H])C(C([H])([H])[H])(C([H])([H])[H])C([H])([H])[H])C([H])([H])c2c([H])c(OC([H])([H])C([H])([H])[N+]([H])([H])C([H])([H])c3c([H])c([H])c4c(c3[H])C([H])([H])C([H])([H])N4C(=O)N3C([H])([H])C([H])([H])C([H])([H])C([H])(n4nc(-c5c([H])c([H])c(Oc6c([H])c([H])c(F)c([H])c6F)c([H])c5[H])c(C(=O)N([H])[H])c4N([H])[H])C3([H])[H])c([H])c([H])c2C1([H])[H]

$$$$
97:0:0
     RDKit          3D

 82 87  0  0  1  0  0  0  0  0999 V2000
  -28.1930  -24.4930   20.2350 O   0  0  0  0  0  1  0  0  0  0  0  0
  -29.9270  -16.8380   20.0730 C   0  0  0  0  0  0  0  0  0  0  0  0
  -30.3100  -14.0380   19.2850 C   0  0  0  0  0  2  0  0  0  0  0  0
  -29.5570  -13.1340   18.2110 C   0  0  0  0  0  2  0  0  0  0  0  0
  -28.2660  -12.5240   18.7530 C   0  0  0  0  0  2  0  0  0  0  0  0
  -27.6070  -13.5550   19.6770 C   0  0  0  0  0  3  0  0  0  0  0  0
  -28.5680  -14.3130   20.6800 C   0  0  0  0  0  2  0  0  0  0  0  0
  -29.5070  -15.2870   19.9360 N   0  0  0  0  0  0  0  0  0  0  0  0
  -31.1730  -16.5560   20.0100 O   0  0  0  0  0  0  0  0  0  0  0  0
  -27.5340  -21.0000   19.7070 C   0  0  0  0  0  2  0  0  0  0  0  0
  -27.8640  -19.2740   20.0150 C   0  0  0  0  0  3  0  0  0  0  0  0
  -29.5080  -20.4900   20.2470 C   0  0  0  0  0 15  0  0  0  0  0  0
  -28.3710  -22.3280   20.3220 C   0  0  0  0  0  1  0  0  0  0  0  0
  -29.2760  -18.5540   20.1200 N   0  0  0  0  0  0  0  0  0  0  0  0
  -25.2730  -13.9330   20.5360 C   0  0  0  0  0  0  0  0  0  0  0  0
  -24.2420  -13.1190   20.9040 C   0  0  0  0  0  0  0  0  0  0  0  0
  -24.7400  -11.7790   20.8180 C   0  0  0  0  0  0  0  0  0  0  0  0
  -26.3380  -13.1070   20.2490 N   0  0  0  0  0  0  0  0  0  0  0  0
  -26.0300  -11.7920   20.4660 N   0  0  0  0  0  0  0  0  0  0  0  0
  -24.0250  -10.5010   20.9960 C   0  0  0  0  0  0  0  0  0  0  0  0
  -24.4550   -9.5310   21.9290 C   0  0  0  0  0  3  0  0  0  0  0  0
  -23.7310   -8.3300   22.1050 C   0  0  0  0  0  3  0  0  0  0  0  0
  -22.5580   -8.0880   21.3500 C   0  0  0  0  0  0  0  0  0  0  0  0
  -22.1450   -9.0470   20.4080 C   0  0  0  0  0  3  0  0  0  0  0  0
  -22.8710  -10.2380   20.2290 C   0  0  0  0  0  3  0  0  0  0  0  0
  -21.8070   -6.9400   21.4340 O   0  0  0  0  0  0  0  0  0  0  0  0
  -21.7220   -6.2160   22.5970 C   0  0  0  0  0  0  0  0  0  0  0  0
  -21.2220   -6.7830   23.7900 C   0  0  0  0  0  3  0  0  0  0  0  0
  -21.0850   -5.9860   24.9460 C   0  0  0  0  0  3  0  0  0  0  0  0
  -21.4370   -4.6250   24.9090 C   0  0  0  0  0  0  0  0  0  0  0  0
  -21.9270   -4.0570   23.7210 C   0  0  0  0  0  3  0  0  0  0  0  0
  -22.0660   -4.8490   22.5680 C   0  0  0  0  0  0  0  0  0  0  0  0
  -22.5200   -4.2900   21.4200 F   0  0  0  0  0  0  0  0  0  0  0  0
  -21.3000   -3.8580   26.0160 F   0  0  0  0  0  0  0  0  0  0  0  0
  -22.8450  -13.5660   21.2130 C   0  0  0  0  0  0  0  0  0  0  0  0
  -22.1500  -12.8530   22.0910 N   0  0  0  0  0  0  0  0  0  0  0  0
  -22.3810  -14.5920   20.7140 O   0  0  0  0  0  0  0  0  0  0  0  0
  -22.5370  -12.0250   22.5180 H   0  0  0  0  0  0  0  0  0  0  0  0
  -21.2140  -13.1390   22.3440 H   0  0  0  0  0  0  0  0  0  0  0  0
  -25.3930  -15.3130   20.3850 N   0  0  0  0  0  0  0  0  0  0  0  0
  -24.6220  -15.9490   20.5580 H   0  0  0  0  0  0  0  0  0  0  0  0
  -26.2340  -15.7810   20.0760 H   0  0  0  0  0  0  0  0  0  0  0  0
  -24.7500  -31.7680   23.0990 C   0  0  0  0  0  0  0  0  0  0  0  0
  -27.2720  -26.0230   20.2540 C   0  0  0  0  0  0  0  0  0  0  0  0
  -23.6050  -30.3310   21.4770 C   0  0  0  0  0  3  0  0  0  0  0  0
  -25.0660  -28.5170   20.1430 C   0  0  0  0  0  0  0  0  0  0  0  0
  -26.2080  -30.2590   21.4610 C   0  0  0  0  0  2  0  0  0  0  0  0
  -26.2690  -28.7400   20.8220 C   0  0  0  0  0  0  0  0  0  0  0  0
  -27.3180  -27.5540   20.8160 C   0  0  0  0  0  3  0  0  0  0  0  0
  -26.0280  -26.2040   19.5150 C   0  0  0  0  0  3  0  0  0  0  0  0
  -25.0300  -27.2790   19.4620 C   0  0  0  0  0  3  0  0  0  0  0  0
  -23.8920  -29.5580   20.1430 C   0  0  0  0  0  2  0  0  0  0  0  0
  -24.8890  -30.8380   22.0650 N   0  0  0  0  0  0  0  0  0  0  0  0
  -23.6360  -32.1040   23.5540 O   0  0  0  0  0  0  0  0  0  0  0  0
  -22.8090  -29.4350   22.4720 C   0  0  0  0  0  0  0  0  0  0  0  0
  -21.4710  -29.3260   22.3430 N   0  0  0  0  0  0  0  0  0  0  0  0
  -23.4260  -28.8230   23.3450 O   0  0  0  0  0  0  0  0  0  0  0  0
  -21.0110  -29.8700   21.6250 H   0  0  0  0  0  0  0  0  0  0  0  0
  -18.0540  -28.1530   22.8920 C   0  0  0  0  0  0  0  0  0  0  0  0
  -20.6230  -28.4050   23.1200 C   0  0  0  0  0  3  0  0  0  0  0  0
  -20.7020  -26.9710   22.5450 C   0  0  0  0  0  2  0  0  0  0  0  0
  -19.5860  -26.6620   21.5400 C   0  0  0  0  0  2  0  0  0  0  0  0
  -18.2140  -26.8090   22.2030 C   0  0  0  0  0  2  0  0  0  0  0  0
  -19.1840  -28.9110   23.3070 C   0  0  0  0  0  0  0  0  0  0  0  0
  -18.9730  -30.1620   23.9250 C   0  0  0  0  0  3  0  0  0  0  0  0
  -17.6710  -30.6600   24.1230 C   0  0  0  0  0  3  0  0  0  0  0  0
  -16.5580  -29.9040   23.7140 C   0  0  0  0  0  3  0  0  0  0  0  0
  -16.7520  -28.6520   23.1050 C   0  0  0  0  0  3  0  0  0  0  0  0
  -25.9700  -32.4670   23.7800 C   0  0  0  0  0  3  0  0  0  0  0  0
  -25.6140  -33.8710   24.1070 N   0  0  0  0  0  0  0  0  0  0  0  0
  -25.9400  -34.9560   23.3870 C   0  0  0  0  0  0  0  0  0  0  0  0
  -26.6090  -34.8820   22.3550 O   0  0  0  0  0  0  0  0  0  0  0  0
  -25.0140  -34.0020   24.9070 H   0  0  0  0  0  0  0  0  0  0  0  0
  -24.1860  -36.7550   23.1120 C   0  0  0  0  0  1  0  0  0  0  0  0
  -25.4510  -36.3390   23.8810 C   0  0  0  0  0  3  0  0  0  0  0  0
  -27.6020  -37.2450   24.6620 C   0  0  0  0  0  1  0  0  0  0  0  0
  -26.4610  -37.4170   23.7670 N   0  0  0  0  0  0  0  0  0  0  0  0
  -26.0420  -38.3200   23.9670 H   0  0  0  0  0  0  0  0  0  0  0  0
  -26.4350  -31.7400   25.1050 C   0  0  1  0  0  0  0  0  0  0  0  0
  -25.3030  -31.5230   26.1410 C   0  0  0  0  0  1  0  0  0  0  0  0
  -27.0440  -30.3560   24.7990 C   0  0  0  0  0  1  0  0  0  0  0  0
  -27.5530  -32.5630   25.7870 C   0  0  0  0  0  1  0  0  0  0  0  0
  1 44  1  0
  2 14  1  0
  3  8  1  0
  4  5  1  0
  4  3  1  0
  6  5  1  0
  6 18  1  0
  6  7  1  0
  8  2  1  0
  8  7  1  0
  9  2  2  0
 10 11  1  0
 10 13  1  0
 11 14  2  0
 15 16  2  0
 16 35  1  0
 17 16  1  0
 17 20  1  0
 18 19  1  0
 18 15  1  0
 19 17  2  0
 20 21  1  0
 21 22  2  0
 23 26  1  0
 23 22  1  0
 24 23  2  0
 25 24  1  0
 25 20  2  0
 26 27  1  0
 27 28  1  0
 28 29  2  0
 30 29  1  0
 30 34  1  0
 31 30  2  0
 32 27  2  0
 32 31  1  0
 33 32  1  0
 35 36  1  0
 36 39  1  0
 36 38  1  0
 37 35  2  0
 40 15  1  0
 40 41  1  0
 42 40  1  0
 43 54  2  0
 44 49  1  0
 45 53  1  0
 45 55  1  0
 46 48  1  0
 47 53  1  0
 48 47  1  0
 49 48  2  0
 50 44  2  0
 51 50  1  0
 51 46  2  0
 52 46  1  0
 52 45  1  0
 53 43  1  0
 55 57  2  0
 56 55  1  0
 58 56  1  0
 59 68  2  0
 59 64  1  0
 60 56  1  0
 60 64  1  0
 61 60  1  0
 62 63  1  0
 62 61  1  0
 63 59  1  0
 64 65  2  0
 65 66  1  0
 67 66  2  0
 68 67  1  0
 69 43  1  0
 69 70  1  0
 69 79  1  0
 70 73  1  0
 71 75  1  0
 71 70  1  0
 72 71  2  0
 75 74  1  0
 77 75  1  0
 77 78  1  0
 77 76  1  0
 79 82  1  1
 79 80  1  0
 81 79  1  0
M  ISO  4   1 101   2 100  13 101  14 100
M  END
>  <TORSDO>  (97) 
F 15

>  <SCORE>  (97) 
-16.149

>  <name>  (97) 
97

>  <ligand_id>  (97) 
97

>  <original_smiles>  (97) 
[H]c1c([H])c([H])c2c(c1[H])C([H])([H])C([H])([H])C([H])([H])C2([H])N([H])C(=O)C1([H])N(C(=O)C([H])(N([H])C(=O)C([H])(N([H])C([H])([H])[H])C([H])([H])[H])C(C([H])([H])[H])(C([H])([H])[H])C([H])([H])[H])C([H])([H])c2c([H])c(OC3([H])C([H])([H])N(C(=O)N4C([H])([H])C([H])([H])C([H])([H])C([H])(n5nc(-c6c([H])c([H])c(Oc7c([H])c([H])c(F)c([H])c7F)c([H])c6[H])c(C(=O)N([H])[H])c5N([H])[H])C4([H])[H])C([H])([H])C3([H])[H])c([H])c([H])c2C1([H])[H]

>  <smiles>  (97) 
[H]c1c([H])c([H])c2c(c1[H])C([H])([H])C([H])([H])C([H])([H])C2([H])N([H])C(=O)C1([H])N(C(=O)C([H])(N([H])C(=O)C([H])(N([H])C([H])([H])[H])C([H])([H])[H])C(C([H])([H])[H])(C([H])([H])[H])C([H])([H])[H])C([H])([H])c2c([H])c(OC3([H])C([H])([H])N(C(=O)N4C([H])([H])C([H])([H])C([H])([H])C([H])(n5nc(-c6c([H])c([H])c(Oc7c([H])c([H])c(F)c([H])c7F)c([H])c6[H])c(C(=O)N([H])[H])c5N([H])[H])C4([H])[H])C([H])([H])C3([H])[H])c([H])c([H])c2C1([H])[H]

$$$$
98:0:0
     RDKit          3D

 86 92  0  0  1  0  0  0  0  0999 V2000
  -30.1030  -16.2600   20.2160 C   0  0  0  0  0  0  0  0  0  0  0  0
  -30.3940  -13.5980   19.4280 C   0  0  0  0  0  2  0  0  0  0  0  0
  -29.5810  -12.9170   18.2740 C   0  0  0  0  0  2  0  0  0  0  0  0
  -28.2000  -12.4430   18.7500 C   0  0  0  0  0  2  0  0  0  0  0  0
  -27.5920  -13.4650   19.7250 C   0  0  0  0  0  3  0  0  0  0  0  0
  -28.5840  -14.0120   20.7880 C   0  0  0  0  0  2  0  0  0  0  0  0
  -29.6380  -14.8130   20.0630 N   0  0  0  0  0  0  0  0  0  0  0  0
  -31.3400  -16.0840   20.3520 O   0  0  0  0  0  0  0  0  0  0  0  0
  -27.3360  -18.0740   18.4680 C   0  0  0  0  0  2  0  0  0  0  0  0
  -27.1330  -19.6070   18.4550 C   0  0  0  0  0  2  0  0  0  0  0  0
  -28.8270  -17.6710   18.5730 C   0  0  0  0  0  2  0  0  0  0  0  0
  -27.3930  -22.0480   19.5990 C   0  0  0  0  0  2  0  0  0  0  0  0
  -29.3230  -21.6110   20.2710 C   0  0  0  0  0  1  0  0  0  0  0  0
  -27.5590  -20.3340   19.7630 C   0  0  0  0  0  3  0  0  0  0  0  0
  -28.9470  -19.6660   20.3400 C   0  0  0  0  0  1  0  0  0  0  0  0
  -29.3830  -17.7750   19.9460 N   0  0  0  0  0  2  0  0  0  0  0  0
  -28.2110  -22.9640   20.4970 N   0  0  0  0  0  2  0  0  0  0  0  0
  -25.2160  -13.9200   20.4650 C   0  0  0  0  0  0  0  0  0  0  0  0
  -24.1720  -13.1180   20.8190 C   0  0  0  0  0  0  0  0  0  0  0  0
  -24.6760  -11.7800   20.8140 C   0  0  0  0  0  0  0  0  0  0  0  0
  -26.2900  -13.0760   20.2540 N   0  0  0  0  0  0  0  0  0  0  0  0
  -25.9780  -11.7790   20.5270 N   0  0  0  0  0  0  0  0  0  0  0  0
  -23.9650  -10.5040   21.0000 C   0  0  0  0  0  0  0  0  0  0  0  0
  -24.3900   -9.5510   21.9520 C   0  0  0  0  0  3  0  0  0  0  0  0
  -23.6670   -8.3530   22.1340 C   0  0  0  0  0  3  0  0  0  0  0  0
  -22.5040   -8.0960   21.3700 C   0  0  0  0  0  0  0  0  0  0  0  0
  -22.0960   -9.0380   20.4100 C   0  0  0  0  0  3  0  0  0  0  0  0
  -22.8220  -10.2290   20.2230 C   0  0  0  0  0  3  0  0  0  0  0  0
  -21.7580   -6.9450   21.4620 O   0  0  0  0  0  0  0  0  0  0  0  0
  -21.7110   -6.2070   22.6170 C   0  0  0  0  0  0  0  0  0  0  0  0
  -21.2800   -6.7650   23.8410 C   0  0  0  0  0  3  0  0  0  0  0  0
  -21.1750   -5.9520   24.9870 C   0  0  0  0  0  3  0  0  0  0  0  0
  -21.4970   -4.5840   24.9120 C   0  0  0  0  0  0  0  0  0  0  0  0
  -21.9260   -4.0250   23.6950 C   0  0  0  0  0  3  0  0  0  0  0  0
  -22.0290   -4.8340   22.5490 C   0  0  0  0  0  0  0  0  0  0  0  0
  -22.4200   -4.2880   21.3720 F   0  0  0  0  0  0  0  0  0  0  0  0
  -21.3900   -3.8040   26.0120 F   0  0  0  0  0  0  0  0  0  0  0  0
  -22.7590  -13.5670   21.0360 C   0  0  0  0  0  0  0  0  0  0  0  0
  -22.0210  -12.8840   21.9050 N   0  0  0  0  0  0  0  0  0  0  0  0
  -22.3150  -14.5640   20.4670 O   0  0  0  0  0  0  0  0  0  0  0  0
  -22.3910  -12.0860   22.3980 H   0  0  0  0  0  0  0  0  0  0  0  0
  -21.0690  -13.1680   22.0790 H   0  0  0  0  0  0  0  0  0  0  0  0
  -25.3330  -15.2960   20.2710 N   0  0  0  0  0  0  0  0  0  0  0  0
  -24.5270  -15.9060   20.3570 H   0  0  0  0  0  0  0  0  0  0  0  0
  -26.1570  -15.7780   19.9400 H   0  0  0  0  0  0  0  0  0  0  0  0
  -28.2700  -25.0240   20.2470 O   0  0  0  0  0  1  0  0  0  0  0  0
  -24.7660  -31.8640   23.1820 C   0  0  0  0  0  0  0  0  0  0  0  0
  -27.2960  -26.3770   20.3470 C   0  0  0  0  0  0  0  0  0  0  0  0
  -23.6110  -30.4230   21.5710 C   0  0  0  0  0  3  0  0  0  0  0  0
  -25.0680  -28.6630   20.2410 C   0  0  0  0  0  0  0  0  0  0  0  0
  -26.2080  -30.4360   21.5320 C   0  0  0  0  0  2  0  0  0  0  0  0
  -26.2680  -28.9490   20.9060 C   0  0  0  0  0  0  0  0  0  0  0  0
  -27.3440  -27.8460   20.9110 C   0  0  0  0  0  3  0  0  0  0  0  0
  -26.0610  -26.4100   19.6180 C   0  0  0  0  0  3  0  0  0  0  0  0
  -25.0260  -27.4220   19.5760 C   0  0  0  0  0  3  0  0  0  0  0  0
  -23.8870  -29.6670   20.2320 C   0  0  0  0  0  2  0  0  0  0  0  0
  -24.8910  -30.9530   22.1450 N   0  0  0  0  0  0  0  0  0  0  0  0
  -23.6580  -32.1930   23.6460 O   0  0  0  0  0  0  0  0  0  0  0  0
  -22.8430  -29.5050   22.5620 C   0  0  0  0  0  0  0  0  0  0  0  0
  -21.5040  -29.3830   22.4290 N   0  0  0  0  0  0  0  0  0  0  0  0
  -23.4670  -28.8930   23.4300 O   0  0  0  0  0  0  0  0  0  0  0  0
  -21.0440  -29.9190   21.7070 H   0  0  0  0  0  0  0  0  0  0  0  0
  -18.0920  -28.2250   22.9600 C   0  0  0  0  0  0  0  0  0  0  0  0
  -20.6570  -28.4720   23.2140 C   0  0  0  0  0  3  0  0  0  0  0  0
  -20.7400  -27.0290   22.6610 C   0  0  0  0  0  2  0  0  0  0  0  0
  -19.6350  -26.7060   21.6500 C   0  0  0  0  0  2  0  0  0  0  0  0
  -18.2550  -26.8700   22.2910 C   0  0  0  0  0  2  0  0  0  0  0  0
  -19.2180  -28.9840   23.3780 C   0  0  0  0  0  0  0  0  0  0  0  0
  -19.0070  -30.2450   23.9720 C   0  0  0  0  0  3  0  0  0  0  0  0
  -17.7060  -30.7530   24.1470 C   0  0  0  0  0  3  0  0  0  0  0  0
  -16.5950  -29.9940   23.7410 C   0  0  0  0  0  3  0  0  0  0  0  0
  -16.7880  -28.7300   23.1540 C   0  0  0  0  0  3  0  0  0  0  0  0
  -26.0010  -32.5510   23.8430 C   0  0  0  0  0  3  0  0  0  0  0  0
  -25.6480  -33.9520   24.1720 N   0  0  0  0  0  0  0  0  0  0  0  0
  -25.9620  -35.0300   23.4420 C   0  0  0  0  0  0  0  0  0  0  0  0
  -26.6280  -34.9510   22.4070 O   0  0  0  0  0  0  0  0  0  0  0  0
  -25.0470  -34.0840   24.9740 H   0  0  0  0  0  0  0  0  0  0  0  0
  -24.1970  -36.8110   23.1660 C   0  0  0  0  0  1  0  0  0  0  0  0
  -25.4720  -36.4130   23.9270 C   0  0  0  0  0  3  0  0  0  0  0  0
  -27.6170  -37.3400   24.6910 C   0  0  0  0  0  1  0  0  0  0  0  0
  -26.4830  -37.4850   23.7830 N   0  0  0  0  0  0  0  0  0  0  0  0
  -26.0670  -38.4000   23.9420 H   0  0  0  0  0  0  0  0  0  0  0  0
  -26.4820  -31.8140   25.1570 C   0  0  1  0  0  0  0  0  0  0  0  0
  -25.3610  -31.6050   26.2020 C   0  0  0  0  0  1  0  0  0  0  0  0
  -27.0820  -30.4290   24.8400 C   0  0  0  0  0  1  0  0  0  0  0  0
  -27.6100  -32.6320   25.8340 C   0  0  0  0  0  1  0  0  0  0  0  0
  1  8  2  0
  2  7  1  0
  3  4  1  0
  3  2  1  0
  5  4  1  0
  5 21  1  0
  5  6  1  0
  7  1  1  0
  7  6  1  0
  9 11  1  0
 10  9  1  0
 10 14  1  0
 11 16  1  0
 12 14  1  0
 12 17  1  0
 13 17  1  0
 14 15  1  0
 16  1  1  0
 18 19  2  0
 19 38  1  0
 20 19  1  0
 20 23  1  0
 21 18  1  0
 21 22  1  0
 22 20  2  0
 23 24  1  0
 24 25  2  0
 26 29  1  0
 26 25  1  0
 27 26  2  0
 28 27  1  0
 28 23  2  0
 29 30  1  0
 30 31  1  0
 31 32  2  0
 33 32  1  0
 33 37  1  0
 34 33  2  0
 35 30  2  0
 35 34  1  0
 36 35  1  0
 38 39  1  0
 39 42  1  0
 39 41  1  0
 40 38  2  0
 43 44  1  0
 43 18  1  0
 45 43  1  0
 46 48  1  0
 47 58  2  0
 48 53  1  0
 49 57  1  0
 49 59  1  0
 50 52  1  0
 51 57  1  0
 52 53  2  0
 52 51  1  0
 54 48  2  0
 55 54  1  0
 55 50  2  0
 56 50  1  0
 56 49  1  0
 57 47  1  0
 59 61  2  0
 60 59  1  0
 62 60  1  0
 63 72  2  0
 63 68  1  0
 64 60  1  0
 64 68  1  0
 65 64  1  0
 66 67  1  0
 66 65  1  0
 67 63  1  0
 68 69  2  0
 69 70  1  0
 71 70  2  0
 72 71  1  0
 73 47  1  0
 73 74  1  0
 73 83  1  0
 74 77  1  0
 75 79  1  0
 75 74  1  0
 76 75  2  0
 79 78  1  0
 81 79  1  0
 81 82  1  0
 81 80  1  0
 83 86  1  1
 83 84  1  0
 85 83  1  0
M  ISO  4   1 100  16 100  17 101  46 101
M  END
>  <TORSDO>  (98) 
F 15

>  <SCORE>  (98) 
-16.333

>  <name>  (98) 
98

>  <ligand_id>  (98) 
98

>  <original_smiles>  (98) 
[H]c1c([H])c([H])c2c(c1[H])C([H])([H])C([H])([H])C([H])([H])C2([H])N([H])C(=O)C1([H])N(C(=O)C([H])(N([H])C(=O)C([H])(N([H])C([H])([H])[H])C([H])([H])[H])C(C([H])([H])[H])(C([H])([H])[H])C([H])([H])[H])C([H])([H])c2c([H])c(ON3C([H])([H])C4([H])N(C(=O)N5C([H])([H])C([H])([H])C([H])([H])C([H])(n6nc(-c7c([H])c([H])c(Oc8c([H])c([H])c(F)c([H])c8F)c([H])c7[H])c(C(=O)N([H])[H])c6N([H])[H])C5([H])[H])C([H])([H])C([H])([H])C([H])([H])C4([H])C3([H])[H])c([H])c([H])c2C1([H])[H]

>  <smiles>  (98) 
[H]c1c([H])c([H])c2c(c1[H])C([H])([H])C([H])([H])C([H])([H])C2([H])N([H])C(=O)C1([H])N(C(=O)C([H])(N([H])C(=O)C([H])(N([H])C([H])([H])[H])C([H])([H])[H])C(C([H])([H])[H])(C([H])([H])[H])C([H])([H])[H])C([H])([H])c2c([H])c(ON3C([H])([H])C4([H])N(C(=O)N5C([H])([H])C([H])([H])C([H])([H])C([H])(n6nc(-c7c([H])c([H])c(Oc8c([H])c([H])c(F)c([H])c8F)c([H])c7[H])c(C(=O)N([H])[H])c6N([H])[H])C5([H])[H])C([H])([H])C([H])([H])C([H])([H])C4([H])C3([H])[H])c([H])c([H])c2C1([H])[H]

$$$$
